REMARK  Name = 
REMARK  3 active torsions:
REMARK  status: ('A' for Active; 'I' for Inactive)
REMARK    1  A    between atoms: C_1  and  C_8
REMARK    2  A    between atoms: C_3  and  N_12
REMARK    3  A    between atoms: C_10  and  C_23
REMARK                            x       y       z     vdW  Elec       q    Type
REMARK                         _______ _______ _______ _____ _____    ______ ____
ROOT
ATOM      1  C   UNL     1      38.364  30.594  47.095  0.00  0.00    +0.000 C 
ATOM      2  C   UNL     1      36.968  30.558  47.522  0.00  0.00    +0.000 C 
ATOM      3  C   UNL     1      38.084  31.123  48.421  0.00  0.00    +0.000 C 
ATOM      4  H   UNL     1      38.906  29.597  47.023  0.00  0.00    +0.000 HD
ATOM      5  H   UNL     1      36.458  29.631  47.831  0.00  0.00    +0.000 HD
ATOM      6  H   UNL     1      36.312  31.343  47.103  0.00  0.00    +0.000 HD
ATOM      7  H   UNL     1      37.985  32.175  48.659  0.00  0.00    +0.000 HD
ENDROOT
BRANCH   1  12
ATOM      8  C   UNL     1      40.612  32.697  45.018  0.00  0.00    +0.000 A 
ATOM      9  C   UNL     1      39.705  33.178  44.031  0.00  0.00    +0.000 A 
ATOM     10  C   UNL     1      38.368  32.774  44.102  0.00  0.00    +0.000 A 
ATOM     11  N   UNL     1      37.978  31.942  45.105  0.00  0.00    +0.000 NA
ATOM     12  C   UNL     1      38.853  31.501  46.025  0.00  0.00    +0.000 A 
ATOM     13  N   UNL     1      40.185  31.857  46.015  0.00  0.00    +0.000 NA
ATOM     14  H   UNL     1      41.654  32.987  44.991  0.00  0.00    +0.000 HD
ATOM     15  H   UNL     1      40.030  33.828  43.254  0.00  0.00    +0.000 HD
ATOM     16  H   UNL     1      37.613  33.092  43.392  0.00  0.00    +0.000 HD
ENDBRANCH   1  12
BRANCH   3  19
ATOM     17  C   UNL     1      37.697  30.532  50.788  0.00  0.00    +0.000 C 
ATOM     18  O   UNL     1      36.745  31.349  50.806  0.00  0.00    +0.000 OA
ATOM     19  N   UNL     1      38.413  30.264  49.564  0.00  0.00    +0.000 N 
ATOM     20  H   UNL     1      39.137  29.534  49.401  0.00  0.00    +0.000 HD
BRANCH  17  23
ATOM     21 CL   UNL     1      37.919  27.473  50.568  0.00  0.00    +0.000 Cl
ATOM     22  C   UNL     1      38.432  28.383  51.990  0.00  0.00    +0.000 A 
ATOM     23  C   UNL     1      38.246  29.738  51.872  0.00  0.00    +0.000 A 
ATOM     24  C   UNL     1      38.666  30.428  53.029  0.00  0.00    +0.000 A 
ATOM     25  H   UNL     1      38.544  31.530  53.010  0.00  0.00    +0.000 HD
ATOM     26  C   UNL     1      39.218  29.917  54.215  0.00  0.00    +0.000 A 
ATOM     27  H   UNL     1      39.529  30.470  55.079  0.00  0.00    +0.000 HD
ATOM     28  C   UNL     1      39.295  28.543  54.067  0.00  0.00    +0.000 A 
ATOM     29  H   UNL     1      39.720  28.039  54.955  0.00  0.00    +0.000 HD
ATOM     30  C   UNL     1      38.951  27.700  53.055  0.00  0.00    +0.000 A 
ATOM     31 CL   UNL     1      39.139  25.969  53.087  0.00  0.00    +0.000 Cl
ENDBRANCH  17  23
ENDBRANCH   3  19
TORSDOF 3
