
 OpenBabel03272503053D

 34 36  0  0  0  0  0  0  0  0999 V2000
   38.5270   30.7090   47.1330 F   0  0  0  0  0  0  0  0  0  0  0  0
   38.8440   31.9030   47.6820 C   0  0  0  0  0  0  0  0  0  0  0  0
   38.3810   32.2200   48.9270 C   0  0  0  0  0  0  0  0  0  0  0  0
   38.7310   33.4420   49.4360 C   0  0  0  0  0  0  0  0  0  0  0  0
   39.5210   34.3410   48.7440 C   0  0  0  0  0  0  0  0  0  0  0  0
   39.9740   33.9950   47.4940 C   0  0  0  0  0  0  0  0  0  0  0  0
   39.6340   32.7620   46.9500 C   0  0  0  0  0  0  0  0  0  0  0  0
   38.3750   33.7100   50.4150 H   0  0  0  0  0  0  0  0  0  0  0  0
   39.7610   35.2910   49.2040 H   0  0  0  0  0  0  0  0  0  0  0  0
   40.6010   34.6890   46.9250 H   0  0  0  0  0  0  0  0  0  0  0  0
   37.1960   29.5550   51.3500 C   0  0  0  0  0  0  0  0  0  0  0  0
   38.0020   30.4920   50.6960 C   0  0  0  0  0  0  0  0  0  0  0  0
   37.5470   31.2360   49.6220 C   0  0  0  0  0  0  0  0  0  0  0  0
   36.2660   31.0070   49.2380 N   0  0  0  0  0  0  0  0  0  0  0  0
   35.4890   30.1050   49.8690 C   0  0  0  0  0  0  0  0  0  0  0  0
   35.9400   29.3970   50.8980 N   0  0  0  0  0  0  0  0  0  0  0  0
   37.6850   29.0350   52.1870 H   0  0  0  0  0  0  0  0  0  0  0  0
   39.0330   30.6880   50.9910 H   0  0  0  0  0  0  0  0  0  0  0  0
   34.4680   29.9250   49.5600 H   0  0  0  0  0  0  0  0  0  0  0  0
   39.0620   32.4350   44.6360 C   0  0  0  0  0  0  0  0  0  0  0  0
   37.9350   32.8450   45.0560 O   0  0  0  0  0  0  0  0  0  0  0  0
   40.0830   32.3590   45.6520 N   0  0  0  0  0  0  0  0  0  0  0  0
   41.0110   32.0320   45.3650 H   0  0  0  0  0  0  0  0  0  0  0  0
   41.0310   30.1990   44.1950 Cl  0  0  0  0  0  0  0  0  0  0  0  0
   40.2210   31.0620   42.8930 C   0  0  0  0  0  0  0  0  0  0  0  0
   39.3420   32.0650   43.2500 C   0  0  0  0  0  0  0  0  0  0  0  0
   38.6690   32.7850   42.2610 C   0  0  0  0  0  0  0  0  0  0  0  0
   37.9560   33.5950   42.4320 H   0  0  0  0  0  0  0  0  0  0  0  0
   38.8990   32.4740   40.9480 C   0  0  0  0  0  0  0  0  0  0  0  0
   38.3920   33.0120   40.1310 H   0  0  0  0  0  0  0  0  0  0  0  0
   39.7830   31.4640   40.6220 C   0  0  0  0  0  0  0  0  0  0  0  0
   39.9380   31.2490   39.5760 H   0  0  0  0  0  0  0  0  0  0  0  0
   40.4710   30.7260   41.5760 C   0  0  0  0  0  0  0  0  0  0  0  0
   41.5920   29.4460   41.1510 Cl  0  0  0  0  0  0  0  0  0  0  0  0
  1  2  1  0  0  0  0
  2  3  1  0  0  0  0
  3  4  2  0  0  0  0
  3 13  1  0  0  0  0
  4  8  1  0  0  0  0
  5  9  1  0  0  0  0
  5  4  1  0  0  0  0
  6  5  2  0  0  0  0
  7  6  1  0  0  0  0
  7  2  2  0  0  0  0
 10  6  1  0  0  0  0
 11 17  1  0  0  0  0
 12 18  1  0  0  0  0
 12 11  2  0  0  0  0
 13 12  1  0  0  0  0
 14 13  2  0  0  0  0
 14 15  1  0  0  0  0
 15 16  2  0  0  0  0
 16 11  1  0  0  0  0
 19 15  1  0  0  0  0
 20 21  2  0  0  0  0
 20 22  1  0  0  0  0
 22  7  1  0  0  0  0
 23 22  1  0  0  0  0
 25 26  1  0  0  0  0
 25 24  1  0  0  0  0
 26 20  1  0  0  0  0
 27 28  1  0  0  0  0
 27 26  2  0  0  0  0
 29 27  1  0  0  0  0
 30 29  1  0  0  0  0
 31 29  2  0  0  0  0
 31 33  1  0  0  0  0
 32 31  1  0  0  0  0
 33 25  2  0  0  0  0
 34 33  1  0  0  0  0
M  END
>  <minimizedAffinity>
-6.5330925

>  <minimizedRMSD>
0.394994378

$$$$
