
     RDKit          3D

 35 37  0  0  0  0  0  0  0  0999 V2000
   36.9925   31.5618   48.6722 C   0  0  1  0  0  0  0  0  0  0  0  0
   36.2224   30.9181   47.6354 C   0  0  0  0  0  0  0  0  0  0  0  0
   37.1839   30.1228   48.4591 C   0  0  2  0  0  0  0  0  0  0  0  0
   38.1496   32.4558   48.3243 C   0  0  0  0  0  0  0  0  0  0  0  0
   38.5338   33.3747   49.3222 C   0  0  0  0  0  0  0  0  0  0  0  0
   39.5951   34.1812   48.9866 C   0  0  0  0  0  0  0  0  0  0  0  0
   40.1913   34.0631   47.7799 N   0  0  0  0  0  0  0  0  0  0  0  0
   39.7915   33.1611   46.8408 C   0  0  0  0  0  0  0  0  0  0  0  0
   38.7350   32.3364   47.1329 N   0  0  0  0  0  0  0  0  0  0  0  0
   40.4065   33.0024   45.5938 N   0  0  0  0  0  0  0  0  0  0  0  0
   36.5990   29.3000   49.4291 O   0  0  0  0  0  0  0  0  0  0  0  0
   34.6047   27.6921   49.7187 O   0  0  0  0  0  0  0  0  0  0  0  0
   35.0236   28.9424   49.0119 P   0  0  1  0  0  0  0  0  0  0  0  0
   33.9803   30.1419   49.7270 O   0  0  0  0  0  0  0  0  0  0  0  0
   34.8437   28.9531   47.3800 O   0  0  0  0  0  0  0  0  0  0  0  0
   36.5515   31.8222   49.6959 H   0  0  0  0  0  0  0  0  0  0  0  0
   35.1921   31.1648   47.7939 H   0  0  0  0  0  0  0  0  0  0  0  0
   36.5376   31.1199   46.5899 H   0  0  0  0  0  0  0  0  0  0  0  0
   37.8635   29.5841   47.8175 H   0  0  0  0  0  0  0  0  0  0  0  0
   38.0721   33.4768   50.2769 H   0  0  0  0  0  0  0  0  0  0  0  0
   39.9926   34.9248   49.6478 H   0  0  0  0  0  0  0  0  0  0  0  0
   41.1637   32.2878   45.4803 H   0  0  0  0  0  0  0  0  0  0  0  0
   40.1568   33.5622   44.7437 H   0  0  0  0  0  0  0  0  0  0  0  0
   33.1495   30.1271   49.1930 H   0  0  0  0  0  0  0  0  0  0  0  0
   33.0387   26.6917   46.4946 Cl  0  0  0  0  0  0  0  0  0  0  0  0
   34.5644   27.1029   45.8017 C   0  0  0  0  0  0  0  0  0  0  0  0
   35.2254   28.1772   46.3626 C   0  0  0  0  0  0  0  0  0  0  0  0
   36.4680   28.5142   45.8005 C   0  0  0  0  0  0  0  0  0  0  0  0
   37.0855   29.3345   46.1483 H   0  0  0  0  0  0  0  0  0  0  0  0
   36.9565   27.7600   44.7279 C   0  0  0  0  0  0  0  0  0  0  0  0
   37.9162   28.0113   44.2850 H   0  0  0  0  0  0  0  0  0  0  0  0
   36.2647   26.7049   44.2072 C   0  0  0  0  0  0  0  0  0  0  0  0
   36.6557   26.1444   43.3902 H   0  0  0  0  0  0  0  0  0  0  0  0
   35.0546   26.3645   44.7430 C   0  0  0  0  0  0  0  0  0  0  0  0
   34.1163   25.0417   44.1409 Cl  0  0  0  0  0  0  0  0  0  0  0  0
  2  3  1  0
  2  1  1  0
  3  1  1  0
  3 11  1  0
  4  1  1  0
  4  5  2  0
  6  5  1  0
  7  6  2  0
  8  9  2  0
  8  7  1  0
  9  4  1  0
 10  8  1  0
 13 11  1  6
 13 12  2  0
 13 14  1  0
 15 13  1  0
  1 16  1  1
  2 17  1  0
  2 18  1  0
  3 19  1  6
  5 20  1  0
  6 21  1  0
 10 22  1  0
 10 23  1  0
 14 24  1  0
 25 26  1  0
 26 27  2  0
 27 28  1  0
 28 29  1  0
 28 30  2  0
 30 31  1  0
 30 32  1  0
 32 33  1  0
 32 34  2  0
 34 35  1  0
 34 26  1  0
 15 27  1  0
M  ISO  8  16  13  17  13  18  13  19  13  20  14  21  14  24   3  29  15
M  ISO  2  31  15  33  15
M  END
>  <DihAtoms>  (1) 
12,14,26,25

>  <DihDeg>  (1) 
-0.013024885068950106

$$$$
