REMARK  Name = 
REMARK  4 active torsions:
REMARK  status: ('A' for Active; 'I' for Inactive)
REMARK    1  A    between atoms: C_1  and  C_8
REMARK    2  A    between atoms: N_4  and  C_12
REMARK    3  A    between atoms: C_12  and  C_13
REMARK    4  A    between atoms: C_13  and  C_25
REMARK                            x       y       z     vdW  Elec       q    Type
REMARK                         _______ _______ _______ _____ _____    ______ ____
ROOT
ATOM      1  C   UNL     1      40.141  33.288  46.009  0.00  0.00    +0.000 C 
ATOM      2  H   UNL     1      40.257  34.211  46.586  0.00  0.00    +0.000 HD
ATOM      3  H   UNL     1      41.087  32.716  46.102  0.00  0.00    +0.000 HD
ENDROOT
BRANCH   1   7
ATOM      4  C   UNL     1      37.930  31.243  47.984  0.00  0.00    +0.000 A 
ATOM      5  C   UNL     1      37.434  31.014  46.728  0.00  0.00    +0.000 A 
ATOM      6  C   UNL     1      38.178  31.735  45.810  0.00  0.00    +0.000 A 
ATOM      7  N   UNL     1      39.119  32.389  46.569  0.00  0.00    +0.000 N 
ATOM      8  N   UNL     1      38.968  32.093  47.866  0.00  0.00    +0.000 NA
ATOM      9  H   UNL     1      36.594  30.383  46.413  0.00  0.00    +0.000 HD
ATOM     10  H   UNL     1      38.070  31.793  44.735  0.00  0.00    +0.000 HD
BRANCH   4  13
ATOM     11  C   UNL     1      37.314  30.097  51.514  0.00  0.00    +0.000 A 
ATOM     12  C   UNL     1      37.938  30.721  50.445  0.00  0.00    +0.000 A 
ATOM     13  C   UNL     1      37.362  30.628  49.174  0.00  0.00    +0.000 A 
ATOM     14  N   UNL     1      36.204  29.917  49.063  0.00  0.00    +0.000 NA
ATOM     15  C   UNL     1      35.627  29.322  50.136  0.00  0.00    +0.000 A 
ATOM     16  N   UNL     1      36.178  29.412  51.348  0.00  0.00    +0.000 NA
ATOM     17  H   UNL     1      37.890  30.267  52.428  0.00  0.00    +0.000 HD
ATOM     18  H   UNL     1      38.850  31.297  50.460  0.00  0.00    +0.000 HD
ATOM     19  H   UNL     1      34.703  28.761  50.019  0.00  0.00    +0.000 HD
ENDBRANCH   4  13
ENDBRANCH   1   7
BRANCH   1  20
ATOM     20  C   UNL     1      39.792  33.541  44.548  0.00  0.00    +0.000 C 
ATOM     21  H   UNL     1      39.933  32.547  44.038  0.00  0.00    +0.000 HD
ATOM     22  H   UNL     1      38.749  33.809  44.405  0.00  0.00    +0.000 HD
BRANCH  20  25
ATOM     23 CL   UNL     1      42.510  33.297  45.658  0.00  0.00    +0.000 Cl
ATOM     24  C   UNL     1      42.102  34.410  44.354  0.00  0.00    +0.000 A 
ATOM     25  C   UNL     1      40.775  34.441  43.905  0.00  0.00    +0.000 A 
ATOM     26  C   UNL     1      40.529  35.328  42.891  0.00  0.00    +0.000 A 
ATOM     27  H   UNL     1      39.501  35.366  42.526  0.00  0.00    +0.000 HD
ATOM     28  C   UNL     1      41.485  36.142  42.330  0.00  0.00    +0.000 A 
ATOM     29  H   UNL     1      41.214  36.818  41.532  0.00  0.00    +0.000 HD
ATOM     30  C   UNL     1      42.770  36.059  42.820  0.00  0.00    +0.000 A 
ATOM     31  H   UNL     1      43.566  36.678  42.417  0.00  0.00    +0.000 HD
ATOM     32  C   UNL     1      43.116  35.190  43.847  0.00  0.00    +0.000 A 
ATOM     33 CL   UNL     1      44.735  35.066  44.486  0.00  0.00    +0.000 Cl
ENDBRANCH  20  25
ENDBRANCH   1  20
TORSDOF 4
