
 OpenBabel03272503423D

 43 46  0  0  1  0  0  0  0  0999 V2000
   39.7860   31.2090   41.6930 C   0  0  2  0  0  0  0  0  0  0  0  0
   39.5780   32.3560   42.7000 C   0  0  1  0  0  0  0  0  0  0  0  0
   38.3760   33.0030   42.0620 C   0  0  0  0  0  0  0  0  0  0  0  0
   38.5260   32.8950   40.7000 O   0  0  0  0  0  0  0  0  0  0  0  0
   39.5290   32.0200   40.4160 C   0  0  0  0  0  0  0  0  0  0  0  0
   40.7980   30.8150   41.7280 H   0  0  0  0  0  0  0  0  0  0  0  0
   40.4110   33.0570   42.7110 H   0  0  0  0  0  0  0  0  0  0  0  0
   37.4750   32.4650   42.4130 H   0  0  0  0  0  0  0  0  0  0  0  0
   38.2800   34.0780   42.3050 H   0  0  0  0  0  0  0  0  0  0  0  0
   39.4110   31.3950   39.5340 H   0  0  0  0  0  0  0  0  0  0  0  0
   40.4600   32.6350   40.2610 H   0  0  0  0  0  0  0  0  0  0  0  0
   38.3510   31.1560   45.8540 C   0  0  0  0  0  0  0  0  0  0  0  0
   39.6950   30.9800   46.0440 C   0  0  0  0  0  0  0  0  0  0  0  0
   40.2670   31.4270   44.8520 C   0  0  0  0  0  0  0  0  0  0  0  0
   39.3120   31.8390   44.0120 N   0  0  0  0  0  0  0  0  0  0  0  0
   38.1360   31.6730   44.6240 N   0  0  0  0  0  0  0  0  0  0  0  0
   40.2170   30.5830   46.9240 H   0  0  0  0  0  0  0  0  0  0  0  0
   41.3580   31.3960   44.7350 H   0  0  0  0  0  0  0  0  0  0  0  0
   36.4790   30.6150   49.0590 C   0  0  0  0  0  0  0  0  0  0  0  0
   37.5080   30.9330   48.1850 C   0  0  0  0  0  0  0  0  0  0  0  0
   37.3060   30.8360   46.8210 C   0  0  0  0  0  0  0  0  0  0  0  0
   36.0960   30.4290   46.3880 N   0  0  0  0  0  0  0  0  0  0  0  0
   35.1010   30.1240   47.2640 C   0  0  0  0  0  0  0  0  0  0  0  0
   35.2870   30.2150   48.5750 N   0  0  0  0  0  0  0  0  0  0  0  0
   38.5040   31.2650   48.4560 H   0  0  0  0  0  0  0  0  0  0  0  0
   34.1410   29.8010   46.8910 H   0  0  0  0  0  0  0  0  0  0  0  0
   36.8360   30.7630   50.3990 O   0  0  0  0  0  0  0  0  0  0  0  0
   36.8830   29.6950   51.3090 C   0  0  0  0  0  0  0  0  0  0  0  0
   35.6280   29.2340   51.6530 F   0  0  0  0  0  0  0  0  0  0  0  0
   37.5960   30.0800   52.4170 F   0  0  0  0  0  0  0  0  0  0  0  0
   37.5940   28.6550   50.7140 F   0  0  0  0  0  0  0  0  0  0  0  0
   38.7410   30.3310   41.8930 O   0  0  0  0  0  0  0  0  0  0  0  0
   38.1370   28.9500   39.3150 Cl  0  0  0  0  0  0  0  0  0  0  0  0
   38.5840   28.2380   40.8610 C   0  0  0  0  0  0  0  0  0  0  0  0
   38.8470   28.9750   42.0150 C   0  0  0  0  0  0  0  0  0  0  0  0
   39.1860   28.2760   43.1540 C   0  0  0  0  0  0  0  0  0  0  0  0
   39.3890   28.8510   44.0410 H   0  0  0  0  0  0  0  0  0  0  0  0
   39.2730   26.8910   43.1970 C   0  0  0  0  0  0  0  0  0  0  0  0
   39.5430   26.4020   44.1160 H   0  0  0  0  0  0  0  0  0  0  0  0
   39.0050   26.1800   42.0300 C   0  0  0  0  0  0  0  0  0  0  0  0
   39.0790   25.0950   42.0870 H   0  0  0  0  0  0  0  0  0  0  0  0
   38.6610   26.8610   40.8690 C   0  0  0  0  0  0  0  0  0  0  0  0
   38.3530   25.8340   39.4890 Cl  0  0  0  0  0  0  0  0  0  0  0  0
  1  6  1  1  0  0  0
  1 32  1  0  0  0  0
  1  2  1  0  0  0  0
  2  7  1  1  0  0  0
  2 15  1  0  0  0  0
  3  9  1  0  0  0  0
  3  8  1  0  0  0  0
  3  2  1  0  0  0  0
  4  3  1  0  0  0  0
  5  4  1  0  0  0  0
  5  1  1  0  0  0  0
 10  5  1  0  0  0  0
 11  5  1  0  0  0  0
 12 13  1  0  0  0  0
 12 21  1  0  0  0  0
 13 17  1  0  0  0  0
 14 13  2  0  0  0  0
 15 16  1  0  0  0  0
 15 14  1  0  0  0  0
 16 12  2  0  0  0  0
 18 14  1  0  0  0  0
 19 27  1  0  0  0  0
 20 25  1  0  0  0  0
 20 19  2  0  0  0  0
 21 20  1  0  0  0  0
 22 21  2  0  0  0  0
 22 23  1  0  0  0  0
 23 24  2  0  0  0  0
 24 19  1  0  0  0  0
 26 23  1  0  0  0  0
 27 28  1  0  0  0  0
 28 29  1  0  0  0  0
 28 30  1  0  0  0  0
 31 28  1  0  0  0  0
 32 35  1  0  0  0  0
 33 34  1  0  0  0  0
 34 42  2  0  0  0  0
 34 35  1  0  0  0  0
 35 36  2  0  0  0  0
 36 38  1  0  0  0  0
 36 37  1  0  0  0  0
 38 39  1  0  0  0  0
 40 41  1  0  0  0  0
 40 38  2  0  0  0  0
 42 40  1  0  0  0  0
 43 42  1  0  0  0  0
M  END
>  <minimizedAffinity>
-6.27370644

>  <minimizedRMSD>
0.78445971

$$$$
