
 OpenBabel03272507173D

 28 30  0  0  1  0  0  0  0  0999 V2000
   38.5780   27.1780   34.1410 C   0  0  1  0  0  0  0  0  0  0  0  0
   37.6790   26.3010   34.8540 C   0  0  2  0  0  0  0  0  0  0  0  0
   38.4640   27.3110   35.6600 C   0  0  0  0  0  0  0  0  0  0  0  0
   38.2520   28.0640   33.5540 H   0  0  0  0  0  0  0  0  0  0  0  0
   36.5920   26.4840   34.7580 H   0  0  0  0  0  0  0  0  0  0  0  0
   39.2920   26.9900   36.3030 H   0  0  0  0  0  0  0  0  0  0  0  0
   37.9040   28.2060   35.9840 H   0  0  0  0  0  0  0  0  0  0  0  0
   39.9450   26.7140   33.7000 C   0  0  0  0  0  0  0  0  0  0  0  0
   40.0370   26.1680   32.4110 C   0  0  0  0  0  0  0  0  0  0  0  0
   41.2970   25.7300   32.0500 C   0  0  0  0  0  0  0  0  0  0  0  0
   42.3510   25.8370   32.9050 N   0  0  0  0  0  0  0  0  0  0  0  0
   42.2220   26.3690   34.1400 C   0  0  0  0  0  0  0  0  0  0  0  0
   41.0000   26.8190   34.5510 N   0  0  0  0  0  0  0  0  0  0  0  0
   39.1510   26.1210   31.7980 H   0  0  0  0  0  0  0  0  0  0  0  0
   41.4020   25.3000   31.0530 H   0  0  0  0  0  0  0  0  0  0  0  0
   43.1010   26.4240   34.7690 H   0  0  0  0  0  0  0  0  0  0  0  0
   38.0410   24.9610   35.0540 O   0  0  0  0  0  0  0  0  0  0  0  0
   40.3630   23.2550   34.6800 Cl  0  0  0  0  0  0  0  0  0  0  0  0
   39.4790   23.5230   36.1670 C   0  0  0  0  0  0  0  0  0  0  0  0
   38.3670   24.3690   36.2460 C   0  0  0  0  0  0  0  0  0  0  0  0
   37.7290   24.5240   37.4570 C   0  0  0  0  0  0  0  0  0  0  0  0
   36.8760   25.1880   37.4650 H   0  0  0  0  0  0  0  0  0  0  0  0
   38.1250   23.8870   38.6110 C   0  0  0  0  0  0  0  0  0  0  0  0
   37.6220   24.0160   39.5430 H   0  0  0  0  0  0  0  0  0  0  0  0
   39.2370   23.0500   38.5000 C   0  0  0  0  0  0  0  0  0  0  0  0
   39.6290   22.5040   39.3460 H   0  0  0  0  0  0  0  0  0  0  0  0
   39.9020   22.8680   37.3130 C   0  0  0  0  0  0  0  0  0  0  0  0
   41.3020   21.8010   37.2190 Cl  0  0  0  0  0  0  0  0  0  0  0  0
  1  4  1  6  0  0  0
  1  2  1  0  0  0  0
  1  3  1  0  0  0  0
  2  5  1  6  0  0  0
  2 17  1  0  0  0  0
  2  3  1  0  0  0  0
  3  7  1  0  0  0  0
  3  6  1  0  0  0  0
  8  1  1  0  0  0  0
  8 13  1  0  0  0  0
  9  8  2  0  0  0  0
 10  9  1  0  0  0  0
 10 11  2  0  0  0  0
 11 12  1  0  0  0  0
 12 13  2  0  0  0  0
 12 16  1  0  0  0  0
 14  9  1  0  0  0  0
 15 10  1  0  0  0  0
 17 20  1  0  0  0  0
 18 19  1  0  0  0  0
 19 20  2  0  0  0  0
 19 27  1  0  0  0  0
 20 21  1  0  0  0  0
 21 22  1  0  0  0  0
 21 23  2  0  0  0  0
 23 24  1  0  0  0  0
 25 23  1  0  0  0  0
 25 26  1  0  0  0  0
 27 25  2  0  0  0  0
 28 27  1  0  0  0  0
M  END
>  <minimizedAffinity>
-4.73425388

$$$$

 OpenBabel03272507173D

 28 30  0  0  1  0  0  0  0  0999 V2000
   39.3780   23.0900   36.1430 C   0  0  1  0  0  0  0  0  0  0  0  0
   38.5750   22.1460   35.4010 C   0  0  2  0  0  0  0  0  0  0  0  0
   40.0320   22.2830   35.0200 C   0  0  0  0  0  0  0  0  0  0  0  0
   39.7760   22.9060   37.1640 H   0  0  0  0  0  0  0  0  0  0  0  0
   38.2840   21.2050   35.9060 H   0  0  0  0  0  0  0  0  0  0  0  0
   40.3200   22.7760   34.0850 H   0  0  0  0  0  0  0  0  0  0  0  0
   40.7010   21.4830   35.3840 H   0  0  0  0  0  0  0  0  0  0  0  0
   39.3310   24.5690   35.8420 C   0  0  0  0  0  0  0  0  0  0  0  0
   38.2470   25.2830   36.3750 C   0  0  0  0  0  0  0  0  0  0  0  0
   38.2220   26.6290   36.0590 C   0  0  0  0  0  0  0  0  0  0  0  0
   39.1920   27.1880   35.2860 N   0  0  0  0  0  0  0  0  0  0  0  0
   40.2210   26.4660   34.7900 C   0  0  0  0  0  0  0  0  0  0  0  0
   40.2980   25.1320   35.0700 N   0  0  0  0  0  0  0  0  0  0  0  0
   37.5220   24.7610   36.9780 H   0  0  0  0  0  0  0  0  0  0  0  0
   37.3920   27.2120   36.4590 H   0  0  0  0  0  0  0  0  0  0  0  0
   40.9580   26.9740   34.1820 H   0  0  0  0  0  0  0  0  0  0  0  0
   37.6590   22.6190   34.4510 O   0  0  0  0  0  0  0  0  0  0  0  0
   35.5510   20.6380   34.7240 Cl  0  0  0  0  0  0  0  0  0  0  0  0
   36.3840   21.0970   33.2540 C   0  0  0  0  0  0  0  0  0  0  0  0
   37.3920   22.0680   33.2250 C   0  0  0  0  0  0  0  0  0  0  0  0
   37.9960   22.3700   32.0250 C   0  0  0  0  0  0  0  0  0  0  0  0
   38.7680   23.1260   32.0560 H   0  0  0  0  0  0  0  0  0  0  0  0
   37.6650   21.7640   30.8340 C   0  0  0  0  0  0  0  0  0  0  0  0
   38.1400   22.0070   29.9100 H   0  0  0  0  0  0  0  0  0  0  0  0
   36.6560   20.8000   30.8950 C   0  0  0  0  0  0  0  0  0  0  0  0
   36.3210   20.2660   30.0180 H   0  0  0  0  0  0  0  0  0  0  0  0
   36.0280   20.4690   32.0700 C   0  0  0  0  0  0  0  0  0  0  0  0
   34.7600   19.2460   32.1010 Cl  0  0  0  0  0  0  0  0  0  0  0  0
  1  4  1  1  0  0  0
  2  5  1  1  0  0  0
  2  1  1  0  0  0  0
  3  7  1  0  0  0  0
  3  2  1  0  0  0  0
  3  1  1  0  0  0  0
  6  3  1  0  0  0  0
  8  1  1  0  0  0  0
  8  9  1  0  0  0  0
  9 14  1  0  0  0  0
 10  9  2  0  0  0  0
 10 15  1  0  0  0  0
 11 10  1  0  0  0  0
 12 13  1  0  0  0  0
 12 11  2  0  0  0  0
 13  8  2  0  0  0  0
 16 12  1  0  0  0  0
 17  2  1  0  0  0  0
 19 18  1  0  0  0  0
 20 19  1  0  0  0  0
 20 17  1  0  0  0  0
 21 22  1  0  0  0  0
 21 20  2  0  0  0  0
 23 25  2  0  0  0  0
 23 21  1  0  0  0  0
 24 23  1  0  0  0  0
 25 27  1  0  0  0  0
 26 25  1  0  0  0  0
 27 28  1  0  0  0  0
 27 19  2  0  0  0  0
M  END
>  <minimizedAffinity>
-4.70751476

$$$$

 OpenBabel03272507173D

 28 30  0  0  1  0  0  0  0  0999 V2000
   37.7440   22.1450   34.7050 C   0  0  1  0  0  0  0  0  0  0  0  0
   37.8340   23.0310   33.5680 C   0  0  2  0  0  0  0  0  0  0  0  0
   38.7590   21.8350   33.6030 C   0  0  0  0  0  0  0  0  0  0  0  0
   36.9420   21.3890   34.8480 H   0  0  0  0  0  0  0  0  0  0  0  0
   37.0160   23.0000   32.8220 H   0  0  0  0  0  0  0  0  0  0  0  0
   39.8310   21.9640   33.7910 H   0  0  0  0  0  0  0  0  0  0  0  0
   38.4680   20.9840   32.9620 H   0  0  0  0  0  0  0  0  0  0  0  0
   38.4030   22.4850   36.0200 C   0  0  0  0  0  0  0  0  0  0  0  0
   37.6160   23.1710   36.9570 C   0  0  0  0  0  0  0  0  0  0  0  0
   38.2580   23.4880   38.1390 C   0  0  0  0  0  0  0  0  0  0  0  0
   39.5580   23.1450   38.3480 N   0  0  0  0  0  0  0  0  0  0  0  0
   40.2840   22.4840   37.4200 C   0  0  0  0  0  0  0  0  0  0  0  0
   39.7020   22.1440   36.2330 N   0  0  0  0  0  0  0  0  0  0  0  0
   36.5930   23.4040   36.7100 H   0  0  0  0  0  0  0  0  0  0  0  0
   37.6720   24.0220   38.8890 H   0  0  0  0  0  0  0  0  0  0  0  0
   41.3130   22.2420   37.6510 H   0  0  0  0  0  0  0  0  0  0  0  0
   38.4580   24.2770   33.7150 O   0  0  0  0  0  0  0  0  0  0  0  0
   37.9460   25.1540   30.9930 Cl  0  0  0  0  0  0  0  0  0  0  0  0
   37.5560   26.0120   32.4690 C   0  0  0  0  0  0  0  0  0  0  0  0
   37.8440   25.5030   33.7400 C   0  0  0  0  0  0  0  0  0  0  0  0
   37.5040   26.2440   34.8500 C   0  0  0  0  0  0  0  0  0  0  0  0
   37.7480   25.8070   35.8080 H   0  0  0  0  0  0  0  0  0  0  0  0
   36.8870   27.4730   34.7830 C   0  0  0  0  0  0  0  0  0  0  0  0
   36.6280   28.0370   35.6500 H   0  0  0  0  0  0  0  0  0  0  0  0
   36.6130   27.9530   33.5010 C   0  0  0  0  0  0  0  0  0  0  0  0
   36.1320   28.9060   33.3380 H   0  0  0  0  0  0  0  0  0  0  0  0
   36.9360   27.2470   32.3690 C   0  0  0  0  0  0  0  0  0  0  0  0
   36.5700   27.8920   30.7700 Cl  0  0  0  0  0  0  0  0  0  0  0  0
  1  4  1  1  0  0  0
  1  8  1  0  0  0  0
  2  5  1  6  0  0  0
  2  3  1  0  0  0  0
  2 17  1  0  0  0  0
  2  1  1  0  0  0  0
  3  6  1  0  0  0  0
  3  1  1  0  0  0  0
  7  3  1  0  0  0  0
  8 13  2  0  0  0  0
  8  9  1  0  0  0  0
  9 10  2  0  0  0  0
 10 11  1  0  0  0  0
 10 15  1  0  0  0  0
 12 16  1  0  0  0  0
 12 11  2  0  0  0  0
 13 12  1  0  0  0  0
 14  9  1  0  0  0  0
 17 20  1  0  0  0  0
 18 19  1  0  0  0  0
 19 20  1  0  0  0  0
 20 21  2  0  0  0  0
 21 22  1  0  0  0  0
 23 21  1  0  0  0  0
 23 24  1  0  0  0  0
 25 23  2  0  0  0  0
 26 25  1  0  0  0  0
 27 19  2  0  0  0  0
 27 25  1  0  0  0  0
 28 27  1  0  0  0  0
M  END
>  <minimizedAffinity>
-4.70695639

$$$$

 OpenBabel03272507173D

 28 30  0  0  1  0  0  0  0  0999 V2000
   38.8190   26.6090   35.3990 C   0  0  1  0  0  0  0  0  0  0  0  0
   38.5110   26.9810   34.0380 C   0  0  2  0  0  0  0  0  0  0  0  0
   37.3950   27.0510   35.0560 C   0  0  0  0  0  0  0  0  0  0  0  0
   39.3660   27.2580   36.1160 H   0  0  0  0  0  0  0  0  0  0  0  0
   38.9000   27.9480   33.6650 H   0  0  0  0  0  0  0  0  0  0  0  0
   36.5800   26.3180   35.0420 H   0  0  0  0  0  0  0  0  0  0  0  0
   37.1460   28.0610   35.4270 H   0  0  0  0  0  0  0  0  0  0  0  0
   38.8900   25.1610   35.8210 C   0  0  0  0  0  0  0  0  0  0  0  0
   40.0850   24.4820   35.5350 C   0  0  0  0  0  0  0  0  0  0  0  0
   40.1060   23.1530   35.9120 C   0  0  0  0  0  0  0  0  0  0  0  0
   39.0310   22.5750   36.5150 N   0  0  0  0  0  0  0  0  0  0  0  0
   37.8980   23.2630   36.7740 C   0  0  0  0  0  0  0  0  0  0  0  0
   37.8190   24.5800   36.4240 N   0  0  0  0  0  0  0  0  0  0  0  0
   40.8880   25.0170   35.0540 H   0  0  0  0  0  0  0  0  0  0  0  0
   41.0210   22.5970   35.7040 H   0  0  0  0  0  0  0  0  0  0  0  0
   37.0810   22.7420   37.2560 H   0  0  0  0  0  0  0  0  0  0  0  0
   38.3750   25.9800   33.0660 O   0  0  0  0  0  0  0  0  0  0  0  0
   37.9790   23.1030   32.9870 Cl  0  0  0  0  0  0  0  0  0  0  0  0
   36.9760   24.3270   32.2380 C   0  0  0  0  0  0  0  0  0  0  0  0
   37.2510   25.6960   32.3330 C   0  0  0  0  0  0  0  0  0  0  0  0
   36.4110   26.5930   31.7130 C   0  0  0  0  0  0  0  0  0  0  0  0
   36.6670   27.6370   31.8170 H   0  0  0  0  0  0  0  0  0  0  0  0
   35.2980   26.2180   30.9930 C   0  0  0  0  0  0  0  0  0  0  0  0
   34.6540   26.9230   30.5180 H   0  0  0  0  0  0  0  0  0  0  0  0
   35.0500   24.8460   30.9160 C   0  0  0  0  0  0  0  0  0  0  0  0
   34.2040   24.4480   30.3760 H   0  0  0  0  0  0  0  0  0  0  0  0
   35.8630   23.9190   31.5190 C   0  0  0  0  0  0  0  0  0  0  0  0
   35.5110   22.1970   31.3960 Cl  0  0  0  0  0  0  0  0  0  0  0  0
  1  8  1  0  0  0  0
  1  4  1  1  0  0  0
  2  5  1  6  0  0  0
  2  3  1  0  0  0  0
  2  1  1  0  0  0  0
  3  1  1  0  0  0  0
  3  7  1  0  0  0  0
  6  3  1  0  0  0  0
  8 13  1  0  0  0  0
  9  8  2  0  0  0  0
  9 10  1  0  0  0  0
 10 11  2  0  0  0  0
 11 12  1  0  0  0  0
 12 16  1  0  0  0  0
 13 12  2  0  0  0  0
 14  9  1  0  0  0  0
 15 10  1  0  0  0  0
 17  2  1  0  0  0  0
 19 20  1  0  0  0  0
 19 18  1  0  0  0  0
 20 17  1  0  0  0  0
 21 22  1  0  0  0  0
 21 20  2  0  0  0  0
 23 21  1  0  0  0  0
 24 23  1  0  0  0  0
 25 23  2  0  0  0  0
 25 27  1  0  0  0  0
 26 25  1  0  0  0  0
 27 19  2  0  0  0  0
 28 27  1  0  0  0  0
M  END
>  <minimizedAffinity>
-4.70637417

$$$$

 OpenBabel03272507173D

 28 30  0  0  1  0  0  0  0  0999 V2000
   37.7600   27.3260   34.2840 C   0  0  1  0  0  0  0  0  0  0  0  0
   37.3710   26.3790   35.3020 C   0  0  2  0  0  0  0  0  0  0  0  0
   38.4200   27.4070   35.6620 C   0  0  0  0  0  0  0  0  0  0  0  0
   37.1550   28.2100   33.9880 H   0  0  0  0  0  0  0  0  0  0  0  0
   36.3770   26.5020   35.7720 H   0  0  0  0  0  0  0  0  0  0  0  0
   39.4690   27.1140   35.7870 H   0  0  0  0  0  0  0  0  0  0  0  0
   38.0680   28.2590   36.2710 H   0  0  0  0  0  0  0  0  0  0  0  0
   38.7370   26.9540   33.1950 C   0  0  0  0  0  0  0  0  0  0  0  0
   38.2100   26.2810   32.0830 C   0  0  0  0  0  0  0  0  0  0  0  0
   39.1360   25.9330   31.1170 C   0  0  0  0  0  0  0  0  0  0  0  0
   40.4540   26.2360   31.2650 N   0  0  0  0  0  0  0  0  0  0  0  0
   40.9240   26.8850   32.3520 C   0  0  0  0  0  0  0  0  0  0  0  0
   40.0550   27.2540   33.3390 N   0  0  0  0  0  0  0  0  0  0  0  0
   37.1510   26.0800   32.0460 H   0  0  0  0  0  0  0  0  0  0  0  0
   38.7560   25.4090   30.2390 H   0  0  0  0  0  0  0  0  0  0  0  0
   41.9840   27.0940   32.4050 H   0  0  0  0  0  0  0  0  0  0  0  0
   37.8300   25.0560   35.2210 O   0  0  0  0  0  0  0  0  0  0  0  0
   40.2410   23.8080   34.1880 Cl  0  0  0  0  0  0  0  0  0  0  0  0
   39.6080   23.6930   35.8160 C   0  0  0  0  0  0  0  0  0  0  0  0
   38.4320   24.3350   36.2200 C   0  0  0  0  0  0  0  0  0  0  0  0
   38.0040   24.1920   37.5200 C   0  0  0  0  0  0  0  0  0  0  0  0
   37.0910   24.7070   37.7810 H   0  0  0  0  0  0  0  0  0  0  0  0
   38.6730   23.4430   38.4630 C   0  0  0  0  0  0  0  0  0  0  0  0
   38.3320   23.3410   39.4680 H   0  0  0  0  0  0  0  0  0  0  0  0
   39.8430   22.8150   38.0300 C   0  0  0  0  0  0  0  0  0  0  0  0
   40.4430   22.2050   38.6890 H   0  0  0  0  0  0  0  0  0  0  0  0
   40.3040   22.9320   36.7420 C   0  0  0  0  0  0  0  0  0  0  0  0
   41.7870   22.1210   36.2400 Cl  0  0  0  0  0  0  0  0  0  0  0  0
  1  4  1  6  0  0  0
  1  2  1  0  0  0  0
  1  3  1  0  0  0  0
  2  3  1  0  0  0  0
  2  5  1  1  0  0  0
  3  6  1  0  0  0  0
  3  7  1  0  0  0  0
  8 13  1  0  0  0  0
  8  1  1  0  0  0  0
  9  8  2  0  0  0  0
 10 11  2  0  0  0  0
 10  9  1  0  0  0  0
 11 12  1  0  0  0  0
 12 16  1  0  0  0  0
 12 13  2  0  0  0  0
 14  9  1  0  0  0  0
 15 10  1  0  0  0  0
 17  2  1  0  0  0  0
 17 20  1  0  0  0  0
 18 19  1  0  0  0  0
 19 20  2  0  0  0  0
 19 27  1  0  0  0  0
 20 21  1  0  0  0  0
 21 22  1  0  0  0  0
 21 23  2  0  0  0  0
 23 24  1  0  0  0  0
 25 23  1  0  0  0  0
 25 26  1  0  0  0  0
 27 25  2  0  0  0  0
 28 27  1  0  0  0  0
M  END
>  <minimizedAffinity>
-4.68031311

$$$$

 OpenBabel03272507173D

 28 30  0  0  1  0  0  0  0  0999 V2000
   39.6390   25.9910   35.2780 C   0  0  1  0  0  0  0  0  0  0  0  0
   39.1840   26.9810   34.3310 C   0  0  2  0  0  0  0  0  0  0  0  0
   38.8780   27.2140   35.7930 C   0  0  0  0  0  0  0  0  0  0  0  0
   40.6900   25.8950   35.6270 H   0  0  0  0  0  0  0  0  0  0  0  0
   39.9410   27.6470   33.8730 H   0  0  0  0  0  0  0  0  0  0  0  0
   37.8560   27.1050   36.1740 H   0  0  0  0  0  0  0  0  0  0  0  0
   39.5220   27.9500   36.3070 H   0  0  0  0  0  0  0  0  0  0  0  0
   38.8810   24.7040   35.4950 C   0  0  0  0  0  0  0  0  0  0  0  0
   38.2810   24.5330   36.7520 C   0  0  0  0  0  0  0  0  0  0  0  0
   37.6170   23.3330   36.9250 C   0  0  0  0  0  0  0  0  0  0  0  0
   37.5680   22.4070   35.9290 N   0  0  0  0  0  0  0  0  0  0  0  0
   38.1590   22.6080   34.7310 C   0  0  0  0  0  0  0  0  0  0  0  0
   38.8290   23.7760   34.5030 N   0  0  0  0  0  0  0  0  0  0  0  0
   38.3690   25.3180   37.4850 H   0  0  0  0  0  0  0  0  0  0  0  0
   37.1390   23.1700   37.8920 H   0  0  0  0  0  0  0  0  0  0  0  0
   38.0810   21.8290   33.9840 H   0  0  0  0  0  0  0  0  0  0  0  0
   38.0730   26.7000   33.5230 O   0  0  0  0  0  0  0  0  0  0  0  0
   38.9700   26.8000   30.7610 Cl  0  0  0  0  0  0  0  0  0  0  0  0
   37.6710   27.7260   31.4830 C   0  0  0  0  0  0  0  0  0  0  0  0
   37.3130   27.6060   32.8300 C   0  0  0  0  0  0  0  0  0  0  0  0
   36.2780   28.3730   33.3180 C   0  0  0  0  0  0  0  0  0  0  0  0
   36.0410   28.2430   34.3640 H   0  0  0  0  0  0  0  0  0  0  0  0
   35.5640   29.2640   32.5480 C   0  0  0  0  0  0  0  0  0  0  0  0
   34.7640   29.8520   32.9380 H   0  0  0  0  0  0  0  0  0  0  0  0
   35.9450   29.3600   31.2080 C   0  0  0  0  0  0  0  0  0  0  0  0
   35.4500   30.0280   30.5190 H   0  0  0  0  0  0  0  0  0  0  0  0
   36.9710   28.6150   30.6820 C   0  0  0  0  0  0  0  0  0  0  0  0
   37.4180   28.7690   28.9840 Cl  0  0  0  0  0  0  0  0  0  0  0  0
  1  8  1  0  0  0  0
  1  4  1  1  0  0  0
  1  3  1  0  0  0  0
  2  5  1  6  0  0  0
  2  1  1  0  0  0  0
  2  3  1  0  0  0  0
  3  6  1  0  0  0  0
  3  7  1  0  0  0  0
  8  9  1  0  0  0  0
  9 10  2  0  0  0  0
  9 14  1  0  0  0  0
 10 15  1  0  0  0  0
 11 10  1  0  0  0  0
 12 11  2  0  0  0  0
 13 12  1  0  0  0  0
 13  8  2  0  0  0  0
 16 12  1  0  0  0  0
 17  2  1  0  0  0  0
 18 19  1  0  0  0  0
 19 20  1  0  0  0  0
 20 21  2  0  0  0  0
 20 17  1  0  0  0  0
 21 22  1  0  0  0  0
 23 24  1  0  0  0  0
 23 21  1  0  0  0  0
 25 23  2  0  0  0  0
 26 25  1  0  0  0  0
 27 25  1  0  0  0  0
 27 19  2  0  0  0  0
 28 27  1  0  0  0  0
M  END
>  <minimizedAffinity>
-4.67136955

$$$$

 OpenBabel03272507173D

 28 30  0  0  1  0  0  0  0  0999 V2000
   38.2170   22.0390   34.5150 C   0  0  1  0  0  0  0  0  0  0  0  0
   38.0370   23.0250   33.4750 C   0  0  2  0  0  0  0  0  0  0  0  0
   39.3460   22.2700   33.5100 C   0  0  0  0  0  0  0  0  0  0  0  0
   37.7600   21.0260   34.5030 H   0  0  0  0  0  0  0  0  0  0  0  0
   37.3490   22.7800   32.6440 H   0  0  0  0  0  0  0  0  0  0  0  0
   40.2700   22.7680   33.8260 H   0  0  0  0  0  0  0  0  0  0  0  0
   39.4520   21.4560   32.7710 H   0  0  0  0  0  0  0  0  0  0  0  0
   38.6000   22.4390   35.9200 C   0  0  0  0  0  0  0  0  0  0  0  0
   37.6090   23.0730   36.6840 C   0  0  0  0  0  0  0  0  0  0  0  0
   38.0010   23.4480   37.9550 C   0  0  0  0  0  0  0  0  0  0  0  0
   39.2640   23.2050   38.4020 N   0  0  0  0  0  0  0  0  0  0  0  0
   40.1910   22.5920   37.6350 C   0  0  0  0  0  0  0  0  0  0  0  0
   39.8600   22.1980   36.3700 N   0  0  0  0  0  0  0  0  0  0  0  0
   36.6330   23.2270   36.2520 H   0  0  0  0  0  0  0  0  0  0  0  0
   37.2530   23.9430   38.5750 H   0  0  0  0  0  0  0  0  0  0  0  0
   41.1760   22.4300   38.0530 H   0  0  0  0  0  0  0  0  0  0  0  0
   38.1200   24.3870   33.7970 O   0  0  0  0  0  0  0  0  0  0  0  0
   37.8550   26.5910   35.6710 Cl  0  0  0  0  0  0  0  0  0  0  0  0
   37.2600   26.5270   34.0250 C   0  0  0  0  0  0  0  0  0  0  0  0
   37.4400   25.4140   33.1960 C   0  0  0  0  0  0  0  0  0  0  0  0
   36.9400   25.4470   31.9140 C   0  0  0  0  0  0  0  0  0  0  0  0
   37.1050   24.5630   31.3150 H   0  0  0  0  0  0  0  0  0  0  0  0
   36.2640   26.5260   31.3890 C   0  0  0  0  0  0  0  0  0  0  0  0
   35.8820   26.5390   30.3930 H   0  0  0  0  0  0  0  0  0  0  0  0
   36.1020   27.6210   32.2400 C   0  0  0  0  0  0  0  0  0  0  0  0
   35.5870   28.5180   31.9270 H   0  0  0  0  0  0  0  0  0  0  0  0
   36.5840   27.6290   33.5250 C   0  0  0  0  0  0  0  0  0  0  0  0
   36.3550   29.0350   34.5640 Cl  0  0  0  0  0  0  0  0  0  0  0  0
  1  4  1  6  0  0  0
  1  8  1  0  0  0  0
  2  5  1  6  0  0  0
  2  3  1  0  0  0  0
  2 17  1  0  0  0  0
  2  1  1  0  0  0  0
  3  6  1  0  0  0  0
  3  1  1  0  0  0  0
  7  3  1  0  0  0  0
  8 13  2  0  0  0  0
  8  9  1  0  0  0  0
  9 10  2  0  0  0  0
 10 11  1  0  0  0  0
 10 15  1  0  0  0  0
 12 16  1  0  0  0  0
 12 11  2  0  0  0  0
 13 12  1  0  0  0  0
 14  9  1  0  0  0  0
 19 18  1  0  0  0  0
 20 17  1  0  0  0  0
 20 19  2  0  0  0  0
 21 20  1  0  0  0  0
 22 21  1  0  0  0  0
 23 21  2  0  0  0  0
 23 25  1  0  0  0  0
 24 23  1  0  0  0  0
 25 27  2  0  0  0  0
 26 25  1  0  0  0  0
 27 19  1  0  0  0  0
 27 28  1  0  0  0  0
M  END
>  <minimizedAffinity>
-4.64328909

$$$$

 OpenBabel03272507173D

 28 30  0  0  1  0  0  0  0  0999 V2000
   39.0680   24.8380   34.5790 C   0  0  1  0  0  0  0  0  0  0  0  0
   38.3550   24.2450   33.4720 C   0  0  2  0  0  0  0  0  0  0  0  0
   37.7570   25.4750   34.1150 C   0  0  0  0  0  0  0  0  0  0  0  0
   39.9760   25.4710   34.4710 H   0  0  0  0  0  0  0  0  0  0  0  0
   38.7750   24.3740   32.4560 H   0  0  0  0  0  0  0  0  0  0  0  0
   36.8580   25.3990   34.7390 H   0  0  0  0  0  0  0  0  0  0  0  0
   37.8970   26.4220   33.5640 H   0  0  0  0  0  0  0  0  0  0  0  0
   38.9740   24.2660   35.9730 C   0  0  0  0  0  0  0  0  0  0  0  0
   39.9500   23.3240   36.3310 C   0  0  0  0  0  0  0  0  0  0  0  0
   39.8190   22.8020   37.6050 C   0  0  0  0  0  0  0  0  0  0  0  0
   38.8070   23.1960   38.4250 N   0  0  0  0  0  0  0  0  0  0  0  0
   37.8850   24.1070   38.0430 C   0  0  0  0  0  0  0  0  0  0  0  0
   37.9650   24.6570   36.7960 N   0  0  0  0  0  0  0  0  0  0  0  0
   40.7170   23.0680   35.6190 H   0  0  0  0  0  0  0  0  0  0  0  0
   40.5620   22.0670   37.9130 H   0  0  0  0  0  0  0  0  0  0  0  0
   37.1070   24.3740   38.7460 H   0  0  0  0  0  0  0  0  0  0  0  0
   37.6410   23.0550   33.6740 O   0  0  0  0  0  0  0  0  0  0  0  0
   35.9990   20.9760   34.8670 Cl  0  0  0  0  0  0  0  0  0  0  0  0
   36.6190   21.0220   33.2300 C   0  0  0  0  0  0  0  0  0  0  0  0
   37.4050   22.0730   32.7460 C   0  0  0  0  0  0  0  0  0  0  0  0
   37.8520   22.0300   31.4450 C   0  0  0  0  0  0  0  0  0  0  0  0
   38.4560   22.8660   31.1200 H   0  0  0  0  0  0  0  0  0  0  0  0
   37.5670   20.9990   30.5770 C   0  0  0  0  0  0  0  0  0  0  0  0
   37.9180   20.9780   29.5700 H   0  0  0  0  0  0  0  0  0  0  0  0
   36.7800   19.9660   31.0890 C   0  0  0  0  0  0  0  0  0  0  0  0
   36.4980   19.1110   30.4920 H   0  0  0  0  0  0  0  0  0  0  0  0
   36.3150   19.9700   32.3810 C   0  0  0  0  0  0  0  0  0  0  0  0
   35.3240   18.6430   32.9850 Cl  0  0  0  0  0  0  0  0  0  0  0  0
  1  4  1  6  0  0  0
  1  8  1  0  0  0  0
  2  5  1  6  0  0  0
  2 17  1  0  0  0  0
  2  3  1  0  0  0  0
  2  1  1  0  0  0  0
  3  1  1  0  0  0  0
  3  6  1  0  0  0  0
  7  3  1  0  0  0  0
  8  9  2  0  0  0  0
  8 13  1  0  0  0  0
  9 10  1  0  0  0  0
 10 15  1  0  0  0  0
 10 11  2  0  0  0  0
 12 11  1  0  0  0  0
 12 16  1  0  0  0  0
 13 12  2  0  0  0  0
 14  9  1  0  0  0  0
 19 18  1  0  0  0  0
 20 19  1  0  0  0  0
 20 17  1  0  0  0  0
 21 20  2  0  0  0  0
 22 21  1  0  0  0  0
 23 25  2  0  0  0  0
 23 21  1  0  0  0  0
 24 23  1  0  0  0  0
 25 27  1  0  0  0  0
 26 25  1  0  0  0  0
 27 28  1  0  0  0  0
 27 19  2  0  0  0  0
M  END
>  <minimizedAffinity>
-4.63807011

$$$$

 OpenBabel03272507173D

 28 30  0  0  1  0  0  0  0  0999 V2000
   39.6300   26.0730   35.2390 C   0  0  1  0  0  0  0  0  0  0  0  0
   39.1640   27.0800   34.3140 C   0  0  2  0  0  0  0  0  0  0  0  0
   38.8170   27.2510   35.7760 C   0  0  0  0  0  0  0  0  0  0  0  0
   40.6760   26.0000   35.6100 H   0  0  0  0  0  0  0  0  0  0  0  0
   39.9080   27.7850   33.8980 H   0  0  0  0  0  0  0  0  0  0  0  0
   37.7900   27.0960   36.1280 H   0  0  0  0  0  0  0  0  0  0  0  0
   39.4230   27.9900   36.3300 H   0  0  0  0  0  0  0  0  0  0  0  0
   38.9120   24.7540   35.3930 C   0  0  0  0  0  0  0  0  0  0  0  0
   38.3180   24.5050   36.6400 C   0  0  0  0  0  0  0  0  0  0  0  0
   37.6910   23.2790   36.7550 C   0  0  0  0  0  0  0  0  0  0  0  0
   37.6690   22.4000   35.7160 N   0  0  0  0  0  0  0  0  0  0  0  0
   38.2530   22.6760   34.5300 C   0  0  0  0  0  0  0  0  0  0  0  0
   38.8870   23.8740   34.3580 N   0  0  0  0  0  0  0  0  0  0  0  0
   38.3840   25.2570   37.4100 H   0  0  0  0  0  0  0  0  0  0  0  0
   37.2190   23.0560   37.7130 H   0  0  0  0  0  0  0  0  0  0  0  0
   38.1970   21.9320   33.7460 H   0  0  0  0  0  0  0  0  0  0  0  0
   38.0830   26.7890   33.4700 O   0  0  0  0  0  0  0  0  0  0  0  0
   35.8980   28.6230   34.0220 Cl  0  0  0  0  0  0  0  0  0  0  0  0
   36.6930   28.3610   32.4840 C   0  0  0  0  0  0  0  0  0  0  0  0
   37.7420   27.4500   32.3180 C   0  0  0  0  0  0  0  0  0  0  0  0
   38.3120   27.3050   31.0730 C   0  0  0  0  0  0  0  0  0  0  0  0
   39.1180   26.5890   30.9980 H   0  0  0  0  0  0  0  0  0  0  0  0
   37.9040   28.0110   29.9640 C   0  0  0  0  0  0  0  0  0  0  0  0
   38.3550   27.8900   29.0050 H   0  0  0  0  0  0  0  0  0  0  0  0
   36.8560   28.9120   30.1610 C   0  0  0  0  0  0  0  0  0  0  0  0
   36.4620   29.5160   29.3570 H   0  0  0  0  0  0  0  0  0  0  0  0
   36.2600   29.0870   31.3850 C   0  0  0  0  0  0  0  0  0  0  0  0
   34.9390   30.2360   31.5880 Cl  0  0  0  0  0  0  0  0  0  0  0  0
  1  8  1  0  0  0  0
  1  4  1  1  0  0  0
  1  3  1  0  0  0  0
  2  5  1  6  0  0  0
  2  1  1  0  0  0  0
  2  3  1  0  0  0  0
  3  6  1  0  0  0  0
  3  7  1  0  0  0  0
  8  9  1  0  0  0  0
  9 10  2  0  0  0  0
  9 14  1  0  0  0  0
 10 15  1  0  0  0  0
 11 10  1  0  0  0  0
 12 11  2  0  0  0  0
 13 12  1  0  0  0  0
 13  8  2  0  0  0  0
 16 12  1  0  0  0  0
 17  2  1  0  0  0  0
 19 18  1  0  0  0  0
 20 19  1  0  0  0  0
 20 17  1  0  0  0  0
 21 20  2  0  0  0  0
 22 21  1  0  0  0  0
 23 25  2  0  0  0  0
 23 21  1  0  0  0  0
 24 23  1  0  0  0  0
 25 27  1  0  0  0  0
 26 25  1  0  0  0  0
 27 28  1  0  0  0  0
 27 19  2  0  0  0  0
M  END
>  <minimizedAffinity>
-4.63756466

$$$$
