
     RDKit          3D

 36 38  0  0  0  0  0  0  0  0999 V2000
   35.9731   29.6291   48.8618 N   0  0  0  0  0  0  0  0  0  0  0  0
   36.5710   28.8584   49.9280 C   0  0  0  0  0  0  0  0  0  0  0  0
   37.0359   29.5780   51.1182 C   0  0  0  0  0  0  0  0  0  0  0  0
   37.4193   30.9946   50.9778 C   0  0  0  0  0  0  0  0  0  0  0  0
   36.8178   31.6824   49.7904 C   0  0  0  0  0  0  0  0  0  0  0  0
   36.8515   30.7520   48.5705 C   0  0  1  0  0  0  0  0  0  0  0  0
   34.7376   29.3283   48.2183 C   0  0  0  0  0  0  0  0  0  0  0  0
   34.2440   30.0082   47.1071 C   0  0  0  0  0  0  0  0  0  0  0  0
   33.0284   29.6182   46.5757 C   0  0  0  0  0  0  0  0  0  0  0  0
   32.3740   28.5862   47.1678 N   0  0  0  0  0  0  0  0  0  0  0  0
   32.8771   27.9558   48.2335 C   0  0  0  0  0  0  0  0  0  0  0  0
   34.0631   28.3279   48.7610 N   0  0  0  0  0  0  0  0  0  0  0  0
   38.1772   30.3369   48.4759 O   0  0  0  0  0  0  0  0  0  0  0  0
   37.4256   28.3120   49.4614 H   0  0  0  0  0  0  0  0  0  0  0  0
   35.8278   28.0588   50.1719 H   0  0  0  0  0  0  0  0  0  0  0  0
   37.9136   29.0226   51.5453 H   0  0  0  0  0  0  0  0  0  0  0  0
   36.2483   29.4784   51.9154 H   0  0  0  0  0  0  0  0  0  0  0  0
   37.0690   31.5848   51.8753 H   0  0  0  0  0  0  0  0  0  0  0  0
   38.5294   31.1689   50.9479 H   0  0  0  0  0  0  0  0  0  0  0  0
   37.3463   32.6243   49.5582 H   0  0  0  0  0  0  0  0  0  0  0  0
   35.7559   31.9533   49.9249 H   0  0  0  0  0  0  0  0  0  0  0  0
   36.5356   31.3132   47.6887 H   0  0  0  0  0  0  0  0  0  0  0  0
   34.8353   30.8169   46.7040 H   0  0  0  0  0  0  0  0  0  0  0  0
   32.6350   30.1394   45.7122 H   0  0  0  0  0  0  0  0  0  0  0  0
   32.3147   27.1264   48.6808 H   0  0  0  0  0  0  0  0  0  0  0  0
   36.7082   29.8196   46.0239 Cl  0  0  0  0  0  0  0  0  0  0  0  0
   38.3744   30.3678   46.2044 C   0  0  0  0  0  0  0  0  0  0  0  0
   39.0125   30.5946   47.4127 C   0  0  0  0  0  0  0  0  0  0  0  0
   40.3176   31.0214   47.3814 C   0  0  0  0  0  0  0  0  0  0  0  0
   40.7505   31.1776   48.3546 H   0  0  0  0  0  0  0  0  0  0  0  0
   40.9687   31.2169   46.1867 C   0  0  0  0  0  0  0  0  0  0  0  0
   41.9871   31.5507   46.2116 H   0  0  0  0  0  0  0  0  0  0  0  0
   40.3508   30.9967   44.9754 C   0  0  0  0  0  0  0  0  0  0  0  0
   40.8664   31.1517   44.0421 H   0  0  0  0  0  0  0  0  0  0  0  0
   39.0213   30.5617   44.9887 C   0  0  0  0  0  0  0  0  0  0  0  0
   38.2765   30.2947   43.4284 Cl  0  0  0  0  0  0  0  0  0  0  0  0
  1  2  1  0
  2  3  1  0
  4  3  1  0
  5  4  1  0
  6  1  1  0
  6  5  1  0
  7 12  1  0
  7  1  1  0
  8  7  2  0
  9  8  1  0
  9 10  2  0
 10 11  1  0
 11 12  2  0
 13  6  1  0
  2 14  1  0
  2 15  1  0
  3 16  1  0
  3 17  1  0
  4 18  1  0
  4 19  1  0
  5 20  1  0
  5 21  1  0
  6 22  1  6
  8 23  1  0
  9 24  1  0
 11 25  1  0
 26 27  1  0
 27 28  2  0
 28 29  1  0
 29 30  1  0
 29 31  2  0
 31 32  1  0
 31 33  1  0
 33 34  1  0
 33 35  2  0
 35 36  1  0
 35 27  1  0
 13 28  1  0
M  ISO  8  14  13  15  13  16  13  17  13  18  13  19  13  20  13  21  13
M  ISO  7  22  13  23  14  24  14  25  14  30  15  32  15  34  15
M  END
>  <DihAtoms>  (1) 
5,12,27,26

>  <DihDeg>  (1) 
-179.97370532252313

$$$$
