REMARK  Name = 
REMARK  3 active torsions:
REMARK  status: ('A' for Active; 'I' for Inactive)
REMARK    1  A    between atoms: C_3  and  C_12
REMARK    2  A    between atoms: C_9  and  O_14
REMARK    3  A    between atoms: O_14  and  C_23
REMARK                            x       y       z     vdW  Elec       q    Type
REMARK                         _______ _______ _______ _____ _____    ______ ____
ROOT
ATOM      1  C   UNL     1      37.864  33.244  49.464  0.00  0.00    +0.000 A 
ATOM      2  C   UNL     1      38.895  33.276  48.510  0.00  0.00    +0.000 A 
ATOM      3  C   UNL     1      38.944  32.253  47.587  0.00  0.00    +0.000 A 
ATOM      4  N   UNL     1      38.001  31.249  47.628  0.00  0.00    +0.000 NA
ATOM      5  C   UNL     1      37.026  31.252  48.559  0.00  0.00    +0.000 A 
ATOM      6  N   UNL     1      36.945  32.254  49.493  0.00  0.00    +0.000 NA
ATOM      7  H   UNL     1      37.719  33.992  50.232  0.00  0.00    +0.000 HD
ATOM      8  H   UNL     1      39.728  32.240  46.830  0.00  0.00    +0.000 HD
ENDROOT
BRANCH   5  11
ATOM      9 BR   UNL     1      37.282  29.453  51.118  0.00  0.00    +0.000 Br
ATOM     10  C   UNL     1      35.998  29.326  49.706  0.00  0.00    +0.000 A 
ATOM     11  C   UNL     1      36.018  30.204  48.634  0.00  0.00    +0.000 A 
ATOM     12  C   UNL     1      35.057  30.038  47.665  0.00  0.00    +0.000 A 
ATOM     13  C   UNL     1      34.092  29.048  47.721  0.00  0.00    +0.000 A 
ATOM     14  C   UNL     1      34.102  28.194  48.800  0.00  0.00    +0.000 A 
ATOM     15  C   UNL     1      35.065  28.339  49.798  0.00  0.00    +0.000 A 
ATOM     16  H   UNL     1      35.070  30.721  46.827  0.00  0.00    +0.000 HD
ATOM     17  H   UNL     1      33.388  28.993  46.927  0.00  0.00    +0.000 HD
ATOM     18  H   UNL     1      33.347  27.438  48.821  0.00  0.00    +0.000 HD
ATOM     19  H   UNL     1      34.989  27.617  50.606  0.00  0.00    +0.000 HD
ENDBRANCH   5  11
BRANCH   2  20
ATOM     20  O   UNL     1      39.795  34.295  48.530  0.00  0.00    +0.000 OA
BRANCH  20  23
ATOM     21 CL   UNL     1      40.371  33.202  51.305  0.00  0.00    +0.000 Cl
ATOM     22  C   UNL     1      40.146  34.844  50.739  0.00  0.00    +0.000 A 
ATOM     23  C   UNL     1      39.886  35.295  49.440  0.00  0.00    +0.000 A 
ATOM     24  C   UNL     1      39.759  36.656  49.248  0.00  0.00    +0.000 A 
ATOM     25  H   UNL     1      39.558  36.914  48.209  0.00  0.00    +0.000 HD
ATOM     26  C   UNL     1      39.872  37.593  50.249  0.00  0.00    +0.000 A 
ATOM     27  H   UNL     1      39.748  38.627  49.947  0.00  0.00    +0.000 HD
ATOM     28  C   UNL     1      40.128  37.138  51.525  0.00  0.00    +0.000 A 
ATOM     29  H   UNL     1      40.208  37.908  52.280  0.00  0.00    +0.000 HD
ATOM     30  C   UNL     1      40.263  35.787  51.767  0.00  0.00    +0.000 A 
ATOM     31 CL   UNL     1      40.585  35.394  53.442  0.00  0.00    +0.000 Cl
ENDBRANCH  20  23
ENDBRANCH   2  20
TORSDOF 3
