
 OpenBabel03272507143D

 42 46  0  0  0  0  0  0  0  0999 V2000
   35.8400   29.2060   49.8070 C   0  0  0  0  0  0  0  0  0  0  0  0
   34.8260   29.5840   50.6260 C   0  0  0  0  0  0  0  0  0  0  0  0
   33.6710   28.9600   50.1540 C   0  0  0  0  0  0  0  0  0  0  0  0
   34.0770   28.2160   49.0380 C   0  0  0  0  0  0  0  0  0  0  0  0
   35.3530   28.4100   48.8980 O   0  0  0  0  0  0  0  0  0  0  0  0
   34.8660   30.2440   51.4920 H   0  0  0  0  0  0  0  0  0  0  0  0
   32.7160   29.0880   50.6220 H   0  0  0  0  0  0  0  0  0  0  0  0
   33.5600   26.4260   47.3880 C   0  0  0  0  0  0  0  0  0  0  0  0
   33.1420   27.4050   48.2500 C   0  0  0  0  0  0  0  0  0  0  0  0
   31.7950   27.6920   48.4390 C   0  0  0  0  0  0  0  0  0  0  0  0
   30.8810   26.9390   47.7150 C   0  0  0  0  0  0  0  0  0  0  0  0
   29.5440   26.9980   47.7040 N   0  0  0  0  0  0  0  0  0  0  0  0
   29.1220   26.0670   46.8470 N   0  0  0  0  0  0  0  0  0  0  0  0
   30.1740   25.4330   46.3280 C   0  0  0  0  0  0  0  0  0  0  0  0
   31.3450   25.9640   46.8580 C   0  0  0  0  0  0  0  0  0  0  0  0
   32.6900   25.6810   46.6720 C   0  0  0  0  0  0  0  0  0  0  0  0
   34.6460   26.2830   47.3130 H   0  0  0  0  0  0  0  0  0  0  0  0
   31.3970   28.4570   49.1080 H   0  0  0  0  0  0  0  0  0  0  0  0
   28.8940   27.6240   48.2360 H   0  0  0  0  0  0  0  0  0  0  0  0
   30.1940   24.6140   45.5920 H   0  0  0  0  0  0  0  0  0  0  0  0
   33.0080   24.9060   45.9870 H   0  0  0  0  0  0  0  0  0  0  0  0
   37.2050   29.6750   50.0060 C   0  0  0  0  0  0  0  0  0  0  0  0
   37.8690   29.2220   50.9770 O   0  0  0  0  0  0  0  0  0  0  0  0
   37.7200   30.6430   49.0660 C   0  0  0  0  0  0  0  0  0  0  0  0
   38.2320   31.8190   49.5860 C   0  0  0  0  0  0  0  0  0  0  0  0
   38.7380   32.7770   48.7150 C   0  0  0  0  0  0  0  0  0  0  0  0
   38.6970   32.4890   47.3830 N   0  0  0  0  0  0  0  0  0  0  0  0
   38.1980   31.3450   46.9010 C   0  0  0  0  0  0  0  0  0  0  0  0
   37.7150   30.4350   47.7510 N   0  0  0  0  0  0  0  0  0  0  0  0
   38.2880   32.0950   50.6160 H   0  0  0  0  0  0  0  0  0  0  0  0
   39.1550   33.7230   49.0720 H   0  0  0  0  0  0  0  0  0  0  0  0
   40.8590   30.9170   45.7340 Cl  0  0  0  0  0  0  0  0  0  0  0  0
   39.3680   30.8750   44.7900 C   0  0  0  0  0  0  0  0  0  0  0  0
   38.1810   31.0920   45.4630 C   0  0  0  0  0  0  0  0  0  0  0  0
   36.9890   31.0680   44.7700 C   0  0  0  0  0  0  0  0  0  0  0  0
   36.0360   31.2340   45.2540 H   0  0  0  0  0  0  0  0  0  0  0  0
   36.9880   30.8250   43.3920 C   0  0  0  0  0  0  0  0  0  0  0  0
   36.0810   30.7930   42.7770 H   0  0  0  0  0  0  0  0  0  0  0  0
   38.2000   30.6160   42.7710 C   0  0  0  0  0  0  0  0  0  0  0  0
   38.2100   30.4270   41.7080 H   0  0  0  0  0  0  0  0  0  0  0  0
   39.3920   30.6350   43.4440 C   0  0  0  0  0  0  0  0  0  0  0  0
   40.9540   30.3690   42.6690 Cl  0  0  0  0  0  0  0  0  0  0  0  0
  1 22  1  0  0  0  0
  1  2  2  0  0  0  0
  2  6  1  0  0  0  0
  3  7  1  0  0  0  0
  3  2  1  0  0  0  0
  4  3  2  0  0  0  0
  5  4  1  0  0  0  0
  5  1  1  0  0  0  0
  8  9  1  0  0  0  0
  9 10  2  0  0  0  0
  9  4  1  0  0  0  0
 10 18  1  0  0  0  0
 11 10  1  0  0  0  0
 12 11  1  0  0  0  0
 12 19  1  0  0  0  0
 13 12  1  0  0  0  0
 14 13  2  0  0  0  0
 14 15  1  0  0  0  0
 15 11  2  0  0  0  0
 16 15  1  0  0  0  0
 16  8  2  0  0  0  0
 17  8  1  0  0  0  0
 20 14  1  0  0  0  0
 21 16  1  0  0  0  0
 22 23  2  0  0  0  0
 24 25  1  0  0  0  0
 24 22  1  0  0  0  0
 25 30  1  0  0  0  0
 26 31  1  0  0  0  0
 26 25  2  0  0  0  0
 27 26  1  0  0  0  0
 28 27  2  0  0  0  0
 28 29  1  0  0  0  0
 29 24  2  0  0  0  0
 33 34  1  0  0  0  0
 33 32  1  0  0  0  0
 34 28  1  0  0  0  0
 35 36  1  0  0  0  0
 35 34  2  0  0  0  0
 37 35  1  0  0  0  0
 38 37  1  0  0  0  0
 39 37  2  0  0  0  0
 39 41  1  0  0  0  0
 40 39  1  0  0  0  0
 41 33  2  0  0  0  0
 42 41  1  0  0  0  0
M  END
>  <minimizedAffinity>
-7.13432884

>  <minimizedRMSD>
0.444845319

$$$$
