
     RDKit          3D

 44 47  0  0  0  0  0  0  0  0999 V2000
   35.1650   29.7664   49.1799 C   0  0  0  0  0  0  0  0  0  0  0  0
   35.8646   30.3276   48.1204 C   0  0  0  0  0  0  0  0  0  0  0  0
   35.3407   30.1025   46.8623 C   0  0  0  0  0  0  0  0  0  0  0  0
   34.2051   29.3686   46.7208 N   0  0  0  0  0  0  0  0  0  0  0  0
   33.5596   28.8434   47.7768 C   0  0  0  0  0  0  0  0  0  0  0  0
   34.0523   29.0512   49.0004 N   0  0  0  0  0  0  0  0  0  0  0  0
   32.3496   28.0675   47.5994 C   0  0  0  0  0  0  0  0  0  0  0  0
   32.2243   26.8299   48.1536 C   0  0  0  0  0  0  0  0  0  0  0  0
   31.0894   26.0639   48.0066 C   0  0  0  0  0  0  0  0  0  0  0  0
   30.0877   26.6182   47.2680 C   0  0  0  0  0  0  0  0  0  0  0  0
   30.1601   27.8962   46.6692 C   0  0  0  0  0  0  0  0  0  0  0  0
   31.3274   28.5819   46.8710 N   0  0  0  0  0  0  0  0  0  0  0  0
   37.0407   31.0872   48.3319 N   0  0  0  0  0  0  0  0  0  0  0  0
   37.3803   31.3619   49.7162 C   0  0  0  0  0  0  0  0  0  0  0  0
   38.6157   32.1827   49.8822 C   0  0  0  0  0  0  0  0  0  0  0  0
   38.6719   33.2474   48.7895 C   0  0  0  0  0  0  0  0  0  0  0  0
   38.8870   32.4882   47.5164 C   0  0  0  0  0  0  0  0  0  0  0  0
   37.7776   31.5241   47.1956 C   0  0  1  0  0  0  0  0  0  0  0  0
   35.4690   29.8702   50.2104 H   0  0  0  0  0  0  0  0  0  0  0  0
   35.7827   30.4826   45.9814 H   0  0  0  0  0  0  0  0  0  0  0  0
   33.0670   26.4635   48.7255 H   0  0  0  0  0  0  0  0  0  0  0  0
   31.0194   25.0992   48.4514 H   0  0  0  0  0  0  0  0  0  0  0  0
   29.1732   26.0628   47.1189 H   0  0  0  0  0  0  0  0  0  0  0  0
   29.3484   28.3113   46.0876 H   0  0  0  0  0  0  0  0  0  0  0  0
   36.5318   32.0160   50.0798 H   0  0  0  0  0  0  0  0  0  0  0  0
   37.3698   30.5016   50.3810 H   0  0  0  0  0  0  0  0  0  0  0  0
   38.5653   32.6688   50.8762 H   0  0  0  0  0  0  0  0  0  0  0  0
   39.5124   31.5504   49.7639 H   0  0  0  0  0  0  0  0  0  0  0  0
   39.5049   33.9287   48.9628 H   0  0  0  0  0  0  0  0  0  0  0  0
   37.7019   33.7854   48.7675 H   0  0  0  0  0  0  0  0  0  0  0  0
   38.9839   33.2206   46.6898 H   0  0  0  0  0  0  0  0  0  0  0  0
   39.8556   31.9318   47.5936 H   0  0  0  0  0  0  0  0  0  0  0  0
   37.0421   32.0916   46.5506 H   0  0  0  0  0  0  0  0  0  0  0  0
   38.6212   32.1164   44.2647 Cl  0  0  0  0  0  0  0  0  0  0  0  0
   38.7646   30.5755   45.0369 C   0  0  0  0  0  0  0  0  0  0  0  0
   38.3507   30.4779   46.3396 C   0  0  0  0  0  0  0  0  0  0  0  0
   38.5181   29.1781   46.8454 C   0  0  0  0  0  0  0  0  0  0  0  0
   38.2161   28.9877   47.8879 H   0  0  0  0  0  0  0  0  0  0  0  0
   39.0331   28.1098   46.1426 C   0  0  0  0  0  0  0  0  0  0  0  0
   39.1169   27.1485   46.6353 H   0  0  0  0  0  0  0  0  0  0  0  0
   39.4213   28.3018   44.8435 C   0  0  0  0  0  0  0  0  0  0  0  0
   39.8132   27.4417   44.3448 H   0  0  0  0  0  0  0  0  0  0  0  0
   39.2817   29.5560   44.2900 C   0  0  0  0  0  0  0  0  0  0  0  0
   39.7796   29.7905   42.6325 Cl  0  0  0  0  0  0  0  0  0  0  0  0
  2 13  1  0
  2  1  2  0
  3  2  1  0
  4  3  2  0
  4  5  1  0
  5  6  2  0
  6  1  1  0
  7  5  1  0
  7  8  2  0
  9  8  1  0
 10  9  2  0
 11 12  2  0
 11 10  1  0
 12  7  1  0
 13 14  1  0
 14 15  1  0
 16 15  1  0
 17 16  1  0
 18 17  1  0
 18 13  1  0
  1 19  1  0
  3 20  1  0
  8 21  1  0
  9 22  1  0
 10 23  1  0
 11 24  1  0
 14 25  1  0
 14 26  1  0
 15 27  1  0
 15 28  1  0
 16 29  1  0
 16 30  1  0
 17 31  1  0
 17 32  1  0
 18 33  1  6
 34 35  1  0
 35 36  2  0
 36 37  1  0
 37 38  1  0
 37 39  2  0
 39 40  1  0
 39 41  1  0
 41 42  1  0
 41 43  2  0
 43 44  1  0
 43 35  1  0
 18 36  1  0
M  ISO  8  19  14  20  14  21  14  22  14  23  14  24  14  25  13  26  13
M  ISO  8  27  13  28  13  29  13  30  13  31  13  32  13  33  13  38  15
M  ISO  2  40  15  42  15
M  END
>  <DihAtoms>  (1) 
16,17,35,34

>  <DihDeg>  (1) 
94.31561842531808

$$$$
