REMARK  Name = 
REMARK  3 active torsions:
REMARK  status: ('A' for Active; 'I' for Inactive)
REMARK    1  A    between atoms: C_1  and  C_7
REMARK    2  A    between atoms: C_1  and  C_9
REMARK    3  A    between atoms: C_12  and  C_21
REMARK                            x       y       z     vdW  Elec       q    Type
REMARK                         _______ _______ _______ _____ _____    ______ ____
ROOT
ATOM      1  C   UNL     1      36.513  30.886  49.425  0.00  0.00    +0.000 A 
ATOM      2  C   UNL     1      37.311  30.200  50.331  0.00  0.00    +0.000 A 
ATOM      3  C   UNL     1      38.432  31.029  50.419  0.00  0.00    +0.000 A 
ATOM      4  C   UNL     1      38.283  32.127  49.609  0.00  0.00    +0.000 A 
ATOM      5  O   UNL     1      37.121  32.009  49.028  0.00  0.00    +0.000 OA
ATOM      6  H   UNL     1      37.076  29.263  50.816  0.00  0.00    +0.000 HD
ATOM      7  H   UNL     1      39.291  30.804  51.054  0.00  0.00    +0.000 HD
ENDROOT
BRANCH   4  10
ATOM      8 CL   UNL     1      37.614  34.768  50.988  0.00  0.00    +0.000 Cl
ATOM      9  C   UNL     1      39.028  34.438  50.029  0.00  0.00    +0.000 A 
ATOM     10  C   UNL     1      39.248  33.209  49.441  0.00  0.00    +0.000 A 
ATOM     11  C   UNL     1      40.387  33.008  48.692  0.00  0.00    +0.000 A 
ATOM     12  H   UNL     1      40.525  32.023  48.244  0.00  0.00    +0.000 HD
ATOM     13  C   UNL     1      41.353  33.975  48.480  0.00  0.00    +0.000 A 
ATOM     14  H   UNL     1      42.209  33.709  47.875  0.00  0.00    +0.000 HD
ATOM     15  C   UNL     1      41.131  35.214  49.073  0.00  0.00    +0.000 A 
ATOM     16  H   UNL     1      41.885  35.969  48.908  0.00  0.00    +0.000 HD
ATOM     17  C   UNL     1      39.986  35.436  49.833  0.00  0.00    +0.000 A 
ATOM     18 CL   UNL     1      39.809  37.037  50.534  0.00  0.00    +0.000 Cl
ENDBRANCH   4  10
BRANCH   1  19
ATOM     19  C   UNL     1      35.196  30.438  48.974  0.00  0.00    +0.000 C 
ATOM     20  O   UNL     1      34.330  30.195  49.860  0.00  0.00    +0.000 OA
BRANCH  19  25
ATOM     21  C   UNL     1      33.322  30.085  45.889  0.00  0.00    +0.000 A 
ATOM     22  C   UNL     1      34.319  30.004  44.910  0.00  0.00    +0.000 A 
ATOM     23  C   UNL     1      35.641  30.070  45.308  0.00  0.00    +0.000 A 
ATOM     24  N   UNL     1      35.894  30.212  46.638  0.00  0.00    +0.000 NA
ATOM     25  C   UNL     1      34.922  30.288  47.560  0.00  0.00    +0.000 A 
ATOM     26  N   UNL     1      33.628  30.224  47.182  0.00  0.00    +0.000 NA
ATOM     27  H   UNL     1      32.256  30.040  45.649  0.00  0.00    +0.000 HD
ATOM     28  H   UNL     1      33.986  29.894  43.906  0.00  0.00    +0.000 HD
ATOM     29  H   UNL     1      36.413  30.007  44.553  0.00  0.00    +0.000 HD
ENDBRANCH  19  25
ENDBRANCH   1  19
TORSDOF 3
