
 OpenBabel03272504573D

 35 37  0  0  1  0  0  0  0  0999 V2000
   36.3270   30.6140   49.4450 C   0  0  1  0  0  0  0  0  0  0  0  0
   34.9280   30.9540   49.5470 C   0  0  0  0  0  0  0  0  0  0  0  0
   35.3950   30.0030   48.4910 C   0  0  2  0  0  0  0  0  0  0  0  0
   36.8310   29.8610   50.1450 H   0  0  0  0  0  0  0  0  0  0  0  0
   34.6270   30.7900   50.5620 H   0  0  0  0  0  0  0  0  0  0  0  0
   34.6400   31.9640   49.1900 H   0  0  0  0  0  0  0  0  0  0  0  0
   35.0550   30.3310   47.5210 H   0  0  0  0  0  0  0  0  0  0  0  0
   37.3160   31.5990   48.8860 C   0  0  0  0  0  0  0  0  0  0  0  0
   37.8870   32.4890   49.8190 C   0  0  0  0  0  0  0  0  0  0  0  0
   38.7900   33.3790   49.2900 C   0  0  0  0  0  0  0  0  0  0  0  0
   39.0750   33.3630   47.9690 N   0  0  0  0  0  0  0  0  0  0  0  0
   38.5020   32.4860   47.0980 C   0  0  0  0  0  0  0  0  0  0  0  0
   37.5950   31.5790   47.5830 N   0  0  0  0  0  0  0  0  0  0  0  0
   38.7990   32.4320   45.7310 N   0  0  0  0  0  0  0  0  0  0  0  0
   37.6700   32.5110   50.8620 H   0  0  0  0  0  0  0  0  0  0  0  0
   39.3000   34.1130   49.8820 H   0  0  0  0  0  0  0  0  0  0  0  0
   39.5400   31.7760   45.3900 H   0  0  0  0  0  0  0  0  0  0  0  0
   38.3190   33.0170   45.0060 H   0  0  0  0  0  0  0  0  0  0  0  0
   35.1040   28.6550   48.7320 O   0  0  0  0  0  0  0  0  0  0  0  0
   33.6680   26.8110   47.6450 O   0  0  0  0  0  0  0  0  0  0  0  0
   33.6350   28.2490   48.0540 P   0  0  1  0  0  0  0  0  0  0  0  0
   32.4290   28.2500   49.3140 O   0  0  0  0  0  0  0  0  0  0  0  0
   31.5630   28.3690   48.8560 H   0  0  0  0  0  0  0  0  0  0  0  0
   33.2200   29.3300   46.8900 O   0  0  0  0  0  0  0  0  0  0  0  0
   30.5180   27.9670   46.8530 Cl  0  0  0  0  0  0  0  0  0  0  0  0
   31.2840   28.7410   45.5130 C   0  0  0  0  0  0  0  0  0  0  0  0
   32.5220   29.3020   45.7530 C   0  0  0  0  0  0  0  0  0  0  0  0
   33.1470   29.9330   44.6640 C   0  0  0  0  0  0  0  0  0  0  0  0
   34.1180   30.4110   44.7190 H   0  0  0  0  0  0  0  0  0  0  0  0
   32.4950   29.9560   43.4260 C   0  0  0  0  0  0  0  0  0  0  0  0
   32.9690   30.4410   42.5760 H   0  0  0  0  0  0  0  0  0  0  0  0
   31.2690   29.3860   43.2390 C   0  0  0  0  0  0  0  0  0  0  0  0
   30.7920   29.4170   42.2880 H   0  0  0  0  0  0  0  0  0  0  0  0
   30.6480   28.7690   44.2880 C   0  0  0  0  0  0  0  0  0  0  0  0
   29.0950   28.0240   44.1340 Cl  0  0  0  0  0  0  0  0  0  0  0  0
  1  2  1  0  0  0  0
  1  4  1  1  0  0  0
  2  5  1  0  0  0  0
  3  7  1  6  0  0  0
  3 19  1  0  0  0  0
  3  1  1  0  0  0  0
  3  2  1  0  0  0  0
  6  2  1  0  0  0  0
  8  1  1  0  0  0  0
  8  9  1  0  0  0  0
  9 15  1  0  0  0  0
 10  9  2  0  0  0  0
 10 16  1  0  0  0  0
 11 10  1  0  0  0  0
 12 13  1  0  0  0  0
 12 11  2  0  0  0  0
 13  8  2  0  0  0  0
 14 12  1  0  0  0  0
 17 14  1  0  0  0  0
 18 14  1  0  0  0  0
 21 20  2  6  0  0  0
 21 19  1  0  0  0  0
 21 22  1  0  0  0  0
 23 22  1  0  0  0  0
 24 21  1  0  0  0  0
 26 27  1  0  0  0  0
 26 25  1  0  0  0  0
 27 24  1  0  0  0  0
 28 29  1  0  0  0  0
 28 27  2  0  0  0  0
 30 28  1  0  0  0  0
 31 30  1  0  0  0  0
 32 30  2  0  0  0  0
 32 34  1  0  0  0  0
 33 32  1  0  0  0  0
 34 26  2  0  0  0  0
 35 34  1  0  0  0  0
M  END
>  <minimizedAffinity>
-4.63819265

>  <minimizedRMSD>
3.06779623

$$$$
