
 OpenBabel03272508553D

 40 43  0  0  1  0  0  0  0  0999 V2000
   36.9660   26.7710   32.9230 C   0  0  0  0  0  0  0  0  0  0  0  0
   37.1310   26.2480   34.0600 O   0  0  0  0  0  0  0  0  0  0  0  0
   37.2350   26.0190   31.7300 N   0  0  0  0  0  0  0  0  0  0  0  0
   37.2990   26.4430   30.7950 H   0  0  0  0  0  0  0  0  0  0  0  0
   36.4950   28.1640   32.7810 C   0  0  0  0  0  0  0  0  0  0  0  0
   36.6200   28.7780   31.5630 C   0  0  0  0  0  0  0  0  0  0  0  0
   36.1670   30.0830   31.4650 C   0  0  0  0  0  0  0  0  0  0  0  0
   35.6300   30.6770   32.5640 C   0  0  0  0  0  0  0  0  0  0  0  0
   35.4980   30.0660   33.7980 C   0  0  0  0  0  0  0  0  0  0  0  0
   35.9530   28.8070   33.8330 N   0  0  0  0  0  0  0  0  0  0  0  0
   37.0440   28.3210   30.6800 H   0  0  0  0  0  0  0  0  0  0  0  0
   36.2400   30.6310   30.5130 H   0  0  0  0  0  0  0  0  0  0  0  0
   35.2880   31.6970   32.4420 H   0  0  0  0  0  0  0  0  0  0  0  0
   32.6580   29.4390   34.1880 Cl  0  0  0  0  0  0  0  0  0  0  0  0
   33.6020   30.4900   35.2500 C   0  0  0  0  0  0  0  0  0  0  0  0
   34.9240   30.7090   34.9650 C   0  0  0  0  0  0  0  0  0  0  0  0
   35.6210   31.5200   35.8020 C   0  0  0  0  0  0  0  0  0  0  0  0
   36.6600   31.7290   35.6300 H   0  0  0  0  0  0  0  0  0  0  0  0
   35.0240   32.1120   36.9080 C   0  0  0  0  0  0  0  0  0  0  0  0
   35.5620   32.7710   37.6000 H   0  0  0  0  0  0  0  0  0  0  0  0
   33.6890   31.8550   37.1440 C   0  0  0  0  0  0  0  0  0  0  0  0
   33.1680   32.2900   37.9940 H   0  0  0  0  0  0  0  0  0  0  0  0
   32.9370   31.0390   36.3260 C   0  0  0  0  0  0  0  0  0  0  0  0
   31.2330   30.6920   36.6010 Cl  0  0  0  0  0  0  0  0  0  0  0  0
   36.4790   23.6950   31.2520 C   0  0  2  0  0  0  0  0  0  0  0  0
   37.7410   23.8860   30.5210 C   0  0  0  0  0  0  0  0  0  0  0  0
   37.4250   24.5890   31.8680 C   0  0  1  0  0  0  0  0  0  0  0  0
   35.5920   24.0850   30.7060 H   0  0  0  0  0  0  0  0  0  0  0  0
   38.5250   23.1010   30.5520 H   0  0  0  0  0  0  0  0  0  0  0  0
   37.7680   24.5000   29.6240 H   0  0  0  0  0  0  0  0  0  0  0  0
   38.0650   24.2410   32.7070 H   0  0  0  0  0  0  0  0  0  0  0  0
   36.4130   20.9520   33.7350 C   0  0  0  0  0  0  0  0  0  0  0  0
   35.5120   20.0250   33.1430 C   0  0  0  0  0  0  0  0  0  0  0  0
   34.9430   20.3730   31.8720 C   0  0  0  0  0  0  0  0  0  0  0  0
   35.2790   21.5600   31.2880 N   0  0  0  0  0  0  0  0  0  0  0  0
   36.1560   22.3960   31.9260 C   0  0  0  0  0  0  0  0  0  0  0  0
   36.7410   22.1250   33.1470 N   0  0  0  0  0  0  0  0  0  0  0  0
   36.8660   20.7370   34.6840 H   0  0  0  0  0  0  0  0  0  0  0  0
   35.2770   19.1070   33.6370 H   0  0  0  0  0  0  0  0  0  0  0  0
   34.2570   19.6780   31.4110 H   0  0  0  0  0  0  0  0  0  0  0  0
  1  2  2  0  0  0  0
  3 27  1  0  0  0  0
  3  1  1  0  0  0  0
  4  3  1  0  0  0  0
  5  1  1  0  0  0  0
  5 10  1  0  0  0  0
  6  5  2  0  0  0  0
  7  6  1  0  0  0  0
  7  8  2  0  0  0  0
  8  9  1  0  0  0  0
  9 10  2  0  0  0  0
  9 16  1  0  0  0  0
 11  6  1  0  0  0  0
 12  7  1  0  0  0  0
 13  8  1  0  0  0  0
 14 15  1  0  0  0  0
 15 23  1  0  0  0  0
 16 15  2  0  0  0  0
 16 17  1  0  0  0  0
 17 19  2  0  0  0  0
 18 17  1  0  0  0  0
 19 21  1  0  0  0  0
 19 20  1  0  0  0  0
 21 22  1  0  0  0  0
 23 24  1  0  0  0  0
 23 21  2  0  0  0  0
 25 28  1  6  0  0  0
 25 27  1  0  0  0  0
 25 36  1  0  0  0  0
 26 29  1  0  0  0  0
 26 25  1  0  0  0  0
 26 27  1  0  0  0  0
 27 31  1  1  0  0  0
 30 26  1  0  0  0  0
 32 38  1  0  0  0  0
 33 39  1  0  0  0  0
 33 32  2  0  0  0  0
 34 33  1  0  0  0  0
 35 34  2  0  0  0  0
 35 36  1  0  0  0  0
 36 37  2  0  0  0  0
 37 32  1  0  0  0  0
 40 34  1  0  0  0  0
M  END
>  <minimizedAffinity>
-6.45067167

$$$$

 OpenBabel03272508553D

 40 43  0  0  1  0  0  0  0  0999 V2000
   37.9060   26.8640   33.5670 C   0  0  0  0  0  0  0  0  0  0  0  0
   38.8300   27.0630   34.4040 O   0  0  0  0  0  0  0  0  0  0  0  0
   37.7580   25.5820   32.9380 N   0  0  0  0  0  0  0  0  0  0  0  0
   37.1520   25.4170   32.1230 H   0  0  0  0  0  0  0  0  0  0  0  0
   36.9520   27.9330   33.2100 C   0  0  0  0  0  0  0  0  0  0  0  0
   36.6270   28.1100   31.8910 C   0  0  0  0  0  0  0  0  0  0  0  0
   35.7290   29.1200   31.5930 C   0  0  0  0  0  0  0  0  0  0  0  0
   35.2230   29.8720   32.6070 C   0  0  0  0  0  0  0  0  0  0  0  0
   35.5430   29.7020   33.9410 C   0  0  0  0  0  0  0  0  0  0  0  0
   36.4160   28.7110   34.1700 N   0  0  0  0  0  0  0  0  0  0  0  0
   37.0200   27.5220   31.0730 H   0  0  0  0  0  0  0  0  0  0  0  0
   35.4290   29.3120   30.5500 H   0  0  0  0  0  0  0  0  0  0  0  0
   34.5240   30.6500   32.3270 H   0  0  0  0  0  0  0  0  0  0  0  0
   32.6950   29.2000   34.4410 Cl  0  0  0  0  0  0  0  0  0  0  0  0
   33.6760   30.3630   35.3420 C   0  0  0  0  0  0  0  0  0  0  0  0
   34.9990   30.5100   35.0160 C   0  0  0  0  0  0  0  0  0  0  0  0
   35.7240   31.4100   35.7280 C   0  0  0  0  0  0  0  0  0  0  0  0
   36.7650   31.5700   35.5200 H   0  0  0  0  0  0  0  0  0  0  0  0
   35.1550   32.1600   36.7500 C   0  0  0  0  0  0  0  0  0  0  0  0
   35.7160   32.8940   37.3400 H   0  0  0  0  0  0  0  0  0  0  0  0
   33.8170   31.9690   37.0320 C   0  0  0  0  0  0  0  0  0  0  0  0
   33.3180   32.5260   37.8200 H   0  0  0  0  0  0  0  0  0  0  0  0
   33.0370   31.0670   36.3390 C   0  0  0  0  0  0  0  0  0  0  0  0
   31.3290   30.8000   36.6760 Cl  0  0  0  0  0  0  0  0  0  0  0  0
   37.9800   23.7660   34.6280 C   0  0  2  0  0  0  0  0  0  0  0  0
   37.7890   23.1090   33.3250 C   0  0  0  0  0  0  0  0  0  0  0  0
   38.5110   24.4730   33.4900 C   0  0  1  0  0  0  0  0  0  0  0  0
   37.0260   24.0800   35.1050 H   0  0  0  0  0  0  0  0  0  0  0  0
   38.4300   22.2490   33.0380 H   0  0  0  0  0  0  0  0  0  0  0  0
   36.8110   23.1080   32.8500 H   0  0  0  0  0  0  0  0  0  0  0  0
   39.5950   24.4290   33.2550 H   0  0  0  0  0  0  0  0  0  0  0  0
   40.8640   22.0280   36.1610 C   0  0  0  0  0  0  0  0  0  0  0  0
   40.6530   22.2510   37.5500 C   0  0  0  0  0  0  0  0  0  0  0  0
   39.4930   23.0050   37.9310 C   0  0  0  0  0  0  0  0  0  0  0  0
   38.6500   23.4740   36.9650 N   0  0  0  0  0  0  0  0  0  0  0  0
   38.9270   23.2140   35.6500 C   0  0  0  0  0  0  0  0  0  0  0  0
   40.0220   22.4960   35.2120 N   0  0  0  0  0  0  0  0  0  0  0  0
   41.7170   21.4690   35.8250 H   0  0  0  0  0  0  0  0  0  0  0  0
   41.3410   21.8650   38.2710 H   0  0  0  0  0  0  0  0  0  0  0  0
   39.3200   23.1820   38.9820 H   0  0  0  0  0  0  0  0  0  0  0  0
  1  2  2  0  0  0  0
  3 27  1  0  0  0  0
  3  1  1  0  0  0  0
  4  3  1  0  0  0  0
  5  1  1  0  0  0  0
  5 10  1  0  0  0  0
  6  5  2  0  0  0  0
  7  6  1  0  0  0  0
  7  8  2  0  0  0  0
  8  9  1  0  0  0  0
  9 10  2  0  0  0  0
  9 16  1  0  0  0  0
 11  6  1  0  0  0  0
 12  7  1  0  0  0  0
 13  8  1  0  0  0  0
 14 15  1  0  0  0  0
 15 23  1  0  0  0  0
 16 15  2  0  0  0  0
 16 17  1  0  0  0  0
 17 19  2  0  0  0  0
 18 17  1  0  0  0  0
 19 21  1  0  0  0  0
 19 20  1  0  0  0  0
 21 22  1  0  0  0  0
 23 24  1  0  0  0  0
 23 21  2  0  0  0  0
 25 28  1  1  0  0  0
 25 36  1  0  0  0  0
 26 27  1  0  0  0  0
 26 25  1  0  0  0  0
 27 31  1  6  0  0  0
 27 25  1  0  0  0  0
 29 26  1  0  0  0  0
 30 26  1  0  0  0  0
 32 33  1  0  0  0  0
 33 34  2  0  0  0  0
 33 39  1  0  0  0  0
 34 40  1  0  0  0  0
 35 34  1  0  0  0  0
 36 35  2  0  0  0  0
 37 36  1  0  0  0  0
 37 32  2  0  0  0  0
 38 32  1  0  0  0  0
M  END
>  <minimizedAffinity>
-6.14871502

$$$$

 OpenBabel03272508553D

 40 43  0  0  1  0  0  0  0  0999 V2000
   36.8400   26.8850   32.8260 C   0  0  0  0  0  0  0  0  0  0  0  0
   37.4940   26.5160   33.8420 O   0  0  0  0  0  0  0  0  0  0  0  0
   36.6630   25.9970   31.7120 N   0  0  0  0  0  0  0  0  0  0  0  0
   36.3070   26.3010   30.7960 H   0  0  0  0  0  0  0  0  0  0  0  0
   36.2380   28.2320   32.7490 C   0  0  0  0  0  0  0  0  0  0  0  0
   36.4630   28.9890   31.6310 C   0  0  0  0  0  0  0  0  0  0  0  0
   35.8820   30.2460   31.5920 C   0  0  0  0  0  0  0  0  0  0  0  0
   35.1310   30.6560   32.6480 C   0  0  0  0  0  0  0  0  0  0  0  0
   34.8970   29.8990   33.7820 C   0  0  0  0  0  0  0  0  0  0  0  0
   35.4820   28.6950   33.7640 N   0  0  0  0  0  0  0  0  0  0  0  0
   37.0580   28.6780   30.7820 H   0  0  0  0  0  0  0  0  0  0  0  0
   36.0270   30.9020   30.7190 H   0  0  0  0  0  0  0  0  0  0  0  0
   34.6960   31.6450   32.5750 H   0  0  0  0  0  0  0  0  0  0  0  0
   36.0860   32.1550   35.2340 Cl  0  0  0  0  0  0  0  0  0  0  0  0
   34.5480   31.3960   35.6590 C   0  0  0  0  0  0  0  0  0  0  0  0
   34.0930   30.3470   34.9050 C   0  0  0  0  0  0  0  0  0  0  0  0
   32.9080   29.7870   35.2570 C   0  0  0  0  0  0  0  0  0  0  0  0
   32.5000   28.9620   34.7040 H   0  0  0  0  0  0  0  0  0  0  0  0
   32.1750   30.2530   36.3420 C   0  0  0  0  0  0  0  0  0  0  0  0
   31.2160   29.8200   36.6490 H   0  0  0  0  0  0  0  0  0  0  0  0
   32.6840   31.3130   37.0650 C   0  0  0  0  0  0  0  0  0  0  0  0
   32.1560   31.7200   37.9230 H   0  0  0  0  0  0  0  0  0  0  0  0
   33.8830   31.9170   36.7480 C   0  0  0  0  0  0  0  0  0  0  0  0
   34.5560   33.2700   37.6510 Cl  0  0  0  0  0  0  0  0  0  0  0  0
   36.2320   23.5900   31.2390 C   0  0  2  0  0  0  0  0  0  0  0  0
   37.5190   23.9200   30.6070 C   0  0  0  0  0  0  0  0  0  0  0  0
   37.0110   24.6030   31.9050 C   0  0  1  0  0  0  0  0  0  0  0  0
   35.3540   23.8600   30.6140 H   0  0  0  0  0  0  0  0  0  0  0  0
   38.3850   23.2360   30.7230 H   0  0  0  0  0  0  0  0  0  0  0  0
   37.5470   24.5160   29.6980 H   0  0  0  0  0  0  0  0  0  0  0  0
   37.6160   24.3500   32.8010 H   0  0  0  0  0  0  0  0  0  0  0  0
   36.3390   20.8830   33.7600 C   0  0  0  0  0  0  0  0  0  0  0  0
   35.5550   19.8660   33.1510 C   0  0  0  0  0  0  0  0  0  0  0  0
   35.0030   20.1420   31.8540 C   0  0  0  0  0  0  0  0  0  0  0  0
   35.2450   21.3490   31.2650 N   0  0  0  0  0  0  0  0  0  0  0  0
   36.0120   22.2740   31.9210 C   0  0  0  0  0  0  0  0  0  0  0  0
   36.5740   22.0760   33.1670 N   0  0  0  0  0  0  0  0  0  0  0  0
   36.7750   20.7250   34.7290 H   0  0  0  0  0  0  0  0  0  0  0  0
   35.3920   18.9350   33.6500 H   0  0  0  0  0  0  0  0  0  0  0  0
   34.4060   19.3780   31.3790 H   0  0  0  0  0  0  0  0  0  0  0  0
  1  2  2  0  0  0  0
  3 27  1  0  0  0  0
  3  1  1  0  0  0  0
  4  3  1  0  0  0  0
  5  1  1  0  0  0  0
  5 10  1  0  0  0  0
  6  5  2  0  0  0  0
  7  6  1  0  0  0  0
  7  8  2  0  0  0  0
  8  9  1  0  0  0  0
  9 16  1  0  0  0  0
 10  9  2  0  0  0  0
 11  6  1  0  0  0  0
 12  7  1  0  0  0  0
 13  8  1  0  0  0  0
 14 15  1  0  0  0  0
 15 23  1  0  0  0  0
 16 17  1  0  0  0  0
 16 15  2  0  0  0  0
 17 19  2  0  0  0  0
 18 17  1  0  0  0  0
 19 20  1  0  0  0  0
 19 21  1  0  0  0  0
 21 22  1  0  0  0  0
 23 21  2  0  0  0  0
 23 24  1  0  0  0  0
 25 28  1  6  0  0  0
 25 27  1  0  0  0  0
 25 36  1  0  0  0  0
 26 29  1  0  0  0  0
 26 25  1  0  0  0  0
 26 27  1  0  0  0  0
 27 31  1  1  0  0  0
 30 26  1  0  0  0  0
 32 38  1  0  0  0  0
 33 39  1  0  0  0  0
 33 32  2  0  0  0  0
 34 33  1  0  0  0  0
 35 34  2  0  0  0  0
 35 36  1  0  0  0  0
 36 37  2  0  0  0  0
 37 32  1  0  0  0  0
 40 34  1  0  0  0  0
M  END
>  <minimizedAffinity>
-6.13105774

$$$$

 OpenBabel03272508553D

 40 43  0  0  1  0  0  0  0  0999 V2000
   37.8020   27.0750   33.5930 C   0  0  0  0  0  0  0  0  0  0  0  0
   38.6790   27.3290   34.4650 O   0  0  0  0  0  0  0  0  0  0  0  0
   37.7650   25.7920   32.9490 N   0  0  0  0  0  0  0  0  0  0  0  0
   37.2020   25.5940   32.1110 H   0  0  0  0  0  0  0  0  0  0  0  0
   36.7900   28.0800   33.2070 C   0  0  0  0  0  0  0  0  0  0  0  0
   36.7190   28.4710   31.8970 C   0  0  0  0  0  0  0  0  0  0  0  0
   35.7580   29.4130   31.5710 C   0  0  0  0  0  0  0  0  0  0  0  0
   34.9480   29.8940   32.5520 C   0  0  0  0  0  0  0  0  0  0  0  0
   35.0110   29.5050   33.8780 C   0  0  0  0  0  0  0  0  0  0  0  0
   35.9580   28.5930   34.1340 N   0  0  0  0  0  0  0  0  0  0  0  0
   37.3540   28.0990   31.1050 H   0  0  0  0  0  0  0  0  0  0  0  0
   35.6520   29.7680   30.5340 H   0  0  0  0  0  0  0  0  0  0  0  0
   34.2120   30.6280   32.2520 H   0  0  0  0  0  0  0  0  0  0  0  0
   36.1020   31.8710   35.2280 Cl  0  0  0  0  0  0  0  0  0  0  0  0
   34.5460   31.1290   35.6190 C   0  0  0  0  0  0  0  0  0  0  0  0
   34.1420   30.0240   34.9180 C   0  0  0  0  0  0  0  0  0  0  0  0
   32.9410   29.4790   35.2420 C   0  0  0  0  0  0  0  0  0  0  0  0
   32.5710   28.6120   34.7280 H   0  0  0  0  0  0  0  0  0  0  0  0
   32.1450   30.0150   36.2470 C   0  0  0  0  0  0  0  0  0  0  0  0
   31.1720   29.5950   36.5300 H   0  0  0  0  0  0  0  0  0  0  0  0
   32.6060   31.1290   36.9190 C   0  0  0  0  0  0  0  0  0  0  0  0
   32.0270   31.5920   37.7140 H   0  0  0  0  0  0  0  0  0  0  0  0
   33.8170   31.7200   36.6280 C   0  0  0  0  0  0  0  0  0  0  0  0
   34.4300   33.1420   37.4670 Cl  0  0  0  0  0  0  0  0  0  0  0  0
   38.0060   23.9060   34.5570 C   0  0  2  0  0  0  0  0  0  0  0  0
   38.0200   23.3150   33.2100 C   0  0  0  0  0  0  0  0  0  0  0  0
   38.5710   24.7320   33.5210 C   0  0  1  0  0  0  0  0  0  0  0  0
   36.9800   24.0920   34.9450 H   0  0  0  0  0  0  0  0  0  0  0  0
   38.7740   22.5440   32.9500 H   0  0  0  0  0  0  0  0  0  0  0  0
   37.1000   23.2450   32.6320 H   0  0  0  0  0  0  0  0  0  0  0  0
   39.6720   24.8110   33.4020 H   0  0  0  0  0  0  0  0  0  0  0  0
   39.3270   23.0750   37.9130 C   0  0  0  0  0  0  0  0  0  0  0  0
   40.5380   22.3960   37.6050 C   0  0  0  0  0  0  0  0  0  0  0  0
   40.8800   22.2450   36.2190 C   0  0  0  0  0  0  0  0  0  0  0  0
   40.0450   22.7470   35.2630 N   0  0  0  0  0  0  0  0  0  0  0  0
   38.8970   23.3890   35.6450 C   0  0  0  0  0  0  0  0  0  0  0  0
   38.5070   23.5700   36.9580 N   0  0  0  0  0  0  0  0  0  0  0  0
   39.0280   23.2150   38.9340 H   0  0  0  0  0  0  0  0  0  0  0  0
   41.1620   22.0190   38.3870 H   0  0  0  0  0  0  0  0  0  0  0  0
   41.7970   21.7320   35.9710 H   0  0  0  0  0  0  0  0  0  0  0  0
  1  2  2  0  0  0  0
  3 27  1  0  0  0  0
  3  1  1  0  0  0  0
  4  3  1  0  0  0  0
  5  1  1  0  0  0  0
  5 10  1  0  0  0  0
  6  5  2  0  0  0  0
  7  6  1  0  0  0  0
  7  8  2  0  0  0  0
  8  9  1  0  0  0  0
  9 10  2  0  0  0  0
  9 16  1  0  0  0  0
 11  6  1  0  0  0  0
 12  7  1  0  0  0  0
 13  8  1  0  0  0  0
 14 15  1  0  0  0  0
 15 23  1  0  0  0  0
 16 17  1  0  0  0  0
 16 15  2  0  0  0  0
 17 19  2  0  0  0  0
 18 17  1  0  0  0  0
 19 20  1  0  0  0  0
 19 21  1  0  0  0  0
 21 22  1  0  0  0  0
 23 21  2  0  0  0  0
 23 24  1  0  0  0  0
 25 28  1  1  0  0  0
 25 36  1  0  0  0  0
 26 27  1  0  0  0  0
 26 25  1  0  0  0  0
 27 31  1  6  0  0  0
 27 25  1  0  0  0  0
 29 26  1  0  0  0  0
 30 26  1  0  0  0  0
 32 38  1  0  0  0  0
 33 32  1  0  0  0  0
 33 39  1  0  0  0  0
 34 33  2  0  0  0  0
 35 36  2  0  0  0  0
 35 34  1  0  0  0  0
 36 37  1  0  0  0  0
 37 32  2  0  0  0  0
 40 34  1  0  0  0  0
M  END
>  <minimizedAffinity>
-6.03558016

$$$$

 OpenBabel03272508553D

 40 43  0  0  1  0  0  0  0  0999 V2000
   37.3380   27.6840   32.8600 C   0  0  0  0  0  0  0  0  0  0  0  0
   38.2310   27.5470   31.9770 O   0  0  0  0  0  0  0  0  0  0  0  0
   37.3420   26.8560   34.0330 N   0  0  0  0  0  0  0  0  0  0  0  0
   36.5490   26.7930   34.6850 H   0  0  0  0  0  0  0  0  0  0  0  0
   36.2680   28.6920   32.7190 C   0  0  0  0  0  0  0  0  0  0  0  0
   36.0130   29.2090   31.4770 C   0  0  0  0  0  0  0  0  0  0  0  0
   35.0020   30.1510   31.3810 C   0  0  0  0  0  0  0  0  0  0  0  0
   34.3260   30.5070   32.5060 C   0  0  0  0  0  0  0  0  0  0  0  0
   34.5750   29.9900   33.7650 C   0  0  0  0  0  0  0  0  0  0  0  0
   35.5620   29.0850   33.7970 N   0  0  0  0  0  0  0  0  0  0  0  0
   36.5400   28.9370   30.5730 H   0  0  0  0  0  0  0  0  0  0  0  0
   34.7500   30.6040   30.4100 H   0  0  0  0  0  0  0  0  0  0  0  0
   33.5440   31.2450   32.3850 H   0  0  0  0  0  0  0  0  0  0  0  0
   35.7410   32.3110   35.1310 Cl  0  0  0  0  0  0  0  0  0  0  0  0
   34.2990   31.4490   35.6830 C   0  0  0  0  0  0  0  0  0  0  0  0
   33.8480   30.3770   34.9600 C   0  0  0  0  0  0  0  0  0  0  0  0
   32.7380   29.7380   35.4100 C   0  0  0  0  0  0  0  0  0  0  0  0
   32.3370   28.8910   34.8860 H   0  0  0  0  0  0  0  0  0  0  0  0
   32.0770   30.1480   36.5610 C   0  0  0  0  0  0  0  0  0  0  0  0
   31.1790   29.6510   36.9470 H   0  0  0  0  0  0  0  0  0  0  0  0
   32.5780   31.2350   37.2480 C   0  0  0  0  0  0  0  0  0  0  0  0
   32.1030   31.6020   38.1540 H   0  0  0  0  0  0  0  0  0  0  0  0
   33.7020   31.9190   36.8330 C   0  0  0  0  0  0  0  0  0  0  0  0
   34.3640   33.3090   37.6870 Cl  0  0  0  0  0  0  0  0  0  0  0  0
   39.6290   26.6840   35.0050 C   0  0  2  0  0  0  0  0  0  0  0  0
   38.7620   25.8080   35.8090 C   0  0  0  0  0  0  0  0  0  0  0  0
   38.5330   26.0730   34.2970 C   0  0  1  0  0  0  0  0  0  0  0  0
   39.5870   27.7500   35.3170 H   0  0  0  0  0  0  0  0  0  0  0  0
   39.1030   24.7880   36.0800 H   0  0  0  0  0  0  0  0  0  0  0  0
   38.0510   26.2360   36.5120 H   0  0  0  0  0  0  0  0  0  0  0  0
   38.7020   25.1770   33.6630 H   0  0  0  0  0  0  0  0  0  0  0  0
   43.0880   26.8080   33.6950 C   0  0  0  0  0  0  0  0  0  0  0  0
   43.6040   25.5390   34.0740 C   0  0  0  0  0  0  0  0  0  0  0  0
   42.7260   24.6500   34.7810 C   0  0  0  0  0  0  0  0  0  0  0  0
   41.4500   25.0480   35.0600 N   0  0  0  0  0  0  0  0  0  0  0  0
   41.0320   26.2890   34.6580 C   0  0  0  0  0  0  0  0  0  0  0  0
   41.8210   27.1920   33.9750 N   0  0  0  0  0  0  0  0  0  0  0  0
   43.7050   27.5090   33.1640 H   0  0  0  0  0  0  0  0  0  0  0  0
   44.6100   25.2700   33.8350 H   0  0  0  0  0  0  0  0  0  0  0  0
   43.1050   23.6830   35.0750 H   0  0  0  0  0  0  0  0  0  0  0  0
  1  3  1  0  0  0  0
  2  1  2  0  0  0  0
  3 27  1  0  0  0  0
  3  4  1  0  0  0  0
  5  1  1  0  0  0  0
  5 10  1  0  0  0  0
  6  5  2  0  0  0  0
  7  6  1  0  0  0  0
  7  8  2  0  0  0  0
  8  9  1  0  0  0  0
  9 10  2  0  0  0  0
  9 16  1  0  0  0  0
 11  6  1  0  0  0  0
 12  7  1  0  0  0  0
 13  8  1  0  0  0  0
 14 15  1  0  0  0  0
 15 23  1  0  0  0  0
 16 17  1  0  0  0  0
 16 15  2  0  0  0  0
 17 19  2  0  0  0  0
 18 17  1  0  0  0  0
 19 20  1  0  0  0  0
 19 21  1  0  0  0  0
 21 22  1  0  0  0  0
 23 21  2  0  0  0  0
 23 24  1  0  0  0  0
 25 28  1  1  0  0  0
 25 26  1  0  0  0  0
 26 29  1  0  0  0  0
 26 30  1  0  0  0  0
 27 31  1  6  0  0  0
 27 25  1  0  0  0  0
 27 26  1  0  0  0  0
 32 37  2  0  0  0  0
 32 33  1  0  0  0  0
 33 34  2  0  0  0  0
 34 35  1  0  0  0  0
 34 40  1  0  0  0  0
 36 25  1  0  0  0  0
 36 35  2  0  0  0  0
 37 36  1  0  0  0  0
 38 32  1  0  0  0  0
 39 33  1  0  0  0  0
M  END
>  <minimizedAffinity>
-5.71519852

$$$$

 OpenBabel03272508553D

 40 43  0  0  1  0  0  0  0  0999 V2000
   36.7020   27.4240   32.9330 C   0  0  0  0  0  0  0  0  0  0  0  0
   37.0740   27.0440   34.0780 O   0  0  0  0  0  0  0  0  0  0  0  0
   36.8800   26.5740   31.7900 N   0  0  0  0  0  0  0  0  0  0  0  0
   36.7710   26.8980   30.8200 H   0  0  0  0  0  0  0  0  0  0  0  0
   36.0750   28.7470   32.7310 C   0  0  0  0  0  0  0  0  0  0  0  0
   35.7590   29.1350   31.4560 C   0  0  0  0  0  0  0  0  0  0  0  0
   35.1720   30.3800   31.3040 C   0  0  0  0  0  0  0  0  0  0  0  0
   34.9420   31.1390   32.4080 C   0  0  0  0  0  0  0  0  0  0  0  0
   35.2570   30.7550   33.7000 C   0  0  0  0  0  0  0  0  0  0  0  0
   35.8220   29.5440   33.7860 N   0  0  0  0  0  0  0  0  0  0  0  0
   35.9350   28.5440   30.5680 H   0  0  0  0  0  0  0  0  0  0  0  0
   34.8950   30.7480   30.3030 H   0  0  0  0  0  0  0  0  0  0  0  0
   34.4810   32.1040   32.2420 H   0  0  0  0  0  0  0  0  0  0  0  0
   36.7530   33.2800   33.6920 Cl  0  0  0  0  0  0  0  0  0  0  0  0
   35.6520   32.7780   34.9800 C   0  0  0  0  0  0  0  0  0  0  0  0
   35.0080   31.5730   34.8720 C   0  0  0  0  0  0  0  0  0  0  0  0
   34.1680   31.2180   35.8780 C   0  0  0  0  0  0  0  0  0  0  0  0
   33.6350   30.2860   35.8500 H   0  0  0  0  0  0  0  0  0  0  0  0
   33.9640   32.0380   36.9810 C   0  0  0  0  0  0  0  0  0  0  0  0
   33.2920   31.7760   37.8080 H   0  0  0  0  0  0  0  0  0  0  0  0
   34.6410   33.2400   37.0350 C   0  0  0  0  0  0  0  0  0  0  0  0
   34.5200   33.9220   37.8720 H   0  0  0  0  0  0  0  0  0  0  0  0
   35.5040   33.6470   36.0390 C   0  0  0  0  0  0  0  0  0  0  0  0
   36.3810   35.1740   36.0790 Cl  0  0  0  0  0  0  0  0  0  0  0  0
   36.6750   24.1660   31.1870 C   0  0  2  0  0  0  0  0  0  0  0  0
   38.0580   24.5620   30.8770 C   0  0  0  0  0  0  0  0  0  0  0  0
   37.2340   25.1890   32.0330 C   0  0  1  0  0  0  0  0  0  0  0  0
   35.9540   24.4200   30.3790 H   0  0  0  0  0  0  0  0  0  0  0  0
   38.9020   23.9080   31.1790 H   0  0  0  0  0  0  0  0  0  0  0  0
   38.2690   25.1840   30.0110 H   0  0  0  0  0  0  0  0  0  0  0  0
   37.6250   24.9350   33.0410 H   0  0  0  0  0  0  0  0  0  0  0  0
   35.2020   20.8070   31.6740 C   0  0  0  0  0  0  0  0  0  0  0  0
   35.8370   20.3640   32.8660 C   0  0  0  0  0  0  0  0  0  0  0  0
   36.7730   21.2570   33.4900 C   0  0  0  0  0  0  0  0  0  0  0  0
   37.0150   22.4760   32.9260 N   0  0  0  0  0  0  0  0  0  0  0  0
   36.3600   22.8250   31.7750 C   0  0  0  0  0  0  0  0  0  0  0  0
   35.4480   22.0170   31.1240 N   0  0  0  0  0  0  0  0  0  0  0  0
   34.4940   20.1760   31.1700 H   0  0  0  0  0  0  0  0  0  0  0  0
   35.6170   19.4000   33.2720 H   0  0  0  0  0  0  0  0  0  0  0  0
   37.2630   20.9330   34.3960 H   0  0  0  0  0  0  0  0  0  0  0  0
  1  2  2  0  0  0  0
  3 27  1  0  0  0  0
  3  1  1  0  0  0  0
  4  3  1  0  0  0  0
  5  1  1  0  0  0  0
  5 10  1  0  0  0  0
  6  5  2  0  0  0  0
  7  6  1  0  0  0  0
  7  8  2  0  0  0  0
  8  9  1  0  0  0  0
  9 10  2  0  0  0  0
  9 16  1  0  0  0  0
 11  6  1  0  0  0  0
 12  7  1  0  0  0  0
 13  8  1  0  0  0  0
 14 15  1  0  0  0  0
 15 23  1  0  0  0  0
 16 15  2  0  0  0  0
 16 17  1  0  0  0  0
 17 19  2  0  0  0  0
 18 17  1  0  0  0  0
 19 21  1  0  0  0  0
 19 20  1  0  0  0  0
 21 22  1  0  0  0  0
 23 24  1  0  0  0  0
 23 21  2  0  0  0  0
 25 28  1  6  0  0  0
 25 36  1  0  0  0  0
 25 27  1  0  0  0  0
 26 29  1  0  0  0  0
 26 25  1  0  0  0  0
 26 27  1  0  0  0  0
 27 31  1  1  0  0  0
 30 26  1  0  0  0  0
 32 33  1  0  0  0  0
 33 39  1  0  0  0  0
 33 34  2  0  0  0  0
 34 40  1  0  0  0  0
 35 34  1  0  0  0  0
 36 35  2  0  0  0  0
 37 32  2  0  0  0  0
 37 36  1  0  0  0  0
 38 32  1  0  0  0  0
M  END
>  <minimizedAffinity>
-5.68286467

$$$$

 OpenBabel03272508553D

 40 43  0  0  1  0  0  0  0  0999 V2000
   36.8620   27.8910   33.0390 C   0  0  0  0  0  0  0  0  0  0  0  0
   37.6900   27.5970   32.1320 O   0  0  0  0  0  0  0  0  0  0  0  0
   36.9000   27.2170   34.3060 N   0  0  0  0  0  0  0  0  0  0  0  0
   36.1470   27.2800   35.0040 H   0  0  0  0  0  0  0  0  0  0  0  0
   35.8340   28.9320   32.8300 C   0  0  0  0  0  0  0  0  0  0  0  0
   35.8410   29.6360   31.6560 C   0  0  0  0  0  0  0  0  0  0  0  0
   34.8630   30.6020   31.4940 C   0  0  0  0  0  0  0  0  0  0  0  0
   33.9600   30.7980   32.4920 C   0  0  0  0  0  0  0  0  0  0  0  0
   33.9440   30.0920   33.6810 C   0  0  0  0  0  0  0  0  0  0  0  0
   34.9120   29.1720   33.7820 N   0  0  0  0  0  0  0  0  0  0  0  0
   36.5510   29.4930   30.8530 H   0  0  0  0  0  0  0  0  0  0  0  0
   34.8160   31.2020   30.5710 H   0  0  0  0  0  0  0  0  0  0  0  0
   33.2130   31.5620   32.3220 H   0  0  0  0  0  0  0  0  0  0  0  0
   31.4590   28.5740   33.3120 Cl  0  0  0  0  0  0  0  0  0  0  0  0
   31.7750   29.6520   34.6770 C   0  0  0  0  0  0  0  0  0  0  0  0
   32.9760   30.3090   34.7410 C   0  0  0  0  0  0  0  0  0  0  0  0
   33.1870   31.1280   35.8020 C   0  0  0  0  0  0  0  0  0  0  0  0
   34.1090   31.6700   35.9070 H   0  0  0  0  0  0  0  0  0  0  0  0
   32.2280   31.3020   36.7920 C   0  0  0  0  0  0  0  0  0  0  0  0
   32.3720   31.9570   37.6590 H   0  0  0  0  0  0  0  0  0  0  0  0
   31.0370   30.6140   36.6730 C   0  0  0  0  0  0  0  0  0  0  0  0
   30.2500   30.7100   37.4170 H   0  0  0  0  0  0  0  0  0  0  0  0
   30.7730   29.7690   35.6160 C   0  0  0  0  0  0  0  0  0  0  0  0
   29.2650   28.8780   35.4380 Cl  0  0  0  0  0  0  0  0  0  0  0  0
   39.2560   27.0530   35.0970 C   0  0  2  0  0  0  0  0  0  0  0  0
   38.4230   26.3860   36.1110 C   0  0  0  0  0  0  0  0  0  0  0  0
   38.0670   26.4090   34.6000 C   0  0  1  0  0  0  0  0  0  0  0  0
   39.3010   28.1560   35.2230 H   0  0  0  0  0  0  0  0  0  0  0  0
   38.7320   25.4040   36.5250 H   0  0  0  0  0  0  0  0  0  0  0  0
   37.8050   26.9730   36.7860 H   0  0  0  0  0  0  0  0  0  0  0  0
   38.1260   25.4100   34.1190 H   0  0  0  0  0  0  0  0  0  0  0  0
   42.1290   24.7550   34.6980 C   0  0  0  0  0  0  0  0  0  0  0  0
   43.0460   25.5390   33.9450 C   0  0  0  0  0  0  0  0  0  0  0  0
   42.6450   26.8710   33.5930 C   0  0  0  0  0  0  0  0  0  0  0  0
   41.4200   27.3300   33.9840 N   0  0  0  0  0  0  0  0  0  0  0  0
   40.5970   26.5090   34.7080 C   0  0  0  0  0  0  0  0  0  0  0  0
   40.9180   25.2190   35.0820 N   0  0  0  0  0  0  0  0  0  0  0  0
   42.3830   23.7530   34.9880 H   0  0  0  0  0  0  0  0  0  0  0  0
   43.9950   25.1390   33.6600 H   0  0  0  0  0  0  0  0  0  0  0  0
   43.3310   27.4780   33.0210 H   0  0  0  0  0  0  0  0  0  0  0  0
  1  3  1  0  0  0  0
  2  1  2  0  0  0  0
  3 27  1  0  0  0  0
  3  4  1  0  0  0  0
  5  1  1  0  0  0  0
  5 10  1  0  0  0  0
  6  5  2  0  0  0  0
  7  6  1  0  0  0  0
  7  8  2  0  0  0  0
  8  9  1  0  0  0  0
  9 10  2  0  0  0  0
  9 16  1  0  0  0  0
 11  6  1  0  0  0  0
 12  7  1  0  0  0  0
 13  8  1  0  0  0  0
 14 15  1  0  0  0  0
 15 16  2  0  0  0  0
 15 23  1  0  0  0  0
 16 17  1  0  0  0  0
 17 18  1  0  0  0  0
 17 19  2  0  0  0  0
 19 20  1  0  0  0  0
 21 19  1  0  0  0  0
 21 22  1  0  0  0  0
 23 21  2  0  0  0  0
 24 23  1  0  0  0  0
 25 28  1  1  0  0  0
 25 26  1  0  0  0  0
 26 29  1  0  0  0  0
 26 30  1  0  0  0  0
 27 31  1  6  0  0  0
 27 25  1  0  0  0  0
 27 26  1  0  0  0  0
 32 38  1  0  0  0  0
 32 37  1  0  0  0  0
 33 32  2  0  0  0  0
 34 33  1  0  0  0  0
 34 35  2  0  0  0  0
 35 36  1  0  0  0  0
 36 37  2  0  0  0  0
 36 25  1  0  0  0  0
 39 33  1  0  0  0  0
 40 34  1  0  0  0  0
M  END
>  <minimizedAffinity>
-5.58235979

$$$$

 OpenBabel03272508553D

 40 43  0  0  1  0  0  0  0  0999 V2000
   35.9030   24.7900   31.4990 C   0  0  0  0  0  0  0  0  0  0  0  0
   34.9530   24.8900   30.6740 O   0  0  0  0  0  0  0  0  0  0  0  0
   36.6500   25.9510   31.8940 N   0  0  0  0  0  0  0  0  0  0  0  0
   37.5390   25.9050   32.4090 H   0  0  0  0  0  0  0  0  0  0  0  0
   36.2780   23.4860   32.0840 C   0  0  0  0  0  0  0  0  0  0  0  0
   35.4290   22.4240   31.9190 C   0  0  0  0  0  0  0  0  0  0  0  0
   35.8120   21.2170   32.4780 C   0  0  0  0  0  0  0  0  0  0  0  0
   36.9920   21.1490   33.1510 C   0  0  0  0  0  0  0  0  0  0  0  0
   37.8570   22.2150   33.3230 C   0  0  0  0  0  0  0  0  0  0  0  0
   37.4350   23.3550   32.7610 N   0  0  0  0  0  0  0  0  0  0  0  0
   34.4880   22.4610   31.3870 H   0  0  0  0  0  0  0  0  0  0  0  0
   35.1720   20.3270   32.3800 H   0  0  0  0  0  0  0  0  0  0  0  0
   37.2520   20.1860   33.5720 H   0  0  0  0  0  0  0  0  0  0  0  0
   37.5870   22.7560   36.1950 Cl  0  0  0  0  0  0  0  0  0  0  0  0
   39.1130   22.3650   35.3930 C   0  0  0  0  0  0  0  0  0  0  0  0
   39.1140   22.1320   34.0430 C   0  0  0  0  0  0  0  0  0  0  0  0
   40.3030   21.8330   33.4590 C   0  0  0  0  0  0  0  0  0  0  0  0
   40.3670   21.6400   32.4040 H   0  0  0  0  0  0  0  0  0  0  0  0
   41.4800   21.7660   34.1930 C   0  0  0  0  0  0  0  0  0  0  0  0
   42.4530   21.5270   33.7480 H   0  0  0  0  0  0  0  0  0  0  0  0
   41.4160   22.0110   35.5500 C   0  0  0  0  0  0  0  0  0  0  0  0
   42.3040   21.9720   36.1760 H   0  0  0  0  0  0  0  0  0  0  0  0
   40.2350   22.3180   36.1920 C   0  0  0  0  0  0  0  0  0  0  0  0
   40.1220   22.6350   37.9200 Cl  0  0  0  0  0  0  0  0  0  0  0  0
   36.1430   28.3100   32.5120 C   0  0  2  0  0  0  0  0  0  0  0  0
   37.1900   28.3610   31.4800 C   0  0  0  0  0  0  0  0  0  0  0  0
   36.1090   27.2480   31.5390 C   0  0  1  0  0  0  0  0  0  0  0  0
   36.5430   28.1380   33.5350 H   0  0  0  0  0  0  0  0  0  0  0  0
   37.1050   29.0790   30.6380 H   0  0  0  0  0  0  0  0  0  0  0  0
   38.2130   28.0850   31.7230 H   0  0  0  0  0  0  0  0  0  0  0  0
   35.3940   27.2840   30.6900 H   0  0  0  0  0  0  0  0  0  0  0  0
   33.1670   30.2150   33.6110 C   0  0  0  0  0  0  0  0  0  0  0  0
   33.0170   31.1750   32.5730 C   0  0  0  0  0  0  0  0  0  0  0  0
   33.9620   31.1360   31.4930 C   0  0  0  0  0  0  0  0  0  0  0  0
   34.9530   30.1970   31.5010 N   0  0  0  0  0  0  0  0  0  0  0  0
   35.0260   29.3080   32.5410 C   0  0  0  0  0  0  0  0  0  0  0  0
   34.1520   29.2880   33.6090 N   0  0  0  0  0  0  0  0  0  0  0  0
   32.4850   30.2030   34.4400 H   0  0  0  0  0  0  0  0  0  0  0  0
   32.2260   31.8920   32.6070 H   0  0  0  0  0  0  0  0  0  0  0  0
   33.8610   31.8590   30.6970 H   0  0  0  0  0  0  0  0  0  0  0  0
  1  3  1  0  0  0  0
  1  5  1  0  0  0  0
  2  1  2  0  0  0  0
  3  4  1  0  0  0  0
  5 10  1  0  0  0  0
  6  5  2  0  0  0  0
  6  7  1  0  0  0  0
  7  8  2  0  0  0  0
  8  9  1  0  0  0  0
  8 13  1  0  0  0  0
  9 16  1  0  0  0  0
 10  9  2  0  0  0  0
 11  6  1  0  0  0  0
 12  7  1  0  0  0  0
 15 23  1  0  0  0  0
 15 14  1  0  0  0  0
 16 15  2  0  0  0  0
 17 16  1  0  0  0  0
 17 19  2  0  0  0  0
 18 17  1  0  0  0  0
 19 21  1  0  0  0  0
 20 19  1  0  0  0  0
 21 22  1  0  0  0  0
 21 23  2  0  0  0  0
 23 24  1  0  0  0  0
 25 36  1  0  0  0  0
 25 28  1  1  0  0  0
 26 27  1  0  0  0  0
 26 30  1  0  0  0  0
 26 25  1  0  0  0  0
 27 31  1  6  0  0  0
 27  3  1  0  0  0  0
 27 25  1  0  0  0  0
 29 26  1  0  0  0  0
 32 38  1  0  0  0  0
 33 39  1  0  0  0  0
 33 32  2  0  0  0  0
 34 35  2  0  0  0  0
 34 33  1  0  0  0  0
 35 36  1  0  0  0  0
 36 37  2  0  0  0  0
 37 32  1  0  0  0  0
 40 34  1  0  0  0  0
M  END
>  <minimizedAffinity>
-5.5212636

$$$$

 OpenBabel03272508553D

 40 43  0  0  1  0  0  0  0  0999 V2000
   37.0310   27.4820   32.9570 C   0  0  0  0  0  0  0  0  0  0  0  0
   37.4730   28.1290   31.9670 O   0  0  0  0  0  0  0  0  0  0  0  0
   36.2680   28.1430   33.9770 N   0  0  0  0  0  0  0  0  0  0  0  0
   36.0450   27.7150   34.8850 H   0  0  0  0  0  0  0  0  0  0  0  0
   37.2800   26.0320   33.0990 C   0  0  0  0  0  0  0  0  0  0  0  0
   36.9240   25.2010   32.0710 C   0  0  0  0  0  0  0  0  0  0  0  0
   37.1740   23.8490   32.2380 C   0  0  0  0  0  0  0  0  0  0  0  0
   37.7500   23.4240   33.3940 C   0  0  0  0  0  0  0  0  0  0  0  0
   38.1140   24.2560   34.4370 C   0  0  0  0  0  0  0  0  0  0  0  0
   37.8490   25.5500   34.2210 N   0  0  0  0  0  0  0  0  0  0  0  0
   36.4650   25.5220   31.1460 H   0  0  0  0  0  0  0  0  0  0  0  0
   36.9100   23.1300   31.4460 H   0  0  0  0  0  0  0  0  0  0  0  0
   37.9270   22.3600   33.4800 H   0  0  0  0  0  0  0  0  0  0  0  0
   40.9520   23.5720   34.1320 Cl  0  0  0  0  0  0  0  0  0  0  0  0
   40.0530   23.4430   35.6480 C   0  0  0  0  0  0  0  0  0  0  0  0
   38.7290   23.7920   35.6680 C   0  0  0  0  0  0  0  0  0  0  0  0
   38.0680   23.6820   36.8490 C   0  0  0  0  0  0  0  0  0  0  0  0
   37.0280   23.9410   36.9260 H   0  0  0  0  0  0  0  0  0  0  0  0
   38.7020   23.2330   38.0000 C   0  0  0  0  0  0  0  0  0  0  0  0
   38.1930   23.1350   38.9670 H   0  0  0  0  0  0  0  0  0  0  0  0
   40.0380   22.8960   37.9190 C   0  0  0  0  0  0  0  0  0  0  0  0
   40.5870   22.5390   38.7870 H   0  0  0  0  0  0  0  0  0  0  0  0
   40.7550   22.9900   36.7450 C   0  0  0  0  0  0  0  0  0  0  0  0
   42.4590   22.5680   36.6100 Cl  0  0  0  0  0  0  0  0  0  0  0  0
   34.5060   29.8900   34.1970 C   0  0  2  0  0  0  0  0  0  0  0  0
   35.6650   30.3610   34.9720 C   0  0  0  0  0  0  0  0  0  0  0  0
   35.7950   29.4850   33.6970 C   0  0  1  0  0  0  0  0  0  0  0  0
   33.8600   29.1820   34.7590 H   0  0  0  0  0  0  0  0  0  0  0  0
   36.0060   31.4120   34.8780 H   0  0  0  0  0  0  0  0  0  0  0  0
   35.9080   29.9020   35.9280 H   0  0  0  0  0  0  0  0  0  0  0  0
   36.2620   30.0180   32.8420 H   0  0  0  0  0  0  0  0  0  0  0  0
   32.4770   31.3020   31.4420 C   0  0  0  0  0  0  0  0  0  0  0  0
   32.1250   32.5830   31.9470 C   0  0  0  0  0  0  0  0  0  0  0  0
   32.6130   32.9400   33.2500 C   0  0  0  0  0  0  0  0  0  0  0  0
   33.3810   32.0510   33.9450 N   0  0  0  0  0  0  0  0  0  0  0  0
   33.6740   30.8360   33.3850 C   0  0  0  0  0  0  0  0  0  0  0  0
   33.2410   30.4290   32.1390 N   0  0  0  0  0  0  0  0  0  0  0  0
   32.1390   30.9890   30.4730 H   0  0  0  0  0  0  0  0  0  0  0  0
   31.5210   33.2470   31.3680 H   0  0  0  0  0  0  0  0  0  0  0  0
   32.3530   33.9100   33.6460 H   0  0  0  0  0  0  0  0  0  0  0  0
  1  5  1  0  0  0  0
  1  3  1  0  0  0  0
  2  1  2  0  0  0  0
  3  4  1  0  0  0  0
  5 10  1  0  0  0  0
  6  7  1  0  0  0  0
  6  5  2  0  0  0  0
  7  8  2  0  0  0  0
  8 13  1  0  0  0  0
  8  9  1  0  0  0  0
  9 16  1  0  0  0  0
 10  9  2  0  0  0  0
 11  6  1  0  0  0  0
 12  7  1  0  0  0  0
 14 15  1  0  0  0  0
 15 16  2  0  0  0  0
 15 23  1  0  0  0  0
 16 17  1  0  0  0  0
 17 18  1  0  0  0  0
 17 19  2  0  0  0  0
 19 20  1  0  0  0  0
 21 19  1  0  0  0  0
 21 22  1  0  0  0  0
 23 21  2  0  0  0  0
 24 23  1  0  0  0  0
 25 28  1  1  0  0  0
 25 26  1  0  0  0  0
 26 30  1  0  0  0  0
 27 31  1  6  0  0  0
 27  3  1  0  0  0  0
 27 25  1  0  0  0  0
 27 26  1  0  0  0  0
 29 26  1  0  0  0  0
 32 33  2  0  0  0  0
 32 37  1  0  0  0  0
 33 34  1  0  0  0  0
 34 40  1  0  0  0  0
 34 35  2  0  0  0  0
 36 35  1  0  0  0  0
 36 25  1  0  0  0  0
 37 36  2  0  0  0  0
 38 32  1  0  0  0  0
 39 33  1  0  0  0  0
M  END
>  <minimizedAffinity>
-5.52078629

$$$$
