
 OpenBabel03272504573D

 35 37  0  0  1  0  0  0  0  0999 V2000
   37.1420   31.7110   48.7980 C   0  0  1  0  0  0  0  0  0  0  0  0
   36.3620   30.8670   47.9250 C   0  0  0  0  0  0  0  0  0  0  0  0
   37.3450   30.2590   48.8740 C   0  0  2  0  0  0  0  0  0  0  0  0
   36.7150   32.1670   49.7580 H   0  0  0  0  0  0  0  0  0  0  0  0
   35.3320   31.1340   48.0500 H   0  0  0  0  0  0  0  0  0  0  0  0
   36.6590   30.8590   46.8550 H   0  0  0  0  0  0  0  0  0  0  0  0
   38.0200   29.6080   48.3410 H   0  0  0  0  0  0  0  0  0  0  0  0
   38.2850   32.5250   48.2590 C   0  0  0  0  0  0  0  0  0  0  0  0
   38.7690   33.5390   49.1100 C   0  0  0  0  0  0  0  0  0  0  0  0
   39.8150   34.2700   48.6010 C   0  0  0  0  0  0  0  0  0  0  0  0
   40.3070   33.9990   47.3720 N   0  0  0  0  0  0  0  0  0  0  0  0
   39.8120   33.0090   46.5780 C   0  0  0  0  0  0  0  0  0  0  0  0
   38.7670   32.2540   47.0460 N   0  0  0  0  0  0  0  0  0  0  0  0
   40.3200   32.6910   45.3120 N   0  0  0  0  0  0  0  0  0  0  0  0
   38.3900   33.7620   50.0810 H   0  0  0  0  0  0  0  0  0  0  0  0
   40.2810   35.0720   49.1380 H   0  0  0  0  0  0  0  0  0  0  0  0
   41.0500   31.9470   45.2210 H   0  0  0  0  0  0  0  0  0  0  0  0
   40.0120   33.1590   44.4260 H   0  0  0  0  0  0  0  0  0  0  0  0
   36.7840   29.6430   49.9980 O   0  0  0  0  0  0  0  0  0  0  0  0
   34.6390   28.5300   50.8950 O   0  0  0  0  0  0  0  0  0  0  0  0
   35.1760   29.2920   49.7260 P   0  0  1  0  0  0  0  0  0  0  0  0
   34.2690   30.7790   49.8020 O   0  0  0  0  0  0  0  0  0  0  0  0
   33.4360   30.6100   49.2990 H   0  0  0  0  0  0  0  0  0  0  0  0
   34.9810   28.5980   48.2500 O   0  0  0  0  0  0  0  0  0  0  0  0
   33.2310   30.3620   46.5230 Cl  0  0  0  0  0  0  0  0  0  0  0  0
   33.0630   28.6570   46.7320 C   0  0  0  0  0  0  0  0  0  0  0  0
   33.9730   28.0470   47.5700 C   0  0  0  0  0  0  0  0  0  0  0  0
   33.8380   26.6590   47.7420 C   0  0  0  0  0  0  0  0  0  0  0  0
   34.4880   26.0630   48.3720 H   0  0  0  0  0  0  0  0  0  0  0  0
   32.8110   25.9870   47.0700 C   0  0  0  0  0  0  0  0  0  0  0  0
   32.6960   24.9140   47.1960 H   0  0  0  0  0  0  0  0  0  0  0  0
   31.9330   26.6360   46.2510 C   0  0  0  0  0  0  0  0  0  0  0  0
   31.1590   26.1030   45.7490 H   0  0  0  0  0  0  0  0  0  0  0  0
   32.0520   27.9860   46.0730 C   0  0  0  0  0  0  0  0  0  0  0  0
   30.9800   28.8810   45.0520 Cl  0  0  0  0  0  0  0  0  0  0  0  0
  1  3  1  0  0  0  0
  1  4  1  1  0  0  0
  2  5  1  0  0  0  0
  2  1  1  0  0  0  0
  2  3  1  0  0  0  0
  3  7  1  6  0  0  0
  3 19  1  0  0  0  0
  6  2  1  0  0  0  0
  8  1  1  0  0  0  0
  8  9  1  0  0  0  0
  9 15  1  0  0  0  0
 10  9  2  0  0  0  0
 10 16  1  0  0  0  0
 11 10  1  0  0  0  0
 12 13  1  0  0  0  0
 12 11  2  0  0  0  0
 13  8  2  0  0  0  0
 14 12  1  0  0  0  0
 17 14  1  0  0  0  0
 18 14  1  0  0  0  0
 21 22  1  0  0  0  0
 21 19  1  0  0  0  0
 21 20  2  1  0  0  0
 23 22  1  0  0  0  0
 24 21  1  0  0  0  0
 25 26  1  0  0  0  0
 26 27  1  0  0  0  0
 27 28  2  0  0  0  0
 27 24  1  0  0  0  0
 28 29  1  0  0  0  0
 30 31  1  0  0  0  0
 30 28  1  0  0  0  0
 32 30  2  0  0  0  0
 33 32  1  0  0  0  0
 34 32  1  0  0  0  0
 34 26  2  0  0  0  0
 35 34  1  0  0  0  0
M  END
>  <minimizedAffinity>
-5.05251408

>  <minimizedRMSD>
2.15453315

$$$$
