
 OpenBabel03272503413D

 43 46  0  0  1  0  0  0  0  0999 V2000
   39.8050   31.2220   41.6810 C   0  0  2  0  0  0  0  0  0  0  0  0
   39.5800   32.3640   42.6910 C   0  0  1  0  0  0  0  0  0  0  0  0
   38.3740   32.9990   42.0490 C   0  0  0  0  0  0  0  0  0  0  0  0
   38.5320   32.8970   40.6880 O   0  0  0  0  0  0  0  0  0  0  0  0
   39.5460   32.0350   40.4060 C   0  0  0  0  0  0  0  0  0  0  0  0
   40.8210   30.8390   41.7210 H   0  0  0  0  0  0  0  0  0  0  0  0
   40.4050   33.0730   42.7090 H   0  0  0  0  0  0  0  0  0  0  0  0
   37.4770   32.4500   42.3950 H   0  0  0  0  0  0  0  0  0  0  0  0
   38.2650   34.0720   42.2960 H   0  0  0  0  0  0  0  0  0  0  0  0
   39.4390   31.4110   39.5210 H   0  0  0  0  0  0  0  0  0  0  0  0
   40.4700   32.6590   40.2570 H   0  0  0  0  0  0  0  0  0  0  0  0
   38.3520   31.1500   45.8400 C   0  0  0  0  0  0  0  0  0  0  0  0
   39.6950   30.9650   46.0260 C   0  0  0  0  0  0  0  0  0  0  0  0
   40.2670   31.4150   44.8360 C   0  0  0  0  0  0  0  0  0  0  0  0
   39.3130   31.8390   44.0010 N   0  0  0  0  0  0  0  0  0  0  0  0
   38.1370   31.6770   44.6140 N   0  0  0  0  0  0  0  0  0  0  0  0
   40.2160   30.5580   46.9020 H   0  0  0  0  0  0  0  0  0  0  0  0
   41.3580   31.3790   44.7160 H   0  0  0  0  0  0  0  0  0  0  0  0
   36.4790   30.6120   49.0450 C   0  0  0  0  0  0  0  0  0  0  0  0
   37.5090   30.9300   48.1700 C   0  0  0  0  0  0  0  0  0  0  0  0
   37.3070   30.8300   46.8070 C   0  0  0  0  0  0  0  0  0  0  0  0
   36.0970   30.4220   46.3740 N   0  0  0  0  0  0  0  0  0  0  0  0
   35.1030   30.1170   47.2510 C   0  0  0  0  0  0  0  0  0  0  0  0
   35.2880   30.2100   48.5610 N   0  0  0  0  0  0  0  0  0  0  0  0
   38.5040   31.2630   48.4420 H   0  0  0  0  0  0  0  0  0  0  0  0
   34.1430   29.7920   46.8770 H   0  0  0  0  0  0  0  0  0  0  0  0
   36.8360   30.7620   50.3850 O   0  0  0  0  0  0  0  0  0  0  0  0
   36.8830   29.6960   51.2960 C   0  0  0  0  0  0  0  0  0  0  0  0
   35.6270   29.2380   51.6440 F   0  0  0  0  0  0  0  0  0  0  0  0
   37.5990   30.0820   52.4030 F   0  0  0  0  0  0  0  0  0  0  0  0
   37.5910   28.6530   50.7020 F   0  0  0  0  0  0  0  0  0  0  0  0
   38.7690   30.3320   41.8740 O   0  0  0  0  0  0  0  0  0  0  0  0
   38.4680   28.9410   39.2490 Cl  0  0  0  0  0  0  0  0  0  0  0  0
   38.7650   28.2380   40.8330 C   0  0  0  0  0  0  0  0  0  0  0  0
   38.8910   28.9780   42.0080 C   0  0  0  0  0  0  0  0  0  0  0  0
   39.1240   28.2850   43.1760 C   0  0  0  0  0  0  0  0  0  0  0  0
   39.2200   28.8640   44.0800 H   0  0  0  0  0  0  0  0  0  0  0  0
   39.2370   26.9020   43.2300 C   0  0  0  0  0  0  0  0  0  0  0  0
   39.4190   26.4180   44.1720 H   0  0  0  0  0  0  0  0  0  0  0  0
   39.1070   26.1870   42.0420 C   0  0  0  0  0  0  0  0  0  0  0  0
   39.1980   25.1040   42.1080 H   0  0  0  0  0  0  0  0  0  0  0  0
   38.8710   26.8620   40.8500 C   0  0  0  0  0  0  0  0  0  0  0  0
   38.7320   25.8310   39.4480 Cl  0  0  0  0  0  0  0  0  0  0  0  0
  1  6  1  1  0  0  0
  1 32  1  0  0  0  0
  1  2  1  0  0  0  0
  2  7  1  1  0  0  0
  2 15  1  0  0  0  0
  3  9  1  0  0  0  0
  3  8  1  0  0  0  0
  3  2  1  0  0  0  0
  4  3  1  0  0  0  0
  5  4  1  0  0  0  0
  5  1  1  0  0  0  0
 10  5  1  0  0  0  0
 11  5  1  0  0  0  0
 12 13  1  0  0  0  0
 12 21  1  0  0  0  0
 13 17  1  0  0  0  0
 14 13  2  0  0  0  0
 15 16  1  0  0  0  0
 15 14  1  0  0  0  0
 16 12  2  0  0  0  0
 18 14  1  0  0  0  0
 19 27  1  0  0  0  0
 20 25  1  0  0  0  0
 20 19  2  0  0  0  0
 21 20  1  0  0  0  0
 22 21  2  0  0  0  0
 22 23  1  0  0  0  0
 23 24  2  0  0  0  0
 24 19  1  0  0  0  0
 26 23  1  0  0  0  0
 27 28  1  0  0  0  0
 28 29  1  0  0  0  0
 28 30  1  0  0  0  0
 31 28  1  0  0  0  0
 32 35  1  0  0  0  0
 33 34  1  0  0  0  0
 34 42  2  0  0  0  0
 34 35  1  0  0  0  0
 35 36  2  0  0  0  0
 36 38  1  0  0  0  0
 36 37  1  0  0  0  0
 38 39  1  0  0  0  0
 40 41  1  0  0  0  0
 40 38  2  0  0  0  0
 42 40  1  0  0  0  0
 43 42  1  0  0  0  0
M  END
>  <minimizedAffinity>
-6.28957081

>  <minimizedRMSD>
1.06838024

$$$$
