
     RDKit          3D

 33 35  0  0  0  0  0  0  0  0999 V2000
   37.9296   31.2427   47.9844 C   0  0  0  0  0  0  0  0  0  0  0  0
   37.4338   31.0139   46.7282 C   0  0  0  0  0  0  0  0  0  0  0  0
   38.1780   31.7354   45.8103 C   0  0  0  0  0  0  0  0  0  0  0  0
   39.1193   32.3891   46.5689 N   0  0  0  0  0  0  0  0  0  0  0  0
   38.9681   32.0925   47.8659 N   0  0  0  0  0  0  0  0  0  0  0  0
   37.3136   30.0967   51.5136 C   0  0  0  0  0  0  0  0  0  0  0  0
   37.9383   30.7212   50.4449 C   0  0  0  0  0  0  0  0  0  0  0  0
   37.3624   30.6282   49.1737 C   0  0  0  0  0  0  0  0  0  0  0  0
   36.2041   29.9172   49.0634 N   0  0  0  0  0  0  0  0  0  0  0  0
   35.6266   29.3218   50.1362 C   0  0  0  0  0  0  0  0  0  0  0  0
   36.1778   29.4124   51.3480 N   0  0  0  0  0  0  0  0  0  0  0  0
   40.1406   33.2877   46.0093 C   0  0  0  0  0  0  0  0  0  0  0  0
   39.7919   33.5413   44.5483 C   0  0  0  0  0  0  0  0  0  0  0  0
   36.5941   30.3825   46.4126 H   0  0  0  0  0  0  0  0  0  0  0  0
   38.0702   31.7934   44.7350 H   0  0  0  0  0  0  0  0  0  0  0  0
   37.8898   30.2670   52.4275 H   0  0  0  0  0  0  0  0  0  0  0  0
   38.8498   31.2967   50.4598 H   0  0  0  0  0  0  0  0  0  0  0  0
   34.7032   28.7605   50.0190 H   0  0  0  0  0  0  0  0  0  0  0  0
   40.2573   34.2109   46.5857 H   0  0  0  0  0  0  0  0  0  0  0  0
   41.0870   32.7159   46.1023 H   0  0  0  0  0  0  0  0  0  0  0  0
   39.9327   32.5471   44.0383 H   0  0  0  0  0  0  0  0  0  0  0  0
   38.7492   33.8087   44.4051 H   0  0  0  0  0  0  0  0  0  0  0  0
   42.5102   33.2973   45.6580 Cl  0  0  0  0  0  0  0  0  0  0  0  0
   42.1015   34.4099   44.3542 C   0  0  0  0  0  0  0  0  0  0  0  0
   40.7747   34.4412   43.9050 C   0  0  0  0  0  0  0  0  0  0  0  0
   40.5288   35.3275   42.8909 C   0  0  0  0  0  0  0  0  0  0  0  0
   39.5006   35.3663   42.5256 H   0  0  0  0  0  0  0  0  0  0  0  0
   41.4849   36.1422   42.3295 C   0  0  0  0  0  0  0  0  0  0  0  0
   41.2136   36.8184   41.5318 H   0  0  0  0  0  0  0  0  0  0  0  0
   42.7702   36.0593   42.8200 C   0  0  0  0  0  0  0  0  0  0  0  0
   43.5662   36.6783   42.4175 H   0  0  0  0  0  0  0  0  0  0  0  0
   43.1162   35.1902   43.8475 C   0  0  0  0  0  0  0  0  0  0  0  0
   44.7348   35.0663   44.4862 Cl  0  0  0  0  0  0  0  0  0  0  0  0
  1  8  1  0
  2  1  1  0
  3  4  1  0
  3  2  2  0
  4  5  1  0
  5  1  2  0
  7  6  2  0
  8  7  1  0
  9  8  2  0
  9 10  1  0
 10 11  2  0
 11  6  1  0
 12  4  1  0
 13 12  1  0
  2 14  1  0
  3 15  1  0
  6 16  1  0
  7 17  1  0
 10 18  1  0
 12 19  1  0
 12 20  1  0
 13 21  1  0
 13 22  1  0
 23 24  1  0
 24 25  2  0
 25 26  1  0
 26 27  1  0
 26 28  2  0
 28 29  1  0
 28 30  1  0
 30 31  1  0
 30 32  2  0
 32 33  1  0
 32 24  1  0
 13 25  1  0
M  ISO  8  14  14  15  14  16  14  17  14  18  14  19   8  20   8  21   8
M  ISO  4  22   8  27  15  29  15  31  15
M  END
>  <DihAtoms>  (1) 
11,12,24,23

>  <DihDeg>  (1) 
75.89452834897739

$$$$
