REMARK  Name = 
REMARK  4 active torsions:
REMARK  status: ('A' for Active; 'I' for Inactive)
REMARK    1  A    between atoms: C_1  and  C_15
REMARK    2  A    between atoms: C_4  and  C_7
REMARK    3  A    between atoms: C_15  and  C_17
REMARK    4  A    between atoms: C_21  and  C_34
REMARK                            x       y       z     vdW  Elec       q    Type
REMARK                         _______ _______ _______ _____ _____    ______ ____
ROOT
ATOM      1  C   UNL     1      35.849  29.131  49.808  0.00  0.00    +0.000 A 
ATOM      2  C   UNL     1      34.821  29.623  50.545  0.00  0.00    +0.000 A 
ATOM      3  C   UNL     1      33.654  29.040  50.050  0.00  0.00    +0.000 A 
ATOM      4  C   UNL     1      34.068  28.201  49.007  0.00  0.00    +0.000 A 
ATOM      5  O   UNL     1      35.359  28.308  48.925  0.00  0.00    +0.000 OA
ATOM      6  H   UNL     1      34.859  30.334  51.369  0.00  0.00    +0.000 HD
ATOM      7  H   UNL     1      32.686  29.256  50.456  0.00  0.00    +0.000 HD
ENDROOT
BRANCH   4   9
ATOM      8  C   UNL     1      33.532  26.429  47.343  0.00  0.00    +0.000 A 
ATOM      9  C   UNL     1      33.124  27.398  48.221  0.00  0.00    +0.000 A 
ATOM     10  C   UNL     1      31.779  27.682  48.429  0.00  0.00    +0.000 A 
ATOM     11  C   UNL     1      30.857  26.937  47.707  0.00  0.00    +0.000 A 
ATOM     12  N   UNL     1      29.520  26.995  47.713  0.00  0.00    +0.000 N 
ATOM     13  N   UNL     1      29.088  26.073  46.851  0.00  0.00    +0.000 NA
ATOM     14  C   UNL     1      30.134  25.446  46.312  0.00  0.00    +0.000 A 
ATOM     15  C   UNL     1      31.311  25.971  46.834  0.00  0.00    +0.000 A 
ATOM     16  C   UNL     1      32.654  25.692  46.629  0.00  0.00    +0.000 A 
ATOM     17  H   UNL     1      34.617  26.288  47.254  0.00  0.00    +0.000 HD
ATOM     18  H   UNL     1      31.388  28.439  49.111  0.00  0.00    +0.000 HD
ATOM     19  H   UNL     1      28.876  27.614  48.259  0.00  0.00    +0.000 HD
ATOM     20  H   UNL     1      30.146  24.635  45.567  0.00  0.00    +0.000 HD
ATOM     21  H   UNL     1      32.965  24.924  45.932  0.00  0.00    +0.000 HD
ENDBRANCH   4   9
BRANCH   1  22
ATOM     22  C   UNL     1      37.229  29.528  50.052  0.00  0.00    +0.000 C 
ATOM     23  O   UNL     1      37.874  28.956  50.971  0.00  0.00    +0.000 OA
BRANCH  22  24
ATOM     24  C   UNL     1      37.781  30.567  49.214  0.00  0.00    +0.000 A 
ATOM     25  C   UNL     1      38.126  31.758  49.828  0.00  0.00    +0.000 A 
ATOM     26  C   UNL     1      38.661  32.784  49.057  0.00  0.00    +0.000 A 
ATOM     27  N   UNL     1      38.814  32.544  47.724  0.00  0.00    +0.000 NA
ATOM     28  C   UNL     1      38.474  31.384  47.150  0.00  0.00    +0.000 A 
ATOM     29  N   UNL     1      37.961  30.409  47.904  0.00  0.00    +0.000 NA
ATOM     30  H   UNL     1      38.028  31.999  50.864  0.00  0.00    +0.000 HD
ATOM     31  H   UNL     1      38.951  33.745  49.491  0.00  0.00    +0.000 HD
BRANCH  28  34
ATOM     32 CL   UNL     1      36.984  33.285  45.480  0.00  0.00    +0.000 Cl
ATOM     33  C   UNL     1      38.014  32.014  44.818  0.00  0.00    +0.000 A 
ATOM     34  C   UNL     1      38.661  31.185  45.715  0.00  0.00    +0.000 A 
ATOM     35  C   UNL     1      39.476  30.177  45.248  0.00  0.00    +0.000 A 
ATOM     36  H   UNL     1      40.002  29.505  45.913  0.00  0.00    +0.000 HD
ATOM     37  C   UNL     1      39.646  29.999  43.870  0.00  0.00    +0.000 A 
ATOM     38  H   UNL     1      40.278  29.220  43.428  0.00  0.00    +0.000 HD
ATOM     39  C   UNL     1      38.978  30.853  43.020  0.00  0.00    +0.000 A 
ATOM     40  H   UNL     1      39.102  30.724  41.955  0.00  0.00    +0.000 HD
ATOM     41  C   UNL     1      38.164  31.860  43.467  0.00  0.00    +0.000 A 
ATOM     42 CL   UNL     1      37.301  32.963  42.397  0.00  0.00    +0.000 Cl
ENDBRANCH  28  34
ENDBRANCH  22  24
ENDBRANCH   1  22
TORSDOF 4
