REMARK  Name = 
REMARK  3 active torsions:
REMARK  status: ('A' for Active; 'I' for Inactive)
REMARK    1  A    between atoms: C_2  and  C_10
REMARK    2  A    between atoms: C_3  and  C_16
REMARK    3  A    between atoms: C_16  and  C_27
REMARK                            x       y       z     vdW  Elec       q    Type
REMARK                         _______ _______ _______ _____ _____    ______ ____
ROOT
ATOM      1  C   UNL     1      37.815  30.491  50.173  0.00  0.00    +0.000 A 
ATOM      2  C   UNL     1      37.323  30.688  48.894  0.00  0.00    +0.000 A 
ATOM      3  C   UNL     1      36.000  30.285  48.580  0.00  0.00    +0.000 A 
ATOM      4  N   UNL     1      35.268  29.715  49.563  0.00  0.00    +0.000 NA
ATOM      5  C   UNL     1      35.802  29.537  50.827  0.00  0.00    +0.000 A 
ATOM      6  N   UNL     1      37.074  29.929  51.122  0.00  0.00    +0.000 NA
ATOM      7  N   UNL     1      34.965  28.926  51.817  0.00  0.00    +0.000 N 
ATOM      8  H   UNL     1      38.828  30.803  50.404  0.00  0.00    +0.000 HD
ATOM      9  H   UNL     1      34.304  29.580  52.294  0.00  0.00    +0.000 HD
ATOM     10  H   UNL     1      34.955  27.924  52.095  0.00  0.00    +0.000 HD
ENDROOT
BRANCH   2  13
ATOM     11 CL   UNL     1      38.223  33.577  49.203  0.00  0.00    +0.000 Cl
ATOM     12  C   UNL     1      38.711  32.589  47.860  0.00  0.00    +0.000 A 
ATOM     13  C   UNL     1      38.215  31.324  47.903  0.00  0.00    +0.000 A 
ATOM     14  C   UNL     1      38.570  30.450  46.858  0.00  0.00    +0.000 A 
ATOM     15  C   UNL     1      39.371  30.831  45.838  0.00  0.00    +0.000 A 
ATOM     16  C   UNL     1      39.865  32.131  45.819  0.00  0.00    +0.000 A 
ATOM     17 CL   UNL     1      40.902  32.672  44.530  0.00  0.00    +0.000 Cl
ATOM     18  C   UNL     1      39.530  32.989  46.825  0.00  0.00    +0.000 A 
ATOM     19  H   UNL     1      38.259  29.417  46.778  0.00  0.00    +0.000 HD
ATOM     20  H   UNL     1      39.678  30.205  45.008  0.00  0.00    +0.000 HD
ATOM     21  H   UNL     1      39.891  34.017  46.854  0.00  0.00    +0.000 HD
ENDBRANCH   2  13
BRANCH   3  22
ATOM     22  C   UNL     1      35.504  30.507  47.235  0.00  0.00    +0.000 C 
ATOM     23  H   UNL     1      35.747  31.576  46.963  0.00  0.00    +0.000 HD
ATOM     24  H   UNL     1      36.012  29.886  46.498  0.00  0.00    +0.000 HD
BRANCH  22  27
ATOM     25 CL   UNL     1      34.249  30.910  44.467  0.00  0.00    +0.000 Cl
ATOM     26  C   UNL     1      33.306  30.586  45.933  0.00  0.00    +0.000 A 
ATOM     27  C   UNL     1      34.021  30.433  47.098  0.00  0.00    +0.000 A 
ATOM     28  C   UNL     1      33.242  30.179  48.232  0.00  0.00    +0.000 A 
ATOM     29  H   UNL     1      33.779  30.051  49.172  0.00  0.00    +0.000 HD
ATOM     30  C   UNL     1      31.856  30.072  48.281  0.00  0.00    +0.000 A 
ATOM     31  H   UNL     1      31.359  29.873  49.204  0.00  0.00    +0.000 HD
ATOM     32  C   UNL     1      31.244  30.246  47.039  0.00  0.00    +0.000 A 
ATOM     33  H   UNL     1      30.163  30.166  47.058  0.00  0.00    +0.000 HD
ATOM     34  C   UNL     1      31.931  30.499  45.872  0.00  0.00    +0.000 A 
ATOM     35 CL   UNL     1      31.096  30.711  44.350  0.00  0.00    +0.000 Cl
ENDBRANCH  22  27
ENDBRANCH   3  22
TORSDOF 3
