
 OpenBabel03272507133D

 42 46  0  0  0  0  0  0  0  0999 V2000
   35.7760   29.1370   49.8780 C   0  0  0  0  0  0  0  0  0  0  0  0
   34.7310   29.6210   50.5970 C   0  0  0  0  0  0  0  0  0  0  0  0
   33.5770   29.0300   50.0810 C   0  0  0  0  0  0  0  0  0  0  0  0
   34.0160   28.1940   49.0450 C   0  0  0  0  0  0  0  0  0  0  0  0
   35.3080   28.3110   48.9860 O   0  0  0  0  0  0  0  0  0  0  0  0
   34.7490   30.3310   51.4220 H   0  0  0  0  0  0  0  0  0  0  0  0
   32.6010   29.2380   50.4690 H   0  0  0  0  0  0  0  0  0  0  0  0
   33.5230   26.4200   47.3710 C   0  0  0  0  0  0  0  0  0  0  0  0
   33.0920   27.3850   48.2420 C   0  0  0  0  0  0  0  0  0  0  0  0
   31.7420   27.6590   48.4250 C   0  0  0  0  0  0  0  0  0  0  0  0
   30.8380   26.9080   47.6870 C   0  0  0  0  0  0  0  0  0  0  0  0
   29.5010   26.9570   47.6680 N   0  0  0  0  0  0  0  0  0  0  0  0
   29.0910   26.0320   46.7980 N   0  0  0  0  0  0  0  0  0  0  0  0
   30.1510   25.4130   46.2780 C   0  0  0  0  0  0  0  0  0  0  0  0
   31.3150   25.9460   46.8210 C   0  0  0  0  0  0  0  0  0  0  0  0
   32.6630   25.6770   46.6400 C   0  0  0  0  0  0  0  0  0  0  0  0
   34.6100   26.2870   47.3010 H   0  0  0  0  0  0  0  0  0  0  0  0
   31.3330   28.4130   49.1010 H   0  0  0  0  0  0  0  0  0  0  0  0
   28.8430   27.5710   48.2030 H   0  0  0  0  0  0  0  0  0  0  0  0
   30.1820   24.6030   45.5330 H   0  0  0  0  0  0  0  0  0  0  0  0
   32.9920   24.9120   45.9490 H   0  0  0  0  0  0  0  0  0  0  0  0
   37.1480   29.5440   50.1470 C   0  0  0  0  0  0  0  0  0  0  0  0
   37.7910   28.9540   51.0560 O   0  0  0  0  0  0  0  0  0  0  0  0
   37.6950   30.6120   49.3440 C   0  0  0  0  0  0  0  0  0  0  0  0
   37.7770   31.8640   49.9280 C   0  0  0  0  0  0  0  0  0  0  0  0
   38.2980   32.9200   49.1890 C   0  0  0  0  0  0  0  0  0  0  0  0
   38.7020   32.6480   47.9160 N   0  0  0  0  0  0  0  0  0  0  0  0
   38.6150   31.4290   47.3700 C   0  0  0  0  0  0  0  0  0  0  0  0
   38.1110   30.4260   48.0930 N   0  0  0  0  0  0  0  0  0  0  0  0
   37.4760   32.1330   50.9170 H   0  0  0  0  0  0  0  0  0  0  0  0
   38.3850   33.9290   49.6010 H   0  0  0  0  0  0  0  0  0  0  0  0
   36.4810   30.5680   45.5460 Cl  0  0  0  0  0  0  0  0  0  0  0  0
   38.1570   30.7880   45.0410 C   0  0  0  0  0  0  0  0  0  0  0  0
   39.0640   31.1970   46.0000 C   0  0  0  0  0  0  0  0  0  0  0  0
   40.3850   31.3840   45.6540 C   0  0  0  0  0  0  0  0  0  0  0  0
   41.1290   31.7030   46.3720 H   0  0  0  0  0  0  0  0  0  0  0  0
   40.8010   31.1580   44.3380 C   0  0  0  0  0  0  0  0  0  0  0  0
   41.8340   31.2860   43.9920 H   0  0  0  0  0  0  0  0  0  0  0  0
   39.8560   30.7510   43.4210 C   0  0  0  0  0  0  0  0  0  0  0  0
   40.1660   30.5740   42.4020 H   0  0  0  0  0  0  0  0  0  0  0  0
   38.5390   30.5610   43.7470 C   0  0  0  0  0  0  0  0  0  0  0  0
   37.3140   30.0410   42.5910 Cl  0  0  0  0  0  0  0  0  0  0  0  0
  1 22  1  0  0  0  0
  1  2  2  0  0  0  0
  2  6  1  0  0  0  0
  3  7  1  0  0  0  0
  3  2  1  0  0  0  0
  4  3  2  0  0  0  0
  5  4  1  0  0  0  0
  5  1  1  0  0  0  0
  8  9  1  0  0  0  0
  9 10  2  0  0  0  0
  9  4  1  0  0  0  0
 10 18  1  0  0  0  0
 11 10  1  0  0  0  0
 12 11  1  0  0  0  0
 12 19  1  0  0  0  0
 13 12  1  0  0  0  0
 14 13  2  0  0  0  0
 14 15  1  0  0  0  0
 15 11  2  0  0  0  0
 16 15  1  0  0  0  0
 16  8  2  0  0  0  0
 17  8  1  0  0  0  0
 20 14  1  0  0  0  0
 21 16  1  0  0  0  0
 22 23  2  0  0  0  0
 24 25  1  0  0  0  0
 24 22  1  0  0  0  0
 25 30  1  0  0  0  0
 26 31  1  0  0  0  0
 26 25  2  0  0  0  0
 27 26  1  0  0  0  0
 28 27  2  0  0  0  0
 28 29  1  0  0  0  0
 29 24  2  0  0  0  0
 33 32  1  0  0  0  0
 33 34  1  0  0  0  0
 34 28  1  0  0  0  0
 35 34  2  0  0  0  0
 35 36  1  0  0  0  0
 37 35  1  0  0  0  0
 38 37  1  0  0  0  0
 39 41  1  0  0  0  0
 39 37  2  0  0  0  0
 40 39  1  0  0  0  0
 41 33  2  0  0  0  0
 42 41  1  0  0  0  0
M  END
>  <minimizedAffinity>
-7.42312288

>  <minimizedRMSD>
0.43472448

$$$$
