
     RDKit          3D

 37 40  0  0  0  0  0  0  0  0999 V2000
   38.9301   30.8963   45.7812 C   0  0  0  0  0  0  0  0  0  0  0  0
   40.1277   31.5106   46.0278 C   0  0  0  0  0  0  0  0  0  0  0  0
   40.9606   31.4466   44.9159 C   0  0  0  0  0  0  0  0  0  0  0  0
   40.1941   30.7689   44.0146 N   0  0  0  0  0  0  0  0  0  0  0  0
   39.0204   30.4469   44.5050 N   0  0  0  0  0  0  0  0  0  0  0  0
   37.7852   30.7421   46.6711 C   0  0  0  0  0  0  0  0  0  0  0  0
   38.0012   30.9841   48.0533 C   0  0  0  0  0  0  0  0  0  0  0  0
   36.9136   30.8370   48.9098 C   0  0  0  0  0  0  0  0  0  0  0  0
   35.7162   30.4725   48.3763 N   0  0  0  0  0  0  0  0  0  0  0  0
   35.5476   30.2512   47.0613 C   0  0  0  0  0  0  0  0  0  0  0  0
   36.5861   30.3883   46.2178 N   0  0  0  0  0  0  0  0  0  0  0  0
   37.1248   31.0885   50.3697 C   0  0  0  0  0  0  0  0  0  0  0  0
   36.5998   32.3209   50.6182 F   0  0  0  0  0  0  0  0  0  0  0  0
   36.4632   30.1365   51.1576 F   0  0  0  0  0  0  0  0  0  0  0  0
   38.4693   31.0720   50.7044 F   0  0  0  0  0  0  0  0  0  0  0  0
   40.5456   30.4098   42.6457 C   0  0  0  0  0  0  0  0  0  0  0  0
   40.1847   31.2181   41.5565 C   0  0  0  0  0  0  0  0  0  0  0  0
   40.5552   30.8438   40.2996 C   0  0  0  0  0  0  0  0  0  0  0  0
   41.2917   29.6543   40.1049 C   0  0  0  0  0  0  0  0  0  0  0  0
   41.4441   29.0645   41.8434 S   0  0  0  0  0  0  0  0  0  0  0  0
   40.4136   31.9901   46.9561 H   0  0  0  0  0  0  0  0  0  0  0  0
   41.9446   31.8108   44.7515 H   0  0  0  0  0  0  0  0  0  0  0  0
   38.9769   31.2748   48.4418 H   0  0  0  0  0  0  0  0  0  0  0  0
   34.5600   29.9581   46.6766 H   0  0  0  0  0  0  0  0  0  0  0  0
   39.6079   32.1439   41.7234 H   0  0  0  0  0  0  0  0  0  0  0  0
   40.2951   31.4424   39.4452 H   0  0  0  0  0  0  0  0  0  0  0  0
   44.3205   29.7395   39.6887 Cl  0  0  0  0  0  0  0  0  0  0  0  0
   43.1771   28.8519   38.7080 C   0  0  0  0  0  0  0  0  0  0  0  0
   41.8467   28.9334   39.0490 C   0  0  0  0  0  0  0  0  0  0  0  0
   41.0380   28.1978   38.2120 C   0  0  0  0  0  0  0  0  0  0  0  0
   39.9603   28.1474   38.3334 H   0  0  0  0  0  0  0  0  0  0  0  0
   41.4954   27.4577   37.1475 C   0  0  0  0  0  0  0  0  0  0  0  0
   40.8381   26.8895   36.5069 H   0  0  0  0  0  0  0  0  0  0  0  0
   42.8447   27.4376   36.8850 C   0  0  0  0  0  0  0  0  0  0  0  0
   43.2094   26.8675   36.0630 H   0  0  0  0  0  0  0  0  0  0  0  0
   43.7306   28.1421   37.6672 C   0  0  0  0  0  0  0  0  0  0  0  0
   45.4391   28.1303   37.3528 Cl  0  0  0  0  0  0  0  0  0  0  0  0
  1  2  1  0
  1  6  1  0
  3  2  2  0
  4  5  1  0
  4  3  1  0
  5  1  2  0
  6  7  2  0
  7  8  1  0
  8 12  1  0
  9  8  2  0
 10  9  1  0
 11  6  1  0
 11 10  2  0
 12 13  1  0
 12 15  1  0
 12 14  1  0
 16  4  1  0
 17 16  2  0
 18 17  1  0
 19 18  2  0
 19 20  1  0
 20 16  1  0
  2 21  1  0
  3 22  1  0
  7 23  1  0
 10 24  1  0
 17 25  1  0
 18 26  1  0
 27 28  1  0
 28 29  2  0
 29 30  1  0
 30 31  1  0
 30 32  2  0
 32 33  1  0
 32 34  1  0
 34 35  1  0
 34 36  2  0
 36 37  1  0
 36 28  1  0
 19 29  1  0
M  ISO  8  21  14  22  14  23  14  24  14  25  14  26  14  31  15  33  15
M  ISO  1  35  15
M  END
>  <DihAtoms>  (1) 
17,18,28,27

>  <DihDeg>  (1) 
0.0024458241042570154

$$$$
