
     RDKit          3D

 47 52  0  0  0  0  0  0  0  0999 V2000
   32.1374   28.3700   47.0812 C   0  0  1  0  0  0  0  0  0  0  0  0
   32.9381   27.1851   46.4240 C   0  0  0  0  0  0  0  0  0  0  0  0
   33.0034   28.5960   45.9257 C   0  0  2  0  0  0  0  0  0  0  0  0
   28.5682   28.6686   47.4075 C   0  0  0  0  0  0  0  0  0  0  0  0
   28.6523   28.0326   46.1907 C   0  0  0  0  0  0  0  0  0  0  0  0
   30.0200   27.8293   45.8951 C   0  0  0  0  0  0  0  0  0  0  0  0
   30.6988   28.3460   46.9357 N   0  0  0  0  0  0  0  0  0  0  0  0
   29.8241   28.8207   47.7875 N   0  0  0  0  0  0  0  0  0  0  0  0
   26.4077   28.0517   48.5315 C   0  0  0  0  0  0  0  0  0  0  0  0
   27.3240   29.0384   48.0319 C   0  0  0  0  0  0  0  0  0  0  0  0
   26.9681   30.3534   48.1729 C   0  0  0  0  0  0  0  0  0  0  0  0
   25.7844   30.6687   48.7685 N   0  0  0  0  0  0  0  0  0  0  0  0
   24.9456   29.7034   49.2278 C   0  0  0  0  0  0  0  0  0  0  0  0
   25.2489   28.3911   49.1136 N   0  0  0  0  0  0  0  0  0  0  0  0
   34.2788   29.3673   46.0982 C   0  0  0  0  0  0  0  0  0  0  0  0
   35.0191   29.9265   45.0629 C   0  0  0  0  0  0  0  0  0  0  0  0
   36.0900   30.5552   45.6209 N   0  0  0  0  0  0  0  0  0  0  0  0
   36.0296   30.3980   46.9814 C   0  0  0  0  0  0  0  0  0  0  0  0
   34.9324   29.6798   47.2493 N   0  0  0  0  0  0  0  0  0  0  0  0
   37.0064   30.9387   47.9611 C   0  0  0  0  0  0  0  0  0  0  0  0
   37.0514   30.4326   49.2773 C   0  0  0  0  0  0  0  0  0  0  0  0
   38.3930   31.4181   50.0455 S   0  0  0  0  0  0  0  0  0  0  0  0
   38.6603   32.3529   48.4304 C   0  0  0  0  0  0  0  0  0  0  0  0
   37.8858   31.8850   47.7453 N   0  0  0  0  0  0  0  0  0  0  0  0
   32.5183   28.6272   48.0902 H   0  0  0  0  0  0  0  0  0  0  0  0
   32.3285   26.4931   45.8265 H   0  0  0  0  0  0  0  0  0  0  0  0
   33.8333   26.8426   46.9591 H   0  0  0  0  0  0  0  0  0  0  0  0
   32.5279   28.7908   44.9432 H   0  0  0  0  0  0  0  0  0  0  0  0
   27.8925   27.6874   45.4741 H   0  0  0  0  0  0  0  0  0  0  0  0
   30.4214   27.3550   45.0113 H   0  0  0  0  0  0  0  0  0  0  0  0
   26.7685   27.0446   48.3785 H   0  0  0  0  0  0  0  0  0  0  0  0
   27.5717   31.1713   47.8385 H   0  0  0  0  0  0  0  0  0  0  0  0
   24.0044   29.9011   49.7030 H   0  0  0  0  0  0  0  0  0  0  0  0
   34.8297   29.9001   43.9975 H   0  0  0  0  0  0  0  0  0  0  0  0
   36.8750   31.0892   45.1927 H   0  0  0  0  0  0  0  0  0  0  0  0
   36.4142   29.6431   49.6819 H   0  0  0  0  0  0  0  0  0  0  0  0
   37.6261   34.9849   49.1161 Cl  0  0  0  0  0  0  0  0  0  0  0  0
   39.2668   34.7020   48.6248 C   0  0  0  0  0  0  0  0  0  0  0  0
   39.7155   33.4311   48.3076 C   0  0  0  0  0  0  0  0  0  0  0  0
   40.9786   33.0966   47.9113 C   0  0  0  0  0  0  0  0  0  0  0  0
   41.2676   32.0814   47.6769 H   0  0  0  0  0  0  0  0  0  0  0  0
   41.8710   34.1453   47.8281 C   0  0  0  0  0  0  0  0  0  0  0  0
   42.9038   33.9917   47.5224 H   0  0  0  0  0  0  0  0  0  0  0  0
   41.5357   35.4716   48.1228 C   0  0  0  0  0  0  0  0  0  0  0  0
   42.2636   36.2645   48.0453 H   0  0  0  0  0  0  0  0  0  0  0  0
   40.2296   35.6831   48.5120 C   0  0  0  0  0  0  0  0  0  0  0  0
   39.6831   37.3083   48.9101 Cl  0  0  0  0  0  0  0  0  0  0  0  0
  2  1  1  0
  3 15  1  0
  3  2  1  0
  3  1  1  0
  4  8  2  0
  4 10  1  0
  5  4  1  0
  6  5  2  0
  6  7  1  0
  7  1  1  0
  7  8  1  0
  9 14  2  0
 10 11  2  0
 10  9  1  0
 11 12  1  0
 12 13  2  0
 14 13  1  0
 15 19  1  0
 16 17  1  0
 16 15  2  0
 17 18  1  0
 18 19  2  0
 18 20  1  0
 20 21  2  0
 21 22  1  0
 23 22  1  0
 24 20  1  0
 24 23  2  0
  1 25  1  1
  2 26  1  0
  2 27  1  0
  3 28  1  6
  5 29  1  0
  6 30  1  0
  9 31  1  0
 11 32  1  0
 13 33  1  0
 16 34  1  0
 17 35  1  0
 21 36  1  0
 37 38  1  0
 38 39  2  0
 39 40  1  0
 40 41  1  0
 40 42  2  0
 42 43  1  0
 42 44  1  0
 44 45  1  0
 44 46  2  0
 46 47  1  0
 46 38  1  0
 23 39  1  0
M  ISO  8  25  13  26  13  27  13  28  13  29  14  30  14  31  14  32  14
M  ISO  7  33  14  34  14  35   9  36  14  41  15  43  15  45  15
M  END
>  <DihAtoms>  (1) 
21,22,38,37

>  <DihDeg>  (1) 
-179.9587810067867

$$$$
