
 OpenBabel03272502083D

 41 44  0  0  0  0  0  0  0  0999 V2000
   35.0390   28.3120   34.2310 F   0  0  0  0  0  0  0  0  0  0  0  0
   35.5510   29.1420   33.2660 C   0  0  0  0  0  0  0  0  0  0  0  0
   36.1810   28.6490   32.1290 C   0  0  0  0  0  0  0  0  0  0  0  0
   36.6530   29.5350   31.1920 C   0  0  0  0  0  0  0  0  0  0  0  0
   36.5030   30.9160   31.3760 C   0  0  0  0  0  0  0  0  0  0  0  0
   35.8690   31.3380   32.5270 C   0  0  0  0  0  0  0  0  0  0  0  0
   35.3920   30.5070   33.4700 C   0  0  0  0  0  0  0  0  0  0  0  0
   37.1310   29.0960   30.3370 H   0  0  0  0  0  0  0  0  0  0  0  0
   36.8840   31.5760   30.6220 H   0  0  0  0  0  0  0  0  0  0  0  0
   35.7940   32.4180   32.5910 H   0  0  0  0  0  0  0  0  0  0  0  0
   32.2650   30.3950   33.6210 Br  0  0  0  0  0  0  0  0  0  0  0  0
   33.4180   31.0570   34.9770 C   0  0  0  0  0  0  0  0  0  0  0  0
   34.7510   31.0260   34.6600 C   0  0  0  0  0  0  0  0  0  0  0  0
   35.6590   31.5380   35.6010 C   0  0  0  0  0  0  0  0  0  0  0  0
   35.2260   32.0470   36.7890 C   0  0  0  0  0  0  0  0  0  0  0  0
   33.8800   32.0440   37.0400 C   0  0  0  0  0  0  0  0  0  0  0  0
   32.9430   31.5470   36.1350 C   0  0  0  0  0  0  0  0  0  0  0  0
   36.7310   31.5570   35.4410 H   0  0  0  0  0  0  0  0  0  0  0  0
   35.8920   32.4520   37.5420 H   0  0  0  0  0  0  0  0  0  0  0  0
   33.4790   32.4400   37.9790 H   0  0  0  0  0  0  0  0  0  0  0  0
   31.5860   31.5060   36.3120 O   0  0  0  0  0  0  0  0  0  0  0  0
   31.2240   31.1120   37.1880 H   0  0  0  0  0  0  0  0  0  0  0  0
   35.4720   26.5810   31.1170 C   0  0  0  0  0  0  0  0  0  0  0  0
   36.2700   27.2140   32.0550 C   0  0  0  0  0  0  0  0  0  0  0  0
   37.1230   26.4310   32.8430 C   0  0  0  0  0  0  0  0  0  0  0  0
   37.1560   25.0850   32.6780 N   0  0  0  0  0  0  0  0  0  0  0  0
   36.3610   24.5130   31.7480 C   0  0  0  0  0  0  0  0  0  0  0  0
   35.5450   25.2240   30.9910 N   0  0  0  0  0  0  0  0  0  0  0  0
   34.7660   27.0380   30.4390 H   0  0  0  0  0  0  0  0  0  0  0  0
   37.7360   26.9560   33.5710 H   0  0  0  0  0  0  0  0  0  0  0  0
   38.7090   23.3820   30.1680 Cl  0  0  0  0  0  0  0  0  0  0  0  0
   37.4210   22.4230   30.8910 C   0  0  0  0  0  0  0  0  0  0  0  0
   36.4130   23.0620   31.5840 C   0  0  0  0  0  0  0  0  0  0  0  0
   35.4350   22.2420   32.1250 C   0  0  0  0  0  0  0  0  0  0  0  0
   34.6480   22.7510   32.6670 H   0  0  0  0  0  0  0  0  0  0  0  0
   35.4180   20.8590   32.0100 C   0  0  0  0  0  0  0  0  0  0  0  0
   34.6460   20.2660   32.4430 H   0  0  0  0  0  0  0  0  0  0  0  0
   36.4760   20.3360   31.2970 C   0  0  0  0  0  0  0  0  0  0  0  0
   36.4780   19.2400   31.1950 H   0  0  0  0  0  0  0  0  0  0  0  0
   37.5010   21.0560   30.7170 C   0  0  0  0  0  0  0  0  0  0  0  0
   38.7960   20.2790   29.8300 Cl  0  0  0  0  0  0  0  0  0  0  0  0
  2  7  1  0  0  0  0
  2  1  1  0  0  0  0
  3  2  2  0  0  0  0
  4  5  2  0  0  0  0
  4  3  1  0  0  0  0
  5  6  1  0  0  0  0
  6 10  1  0  0  0  0
  6  7  2  0  0  0  0
  7 13  1  0  0  0  0
  8  4  1  0  0  0  0
  9  5  1  0  0  0  0
 11 12  1  0  0  0  0
 12 17  1  0  0  0  0
 13 12  2  0  0  0  0
 13 14  1  0  0  0  0
 14 15  2  0  0  0  0
 15 16  1  0  0  0  0
 15 19  1  0  0  0  0
 16 20  1  0  0  0  0
 17 21  1  0  0  0  0
 17 16  2  0  0  0  0
 18 14  1  0  0  0  0
 21 22  1  0  0  0  0
 23 24  1  0  0  0  0
 24  3  1  0  0  0  0
 24 25  2  0  0  0  0
 25 30  1  0  0  0  0
 26 25  1  0  0  0  0
 27 26  2  0  0  0  0
 28 23  2  0  0  0  0
 28 27  1  0  0  0  0
 29 23  1  0  0  0  0
 31 32  1  0  0  0  0
 32 33  1  0  0  0  0
 33 27  1  0  0  0  0
 33 34  2  0  0  0  0
 34 35  1  0  0  0  0
 36 34  1  0  0  0  0
 36 37  1  0  0  0  0
 38 36  2  0  0  0  0
 39 38  1  0  0  0  0
 40 32  2  0  0  0  0
 40 38  1  0  0  0  0
 41 40  1  0  0  0  0
M  END
>  <minimizedAffinity>
-6.88923931

$$$$

 OpenBabel03272502083D

 41 44  0  0  0  0  0  0  0  0999 V2000
   36.4910   27.9640   35.2550 F   0  0  0  0  0  0  0  0  0  0  0  0
   36.6250   28.3230   33.9380 C   0  0  0  0  0  0  0  0  0  0  0  0
   37.4280   27.6060   33.0570 C   0  0  0  0  0  0  0  0  0  0  0  0
   37.5010   28.0080   31.7460 C   0  0  0  0  0  0  0  0  0  0  0  0
   36.7790   29.1220   31.2990 C   0  0  0  0  0  0  0  0  0  0  0  0
   36.0020   29.7890   32.2250 C   0  0  0  0  0  0  0  0  0  0  0  0
   35.9010   29.4320   33.5170 C   0  0  0  0  0  0  0  0  0  0  0  0
   38.1370   27.4170   31.1140 H   0  0  0  0  0  0  0  0  0  0  0  0
   36.8610   29.4050   30.2680 H   0  0  0  0  0  0  0  0  0  0  0  0
   35.4780   30.6360   31.7980 H   0  0  0  0  0  0  0  0  0  0  0  0
   32.7900   29.2090   33.2230 Br  0  0  0  0  0  0  0  0  0  0  0  0
   33.7100   30.2330   34.5310 C   0  0  0  0  0  0  0  0  0  0  0  0
   35.0760   30.1900   34.4340 C   0  0  0  0  0  0  0  0  0  0  0  0
   35.8210   30.9570   35.3450 C   0  0  0  0  0  0  0  0  0  0  0  0
   35.2020   31.7150   36.2940 C   0  0  0  0  0  0  0  0  0  0  0  0
   33.8340   31.7090   36.3340 C   0  0  0  0  0  0  0  0  0  0  0  0
   33.0550   30.9630   35.4490 C   0  0  0  0  0  0  0  0  0  0  0  0
   36.9050   30.9880   35.3470 H   0  0  0  0  0  0  0  0  0  0  0  0
   35.7380   32.3220   37.0150 H   0  0  0  0  0  0  0  0  0  0  0  0
   33.2870   32.2990   37.0760 H   0  0  0  0  0  0  0  0  0  0  0  0
   31.6880   30.9020   35.4270 O   0  0  0  0  0  0  0  0  0  0  0  0
   31.1970   30.7130   36.3090 H   0  0  0  0  0  0  0  0  0  0  0  0
   39.3350   26.7330   34.2420 C   0  0  0  0  0  0  0  0  0  0  0  0
   38.1160   26.4820   33.6360 C   0  0  0  0  0  0  0  0  0  0  0  0
   37.6210   25.1720   33.6490 C   0  0  0  0  0  0  0  0  0  0  0  0
   38.3320   24.1830   34.2470 N   0  0  0  0  0  0  0  0  0  0  0  0
   39.5140   24.4770   34.8280 C   0  0  0  0  0  0  0  0  0  0  0  0
   40.0090   25.7020   34.8310 N   0  0  0  0  0  0  0  0  0  0  0  0
   39.8500   27.6810   34.3170 H   0  0  0  0  0  0  0  0  0  0  0  0
   36.6630   25.0050   33.1640 H   0  0  0  0  0  0  0  0  0  0  0  0
   41.5040   22.9520   33.0930 Cl  0  0  0  0  0  0  0  0  0  0  0  0
   41.1930   22.6310   34.7970 C   0  0  0  0  0  0  0  0  0  0  0  0
   40.2640   23.3980   35.4690 C   0  0  0  0  0  0  0  0  0  0  0  0
   40.0730   23.0880   36.8060 C   0  0  0  0  0  0  0  0  0  0  0  0
   39.3420   23.6940   37.3260 H   0  0  0  0  0  0  0  0  0  0  0  0
   40.7460   22.0790   37.4820 C   0  0  0  0  0  0  0  0  0  0  0  0
   40.5690   21.8740   38.5120 H   0  0  0  0  0  0  0  0  0  0  0  0
   41.6490   21.3820   36.7070 C   0  0  0  0  0  0  0  0  0  0  0  0
   42.1920   20.5780   37.2260 H   0  0  0  0  0  0  0  0  0  0  0  0
   41.9180   21.6060   35.3720 C   0  0  0  0  0  0  0  0  0  0  0  0
   43.0900   20.6520   34.4870 Cl  0  0  0  0  0  0  0  0  0  0  0  0
  2  1  1  0  0  0  0
  3 24  1  0  0  0  0
  3  2  2  0  0  0  0
  4  3  1  0  0  0  0
  5  4  2  0  0  0  0
  5  6  1  0  0  0  0
  6  7  2  0  0  0  0
  7  2  1  0  0  0  0
  7 13  1  0  0  0  0
  8  4  1  0  0  0  0
  9  5  1  0  0  0  0
 10  6  1  0  0  0  0
 11 12  1  0  0  0  0
 12 17  1  0  0  0  0
 13 12  2  0  0  0  0
 13 14  1  0  0  0  0
 14 18  1  0  0  0  0
 14 15  2  0  0  0  0
 15 16  1  0  0  0  0
 15 19  1  0  0  0  0
 16 20  1  0  0  0  0
 17 16  2  0  0  0  0
 21 17  1  0  0  0  0
 21 22  1  0  0  0  0
 23 29  1  0  0  0  0
 23 28  1  0  0  0  0
 24 25  1  0  0  0  0
 24 23  2  0  0  0  0
 25 26  2  0  0  0  0
 26 27  1  0  0  0  0
 27 28  2  0  0  0  0
 27 33  1  0  0  0  0
 30 25  1  0  0  0  0
 31 32  1  0  0  0  0
 32 40  2  0  0  0  0
 32 33  1  0  0  0  0
 33 34  2  0  0  0  0
 34 35  1  0  0  0  0
 34 36  1  0  0  0  0
 36 37  1  0  0  0  0
 38 39  1  0  0  0  0
 38 36  2  0  0  0  0
 40 38  1  0  0  0  0
 41 40  1  0  0  0  0
M  END
>  <minimizedAffinity>
-6.68288898

$$$$

 OpenBabel03272502083D

 41 44  0  0  0  0  0  0  0  0999 V2000
   35.8140   27.8230   34.9180 F   0  0  0  0  0  0  0  0  0  0  0  0
   36.1390   28.2890   33.6690 C   0  0  0  0  0  0  0  0  0  0  0  0
   37.2100   27.7740   32.9470 C   0  0  0  0  0  0  0  0  0  0  0  0
   37.4680   28.2720   31.6930 C   0  0  0  0  0  0  0  0  0  0  0  0
   36.6650   29.2820   31.1470 C   0  0  0  0  0  0  0  0  0  0  0  0
   35.6190   29.7490   31.9170 C   0  0  0  0  0  0  0  0  0  0  0  0
   35.3300   29.2920   33.1480 C   0  0  0  0  0  0  0  0  0  0  0  0
   38.3070   27.8370   31.1840 H   0  0  0  0  0  0  0  0  0  0  0  0
   36.8970   29.6450   30.1650 H   0  0  0  0  0  0  0  0  0  0  0  0
   35.0500   30.5270   31.4220 H   0  0  0  0  0  0  0  0  0  0  0  0
   35.9870   31.2670   35.4880 Br  0  0  0  0  0  0  0  0  0  0  0  0
   34.2480   30.7420   34.9350 C   0  0  0  0  0  0  0  0  0  0  0  0
   34.2240   29.8420   33.9030 C   0  0  0  0  0  0  0  0  0  0  0  0
   32.9710   29.3780   33.4680 C   0  0  0  0  0  0  0  0  0  0  0  0
   31.8210   29.8120   34.0560 C   0  0  0  0  0  0  0  0  0  0  0  0
   31.9200   30.7130   35.0820 C   0  0  0  0  0  0  0  0  0  0  0  0
   33.1420   31.2000   35.5450 C   0  0  0  0  0  0  0  0  0  0  0  0
   32.8500   28.6660   32.6600 H   0  0  0  0  0  0  0  0  0  0  0  0
   30.8340   29.4800   33.7530 H   0  0  0  0  0  0  0  0  0  0  0  0
   31.0270   31.0950   35.5880 H   0  0  0  0  0  0  0  0  0  0  0  0
   33.3240   32.1000   36.5600 O   0  0  0  0  0  0  0  0  0  0  0  0
   32.7740   32.9680   36.5410 H   0  0  0  0  0  0  0  0  0  0  0  0
   38.9050   27.1430   34.5370 C   0  0  0  0  0  0  0  0  0  0  0  0
   37.9550   26.7390   33.6150 C   0  0  0  0  0  0  0  0  0  0  0  0
   37.7600   25.3670   33.4120 C   0  0  0  0  0  0  0  0  0  0  0  0
   38.4930   24.4670   34.1140 N   0  0  0  0  0  0  0  0  0  0  0  0
   39.4070   24.9080   35.0050 C   0  0  0  0  0  0  0  0  0  0  0  0
   39.6150   26.1940   35.2170 N   0  0  0  0  0  0  0  0  0  0  0  0
   39.1740   28.1550   34.8050 H   0  0  0  0  0  0  0  0  0  0  0  0
   37.0080   25.0820   32.6810 H   0  0  0  0  0  0  0  0  0  0  0  0
   42.3030   24.4950   34.1510 Cl  0  0  0  0  0  0  0  0  0  0  0  0
   41.5050   23.6390   35.4670 C   0  0  0  0  0  0  0  0  0  0  0  0
   40.1850   23.9210   35.7520 C   0  0  0  0  0  0  0  0  0  0  0  0
   39.6240   23.2090   36.8000 C   0  0  0  0  0  0  0  0  0  0  0  0
   38.5880   23.4360   37.0170 H   0  0  0  0  0  0  0  0  0  0  0  0
   40.2990   22.2580   37.5530 C   0  0  0  0  0  0  0  0  0  0  0  0
   39.8290   21.7330   38.3520 H   0  0  0  0  0  0  0  0  0  0  0  0
   41.6110   22.0630   37.1760 C   0  0  0  0  0  0  0  0  0  0  0  0
   42.1620   21.3120   37.7630 H   0  0  0  0  0  0  0  0  0  0  0  0
   42.2690   22.7140   36.1520 C   0  0  0  0  0  0  0  0  0  0  0  0
   43.9430   22.3810   35.7630 Cl  0  0  0  0  0  0  0  0  0  0  0  0
  2  1  1  0  0  0  0
  3 24  1  0  0  0  0
  3  2  2  0  0  0  0
  4  3  1  0  0  0  0
  5  4  2  0  0  0  0
  5  6  1  0  0  0  0
  6  7  2  0  0  0  0
  7  2  1  0  0  0  0
  7 13  1  0  0  0  0
  8  4  1  0  0  0  0
  9  5  1  0  0  0  0
 10  6  1  0  0  0  0
 12 11  1  0  0  0  0
 12 17  1  0  0  0  0
 13 12  2  0  0  0  0
 14 13  1  0  0  0  0
 14 15  2  0  0  0  0
 15 16  1  0  0  0  0
 16 17  2  0  0  0  0
 16 20  1  0  0  0  0
 17 21  1  0  0  0  0
 18 14  1  0  0  0  0
 19 15  1  0  0  0  0
 22 21  1  0  0  0  0
 23 29  1  0  0  0  0
 23 28  1  0  0  0  0
 24 23  2  0  0  0  0
 25 24  1  0  0  0  0
 25 26  2  0  0  0  0
 26 27  1  0  0  0  0
 27 28  2  0  0  0  0
 27 33  1  0  0  0  0
 30 25  1  0  0  0  0
 31 32  1  0  0  0  0
 32 33  2  0  0  0  0
 32 40  1  0  0  0  0
 33 34  1  0  0  0  0
 34 35  1  0  0  0  0
 34 36  2  0  0  0  0
 36 37  1  0  0  0  0
 38 36  1  0  0  0  0
 38 39  1  0  0  0  0
 40 38  2  0  0  0  0
 41 40  1  0  0  0  0
M  END
>  <minimizedAffinity>
-6.60965919

$$$$

 OpenBabel03272502083D

 41 44  0  0  0  0  0  0  0  0999 V2000
   36.3290   28.2810   34.9150 F   0  0  0  0  0  0  0  0  0  0  0  0
   36.1720   28.7980   33.6540 C   0  0  0  0  0  0  0  0  0  0  0  0
   36.7280   28.1910   32.5330 C   0  0  0  0  0  0  0  0  0  0  0  0
   36.5140   28.7500   31.2980 C   0  0  0  0  0  0  0  0  0  0  0  0
   35.7470   29.9150   31.1640 C   0  0  0  0  0  0  0  0  0  0  0  0
   35.2240   30.4670   32.3160 C   0  0  0  0  0  0  0  0  0  0  0  0
   35.4080   29.9540   33.5450 C   0  0  0  0  0  0  0  0  0  0  0  0
   36.9700   28.2380   30.4710 H   0  0  0  0  0  0  0  0  0  0  0  0
   35.6020   30.3220   30.1830 H   0  0  0  0  0  0  0  0  0  0  0  0
   34.6450   31.3630   32.1250 H   0  0  0  0  0  0  0  0  0  0  0  0
   32.4160   29.3470   34.2470 Br  0  0  0  0  0  0  0  0  0  0  0  0
   33.5820   30.4700   35.2390 C   0  0  0  0  0  0  0  0  0  0  0  0
   34.8400   30.5990   34.7100 C   0  0  0  0  0  0  0  0  0  0  0  0
   35.7440   31.4470   35.3710 C   0  0  0  0  0  0  0  0  0  0  0  0
   35.3790   32.1170   36.5000 C   0  0  0  0  0  0  0  0  0  0  0  0
   34.1070   31.9400   36.9740 C   0  0  0  0  0  0  0  0  0  0  0  0
   33.1770   31.1090   36.3500 C   0  0  0  0  0  0  0  0  0  0  0  0
   36.7590   31.6130   35.0290 H   0  0  0  0  0  0  0  0  0  0  0  0
   36.0440   32.7810   37.0400 H   0  0  0  0  0  0  0  0  0  0  0  0
   33.7630   32.4540   37.8780 H   0  0  0  0  0  0  0  0  0  0  0  0
   31.8920   30.8770   36.7610 O   0  0  0  0  0  0  0  0  0  0  0  0
   31.7360   30.6240   37.7440 H   0  0  0  0  0  0  0  0  0  0  0  0
   38.8380   27.1640   33.0760 C   0  0  0  0  0  0  0  0  0  0  0  0
   37.4910   27.0000   32.8020 C   0  0  0  0  0  0  0  0  0  0  0  0
   36.9560   25.7060   32.8290 C   0  0  0  0  0  0  0  0  0  0  0  0
   37.7540   24.6480   33.1220 N   0  0  0  0  0  0  0  0  0  0  0  0
   39.0610   24.8570   33.3860 C   0  0  0  0  0  0  0  0  0  0  0  0
   39.5950   26.0650   33.3660 N   0  0  0  0  0  0  0  0  0  0  0  0
   39.3980   28.0880   33.0950 H   0  0  0  0  0  0  0  0  0  0  0  0
   35.8970   25.6090   32.6070 H   0  0  0  0  0  0  0  0  0  0  0  0
   39.2430   24.0370   36.3160 Cl  0  0  0  0  0  0  0  0  0  0  0  0
   40.0710   23.2310   34.9870 C   0  0  0  0  0  0  0  0  0  0  0  0
   39.9020   23.7040   33.7010 C   0  0  0  0  0  0  0  0  0  0  0  0
   40.5840   23.0200   32.7080 C   0  0  0  0  0  0  0  0  0  0  0  0
   40.4470   23.3970   31.7030 H   0  0  0  0  0  0  0  0  0  0  0  0
   41.4000   21.9190   32.9310 C   0  0  0  0  0  0  0  0  0  0  0  0
   41.9060   21.4210   32.1370 H   0  0  0  0  0  0  0  0  0  0  0  0
   41.4900   21.5380   34.2540 C   0  0  0  0  0  0  0  0  0  0  0  0
   42.1330   20.6670   34.4500 H   0  0  0  0  0  0  0  0  0  0  0  0
   40.8570   22.1450   35.3200 C   0  0  0  0  0  0  0  0  0  0  0  0
   41.0470   21.5720   36.9630 Cl  0  0  0  0  0  0  0  0  0  0  0  0
  2  1  1  0  0  0  0
  3 24  1  0  0  0  0
  3  2  2  0  0  0  0
  4  3  1  0  0  0  0
  5  4  2  0  0  0  0
  5  6  1  0  0  0  0
  6  7  2  0  0  0  0
  7  2  1  0  0  0  0
  7 13  1  0  0  0  0
  8  4  1  0  0  0  0
  9  5  1  0  0  0  0
 10  6  1  0  0  0  0
 11 12  1  0  0  0  0
 12 17  1  0  0  0  0
 13 12  2  0  0  0  0
 13 14  1  0  0  0  0
 14 15  2  0  0  0  0
 15 16  1  0  0  0  0
 15 19  1  0  0  0  0
 16 20  1  0  0  0  0
 17 21  1  0  0  0  0
 17 16  2  0  0  0  0
 18 14  1  0  0  0  0
 21 22  1  0  0  0  0
 23 29  1  0  0  0  0
 23 28  1  0  0  0  0
 24 25  1  0  0  0  0
 24 23  2  0  0  0  0
 25 26  2  0  0  0  0
 26 27  1  0  0  0  0
 27 33  1  0  0  0  0
 28 27  2  0  0  0  0
 30 25  1  0  0  0  0
 32 40  1  0  0  0  0
 32 31  1  0  0  0  0
 33 32  2  0  0  0  0
 34 36  2  0  0  0  0
 34 33  1  0  0  0  0
 35 34  1  0  0  0  0
 36 38  1  0  0  0  0
 37 36  1  0  0  0  0
 38 39  1  0  0  0  0
 38 40  2  0  0  0  0
 40 41  1  0  0  0  0
M  END
>  <minimizedAffinity>
-6.5858717

$$$$

 OpenBabel03272502083D

 41 44  0  0  0  0  0  0  0  0999 V2000
   35.8430   28.0430   35.0990 F   0  0  0  0  0  0  0  0  0  0  0  0
   35.8380   28.6750   33.8810 C   0  0  0  0  0  0  0  0  0  0  0  0
   36.6270   28.2400   32.8220 C   0  0  0  0  0  0  0  0  0  0  0  0
   36.5570   28.9060   31.6230 C   0  0  0  0  0  0  0  0  0  0  0  0
   35.7050   30.0070   31.4660 C   0  0  0  0  0  0  0  0  0  0  0  0
   34.9500   30.3860   32.5580 C   0  0  0  0  0  0  0  0  0  0  0  0
   34.9860   29.7650   33.7490 C   0  0  0  0  0  0  0  0  0  0  0  0
   37.1900   28.5260   30.8440 H   0  0  0  0  0  0  0  0  0  0  0  0
   35.6780   30.5010   30.5150 H   0  0  0  0  0  0  0  0  0  0  0  0
   34.3200   31.2440   32.3520 H   0  0  0  0  0  0  0  0  0  0  0  0
   36.2020   31.9370   35.6500 Br  0  0  0  0  0  0  0  0  0  0  0  0
   34.4620   31.1880   35.7910 C   0  0  0  0  0  0  0  0  0  0  0  0
   34.1740   30.2310   34.8540 C   0  0  0  0  0  0  0  0  0  0  0  0
   32.9190   29.6040   34.9230 C   0  0  0  0  0  0  0  0  0  0  0  0
   32.0200   29.9410   35.8900 C   0  0  0  0  0  0  0  0  0  0  0  0
   32.3740   30.9060   36.7940 C   0  0  0  0  0  0  0  0  0  0  0  0
   33.6090   31.5540   36.7620 C   0  0  0  0  0  0  0  0  0  0  0  0
   32.6010   28.8370   34.2270 H   0  0  0  0  0  0  0  0  0  0  0  0
   31.0420   29.4820   35.9800 H   0  0  0  0  0  0  0  0  0  0  0  0
   31.6900   31.2140   37.5900 H   0  0  0  0  0  0  0  0  0  0  0  0
   34.0360   32.5280   37.6240 O   0  0  0  0  0  0  0  0  0  0  0  0
   33.4130   33.3250   37.7990 H   0  0  0  0  0  0  0  0  0  0  0  0
   38.7240   27.3500   33.6040 C   0  0  0  0  0  0  0  0  0  0  0  0
   37.4560   27.0980   33.1080 C   0  0  0  0  0  0  0  0  0  0  0  0
   37.0540   25.7670   32.9440 C   0  0  0  0  0  0  0  0  0  0  0  0
   37.9000   24.7580   33.2700 N   0  0  0  0  0  0  0  0  0  0  0  0
   39.1260   25.0510   33.7530 C   0  0  0  0  0  0  0  0  0  0  0  0
   39.5340   26.2960   33.9180 N   0  0  0  0  0  0  0  0  0  0  0  0
   39.1800   28.3120   33.7870 H   0  0  0  0  0  0  0  0  0  0  0  0
   36.0540   25.6020   32.5500 H   0  0  0  0  0  0  0  0  0  0  0  0
   39.0060   24.0230   36.6200 Cl  0  0  0  0  0  0  0  0  0  0  0  0
   40.0660   23.3920   35.3630 C   0  0  0  0  0  0  0  0  0  0  0  0
   40.0210   23.9490   34.1010 C   0  0  0  0  0  0  0  0  0  0  0  0
   40.8830   23.4020   33.1650 C   0  0  0  0  0  0  0  0  0  0  0  0
   40.8420   23.8440   32.1780 H   0  0  0  0  0  0  0  0  0  0  0  0
   41.7610   22.3570   33.4220 C   0  0  0  0  0  0  0  0  0  0  0  0
   42.4070   21.9650   32.6710 H   0  0  0  0  0  0  0  0  0  0  0  0
   41.7150   21.8830   34.7160 C   0  0  0  0  0  0  0  0  0  0  0  0
   42.4040   21.0540   34.9380 H   0  0  0  0  0  0  0  0  0  0  0  0
   40.8980   22.3520   35.7260 C   0  0  0  0  0  0  0  0  0  0  0  0
   40.9290   21.6690   37.3380 Cl  0  0  0  0  0  0  0  0  0  0  0  0
  2  1  1  0  0  0  0
  3 24  1  0  0  0  0
  3  2  2  0  0  0  0
  4  3  1  0  0  0  0
  5  4  2  0  0  0  0
  5  6  1  0  0  0  0
  6  7  2  0  0  0  0
  7  2  1  0  0  0  0
  7 13  1  0  0  0  0
  8  4  1  0  0  0  0
  9  5  1  0  0  0  0
 10  6  1  0  0  0  0
 11 12  1  0  0  0  0
 12 17  1  0  0  0  0
 13 14  1  0  0  0  0
 13 12  2  0  0  0  0
 14 15  2  0  0  0  0
 15 19  1  0  0  0  0
 15 16  1  0  0  0  0
 16 20  1  0  0  0  0
 17 16  2  0  0  0  0
 17 21  1  0  0  0  0
 18 14  1  0  0  0  0
 21 22  1  0  0  0  0
 23 29  1  0  0  0  0
 23 28  1  0  0  0  0
 24 23  2  0  0  0  0
 25 24  1  0  0  0  0
 25 26  2  0  0  0  0
 26 27  1  0  0  0  0
 27 28  2  0  0  0  0
 27 33  1  0  0  0  0
 30 25  1  0  0  0  0
 32 40  1  0  0  0  0
 32 31  1  0  0  0  0
 33 32  2  0  0  0  0
 34 36  2  0  0  0  0
 34 33  1  0  0  0  0
 35 34  1  0  0  0  0
 36 38  1  0  0  0  0
 37 36  1  0  0  0  0
 38 39  1  0  0  0  0
 38 40  2  0  0  0  0
 40 41  1  0  0  0  0
M  END
>  <minimizedAffinity>
-6.56893826

$$$$

 OpenBabel03272502083D

 41 44  0  0  0  0  0  0  0  0999 V2000
   38.5980   26.3680   34.9880 F   0  0  0  0  0  0  0  0  0  0  0  0
   38.1040   25.5140   34.0350 C   0  0  0  0  0  0  0  0  0  0  0  0
   37.1590   25.9210   33.0990 C   0  0  0  0  0  0  0  0  0  0  0  0
   36.7230   25.0200   32.1590 C   0  0  0  0  0  0  0  0  0  0  0  0
   37.2210   23.7100   32.1400 C   0  0  0  0  0  0  0  0  0  0  0  0
   38.1560   23.3720   33.0970 C   0  0  0  0  0  0  0  0  0  0  0  0
   38.6110   24.2200   34.0350 C   0  0  0  0  0  0  0  0  0  0  0  0
   35.9930   25.3900   31.4650 H   0  0  0  0  0  0  0  0  0  0  0  0
   36.8560   23.0360   31.3900 H   0  0  0  0  0  0  0  0  0  0  0  0
   38.4880   22.3440   33.0110 H   0  0  0  0  0  0  0  0  0  0  0  0
   37.5480   23.0970   36.7590 Br  0  0  0  0  0  0  0  0  0  0  0  0
   39.3730   23.2340   36.2530 C   0  0  0  0  0  0  0  0  0  0  0  0
   39.5840   23.7880   35.0170 C   0  0  0  0  0  0  0  0  0  0  0  0
   40.9120   23.9570   34.5940 C   0  0  0  0  0  0  0  0  0  0  0  0
   41.9540   23.5810   35.3880 C   0  0  0  0  0  0  0  0  0  0  0  0
   41.6700   23.0330   36.6110 C   0  0  0  0  0  0  0  0  0  0  0  0
   40.3660   22.8470   37.0700 C   0  0  0  0  0  0  0  0  0  0  0  0
   41.1790   24.3850   33.6350 H   0  0  0  0  0  0  0  0  0  0  0  0
   42.9930   23.6950   35.1020 H   0  0  0  0  0  0  0  0  0  0  0  0
   42.4690   22.7140   37.2870 H   0  0  0  0  0  0  0  0  0  0  0  0
   40.0010   22.3060   38.2730 O   0  0  0  0  0  0  0  0  0  0  0  0
   40.4240   21.4130   38.5510 H   0  0  0  0  0  0  0  0  0  0  0  0
   36.9040   28.1050   32.1170 C   0  0  0  0  0  0  0  0  0  0  0  0
   36.7290   27.2890   33.2220 C   0  0  0  0  0  0  0  0  0  0  0  0
   36.1280   27.8310   34.3650 C   0  0  0  0  0  0  0  0  0  0  0  0
   35.7300   29.1280   34.3710 N   0  0  0  0  0  0  0  0  0  0  0  0
   35.9180   29.8840   33.2690 C   0  0  0  0  0  0  0  0  0  0  0  0
   36.4840   29.4030   32.1780 N   0  0  0  0  0  0  0  0  0  0  0  0
   37.3480   27.8410   31.1680 H   0  0  0  0  0  0  0  0  0  0  0  0
   36.0060   27.1670   35.2160 H   0  0  0  0  0  0  0  0  0  0  0  0
   36.2970   31.4030   35.8850 Cl  0  0  0  0  0  0  0  0  0  0  0  0
   35.5950   32.0770   34.4170 C   0  0  0  0  0  0  0  0  0  0  0  0
   35.4800   31.2790   33.2970 C   0  0  0  0  0  0  0  0  0  0  0  0
   34.9180   31.8770   32.1800 C   0  0  0  0  0  0  0  0  0  0  0  0
   34.8320   31.2440   31.3060 H   0  0  0  0  0  0  0  0  0  0  0  0
   34.4790   33.1930   32.1320 C   0  0  0  0  0  0  0  0  0  0  0  0
   34.0520   33.6130   31.2510 H   0  0  0  0  0  0  0  0  0  0  0  0
   34.6450   33.8900   33.3100 C   0  0  0  0  0  0  0  0  0  0  0  0
   34.3030   34.9360   33.2900 H   0  0  0  0  0  0  0  0  0  0  0  0
   35.1910   33.3960   34.4770 C   0  0  0  0  0  0  0  0  0  0  0  0
   35.3520   34.3800   35.9170 Cl  0  0  0  0  0  0  0  0  0  0  0  0
  2  1  1  0  0  0  0
  3 24  1  0  0  0  0
  3  2  2  0  0  0  0
  4  3  1  0  0  0  0
  5  4  2  0  0  0  0
  5  6  1  0  0  0  0
  6  7  2  0  0  0  0
  7  2  1  0  0  0  0
  7 13  1  0  0  0  0
  8  4  1  0  0  0  0
  9  5  1  0  0  0  0
 10  6  1  0  0  0  0
 12 11  1  0  0  0  0
 12 17  1  0  0  0  0
 13 12  2  0  0  0  0
 14 13  1  0  0  0  0
 14 15  2  0  0  0  0
 15 16  1  0  0  0  0
 16 17  2  0  0  0  0
 16 20  1  0  0  0  0
 17 21  1  0  0  0  0
 18 14  1  0  0  0  0
 19 15  1  0  0  0  0
 21 22  1  0  0  0  0
 23 28  2  0  0  0  0
 23 24  1  0  0  0  0
 24 25  2  0  0  0  0
 25 26  1  0  0  0  0
 25 30  1  0  0  0  0
 27 33  1  0  0  0  0
 27 26  2  0  0  0  0
 28 27  1  0  0  0  0
 29 23  1  0  0  0  0
 32 40  1  0  0  0  0
 32 31  1  0  0  0  0
 33 32  2  0  0  0  0
 34 33  1  0  0  0  0
 35 34  1  0  0  0  0
 36 34  2  0  0  0  0
 36 38  1  0  0  0  0
 37 36  1  0  0  0  0
 38 40  2  0  0  0  0
 39 38  1  0  0  0  0
 40 41  1  0  0  0  0
M  END
>  <minimizedAffinity>
-6.35427666

$$$$

 OpenBabel03272502083D

 41 44  0  0  0  0  0  0  0  0999 V2000
   38.5220   25.1940   34.1140 F   0  0  0  0  0  0  0  0  0  0  0  0
   37.9020   24.0880   33.5880 C   0  0  0  0  0  0  0  0  0  0  0  0
   37.3110   24.1030   32.3300 C   0  0  0  0  0  0  0  0  0  0  0  0
   36.7260   22.9550   31.8550 C   0  0  0  0  0  0  0  0  0  0  0  0
   36.7240   21.7840   32.6250 C   0  0  0  0  0  0  0  0  0  0  0  0
   37.3270   21.8380   33.8650 C   0  0  0  0  0  0  0  0  0  0  0  0
   37.9110   22.9380   34.3690 C   0  0  0  0  0  0  0  0  0  0  0  0
   36.2860   23.0280   30.8790 H   0  0  0  0  0  0  0  0  0  0  0  0
   36.2580   20.9070   32.2200 H   0  0  0  0  0  0  0  0  0  0  0  0
   37.2810   20.8920   34.3930 H   0  0  0  0  0  0  0  0  0  0  0  0
   40.8970   22.0250   34.6120 Br  0  0  0  0  0  0  0  0  0  0  0  0
   39.7940   22.6010   36.0460 C   0  0  0  0  0  0  0  0  0  0  0  0
   38.5110   22.9220   35.6870 C   0  0  0  0  0  0  0  0  0  0  0  0
   37.6270   23.3190   36.7040 C   0  0  0  0  0  0  0  0  0  0  0  0
   38.0360   23.3810   38.0030 C   0  0  0  0  0  0  0  0  0  0  0  0
   39.3320   23.0470   38.2890 C   0  0  0  0  0  0  0  0  0  0  0  0
   40.2430   22.6480   37.3110 C   0  0  0  0  0  0  0  0  0  0  0  0
   36.5950   23.5920   36.5190 H   0  0  0  0  0  0  0  0  0  0  0  0
   37.3860   23.6810   38.8180 H   0  0  0  0  0  0  0  0  0  0  0  0
   39.7110   23.0810   39.3150 H   0  0  0  0  0  0  0  0  0  0  0  0
   41.5510   22.3020   37.5160 O   0  0  0  0  0  0  0  0  0  0  0  0
   42.1390   22.9380   38.0680 H   0  0  0  0  0  0  0  0  0  0  0  0
   36.1890   26.0310   31.4220 C   0  0  0  0  0  0  0  0  0  0  0  0
   37.3830   25.3640   31.6380 C   0  0  0  0  0  0  0  0  0  0  0  0
   38.5720   25.9610   31.2010 C   0  0  0  0  0  0  0  0  0  0  0  0
   38.5370   27.1690   30.5830 N   0  0  0  0  0  0  0  0  0  0  0  0
   37.3500   27.7830   30.3970 C   0  0  0  0  0  0  0  0  0  0  0  0
   36.2120   27.2450   30.7960 N   0  0  0  0  0  0  0  0  0  0  0  0
   35.1950   25.7080   31.6950 H   0  0  0  0  0  0  0  0  0  0  0  0
   39.4920   25.4120   31.3830 H   0  0  0  0  0  0  0  0  0  0  0  0
   36.2320   30.1350   31.9810 Cl  0  0  0  0  0  0  0  0  0  0  0  0
   36.8550   30.2290   30.3360 C   0  0  0  0  0  0  0  0  0  0  0  0
   37.3350   29.0850   29.7310 C   0  0  0  0  0  0  0  0  0  0  0  0
   37.8100   29.2350   28.4380 C   0  0  0  0  0  0  0  0  0  0  0  0
   38.1840   28.3330   27.9710 H   0  0  0  0  0  0  0  0  0  0  0  0
   37.8270   30.4370   27.7430 C   0  0  0  0  0  0  0  0  0  0  0  0
   38.2010   30.5080   26.7480 H   0  0  0  0  0  0  0  0  0  0  0  0
   37.3230   31.5080   28.4490 C   0  0  0  0  0  0  0  0  0  0  0  0
   37.3290   32.4700   27.9130 H   0  0  0  0  0  0  0  0  0  0  0  0
   36.8270   31.4720   29.7370 C   0  0  0  0  0  0  0  0  0  0  0  0
   36.2100   32.9040   30.5350 Cl  0  0  0  0  0  0  0  0  0  0  0  0
  2  1  1  0  0  0  0
  2  7  1  0  0  0  0
  3  2  2  0  0  0  0
  4  3  1  0  0  0  0
  4  5  2  0  0  0  0
  5  6  1  0  0  0  0
  6  7  2  0  0  0  0
  6 10  1  0  0  0  0
  7 13  1  0  0  0  0
  8  4  1  0  0  0  0
  9  5  1  0  0  0  0
 11 12  1  0  0  0  0
 12 17  1  0  0  0  0
 13 12  2  0  0  0  0
 13 14  1  0  0  0  0
 14 15  2  0  0  0  0
 15 16  1  0  0  0  0
 15 19  1  0  0  0  0
 16 20  1  0  0  0  0
 17 21  1  0  0  0  0
 17 16  2  0  0  0  0
 18 14  1  0  0  0  0
 21 22  1  0  0  0  0
 23 24  1  0  0  0  0
 23 29  1  0  0  0  0
 24  3  1  0  0  0  0
 25 30  1  0  0  0  0
 25 24  2  0  0  0  0
 26 25  1  0  0  0  0
 27 26  2  0  0  0  0
 27 28  1  0  0  0  0
 28 23  2  0  0  0  0
 32 31  1  0  0  0  0
 33 32  2  0  0  0  0
 33 27  1  0  0  0  0
 34 33  1  0  0  0  0
 35 34  1  0  0  0  0
 36 34  2  0  0  0  0
 36 38  1  0  0  0  0
 37 36  1  0  0  0  0
 38 40  2  0  0  0  0
 39 38  1  0  0  0  0
 40 32  1  0  0  0  0
 40 41  1  0  0  0  0
M  END
>  <minimizedAffinity>
-6.35354567

$$$$

 OpenBabel03272502083D

 41 44  0  0  0  0  0  0  0  0999 V2000
   36.4870   25.2760   32.9850 F   0  0  0  0  0  0  0  0  0  0  0  0
   37.3290   25.7030   31.9890 C   0  0  0  0  0  0  0  0  0  0  0  0
   37.6520   27.0450   31.8230 C   0  0  0  0  0  0  0  0  0  0  0  0
   38.5180   27.4020   30.8190 C   0  0  0  0  0  0  0  0  0  0  0  0
   39.0710   26.4300   29.9740 C   0  0  0  0  0  0  0  0  0  0  0  0
   38.7080   25.1170   30.1930 C   0  0  0  0  0  0  0  0  0  0  0  0
   37.8640   24.7220   31.1620 C   0  0  0  0  0  0  0  0  0  0  0  0
   38.7290   28.4510   30.7380 H   0  0  0  0  0  0  0  0  0  0  0  0
   39.7440   26.7470   29.2010 H   0  0  0  0  0  0  0  0  0  0  0  0
   39.1780   24.4310   29.4970 H   0  0  0  0  0  0  0  0  0  0  0  0
   40.0900   22.7650   32.1760 Br  0  0  0  0  0  0  0  0  0  0  0  0
   38.2940   22.2920   31.7780 C   0  0  0  0  0  0  0  0  0  0  0  0
   37.5180   23.3250   31.3220 C   0  0  0  0  0  0  0  0  0  0  0  0
   36.1890   23.0390   30.9700 C   0  0  0  0  0  0  0  0  0  0  0  0
   35.6910   21.7760   31.0800 C   0  0  0  0  0  0  0  0  0  0  0  0
   36.5220   20.7920   31.5450 C   0  0  0  0  0  0  0  0  0  0  0  0
   37.8480   21.0310   31.9050 C   0  0  0  0  0  0  0  0  0  0  0  0
   35.5000   23.7890   30.5990 H   0  0  0  0  0  0  0  0  0  0  0  0
   34.6730   21.5110   30.8190 H   0  0  0  0  0  0  0  0  0  0  0  0
   36.1730   19.7600   31.6530 H   0  0  0  0  0  0  0  0  0  0  0  0
   38.7390   20.1060   32.3790 O   0  0  0  0  0  0  0  0  0  0  0  0
   38.4420   19.5010   33.1540 H   0  0  0  0  0  0  0  0  0  0  0  0
   36.2880   28.9890   32.2240 C   0  0  0  0  0  0  0  0  0  0  0  0
   37.0230   27.9440   32.7560 C   0  0  0  0  0  0  0  0  0  0  0  0
   37.0850   27.8100   34.1480 C   0  0  0  0  0  0  0  0  0  0  0  0
   36.4320   28.6940   34.9440 N   0  0  0  0  0  0  0  0  0  0  0  0
   35.7260   29.6960   34.3800 C   0  0  0  0  0  0  0  0  0  0  0  0
   35.6500   29.8490   33.0710 N   0  0  0  0  0  0  0  0  0  0  0  0
   36.1440   29.2280   31.1800 H   0  0  0  0  0  0  0  0  0  0  0  0
   37.6710   26.9810   34.5350 H   0  0  0  0  0  0  0  0  0  0  0  0
   32.7210   29.3080   34.7110 Cl  0  0  0  0  0  0  0  0  0  0  0  0
   33.6690   30.5710   35.4900 C   0  0  0  0  0  0  0  0  0  0  0  0
   35.0270   30.6360   35.2560 C   0  0  0  0  0  0  0  0  0  0  0  0
   35.7080   31.6550   35.9030 C   0  0  0  0  0  0  0  0  0  0  0  0
   36.7720   31.6990   35.7130 H   0  0  0  0  0  0  0  0  0  0  0  0
   35.1130   32.5840   36.7460 C   0  0  0  0  0  0  0  0  0  0  0  0
   35.6740   33.3520   37.2240 H   0  0  0  0  0  0  0  0  0  0  0  0
   33.7530   32.4180   36.9040 C   0  0  0  0  0  0  0  0  0  0  0  0
   33.2640   33.1460   37.5700 H   0  0  0  0  0  0  0  0  0  0  0  0
   32.9780   31.4410   36.3100 C   0  0  0  0  0  0  0  0  0  0  0  0
   31.2530   31.3300   36.5860 Cl  0  0  0  0  0  0  0  0  0  0  0  0
  2  1  1  0  0  0  0
  3  2  1  0  0  0  0
  3 24  1  0  0  0  0
  4  3  2  0  0  0  0
  5  6  2  0  0  0  0
  5  4  1  0  0  0  0
  6  7  1  0  0  0  0
  7 13  1  0  0  0  0
  7  2  2  0  0  0  0
  8  4  1  0  0  0  0
  9  5  1  0  0  0  0
 10  6  1  0  0  0  0
 12 17  1  0  0  0  0
 12 11  1  0  0  0  0
 13 12  2  0  0  0  0
 14 15  2  0  0  0  0
 14 13  1  0  0  0  0
 15 16  1  0  0  0  0
 16 20  1  0  0  0  0
 16 17  2  0  0  0  0
 17 21  1  0  0  0  0
 18 14  1  0  0  0  0
 19 15  1  0  0  0  0
 21 22  1  0  0  0  0
 23 24  2  0  0  0  0
 23 28  1  0  0  0  0
 24 25  1  0  0  0  0
 25 30  1  0  0  0  0
 25 26  2  0  0  0  0
 27 26  1  0  0  0  0
 27 33  1  0  0  0  0
 28 27  2  0  0  0  0
 29 23  1  0  0  0  0
 31 32  1  0  0  0  0
 32 40  1  0  0  0  0
 33 32  2  0  0  0  0
 33 34  1  0  0  0  0
 34 36  2  0  0  0  0
 35 34  1  0  0  0  0
 36 38  1  0  0  0  0
 36 37  1  0  0  0  0
 38 39  1  0  0  0  0
 40 41  1  0  0  0  0
 40 38  2  0  0  0  0
M  END
>  <minimizedAffinity>
-6.33706665

$$$$

 OpenBabel03272502083D

 41 44  0  0  0  0  0  0  0  0999 V2000
   38.7820   25.0410   33.9450 F   0  0  0  0  0  0  0  0  0  0  0  0
   37.9950   24.0600   33.3980 C   0  0  0  0  0  0  0  0  0  0  0  0
   36.9680   24.3510   32.5060 C   0  0  0  0  0  0  0  0  0  0  0  0
   36.2320   23.3190   31.9800 C   0  0  0  0  0  0  0  0  0  0  0  0
   36.5080   21.9910   32.3330 C   0  0  0  0  0  0  0  0  0  0  0  0
   37.5400   21.7730   33.2230 C   0  0  0  0  0  0  0  0  0  0  0  0
   38.2860   22.7510   33.7630 C   0  0  0  0  0  0  0  0  0  0  0  0
   35.4530   23.6050   31.2990 H   0  0  0  0  0  0  0  0  0  0  0  0
   35.9110   21.2120   31.9010 H   0  0  0  0  0  0  0  0  0  0  0  0
   37.6870   20.7210   33.4430 H   0  0  0  0  0  0  0  0  0  0  0  0
   37.6710   23.0670   36.8190 Br  0  0  0  0  0  0  0  0  0  0  0  0
   39.3130   22.4700   36.0740 C   0  0  0  0  0  0  0  0  0  0  0  0
   39.3440   22.4450   34.7040 C   0  0  0  0  0  0  0  0  0  0  0  0
   40.5410   22.0510   34.0840 C   0  0  0  0  0  0  0  0  0  0  0  0
   41.6320   21.7060   34.8230 C   0  0  0  0  0  0  0  0  0  0  0  0
   41.5300   21.7520   36.1870 C   0  0  0  0  0  0  0  0  0  0  0  0
   40.3620   22.1370   36.8440 C   0  0  0  0  0  0  0  0  0  0  0  0
   40.6620   22.0000   33.0080 H   0  0  0  0  0  0  0  0  0  0  0  0
   42.5750   21.3970   34.3850 H   0  0  0  0  0  0  0  0  0  0  0  0
   42.3770   21.4840   36.8270 H   0  0  0  0  0  0  0  0  0  0  0  0
   40.1790   22.2070   38.1990 O   0  0  0  0  0  0  0  0  0  0  0  0
   40.4520   21.3950   38.7670 H   0  0  0  0  0  0  0  0  0  0  0  0
   36.4620   26.0910   30.9190 C   0  0  0  0  0  0  0  0  0  0  0  0
   36.7860   25.7510   32.2210 C   0  0  0  0  0  0  0  0  0  0  0  0
   36.8890   26.7720   33.1740 C   0  0  0  0  0  0  0  0  0  0  0  0
   36.6700   28.0610   32.8120 N   0  0  0  0  0  0  0  0  0  0  0  0
   36.3530   28.3450   31.5310 C   0  0  0  0  0  0  0  0  0  0  0  0
   36.2510   27.4040   30.6100 N   0  0  0  0  0  0  0  0  0  0  0  0
   36.3460   25.4260   30.0750 H   0  0  0  0  0  0  0  0  0  0  0  0
   37.1470   26.4740   34.1870 H   0  0  0  0  0  0  0  0  0  0  0  0
   33.7450   29.6070   32.4770 Cl  0  0  0  0  0  0  0  0  0  0  0  0
   34.9790   30.4280   31.5260 C   0  0  0  0  0  0  0  0  0  0  0  0
   36.1180   29.7400   31.1620 C   0  0  0  0  0  0  0  0  0  0  0  0
   37.0440   30.4500   30.4150 C   0  0  0  0  0  0  0  0  0  0  0  0
   37.9350   29.9030   30.1330 H   0  0  0  0  0  0  0  0  0  0  0  0
   36.8910   31.7740   30.0270 C   0  0  0  0  0  0  0  0  0  0  0  0
   37.6290   32.2830   29.4530 H   0  0  0  0  0  0  0  0  0  0  0  0
   35.7140   32.3560   30.4500 C   0  0  0  0  0  0  0  0  0  0  0  0
   35.5750   33.4070   30.1520 H   0  0  0  0  0  0  0  0  0  0  0  0
   34.7260   31.7450   31.1960 C   0  0  0  0  0  0  0  0  0  0  0  0
   33.2680   32.5880   31.6760 Cl  0  0  0  0  0  0  0  0  0  0  0  0
  2  7  1  0  0  0  0
  2  1  1  0  0  0  0
  3  2  2  0  0  0  0
  4  5  2  0  0  0  0
  4  3  1  0  0  0  0
  5  6  1  0  0  0  0
  6 10  1  0  0  0  0
  6  7  2  0  0  0  0
  7 13  1  0  0  0  0
  8  4  1  0  0  0  0
  9  5  1  0  0  0  0
 12 11  1  0  0  0  0
 12 17  1  0  0  0  0
 13 12  2  0  0  0  0
 14 13  1  0  0  0  0
 14 15  2  0  0  0  0
 15 16  1  0  0  0  0
 16 20  1  0  0  0  0
 16 17  2  0  0  0  0
 17 21  1  0  0  0  0
 18 14  1  0  0  0  0
 19 15  1  0  0  0  0
 21 22  1  0  0  0  0
 23 24  1  0  0  0  0
 24  3  1  0  0  0  0
 24 25  2  0  0  0  0
 25 30  1  0  0  0  0
 26 25  1  0  0  0  0
 27 26  2  0  0  0  0
 28 23  2  0  0  0  0
 28 27  1  0  0  0  0
 29 23  1  0  0  0  0
 32 31  1  0  0  0  0
 33 32  2  0  0  0  0
 33 27  1  0  0  0  0
 34 33  1  0  0  0  0
 35 34  1  0  0  0  0
 36 34  2  0  0  0  0
 36 38  1  0  0  0  0
 37 36  1  0  0  0  0
 38 40  2  0  0  0  0
 39 38  1  0  0  0  0
 40 32  1  0  0  0  0
 40 41  1  0  0  0  0
M  END
>  <minimizedAffinity>
-6.28112125

$$$$
