
 OpenBabel03272510283D

 47 51  0  0  1  0  0  0  0  0999 V2000
   33.4000   31.3800   34.1710 N   0  0  0  0  0  0  0  0  0  0  0  0
   33.8770   30.4410   33.2010 C   0  0  1  0  0  0  0  0  0  0  0  0
   33.4270   30.8260   31.8610 C   0  0  0  0  0  0  0  0  0  0  0  0
   32.0400   30.7360   31.8130 O   0  0  0  0  0  0  0  0  0  0  0  0
   31.3950   31.4690   32.7650 C   0  0  0  0  0  0  0  0  0  0  0  0
   31.9390   31.2960   34.1580 C   0  0  1  0  0  0  0  0  0  0  0  0
   33.5960   32.3580   34.0650 H   0  0  0  0  0  0  0  0  0  0  0  0
   33.4590   29.4370   33.4190 H   0  0  0  0  0  0  0  0  0  0  0  0
   33.6410   31.7530   31.3970 H   0  0  0  0  0  0  0  0  0  0  0  0
   33.7790   30.0210   31.1470 H   0  0  0  0  0  0  0  0  0  0  0  0
   30.3330   31.2560   32.7140 H   0  0  0  0  0  0  0  0  0  0  0  0
   31.5930   32.5520   32.5110 H   0  0  0  0  0  0  0  0  0  0  0  0
   31.5430   32.1590   34.7480 H   0  0  0  0  0  0  0  0  0  0  0  0
   32.3030   31.0400   37.2520 Cl  0  0  0  0  0  0  0  0  0  0  0  0
   31.7140   29.7980   36.1670 C   0  0  0  0  0  0  0  0  0  0  0  0
   31.5600   30.0280   34.8130 C   0  0  0  0  0  0  0  0  0  0  0  0
   31.0500   28.9540   34.1270 C   0  0  0  0  0  0  0  0  0  0  0  0
   30.8740   28.9800   33.0810 H   0  0  0  0  0  0  0  0  0  0  0  0
   30.7080   27.7350   34.6950 C   0  0  0  0  0  0  0  0  0  0  0  0
   30.3100   26.9050   34.1480 H   0  0  0  0  0  0  0  0  0  0  0  0
   30.8860   27.5650   36.0590 C   0  0  0  0  0  0  0  0  0  0  0  0
   30.6290   26.6270   36.5300 H   0  0  0  0  0  0  0  0  0  0  0  0
   31.3950   28.6130   36.7980 C   0  0  0  0  0  0  0  0  0  0  0  0
   31.5970   28.3380   38.5150 Cl  0  0  0  0  0  0  0  0  0  0  0  0
   35.2940   30.4560   33.2840 O   0  0  0  0  0  0  0  0  0  0  0  0
   37.7680   25.1080   33.6740 C   0  0  0  0  0  0  0  0  0  0  0  0
   37.9060   25.4870   34.9880 C   0  0  0  0  0  0  0  0  0  0  0  0
   37.4570   26.7410   35.4370 C   0  0  0  0  0  0  0  0  0  0  0  0
   36.8740   27.5570   34.4890 C   0  0  0  0  0  0  0  0  0  0  0  0
   36.3550   28.8120   34.6710 N   0  0  0  0  0  0  0  0  0  0  0  0
   35.8980   29.2070   33.4680 C   0  0  0  0  0  0  0  0  0  0  0  0
   36.1090   28.2650   32.5750 N   0  0  0  0  0  0  0  0  0  0  0  0
   36.7160   27.2140   33.1580 C   0  0  0  0  0  0  0  0  0  0  0  0
   37.1760   25.9570   32.7450 C   0  0  0  0  0  0  0  0  0  0  0  0
   38.1100   24.1470   33.3150 H   0  0  0  0  0  0  0  0  0  0  0  0
   37.5560   27.0590   36.4680 H   0  0  0  0  0  0  0  0  0  0  0  0
   36.3190   29.3690   35.5740 H   0  0  0  0  0  0  0  0  0  0  0  0
   37.0540   25.6860   31.7070 H   0  0  0  0  0  0  0  0  0  0  0  0
   40.0730   22.9450   36.7290 C   0  0  0  0  0  0  0  0  0  0  0  0
   39.6120   23.7650   35.7080 C   0  0  0  0  0  0  0  0  0  0  0  0
   38.5200   24.5660   35.9280 C   0  0  0  0  0  0  0  0  0  0  0  0
   37.9370   24.5030   37.1780 N   0  0  0  0  0  0  0  0  0  0  0  0
   38.3860   23.7060   38.1700 C   0  0  0  0  0  0  0  0  0  0  0  0
   39.4420   22.9390   37.9410 N   0  0  0  0  0  0  0  0  0  0  0  0
   40.9430   22.3260   36.5130 H   0  0  0  0  0  0  0  0  0  0  0  0
   40.0530   23.8220   34.7390 H   0  0  0  0  0  0  0  0  0  0  0  0
   37.8670   23.7210   39.1200 H   0  0  0  0  0  0  0  0  0  0  0  0
  2 25  1  0  0  0  0
  2  8  1  1  0  0  0
  2  1  1  0  0  0  0
  3  2  1  0  0  0  0
  4  3  1  0  0  0  0
  4  5  1  0  0  0  0
  5  6  1  0  0  0  0
  6  1  1  0  0  0  0
  6 13  1  1  0  0  0
  6 16  1  0  0  0  0
  7  1  1  0  0  0  0
  9  3  1  0  0  0  0
 10  3  1  0  0  0  0
 11  5  1  0  0  0  0
 12  5  1  0  0  0  0
 15 23  1  0  0  0  0
 15 14  1  0  0  0  0
 16 15  2  0  0  0  0
 17 19  2  0  0  0  0
 17 16  1  0  0  0  0
 18 17  1  0  0  0  0
 19 21  1  0  0  0  0
 20 19  1  0  0  0  0
 21 22  1  0  0  0  0
 21 23  2  0  0  0  0
 23 24  1  0  0  0  0
 25 31  1  0  0  0  0
 26 27  1  0  0  0  0
 27 28  2  0  0  0  0
 27 41  1  0  0  0  0
 28 36  1  0  0  0  0
 29 30  1  0  0  0  0
 29 28  1  0  0  0  0
 30 37  1  0  0  0  0
 31 30  1  0  0  0  0
 32 33  1  0  0  0  0
 32 31  2  0  0  0  0
 33 29  2  0  0  0  0
 34 33  1  0  0  0  0
 34 26  2  0  0  0  0
 35 26  1  0  0  0  0
 38 34  1  0  0  0  0
 39 44  1  0  0  0  0
 40 41  1  0  0  0  0
 40 39  2  0  0  0  0
 41 42  2  0  0  0  0
 42 43  1  0  0  0  0
 43 47  1  0  0  0  0
 44 43  2  0  0  0  0
 45 39  1  0  0  0  0
 46 40  1  0  0  0  0
M  END
>  <minimizedAffinity>
-6.5760169

$$$$

 OpenBabel03272510283D

 47 51  0  0  1  0  0  0  0  0999 V2000
   33.9210   31.3370   32.5450 N   0  0  0  0  0  0  0  0  0  0  0  0
   34.3020   30.0520   33.0490 C   0  0  1  0  0  0  0  0  0  0  0  0
   33.1890   29.1070   32.9160 C   0  0  0  0  0  0  0  0  0  0  0  0
   32.1440   29.5300   33.7300 O   0  0  0  0  0  0  0  0  0  0  0  0
   31.7230   30.8050   33.4890 C   0  0  0  0  0  0  0  0  0  0  0  0
   32.8320   31.8200   33.3950 C   0  0  1  0  0  0  0  0  0  0  0  0
   33.5690   31.4270   31.6090 H   0  0  0  0  0  0  0  0  0  0  0  0
   34.5440   30.1340   34.1280 H   0  0  0  0  0  0  0  0  0  0  0  0
   32.7190   28.8560   32.0030 H   0  0  0  0  0  0  0  0  0  0  0  0
   33.5240   28.1310   33.3840 H   0  0  0  0  0  0  0  0  0  0  0  0
   30.9850   31.0790   34.2340 H   0  0  0  0  0  0  0  0  0  0  0  0
   31.2590   30.7890   32.4590 H   0  0  0  0  0  0  0  0  0  0  0  0
   32.3820   32.7140   32.8970 H   0  0  0  0  0  0  0  0  0  0  0  0
   34.6490   34.3600   33.5100 Cl  0  0  0  0  0  0  0  0  0  0  0  0
   34.2640   33.2940   34.8450 C   0  0  0  0  0  0  0  0  0  0  0  0
   33.4190   32.2110   34.6910 C   0  0  0  0  0  0  0  0  0  0  0  0
   33.2010   31.5140   35.8530 C   0  0  0  0  0  0  0  0  0  0  0  0
   32.5740   30.6590   35.8930 H   0  0  0  0  0  0  0  0  0  0  0  0
   33.7540   31.8280   37.0870 C   0  0  0  0  0  0  0  0  0  0  0  0
   33.5750   31.2750   37.9860 H   0  0  0  0  0  0  0  0  0  0  0  0
   34.5950   32.9260   37.1770 C   0  0  0  0  0  0  0  0  0  0  0  0
   35.0410   33.1950   38.1240 H   0  0  0  0  0  0  0  0  0  0  0  0
   34.8480   33.6630   36.0390 C   0  0  0  0  0  0  0  0  0  0  0  0
   35.9170   35.0390   36.2170 Cl  0  0  0  0  0  0  0  0  0  0  0  0
   35.4200   29.6300   32.2830 O   0  0  0  0  0  0  0  0  0  0  0  0
   37.9980   24.5240   33.7520 C   0  0  0  0  0  0  0  0  0  0  0  0
   37.9650   25.0960   35.0010 C   0  0  0  0  0  0  0  0  0  0  0  0
   37.4240   26.3780   35.2020 C   0  0  0  0  0  0  0  0  0  0  0  0
   36.9340   27.0190   34.0830 C   0  0  0  0  0  0  0  0  0  0  0  0
   36.3580   28.2600   34.0130 N   0  0  0  0  0  0  0  0  0  0  0  0
   36.0370   28.4520   32.7200 C   0  0  0  0  0  0  0  0  0  0  0  0
   36.3840   27.4020   32.0090 N   0  0  0  0  0  0  0  0  0  0  0  0
   36.9490   26.4780   32.8090 C   0  0  0  0  0  0  0  0  0  0  0  0
   37.4960   25.1980   32.6450 C   0  0  0  0  0  0  0  0  0  0  0  0
   38.4100   23.5390   33.5830 H   0  0  0  0  0  0  0  0  0  0  0  0
   37.3890   26.8470   36.1790 H   0  0  0  0  0  0  0  0  0  0  0  0
   36.1950   28.9390   34.8120 H   0  0  0  0  0  0  0  0  0  0  0  0
   37.5080   24.7740   31.6520 H   0  0  0  0  0  0  0  0  0  0  0  0
   38.6200   23.5610   38.3770 C   0  0  0  0  0  0  0  0  0  0  0  0
   37.9940   24.3390   37.4130 C   0  0  0  0  0  0  0  0  0  0  0  0
   38.4890   24.3530   36.1330 C   0  0  0  0  0  0  0  0  0  0  0  0
   39.6020   23.5750   35.8820 N   0  0  0  0  0  0  0  0  0  0  0  0
   40.2090   22.8190   36.8190 C   0  0  0  0  0  0  0  0  0  0  0  0
   39.7180   22.8160   38.0500 N   0  0  0  0  0  0  0  0  0  0  0  0
   38.1950   23.5770   39.3800 H   0  0  0  0  0  0  0  0  0  0  0  0
   37.1350   24.9440   37.5950 H   0  0  0  0  0  0  0  0  0  0  0  0
   41.0770   22.2390   36.5330 H   0  0  0  0  0  0  0  0  0  0  0  0
  1  2  1  0  0  0  0
  1  6  1  0  0  0  0
  2  8  1  1  0  0  0
  3  2  1  0  0  0  0
  3 10  1  0  0  0  0
  3  4  1  0  0  0  0
  5  4  1  0  0  0  0
  5 11  1  0  0  0  0
  6 13  1  6  0  0  0
  6  5  1  0  0  0  0
  6 16  1  0  0  0  0
  7  1  1  0  0  0  0
  9  3  1  0  0  0  0
 12  5  1  0  0  0  0
 14 15  1  0  0  0  0
 15 23  1  0  0  0  0
 16 15  2  0  0  0  0
 16 17  1  0  0  0  0
 17 18  1  0  0  0  0
 17 19  2  0  0  0  0
 19 21  1  0  0  0  0
 19 20  1  0  0  0  0
 21 22  1  0  0  0  0
 23 24  1  0  0  0  0
 23 21  2  0  0  0  0
 25 31  1  0  0  0  0
 25  2  1  0  0  0  0
 26 27  1  0  0  0  0
 27 28  2  0  0  0  0
 27 41  1  0  0  0  0
 28 36  1  0  0  0  0
 29 28  1  0  0  0  0
 30 29  1  0  0  0  0
 30 37  1  0  0  0  0
 31 30  1  0  0  0  0
 32 31  2  0  0  0  0
 32 33  1  0  0  0  0
 33 29  2  0  0  0  0
 34 33  1  0  0  0  0
 34 26  2  0  0  0  0
 35 26  1  0  0  0  0
 38 34  1  0  0  0  0
 39 45  1  0  0  0  0
 40 46  1  0  0  0  0
 40 39  2  0  0  0  0
 41 40  1  0  0  0  0
 42 41  2  0  0  0  0
 42 43  1  0  0  0  0
 43 44  2  0  0  0  0
 44 39  1  0  0  0  0
 47 43  1  0  0  0  0
M  END
>  <minimizedAffinity>
-6.43614292

$$$$

 OpenBabel03272510283D

 47 51  0  0  1  0  0  0  0  0999 V2000
   39.0770   23.6390   32.1270 N   0  0  0  0  0  0  0  0  0  0  0  0
   38.9710   25.0270   32.4590 C   0  0  1  0  0  0  0  0  0  0  0  0
   40.2810   25.6760   32.3470 C   0  0  0  0  0  0  0  0  0  0  0  0
   41.1320   25.1290   33.3020 O   0  0  0  0  0  0  0  0  0  0  0  0
   41.2600   23.7730   33.2330 C   0  0  0  0  0  0  0  0  0  0  0  0
   39.9550   23.0300   33.1270 C   0  0  1  0  0  0  0  0  0  0  0  0
   39.4690   23.3600   31.2460 H   0  0  0  0  0  0  0  0  0  0  0  0
   38.6340   25.1320   33.5110 H   0  0  0  0  0  0  0  0  0  0  0  0
   40.8660   25.7020   31.4660 H   0  0  0  0  0  0  0  0  0  0  0  0
   40.1500   26.7500   32.6790 H   0  0  0  0  0  0  0  0  0  0  0  0
   41.8550   23.4320   34.0720 H   0  0  0  0  0  0  0  0  0  0  0  0
   41.7930   23.5610   32.2590 H   0  0  0  0  0  0  0  0  0  0  0  0
   40.2180   22.0040   32.7690 H   0  0  0  0  0  0  0  0  0  0  0  0
   37.5440   21.0460   33.2850 Cl  0  0  0  0  0  0  0  0  0  0  0  0
   38.0920   22.1220   34.5540 C   0  0  0  0  0  0  0  0  0  0  0  0
   39.1950   22.9390   34.3890 C   0  0  0  0  0  0  0  0  0  0  0  0
   39.4990   23.6830   35.5020 C   0  0  0  0  0  0  0  0  0  0  0  0
   40.3200   24.3550   35.5280 H   0  0  0  0  0  0  0  0  0  0  0  0
   38.7960   23.6520   36.6980 C   0  0  0  0  0  0  0  0  0  0  0  0
   39.0450   24.2370   37.5600 H   0  0  0  0  0  0  0  0  0  0  0  0
   37.6980   22.8120   36.8020 C   0  0  0  0  0  0  0  0  0  0  0  0
   37.1310   22.7660   37.7200 H   0  0  0  0  0  0  0  0  0  0  0  0
   37.3480   22.0410   35.7130 C   0  0  0  0  0  0  0  0  0  0  0  0
   35.9530   21.0000   35.9040 Cl  0  0  0  0  0  0  0  0  0  0  0  0
   38.0450   25.5940   31.5450 O   0  0  0  0  0  0  0  0  0  0  0  0
   35.5690   30.7710   32.9390 C   0  0  0  0  0  0  0  0  0  0  0  0
   35.4690   30.1660   34.1690 C   0  0  0  0  0  0  0  0  0  0  0  0
   35.9350   28.8560   34.3770 C   0  0  0  0  0  0  0  0  0  0  0  0
   36.4930   28.2240   33.2850 C   0  0  0  0  0  0  0  0  0  0  0  0
   37.0190   26.9600   33.2280 N   0  0  0  0  0  0  0  0  0  0  0  0
   37.4430   26.7880   31.9620 C   0  0  0  0  0  0  0  0  0  0  0  0
   37.2040   27.8700   31.2560 N   0  0  0  0  0  0  0  0  0  0  0  0
   36.6120   28.7970   32.0320 C   0  0  0  0  0  0  0  0  0  0  0  0
   36.1360   30.1040   31.8590 C   0  0  0  0  0  0  0  0  0  0  0  0
   35.2150   31.7780   32.7650 H   0  0  0  0  0  0  0  0  0  0  0  0
   35.8650   28.3610   35.3390 H   0  0  0  0  0  0  0  0  0  0  0  0
   37.0830   26.2540   34.0180 H   0  0  0  0  0  0  0  0  0  0  0  0
   36.2280   30.5540   30.8820 H   0  0  0  0  0  0  0  0  0  0  0  0
   34.7850   32.4330   37.0980 C   0  0  0  0  0  0  0  0  0  0  0  0
   35.5070   31.8120   36.0870 C   0  0  0  0  0  0  0  0  0  0  0  0
   34.8810   30.9020   35.2740 C   0  0  0  0  0  0  0  0  0  0  0  0
   33.5440   30.6560   35.5190 N   0  0  0  0  0  0  0  0  0  0  0  0
   32.8440   31.2600   36.5010 C   0  0  0  0  0  0  0  0  0  0  0  0
   33.4630   32.1370   37.2770 N   0  0  0  0  0  0  0  0  0  0  0  0
   35.3200   33.1490   37.7210 H   0  0  0  0  0  0  0  0  0  0  0  0
   36.5390   31.9930   35.8890 H   0  0  0  0  0  0  0  0  0  0  0  0
   31.7980   31.0070   36.6210 H   0  0  0  0  0  0  0  0  0  0  0  0
  1  2  1  0  0  0  0
  1  6  1  0  0  0  0
  2  8  1  1  0  0  0
  3  2  1  0  0  0  0
  3 10  1  0  0  0  0
  3  4  1  0  0  0  0
  5  4  1  0  0  0  0
  5 11  1  0  0  0  0
  6 13  1  6  0  0  0
  6  5  1  0  0  0  0
  6 16  1  0  0  0  0
  7  1  1  0  0  0  0
  9  3  1  0  0  0  0
 12  5  1  0  0  0  0
 14 15  1  0  0  0  0
 15 23  1  0  0  0  0
 16 15  2  0  0  0  0
 16 17  1  0  0  0  0
 17 18  1  0  0  0  0
 17 19  2  0  0  0  0
 19 21  1  0  0  0  0
 19 20  1  0  0  0  0
 21 22  1  0  0  0  0
 23 24  1  0  0  0  0
 23 21  2  0  0  0  0
 25 31  1  0  0  0  0
 25  2  1  0  0  0  0
 26 27  1  0  0  0  0
 27 28  2  0  0  0  0
 27 41  1  0  0  0  0
 28 36  1  0  0  0  0
 29 28  1  0  0  0  0
 30 29  1  0  0  0  0
 30 37  1  0  0  0  0
 31 30  1  0  0  0  0
 32 31  2  0  0  0  0
 32 33  1  0  0  0  0
 33 29  2  0  0  0  0
 34 33  1  0  0  0  0
 34 26  2  0  0  0  0
 35 26  1  0  0  0  0
 38 34  1  0  0  0  0
 39 44  1  0  0  0  0
 39 45  1  0  0  0  0
 40 39  2  0  0  0  0
 41 42  2  0  0  0  0
 41 40  1  0  0  0  0
 42 43  1  0  0  0  0
 43 47  1  0  0  0  0
 43 44  2  0  0  0  0
 46 40  1  0  0  0  0
M  END
>  <minimizedAffinity>
-6.38108969

$$$$

 OpenBabel03272510283D

 47 51  0  0  1  0  0  0  0  0999 V2000
   36.5800   29.6760   31.8290 N   0  0  0  0  0  0  0  0  0  0  0  0
   36.2840   29.3300   30.4720 C   0  0  1  0  0  0  0  0  0  0  0  0
   36.9890   30.2290   29.5550 C   0  0  0  0  0  0  0  0  0  0  0  0
   36.4950   31.5180   29.7250 O   0  0  0  0  0  0  0  0  0  0  0  0
   36.5670   31.9840   31.0050 C   0  0  0  0  0  0  0  0  0  0  0  0
   36.0540   31.0250   32.0460 C   0  0  1  0  0  0  0  0  0  0  0  0
   37.5330   29.7250   32.1400 H   0  0  0  0  0  0  0  0  0  0  0  0
   35.1970   29.4490   30.2870 H   0  0  0  0  0  0  0  0  0  0  0  0
   38.0390   30.3580   29.5270 H   0  0  0  0  0  0  0  0  0  0  0  0
   36.6720   29.9500   28.5040 H   0  0  0  0  0  0  0  0  0  0  0  0
   36.0680   32.9450   31.0580 H   0  0  0  0  0  0  0  0  0  0  0  0
   37.6680   32.0970   31.2330 H   0  0  0  0  0  0  0  0  0  0  0  0
   36.4560   31.3940   33.0220 H   0  0  0  0  0  0  0  0  0  0  0  0
   34.7800   29.3360   34.3470 Cl  0  0  0  0  0  0  0  0  0  0  0  0
   33.9200   30.1730   33.0710 C   0  0  0  0  0  0  0  0  0  0  0  0
   34.5830   30.9220   32.1170 C   0  0  0  0  0  0  0  0  0  0  0  0
   33.7460   31.5390   31.2220 C   0  0  0  0  0  0  0  0  0  0  0  0
   34.1070   32.1490   30.4330 H   0  0  0  0  0  0  0  0  0  0  0  0
   32.3600   31.4470   31.2330 C   0  0  0  0  0  0  0  0  0  0  0  0
   31.7180   31.9350   30.5280 H   0  0  0  0  0  0  0  0  0  0  0  0
   31.7540   30.6800   32.2150 C   0  0  0  0  0  0  0  0  0  0  0  0
   30.6770   30.5900   32.2490 H   0  0  0  0  0  0  0  0  0  0  0  0
   32.5490   30.0380   33.1420 C   0  0  0  0  0  0  0  0  0  0  0  0
   31.7250   29.0850   34.3570 Cl  0  0  0  0  0  0  0  0  0  0  0  0
   36.7090   27.9870   30.2930 O   0  0  0  0  0  0  0  0  0  0  0  0
   40.2020   25.8900   34.5680 C   0  0  0  0  0  0  0  0  0  0  0  0
   39.0170   25.3400   34.9930 C   0  0  0  0  0  0  0  0  0  0  0  0
   37.8200   25.5520   34.2870 C   0  0  0  0  0  0  0  0  0  0  0  0
   37.9070   26.3360   33.1550 C   0  0  0  0  0  0  0  0  0  0  0  0
   36.8970   26.6850   32.2980 N   0  0  0  0  0  0  0  0  0  0  0  0
   37.4610   27.4510   31.3460 C   0  0  0  0  0  0  0  0  0  0  0  0
   38.7480   27.5830   31.5770 N   0  0  0  0  0  0  0  0  0  0  0  0
   39.0800   26.9070   32.6930 C   0  0  0  0  0  0  0  0  0  0  0  0
   40.2550   26.6760   33.4220 C   0  0  0  0  0  0  0  0  0  0  0  0
   41.1310   25.7350   35.1010 H   0  0  0  0  0  0  0  0  0  0  0  0
   36.8750   25.1280   34.6060 H   0  0  0  0  0  0  0  0  0  0  0  0
   35.8730   26.4120   32.3660 H   0  0  0  0  0  0  0  0  0  0  0  0
   41.1710   27.1210   33.0640 H   0  0  0  0  0  0  0  0  0  0  0  0
   39.6780   22.7670   37.6630 C   0  0  0  0  0  0  0  0  0  0  0  0
   39.8180   23.4420   36.4570 C   0  0  0  0  0  0  0  0  0  0  0  0
   39.0080   24.5160   36.1890 C   0  0  0  0  0  0  0  0  0  0  0  0
   38.0850   24.8640   37.1550 N   0  0  0  0  0  0  0  0  0  0  0  0
   37.9500   24.2080   38.3260 C   0  0  0  0  0  0  0  0  0  0  0  0
   38.7400   23.1740   38.5700 N   0  0  0  0  0  0  0  0  0  0  0  0
   40.3410   21.9210   37.8370 H   0  0  0  0  0  0  0  0  0  0  0  0
   40.5260   23.1820   35.7040 H   0  0  0  0  0  0  0  0  0  0  0  0
   37.1990   24.5510   39.0270 H   0  0  0  0  0  0  0  0  0  0  0  0
  1  6  1  0  0  0  0
  1  7  1  0  0  0  0
  2  8  1  6  0  0  0
  2  1  1  0  0  0  0
  3  4  1  0  0  0  0
  3  2  1  0  0  0  0
  4  5  1  0  0  0  0
  5 11  1  0  0  0  0
  5 12  1  0  0  0  0
  5  6  1  0  0  0  0
  6 16  1  0  0  0  0
  6 13  1  1  0  0  0
  9  3  1  0  0  0  0
 10  3  1  0  0  0  0
 15 23  1  0  0  0  0
 15 14  1  0  0  0  0
 16 15  2  0  0  0  0
 17 19  2  0  0  0  0
 17 16  1  0  0  0  0
 18 17  1  0  0  0  0
 19 21  1  0  0  0  0
 20 19  1  0  0  0  0
 21 22  1  0  0  0  0
 21 23  2  0  0  0  0
 23 24  1  0  0  0  0
 25  2  1  0  0  0  0
 25 31  1  0  0  0  0
 26 27  1  0  0  0  0
 26 35  1  0  0  0  0
 27 41  1  0  0  0  0
 28 36  1  0  0  0  0
 28 27  2  0  0  0  0
 29 28  1  0  0  0  0
 30 37  1  0  0  0  0
 30 29  1  0  0  0  0
 31 32  2  0  0  0  0
 31 30  1  0  0  0  0
 32 33  1  0  0  0  0
 33 29  2  0  0  0  0
 33 34  1  0  0  0  0
 34 26  2  0  0  0  0
 38 34  1  0  0  0  0
 39 45  1  0  0  0  0
 39 44  1  0  0  0  0
 40 39  2  0  0  0  0
 41 40  1  0  0  0  0
 41 42  2  0  0  0  0
 42 43  1  0  0  0  0
 43 44  2  0  0  0  0
 43 47  1  0  0  0  0
 46 40  1  0  0  0  0
M  END
>  <minimizedAffinity>
-6.12721348

$$$$

 OpenBabel03272510283D

 47 51  0  0  1  0  0  0  0  0999 V2000
   37.4160   24.3750   30.3310 N   0  0  0  0  0  0  0  0  0  0  0  0
   37.4070   25.5760   31.1100 C   0  0  1  0  0  0  0  0  0  0  0  0
   38.6070   26.3700   30.8300 C   0  0  0  0  0  0  0  0  0  0  0  0
   39.7230   25.6590   31.2570 O   0  0  0  0  0  0  0  0  0  0  0  0
   39.8350   24.4110   30.7180 C   0  0  0  0  0  0  0  0  0  0  0  0
   38.5720   23.5930   30.7710 C   0  0  1  0  0  0  0  0  0  0  0  0
   37.5100   24.4220   29.3330 H   0  0  0  0  0  0  0  0  0  0  0  0
   37.4210   25.3180   32.1890 H   0  0  0  0  0  0  0  0  0  0  0  0
   38.8800   26.7280   29.8730 H   0  0  0  0  0  0  0  0  0  0  0  0
   38.5770   27.2720   31.5140 H   0  0  0  0  0  0  0  0  0  0  0  0
   40.6700   23.9000   31.1840 H   0  0  0  0  0  0  0  0  0  0  0  0
   40.0330   24.5650   29.6160 H   0  0  0  0  0  0  0  0  0  0  0  0
   38.7190   22.7610   30.0400 H   0  0  0  0  0  0  0  0  0  0  0  0
   36.3340   21.4230   30.9940 Cl  0  0  0  0  0  0  0  0  0  0  0  0
   37.2600   22.1030   32.3160 C   0  0  0  0  0  0  0  0  0  0  0  0
   38.2540   23.0400   32.1020 C   0  0  0  0  0  0  0  0  0  0  0  0
   38.8990   23.4290   33.2490 C   0  0  0  0  0  0  0  0  0  0  0  0
   39.6870   24.1400   33.2440 H   0  0  0  0  0  0  0  0  0  0  0  0
   38.6150   22.9570   34.5230 C   0  0  0  0  0  0  0  0  0  0  0  0
   39.1270   23.2700   35.4100 H   0  0  0  0  0  0  0  0  0  0  0  0
   37.6060   22.0190   34.6740 C   0  0  0  0  0  0  0  0  0  0  0  0
   37.3610   21.6340   35.6530 H   0  0  0  0  0  0  0  0  0  0  0  0
   36.9240   21.5920   33.5530 C   0  0  0  0  0  0  0  0  0  0  0  0
   35.6610   20.4070   33.8070 Cl  0  0  0  0  0  0  0  0  0  0  0  0
   36.2320   26.2860   30.7490 O   0  0  0  0  0  0  0  0  0  0  0  0
   35.9310   31.9000   32.5560 C   0  0  0  0  0  0  0  0  0  0  0  0
   35.6030   31.2920   33.7430 C   0  0  0  0  0  0  0  0  0  0  0  0
   35.5290   29.8920   33.8500 C   0  0  0  0  0  0  0  0  0  0  0  0
   35.8040   29.1750   32.7030 C   0  0  0  0  0  0  0  0  0  0  0  0
   35.8050   27.8150   32.5470 N   0  0  0  0  0  0  0  0  0  0  0  0
   36.1340   27.5850   31.2620 C   0  0  0  0  0  0  0  0  0  0  0  0
   36.3310   28.7250   30.6370 N   0  0  0  0  0  0  0  0  0  0  0  0
   36.1380   29.7490   31.4890 C   0  0  0  0  0  0  0  0  0  0  0  0
   36.2020   31.1470   31.4190 C   0  0  0  0  0  0  0  0  0  0  0  0
   35.9910   32.9760   32.4590 H   0  0  0  0  0  0  0  0  0  0  0  0
   35.2710   29.3930   34.7770 H   0  0  0  0  0  0  0  0  0  0  0  0
   35.5900   27.0820   33.2850 H   0  0  0  0  0  0  0  0  0  0  0  0
   36.4620   31.5970   30.4730 H   0  0  0  0  0  0  0  0  0  0  0  0
   34.6760   32.6230   37.1420 C   0  0  0  0  0  0  0  0  0  0  0  0
   34.8640   31.6950   36.1270 C   0  0  0  0  0  0  0  0  0  0  0  0
   35.3390   32.1150   34.9100 C   0  0  0  0  0  0  0  0  0  0  0  0
   35.6040   33.4630   34.7710 N   0  0  0  0  0  0  0  0  0  0  0  0
   35.4200   34.3640   35.7580 C   0  0  0  0  0  0  0  0  0  0  0  0
   34.9620   33.9420   36.9270 N   0  0  0  0  0  0  0  0  0  0  0  0
   34.2990   32.2480   38.0930 H   0  0  0  0  0  0  0  0  0  0  0  0
   34.6630   30.6520   36.2230 H   0  0  0  0  0  0  0  0  0  0  0  0
   35.6550   35.4020   35.5600 H   0  0  0  0  0  0  0  0  0  0  0  0
  1  6  1  0  0  0  0
  1  2  1  0  0  0  0
  2  8  1  1  0  0  0
  3  2  1  0  0  0  0
  3  4  1  0  0  0  0
  3 10  1  0  0  0  0
  5  6  1  0  0  0  0
  5 11  1  0  0  0  0
  5  4  1  0  0  0  0
  6 13  1  6  0  0  0
  6 16  1  0  0  0  0
  7  1  1  0  0  0  0
  9  3  1  0  0  0  0
 12  5  1  0  0  0  0
 14 15  1  0  0  0  0
 15 23  1  0  0  0  0
 16 15  2  0  0  0  0
 16 17  1  0  0  0  0
 17 19  2  0  0  0  0
 18 17  1  0  0  0  0
 19 21  1  0  0  0  0
 19 20  1  0  0  0  0
 21 22  1  0  0  0  0
 23 24  1  0  0  0  0
 23 21  2  0  0  0  0
 25  2  1  0  0  0  0
 25 31  1  0  0  0  0
 26 27  1  0  0  0  0
 27 28  2  0  0  0  0
 27 41  1  0  0  0  0
 28 36  1  0  0  0  0
 29 28  1  0  0  0  0
 30 29  1  0  0  0  0
 30 37  1  0  0  0  0
 31 30  1  0  0  0  0
 32 31  2  0  0  0  0
 32 33  1  0  0  0  0
 33 29  2  0  0  0  0
 34 33  1  0  0  0  0
 34 26  2  0  0  0  0
 35 26  1  0  0  0  0
 38 34  1  0  0  0  0
 39 45  1  0  0  0  0
 40 46  1  0  0  0  0
 40 39  2  0  0  0  0
 41 40  1  0  0  0  0
 42 41  2  0  0  0  0
 42 43  1  0  0  0  0
 43 44  2  0  0  0  0
 44 39  1  0  0  0  0
 47 43  1  0  0  0  0
M  END
>  <minimizedAffinity>
-6.06355238

$$$$

 OpenBabel03272510283D

 47 51  0  0  1  0  0  0  0  0999 V2000
   38.3530   23.8990   33.5260 N   0  0  0  0  0  0  0  0  0  0  0  0
   39.6420   23.9240   32.9040 C   0  0  1  0  0  0  0  0  0  0  0  0
   39.6890   22.9620   31.8000 C   0  0  0  0  0  0  0  0  0  0  0  0
   39.5520   21.6790   32.3180 O   0  0  0  0  0  0  0  0  0  0  0  0
   38.4290   21.4930   33.0700 C   0  0  0  0  0  0  0  0  0  0  0  0
   38.1850   22.5630   34.1000 C   0  0  1  0  0  0  0  0  0  0  0  0
   37.5250   24.0420   32.9770 H   0  0  0  0  0  0  0  0  0  0  0  0
   40.4150   23.6240   33.6420 H   0  0  0  0  0  0  0  0  0  0  0  0
   39.0400   22.9730   30.9650 H   0  0  0  0  0  0  0  0  0  0  0  0
   40.7430   22.9800   31.3870 H   0  0  0  0  0  0  0  0  0  0  0  0
   38.4610   20.5030   33.5120 H   0  0  0  0  0  0  0  0  0  0  0  0
   37.5580   21.5770   32.3540 H   0  0  0  0  0  0  0  0  0  0  0  0
   37.1140   22.4550   34.4020 H   0  0  0  0  0  0  0  0  0  0  0  0
   37.1990   23.8670   36.7650 Cl  0  0  0  0  0  0  0  0  0  0  0  0
   38.7270   23.0510   36.5080 C   0  0  0  0  0  0  0  0  0  0  0  0
   39.0520   22.4790   35.2920 C   0  0  0  0  0  0  0  0  0  0  0  0
   40.2710   21.8500   35.2880 C   0  0  0  0  0  0  0  0  0  0  0  0
   40.6560   21.3620   34.4270 H   0  0  0  0  0  0  0  0  0  0  0  0
   41.1310   21.7700   36.3750 C   0  0  0  0  0  0  0  0  0  0  0  0
   42.0800   21.2750   36.3580 H   0  0  0  0  0  0  0  0  0  0  0  0
   40.7500   22.3650   37.5680 C   0  0  0  0  0  0  0  0  0  0  0  0
   41.3980   22.3200   38.4310 H   0  0  0  0  0  0  0  0  0  0  0  0
   39.5330   23.0110   37.6280 C   0  0  0  0  0  0  0  0  0  0  0  0
   39.1060   23.7420   39.1600 Cl  0  0  0  0  0  0  0  0  0  0  0  0
   39.8410   25.2480   32.4330 O   0  0  0  0  0  0  0  0  0  0  0  0
   35.1180   28.7850   32.6670 C   0  0  0  0  0  0  0  0  0  0  0  0
   35.6070   29.0240   33.9290 C   0  0  0  0  0  0  0  0  0  0  0  0
   36.7730   28.3900   34.3910 C   0  0  0  0  0  0  0  0  0  0  0  0
   37.3900   27.5250   33.5100 C   0  0  0  0  0  0  0  0  0  0  0  0
   38.5320   26.7950   33.7150 N   0  0  0  0  0  0  0  0  0  0  0  0
   38.7450   26.1070   32.5780 C   0  0  0  0  0  0  0  0  0  0  0  0
   37.8030   26.3790   31.7030 N   0  0  0  0  0  0  0  0  0  0  0  0
   36.9310   27.2580   32.2330 C   0  0  0  0  0  0  0  0  0  0  0  0
   35.7650   27.9070   31.8050 C   0  0  0  0  0  0  0  0  0  0  0  0
   34.2220   29.2660   32.2980 H   0  0  0  0  0  0  0  0  0  0  0  0
   37.1750   28.5640   35.3820 H   0  0  0  0  0  0  0  0  0  0  0  0
   39.1310   26.7710   34.5900 H   0  0  0  0  0  0  0  0  0  0  0  0
   35.4050   27.7000   30.8080 H   0  0  0  0  0  0  0  0  0  0  0  0
   33.0510   31.0020   35.8630 C   0  0  0  0  0  0  0  0  0  0  0  0
   33.5520   30.0480   34.9870 C   0  0  0  0  0  0  0  0  0  0  0  0
   34.9080   29.9580   34.7940 C   0  0  0  0  0  0  0  0  0  0  0  0
   35.7030   30.8400   35.4970 N   0  0  0  0  0  0  0  0  0  0  0  0
   35.2150   31.7660   36.3480 C   0  0  0  0  0  0  0  0  0  0  0  0
   33.9040   31.8400   36.5240 N   0  0  0  0  0  0  0  0  0  0  0  0
   31.9700   31.0400   35.9880 H   0  0  0  0  0  0  0  0  0  0  0  0
   32.9490   29.3610   34.4380 H   0  0  0  0  0  0  0  0  0  0  0  0
   35.9130   32.4190   36.8580 H   0  0  0  0  0  0  0  0  0  0  0  0
  1  6  1  0  0  0  0
  2  1  1  0  0  0  0
  2  8  1  1  0  0  0
  3  4  1  0  0  0  0
  3  2  1  0  0  0  0
  4  5  1  0  0  0  0
  5 11  1  0  0  0  0
  5  6  1  0  0  0  0
  6 13  1  1  0  0  0
  6 16  1  0  0  0  0
  7  1  1  0  0  0  0
  9  3  1  0  0  0  0
 10  3  1  0  0  0  0
 12  5  1  0  0  0  0
 15 14  1  0  0  0  0
 15 23  1  0  0  0  0
 16 15  2  0  0  0  0
 17 16  1  0  0  0  0
 17 19  2  0  0  0  0
 18 17  1  0  0  0  0
 19 21  1  0  0  0  0
 20 19  1  0  0  0  0
 21 23  2  0  0  0  0
 21 22  1  0  0  0  0
 23 24  1  0  0  0  0
 25 31  1  0  0  0  0
 25  2  1  0  0  0  0
 26 27  1  0  0  0  0
 27 28  2  0  0  0  0
 27 41  1  0  0  0  0
 28 36  1  0  0  0  0
 29 30  1  0  0  0  0
 29 28  1  0  0  0  0
 30 37  1  0  0  0  0
 31 30  1  0  0  0  0
 32 33  1  0  0  0  0
 32 31  2  0  0  0  0
 33 29  2  0  0  0  0
 34 33  1  0  0  0  0
 34 26  2  0  0  0  0
 35 26  1  0  0  0  0
 38 34  1  0  0  0  0
 39 45  1  0  0  0  0
 39 44  1  0  0  0  0
 40 39  2  0  0  0  0
 41 40  1  0  0  0  0
 41 42  2  0  0  0  0
 42 43  1  0  0  0  0
 43 44  2  0  0  0  0
 43 47  1  0  0  0  0
 46 40  1  0  0  0  0
M  END
>  <minimizedAffinity>
-6.04660368

$$$$

 OpenBabel03272510283D

 47 51  0  0  1  0  0  0  0  0999 V2000
   33.7200   30.8820   32.4600 N   0  0  0  0  0  0  0  0  0  0  0  0
   33.7550   29.5620   33.0120 C   0  0  1  0  0  0  0  0  0  0  0  0
   32.4140   28.9690   32.9880 C   0  0  0  0  0  0  0  0  0  0  0  0
   31.5860   29.7030   33.8300 O   0  0  0  0  0  0  0  0  0  0  0  0
   31.5270   31.0350   33.5420 C   0  0  0  0  0  0  0  0  0  0  0  0
   32.8690   31.6870   33.3370 C   0  0  1  0  0  0  0  0  0  0  0  0
   33.3490   31.0350   31.5400 H   0  0  0  0  0  0  0  0  0  0  0  0
   34.0790   29.6120   34.0720 H   0  0  0  0  0  0  0  0  0  0  0  0
   31.8350   28.8300   32.1140 H   0  0  0  0  0  0  0  0  0  0  0  0
   32.4890   27.9570   33.4890 H   0  0  0  0  0  0  0  0  0  0  0  0
   30.9450   31.5350   34.3080 H   0  0  0  0  0  0  0  0  0  0  0  0
   31.0120   31.1130   32.5400 H   0  0  0  0  0  0  0  0  0  0  0  0
   32.6590   32.6530   32.8160 H   0  0  0  0  0  0  0  0  0  0  0  0
   31.6870   33.6910   35.4240 Cl  0  0  0  0  0  0  0  0  0  0  0  0
   33.2090   32.8350   35.5500 C   0  0  0  0  0  0  0  0  0  0  0  0
   33.6250   31.9420   34.5790 C   0  0  0  0  0  0  0  0  0  0  0  0
   34.8220   31.3370   34.8650 C   0  0  0  0  0  0  0  0  0  0  0  0
   35.2690   30.6260   34.2160 H   0  0  0  0  0  0  0  0  0  0  0  0
   35.5800   31.5670   36.0050 C   0  0  0  0  0  0  0  0  0  0  0  0
   36.5140   31.0870   36.2170 H   0  0  0  0  0  0  0  0  0  0  0  0
   35.1110   32.4750   36.9420 C   0  0  0  0  0  0  0  0  0  0  0  0
   35.6790   32.6750   37.8390 H   0  0  0  0  0  0  0  0  0  0  0  0
   33.9110   33.1130   36.7050 C   0  0  0  0  0  0  0  0  0  0  0  0
   33.3710   34.2480   37.9230 Cl  0  0  0  0  0  0  0  0  0  0  0  0
   34.6570   28.8110   32.2140 O   0  0  0  0  0  0  0  0  0  0  0  0
   39.3210   26.9800   35.3400 C   0  0  0  0  0  0  0  0  0  0  0  0
   39.8360   26.7840   34.0810 C   0  0  0  0  0  0  0  0  0  0  0  0
   39.0840   27.0780   32.9310 C   0  0  0  0  0  0  0  0  0  0  0  0
   37.8120   27.5710   33.1400 C   0  0  0  0  0  0  0  0  0  0  0  0
   36.8900   27.9360   32.1960 N   0  0  0  0  0  0  0  0  0  0  0  0
   35.8060   28.3570   32.8730 C   0  0  0  0  0  0  0  0  0  0  0  0
   36.0200   28.2670   34.1670 N   0  0  0  0  0  0  0  0  0  0  0  0
   37.2560   27.7830   34.3900 C   0  0  0  0  0  0  0  0  0  0  0  0
   38.0340   27.4780   35.5150 C   0  0  0  0  0  0  0  0  0  0  0  0
   39.8880   26.7580   36.2330 H   0  0  0  0  0  0  0  0  0  0  0  0
   39.4720   26.9310   31.9300 H   0  0  0  0  0  0  0  0  0  0  0  0
   36.9990   27.8970   31.1410 H   0  0  0  0  0  0  0  0  0  0  0  0
   37.6030   27.6420   36.4910 H   0  0  0  0  0  0  0  0  0  0  0  0
   43.2560   25.3010   34.6210 C   0  0  0  0  0  0  0  0  0  0  0  0
   41.9810   25.7540   34.9340 C   0  0  0  0  0  0  0  0  0  0  0  0
   41.1890   26.2740   33.9420 C   0  0  0  0  0  0  0  0  0  0  0  0
   41.7210   26.3150   32.6690 N   0  0  0  0  0  0  0  0  0  0  0  0
   42.9600   25.8740   32.3660 C   0  0  0  0  0  0  0  0  0  0  0  0
   43.7130   25.3740   33.3350 N   0  0  0  0  0  0  0  0  0  0  0  0
   43.8520   24.8950   35.4370 H   0  0  0  0  0  0  0  0  0  0  0  0
   41.5590   25.7270   35.9130 H   0  0  0  0  0  0  0  0  0  0  0  0
   43.2970   25.9450   31.3390 H   0  0  0  0  0  0  0  0  0  0  0  0
  1  2  1  0  0  0  0
  1  6  1  0  0  0  0
  2  8  1  1  0  0  0
  3  2  1  0  0  0  0
  3 10  1  0  0  0  0
  3  4  1  0  0  0  0
  5  4  1  0  0  0  0
  5 11  1  0  0  0  0
  6 13  1  6  0  0  0
  6  5  1  0  0  0  0
  6 16  1  0  0  0  0
  7  1  1  0  0  0  0
  9  3  1  0  0  0  0
 12  5  1  0  0  0  0
 14 15  1  0  0  0  0
 15 23  1  0  0  0  0
 16 17  1  0  0  0  0
 16 15  2  0  0  0  0
 17 19  2  0  0  0  0
 18 17  1  0  0  0  0
 19 20  1  0  0  0  0
 19 21  1  0  0  0  0
 21 22  1  0  0  0  0
 23 21  2  0  0  0  0
 23 24  1  0  0  0  0
 25 31  1  0  0  0  0
 25  2  1  0  0  0  0
 26 34  1  0  0  0  0
 26 35  1  0  0  0  0
 27 26  2  0  0  0  0
 28 29  2  0  0  0  0
 28 27  1  0  0  0  0
 29 33  1  0  0  0  0
 30 31  1  0  0  0  0
 30 29  1  0  0  0  0
 31 32  2  0  0  0  0
 32 33  1  0  0  0  0
 33 34  2  0  0  0  0
 34 38  1  0  0  0  0
 36 28  1  0  0  0  0
 37 30  1  0  0  0  0
 39 40  1  0  0  0  0
 39 45  1  0  0  0  0
 40 46  1  0  0  0  0
 41 27  1  0  0  0  0
 41 40  2  0  0  0  0
 42 41  1  0  0  0  0
 43 42  2  0  0  0  0
 43 44  1  0  0  0  0
 44 39  2  0  0  0  0
 47 43  1  0  0  0  0
M  END
>  <minimizedAffinity>
-6.02851534

$$$$

 OpenBabel03272510283D

 47 51  0  0  1  0  0  0  0  0999 V2000
   35.7590   30.6490   31.4010 N   0  0  0  0  0  0  0  0  0  0  0  0
   36.0730   29.5290   32.2360 C   0  0  1  0  0  0  0  0  0  0  0  0
   34.8700   28.7290   32.4820 C   0  0  0  0  0  0  0  0  0  0  0  0
   33.9660   29.4940   33.2110 O   0  0  0  0  0  0  0  0  0  0  0  0
   33.6400   30.6860   32.6320 C   0  0  0  0  0  0  0  0  0  0  0  0
   34.8210   31.4870   32.1500 C   0  0  1  0  0  0  0  0  0  0  0  0
   35.3140   30.5070   30.5130 H   0  0  0  0  0  0  0  0  0  0  0  0
   36.4410   29.8910   33.2180 H   0  0  0  0  0  0  0  0  0  0  0  0
   34.2790   28.2840   31.7260 H   0  0  0  0  0  0  0  0  0  0  0  0
   35.1630   27.8980   33.1920 H   0  0  0  0  0  0  0  0  0  0  0  0
   33.0180   31.2510   33.3160 H   0  0  0  0  0  0  0  0  0  0  0  0
   33.0640   30.4280   31.6950 H   0  0  0  0  0  0  0  0  0  0  0  0
   34.4040   32.2460   31.4440 H   0  0  0  0  0  0  0  0  0  0  0  0
   36.8380   33.7390   31.3560 Cl  0  0  0  0  0  0  0  0  0  0  0  0
   36.5240   33.1450   32.9740 C   0  0  0  0  0  0  0  0  0  0  0  0
   35.5830   32.1620   33.2190 C   0  0  0  0  0  0  0  0  0  0  0  0
   35.4450   31.8520   34.5480 C   0  0  0  0  0  0  0  0  0  0  0  0
   34.7600   31.1180   34.8920 H   0  0  0  0  0  0  0  0  0  0  0  0
   36.1600   32.4400   35.5830 C   0  0  0  0  0  0  0  0  0  0  0  0
   36.0420   32.1880   36.6170 H   0  0  0  0  0  0  0  0  0  0  0  0
   37.0910   33.4190   35.2730 C   0  0  0  0  0  0  0  0  0  0  0  0
   37.6630   33.8940   36.0570 H   0  0  0  0  0  0  0  0  0  0  0  0
   37.2700   33.7710   33.9520 C   0  0  0  0  0  0  0  0  0  0  0  0
   38.4590   35.0130   33.6240 Cl  0  0  0  0  0  0  0  0  0  0  0  0
   37.0550   28.7710   31.5460 O   0  0  0  0  0  0  0  0  0  0  0  0
   37.6790   23.2030   33.4120 C   0  0  0  0  0  0  0  0  0  0  0  0
   36.8570   22.9610   32.3370 C   0  0  0  0  0  0  0  0  0  0  0  0
   36.3940   24.0090   31.5220 C   0  0  0  0  0  0  0  0  0  0  0  0
   36.8120   25.2790   31.8620 C   0  0  0  0  0  0  0  0  0  0  0  0
   36.5090   26.4570   31.2320 N   0  0  0  0  0  0  0  0  0  0  0  0
   37.1440   27.4250   31.9190 C   0  0  0  0  0  0  0  0  0  0  0  0
   37.8110   26.9010   32.9230 N   0  0  0  0  0  0  0  0  0  0  0  0
   37.6380   25.5650   32.9350 C   0  0  0  0  0  0  0  0  0  0  0  0
   38.0800   24.4970   33.7270 C   0  0  0  0  0  0  0  0  0  0  0  0
   38.0420   22.4070   34.0470 H   0  0  0  0  0  0  0  0  0  0  0  0
   35.7450   23.8400   30.6710 H   0  0  0  0  0  0  0  0  0  0  0  0
   35.8960   26.5890   30.3750 H   0  0  0  0  0  0  0  0  0  0  0  0
   38.7250   24.7170   34.5640 H   0  0  0  0  0  0  0  0  0  0  0  0
   36.2260   19.6100   30.7380 C   0  0  0  0  0  0  0  0  0  0  0  0
   36.6530   20.9270   30.8510 C   0  0  0  0  0  0  0  0  0  0  0  0
   36.4710   21.5940   32.0360 C   0  0  0  0  0  0  0  0  0  0  0  0
   35.8610   20.8990   33.0620 N   0  0  0  0  0  0  0  0  0  0  0  0
   35.4480   19.6200   32.9510 C   0  0  0  0  0  0  0  0  0  0  0  0
   35.6310   18.9890   31.8010 N   0  0  0  0  0  0  0  0  0  0  0  0
   36.3900   19.1160   29.7810 H   0  0  0  0  0  0  0  0  0  0  0  0
   37.1240   21.4730   30.0670 H   0  0  0  0  0  0  0  0  0  0  0  0
   34.9790   19.1520   33.8080 H   0  0  0  0  0  0  0  0  0  0  0  0
  1  6  1  0  0  0  0
  1  2  1  0  0  0  0
  2  3  1  0  0  0  0
  2  8  1  1  0  0  0
  3 10  1  0  0  0  0
  3  4  1  0  0  0  0
  5  4  1  0  0  0  0
  5 11  1  0  0  0  0
  6 13  1  6  0  0  0
  6  5  1  0  0  0  0
  6 16  1  0  0  0  0
  7  1  1  0  0  0  0
  9  3  1  0  0  0  0
 12  5  1  0  0  0  0
 14 15  1  0  0  0  0
 15 16  2  0  0  0  0
 15 23  1  0  0  0  0
 16 17  1  0  0  0  0
 17 18  1  0  0  0  0
 17 19  2  0  0  0  0
 19 20  1  0  0  0  0
 21 19  1  0  0  0  0
 21 22  1  0  0  0  0
 23 21  2  0  0  0  0
 24 23  1  0  0  0  0
 25 31  1  0  0  0  0
 25  2  1  0  0  0  0
 26 34  1  0  0  0  0
 26 35  1  0  0  0  0
 27 26  2  0  0  0  0
 28 29  2  0  0  0  0
 28 27  1  0  0  0  0
 29 33  1  0  0  0  0
 30 29  1  0  0  0  0
 30 31  1  0  0  0  0
 31 32  2  0  0  0  0
 32 33  1  0  0  0  0
 33 34  2  0  0  0  0
 34 38  1  0  0  0  0
 36 28  1  0  0  0  0
 37 30  1  0  0  0  0
 39 40  2  0  0  0  0
 39 44  1  0  0  0  0
 40 41  1  0  0  0  0
 41 27  1  0  0  0  0
 41 42  2  0  0  0  0
 43 42  1  0  0  0  0
 43 47  1  0  0  0  0
 44 43  2  0  0  0  0
 45 39  1  0  0  0  0
 46 40  1  0  0  0  0
M  END
>  <minimizedAffinity>
-5.99036503

$$$$

 OpenBabel03272510283D

 47 51  0  0  1  0  0  0  0  0999 V2000
   38.0950   26.3790   30.1500 N   0  0  0  0  0  0  0  0  0  0  0  0
   38.6350   27.6570   29.8010 C   0  0  1  0  0  0  0  0  0  0  0  0
   39.6100   27.5150   28.7160 C   0  0  0  0  0  0  0  0  0  0  0  0
   40.6890   26.7700   29.1790 O   0  0  0  0  0  0  0  0  0  0  0  0
   40.3540   25.5490   29.6870 C   0  0  0  0  0  0  0  0  0  0  0  0
   39.2060   25.5740   30.6610 C   0  0  1  0  0  0  0  0  0  0  0  0
   37.6700   25.8020   29.4480 H   0  0  0  0  0  0  0  0  0  0  0  0
   39.1680   28.0860   30.6750 H   0  0  0  0  0  0  0  0  0  0  0  0
   39.3980   27.0970   27.7670 H   0  0  0  0  0  0  0  0  0  0  0  0
   40.0470   28.5420   28.5240 H   0  0  0  0  0  0  0  0  0  0  0  0
   41.2390   25.0910   30.1140 H   0  0  0  0  0  0  0  0  0  0  0  0
   39.9770   24.9420   28.8120 H   0  0  0  0  0  0  0  0  0  0  0  0
   38.8530   24.5170   30.7400 H   0  0  0  0  0  0  0  0  0  0  0  0
   37.0240   25.4930   32.8980 Cl  0  0  0  0  0  0  0  0  0  0  0  0
   38.6480   26.1320   33.0500 C   0  0  0  0  0  0  0  0  0  0  0  0
   39.5480   26.0890   32.0020 C   0  0  0  0  0  0  0  0  0  0  0  0
   40.7830   26.5990   32.3160 C   0  0  0  0  0  0  0  0  0  0  0  0
   41.5790   26.6320   31.6140 H   0  0  0  0  0  0  0  0  0  0  0  0
   41.1400   27.1190   33.5520 C   0  0  0  0  0  0  0  0  0  0  0  0
   42.1080   27.5130   33.7840 H   0  0  0  0  0  0  0  0  0  0  0  0
   40.1930   27.1350   34.5640 C   0  0  0  0  0  0  0  0  0  0  0  0
   40.4410   27.5340   35.5370 H   0  0  0  0  0  0  0  0  0  0  0  0
   38.9340   26.6340   34.3030 C   0  0  0  0  0  0  0  0  0  0  0  0
   37.7820   26.6820   35.6200 Cl  0  0  0  0  0  0  0  0  0  0  0  0
   37.5400   28.4650   29.3970 O   0  0  0  0  0  0  0  0  0  0  0  0
   35.0910   31.8500   33.5700 C   0  0  0  0  0  0  0  0  0  0  0  0
   34.6080   30.6350   33.9920 C   0  0  0  0  0  0  0  0  0  0  0  0
   34.9130   29.4490   33.3010 C   0  0  0  0  0  0  0  0  0  0  0  0
   35.7200   29.5780   32.1890 C   0  0  0  0  0  0  0  0  0  0  0  0
   36.1630   28.5850   31.3560 N   0  0  0  0  0  0  0  0  0  0  0  0
   36.9190   29.1890   30.4210 C   0  0  0  0  0  0  0  0  0  0  0  0
   36.9580   30.4850   30.6410 N   0  0  0  0  0  0  0  0  0  0  0  0
   36.2270   30.7820   31.7320 C   0  0  0  0  0  0  0  0  0  0  0  0
   35.9010   31.9450   32.4430 C   0  0  0  0  0  0  0  0  0  0  0  0
   34.8640   32.7700   34.0910 H   0  0  0  0  0  0  0  0  0  0  0  0
   34.5420   28.4810   33.6170 H   0  0  0  0  0  0  0  0  0  0  0  0
   35.9550   27.5460   31.4260 H   0  0  0  0  0  0  0  0  0  0  0  0
   36.2950   32.8850   32.0890 H   0  0  0  0  0  0  0  0  0  0  0  0
   32.9010   31.2570   37.2900 C   0  0  0  0  0  0  0  0  0  0  0  0
   33.7760   31.4600   36.2310 C   0  0  0  0  0  0  0  0  0  0  0  0
   33.7740   30.5790   35.1800 C   0  0  0  0  0  0  0  0  0  0  0  0
   32.8850   29.5250   35.2430 N   0  0  0  0  0  0  0  0  0  0  0  0
   32.0350   29.3300   36.2720 C   0  0  0  0  0  0  0  0  0  0  0  0
   32.0470   30.1890   37.2800 N   0  0  0  0  0  0  0  0  0  0  0  0
   32.9330   31.9800   38.1050 H   0  0  0  0  0  0  0  0  0  0  0  0
   34.4670   32.2690   36.1710 H   0  0  0  0  0  0  0  0  0  0  0  0
   31.3700   28.4750   36.2390 H   0  0  0  0  0  0  0  0  0  0  0  0
  1  6  1  0  0  0  0
  2  1  1  0  0  0  0
  2  8  1  1  0  0  0
  3  4  1  0  0  0  0
  3  2  1  0  0  0  0
  4  5  1  0  0  0  0
  5 11  1  0  0  0  0
  5  6  1  0  0  0  0
  6 13  1  1  0  0  0
  6 16  1  0  0  0  0
  7  1  1  0  0  0  0
  9  3  1  0  0  0  0
 10  3  1  0  0  0  0
 12  5  1  0  0  0  0
 14 15  1  0  0  0  0
 15 23  1  0  0  0  0
 16 17  1  0  0  0  0
 16 15  2  0  0  0  0
 17 19  2  0  0  0  0
 18 17  1  0  0  0  0
 19 20  1  0  0  0  0
 19 21  1  0  0  0  0
 21 22  1  0  0  0  0
 23 21  2  0  0  0  0
 23 24  1  0  0  0  0
 25  2  1  0  0  0  0
 25 31  1  0  0  0  0
 26 27  1  0  0  0  0
 26 35  1  0  0  0  0
 27 41  1  0  0  0  0
 28 36  1  0  0  0  0
 28 27  2  0  0  0  0
 29 28  1  0  0  0  0
 30 37  1  0  0  0  0
 30 29  1  0  0  0  0
 31 32  2  0  0  0  0
 31 30  1  0  0  0  0
 32 33  1  0  0  0  0
 33 29  2  0  0  0  0
 33 34  1  0  0  0  0
 34 26  2  0  0  0  0
 38 34  1  0  0  0  0
 39 45  1  0  0  0  0
 40 39  2  0  0  0  0
 41 42  2  0  0  0  0
 41 40  1  0  0  0  0
 42 43  1  0  0  0  0
 43 44  2  0  0  0  0
 44 39  1  0  0  0  0
 46 40  1  0  0  0  0
 47 43  1  0  0  0  0
M  END
>  <minimizedAffinity>
-5.95784807

$$$$
