REMARK  Name = 
REMARK  6 active torsions:
REMARK  status: ('A' for Active; 'I' for Inactive)
REMARK    1  A    between atoms: C_1  and  C_4
REMARK    2  A    between atoms: C_3  and  O_11
REMARK    3  A    between atoms: O_11  and  P_13
REMARK    4  A    between atoms: P_13  and  O_14
REMARK    5  A    between atoms: P_13  and  O_15
REMARK    6  A    between atoms: O_15  and  C_27
REMARK                            x       y       z     vdW  Elec       q    Type
REMARK                         _______ _______ _______ _____ _____    ______ ____
ROOT
ATOM      1  C   UNL     1      36.992  31.562  48.672  0.00  0.00    +0.000 C 
ATOM      2  C   UNL     1      36.222  30.918  47.635  0.00  0.00    +0.000 C 
ATOM      3  C   UNL     1      37.184  30.123  48.459  0.00  0.00    +0.000 C 
ATOM      4  H   UNL     1      36.551  31.822  49.696  0.00  0.00    +0.000 HD
ATOM      5  H   UNL     1      35.192  31.165  47.794  0.00  0.00    +0.000 HD
ATOM      6  H   UNL     1      36.538  31.120  46.590  0.00  0.00    +0.000 HD
ATOM      7  H   UNL     1      37.864  29.584  47.818  0.00  0.00    +0.000 HD
ENDROOT
BRANCH   1   8
ATOM      8  C   UNL     1      38.150  32.456  48.324  0.00  0.00    +0.000 A 
ATOM      9  C   UNL     1      38.534  33.375  49.322  0.00  0.00    +0.000 A 
ATOM     10  C   UNL     1      39.595  34.181  48.987  0.00  0.00    +0.000 A 
ATOM     11  N   UNL     1      40.191  34.063  47.780  0.00  0.00    +0.000 NA
ATOM     12  C   UNL     1      39.791  33.161  46.841  0.00  0.00    +0.000 A 
ATOM     13  N   UNL     1      38.735  32.336  47.133  0.00  0.00    +0.000 NA
ATOM     14  N   UNL     1      40.407  33.002  45.594  0.00  0.00    +0.000 N 
ATOM     15  H   UNL     1      38.072  33.477  50.277  0.00  0.00    +0.000 HD
ATOM     16  H   UNL     1      39.993  34.925  49.648  0.00  0.00    +0.000 HD
ATOM     17  H   UNL     1      41.164  32.288  45.480  0.00  0.00    +0.000 HD
ATOM     18  H   UNL     1      40.157  33.562  44.744  0.00  0.00    +0.000 HD
ENDBRANCH   1   8
BRANCH   3  19
ATOM     19  O   UNL     1      36.599  29.300  49.429  0.00  0.00    +0.000 OA
BRANCH  19  21
ATOM     20  O   UNL     1      34.605  27.692  49.719  0.00  0.00    +0.000 OA
ATOM     21  P   UNL     1      35.024  28.942  49.012  0.00  0.00    +0.000 P 
BRANCH  21  22
ATOM     22  O   UNL     1      33.980  30.142  49.727  0.00  0.00    +0.000 OA
ATOM     23  H   UNL     1      33.150  30.127  49.193  0.00  0.00    +0.000 HD
ENDBRANCH  21  22
BRANCH  21  24
ATOM     24  O   UNL     1      34.844  28.953  47.380  0.00  0.00    +0.000 OA
BRANCH  24  27
ATOM     25 CL   UNL     1      33.039  26.692  46.495  0.00  0.00    +0.000 Cl
ATOM     26  C   UNL     1      34.564  27.103  45.802  0.00  0.00    +0.000 A 
ATOM     27  C   UNL     1      35.225  28.177  46.363  0.00  0.00    +0.000 A 
ATOM     28  C   UNL     1      36.468  28.514  45.800  0.00  0.00    +0.000 A 
ATOM     29  H   UNL     1      37.086  29.334  46.148  0.00  0.00    +0.000 HD
ATOM     30  C   UNL     1      36.956  27.760  44.728  0.00  0.00    +0.000 A 
ATOM     31  H   UNL     1      37.916  28.011  44.285  0.00  0.00    +0.000 HD
ATOM     32  C   UNL     1      36.265  26.705  44.207  0.00  0.00    +0.000 A 
ATOM     33  H   UNL     1      36.656  26.144  43.390  0.00  0.00    +0.000 HD
ATOM     34  C   UNL     1      35.055  26.364  44.743  0.00  0.00    +0.000 A 
ATOM     35 CL   UNL     1      34.116  25.042  44.141  0.00  0.00    +0.000 Cl
ENDBRANCH  24  27
ENDBRANCH  21  24
ENDBRANCH  19  21
ENDBRANCH   3  19
TORSDOF 6
