REMARK  Name = 
REMARK  3 active torsions:
REMARK  status: ('A' for Active; 'I' for Inactive)
REMARK    1  A    between atoms: N_1  and  C_7
REMARK    2  A    between atoms: C_6  and  O_13
REMARK    3  A    between atoms: O_13  and  C_28
REMARK                            x       y       z     vdW  Elec       q    Type
REMARK                         _______ _______ _______ _____ _____    ______ ____
ROOT
ATOM      1  N   UNL     1      35.973  29.629  48.862  0.00  0.00    +0.000 N 
ATOM      2  C   UNL     1      36.571  28.858  49.928  0.00  0.00    +0.000 C 
ATOM      3  C   UNL     1      37.036  29.578  51.118  0.00  0.00    +0.000 C 
ATOM      4  C   UNL     1      37.419  30.995  50.978  0.00  0.00    +0.000 C 
ATOM      5  C   UNL     1      36.818  31.682  49.790  0.00  0.00    +0.000 C 
ATOM      6  C   UNL     1      36.852  30.752  48.571  0.00  0.00    +0.000 C 
ATOM      7  H   UNL     1      37.426  28.312  49.461  0.00  0.00    +0.000 HD
ATOM      8  H   UNL     1      35.828  28.059  50.172  0.00  0.00    +0.000 HD
ATOM      9  H   UNL     1      37.914  29.023  51.545  0.00  0.00    +0.000 HD
ATOM     10  H   UNL     1      36.248  29.478  51.915  0.00  0.00    +0.000 HD
ATOM     11  H   UNL     1      37.069  31.585  51.875  0.00  0.00    +0.000 HD
ATOM     12  H   UNL     1      38.529  31.169  50.948  0.00  0.00    +0.000 HD
ATOM     13  H   UNL     1      37.346  32.624  49.558  0.00  0.00    +0.000 HD
ATOM     14  H   UNL     1      35.756  31.953  49.925  0.00  0.00    +0.000 HD
ATOM     15  H   UNL     1      36.536  31.313  47.689  0.00  0.00    +0.000 HD
ENDROOT
BRANCH   1  16
ATOM     16  C   UNL     1      34.738  29.328  48.218  0.00  0.00    +0.000 A 
ATOM     17  C   UNL     1      34.244  30.008  47.107  0.00  0.00    +0.000 A 
ATOM     18  C   UNL     1      33.028  29.618  46.576  0.00  0.00    +0.000 A 
ATOM     19  N   UNL     1      32.374  28.586  47.168  0.00  0.00    +0.000 NA
ATOM     20  C   UNL     1      32.877  27.956  48.233  0.00  0.00    +0.000 A 
ATOM     21  N   UNL     1      34.063  28.328  48.761  0.00  0.00    +0.000 NA
ATOM     22  H   UNL     1      34.835  30.817  46.704  0.00  0.00    +0.000 HD
ATOM     23  H   UNL     1      32.635  30.139  45.712  0.00  0.00    +0.000 HD
ATOM     24  H   UNL     1      32.315  27.126  48.681  0.00  0.00    +0.000 HD
ENDBRANCH   1  16
BRANCH   6  25
ATOM     25  O   UNL     1      38.177  30.337  48.476  0.00  0.00    +0.000 OA
BRANCH  25  28
ATOM     26 CL   UNL     1      36.999  29.164  46.094  0.00  0.00    +0.000 Cl
ATOM     27  C   UNL     1      38.511  30.061  46.237  0.00  0.00    +0.000 A 
ATOM     28  C   UNL     1      39.013  30.595  47.413  0.00  0.00    +0.000 A 
ATOM     29  C   UNL     1      40.208  31.269  47.355  0.00  0.00    +0.000 A 
ATOM     30  H   UNL     1      40.538  31.656  48.304  0.00  0.00    +0.000 HD
ATOM     31  C   UNL     1      40.884  31.409  46.166  0.00  0.00    +0.000 A 
ATOM     32  H   UNL     1      41.813  31.943  46.170  0.00  0.00    +0.000 HD
ATOM     33  C   UNL     1      40.400  30.885  44.987  0.00  0.00    +0.000 A 
ATOM     34  H   UNL     1      40.934  30.998  44.058  0.00  0.00    +0.000 HD
ATOM     35  C   UNL     1      39.184  30.196  45.028  0.00  0.00    +0.000 A 
ATOM     36 CL   UNL     1      38.608  29.548  43.508  0.00  0.00    +0.000 Cl
ENDBRANCH  25  28
ENDBRANCH   6  25
TORSDOF 3
