
 OpenBabel03272510273D

 47 51  0  0  1  0  0  0  0  0999 V2000
   39.1610   30.0330   39.6970 N   0  0  0  0  0  0  0  0  0  0  0  0
   38.0770   29.8620   38.7780 C   0  0  1  0  0  0  0  0  0  0  0  0
   37.7010   31.1530   38.1940 C   0  0  0  0  0  0  0  0  0  0  0  0
   37.2060   31.9720   39.2030 O   0  0  0  0  0  0  0  0  0  0  0  0
   38.0590   32.1500   40.2530 C   0  0  0  0  0  0  0  0  0  0  0  0
   38.6650   30.8780   40.7840 C   0  0  1  0  0  0  0  0  0  0  0  0
   40.0090   30.4790   39.3990 H   0  0  0  0  0  0  0  0  0  0  0  0
   37.1920   29.4680   39.3170 H   0  0  0  0  0  0  0  0  0  0  0  0
   38.3560   31.7810   37.6500 H   0  0  0  0  0  0  0  0  0  0  0  0
   36.8060   30.9680   37.5260 H   0  0  0  0  0  0  0  0  0  0  0  0
   37.5500   32.7120   41.0280 H   0  0  0  0  0  0  0  0  0  0  0  0
   38.9330   32.7390   39.8470 H   0  0  0  0  0  0  0  0  0  0  0  0
   39.5450   31.1950   41.3970 H   0  0  0  0  0  0  0  0  0  0  0  0
   36.3410   32.3000   42.3140 Cl  0  0  0  0  0  0  0  0  0  0  0  0
   36.7160   30.5910   42.3480 C   0  0  0  0  0  0  0  0  0  0  0  0
   37.7530   30.0580   41.6050 C   0  0  0  0  0  0  0  0  0  0  0  0
   37.8730   28.6970   41.7250 C   0  0  0  0  0  0  0  0  0  0  0  0
   38.6210   28.1450   41.2130 H   0  0  0  0  0  0  0  0  0  0  0  0
   37.0570   27.8890   42.5060 C   0  0  0  0  0  0  0  0  0  0  0  0
   37.1620   26.8270   42.5910 H   0  0  0  0  0  0  0  0  0  0  0  0
   36.0340   28.4830   43.2290 C   0  0  0  0  0  0  0  0  0  0  0  0
   35.3830   27.8800   43.8460 H   0  0  0  0  0  0  0  0  0  0  0  0
   35.8680   29.8490   43.1440 C   0  0  0  0  0  0  0  0  0  0  0  0
   34.5590   30.5410   44.0810 Cl  0  0  0  0  0  0  0  0  0  0  0  0
   38.5320   28.9650   37.7760 O   0  0  0  0  0  0  0  0  0  0  0  0
   43.9920   30.2330   35.9180 C   0  0  0  0  0  0  0  0  0  0  0  0
   44.0970   28.8630   35.9200 C   0  0  0  0  0  0  0  0  0  0  0  0
   43.0170   28.0490   36.3060 C   0  0  0  0  0  0  0  0  0  0  0  0
   41.8600   28.7030   36.6770 C   0  0  0  0  0  0  0  0  0  0  0  0
   40.6770   28.1450   37.0850 N   0  0  0  0  0  0  0  0  0  0  0  0
   39.8440   29.1730   37.3350 C   0  0  0  0  0  0  0  0  0  0  0  0
   40.4540   30.3140   37.1020 N   0  0  0  0  0  0  0  0  0  0  0  0
   41.7140   30.0790   36.6890 C   0  0  0  0  0  0  0  0  0  0  0  0
   42.8110   30.8600   36.2990 C   0  0  0  0  0  0  0  0  0  0  0  0
   44.8140   30.8710   35.6240 H   0  0  0  0  0  0  0  0  0  0  0  0
   43.0790   26.9680   36.3150 H   0  0  0  0  0  0  0  0  0  0  0  0
   40.4550   27.1120   37.1880 H   0  0  0  0  0  0  0  0  0  0  0  0
   42.6990   31.9330   36.3070 H   0  0  0  0  0  0  0  0  0  0  0  0
   46.9870   26.5370   35.2740 C   0  0  0  0  0  0  0  0  0  0  0  0
   45.7580   26.9650   35.7570 C   0  0  0  0  0  0  0  0  0  0  0  0
   45.3450   28.2480   35.5030 C   0  0  0  0  0  0  0  0  0  0  0  0
   46.1960   29.0490   34.7680 N   0  0  0  0  0  0  0  0  0  0  0  0
   47.3900   28.6320   34.2990 C   0  0  0  0  0  0  0  0  0  0  0  0
   47.7740   27.3890   34.5520 N   0  0  0  0  0  0  0  0  0  0  0  0
   47.2780   25.5110   35.4970 H   0  0  0  0  0  0  0  0  0  0  0  0
   45.0930   26.3560   36.3260 H   0  0  0  0  0  0  0  0  0  0  0  0
   47.9940   29.3280   33.7300 H   0  0  0  0  0  0  0  0  0  0  0  0
  1  6  1  0  0  0  0
  2  8  1  1  0  0  0
  2  1  1  0  0  0  0
  3  2  1  0  0  0  0
  3  4  1  0  0  0  0
  4  5  1  0  0  0  0
  5  6  1  0  0  0  0
  5 11  1  0  0  0  0
  6 13  1  1  0  0  0
  6 16  1  0  0  0  0
  7  1  1  0  0  0  0
  9  3  1  0  0  0  0
 10  3  1  0  0  0  0
 12  5  1  0  0  0  0
 14 15  1  0  0  0  0
 15 23  1  0  0  0  0
 16 17  1  0  0  0  0
 16 15  2  0  0  0  0
 17 19  2  0  0  0  0
 18 17  1  0  0  0  0
 19 20  1  0  0  0  0
 19 21  1  0  0  0  0
 21 22  1  0  0  0  0
 23 21  2  0  0  0  0
 23 24  1  0  0  0  0
 25  2  1  0  0  0  0
 26 27  2  0  0  0  0
 26 34  1  0  0  0  0
 27 28  1  0  0  0  0
 28 36  1  0  0  0  0
 28 29  2  0  0  0  0
 29 33  1  0  0  0  0
 29 30  1  0  0  0  0
 30 37  1  0  0  0  0
 30 31  1  0  0  0  0
 31 25  1  0  0  0  0
 32 31  2  0  0  0  0
 33 32  1  0  0  0  0
 34 38  1  0  0  0  0
 34 33  2  0  0  0  0
 35 26  1  0  0  0  0
 39 45  1  0  0  0  0
 39 40  1  0  0  0  0
 40 46  1  0  0  0  0
 41 40  2  0  0  0  0
 41 27  1  0  0  0  0
 42 41  1  0  0  0  0
 43 44  1  0  0  0  0
 43 42  2  0  0  0  0
 44 39  2  0  0  0  0
 47 43  1  0  0  0  0
M  END
>  <minimizedAffinity>
-1.95012808

>  <minimizedRMSD>
11.1751966

$$$$
