REMARK  Name = 
REMARK  3 active torsions:
REMARK  status: ('A' for Active; 'I' for Inactive)
REMARK    1  A    between atoms: C_1  and  C_16
REMARK    2  A    between atoms: C_4  and  C_8
REMARK    3  A    between atoms: C_18  and  C_29
REMARK                            x       y       z     vdW  Elec       q    Type
REMARK                         _______ _______ _______ _____ _____    ______ ____
ROOT
ATOM      1  C   UNL     1      37.054  29.780  51.822  0.00  0.00    +0.000 A 
ATOM      2  C   UNL     1      37.681  30.463  50.765  0.00  0.00    +0.000 A 
ATOM      3  C   UNL     1      36.983  30.570  49.546  0.00  0.00    +0.000 A 
ATOM      4  N   UNL     1      35.770  30.029  49.440  0.00  0.00    +0.000 NA
ATOM      5  C   UNL     1      35.199  29.378  50.482  0.00  0.00    +0.000 A 
ATOM      6  N   UNL     1      35.831  29.259  51.647  0.00  0.00    +0.000 NA
ATOM      7  H   UNL     1      37.659  29.745  52.719  0.00  0.00    +0.000 HD
ATOM      8  H   UNL     1      38.643  30.923  50.764  0.00  0.00    +0.000 HD
ENDROOT
BRANCH   5  11
ATOM      9 CL   UNL     1      34.706  27.830  47.896  0.00  0.00    +0.000 Cl
ATOM     10  C   UNL     1      33.542  28.090  49.172  0.00  0.00    +0.000 A 
ATOM     11  C   UNL     1      33.868  28.807  50.303  0.00  0.00    +0.000 A 
ATOM     12  C   UNL     1      32.908  28.980  51.278  0.00  0.00    +0.000 A 
ATOM     13  H   UNL     1      33.190  29.549  52.159  0.00  0.00    +0.000 HD
ATOM     14  C   UNL     1      31.620  28.475  51.193  0.00  0.00    +0.000 A 
ATOM     15  H   UNL     1      30.888  28.620  51.961  0.00  0.00    +0.000 HD
ATOM     16  C   UNL     1      31.359  27.764  50.030  0.00  0.00    +0.000 A 
ATOM     17  H   UNL     1      30.337  27.362  49.961  0.00  0.00    +0.000 HD
ATOM     18  C   UNL     1      32.281  27.555  49.014  0.00  0.00    +0.000 A 
ATOM     19 CL   UNL     1      31.776  26.631  47.613  0.00  0.00    +0.000 Cl
ENDBRANCH   5  11
BRANCH   3  20
ATOM     20  C   UNL     1      37.579  31.270  48.403  0.00  0.00    +0.000 A 
ATOM     21  C   UNL     1      38.474  32.254  48.320  0.00  0.00    +0.000 A 
ATOM     22  C   UNL     1      38.849  32.713  47.119  0.00  0.00    +0.000 A 
ATOM     23  C   UNL     1      38.278  32.133  46.004  0.00  0.00    +0.000 A 
ATOM     24  S   UNL     1      37.168  30.887  46.739  0.00  0.00    +0.000 S 
ATOM     25  H   UNL     1      38.873  32.653  49.248  0.00  0.00    +0.000 HD
ATOM     26  H   UNL     1      39.560  33.500  46.900  0.00  0.00    +0.000 HD
BRANCH  23  29
ATOM     27 CL   UNL     1      41.155  32.234  44.986  0.00  0.00    +0.000 Cl
ATOM     28  C   UNL     1      39.682  32.405  44.057  0.00  0.00    +0.000 A 
ATOM     29  C   UNL     1      38.422  32.348  44.581  0.00  0.00    +0.000 A 
ATOM     30  C   UNL     1      37.273  32.475  43.895  0.00  0.00    +0.000 A 
ATOM     31  C   UNL     1      37.335  32.686  42.516  0.00  0.00    +0.000 A 
ATOM     32  C   UNL     1      38.569  32.754  41.919  0.00  0.00    +0.000 A 
ATOM     33 CL   UNL     1      38.711  33.017  40.188  0.00  0.00    +0.000 Cl
ATOM     34  C   UNL     1      39.748  32.616  42.674  0.00  0.00    +0.000 A 
ATOM     35  H   UNL     1      36.272  32.430  44.315  0.00  0.00    +0.000 HD
ATOM     36  H   UNL     1      36.444  32.795  41.914  0.00  0.00    +0.000 HD
ATOM     37  H   UNL     1      40.726  32.668  42.213  0.00  0.00    +0.000 HD
ENDBRANCH  23  29
ENDBRANCH   3  20
TORSDOF 3
