
 OpenBabel03272508453D

 29 31  0  0  0  0  0  0  0  0999 V2000
   30.7960   31.2830   44.5950 C   0  0  0  0  0  0  0  0  0  0  0  0
   29.9490   30.5050   43.8180 C   0  0  0  0  0  0  0  0  0  0  0  0
   29.8610   29.3300   44.5690 C   0  0  0  0  0  0  0  0  0  0  0  0
   30.6150   29.4320   45.7110 C   0  0  0  0  0  0  0  0  0  0  0  0
   31.1620   30.6160   45.6940 O   0  0  0  0  0  0  0  0  0  0  0  0
   29.4990   30.7850   42.8760 H   0  0  0  0  0  0  0  0  0  0  0  0
   29.2650   28.4690   44.2600 H   0  0  0  0  0  0  0  0  0  0  0  0
   28.4920   29.3820   47.9050 Cl  0  0  0  0  0  0  0  0  0  0  0  0
   29.8530   28.3060   47.7670 C   0  0  0  0  0  0  0  0  0  0  0  0
   30.7660   28.4040   46.7360 C   0  0  0  0  0  0  0  0  0  0  0  0
   31.8240   27.5240   46.6800 C   0  0  0  0  0  0  0  0  0  0  0  0
   32.5250   27.6330   45.8500 H   0  0  0  0  0  0  0  0  0  0  0  0
   32.0450   26.5200   47.6080 C   0  0  0  0  0  0  0  0  0  0  0  0
   32.9090   25.8850   47.4670 H   0  0  0  0  0  0  0  0  0  0  0  0
   31.1250   26.4230   48.6450 C   0  0  0  0  0  0  0  0  0  0  0  0
   31.2970   25.6400   49.3690 H   0  0  0  0  0  0  0  0  0  0  0  0
   30.0500   27.3030   48.7190 C   0  0  0  0  0  0  0  0  0  0  0  0
   28.9510   27.0880   50.0730 Cl  0  0  0  0  0  0  0  0  0  0  0  0
   31.2230   32.6400   44.2530 C   0  0  0  0  0  0  0  0  0  0  0  0
   30.4420   33.5860   44.5480 O   0  0  0  0  0  0  0  0  0  0  0  0
   33.9960   34.3910   42.7040 C   0  0  0  0  0  0  0  0  0  0  0  0
   34.8860   33.3630   42.3720 C   0  0  0  0  0  0  0  0  0  0  0  0
   34.5340   32.0620   42.6800 C   0  0  0  0  0  0  0  0  0  0  0  0
   33.3360   31.8590   43.2930 N   0  0  0  0  0  0  0  0  0  0  0  0
   32.4980   32.8600   43.6020 C   0  0  0  0  0  0  0  0  0  0  0  0
   32.8310   34.1340   43.3050 N   0  0  0  0  0  0  0  0  0  0  0  0
   34.2060   35.4430   42.4910 H   0  0  0  0  0  0  0  0  0  0  0  0
   35.7890   33.6570   41.8950 H   0  0  0  0  0  0  0  0  0  0  0  0
   35.2210   31.2660   42.4240 H   0  0  0  0  0  0  0  0  0  0  0  0
  1  5  1  0  0  0  0
  2  3  1  0  0  0  0
  2  1  2  0  0  0  0
  3  4  2  0  0  0  0
  4 10  1  0  0  0  0
  5  4  1  0  0  0  0
  6  2  1  0  0  0  0
  7  3  1  0  0  0  0
  9  8  1  0  0  0  0
  9 17  1  0  0  0  0
 10  9  2  0  0  0  0
 11 10  1  0  0  0  0
 11 13  2  0  0  0  0
 12 11  1  0  0  0  0
 13 15  1  0  0  0  0
 14 13  1  0  0  0  0
 15 17  2  0  0  0  0
 15 16  1  0  0  0  0
 17 18  1  0  0  0  0
 19 20  2  0  0  0  0
 19  1  1  0  0  0  0
 21 26  1  0  0  0  0
 22 23  1  0  0  0  0
 22 21  2  0  0  0  0
 23 24  2  0  0  0  0
 24 25  1  0  0  0  0
 25 19  1  0  0  0  0
 26 25  2  0  0  0  0
 27 21  1  0  0  0  0
 28 22  1  0  0  0  0
 29 23  1  0  0  0  0
M  END
>  <minimizedAffinity>
-3.60529017

>  <minimizedRMSD>
9.2127924

$$$$
