
 OpenBabel03272502533D

 29 31  0  0  0  0  0  0  0  0999 V2000
   36.0520   30.2500   48.6330 C   0  0  0  0  0  0  0  0  0  0  0  0
   36.0780   29.3250   49.6710 C   0  0  0  0  0  0  0  0  0  0  0  0
   35.1260   28.3290   49.7550 C   0  0  0  0  0  0  0  0  0  0  0  0
   34.1650   28.3040   48.7750 C   0  0  0  0  0  0  0  0  0  0  0  0
   34.1250   29.2180   47.7350 C   0  0  0  0  0  0  0  0  0  0  0  0
   35.0890   30.1960   47.6810 N   0  0  0  0  0  0  0  0  0  0  0  0
   36.8840   29.4240   50.4080 H   0  0  0  0  0  0  0  0  0  0  0  0
   35.1820   27.6350   50.5730 H   0  0  0  0  0  0  0  0  0  0  0  0
   33.4270   27.5240   48.8510 H   0  0  0  0  0  0  0  0  0  0  0  0
   31.5650   27.8220   48.4990 Cl  0  0  0  0  0  0  0  0  0  0  0  0
   31.8910   28.5770   46.9300 C   0  0  0  0  0  0  0  0  0  0  0  0
   33.1040   29.1880   46.6960 C   0  0  0  0  0  0  0  0  0  0  0  0
   33.2580   29.7450   45.4470 C   0  0  0  0  0  0  0  0  0  0  0  0
   34.1750   30.2360   45.1960 H   0  0  0  0  0  0  0  0  0  0  0  0
   32.3000   29.7230   44.4580 C   0  0  0  0  0  0  0  0  0  0  0  0
   32.4600   30.1740   43.4820 H   0  0  0  0  0  0  0  0  0  0  0  0
   31.0880   29.0980   44.7290 C   0  0  0  0  0  0  0  0  0  0  0  0
   30.2830   29.0260   44.0300 H   0  0  0  0  0  0  0  0  0  0  0  0
   30.8910   28.5260   45.9690 C   0  0  0  0  0  0  0  0  0  0  0  0
   29.3660   27.7230   46.3510 Cl  0  0  0  0  0  0  0  0  0  0  0  0
   38.0640   33.1820   49.5000 C   0  0  0  0  0  0  0  0  0  0  0  0
   38.9890   33.2480   48.4320 C   0  0  0  0  0  0  0  0  0  0  0  0
   38.9050   32.2710   47.4210 C   0  0  0  0  0  0  0  0  0  0  0  0
   37.9300   31.3400   47.5610 N   0  0  0  0  0  0  0  0  0  0  0  0
   37.0640   31.2890   48.5720 C   0  0  0  0  0  0  0  0  0  0  0  0
   37.1500   32.2150   49.5220 N   0  0  0  0  0  0  0  0  0  0  0  0
   38.1240   33.9430   50.2930 H   0  0  0  0  0  0  0  0  0  0  0  0
   39.7490   34.0110   48.3670 H   0  0  0  0  0  0  0  0  0  0  0  0
   39.5920   32.3070   46.6130 H   0  0  0  0  0  0  0  0  0  0  0  0
  1  2  1  0  0  0  0
  2  3  2  0  0  0  0
  2  7  1  0  0  0  0
  3  8  1  0  0  0  0
  4  9  1  0  0  0  0
  4  3  1  0  0  0  0
  5  4  2  0  0  0  0
  6  5  1  0  0  0  0
  6  1  2  0  0  0  0
 11 10  1  0  0  0  0
 12 11  1  0  0  0  0
 12  5  1  0  0  0  0
 13 12  2  0  0  0  0
 14 13  1  0  0  0  0
 15 17  2  0  0  0  0
 15 13  1  0  0  0  0
 16 15  1  0  0  0  0
 17 19  1  0  0  0  0
 18 17  1  0  0  0  0
 19 20  1  0  0  0  0
 19 11  2  0  0  0  0
 21 26  1  0  0  0  0
 21 27  1  0  0  0  0
 22 21  2  0  0  0  0
 23 24  2  0  0  0  0
 23 22  1  0  0  0  0
 24 25  1  0  0  0  0
 25  1  1  0  0  0  0
 25 26  2  0  0  0  0
 28 22  1  0  0  0  0
 29 23  1  0  0  0  0
M  END
>  <minimizedAffinity>
-5.55897236

>  <minimizedRMSD>
0.518539608

$$$$
