
 OpenBabel03272503423D

 43 46  0  0  1  0  0  0  0  0999 V2000
   39.9010   30.7360   41.8490 C   0  0  2  0  0  0  0  0  0  0  0  0
   39.8990   31.9750   42.7650 C   0  0  1  0  0  0  0  0  0  0  0  0
   38.8200   32.7670   42.0740 C   0  0  0  0  0  0  0  0  0  0  0  0
   38.9400   32.5330   40.7250 O   0  0  0  0  0  0  0  0  0  0  0  0
   39.7770   31.4810   40.5130 C   0  0  0  0  0  0  0  0  0  0  0  0
   40.8320   30.1800   41.9200 H   0  0  0  0  0  0  0  0  0  0  0  0
   40.8390   32.5220   42.7290 H   0  0  0  0  0  0  0  0  0  0  0  0
   37.8430   32.4180   42.4600 H   0  0  0  0  0  0  0  0  0  0  0  0
   38.9100   33.8580   42.2350 H   0  0  0  0  0  0  0  0  0  0  0  0
   39.5480   30.8210   39.6800 H   0  0  0  0  0  0  0  0  0  0  0  0
   40.7970   31.9150   40.3170 H   0  0  0  0  0  0  0  0  0  0  0  0
   38.4930   31.0950   45.9510 C   0  0  0  0  0  0  0  0  0  0  0  0
   39.8250   31.0520   46.2630 C   0  0  0  0  0  0  0  0  0  0  0  0
   40.4640   31.3860   45.0690 C   0  0  0  0  0  0  0  0  0  0  0  0
   39.5580   31.6100   44.1120 N   0  0  0  0  0  0  0  0  0  0  0  0
   38.3480   31.4320   44.6500 N   0  0  0  0  0  0  0  0  0  0  0  0
   40.2960   30.8140   47.2260 H   0  0  0  0  0  0  0  0  0  0  0  0
   41.5610   31.4280   45.0400 H   0  0  0  0  0  0  0  0  0  0  0  0
   36.4580   30.6420   49.0690 C   0  0  0  0  0  0  0  0  0  0  0  0
   37.5370   30.9160   48.2410 C   0  0  0  0  0  0  0  0  0  0  0  0
   37.3930   30.8190   46.8700 C   0  0  0  0  0  0  0  0  0  0  0  0
   36.1900   30.4550   46.3840 N   0  0  0  0  0  0  0  0  0  0  0  0
   35.1460   30.1920   47.2150 C   0  0  0  0  0  0  0  0  0  0  0  0
   35.2750   30.2830   48.5330 N   0  0  0  0  0  0  0  0  0  0  0  0
   38.5310   31.2130   48.5560 H   0  0  0  0  0  0  0  0  0  0  0  0
   34.1920   29.9020   46.7990 H   0  0  0  0  0  0  0  0  0  0  0  0
   36.7590   30.7840   50.4230 O   0  0  0  0  0  0  0  0  0  0  0  0
   36.8070   29.7060   51.3210 C   0  0  0  0  0  0  0  0  0  0  0  0
   35.5540   29.2100   51.6240 F   0  0  0  0  0  0  0  0  0  0  0  0
   37.4780   30.0950   52.4540 F   0  0  0  0  0  0  0  0  0  0  0  0
   37.5600   28.6910   50.7360 F   0  0  0  0  0  0  0  0  0  0  0  0
   38.7230   30.0670   42.1090 O   0  0  0  0  0  0  0  0  0  0  0  0
   35.8620   29.2600   42.3950 Cl  0  0  0  0  0  0  0  0  0  0  0  0
   37.3010   28.2540   42.5120 C   0  0  0  0  0  0  0  0  0  0  0  0
   38.6020   28.7300   42.3620 C   0  0  0  0  0  0  0  0  0  0  0  0
   39.6320   27.8200   42.4800 C   0  0  0  0  0  0  0  0  0  0  0  0
   40.6350   28.1940   42.3640 H   0  0  0  0  0  0  0  0  0  0  0  0
   39.4270   26.4710   42.7390 C   0  0  0  0  0  0  0  0  0  0  0  0
   40.2690   25.8080   42.8210 H   0  0  0  0  0  0  0  0  0  0  0  0
   38.1160   26.0240   42.8840 C   0  0  0  0  0  0  0  0  0  0  0  0
   37.9770   24.9620   43.0860 H   0  0  0  0  0  0  0  0  0  0  0  0
   37.0610   26.9210   42.7690 C   0  0  0  0  0  0  0  0  0  0  0  0
   35.4780   26.2110   42.9760 Cl  0  0  0  0  0  0  0  0  0  0  0  0
  1  6  1  1  0  0  0
  1 32  1  0  0  0  0
  1  2  1  0  0  0  0
  2  7  1  6  0  0  0
  2 15  1  0  0  0  0
  3  9  1  0  0  0  0
  3  8  1  0  0  0  0
  3  2  1  0  0  0  0
  4  3  1  0  0  0  0
  5  4  1  0  0  0  0
  5  1  1  0  0  0  0
 10  5  1  0  0  0  0
 11  5  1  0  0  0  0
 12 13  1  0  0  0  0
 12 21  1  0  0  0  0
 13 17  1  0  0  0  0
 14 13  2  0  0  0  0
 15 16  1  0  0  0  0
 15 14  1  0  0  0  0
 16 12  2  0  0  0  0
 18 14  1  0  0  0  0
 19 27  1  0  0  0  0
 20 25  1  0  0  0  0
 20 19  2  0  0  0  0
 21 20  1  0  0  0  0
 22 21  2  0  0  0  0
 22 23  1  0  0  0  0
 23 24  2  0  0  0  0
 24 19  1  0  0  0  0
 26 23  1  0  0  0  0
 27 28  1  0  0  0  0
 28 29  1  0  0  0  0
 28 30  1  0  0  0  0
 31 28  1  0  0  0  0
 32 35  1  0  0  0  0
 33 34  1  0  0  0  0
 34 42  1  0  0  0  0
 35 36  1  0  0  0  0
 35 34  2  0  0  0  0
 36 38  2  0  0  0  0
 37 36  1  0  0  0  0
 38 39  1  0  0  0  0
 38 40  1  0  0  0  0
 40 41  1  0  0  0  0
 42 40  2  0  0  0  0
 42 43  1  0  0  0  0
M  END
>  <minimizedAffinity>
-6.42988205

>  <minimizedRMSD>
0.343470067

$$$$
