
 OpenBabel03272510273D

 47 51  0  0  1  0  0  0  0  0999 V2000
   39.8410   29.9650   41.7490 N   0  0  0  0  0  0  0  0  0  0  0  0
   39.9440   31.3780   41.5380 C   0  0  1  0  0  0  0  0  0  0  0  0
   38.7070   31.8910   40.9410 C   0  0  0  0  0  0  0  0  0  0  0  0
   38.5580   31.3360   39.6750 O   0  0  0  0  0  0  0  0  0  0  0  0
   38.5720   29.9720   39.6530 C   0  0  0  0  0  0  0  0  0  0  0  0
   39.7010   29.3480   40.4300 C   0  0  1  0  0  0  0  0  0  0  0  0
   39.0790   29.5900   42.2840 H   0  0  0  0  0  0  0  0  0  0  0  0
   40.7700   31.5870   40.8280 H   0  0  0  0  0  0  0  0  0  0  0  0
   37.7470   31.8010   41.3760 H   0  0  0  0  0  0  0  0  0  0  0  0
   38.8670   32.9940   40.7410 H   0  0  0  0  0  0  0  0  0  0  0  0
   38.5550   29.6360   38.6220 H   0  0  0  0  0  0  0  0  0  0  0  0
   37.6350   29.6430   40.1920 H   0  0  0  0  0  0  0  0  0  0  0  0
   39.4100   28.2800   40.5830 H   0  0  0  0  0  0  0  0  0  0  0  0
   40.9140   26.7280   39.2320 Cl  0  0  0  0  0  0  0  0  0  0  0  0
   41.6570   28.3140   39.2340 C   0  0  0  0  0  0  0  0  0  0  0  0
   41.0170   29.4180   39.7650 C   0  0  0  0  0  0  0  0  0  0  0  0
   41.7340   30.5820   39.6420 C   0  0  0  0  0  0  0  0  0  0  0  0
   41.3720   31.5120   40.0010 H   0  0  0  0  0  0  0  0  0  0  0  0
   42.9860   30.6890   39.0510 C   0  0  0  0  0  0  0  0  0  0  0  0
   43.5340   31.6050   38.9630 H   0  0  0  0  0  0  0  0  0  0  0  0
   43.5770   29.5460   38.5380 C   0  0  0  0  0  0  0  0  0  0  0  0
   44.5510   29.5980   38.0730 H   0  0  0  0  0  0  0  0  0  0  0  0
   42.9000   28.3480   38.6340 C   0  0  0  0  0  0  0  0  0  0  0  0
   43.6980   26.9390   37.9670 Cl  0  0  0  0  0  0  0  0  0  0  0  0
   40.1750   31.9630   42.8100 O   0  0  0  0  0  0  0  0  0  0  0  0
   36.1610   30.2770   46.8000 C   0  0  0  0  0  0  0  0  0  0  0  0
   37.2300   30.4370   47.6500 C   0  0  0  0  0  0  0  0  0  0  0  0
   38.4870   30.8450   47.1710 C   0  0  0  0  0  0  0  0  0  0  0  0
   38.5810   31.0730   45.8130 C   0  0  0  0  0  0  0  0  0  0  0  0
   39.6820   31.4790   45.1070 N   0  0  0  0  0  0  0  0  0  0  0  0
   39.2910   31.5680   43.8220 C   0  0  0  0  0  0  0  0  0  0  0  0
   38.0230   31.2420   43.7130 N   0  0  0  0  0  0  0  0  0  0  0  0
   37.5300   30.9240   44.9250 C   0  0  0  0  0  0  0  0  0  0  0  0
   36.2910   30.5150   45.4370 C   0  0  0  0  0  0  0  0  0  0  0  0
   35.1890   29.9640   47.1550 H   0  0  0  0  0  0  0  0  0  0  0  0
   39.3420   30.9760   47.8230 H   0  0  0  0  0  0  0  0  0  0  0  0
   40.6520   31.6830   45.4880 H   0  0  0  0  0  0  0  0  0  0  0  0
   35.4700   30.3980   44.7460 H   0  0  0  0  0  0  0  0  0  0  0  0
   37.5700   30.2210   51.3940 C   0  0  0  0  0  0  0  0  0  0  0  0
   37.9070   30.5310   50.0830 C   0  0  0  0  0  0  0  0  0  0  0  0
   37.0490   30.1890   49.0690 C   0  0  0  0  0  0  0  0  0  0  0  0
   35.8800   29.5460   49.4250 N   0  0  0  0  0  0  0  0  0  0  0  0
   35.5540   29.2460   50.6990 C   0  0  0  0  0  0  0  0  0  0  0  0
   36.3930   29.5830   51.6670 N   0  0  0  0  0  0  0  0  0  0  0  0
   38.2790   30.5100   52.1690 H   0  0  0  0  0  0  0  0  0  0  0  0
   38.8060   31.0260   49.7960 H   0  0  0  0  0  0  0  0  0  0  0  0
   34.6150   28.7400   50.8870 H   0  0  0  0  0  0  0  0  0  0  0  0
  1  7  1  0  0  0  0
  2  8  1  6  0  0  0
  2  1  1  0  0  0  0
  2 25  1  0  0  0  0
  3  9  1  0  0  0  0
  3  2  1  0  0  0  0
  4  3  1  0  0  0  0
  5  4  1  0  0  0  0
  5 12  1  0  0  0  0
  5  6  1  0  0  0  0
  6 13  1  1  0  0  0
  6  1  1  0  0  0  0
 10  3  1  0  0  0  0
 11  5  1  0  0  0  0
 14 15  1  0  0  0  0
 15 16  1  0  0  0  0
 16  6  1  0  0  0  0
 17 16  2  0  0  0  0
 17 18  1  0  0  0  0
 19 17  1  0  0  0  0
 20 19  1  0  0  0  0
 21 23  1  0  0  0  0
 21 19  2  0  0  0  0
 22 21  1  0  0  0  0
 23 15  2  0  0  0  0
 24 23  1  0  0  0  0
 25 31  1  0  0  0  0
 26 35  1  0  0  0  0
 26 27  1  0  0  0  0
 27 41  1  0  0  0  0
 28 27  2  0  0  0  0
 28 36  1  0  0  0  0
 29 28  1  0  0  0  0
 30 37  1  0  0  0  0
 30 29  1  0  0  0  0
 31 30  1  0  0  0  0
 32 31  2  0  0  0  0
 32 33  1  0  0  0  0
 33 34  1  0  0  0  0
 33 29  2  0  0  0  0
 34 26  2  0  0  0  0
 38 34  1  0  0  0  0
 39 44  1  0  0  0  0
 39 45  1  0  0  0  0
 40 39  2  0  0  0  0
 41 42  2  0  0  0  0
 41 40  1  0  0  0  0
 42 43  1  0  0  0  0
 43 47  1  0  0  0  0
 43 44  2  0  0  0  0
 46 40  1  0  0  0  0
M  END
>  <minimizedAffinity>
-6.12315798

>  <minimizedRMSD>
2.8417263

$$$$
