REMARK  Name = 
REMARK  3 active torsions:
REMARK  status: ('A' for Active; 'I' for Inactive)
REMARK    1  A    between atoms: C_2  and  N_13
REMARK    2  A    between atoms: C_5  and  C_7
REMARK    3  A    between atoms: C_18  and  C_36
REMARK                            x       y       z     vdW  Elec       q    Type
REMARK                         _______ _______ _______ _____ _____    ______ ____
ROOT
ATOM      1  N   UNL     1      37.041  31.087  48.332  0.00  0.00    +0.000 N 
ATOM      2  C   UNL     1      37.380  31.362  49.716  0.00  0.00    +0.000 C 
ATOM      3  C   UNL     1      38.616  32.183  49.882  0.00  0.00    +0.000 C 
ATOM      4  C   UNL     1      38.672  33.247  48.789  0.00  0.00    +0.000 C 
ATOM      5  C   UNL     1      38.887  32.488  47.516  0.00  0.00    +0.000 C 
ATOM      6  C   UNL     1      37.778  31.524  47.196  0.00  0.00    +0.000 C 
ATOM      7  H   UNL     1      36.532  32.016  50.080  0.00  0.00    +0.000 HD
ATOM      8  H   UNL     1      37.370  30.502  50.381  0.00  0.00    +0.000 HD
ATOM      9  H   UNL     1      38.565  32.669  50.876  0.00  0.00    +0.000 HD
ATOM     10  H   UNL     1      39.512  31.550  49.764  0.00  0.00    +0.000 HD
ATOM     11  H   UNL     1      39.505  33.929  48.963  0.00  0.00    +0.000 HD
ATOM     12  H   UNL     1      37.702  33.785  48.767  0.00  0.00    +0.000 HD
ATOM     13  H   UNL     1      38.984  33.221  46.690  0.00  0.00    +0.000 HD
ATOM     14  H   UNL     1      39.856  31.932  47.594  0.00  0.00    +0.000 HD
ATOM     15  H   UNL     1      37.042  32.092  46.551  0.00  0.00    +0.000 HD
ENDROOT
BRANCH   6  18
ATOM     16 CL   UNL     1      38.621  32.116  44.265  0.00  0.00    +0.000 Cl
ATOM     17  C   UNL     1      38.765  30.576  45.037  0.00  0.00    +0.000 A 
ATOM     18  C   UNL     1      38.351  30.478  46.340  0.00  0.00    +0.000 A 
ATOM     19  C   UNL     1      38.518  29.178  46.845  0.00  0.00    +0.000 A 
ATOM     20  H   UNL     1      38.216  28.988  47.888  0.00  0.00    +0.000 HD
ATOM     21  C   UNL     1      39.033  28.110  46.143  0.00  0.00    +0.000 A 
ATOM     22  H   UNL     1      39.117  27.148  46.635  0.00  0.00    +0.000 HD
ATOM     23  C   UNL     1      39.421  28.302  44.843  0.00  0.00    +0.000 A 
ATOM     24  H   UNL     1      39.813  27.442  44.345  0.00  0.00    +0.000 HD
ATOM     25  C   UNL     1      39.282  29.556  44.290  0.00  0.00    +0.000 A 
ATOM     26 CL   UNL     1      39.780  29.791  42.633  0.00  0.00    +0.000 Cl
ENDBRANCH   6  18
BRANCH   1  28
ATOM     27  C   UNL     1      35.165  29.766  49.180  0.00  0.00    +0.000 A 
ATOM     28  C   UNL     1      35.865  30.328  48.120  0.00  0.00    +0.000 A 
ATOM     29  C   UNL     1      35.341  30.102  46.862  0.00  0.00    +0.000 A 
ATOM     30  N   UNL     1      34.205  29.369  46.721  0.00  0.00    +0.000 NA
ATOM     31  C   UNL     1      33.560  28.843  47.777  0.00  0.00    +0.000 A 
ATOM     32  N   UNL     1      34.052  29.051  49.000  0.00  0.00    +0.000 NA
ATOM     33  H   UNL     1      35.469  29.870  50.210  0.00  0.00    +0.000 HD
ATOM     34  H   UNL     1      35.783  30.483  45.981  0.00  0.00    +0.000 HD
BRANCH  31  35
ATOM     35  C   UNL     1      32.350  28.067  47.599  0.00  0.00    +0.000 A 
ATOM     36  C   UNL     1      32.224  26.830  48.154  0.00  0.00    +0.000 A 
ATOM     37  C   UNL     1      31.089  26.064  48.007  0.00  0.00    +0.000 A 
ATOM     38  C   UNL     1      30.088  26.618  47.268  0.00  0.00    +0.000 A 
ATOM     39  C   UNL     1      30.160  27.896  46.669  0.00  0.00    +0.000 A 
ATOM     40  N   UNL     1      31.327  28.582  46.871  0.00  0.00    +0.000 NA
ATOM     41  H   UNL     1      33.067  26.463  48.725  0.00  0.00    +0.000 HD
ATOM     42  H   UNL     1      31.019  25.099  48.451  0.00  0.00    +0.000 HD
ATOM     43  H   UNL     1      29.173  26.063  47.119  0.00  0.00    +0.000 HD
ATOM     44  H   UNL     1      29.348  28.311  46.088  0.00  0.00    +0.000 HD
ENDBRANCH  31  35
ENDBRANCH   1  28
TORSDOF 3
