REMARK  Name = 
REMARK  5 active torsions:
REMARK  status: ('A' for Active; 'I' for Inactive)
REMARK    1  A    between atoms: C_1  and  N_7
REMARK    2  A    between atoms: C_3  and  C_15
REMARK    3  A    between atoms: C_4  and  C_10
REMARK    4  A    between atoms: C_18  and  C_20
REMARK    5  A    between atoms: C_23  and  C_39
REMARK                            x       y       z     vdW  Elec       q    Type
REMARK                         _______ _______ _______ _____ _____    ______ ____
ROOT
ATOM      1  C   UNL     1      34.279  29.367  46.098  0.00  0.00    +0.000 A 
ATOM      2  C   UNL     1      35.019  29.927  45.063  0.00  0.00    +0.000 A 
ATOM      3  N   UNL     1      36.090  30.555  45.621  0.00  0.00    +0.000 N 
ATOM      4  C   UNL     1      36.030  30.398  46.981  0.00  0.00    +0.000 A 
ATOM      5  N   UNL     1      34.932  29.680  47.249  0.00  0.00    +0.000 NA
ATOM      6  H   UNL     1      34.830  29.900  43.998  0.00  0.00    +0.000 HD
ATOM      7  H   UNL     1      36.875  31.089  45.193  0.00  0.00    +0.000 HD
ENDROOT
BRANCH   1  10
ATOM      8  C   UNL     1      32.137  28.370  47.081  0.00  0.00    +0.000 C 
ATOM      9  C   UNL     1      32.938  27.185  46.424  0.00  0.00    +0.000 C 
ATOM     10  C   UNL     1      33.003  28.596  45.926  0.00  0.00    +0.000 C 
ATOM     11  H   UNL     1      32.518  28.627  48.090  0.00  0.00    +0.000 HD
ATOM     12  H   UNL     1      32.328  26.493  45.827  0.00  0.00    +0.000 HD
ATOM     13  H   UNL     1      33.833  26.843  46.959  0.00  0.00    +0.000 HD
ATOM     14  H   UNL     1      32.528  28.791  44.943  0.00  0.00    +0.000 HD
BRANCH   8  18
ATOM     15  C   UNL     1      28.568  28.669  47.407  0.00  0.00    +0.000 A 
ATOM     16  C   UNL     1      28.652  28.033  46.191  0.00  0.00    +0.000 A 
ATOM     17  C   UNL     1      30.020  27.829  45.895  0.00  0.00    +0.000 A 
ATOM     18  N   UNL     1      30.699  28.346  46.936  0.00  0.00    +0.000 N 
ATOM     19  N   UNL     1      29.824  28.821  47.788  0.00  0.00    +0.000 NA
ATOM     20  H   UNL     1      27.892  27.687  45.474  0.00  0.00    +0.000 HD
ATOM     21  H   UNL     1      30.421  27.355  45.011  0.00  0.00    +0.000 HD
BRANCH  15  23
ATOM     22  C   UNL     1      26.408  28.052  48.532  0.00  0.00    +0.000 A 
ATOM     23  C   UNL     1      27.324  29.038  48.032  0.00  0.00    +0.000 A 
ATOM     24  C   UNL     1      26.968  30.353  48.173  0.00  0.00    +0.000 A 
ATOM     25  N   UNL     1      25.784  30.669  48.769  0.00  0.00    +0.000 NA
ATOM     26  C   UNL     1      24.946  29.703  49.228  0.00  0.00    +0.000 A 
ATOM     27  N   UNL     1      25.249  28.391  49.114  0.00  0.00    +0.000 NA
ATOM     28  H   UNL     1      26.768  27.045  48.379  0.00  0.00    +0.000 HD
ATOM     29  H   UNL     1      27.572  31.171  47.839  0.00  0.00    +0.000 HD
ATOM     30  H   UNL     1      24.004  29.901  49.703  0.00  0.00    +0.000 HD
ENDBRANCH  15  23
ENDBRANCH   8  18
ENDBRANCH   1  10
BRANCH   4  31
ATOM     31  C   UNL     1      37.006  30.939  47.961  0.00  0.00    +0.000 A 
ATOM     32  C   UNL     1      37.051  30.433  49.277  0.00  0.00    +0.000 A 
ATOM     33  S   UNL     1      38.393  31.418  50.045  0.00  0.00    +0.000 S 
ATOM     34  C   UNL     1      38.660  32.353  48.430  0.00  0.00    +0.000 A 
ATOM     35  N   UNL     1      37.886  31.885  47.745  0.00  0.00    +0.000 NA
ATOM     36  H   UNL     1      36.414  29.643  49.682  0.00  0.00    +0.000 HD
BRANCH  34  39
ATOM     37 CL   UNL     1      37.506  35.024  48.424  0.00  0.00    +0.000 Cl
ATOM     38  C   UNL     1      39.210  34.720  48.300  0.00  0.00    +0.000 A 
ATOM     39  C   UNL     1      39.715  33.431  48.308  0.00  0.00    +0.000 A 
ATOM     40  C   UNL     1      41.032  33.079  48.216  0.00  0.00    +0.000 A 
ATOM     41  H   UNL     1      41.363  32.050  48.228  0.00  0.00    +0.000 HD
ATOM     42  C   UNL     1      41.920  34.130  48.107  0.00  0.00    +0.000 A 
ATOM     43  H   UNL     1      42.992  33.963  48.028  0.00  0.00    +0.000 HD
ATOM     44  C   UNL     1      41.530  35.473  48.089  0.00  0.00    +0.000 A 
ATOM     45  H   UNL     1      42.256  36.267  48.002  0.00  0.00    +0.000 HD
ATOM     46  C   UNL     1      40.173  35.701  48.188  0.00  0.00    +0.000 A 
ATOM     47 CL   UNL     1      39.556  37.349  48.177  0.00  0.00    +0.000 Cl
ENDBRANCH  34  39
ENDBRANCH   4  31
TORSDOF 5
