
 OpenBabel03272508543D

 40 43  0  0  1  0  0  0  0  0999 V2000
   38.3820   31.8860   44.4990 C   0  0  0  0  0  0  0  0  0  0  0  0
   37.2540   32.4420   44.3870 O   0  0  0  0  0  0  0  0  0  0  0  0
   38.9410   31.6270   45.7960 N   0  0  0  0  0  0  0  0  0  0  0  0
   39.9210   31.3530   45.9470 H   0  0  0  0  0  0  0  0  0  0  0  0
   39.1610   31.4840   43.3090 C   0  0  0  0  0  0  0  0  0  0  0  0
   40.1610   30.5620   43.4600 C   0  0  0  0  0  0  0  0  0  0  0  0
   40.8700   30.2080   42.3240 C   0  0  0  0  0  0  0  0  0  0  0  0
   40.5410   30.7850   41.1370 C   0  0  0  0  0  0  0  0  0  0  0  0
   39.5320   31.7170   40.9740 C   0  0  0  0  0  0  0  0  0  0  0  0
   38.8820   32.0200   42.1050 N   0  0  0  0  0  0  0  0  0  0  0  0
   40.4360   30.0940   44.3950 H   0  0  0  0  0  0  0  0  0  0  0  0
   41.6860   29.4710   42.3810 H   0  0  0  0  0  0  0  0  0  0  0  0
   41.1200   30.4780   40.2760 H   0  0  0  0  0  0  0  0  0  0  0  0
   37.2660   33.5730   41.1520 Cl  0  0  0  0  0  0  0  0  0  0  0  0
   38.1440   33.2130   39.6620 C   0  0  0  0  0  0  0  0  0  0  0  0
   39.1890   32.3270   39.7030 C   0  0  0  0  0  0  0  0  0  0  0  0
   39.8420   32.0720   38.5410 C   0  0  0  0  0  0  0  0  0  0  0  0
   40.6680   31.3870   38.5100 H   0  0  0  0  0  0  0  0  0  0  0  0
   39.4750   32.6830   37.3480 C   0  0  0  0  0  0  0  0  0  0  0  0
   39.9850   32.4960   36.3950 H   0  0  0  0  0  0  0  0  0  0  0  0
   38.4150   33.5660   37.3680 C   0  0  0  0  0  0  0  0  0  0  0  0
   38.0810   34.0740   36.4670 H   0  0  0  0  0  0  0  0  0  0  0  0
   37.7170   33.8600   38.5220 C   0  0  0  0  0  0  0  0  0  0  0  0
   36.3620   34.9830   38.5790 Cl  0  0  0  0  0  0  0  0  0  0  0  0
   38.4310   31.1300   48.1830 C   0  0  2  0  0  0  0  0  0  0  0  0
   38.7070   32.5730   48.1030 C   0  0  0  0  0  0  0  0  0  0  0  0
   38.0650   31.7660   46.9430 C   0  0  1  0  0  0  0  0  0  0  0  0
   39.3510   30.5110   48.2600 H   0  0  0  0  0  0  0  0  0  0  0  0
   38.0440   33.2950   48.6210 H   0  0  0  0  0  0  0  0  0  0  0  0
   39.7260   32.9300   47.9680 H   0  0  0  0  0  0  0  0  0  0  0  0
   37.0090   32.0460   46.7430 H   0  0  0  0  0  0  0  0  0  0  0  0
   35.0910   30.2380   49.5020 C   0  0  0  0  0  0  0  0  0  0  0  0
   35.4100   29.5570   50.7080 C   0  0  0  0  0  0  0  0  0  0  0  0
   36.7980   29.4260   51.0480 C   0  0  0  0  0  0  0  0  0  0  0  0
   37.7460   29.9490   50.2150 N   0  0  0  0  0  0  0  0  0  0  0  0
   37.3520   30.5900   49.0710 C   0  0  0  0  0  0  0  0  0  0  0  0
   36.0370   30.7530   48.6840 N   0  0  0  0  0  0  0  0  0  0  0  0
   34.0670   30.3630   49.2040 H   0  0  0  0  0  0  0  0  0  0  0  0
   34.6350   29.1640   51.3300 H   0  0  0  0  0  0  0  0  0  0  0  0
   37.0550   28.9120   51.9620 H   0  0  0  0  0  0  0  0  0  0  0  0
  1  3  1  0  0  0  0
  2  1  2  0  0  0  0
  3  4  1  0  0  0  0
  3 27  1  0  0  0  0
  5  6  1  0  0  0  0
  5  1  1  0  0  0  0
  6 11  1  0  0  0  0
  7 12  1  0  0  0  0
  7  6  2  0  0  0  0
  8  7  1  0  0  0  0
  9  8  2  0  0  0  0
  9 10  1  0  0  0  0
 10  5  2  0  0  0  0
 13  8  1  0  0  0  0
 15 16  1  0  0  0  0
 15 14  1  0  0  0  0
 16  9  1  0  0  0  0
 17 16  2  0  0  0  0
 18 17  1  0  0  0  0
 19 21  2  0  0  0  0
 19 17  1  0  0  0  0
 20 19  1  0  0  0  0
 21 23  1  0  0  0  0
 22 21  1  0  0  0  0
 23 24  1  0  0  0  0
 23 15  2  0  0  0  0
 25 28  1  6  0  0  0
 25 36  1  0  0  0  0
 26 25  1  0  0  0  0
 26 29  1  0  0  0  0
 27 31  1  6  0  0  0
 27 26  1  0  0  0  0
 27 25  1  0  0  0  0
 30 26  1  0  0  0  0
 32 33  1  0  0  0  0
 33 34  2  0  0  0  0
 33 39  1  0  0  0  0
 34 40  1  0  0  0  0
 35 34  1  0  0  0  0
 36 35  2  0  0  0  0
 37 36  1  0  0  0  0
 37 32  2  0  0  0  0
 38 32  1  0  0  0  0
M  END
>  <minimizedAffinity>
-5.42021275

>  <minimizedRMSD>
0.193859026

$$$$
