
     RDKit          3D

 47 51  0  0  0  0  0  0  0  0999 V2000
   36.2356   30.1788   46.8599 C   0  0  0  0  0  0  0  0  0  0  0  0
   37.0788   30.7280   47.7957 C   0  0  0  0  0  0  0  0  0  0  0  0
   38.0796   31.6438   47.4282 C   0  0  0  0  0  0  0  0  0  0  0  0
   38.1624   31.9549   46.0855 C   0  0  0  0  0  0  0  0  0  0  0  0
   39.0381   32.8145   45.4785 N   0  0  0  0  0  0  0  0  0  0  0  0
   38.7338   32.7951   44.1668 C   0  0  0  0  0  0  0  0  0  0  0  0
   37.7292   31.9761   43.9499 N   0  0  0  0  0  0  0  0  0  0  0  0
   37.3334   31.4247   45.1132 C   0  0  0  0  0  0  0  0  0  0  0  0
   36.3470   30.5143   45.5149 C   0  0  0  0  0  0  0  0  0  0  0  0
   37.4781   30.2043   51.5044 C   0  0  0  0  0  0  0  0  0  0  0  0
   37.7920   30.6262   50.2191 C   0  0  0  0  0  0  0  0  0  0  0  0
   36.9216   30.3599   49.1922 C   0  0  0  0  0  0  0  0  0  0  0  0
   35.7656   29.6752   49.5089 N   0  0  0  0  0  0  0  0  0  0  0  0
   35.4619   29.2659   50.7579 C   0  0  0  0  0  0  0  0  0  0  0  0
   36.3125   29.5307   51.7392 N   0  0  0  0  0  0  0  0  0  0  0  0
   39.4379   33.5688   43.2367 O   0  0  0  0  0  0  0  0  0  0  0  0
   39.5714   31.8646   41.7185 N   0  0  0  0  0  0  0  0  0  0  0  0
   39.2093   33.2412   41.8750 C   0  0  1  0  0  0  0  0  0  0  0  0
   37.8010   33.4367   41.5183 C   0  0  0  0  0  0  0  0  0  0  0  0
   37.6410   33.1627   40.1643 O   0  0  0  0  0  0  0  0  0  0  0  0
   38.0641   31.9216   39.7873 C   0  0  0  0  0  0  0  0  0  0  0  0
   39.4306   31.5490   40.2957 C   0  0  1  0  0  0  0  0  0  0  0  0
   35.4622   29.4731   47.1294 H   0  0  0  0  0  0  0  0  0  0  0  0
   38.7545   32.0876   48.1497 H   0  0  0  0  0  0  0  0  0  0  0  0
   39.8052   33.3851   45.9404 H   0  0  0  0  0  0  0  0  0  0  0  0
   35.6990   30.0989   44.7583 H   0  0  0  0  0  0  0  0  0  0  0  0
   38.1954   30.4355   52.2911 H   0  0  0  0  0  0  0  0  0  0  0  0
   38.6808   31.1550   49.9625 H   0  0  0  0  0  0  0  0  0  0  0  0
   34.5321   28.7342   50.9160 H   0  0  0  0  0  0  0  0  0  0  0  0
   39.0473   31.1488   42.1873 H   0  0  0  0  0  0  0  0  0  0  0  0
   39.8182   33.8649   41.1891 H   0  0  0  0  0  0  0  0  0  0  0  0
   36.9886   32.9401   41.9786 H   0  0  0  0  0  0  0  0  0  0  0  0
   37.5882   34.5456   41.6008 H   0  0  0  0  0  0  0  0  0  0  0  0
   37.9960   31.8404   38.7081 H   0  0  0  0  0  0  0  0  0  0  0  0
   37.3611   31.1902   40.2843 H   0  0  0  0  0  0  0  0  0  0  0  0
   39.5028   30.4392   40.1848 H   0  0  0  0  0  0  0  0  0  0  0  0
   42.3121   30.4007   40.6747 Cl  0  0  0  0  0  0  0  0  0  0  0  0
   41.8645   31.7911   39.7095 C   0  0  0  0  0  0  0  0  0  0  0  0
   40.5495   32.1971   39.5838 C   0  0  0  0  0  0  0  0  0  0  0  0
   40.3850   33.2800   38.7572 C   0  0  0  0  0  0  0  0  0  0  0  0
   39.4326   33.7054   38.5606 H   0  0  0  0  0  0  0  0  0  0  0  0
   41.4093   33.9388   38.0906 C   0  0  0  0  0  0  0  0  0  0  0  0
   41.2669   34.7828   37.4484 H   0  0  0  0  0  0  0  0  0  0  0  0
   42.7085   33.4844   38.2581 C   0  0  0  0  0  0  0  0  0  0  0  0
   43.5265   33.9769   37.7527 H   0  0  0  0  0  0  0  0  0  0  0  0
   42.9312   32.3980   39.0780 C   0  0  0  0  0  0  0  0  0  0  0  0
   44.5925   31.8715   39.2495 Cl  0  0  0  0  0  0  0  0  0  0  0  0
  1  2  2  0
  2 12  1  0
  3  2  1  0
  4  3  2  0
  5  4  1  0
  6  5  1  0
  7  6  2  0
  7  8  1  0
  8  9  2  0
  8  4  1  0
  9  1  1  0
 10 15  2  0
 11 10  1  0
 12 13  1  0
 12 11  2  0
 13 14  2  0
 14 15  1  0
 16  6  1  0
 17 18  1  0
 18 16  1  0
 19 18  1  0
 20 19  1  0
 21 20  1  0
 21 22  1  0
 22 17  1  0
  1 23  1  0
  3 24  1  0
  5 25  1  0
  9 26  1  0
 10 27  1  0
 11 28  1  0
 14 29  1  0
 17 30  1  0
 18 31  1  6
 19 32  1  0
 19 33  1  0
 21 34  1  0
 21 35  1  0
 22 36  1  1
 37 38  1  0
 38 39  2  0
 39 40  1  0
 40 41  1  0
 40 42  2  0
 42 43  1  0
 42 44  1  0
 44 45  1  0
 44 46  2  0
 46 47  1  0
 46 38  1  0
 22 39  1  0
M  ISO  8  23  14  24  14  25   9  26  14  27  14  28  14  29  14  30   5
M  ISO  8  31  13  32  13  33  13  34  13  35  13  36  13  41  15  43  15
M  ISO  1  45  15
M  END
>  <DihAtoms>  (1) 
20,21,38,37

>  <DihDeg>  (1) 
148.5483684299209

$$$$
