
 OpenBabel03272504573D

 35 37  0  0  1  0  0  0  0  0999 V2000
   36.3210   31.0530   49.6280 C   0  0  1  0  0  0  0  0  0  0  0  0
   34.9440   31.3760   49.3420 C   0  0  0  0  0  0  0  0  0  0  0  0
   35.5930   30.2040   48.6780 C   0  0  2  0  0  0  0  0  0  0  0  0
   36.6410   30.5080   50.5830 H   0  0  0  0  0  0  0  0  0  0  0  0
   34.4290   31.4630   50.2770 H   0  0  0  0  0  0  0  0  0  0  0  0
   34.7710   32.2600   48.6930 H   0  0  0  0  0  0  0  0  0  0  0  0
   35.4770   30.2730   47.6080 H   0  0  0  0  0  0  0  0  0  0  0  0
   37.4380   31.8890   49.0670 C   0  0  0  0  0  0  0  0  0  0  0  0
   37.8950   32.9340   49.8960 C   0  0  0  0  0  0  0  0  0  0  0  0
   38.9170   33.6850   49.3680 C   0  0  0  0  0  0  0  0  0  0  0  0
   39.4110   33.4040   48.1420 N   0  0  0  0  0  0  0  0  0  0  0  0
   38.9430   32.3840   47.3700 C   0  0  0  0  0  0  0  0  0  0  0  0
   37.9230   31.6080   47.8580 N   0  0  0  0  0  0  0  0  0  0  0  0
   39.4540   32.0560   46.1090 N   0  0  0  0  0  0  0  0  0  0  0  0
   37.5130   33.1650   50.8640 H   0  0  0  0  0  0  0  0  0  0  0  0
   39.3620   34.5110   49.8860 H   0  0  0  0  0  0  0  0  0  0  0  0
   40.2060   31.3320   46.0290 H   0  0  0  0  0  0  0  0  0  0  0  0
   39.1290   32.4970   45.2150 H   0  0  0  0  0  0  0  0  0  0  0  0
   35.2140   28.9520   49.1770 O   0  0  0  0  0  0  0  0  0  0  0  0
   33.8790   26.9410   48.2700 O   0  0  0  0  0  0  0  0  0  0  0  0
   33.8190   28.4280   48.4270 P   0  0  1  0  0  0  0  0  0  0  0  0
   32.4890   28.6300   49.5370 O   0  0  0  0  0  0  0  0  0  0  0  0
   31.6760   28.6640   48.9780 H   0  0  0  0  0  0  0  0  0  0  0  0
   33.5380   29.2960   47.0620 O   0  0  0  0  0  0  0  0  0  0  0  0
   30.7830   28.0990   47.4280 Cl  0  0  0  0  0  0  0  0  0  0  0  0
   31.4440   28.6900   45.9480 C   0  0  0  0  0  0  0  0  0  0  0  0
   32.7270   29.1970   46.0070 C   0  0  0  0  0  0  0  0  0  0  0  0
   33.2670   29.6790   44.8030 C   0  0  0  0  0  0  0  0  0  0  0  0
   34.2620   30.1020   44.7140 H   0  0  0  0  0  0  0  0  0  0  0  0
   32.4950   29.6190   43.6380 C   0  0  0  0  0  0  0  0  0  0  0  0
   32.9030   29.9890   42.7010 H   0  0  0  0  0  0  0  0  0  0  0  0
   31.2290   29.1070   43.6310 C   0  0  0  0  0  0  0  0  0  0  0  0
   30.6600   29.0720   42.7320 H   0  0  0  0  0  0  0  0  0  0  0  0
   30.6900   28.6350   44.7930 C   0  0  0  0  0  0  0  0  0  0  0  0
   29.0950   27.9700   44.8680 Cl  0  0  0  0  0  0  0  0  0  0  0  0
  1  4  1  1  0  0  0
  2  1  1  0  0  0  0
  2  5  1  0  0  0  0
  3  7  1  6  0  0  0
  3 19  1  0  0  0  0
  3  2  1  0  0  0  0
  3  1  1  0  0  0  0
  6  2  1  0  0  0  0
  8  1  1  0  0  0  0
  8  9  1  0  0  0  0
  9 15  1  0  0  0  0
 10 16  1  0  0  0  0
 10  9  2  0  0  0  0
 11 10  1  0  0  0  0
 12 13  1  0  0  0  0
 12 11  2  0  0  0  0
 13  8  2  0  0  0  0
 14 12  1  0  0  0  0
 17 14  1  0  0  0  0
 18 14  1  0  0  0  0
 21 20  2  6  0  0  0
 21 19  1  0  0  0  0
 21 22  1  0  0  0  0
 23 22  1  0  0  0  0
 24 21  1  0  0  0  0
 26 27  1  0  0  0  0
 26 25  1  0  0  0  0
 27 24  1  0  0  0  0
 28 27  2  0  0  0  0
 29 28  1  0  0  0  0
 30 28  1  0  0  0  0
 31 30  1  0  0  0  0
 32 30  2  0  0  0  0
 32 34  1  0  0  0  0
 33 32  1  0  0  0  0
 34 35  1  0  0  0  0
 34 26  2  0  0  0  0
M  END
>  <minimizedAffinity>
-4.42489815

>  <minimizedRMSD>
2.96243024

$$$$
