
 OpenBabel03272507343D

 38 41  0  0  1  0  0  0  0  0999 V2000
   33.1910   27.3570   48.2290 C   0  0  0  0  0  0  0  0  0  0  0  0
   31.9910   27.1690   48.6060 O   0  0  0  0  0  0  0  0  0  0  0  0
   35.8560   29.1490   49.8060 C   0  0  0  0  0  0  0  0  0  0  0  0
   34.7980   29.6920   50.4990 C   0  0  0  0  0  0  0  0  0  0  0  0
   33.6250   29.0990   50.0080 C   0  0  0  0  0  0  0  0  0  0  0  0
   34.0520   28.2210   49.0350 C   0  0  0  0  0  0  0  0  0  0  0  0
   35.3630   28.2850   48.9510 O   0  0  0  0  0  0  0  0  0  0  0  0
   34.7610   30.4430   51.2960 H   0  0  0  0  0  0  0  0  0  0  0  0
   32.6150   29.3000   50.3360 H   0  0  0  0  0  0  0  0  0  0  0  0
   37.2350   29.5370   50.0570 C   0  0  0  0  0  0  0  0  0  0  0  0
   37.8650   28.9770   50.9630 O   0  0  0  0  0  0  0  0  0  0  0  0
   37.7850   30.5680   49.2220 C   0  0  0  0  0  0  0  0  0  0  0  0
   38.1360   31.7570   49.8330 C   0  0  0  0  0  0  0  0  0  0  0  0
   38.6720   32.7840   49.0500 C   0  0  0  0  0  0  0  0  0  0  0  0
   38.8210   32.5520   47.7060 N   0  0  0  0  0  0  0  0  0  0  0  0
   38.4720   31.3920   47.1450 C   0  0  0  0  0  0  0  0  0  0  0  0
   37.9570   30.4030   47.8910 N   0  0  0  0  0  0  0  0  0  0  0  0
   38.0260   31.9620   50.8980 H   0  0  0  0  0  0  0  0  0  0  0  0
   38.9710   33.7410   49.4500 H   0  0  0  0  0  0  0  0  0  0  0  0
   38.5720   31.1700   46.0950 H   0  0  0  0  0  0  0  0  0  0  0  0
   33.7280   26.7040   46.9880 C   0  0  1  0  0  0  0  0  0  0  0  0
   32.5500   25.9900   46.2220 C   0  0  0  0  0  0  0  0  0  0  0  0
   33.2980   27.1370   45.6570 C   0  0  1  0  0  0  0  0  0  0  0  0
   34.4990   25.9180   47.1960 H   0  0  0  0  0  0  0  0  0  0  0  0
   32.7370   24.9970   45.8180 H   0  0  0  0  0  0  0  0  0  0  0  0
   31.5260   26.2330   46.5380 H   0  0  0  0  0  0  0  0  0  0  0  0
   33.9430   26.9100   44.7970 H   0  0  0  0  0  0  0  0  0  0  0  0
   30.7170   27.0830   44.2380 Cl  0  0  0  0  0  0  0  0  0  0  0  0
   31.4730   28.5260   44.9280 C   0  0  0  0  0  0  0  0  0  0  0  0
   32.7040   28.4910   45.5920 C   0  0  0  0  0  0  0  0  0  0  0  0
   33.1740   29.6980   46.0800 C   0  0  0  0  0  0  0  0  0  0  0  0
   34.1350   29.5830   46.5820 H   0  0  0  0  0  0  0  0  0  0  0  0
   32.4640   30.8470   45.9140 C   0  0  0  0  0  0  0  0  0  0  0  0
   32.9090   31.7460   46.3300 H   0  0  0  0  0  0  0  0  0  0  0  0
   31.2490   30.8800   45.2590 C   0  0  0  0  0  0  0  0  0  0  0  0
   30.6960   31.8010   45.1340 H   0  0  0  0  0  0  0  0  0  0  0  0
   30.7570   29.6910   44.7620 C   0  0  0  0  0  0  0  0  0  0  0  0
   29.2150   29.7420   43.9310 Cl  0  0  0  0  0  0  0  0  0  0  0  0
  1  2  2  0  0  0  0
  1  6  1  0  0  0  0
  3 10  1  0  0  0  0
  3  4  2  0  0  0  0
  4  8  1  0  0  0  0
  5  9  1  0  0  0  0
  5  4  1  0  0  0  0
  6  5  2  0  0  0  0
  7  6  1  0  0  0  0
  7  3  1  0  0  0  0
 10 11  2  0  0  0  0
 12 13  1  0  0  0  0
 12 10  1  0  0  0  0
 13 18  1  0  0  0  0
 14 19  1  0  0  0  0
 14 13  2  0  0  0  0
 15 14  1  0  0  0  0
 16 15  2  0  0  0  0
 16 17  1  0  0  0  0
 17 12  2  0  0  0  0
 20 16  1  0  0  0  0
 21 24  1  1  0  0  0
 21  1  1  0  0  0  0
 22 26  1  0  0  0  0
 22 21  1  0  0  0  0
 23 27  1  6  0  0  0
 23 22  1  0  0  0  0
 23 21  1  0  0  0  0
 25 22  1  0  0  0  0
 28 29  1  0  0  0  0
 29 30  1  0  0  0  0
 30 23  1  0  0  0  0
 30 31  2  0  0  0  0
 31 32  1  0  0  0  0
 33 31  1  0  0  0  0
 33 34  1  0  0  0  0
 35 33  2  0  0  0  0
 36 35  1  0  0  0  0
 37 29  2  0  0  0  0
 37 35  1  0  0  0  0
 38 37  1  0  0  0  0
M  END
>  <minimizedAffinity>
-5.45145988

>  <minimizedRMSD>
3.0800736

$$$$
