REMARK  Name = 
REMARK  6 active torsions:
REMARK  status: ('A' for Active; 'I' for Inactive)
REMARK    1  A    between atoms: C_1  and  C_8
REMARK    2  A    between atoms: N_4  and  C_18
REMARK    3  A    between atoms: C_6  and  O_12
REMARK    4  A    between atoms: O_12  and  C_13
REMARK    5  A    between atoms: C_17  and  O_22
REMARK    6  A    between atoms: O_22  and  C_35
REMARK                            x       y       z     vdW  Elec       q    Type
REMARK                         _______ _______ _______ _____ _____    ______ ____
ROOT
ATOM      1  C   UNL     1      39.922  30.717  41.892  0.00  0.00    +0.000 C 
ATOM      2  C   UNL     1      39.926  31.975  42.782  0.00  0.00    +0.000 C 
ATOM      3  C   UNL     1      38.858  32.762  42.068  0.00  0.00    +0.000 C 
ATOM      4  O   UNL     1      38.983  32.498  40.725  0.00  0.00    +0.000 OA
ATOM      5  C   UNL     1      39.812  31.435  40.540  0.00  0.00    +0.000 C 
ATOM      6  H   UNL     1      40.847  30.154  41.980  0.00  0.00    +0.000 HD
ATOM      7  H   UNL     1      40.871  32.513  42.739  0.00  0.00    +0.000 HD
ATOM      8  H   UNL     1      37.876  32.430  42.456  0.00  0.00    +0.000 HD
ATOM      9  H   UNL     1      38.957  33.855  42.207  0.00  0.00    +0.000 HD
ATOM     10  H   UNL     1      39.581  30.759  39.720  0.00  0.00    +0.000 HD
ATOM     11  H   UNL     1      40.837  31.855  40.341  0.00  0.00    +0.000 HD
ENDROOT
BRANCH   2  15
ATOM     12  C   UNL     1      38.498  31.134  45.968  0.00  0.00    +0.000 A 
ATOM     13  C   UNL     1      39.822  31.183  46.311  0.00  0.00    +0.000 A 
ATOM     14  C   UNL     1      40.469  31.509  45.119  0.00  0.00    +0.000 A 
ATOM     15  N   UNL     1      39.575  31.642  44.134  0.00  0.00    +0.000 N 
ATOM     16  N   UNL     1      38.365  31.412  44.652  0.00  0.00    +0.000 NA
ATOM     17  H   UNL     1      40.283  31.010  47.292  0.00  0.00    +0.000 HD
ATOM     18  H   UNL     1      41.562  31.615  45.112  0.00  0.00    +0.000 HD
BRANCH  12  21
ATOM     19  C   UNL     1      36.436  30.627  49.060  0.00  0.00    +0.000 A 
ATOM     20  C   UNL     1      37.518  30.931  48.246  0.00  0.00    +0.000 A 
ATOM     21  C   UNL     1      37.395  30.828  46.873  0.00  0.00    +0.000 A 
ATOM     22  N   UNL     1      36.209  30.430  46.372  0.00  0.00    +0.000 NA
ATOM     23  C   UNL     1      35.162  30.138  47.190  0.00  0.00    +0.000 A 
ATOM     24  N   UNL     1      35.271  30.234  48.509  0.00  0.00    +0.000 NA
ATOM     25  H   UNL     1      38.499  31.256  48.574  0.00  0.00    +0.000 HD
ATOM     26  H   UNL     1      34.222  29.821  46.762  0.00  0.00    +0.000 HD
BRANCH  19  27
ATOM     27  O   UNL     1      36.715  30.779  50.418  0.00  0.00    +0.000 OA
BRANCH  27  28
ATOM     28  C   UNL     1      36.783  29.704  51.318  0.00  0.00    +0.000 C 
ATOM     29  F   UNL     1      35.538  29.195  51.633  0.00  0.00    +0.000 F 
ATOM     30  F   UNL     1      37.460  30.103  52.444  0.00  0.00    +0.000 F 
ATOM     31  F   UNL     1      37.542  28.696  50.728  0.00  0.00    +0.000 F 
ENDBRANCH  27  28
ENDBRANCH  19  27
ENDBRANCH  12  21
ENDBRANCH   2  15
BRANCH   1  32
ATOM     32  O   UNL     1      38.737  30.064  42.160  0.00  0.00    +0.000 OA
BRANCH  32  35
ATOM     33 CL   UNL     1      37.087  28.523  40.205  0.00  0.00    +0.000 Cl
ATOM     34  C   UNL     1      37.856  27.951  41.681  0.00  0.00    +0.000 A 
ATOM     35  C   UNL     1      38.611  28.756  42.532  0.00  0.00    +0.000 A 
ATOM     36  C   UNL     1      39.153  28.165  43.654  0.00  0.00    +0.000 A 
ATOM     37  H   UNL     1      39.736  28.793  44.307  0.00  0.00    +0.000 HD
ATOM     38  C   UNL     1      38.980  26.823  43.965  0.00  0.00    +0.000 A 
ATOM     39  H   UNL     1      39.427  26.418  44.855  0.00  0.00    +0.000 HD
ATOM     40  C   UNL     1      38.220  26.042  43.096  0.00  0.00    +0.000 A 
ATOM     41  H   UNL     1      38.097  24.992  43.359  0.00  0.00    +0.000 HD
ATOM     42  C   UNL     1      37.663  26.614  41.959  0.00  0.00    +0.000 A 
ATOM     43 CL   UNL     1      36.739  25.509  40.969  0.00  0.00    +0.000 Cl
ENDBRANCH  32  35
ENDBRANCH   1  32
TORSDOF 6
