
 OpenBabel03272503423D

 43 46  0  0  1  0  0  0  0  0999 V2000
   39.8880   30.7570   41.8300 C   0  0  2  0  0  0  0  0  0  0  0  0
   39.8850   31.9910   42.7530 C   0  0  1  0  0  0  0  0  0  0  0  0
   38.8000   32.7830   42.0700 C   0  0  0  0  0  0  0  0  0  0  0  0
   38.9150   32.5550   40.7200 O   0  0  0  0  0  0  0  0  0  0  0  0
   39.7550   31.5080   40.4990 C   0  0  0  0  0  0  0  0  0  0  0  0
   40.8200   30.2030   41.8950 H   0  0  0  0  0  0  0  0  0  0  0  0
   40.8230   32.5420   42.7150 H   0  0  0  0  0  0  0  0  0  0  0  0
   37.8260   32.4280   42.4590 H   0  0  0  0  0  0  0  0  0  0  0  0
   38.8870   33.8730   42.2370 H   0  0  0  0  0  0  0  0  0  0  0  0
   39.5240   30.8510   39.6640 H   0  0  0  0  0  0  0  0  0  0  0  0
   40.7730   31.9460   40.3010 H   0  0  0  0  0  0  0  0  0  0  0  0
   38.4970   31.0960   45.9420 C   0  0  0  0  0  0  0  0  0  0  0  0
   39.8310   31.0420   46.2440 C   0  0  0  0  0  0  0  0  0  0  0  0
   40.4630   31.3810   45.0480 C   0  0  0  0  0  0  0  0  0  0  0  0
   39.5520   31.6180   44.0990 N   0  0  0  0  0  0  0  0  0  0  0  0
   38.3450   31.4440   44.6450 N   0  0  0  0  0  0  0  0  0  0  0  0
   40.3070   30.7930   47.2010 H   0  0  0  0  0  0  0  0  0  0  0  0
   41.5600   31.4150   45.0110 H   0  0  0  0  0  0  0  0  0  0  0  0
   36.4800   30.6430   49.0720 C   0  0  0  0  0  0  0  0  0  0  0  0
   37.5550   30.9170   48.2380 C   0  0  0  0  0  0  0  0  0  0  0  0
   37.4030   30.8210   46.8670 C   0  0  0  0  0  0  0  0  0  0  0  0
   36.1960   30.4600   46.3880 N   0  0  0  0  0  0  0  0  0  0  0  0
   35.1560   30.1980   47.2250 C   0  0  0  0  0  0  0  0  0  0  0  0
   35.2930   30.2870   48.5420 N   0  0  0  0  0  0  0  0  0  0  0  0
   38.5510   31.2110   48.5480 H   0  0  0  0  0  0  0  0  0  0  0  0
   34.1990   29.9100   46.8150 H   0  0  0  0  0  0  0  0  0  0  0  0
   36.7890   30.7830   50.4250 O   0  0  0  0  0  0  0  0  0  0  0  0
   36.8290   29.7060   51.3240 C   0  0  0  0  0  0  0  0  0  0  0  0
   35.5720   29.2210   51.6280 F   0  0  0  0  0  0  0  0  0  0  0  0
   37.5040   30.0900   52.4560 F   0  0  0  0  0  0  0  0  0  0  0  0
   37.5730   28.6840   50.7380 F   0  0  0  0  0  0  0  0  0  0  0  0
   38.7130   30.0820   42.0930 O   0  0  0  0  0  0  0  0  0  0  0  0
   35.8570   29.2620   42.3880 Cl  0  0  0  0  0  0  0  0  0  0  0  0
   37.3000   28.2640   42.5050 C   0  0  0  0  0  0  0  0  0  0  0  0
   38.5990   28.7450   42.3490 C   0  0  0  0  0  0  0  0  0  0  0  0
   39.6330   27.8400   42.4680 C   0  0  0  0  0  0  0  0  0  0  0  0
   40.6340   28.2180   42.3460 H   0  0  0  0  0  0  0  0  0  0  0  0
   39.4360   26.4910   42.7310 C   0  0  0  0  0  0  0  0  0  0  0  0
   40.2820   25.8330   42.8120 H   0  0  0  0  0  0  0  0  0  0  0  0
   38.1270   26.0380   42.8800 C   0  0  0  0  0  0  0  0  0  0  0  0
   37.9960   24.9760   43.0860 H   0  0  0  0  0  0  0  0  0  0  0  0
   37.0680   26.9300   42.7660 C   0  0  0  0  0  0  0  0  0  0  0  0
   35.4890   26.2130   42.9790 Cl  0  0  0  0  0  0  0  0  0  0  0  0
  1  6  1  1  0  0  0
  1 32  1  0  0  0  0
  1  2  1  0  0  0  0
  2  7  1  6  0  0  0
  2 15  1  0  0  0  0
  3  9  1  0  0  0  0
  3  8  1  0  0  0  0
  3  2  1  0  0  0  0
  4  3  1  0  0  0  0
  5  4  1  0  0  0  0
  5  1  1  0  0  0  0
 10  5  1  0  0  0  0
 11  5  1  0  0  0  0
 12 13  1  0  0  0  0
 12 21  1  0  0  0  0
 13 17  1  0  0  0  0
 14 13  2  0  0  0  0
 15 16  1  0  0  0  0
 15 14  1  0  0  0  0
 16 12  2  0  0  0  0
 18 14  1  0  0  0  0
 19 27  1  0  0  0  0
 20 25  1  0  0  0  0
 20 19  2  0  0  0  0
 21 20  1  0  0  0  0
 22 21  2  0  0  0  0
 22 23  1  0  0  0  0
 23 24  2  0  0  0  0
 24 19  1  0  0  0  0
 26 23  1  0  0  0  0
 27 28  1  0  0  0  0
 28 29  1  0  0  0  0
 28 30  1  0  0  0  0
 31 28  1  0  0  0  0
 32 35  1  0  0  0  0
 33 34  1  0  0  0  0
 34 42  1  0  0  0  0
 35 36  1  0  0  0  0
 35 34  2  0  0  0  0
 36 38  2  0  0  0  0
 37 36  1  0  0  0  0
 38 39  1  0  0  0  0
 38 40  1  0  0  0  0
 40 41  1  0  0  0  0
 42 40  2  0  0  0  0
 42 43  1  0  0  0  0
M  END
>  <minimizedAffinity>
-6.42538977

>  <minimizedRMSD>
0.391830146

$$$$
