
 OpenBabel03272502573D

 44 47  0  0  0  0  0  0  0  0999 V2000
   37.2770   26.6360   33.7180 C   0  0  0  0  0  0  0  0  0  0  0  0
   37.9640   26.5910   34.9370 C   0  0  0  0  0  0  0  0  0  0  0  0
   38.4690   25.3980   35.4160 C   0  0  0  0  0  0  0  0  0  0  0  0
   38.2510   24.2790   34.6190 C   0  0  0  0  0  0  0  0  0  0  0  0
   37.5770   24.3150   33.4200 C   0  0  0  0  0  0  0  0  0  0  0  0
   37.1060   25.5130   33.0040 N   0  0  0  0  0  0  0  0  0  0  0  0
   37.4170   23.1200   32.6990 N   0  0  0  0  0  0  0  0  0  0  0  0
   37.6640   21.8680   33.3780 C   0  0  0  0  0  0  0  0  0  0  0  0
   37.5610   20.7760   32.3200 C   0  0  0  0  0  0  0  0  0  0  0  0
   36.1500   20.7980   31.7360 C   0  0  0  0  0  0  0  0  0  0  0  0
   35.8100   22.1500   31.1990 C   0  0  0  0  0  0  0  0  0  0  0  0
   37.0170   23.0670   31.3070 C   0  0  0  0  0  0  0  0  0  0  0  0
   38.1140   27.4880   35.5310 H   0  0  0  0  0  0  0  0  0  0  0  0
   38.9950   25.3600   36.3490 H   0  0  0  0  0  0  0  0  0  0  0  0
   38.6590   23.3660   35.0240 H   0  0  0  0  0  0  0  0  0  0  0  0
   38.7240   21.7830   33.7480 H   0  0  0  0  0  0  0  0  0  0  0  0
   36.9100   21.7400   34.1640 H   0  0  0  0  0  0  0  0  0  0  0  0
   37.7590   19.7840   32.7530 H   0  0  0  0  0  0  0  0  0  0  0  0
   38.2760   21.0360   31.5180 H   0  0  0  0  0  0  0  0  0  0  0  0
   35.4740   20.6150   32.6050 H   0  0  0  0  0  0  0  0  0  0  0  0
   36.0090   19.9600   31.0440 H   0  0  0  0  0  0  0  0  0  0  0  0
   35.4740   22.0970   30.1440 H   0  0  0  0  0  0  0  0  0  0  0  0
   34.9810   22.6580   31.7470 H   0  0  0  0  0  0  0  0  0  0  0  0
   36.6500   24.0920   31.0360 H   0  0  0  0  0  0  0  0  0  0  0  0
   37.8200   22.8220   30.6100 H   0  0  0  0  0  0  0  0  0  0  0  0
   36.4260   29.5050   31.6190 C   0  0  0  0  0  0  0  0  0  0  0  0
   35.7420   30.3400   32.5000 C   0  0  0  0  0  0  0  0  0  0  0  0
   35.5820   29.9260   33.7950 C   0  0  0  0  0  0  0  0  0  0  0  0
   36.1180   28.7150   34.0950 N   0  0  0  0  0  0  0  0  0  0  0  0
   36.7730   27.9110   33.2560 C   0  0  0  0  0  0  0  0  0  0  0  0
   36.9180   28.3250   32.0180 N   0  0  0  0  0  0  0  0  0  0  0  0
   36.5410   29.8600   30.5910 H   0  0  0  0  0  0  0  0  0  0  0  0
   35.3390   31.2670   32.2000 H   0  0  0  0  0  0  0  0  0  0  0  0
   32.5370   29.4770   34.3500 Cl  0  0  0  0  0  0  0  0  0  0  0  0
   33.6040   30.4810   35.2860 C   0  0  0  0  0  0  0  0  0  0  0  0
   34.9140   30.5710   34.9030 C   0  0  0  0  0  0  0  0  0  0  0  0
   35.6270   31.4130   35.7210 C   0  0  0  0  0  0  0  0  0  0  0  0
   36.6970   31.6210   35.5810 H   0  0  0  0  0  0  0  0  0  0  0  0
   35.0940   32.0870   36.7960 C   0  0  0  0  0  0  0  0  0  0  0  0
   35.6910   32.7410   37.4140 H   0  0  0  0  0  0  0  0  0  0  0  0
   33.7660   31.9510   37.1270 C   0  0  0  0  0  0  0  0  0  0  0  0
   33.3700   32.4880   37.9730 H   0  0  0  0  0  0  0  0  0  0  0  0
   33.0020   31.1180   36.3400 C   0  0  0  0  0  0  0  0  0  0  0  0
   31.3290   30.9350   36.7400 Cl  0  0  0  0  0  0  0  0  0  0  0  0
  1  2  1  0  0  0  0
  2  3  2  0  0  0  0
  2 13  1  0  0  0  0
  3 14  1  0  0  0  0
  4 15  1  0  0  0  0
  4  3  1  0  0  0  0
  5  4  2  0  0  0  0
  6  5  1  0  0  0  0
  6  1  2  0  0  0  0
  7  8  1  0  0  0  0
  7  5  1  0  0  0  0
  8 16  1  0  0  0  0
  8 17  1  0  0  0  0
  9 18  1  0  0  0  0
  9  8  1  0  0  0  0
 10  9  1  0  0  0  0
 10 20  1  0  0  0  0
 11 12  1  0  0  0  0
 11 10  1  0  0  0  0
 11 23  1  0  0  0  0
 12  7  1  0  0  0  0
 19  9  1  0  0  0  0
 21 10  1  0  0  0  0
 22 11  1  0  0  0  0
 24 12  1  0  0  0  0
 25 12  1  0  0  0  0
 26 31  2  0  0  0  0
 26 27  1  0  0  0  0
 27 28  2  0  0  0  0
 28 29  1  0  0  0  0
 28 36  1  0  0  0  0
 30  1  1  0  0  0  0
 30 29  2  0  0  0  0
 31 30  1  0  0  0  0
 32 26  1  0  0  0  0
 33 27  1  0  0  0  0
 34 35  1  0  0  0  0
 35 43  1  0  0  0  0
 36 35  2  0  0  0  0
 36 37  1  0  0  0  0
 37 39  2  0  0  0  0
 38 37  1  0  0  0  0
 39 41  1  0  0  0  0
 39 40  1  0  0  0  0
 41 42  1  0  0  0  0
 43 44  1  0  0  0  0
 43 41  2  0  0  0  0
M  END
>  <minimizedAffinity>
-6.85546875

$$$$

 OpenBabel03272502573D

 44 47  0  0  0  0  0  0  0  0999 V2000
   38.1090   26.7620   33.5020 C   0  0  0  0  0  0  0  0  0  0  0  0
   39.3250   26.8750   32.8180 C   0  0  0  0  0  0  0  0  0  0  0  0
   40.4180   26.1220   33.1980 C   0  0  0  0  0  0  0  0  0  0  0  0
   40.2260   25.2680   34.2780 C   0  0  0  0  0  0  0  0  0  0  0  0
   39.0340   25.1510   34.9560 C   0  0  0  0  0  0  0  0  0  0  0  0
   38.0000   25.9150   34.5370 N   0  0  0  0  0  0  0  0  0  0  0  0
   38.9560   24.2530   36.0340 N   0  0  0  0  0  0  0  0  0  0  0  0
   40.1860   23.7420   36.5950 C   0  0  0  0  0  0  0  0  0  0  0  0
   39.7860   22.6950   37.6290 C   0  0  0  0  0  0  0  0  0  0  0  0
   38.9480   23.3750   38.7080 C   0  0  0  0  0  0  0  0  0  0  0  0
   37.7690   24.0740   38.1160 C   0  0  0  0  0  0  0  0  0  0  0  0
   37.7080   23.8070   36.6200 C   0  0  0  0  0  0  0  0  0  0  0  0
   39.4350   27.5550   31.9780 H   0  0  0  0  0  0  0  0  0  0  0  0
   41.3510   26.2060   32.6750 H   0  0  0  0  0  0  0  0  0  0  0  0
   41.1000   24.6950   34.5460 H   0  0  0  0  0  0  0  0  0  0  0  0
   40.7900   23.1590   35.8440 H   0  0  0  0  0  0  0  0  0  0  0  0
   40.7340   24.5730   37.0550 H   0  0  0  0  0  0  0  0  0  0  0  0
   40.6730   22.2360   38.0910 H   0  0  0  0  0  0  0  0  0  0  0  0
   39.1520   21.9540   37.1070 H   0  0  0  0  0  0  0  0  0  0  0  0
   39.6120   24.1640   39.1370 H   0  0  0  0  0  0  0  0  0  0  0  0
   38.7290   22.6730   39.5210 H   0  0  0  0  0  0  0  0  0  0  0  0
   36.8210   23.7510   38.5930 H   0  0  0  0  0  0  0  0  0  0  0  0
   37.7950   25.1840   38.2350 H   0  0  0  0  0  0  0  0  0  0  0  0
   36.9030   24.4790   36.2210 H   0  0  0  0  0  0  0  0  0  0  0  0
   37.4240   22.7840   36.3680 H   0  0  0  0  0  0  0  0  0  0  0  0
   35.4100   28.2000   31.5000 C   0  0  0  0  0  0  0  0  0  0  0  0
   34.8530   29.1410   32.3630 C   0  0  0  0  0  0  0  0  0  0  0  0
   35.4000   29.2830   33.6100 C   0  0  0  0  0  0  0  0  0  0  0  0
   36.4540   28.4720   33.8850 N   0  0  0  0  0  0  0  0  0  0  0  0
   36.9910   27.5680   33.0630 C   0  0  0  0  0  0  0  0  0  0  0  0
   36.4550   27.4470   31.8700 N   0  0  0  0  0  0  0  0  0  0  0  0
   34.9550   28.1070   30.5090 H   0  0  0  0  0  0  0  0  0  0  0  0
   34.0250   29.7340   32.0920 H   0  0  0  0  0  0  0  0  0  0  0  0
   32.4800   29.3310   34.7260 Cl  0  0  0  0  0  0  0  0  0  0  0  0
   33.8050   30.2980   35.3030 C   0  0  0  0  0  0  0  0  0  0  0  0
   35.0230   30.1560   34.6980 C   0  0  0  0  0  0  0  0  0  0  0  0
   35.9630   30.9960   35.2450 C   0  0  0  0  0  0  0  0  0  0  0  0
   37.0050   31.0350   34.8980 H   0  0  0  0  0  0  0  0  0  0  0  0
   35.7150   31.8750   36.2740 C   0  0  0  0  0  0  0  0  0  0  0  0
   36.4830   32.5190   36.6740 H   0  0  0  0  0  0  0  0  0  0  0  0
   34.4640   31.9660   36.8380 C   0  0  0  0  0  0  0  0  0  0  0  0
   34.2920   32.6620   37.6430 H   0  0  0  0  0  0  0  0  0  0  0  0
   33.4810   31.1470   36.3290 C   0  0  0  0  0  0  0  0  0  0  0  0
   31.9010   31.2490   37.0250 Cl  0  0  0  0  0  0  0  0  0  0  0  0
  1  6  1  0  0  0  0
  2  3  1  0  0  0  0
  2  1  2  0  0  0  0
  3  4  2  0  0  0  0
  4 15  1  0  0  0  0
  4  5  1  0  0  0  0
  5  7  1  0  0  0  0
  6  5  2  0  0  0  0
  7  8  1  0  0  0  0
  7 12  1  0  0  0  0
  8 17  1  0  0  0  0
  8  9  1  0  0  0  0
  9 18  1  0  0  0  0
  9 10  1  0  0  0  0
 10 20  1  0  0  0  0
 10 21  1  0  0  0  0
 11 23  1  0  0  0  0
 11 22  1  0  0  0  0
 11 10  1  0  0  0  0
 12 11  1  0  0  0  0
 13  2  1  0  0  0  0
 14  3  1  0  0  0  0
 16  8  1  0  0  0  0
 19  9  1  0  0  0  0
 24 12  1  0  0  0  0
 25 12  1  0  0  0  0
 26 31  2  0  0  0  0
 26 27  1  0  0  0  0
 27 28  2  0  0  0  0
 28 29  1  0  0  0  0
 28 36  1  0  0  0  0
 30  1  1  0  0  0  0
 30 29  2  0  0  0  0
 31 30  1  0  0  0  0
 32 26  1  0  0  0  0
 33 27  1  0  0  0  0
 34 35  1  0  0  0  0
 35 43  1  0  0  0  0
 36 37  1  0  0  0  0
 36 35  2  0  0  0  0
 37 39  2  0  0  0  0
 38 37  1  0  0  0  0
 39 40  1  0  0  0  0
 39 41  1  0  0  0  0
 41 42  1  0  0  0  0
 43 41  2  0  0  0  0
 43 44  1  0  0  0  0
M  END
>  <minimizedAffinity>
-6.82859659

$$$$

 OpenBabel03272502573D

 44 47  0  0  0  0  0  0  0  0999 V2000
   37.3820   26.7570   33.6420 C   0  0  0  0  0  0  0  0  0  0  0  0
   38.2450   26.7820   34.7440 C   0  0  0  0  0  0  0  0  0  0  0  0
   38.8310   25.6200   35.2050 C   0  0  0  0  0  0  0  0  0  0  0  0
   38.5110   24.4580   34.5120 C   0  0  0  0  0  0  0  0  0  0  0  0
   37.6630   24.4250   33.4280 C   0  0  0  0  0  0  0  0  0  0  0  0
   37.1200   25.5950   33.0240 N   0  0  0  0  0  0  0  0  0  0  0  0
   37.4130   23.1900   32.8050 N   0  0  0  0  0  0  0  0  0  0  0  0
   37.7740   21.9790   33.5050 C   0  0  0  0  0  0  0  0  0  0  0  0
   37.5270   20.8290   32.5360 C   0  0  0  0  0  0  0  0  0  0  0  0
   36.0450   20.8130   32.1710 C   0  0  0  0  0  0  0  0  0  0  0  0
   35.6110   22.1320   31.6190 C   0  0  0  0  0  0  0  0  0  0  0  0
   36.8090   23.0590   31.4940 C   0  0  0  0  0  0  0  0  0  0  0  0
   38.4700   27.7110   35.2590 H   0  0  0  0  0  0  0  0  0  0  0  0
   39.4920   25.6360   36.0490 H   0  0  0  0  0  0  0  0  0  0  0  0
   38.9870   23.5710   34.8990 H   0  0  0  0  0  0  0  0  0  0  0  0
   38.8790   21.9190   33.7150 H   0  0  0  0  0  0  0  0  0  0  0  0
   37.1490   21.8910   34.4020 H   0  0  0  0  0  0  0  0  0  0  0  0
   37.8020   19.8640   32.9870 H   0  0  0  0  0  0  0  0  0  0  0  0
   38.1110   21.0480   31.6230 H   0  0  0  0  0  0  0  0  0  0  0  0
   35.5090   20.6750   33.1400 H   0  0  0  0  0  0  0  0  0  0  0  0
   35.8130   19.9370   31.5540 H   0  0  0  0  0  0  0  0  0  0  0  0
   35.1200   22.0190   30.6310 H   0  0  0  0  0  0  0  0  0  0  0  0
   34.8670   22.6650   32.2580 H   0  0  0  0  0  0  0  0  0  0  0  0
   36.3910   24.0650   31.2270 H   0  0  0  0  0  0  0  0  0  0  0  0
   37.5010   22.7790   30.6980 H   0  0  0  0  0  0  0  0  0  0  0  0
   36.4450   29.6450   31.6070 C   0  0  0  0  0  0  0  0  0  0  0  0
   35.6030   30.3600   32.4550 C   0  0  0  0  0  0  0  0  0  0  0  0
   35.3670   29.8620   33.7070 C   0  0  0  0  0  0  0  0  0  0  0  0
   35.9910   28.6920   34.0010 N   0  0  0  0  0  0  0  0  0  0  0  0
   36.7970   28.0020   33.1930 C   0  0  0  0  0  0  0  0  0  0  0  0
   37.0140   28.4960   31.9950 N   0  0  0  0  0  0  0  0  0  0  0  0
   36.6180   30.0660   30.6110 H   0  0  0  0  0  0  0  0  0  0  0  0
   35.1390   31.2600   32.1610 H   0  0  0  0  0  0  0  0  0  0  0  0
   36.2730   32.2990   35.4440 Cl  0  0  0  0  0  0  0  0  0  0  0  0
   34.7790   31.4260   35.6180 C   0  0  0  0  0  0  0  0  0  0  0  0
   34.5390   30.3770   34.7740 C   0  0  0  0  0  0  0  0  0  0  0  0
   33.3340   29.7740   35.0440 C   0  0  0  0  0  0  0  0  0  0  0  0
   32.9570   28.9100   34.4770 H   0  0  0  0  0  0  0  0  0  0  0  0
   32.4710   30.1710   36.0380 C   0  0  0  0  0  0  0  0  0  0  0  0
   31.5330   29.6690   36.2160 H   0  0  0  0  0  0  0  0  0  0  0  0
   32.7760   31.2380   36.8520 C   0  0  0  0  0  0  0  0  0  0  0  0
   32.0850   31.5320   37.6250 H   0  0  0  0  0  0  0  0  0  0  0  0
   33.9720   31.8820   36.6280 C   0  0  0  0  0  0  0  0  0  0  0  0
   34.3720   33.2240   37.6430 Cl  0  0  0  0  0  0  0  0  0  0  0  0
  1  2  1  0  0  0  0
  2  3  2  0  0  0  0
  2 13  1  0  0  0  0
  3 14  1  0  0  0  0
  4 15  1  0  0  0  0
  4  3  1  0  0  0  0
  5  4  2  0  0  0  0
  6  5  1  0  0  0  0
  6  1  2  0  0  0  0
  7  5  1  0  0  0  0
  7  8  1  0  0  0  0
  8 16  1  0  0  0  0
  8 17  1  0  0  0  0
  9 18  1  0  0  0  0
  9  8  1  0  0  0  0
 10  9  1  0  0  0  0
 10 20  1  0  0  0  0
 11 10  1  0  0  0  0
 11 23  1  0  0  0  0
 12 11  1  0  0  0  0
 12  7  1  0  0  0  0
 19  9  1  0  0  0  0
 21 10  1  0  0  0  0
 22 11  1  0  0  0  0
 24 12  1  0  0  0  0
 25 12  1  0  0  0  0
 26 31  2  0  0  0  0
 26 27  1  0  0  0  0
 27 28  2  0  0  0  0
 28 29  1  0  0  0  0
 28 36  1  0  0  0  0
 30  1  1  0  0  0  0
 30 29  2  0  0  0  0
 31 30  1  0  0  0  0
 32 26  1  0  0  0  0
 33 27  1  0  0  0  0
 34 35  1  0  0  0  0
 35 43  1  0  0  0  0
 36 37  1  0  0  0  0
 36 35  2  0  0  0  0
 37 39  2  0  0  0  0
 38 37  1  0  0  0  0
 39 40  1  0  0  0  0
 39 41  1  0  0  0  0
 41 42  1  0  0  0  0
 43 41  2  0  0  0  0
 43 44  1  0  0  0  0
M  END
>  <minimizedAffinity>
-6.59908772

$$$$

 OpenBabel03272502573D

 44 47  0  0  0  0  0  0  0  0999 V2000
   36.2070   26.7590   31.9080 C   0  0  0  0  0  0  0  0  0  0  0  0
   35.4890   25.9460   31.0240 C   0  0  0  0  0  0  0  0  0  0  0  0
   35.6170   24.5710   31.0700 C   0  0  0  0  0  0  0  0  0  0  0  0
   36.4880   24.0720   32.0320 C   0  0  0  0  0  0  0  0  0  0  0  0
   37.1990   24.8650   32.9040 C   0  0  0  0  0  0  0  0  0  0  0  0
   37.0300   26.2030   32.8100 N   0  0  0  0  0  0  0  0  0  0  0  0
   38.0500   24.2480   33.8360 N   0  0  0  0  0  0  0  0  0  0  0  0
   38.4010   22.8600   33.6360 C   0  0  0  0  0  0  0  0  0  0  0  0
   39.1960   22.4340   34.8640 C   0  0  0  0  0  0  0  0  0  0  0  0
   40.4530   23.2960   34.9510 C   0  0  0  0  0  0  0  0  0  0  0  0
   40.1100   24.7500   34.9660 C   0  0  0  0  0  0  0  0  0  0  0  0
   38.6000   24.9240   34.9930 C   0  0  0  0  0  0  0  0  0  0  0  0
   34.8170   26.3750   30.2860 H   0  0  0  0  0  0  0  0  0  0  0  0
   35.0680   23.9460   30.3940 H   0  0  0  0  0  0  0  0  0  0  0  0
   36.5630   22.9960   32.0390 H   0  0  0  0  0  0  0  0  0  0  0  0
   37.5000   22.1840   33.6520 H   0  0  0  0  0  0  0  0  0  0  0  0
   38.9990   22.7780   32.7210 H   0  0  0  0  0  0  0  0  0  0  0  0
   39.4850   21.3740   34.8020 H   0  0  0  0  0  0  0  0  0  0  0  0
   38.5630   22.6470   35.7460 H   0  0  0  0  0  0  0  0  0  0  0  0
   41.0030   23.1020   33.9990 H   0  0  0  0  0  0  0  0  0  0  0  0
   41.0990   22.9490   35.7660 H   0  0  0  0  0  0  0  0  0  0  0  0
   40.5630   25.2670   35.8370 H   0  0  0  0  0  0  0  0  0  0  0  0
   40.4740   25.3080   34.0700 H   0  0  0  0  0  0  0  0  0  0  0  0
   38.4150   26.0210   34.8470 H   0  0  0  0  0  0  0  0  0  0  0  0
   38.1430   24.6480   35.9450 H   0  0  0  0  0  0  0  0  0  0  0  0
   36.0500   30.1940   30.6690 C   0  0  0  0  0  0  0  0  0  0  0  0
   35.6420   30.9090   31.7920 C   0  0  0  0  0  0  0  0  0  0  0  0
   35.4300   30.2230   32.9570 C   0  0  0  0  0  0  0  0  0  0  0  0
   35.6440   28.8840   32.8970 N   0  0  0  0  0  0  0  0  0  0  0  0
   36.0340   28.1930   31.8240 C   0  0  0  0  0  0  0  0  0  0  0  0
   36.2340   28.8680   30.7150 N   0  0  0  0  0  0  0  0  0  0  0  0
   36.2140   30.7670   29.7500 H   0  0  0  0  0  0  0  0  0  0  0  0
   35.4830   31.9520   31.7700 H   0  0  0  0  0  0  0  0  0  0  0  0
   32.5180   29.7300   33.9840 Cl  0  0  0  0  0  0  0  0  0  0  0  0
   33.7740   30.5660   34.8500 C   0  0  0  0  0  0  0  0  0  0  0  0
   34.9960   30.6980   34.2520 C   0  0  0  0  0  0  0  0  0  0  0  0
   35.8760   31.3960   35.0430 C   0  0  0  0  0  0  0  0  0  0  0  0
   36.9120   31.6100   34.7420 H   0  0  0  0  0  0  0  0  0  0  0  0
   35.5710   31.9030   36.2850 C   0  0  0  0  0  0  0  0  0  0  0  0
   36.2940   32.4470   36.8740 H   0  0  0  0  0  0  0  0  0  0  0  0
   34.3190   31.7330   36.8280 C   0  0  0  0  0  0  0  0  0  0  0  0
   34.1020   32.1380   37.8030 H   0  0  0  0  0  0  0  0  0  0  0  0
   33.3940   31.0390   36.0780 C   0  0  0  0  0  0  0  0  0  0  0  0
   31.8140   30.8170   36.7450 Cl  0  0  0  0  0  0  0  0  0  0  0  0
  1  6  1  0  0  0  0
  2  3  1  0  0  0  0
  2  1  2  0  0  0  0
  3  4  2  0  0  0  0
  4 15  1  0  0  0  0
  4  5  1  0  0  0  0
  5  7  1  0  0  0  0
  6  5  2  0  0  0  0
  7 12  1  0  0  0  0
  8 16  1  0  0  0  0
  8  7  1  0  0  0  0
  8  9  1  0  0  0  0
  9 10  1  0  0  0  0
  9 19  1  0  0  0  0
 10 11  1  0  0  0  0
 10 21  1  0  0  0  0
 11 12  1  0  0  0  0
 11 22  1  0  0  0  0
 12 25  1  0  0  0  0
 13  2  1  0  0  0  0
 14  3  1  0  0  0  0
 17  8  1  0  0  0  0
 18  9  1  0  0  0  0
 20 10  1  0  0  0  0
 23 11  1  0  0  0  0
 24 12  1  0  0  0  0
 26 31  2  0  0  0  0
 26 27  1  0  0  0  0
 27 28  2  0  0  0  0
 28 36  1  0  0  0  0
 29 28  1  0  0  0  0
 30  1  1  0  0  0  0
 30 29  2  0  0  0  0
 31 30  1  0  0  0  0
 32 26  1  0  0  0  0
 33 27  1  0  0  0  0
 34 35  1  0  0  0  0
 35 43  1  0  0  0  0
 36 35  2  0  0  0  0
 36 37  1  0  0  0  0
 37 39  2  0  0  0  0
 38 37  1  0  0  0  0
 39 41  1  0  0  0  0
 39 40  1  0  0  0  0
 41 42  1  0  0  0  0
 43 44  1  0  0  0  0
 43 41  2  0  0  0  0
M  END
>  <minimizedAffinity>
-6.56231785

$$$$

 OpenBabel03272502573D

 44 47  0  0  0  0  0  0  0  0999 V2000
   36.8030   27.2930   32.9800 C   0  0  0  0  0  0  0  0  0  0  0  0
   36.1580   27.8130   34.1090 C   0  0  0  0  0  0  0  0  0  0  0  0
   35.7490   29.1310   34.1400 C   0  0  0  0  0  0  0  0  0  0  0  0
   36.0160   29.8810   33.0000 C   0  0  0  0  0  0  0  0  0  0  0  0
   36.6500   29.3780   31.8860 C   0  0  0  0  0  0  0  0  0  0  0  0
   37.0270   28.0800   31.9160 N   0  0  0  0  0  0  0  0  0  0  0  0
   36.8660   30.2300   30.7910 N   0  0  0  0  0  0  0  0  0  0  0  0
   36.7240   31.6550   30.9870 C   0  0  0  0  0  0  0  0  0  0  0  0
   36.8670   32.2970   29.6120 C   0  0  0  0  0  0  0  0  0  0  0  0
   38.2550   31.9680   29.0660 C   0  0  0  0  0  0  0  0  0  0  0  0
   38.4880   30.4930   29.0370 C   0  0  0  0  0  0  0  0  0  0  0  0
   37.2260   29.7630   29.4670 C   0  0  0  0  0  0  0  0  0  0  0  0
   35.9680   27.1940   34.9800 H   0  0  0  0  0  0  0  0  0  0  0  0
   35.2540   29.5320   35.0030 H   0  0  0  0  0  0  0  0  0  0  0  0
   35.6810   30.9050   33.0600 H   0  0  0  0  0  0  0  0  0  0  0  0
   35.6830   31.9420   31.3090 H   0  0  0  0  0  0  0  0  0  0  0  0
   37.5080   31.9950   31.6740 H   0  0  0  0  0  0  0  0  0  0  0  0
   36.7480   33.3890   29.6700 H   0  0  0  0  0  0  0  0  0  0  0  0
   36.1120   31.8250   28.9570 H   0  0  0  0  0  0  0  0  0  0  0  0
   38.9680   32.3950   29.8110 H   0  0  0  0  0  0  0  0  0  0  0  0
   38.4300   32.4990   28.1230 H   0  0  0  0  0  0  0  0  0  0  0  0
   38.7950   30.1490   28.0290 H   0  0  0  0  0  0  0  0  0  0  0  0
   39.2980   30.1510   29.7250 H   0  0  0  0  0  0  0  0  0  0  0  0
   37.5170   28.6840   29.5720 H   0  0  0  0  0  0  0  0  0  0  0  0
   36.4210   29.8060   28.7320 H   0  0  0  0  0  0  0  0  0  0  0  0
   37.5710   23.8670   31.9650 C   0  0  0  0  0  0  0  0  0  0  0  0
   38.0320   23.2910   33.1460 C   0  0  0  0  0  0  0  0  0  0  0  0
   38.0710   24.0650   34.2740 C   0  0  0  0  0  0  0  0  0  0  0  0
   37.6490   25.3460   34.1220 N   0  0  0  0  0  0  0  0  0  0  0  0
   37.2080   25.9050   32.9930 C   0  0  0  0  0  0  0  0  0  0  0  0
   37.1750   25.1460   31.9210 N   0  0  0  0  0  0  0  0  0  0  0  0
   37.5480   23.2260   31.0780 H   0  0  0  0  0  0  0  0  0  0  0  0
   38.3570   22.2890   33.1960 H   0  0  0  0  0  0  0  0  0  0  0  0
   40.5430   22.2170   34.7780 Cl  0  0  0  0  0  0  0  0  0  0  0  0
   39.5610   22.9590   36.0060 C   0  0  0  0  0  0  0  0  0  0  0  0
   38.5100   23.7400   35.6130 C   0  0  0  0  0  0  0  0  0  0  0  0
   37.8160   24.2380   36.6890 C   0  0  0  0  0  0  0  0  0  0  0  0
   36.9360   24.8890   36.5850 H   0  0  0  0  0  0  0  0  0  0  0  0
   38.1350   23.9870   38.0030 C   0  0  0  0  0  0  0  0  0  0  0  0
   37.5630   24.4000   38.8200 H   0  0  0  0  0  0  0  0  0  0  0  0
   39.2090   23.1910   38.3290 C   0  0  0  0  0  0  0  0  0  0  0  0
   39.4410   23.0080   39.3650 H   0  0  0  0  0  0  0  0  0  0  0  0
   39.9420   22.6630   37.2890 C   0  0  0  0  0  0  0  0  0  0  0  0
   41.2940   21.6590   37.6800 Cl  0  0  0  0  0  0  0  0  0  0  0  0
  1 30  1  0  0  0  0
  1  2  1  0  0  0  0
  2  3  2  0  0  0  0
  2 13  1  0  0  0  0
  3 14  1  0  0  0  0
  4 15  1  0  0  0  0
  4  3  1  0  0  0  0
  5  6  1  0  0  0  0
  5  4  2  0  0  0  0
  6  1  2  0  0  0  0
  7  8  1  0  0  0  0
  7  5  1  0  0  0  0
  8 16  1  0  0  0  0
  8 17  1  0  0  0  0
  9 18  1  0  0  0  0
  9  8  1  0  0  0  0
 10  9  1  0  0  0  0
 10 20  1  0  0  0  0
 11 10  1  0  0  0  0
 11 12  1  0  0  0  0
 11 23  1  0  0  0  0
 12 24  1  0  0  0  0
 12  7  1  0  0  0  0
 19  9  1  0  0  0  0
 21 10  1  0  0  0  0
 22 11  1  0  0  0  0
 25 12  1  0  0  0  0
 26 27  1  0  0  0  0
 27 33  1  0  0  0  0
 27 28  2  0  0  0  0
 28 36  1  0  0  0  0
 29 28  1  0  0  0  0
 30 29  2  0  0  0  0
 31 26  2  0  0  0  0
 31 30  1  0  0  0  0
 32 26  1  0  0  0  0
 34 35  1  0  0  0  0
 35 43  1  0  0  0  0
 36 35  2  0  0  0  0
 36 37  1  0  0  0  0
 37 39  2  0  0  0  0
 38 37  1  0  0  0  0
 39 41  1  0  0  0  0
 39 40  1  0  0  0  0
 41 42  1  0  0  0  0
 43 44  1  0  0  0  0
 43 41  2  0  0  0  0
M  END
>  <minimizedAffinity>
-6.3003149

$$$$

 OpenBabel03272502573D

 44 47  0  0  0  0  0  0  0  0999 V2000
   38.7630   24.0600   34.7450 C   0  0  0  0  0  0  0  0  0  0  0  0
   38.7480   23.8180   36.1240 C   0  0  0  0  0  0  0  0  0  0  0  0
   38.0580   22.7390   36.6410 C   0  0  0  0  0  0  0  0  0  0  0  0
   37.4000   21.9360   35.7160 C   0  0  0  0  0  0  0  0  0  0  0  0
   37.4090   22.1670   34.3590 C   0  0  0  0  0  0  0  0  0  0  0  0
   38.1030   23.2400   33.9140 N   0  0  0  0  0  0  0  0  0  0  0  0
   36.7080   21.2870   33.5190 N   0  0  0  0  0  0  0  0  0  0  0  0
   35.7480   20.3840   34.1140 C   0  0  0  0  0  0  0  0  0  0  0  0
   35.2670   19.4670   32.9960 C   0  0  0  0  0  0  0  0  0  0  0  0
   34.6020   20.3210   31.9200 C   0  0  0  0  0  0  0  0  0  0  0  0
   35.5270   21.3870   31.4290 C   0  0  0  0  0  0  0  0  0  0  0  0
   36.8900   21.2290   32.0830 C   0  0  0  0  0  0  0  0  0  0  0  0
   39.2750   24.4690   36.8140 H   0  0  0  0  0  0  0  0  0  0  0  0
   38.0440   22.5500   37.6960 H   0  0  0  0  0  0  0  0  0  0  0  0
   36.8720   21.1030   36.1550 H   0  0  0  0  0  0  0  0  0  0  0  0
   36.2230   19.6800   34.8530 H   0  0  0  0  0  0  0  0  0  0  0  0
   34.9240   20.9750   34.5330 H   0  0  0  0  0  0  0  0  0  0  0  0
   34.5440   18.7280   33.3730 H   0  0  0  0  0  0  0  0  0  0  0  0
   36.1670   18.9920   32.5620 H   0  0  0  0  0  0  0  0  0  0  0  0
   33.7590   20.8370   32.4380 H   0  0  0  0  0  0  0  0  0  0  0  0
   34.1550   19.6830   31.1480 H   0  0  0  0  0  0  0  0  0  0  0  0
   35.6350   21.3560   30.3250 H   0  0  0  0  0  0  0  0  0  0  0  0
   35.1850   22.4230   31.6630 H   0  0  0  0  0  0  0  0  0  0  0  0
   37.4770   22.1400   31.7930 H   0  0  0  0  0  0  0  0  0  0  0  0
   37.4510   20.3630   31.7280 H   0  0  0  0  0  0  0  0  0  0  0  0
   41.3070   26.6460   34.2970 C   0  0  0  0  0  0  0  0  0  0  0  0
   40.8300   27.3630   33.2030 C   0  0  0  0  0  0  0  0  0  0  0  0
   39.6500   26.9680   32.6330 C   0  0  0  0  0  0  0  0  0  0  0  0
   39.0520   25.8920   33.2050 N   0  0  0  0  0  0  0  0  0  0  0  0
   39.5050   25.2000   34.2520 C   0  0  0  0  0  0  0  0  0  0  0  0
   40.6380   25.5940   34.7880 N   0  0  0  0  0  0  0  0  0  0  0  0
   42.2520   26.9830   34.7350 H   0  0  0  0  0  0  0  0  0  0  0  0
   41.3490   28.1860   32.7970 H   0  0  0  0  0  0  0  0  0  0  0  0
   40.9560   27.0940   29.7940 Cl  0  0  0  0  0  0  0  0  0  0  0  0
   39.3540   27.6330   30.2010 C   0  0  0  0  0  0  0  0  0  0  0  0
   38.9370   27.5090   31.4970 C   0  0  0  0  0  0  0  0  0  0  0  0
   37.6630   27.9950   31.6710 C   0  0  0  0  0  0  0  0  0  0  0  0
   37.1460   27.9870   32.6410 H   0  0  0  0  0  0  0  0  0  0  0  0
   36.8960   28.5400   30.6670 C   0  0  0  0  0  0  0  0  0  0  0  0
   35.8990   28.9110   30.8470 H   0  0  0  0  0  0  0  0  0  0  0  0
   37.3790   28.6340   29.3830 C   0  0  0  0  0  0  0  0  0  0  0  0
   36.7600   29.0650   28.6120 H   0  0  0  0  0  0  0  0  0  0  0  0
   38.6520   28.1630   29.1500 C   0  0  0  0  0  0  0  0  0  0  0  0
   39.2750   28.2740   27.5400 Cl  0  0  0  0  0  0  0  0  0  0  0  0
  1  2  1  0  0  0  0
  2  3  2  0  0  0  0
  2 13  1  0  0  0  0
  3 14  1  0  0  0  0
  4 15  1  0  0  0  0
  4  3  1  0  0  0  0
  5  4  2  0  0  0  0
  6  5  1  0  0  0  0
  6  1  2  0  0  0  0
  7  8  1  0  0  0  0
  7  5  1  0  0  0  0
  8 17  1  0  0  0  0
  8 16  1  0  0  0  0
  9 18  1  0  0  0  0
  9  8  1  0  0  0  0
 10 20  1  0  0  0  0
 10  9  1  0  0  0  0
 11 23  1  0  0  0  0
 11 10  1  0  0  0  0
 11 12  1  0  0  0  0
 12  7  1  0  0  0  0
 19  9  1  0  0  0  0
 21 10  1  0  0  0  0
 22 11  1  0  0  0  0
 24 12  1  0  0  0  0
 25 12  1  0  0  0  0
 26 32  1  0  0  0  0
 26 31  1  0  0  0  0
 27 26  2  0  0  0  0
 28 27  1  0  0  0  0
 28 29  2  0  0  0  0
 29 30  1  0  0  0  0
 30  1  1  0  0  0  0
 30 31  2  0  0  0  0
 33 27  1  0  0  0  0
 34 35  1  0  0  0  0
 35 36  1  0  0  0  0
 36 37  2  0  0  0  0
 36 28  1  0  0  0  0
 37 38  1  0  0  0  0
 39 40  1  0  0  0  0
 39 37  1  0  0  0  0
 41 39  2  0  0  0  0
 42 41  1  0  0  0  0
 43 41  1  0  0  0  0
 43 35  2  0  0  0  0
 44 43  1  0  0  0  0
M  END
>  <minimizedAffinity>
-6.29490519

$$$$

 OpenBabel03272502573D

 44 47  0  0  0  0  0  0  0  0999 V2000
   38.9460   25.5020   33.2360 C   0  0  0  0  0  0  0  0  0  0  0  0
   39.2920   26.8470   33.4110 C   0  0  0  0  0  0  0  0  0  0  0  0
   40.4530   27.1950   34.0730 C   0  0  0  0  0  0  0  0  0  0  0  0
   41.2300   26.1410   34.5380 C   0  0  0  0  0  0  0  0  0  0  0  0
   40.8970   24.8150   34.3710 C   0  0  0  0  0  0  0  0  0  0  0  0
   39.7480   24.5380   33.7140 N   0  0  0  0  0  0  0  0  0  0  0  0
   41.7610   23.8330   34.8840 N   0  0  0  0  0  0  0  0  0  0  0  0
   42.7720   24.2330   35.8370 C   0  0  0  0  0  0  0  0  0  0  0  0
   43.6360   23.0040   36.0920 C   0  0  0  0  0  0  0  0  0  0  0  0
   42.7530   21.9050   36.6780 C   0  0  0  0  0  0  0  0  0  0  0  0
   41.5910   21.6130   35.7860 C   0  0  0  0  0  0  0  0  0  0  0  0
   41.6990   22.4340   34.5120 C   0  0  0  0  0  0  0  0  0  0  0  0
   38.6570   27.6430   33.0330 H   0  0  0  0  0  0  0  0  0  0  0  0
   40.7200   28.2250   34.2090 H   0  0  0  0  0  0  0  0  0  0  0  0
   42.1280   26.4500   35.0490 H   0  0  0  0  0  0  0  0  0  0  0  0
   43.4930   24.9830   35.4070 H   0  0  0  0  0  0  0  0  0  0  0  0
   42.2740   24.5730   36.7530 H   0  0  0  0  0  0  0  0  0  0  0  0
   44.4500   23.2310   36.7960 H   0  0  0  0  0  0  0  0  0  0  0  0
   44.0110   22.6660   35.1080 H   0  0  0  0  0  0  0  0  0  0  0  0
   42.3390   22.3360   37.6200 H   0  0  0  0  0  0  0  0  0  0  0  0
   43.3620   21.0400   36.9680 H   0  0  0  0  0  0  0  0  0  0  0  0
   41.5310   20.5340   35.5330 H   0  0  0  0  0  0  0  0  0  0  0  0
   40.6020   21.8640   36.2380 H   0  0  0  0  0  0  0  0  0  0  0  0
   40.7290   22.2850   33.9680 H   0  0  0  0  0  0  0  0  0  0  0  0
   42.4940   22.1030   33.8410 H   0  0  0  0  0  0  0  0  0  0  0  0
   35.8140   25.7870   31.3740 C   0  0  0  0  0  0  0  0  0  0  0  0
   35.4440   24.4580   31.1870 C   0  0  0  0  0  0  0  0  0  0  0  0
   36.2540   23.4800   31.6990 C   0  0  0  0  0  0  0  0  0  0  0  0
   37.3620   23.9160   32.3500 N   0  0  0  0  0  0  0  0  0  0  0  0
   37.7230   25.1880   32.5310 C   0  0  0  0  0  0  0  0  0  0  0  0
   36.9330   26.1130   32.0350 N   0  0  0  0  0  0  0  0  0  0  0  0
   35.1490   26.5490   30.9570 H   0  0  0  0  0  0  0  0  0  0  0  0
   34.5720   24.1840   30.6610 H   0  0  0  0  0  0  0  0  0  0  0  0
   38.3420   21.7130   30.1830 Cl  0  0  0  0  0  0  0  0  0  0  0  0
   36.9420   21.1290   31.0340 C   0  0  0  0  0  0  0  0  0  0  0  0
   36.1260   22.0410   31.6430 C   0  0  0  0  0  0  0  0  0  0  0  0
   35.0540   21.4360   32.2550 C   0  0  0  0  0  0  0  0  0  0  0  0
   34.2810   21.9960   32.7990 H   0  0  0  0  0  0  0  0  0  0  0  0
   34.8260   20.0800   32.2580 C   0  0  0  0  0  0  0  0  0  0  0  0
   33.9700   19.6450   32.7510 H   0  0  0  0  0  0  0  0  0  0  0  0
   35.6900   19.2170   31.6250 C   0  0  0  0  0  0  0  0  0  0  0  0
   35.4910   18.1580   31.6400 H   0  0  0  0  0  0  0  0  0  0  0  0
   36.7830   19.7680   30.9940 C   0  0  0  0  0  0  0  0  0  0  0  0
   37.8800   18.6980   30.1920 Cl  0  0  0  0  0  0  0  0  0  0  0  0
  1  2  2  0  0  0  0
  1  6  1  0  0  0  0
  2  3  1  0  0  0  0
  3 14  1  0  0  0  0
  3  4  2  0  0  0  0
  4 15  1  0  0  0  0
  5  4  1  0  0  0  0
  5  7  1  0  0  0  0
  6  5  2  0  0  0  0
  7  8  1  0  0  0  0
  8  9  1  0  0  0  0
  8 17  1  0  0  0  0
  9 10  1  0  0  0  0
  9 18  1  0  0  0  0
 10 21  1  0  0  0  0
 10 20  1  0  0  0  0
 11 23  1  0  0  0  0
 11 10  1  0  0  0  0
 12  7  1  0  0  0  0
 12 11  1  0  0  0  0
 13  2  1  0  0  0  0
 16  8  1  0  0  0  0
 19  9  1  0  0  0  0
 22 11  1  0  0  0  0
 24 12  1  0  0  0  0
 25 12  1  0  0  0  0
 26 31  1  0  0  0  0
 27 26  2  0  0  0  0
 27 28  1  0  0  0  0
 28 29  2  0  0  0  0
 29 30  1  0  0  0  0
 30  1  1  0  0  0  0
 31 30  2  0  0  0  0
 32 26  1  0  0  0  0
 33 27  1  0  0  0  0
 34 35  1  0  0  0  0
 35 36  1  0  0  0  0
 36 28  1  0  0  0  0
 36 37  2  0  0  0  0
 37 39  1  0  0  0  0
 37 38  1  0  0  0  0
 39 40  1  0  0  0  0
 41 42  1  0  0  0  0
 41 39  2  0  0  0  0
 43 35  2  0  0  0  0
 43 41  1  0  0  0  0
 44 43  1  0  0  0  0
M  END
>  <minimizedAffinity>
-6.23855972

$$$$

 OpenBabel03272502573D

 44 47  0  0  0  0  0  0  0  0999 V2000
   36.2690   26.1950   31.8080 C   0  0  0  0  0  0  0  0  0  0  0  0
   35.6360   25.2770   30.9620 C   0  0  0  0  0  0  0  0  0  0  0  0
   35.8720   23.9220   31.0910 C   0  0  0  0  0  0  0  0  0  0  0  0
   36.7590   23.5500   32.0940 C   0  0  0  0  0  0  0  0  0  0  0  0
   37.3860   24.4460   32.9300 C   0  0  0  0  0  0  0  0  0  0  0  0
   37.1140   25.7590   32.7550 N   0  0  0  0  0  0  0  0  0  0  0  0
   38.2640   23.9530   33.9100 N   0  0  0  0  0  0  0  0  0  0  0  0
   38.7280   22.5890   33.7980 C   0  0  0  0  0  0  0  0  0  0  0  0
   39.5280   22.2990   35.0620 C   0  0  0  0  0  0  0  0  0  0  0  0
   40.7110   23.2630   35.1180 C   0  0  0  0  0  0  0  0  0  0  0  0
   40.2540   24.6830   35.0420 C   0  0  0  0  0  0  0  0  0  0  0  0
   38.7350   24.7370   35.0340 C   0  0  0  0  0  0  0  0  0  0  0  0
   34.9480   25.6080   30.1890 H   0  0  0  0  0  0  0  0  0  0  0  0
   35.3870   23.2170   30.4440 H   0  0  0  0  0  0  0  0  0  0  0  0
   36.9180   22.4850   32.1660 H   0  0  0  0  0  0  0  0  0  0  0  0
   37.8830   21.8450   33.8390 H   0  0  0  0  0  0  0  0  0  0  0  0
   39.3490   22.5030   32.8980 H   0  0  0  0  0  0  0  0  0  0  0  0
   39.9010   21.2640   35.0660 H   0  0  0  0  0  0  0  0  0  0  0  0
   38.8630   22.5100   35.9190 H   0  0  0  0  0  0  0  0  0  0  0  0
   41.2950   23.0600   34.1880 H   0  0  0  0  0  0  0  0  0  0  0  0
   41.3660   23.0150   35.9620 H   0  0  0  0  0  0  0  0  0  0  0  0
   40.6460   25.2830   35.8880 H   0  0  0  0  0  0  0  0  0  0  0  0
   40.5910   25.2160   34.1210 H   0  0  0  0  0  0  0  0  0  0  0  0
   38.4670   25.8050   34.8210 H   0  0  0  0  0  0  0  0  0  0  0  0
   38.2810   24.4800   35.9930 H   0  0  0  0  0  0  0  0  0  0  0  0
   36.2230   29.6230   30.5410 C   0  0  0  0  0  0  0  0  0  0  0  0
   35.3390   30.2600   31.4070 C   0  0  0  0  0  0  0  0  0  0  0  0
   34.7740   29.5260   32.4150 C   0  0  0  0  0  0  0  0  0  0  0  0
   35.1400   28.2200   32.4660 N   0  0  0  0  0  0  0  0  0  0  0  0
   35.9850   27.6030   31.6380 C   0  0  0  0  0  0  0  0  0  0  0  0
   36.5190   28.3240   30.6790 N   0  0  0  0  0  0  0  0  0  0  0  0
   36.6620   30.2320   29.7450 H   0  0  0  0  0  0  0  0  0  0  0  0
   35.0870   31.2800   31.3070 H   0  0  0  0  0  0  0  0  0  0  0  0
   35.7110   30.8390   35.0930 Cl  0  0  0  0  0  0  0  0  0  0  0  0
   34.0640   30.5020   34.6480 C   0  0  0  0  0  0  0  0  0  0  0  0
   33.8270   29.9180   33.4350 C   0  0  0  0  0  0  0  0  0  0  0  0
   32.4870   29.6940   33.2320 C   0  0  0  0  0  0  0  0  0  0  0  0
   32.0890   29.2320   32.3170 H   0  0  0  0  0  0  0  0  0  0  0  0
   31.5000   30.0160   34.1340 C   0  0  0  0  0  0  0  0  0  0  0  0
   30.4570   29.8220   33.9350 H   0  0  0  0  0  0  0  0  0  0  0  0
   31.8090   30.6030   35.3390 C   0  0  0  0  0  0  0  0  0  0  0  0
   31.0200   30.8470   36.0310 H   0  0  0  0  0  0  0  0  0  0  0  0
   33.1390   30.8520   35.5970 C   0  0  0  0  0  0  0  0  0  0  0  0
   33.5470   31.5890   37.1070 Cl  0  0  0  0  0  0  0  0  0  0  0  0
  1  6  1  0  0  0  0
  2  3  1  0  0  0  0
  2  1  2  0  0  0  0
  3  4  2  0  0  0  0
  4 15  1  0  0  0  0
  4  5  1  0  0  0  0
  5  7  1  0  0  0  0
  6  5  2  0  0  0  0
  7 12  1  0  0  0  0
  8 16  1  0  0  0  0
  8  7  1  0  0  0  0
  8  9  1  0  0  0  0
  9 18  1  0  0  0  0
  9 10  1  0  0  0  0
  9 19  1  0  0  0  0
 10 21  1  0  0  0  0
 11 10  1  0  0  0  0
 11 22  1  0  0  0  0
 12 11  1  0  0  0  0
 12 25  1  0  0  0  0
 13  2  1  0  0  0  0
 14  3  1  0  0  0  0
 17  8  1  0  0  0  0
 20 10  1  0  0  0  0
 23 11  1  0  0  0  0
 24 12  1  0  0  0  0
 26 31  2  0  0  0  0
 26 27  1  0  0  0  0
 27 28  2  0  0  0  0
 28 29  1  0  0  0  0
 28 36  1  0  0  0  0
 30  1  1  0  0  0  0
 30 29  2  0  0  0  0
 31 30  1  0  0  0  0
 32 26  1  0  0  0  0
 33 27  1  0  0  0  0
 35 34  1  0  0  0  0
 35 43  1  0  0  0  0
 36 35  2  0  0  0  0
 37 36  1  0  0  0  0
 37 39  2  0  0  0  0
 38 37  1  0  0  0  0
 39 41  1  0  0  0  0
 40 39  1  0  0  0  0
 41 43  2  0  0  0  0
 41 42  1  0  0  0  0
 43 44  1  0  0  0  0
M  END
>  <minimizedAffinity>
-6.22581434

$$$$

 OpenBabel03272502573D

 44 47  0  0  0  0  0  0  0  0999 V2000
   37.8070   26.3290   33.1080 C   0  0  0  0  0  0  0  0  0  0  0  0
   38.5570   26.1730   34.2790 C   0  0  0  0  0  0  0  0  0  0  0  0
   38.3540   27.0060   35.3620 C   0  0  0  0  0  0  0  0  0  0  0  0
   37.3760   27.9820   35.2050 C   0  0  0  0  0  0  0  0  0  0  0  0
   36.6350   28.1430   34.0560 C   0  0  0  0  0  0  0  0  0  0  0  0
   36.8800   27.2960   33.0310 N   0  0  0  0  0  0  0  0  0  0  0  0
   35.6720   29.1650   34.0120 N   0  0  0  0  0  0  0  0  0  0  0  0
   35.7200   30.2010   35.0190 C   0  0  0  0  0  0  0  0  0  0  0  0
   34.4840   31.0670   34.8070 C   0  0  0  0  0  0  0  0  0  0  0  0
   34.5530   31.6770   33.4090 C   0  0  0  0  0  0  0  0  0  0  0  0
   34.6970   30.6180   32.3650 C   0  0  0  0  0  0  0  0  0  0  0  0
   34.6280   29.2440   33.0110 C   0  0  0  0  0  0  0  0  0  0  0  0
   39.3130   25.3970   34.3620 H   0  0  0  0  0  0  0  0  0  0  0  0
   38.9270   26.8880   36.2600 H   0  0  0  0  0  0  0  0  0  0  0  0
   37.2440   28.6140   36.0690 H   0  0  0  0  0  0  0  0  0  0  0  0
   35.5860   29.7930   36.0600 H   0  0  0  0  0  0  0  0  0  0  0  0
   36.6440   30.7780   34.8860 H   0  0  0  0  0  0  0  0  0  0  0  0
   34.4320   31.8740   35.5540 H   0  0  0  0  0  0  0  0  0  0  0  0
   33.6080   30.3940   34.8530 H   0  0  0  0  0  0  0  0  0  0  0  0
   35.4970   32.2730   33.3990 H   0  0  0  0  0  0  0  0  0  0  0  0
   33.7310   32.3870   33.2610 H   0  0  0  0  0  0  0  0  0  0  0  0
   33.9130   30.7050   31.5850 H   0  0  0  0  0  0  0  0  0  0  0  0
   35.6670   30.6570   31.8140 H   0  0  0  0  0  0  0  0  0  0  0  0
   34.8960   28.5120   32.2040 H   0  0  0  0  0  0  0  0  0  0  0  0
   33.6320   28.9750   33.3670 H   0  0  0  0  0  0  0  0  0  0  0  0
   39.0880   24.8550   30.0180 C   0  0  0  0  0  0  0  0  0  0  0  0
   38.4540   23.6150   29.9820 C   0  0  0  0  0  0  0  0  0  0  0  0
   37.5960   23.2940   30.9980 C   0  0  0  0  0  0  0  0  0  0  0  0
   37.4480   24.2390   31.9620 N   0  0  0  0  0  0  0  0  0  0  0  0
   38.0530   25.4270   32.0040 C   0  0  0  0  0  0  0  0  0  0  0  0
   38.8720   25.7190   31.0180 N   0  0  0  0  0  0  0  0  0  0  0  0
   39.7680   25.0870   29.1930 H   0  0  0  0  0  0  0  0  0  0  0  0
   38.6210   22.9190   29.2070 H   0  0  0  0  0  0  0  0  0  0  0  0
   38.4780   20.5440   29.8010 Cl  0  0  0  0  0  0  0  0  0  0  0  0
   37.0680   20.8210   30.7800 C   0  0  0  0  0  0  0  0  0  0  0  0
   36.8250   22.0920   31.2220 C   0  0  0  0  0  0  0  0  0  0  0  0
   35.6700   22.1610   31.9620 C   0  0  0  0  0  0  0  0  0  0  0  0
   35.2980   23.0950   32.4070 H   0  0  0  0  0  0  0  0  0  0  0  0
   34.8530   21.0860   32.2300 C   0  0  0  0  0  0  0  0  0  0  0  0
   33.9530   21.1840   32.8170 H   0  0  0  0  0  0  0  0  0  0  0  0
   35.1580   19.8330   31.7530 C   0  0  0  0  0  0  0  0  0  0  0  0
   34.5040   19.0050   31.9750 H   0  0  0  0  0  0  0  0  0  0  0  0
   36.3060   19.7040   31.0040 C   0  0  0  0  0  0  0  0  0  0  0  0
   36.7050   18.1350   30.3960 Cl  0  0  0  0  0  0  0  0  0  0  0  0
  1  2  1  0  0  0  0
  2 13  1  0  0  0  0
  2  3  2  0  0  0  0
  3 14  1  0  0  0  0
  4  3  1  0  0  0  0
  4 15  1  0  0  0  0
  5  4  2  0  0  0  0
  6  1  2  0  0  0  0
  6  5  1  0  0  0  0
  7  5  1  0  0  0  0
  7  8  1  0  0  0  0
  8 16  1  0  0  0  0
  9 19  1  0  0  0  0
  9  8  1  0  0  0  0
  9 18  1  0  0  0  0
 10  9  1  0  0  0  0
 11 12  1  0  0  0  0
 11 10  1  0  0  0  0
 12 25  1  0  0  0  0
 12  7  1  0  0  0  0
 17  8  1  0  0  0  0
 20 10  1  0  0  0  0
 21 10  1  0  0  0  0
 22 11  1  0  0  0  0
 23 11  1  0  0  0  0
 24 12  1  0  0  0  0
 26 31  1  0  0  0  0
 27 26  2  0  0  0  0
 27 28  1  0  0  0  0
 28 36  1  0  0  0  0
 28 29  2  0  0  0  0
 29 30  1  0  0  0  0
 30  1  1  0  0  0  0
 31 30  2  0  0  0  0
 32 26  1  0  0  0  0
 33 27  1  0  0  0  0
 34 35  1  0  0  0  0
 35 43  2  0  0  0  0
 35 36  1  0  0  0  0
 36 37  2  0  0  0  0
 37 39  1  0  0  0  0
 37 38  1  0  0  0  0
 39 40  1  0  0  0  0
 41 42  1  0  0  0  0
 41 39  2  0  0  0  0
 43 41  1  0  0  0  0
 44 43  1  0  0  0  0
M  END
>  <minimizedAffinity>
-6.1347003

$$$$
