
 OpenBabel03272502533D

 29 31  0  0  0  0  0  0  0  0999 V2000
   35.9250   30.2780   48.5510 C   0  0  0  0  0  0  0  0  0  0  0  0
   35.8510   29.3950   49.6230 C   0  0  0  0  0  0  0  0  0  0  0  0
   34.8500   28.4460   49.6910 C   0  0  0  0  0  0  0  0  0  0  0  0
   33.9450   28.4240   48.6590 C   0  0  0  0  0  0  0  0  0  0  0  0
   34.0040   29.2970   47.5850 C   0  0  0  0  0  0  0  0  0  0  0  0
   35.0140   30.2280   47.5490 N   0  0  0  0  0  0  0  0  0  0  0  0
   36.6190   29.4880   50.4000 H   0  0  0  0  0  0  0  0  0  0  0  0
   34.8290   27.7840   50.5360 H   0  0  0  0  0  0  0  0  0  0  0  0
   33.1680   27.6810   48.7220 H   0  0  0  0  0  0  0  0  0  0  0  0
   33.8820   26.7040   46.0530 Cl  0  0  0  0  0  0  0  0  0  0  0  0
   32.8980   28.1370   45.7200 C   0  0  0  0  0  0  0  0  0  0  0  0
   33.0420   29.2700   46.4910 C   0  0  0  0  0  0  0  0  0  0  0  0
   32.2300   30.3300   46.1520 C   0  0  0  0  0  0  0  0  0  0  0  0
   32.2890   31.2410   46.7090 H   0  0  0  0  0  0  0  0  0  0  0  0
   31.3180   30.3160   45.1220 C   0  0  0  0  0  0  0  0  0  0  0  0
   30.6940   31.1730   44.8840 H   0  0  0  0  0  0  0  0  0  0  0  0
   31.1990   29.1560   44.3630 C   0  0  0  0  0  0  0  0  0  0  0  0
   30.5220   29.0440   43.5440 H   0  0  0  0  0  0  0  0  0  0  0  0
   31.9930   28.0700   44.6690 C   0  0  0  0  0  0  0  0  0  0  0  0
   31.8700   26.5800   43.7290 Cl  0  0  0  0  0  0  0  0  0  0  0  0
   38.1050   33.0620   49.4940 C   0  0  0  0  0  0  0  0  0  0  0  0
   39.0020   33.1350   48.4030 C   0  0  0  0  0  0  0  0  0  0  0  0
   38.8410   32.2140   47.3490 C   0  0  0  0  0  0  0  0  0  0  0  0
   37.8240   31.3250   47.4750 N   0  0  0  0  0  0  0  0  0  0  0  0
   36.9860   31.2680   48.5080 C   0  0  0  0  0  0  0  0  0  0  0  0
   37.1450   32.1410   49.4980 N   0  0  0  0  0  0  0  0  0  0  0  0
   38.2260   33.7800   50.3200 H   0  0  0  0  0  0  0  0  0  0  0  0
   39.7970   33.8620   48.3510 H   0  0  0  0  0  0  0  0  0  0  0  0
   39.5060   32.2550   46.5240 H   0  0  0  0  0  0  0  0  0  0  0  0
  1  2  1  0  0  0  0
  2  3  2  0  0  0  0
  2  7  1  0  0  0  0
  3  8  1  0  0  0  0
  4  9  1  0  0  0  0
  4  3  1  0  0  0  0
  5  4  2  0  0  0  0
  6  5  1  0  0  0  0
  6  1  2  0  0  0  0
 11 10  1  0  0  0  0
 11 12  1  0  0  0  0
 12  5  1  0  0  0  0
 13 12  2  0  0  0  0
 13 14  1  0  0  0  0
 15 13  1  0  0  0  0
 16 15  1  0  0  0  0
 17 19  1  0  0  0  0
 17 15  2  0  0  0  0
 18 17  1  0  0  0  0
 19 11  2  0  0  0  0
 20 19  1  0  0  0  0
 21 26  1  0  0  0  0
 21 27  1  0  0  0  0
 22 21  2  0  0  0  0
 23 24  2  0  0  0  0
 23 22  1  0  0  0  0
 24 25  1  0  0  0  0
 25  1  1  0  0  0  0
 25 26  2  0  0  0  0
 28 22  1  0  0  0  0
 29 23  1  0  0  0  0
M  END
>  <minimizedAffinity>
-5.3471756

>  <minimizedRMSD>
0.216762483

$$$$
