REMARK  Name = 
REMARK  4 active torsions:
REMARK  status: ('A' for Active; 'I' for Inactive)
REMARK    1  A    between atoms: C_2  and  C_12
REMARK    2  A    between atoms: C_6  and  O_16
REMARK    3  A    between atoms: O_16  and  C_18
REMARK    4  A    between atoms: C_22  and  C_39
REMARK                            x       y       z     vdW  Elec       q    Type
REMARK                         _______ _______ _______ _____ _____    ______ ____
ROOT
ATOM      1  N   UNL     1      39.571  31.865  41.718  0.00  0.00    +0.000 NA
ATOM      2  C   UNL     1      39.209  33.241  41.875  0.00  0.00    +0.000 C 
ATOM      3  C   UNL     1      37.801  33.437  41.518  0.00  0.00    +0.000 C 
ATOM      4  O   UNL     1      37.641  33.163  40.164  0.00  0.00    +0.000 OA
ATOM      5  C   UNL     1      38.064  31.922  39.787  0.00  0.00    +0.000 C 
ATOM      6  C   UNL     1      39.431  31.549  40.296  0.00  0.00    +0.000 C 
ATOM      7  H   UNL     1      39.047  31.149  42.187  0.00  0.00    +0.000 HD
ATOM      8  H   UNL     1      39.818  33.865  41.189  0.00  0.00    +0.000 HD
ATOM      9  H   UNL     1      36.989  32.940  41.979  0.00  0.00    +0.000 HD
ATOM     10  H   UNL     1      37.588  34.546  41.601  0.00  0.00    +0.000 HD
ATOM     11  H   UNL     1      37.996  31.840  38.708  0.00  0.00    +0.000 HD
ATOM     12  H   UNL     1      37.361  31.190  40.284  0.00  0.00    +0.000 HD
ATOM     13  H   UNL     1      39.503  30.439  40.185  0.00  0.00    +0.000 HD
ENDROOT
BRANCH   6  16
ATOM     14 CL   UNL     1      39.247  34.609  39.688  0.00  0.00    +0.000 Cl
ATOM     15  C   UNL     1      40.553  33.534  39.235  0.00  0.00    +0.000 A 
ATOM     16  C   UNL     1      40.550  32.197  39.584  0.00  0.00    +0.000 A 
ATOM     17  C   UNL     1      41.672  31.520  39.179  0.00  0.00    +0.000 A 
ATOM     18  H   UNL     1      41.815  30.487  39.375  0.00  0.00    +0.000 HD
ATOM     19  C   UNL     1      42.735  32.081  38.483  0.00  0.00    +0.000 A 
ATOM     20  H   UNL     1      43.605  31.541  38.172  0.00  0.00    +0.000 HD
ATOM     21  C   UNL     1      42.679  33.428  38.161  0.00  0.00    +0.000 A 
ATOM     22  H   UNL     1      43.491  33.892  37.620  0.00  0.00    +0.000 HD
ATOM     23  C   UNL     1      41.573  34.157  38.545  0.00  0.00    +0.000 A 
ATOM     24 CL   UNL     1      41.561  35.853  38.110  0.00  0.00    +0.000 Cl
ENDBRANCH   6  16
BRANCH   2  25
ATOM     25  O   UNL     1      39.438  33.569  43.237  0.00  0.00    +0.000 OA
BRANCH  25  31
ATOM     26  C   UNL     1      36.236  30.179  46.860  0.00  0.00    +0.000 A 
ATOM     27  C   UNL     1      37.079  30.728  47.796  0.00  0.00    +0.000 A 
ATOM     28  C   UNL     1      38.080  31.644  47.428  0.00  0.00    +0.000 A 
ATOM     29  C   UNL     1      38.162  31.955  46.086  0.00  0.00    +0.000 A 
ATOM     30  N   UNL     1      39.038  32.815  45.478  0.00  0.00    +0.000 N 
ATOM     31  C   UNL     1      38.734  32.795  44.167  0.00  0.00    +0.000 A 
ATOM     32  N   UNL     1      37.729  31.976  43.950  0.00  0.00    +0.000 NA
ATOM     33  C   UNL     1      37.333  31.425  45.113  0.00  0.00    +0.000 A 
ATOM     34  C   UNL     1      36.347  30.514  45.515  0.00  0.00    +0.000 A 
ATOM     35  H   UNL     1      35.462  29.473  47.129  0.00  0.00    +0.000 HD
ATOM     36  H   UNL     1      38.755  32.088  48.150  0.00  0.00    +0.000 HD
ATOM     37  H   UNL     1      39.805  33.385  45.940  0.00  0.00    +0.000 HD
ATOM     38  H   UNL     1      35.699  30.099  44.758  0.00  0.00    +0.000 HD
BRANCH  27  41
ATOM     39  C   UNL     1      37.478  30.204  51.504  0.00  0.00    +0.000 A 
ATOM     40  C   UNL     1      37.792  30.626  50.219  0.00  0.00    +0.000 A 
ATOM     41  C   UNL     1      36.922  30.360  49.192  0.00  0.00    +0.000 A 
ATOM     42  N   UNL     1      35.766  29.675  49.509  0.00  0.00    +0.000 NA
ATOM     43  C   UNL     1      35.462  29.266  50.758  0.00  0.00    +0.000 A 
ATOM     44  N   UNL     1      36.312  29.531  51.739  0.00  0.00    +0.000 NA
ATOM     45  H   UNL     1      38.195  30.436  52.291  0.00  0.00    +0.000 HD
ATOM     46  H   UNL     1      38.681  31.155  49.962  0.00  0.00    +0.000 HD
ATOM     47  H   UNL     1      34.532  28.734  50.916  0.00  0.00    +0.000 HD
ENDBRANCH  27  41
ENDBRANCH  25  31
ENDBRANCH   2  25
TORSDOF 4
