
 OpenBabel03272507343D

 38 41  0  0  1  0  0  0  0  0999 V2000
   33.1050   27.4400   48.4100 C   0  0  0  0  0  0  0  0  0  0  0  0
   31.8530   27.6220   48.5360 O   0  0  0  0  0  0  0  0  0  0  0  0
   35.8750   29.2130   49.8190 C   0  0  0  0  0  0  0  0  0  0  0  0
   34.8540   29.8520   50.4850 C   0  0  0  0  0  0  0  0  0  0  0  0
   33.6470   29.2810   50.0540 C   0  0  0  0  0  0  0  0  0  0  0  0
   34.0180   28.3180   49.1400 C   0  0  0  0  0  0  0  0  0  0  0  0
   35.3290   28.3140   49.0350 O   0  0  0  0  0  0  0  0  0  0  0  0
   34.8650   30.6590   51.2280 H   0  0  0  0  0  0  0  0  0  0  0  0
   32.6540   29.5530   50.3790 H   0  0  0  0  0  0  0  0  0  0  0  0
   37.2750   29.5520   50.0240 C   0  0  0  0  0  0  0  0  0  0  0  0
   37.9230   28.9480   50.8880 O   0  0  0  0  0  0  0  0  0  0  0  0
   37.8220   30.5890   49.1950 C   0  0  0  0  0  0  0  0  0  0  0  0
   38.1700   31.7760   49.8120 C   0  0  0  0  0  0  0  0  0  0  0  0
   38.7030   32.8080   49.0350 C   0  0  0  0  0  0  0  0  0  0  0  0
   38.8530   32.5840   47.6900 N   0  0  0  0  0  0  0  0  0  0  0  0
   38.5070   31.4260   47.1220 C   0  0  0  0  0  0  0  0  0  0  0  0
   37.9950   30.4320   47.8630 N   0  0  0  0  0  0  0  0  0  0  0  0
   38.0590   31.9750   50.8780 H   0  0  0  0  0  0  0  0  0  0  0  0
   39.0000   33.7640   49.4410 H   0  0  0  0  0  0  0  0  0  0  0  0
   38.6080   31.2100   46.0710 H   0  0  0  0  0  0  0  0  0  0  0  0
   33.6480   26.3450   47.5370 C   0  0  1  0  0  0  0  0  0  0  0  0
   32.4810   25.7420   46.6680 C   0  0  0  0  0  0  0  0  0  0  0  0
   33.6350   26.4610   46.0780 C   0  0  1  0  0  0  0  0  0  0  0  0
   34.0910   25.4930   48.1160 H   0  0  0  0  0  0  0  0  0  0  0  0
   32.4330   24.6600   46.5640 H   0  0  0  0  0  0  0  0  0  0  0  0
   31.5380   26.3060   46.6350 H   0  0  0  0  0  0  0  0  0  0  0  0
   34.3340   25.8450   45.4960 H   0  0  0  0  0  0  0  0  0  0  0  0
   31.1760   26.7400   44.4780 Cl  0  0  0  0  0  0  0  0  0  0  0  0
   32.3490   28.0300   44.7840 C   0  0  0  0  0  0  0  0  0  0  0  0
   33.5030   27.8380   45.5530 C   0  0  0  0  0  0  0  0  0  0  0  0
   34.3290   28.9360   45.7070 C   0  0  0  0  0  0  0  0  0  0  0  0
   35.2020   28.7020   46.3180 H   0  0  0  0  0  0  0  0  0  0  0  0
   34.0220   30.1320   45.1340 C   0  0  0  0  0  0  0  0  0  0  0  0
   34.7290   30.9390   45.3090 H   0  0  0  0  0  0  0  0  0  0  0  0
   32.8840   30.3210   44.3760 C   0  0  0  0  0  0  0  0  0  0  0  0
   32.6530   31.2770   43.9270 H   0  0  0  0  0  0  0  0  0  0  0  0
   32.0420   29.2410   44.2060 C   0  0  0  0  0  0  0  0  0  0  0  0
   30.6000   29.4900   43.2410 Cl  0  0  0  0  0  0  0  0  0  0  0  0
  1  2  2  0  0  0  0
  1  6  1  0  0  0  0
  3 10  1  0  0  0  0
  3  4  2  0  0  0  0
  4  8  1  0  0  0  0
  5  9  1  0  0  0  0
  5  4  1  0  0  0  0
  6  5  2  0  0  0  0
  7  6  1  0  0  0  0
  7  3  1  0  0  0  0
 10 11  2  0  0  0  0
 12 13  1  0  0  0  0
 12 10  1  0  0  0  0
 13 18  1  0  0  0  0
 14 19  1  0  0  0  0
 14 13  2  0  0  0  0
 15 14  1  0  0  0  0
 16 15  2  0  0  0  0
 16 17  1  0  0  0  0
 17 12  2  0  0  0  0
 20 16  1  0  0  0  0
 21 24  1  1  0  0  0
 21  1  1  0  0  0  0
 22 21  1  0  0  0  0
 23 27  1  6  0  0  0
 23 22  1  0  0  0  0
 23 21  1  0  0  0  0
 25 22  1  0  0  0  0
 26 22  1  0  0  0  0
 28 29  1  0  0  0  0
 29 30  1  0  0  0  0
 30 31  2  0  0  0  0
 30 23  1  0  0  0  0
 31 32  1  0  0  0  0
 33 34  1  0  0  0  0
 33 31  1  0  0  0  0
 35 33  2  0  0  0  0
 36 35  1  0  0  0  0
 37 35  1  0  0  0  0
 37 29  2  0  0  0  0
 38 37  1  0  0  0  0
M  END
>  <minimizedAffinity>
-5.36022186

>  <minimizedRMSD>
3.28400803

$$$$
