
 OpenBabel03272501173D

 37 40  0  0  1  0  0  0  0  0999 V2000
   34.9590   28.9960   50.4720 C   0  0  0  0  0  0  0  0  0  0  0  0
   34.5550   29.6100   51.3040 H   0  0  0  0  0  0  0  0  0  0  0  0
   35.0580   27.9530   50.8910 H   0  0  0  0  0  0  0  0  0  0  0  0
   36.7150   30.7920   50.1550 C   0  0  1  0  0  0  0  0  0  0  0  0
   36.3280   29.4230   50.0240 C   0  0  1  0  0  0  0  0  0  0  0  0
   37.4360   29.7160   50.9890 C   0  0  0  0  0  0  0  0  0  0  0  0
   36.1330   31.5330   50.7770 H   0  0  0  0  0  0  0  0  0  0  0  0
   36.6460   28.8850   49.0910 H   0  0  0  0  0  0  0  0  0  0  0  0
   37.1660   29.7010   52.0550 H   0  0  0  0  0  0  0  0  0  0  0  0
   38.4750   29.4570   50.7430 H   0  0  0  0  0  0  0  0  0  0  0  0
   37.6530   31.4540   49.1730 C   0  0  0  0  0  0  0  0  0  0  0  0
   38.1100   32.7150   49.5170 C   0  0  0  0  0  0  0  0  0  0  0  0
   38.9640   33.3290   48.5860 C   0  0  0  0  0  0  0  0  0  0  0  0
   39.2910   32.6830   47.4320 N   0  0  0  0  0  0  0  0  0  0  0  0
   38.8170   31.4320   47.1280 C   0  0  0  0  0  0  0  0  0  0  0  0
   37.9810   30.8150   48.0250 N   0  0  0  0  0  0  0  0  0  0  0  0
   37.8320   33.2000   50.4370 H   0  0  0  0  0  0  0  0  0  0  0  0
   39.3650   34.3090   48.7740 H   0  0  0  0  0  0  0  0  0  0  0  0
   39.0770   30.9370   46.2270 H   0  0  0  0  0  0  0  0  0  0  0  0
   33.9970   28.8500   49.3390 C   0  0  0  0  0  0  0  0  0  0  0  0
   34.1050   29.5930   48.1740 C   0  0  0  0  0  0  0  0  0  0  0  0
   33.1320   29.2720   47.3290 N   0  0  0  0  0  0  0  0  0  0  0  0
   32.4020   28.3390   47.9290 C   0  0  0  0  0  0  0  0  0  0  0  0
   32.9240   28.0830   49.1430 N   0  0  0  0  0  0  0  0  0  0  0  0
   34.8850   30.3450   47.9730 H   0  0  0  0  0  0  0  0  0  0  0  0
   33.0080   29.6900   46.4100 H   0  0  0  0  0  0  0  0  0  0  0  0
   29.8950   28.2200   49.8020 Cl  0  0  0  0  0  0  0  0  0  0  0  0
   30.0640   27.4850   48.2330 C   0  0  0  0  0  0  0  0  0  0  0  0
   31.2210   27.6110   47.5060 C   0  0  0  0  0  0  0  0  0  0  0  0
   31.1430   26.9550   46.2970 C   0  0  0  0  0  0  0  0  0  0  0  0
   32.0060   26.9740   45.6110 H   0  0  0  0  0  0  0  0  0  0  0  0
   30.0580   26.2500   45.8390 C   0  0  0  0  0  0  0  0  0  0  0  0
   30.0840   25.7660   44.8780 H   0  0  0  0  0  0  0  0  0  0  0  0
   28.9260   26.1610   46.6150 C   0  0  0  0  0  0  0  0  0  0  0  0
   28.0990   25.5970   46.2140 H   0  0  0  0  0  0  0  0  0  0  0  0
   28.9420   26.7950   47.8360 C   0  0  0  0  0  0  0  0  0  0  0  0
   27.4880   26.6600   48.7950 Cl  0  0  0  0  0  0  0  0  0  0  0  0
  1  3  1  0  0  0  0
  1  2  1  0  0  0  0
  4  7  1  1  0  0  0
  4  6  1  0  0  0  0
  5  8  1  6  0  0  0
  5  4  1  0  0  0  0
  5  1  1  0  0  0  0
  5  6  1  0  0  0  0
  6  9  1  0  0  0  0
 10  6  1  0  0  0  0
 11 12  1  0  0  0  0
 11  4  1  0  0  0  0
 12 17  1  0  0  0  0
 13 18  1  0  0  0  0
 13 12  2  0  0  0  0
 14 13  1  0  0  0  0
 15 14  2  0  0  0  0
 15 16  1  0  0  0  0
 16 11  2  0  0  0  0
 19 15  1  0  0  0  0
 20  1  1  0  0  0  0
 21 20  2  0  0  0  0
 22 23  1  0  0  0  0
 22 21  1  0  0  0  0
 23 24  2  0  0  0  0
 24 20  1  0  0  0  0
 25 21  1  0  0  0  0
 26 22  1  0  0  0  0
 28 27  1  0  0  0  0
 29 23  1  0  0  0  0
 29 28  2  0  0  0  0
 30 29  1  0  0  0  0
 31 30  1  0  0  0  0
 32 30  2  0  0  0  0
 32 34  1  0  0  0  0
 33 32  1  0  0  0  0
 34 36  2  0  0  0  0
 35 34  1  0  0  0  0
 36 28  1  0  0  0  0
 36 37  1  0  0  0  0
M  END
>  <minimizedAffinity>
-6.42395353

>  <minimizedRMSD>
0.685120702

$$$$
