
 OpenBabel03272508353D

 33 35  0  0  0  0  0  0  0  0999 V2000
   37.8340   25.8130   33.8960 C   0  0  0  0  0  0  0  0  0  0  0  0
   37.9570   26.8110   33.4630 H   0  0  0  0  0  0  0  0  0  0  0  0
   37.1230   25.9020   34.7430 H   0  0  0  0  0  0  0  0  0  0  0  0
   36.5270   23.0190   32.0370 C   0  0  0  0  0  0  0  0  0  0  0  0
   35.9980   24.0650   31.3290 C   0  0  0  0  0  0  0  0  0  0  0  0
   36.4030   25.2550   31.9090 C   0  0  0  0  0  0  0  0  0  0  0  0
   37.1820   24.8690   32.9740 N   0  0  0  0  0  0  0  0  0  0  0  0
   37.2540   23.5340   33.0470 N   0  0  0  0  0  0  0  0  0  0  0  0
   35.3530   24.0530   30.4420 H   0  0  0  0  0  0  0  0  0  0  0  0
   36.1770   26.2710   31.6180 H   0  0  0  0  0  0  0  0  0  0  0  0
   35.1420   19.5260   31.8460 C   0  0  0  0  0  0  0  0  0  0  0  0
   35.2880   20.8410   32.2610 C   0  0  0  0  0  0  0  0  0  0  0  0
   36.2860   21.6300   31.6780 C   0  0  0  0  0  0  0  0  0  0  0  0
   37.0660   21.0470   30.7240 N   0  0  0  0  0  0  0  0  0  0  0  0
   36.8880   19.7560   30.3480 C   0  0  0  0  0  0  0  0  0  0  0  0
   35.9360   19.0060   30.9050 N   0  0  0  0  0  0  0  0  0  0  0  0
   34.3230   19.0550   32.3970 H   0  0  0  0  0  0  0  0  0  0  0  0
   34.7100   21.3640   33.0060 H   0  0  0  0  0  0  0  0  0  0  0  0
   37.5240   19.3170   29.5840 H   0  0  0  0  0  0  0  0  0  0  0  0
   39.1510   25.1940   34.3450 C   0  0  0  0  0  0  0  0  0  0  0  0
   39.3220   24.3300   33.6430 H   0  0  0  0  0  0  0  0  0  0  0  0
   39.9970   25.8630   34.2130 H   0  0  0  0  0  0  0  0  0  0  0  0
   41.1670   23.1090   34.8650 Cl  0  0  0  0  0  0  0  0  0  0  0  0
   39.9380   23.5710   36.0410 C   0  0  0  0  0  0  0  0  0  0  0  0
   39.0300   24.5770   35.6840 C   0  0  0  0  0  0  0  0  0  0  0  0
   38.1030   24.8850   36.6450 C   0  0  0  0  0  0  0  0  0  0  0  0
   37.3870   25.6670   36.3870 H   0  0  0  0  0  0  0  0  0  0  0  0
   38.0380   24.2760   37.8760 C   0  0  0  0  0  0  0  0  0  0  0  0
   37.2760   24.5740   38.5820 H   0  0  0  0  0  0  0  0  0  0  0  0
   38.9630   23.2950   38.1600 C   0  0  0  0  0  0  0  0  0  0  0  0
   38.9590   22.7790   39.1160 H   0  0  0  0  0  0  0  0  0  0  0  0
   39.9400   22.9140   37.2500 C   0  0  0  0  0  0  0  0  0  0  0  0
   41.1220   21.6750   37.5840 Cl  0  0  0  0  0  0  0  0  0  0  0  0
  1 20  1  0  0  0  0
  1  3  1  0  0  0  0
  2  1  1  0  0  0  0
  4  8  2  0  0  0  0
  5  6  2  0  0  0  0
  5  4  1  0  0  0  0
  6  7  1  0  0  0  0
  7  8  1  0  0  0  0
  7  1  1  0  0  0  0
  9  5  1  0  0  0  0
 10  6  1  0  0  0  0
 11 12  1  0  0  0  0
 11 17  1  0  0  0  0
 12 18  1  0  0  0  0
 13  4  1  0  0  0  0
 13 12  2  0  0  0  0
 14 13  1  0  0  0  0
 15 14  2  0  0  0  0
 15 16  1  0  0  0  0
 16 11  2  0  0  0  0
 19 15  1  0  0  0  0
 20 25  1  0  0  0  0
 21 20  1  0  0  0  0
 22 20  1  0  0  0  0
 23 24  1  0  0  0  0
 24 32  1  0  0  0  0
 25 24  2  0  0  0  0
 25 26  1  0  0  0  0
 26 28  2  0  0  0  0
 27 26  1  0  0  0  0
 28 30  1  0  0  0  0
 28 29  1  0  0  0  0
 30 31  1  0  0  0  0
 32 33  1  0  0  0  0
 32 30  2  0  0  0  0
M  END
>  <minimizedAffinity>
-5.39340496

$$$$

 OpenBabel03272508353D

 33 35  0  0  0  0  0  0  0  0999 V2000
   38.8210   25.9390   34.1600 C   0  0  0  0  0  0  0  0  0  0  0  0
   39.5720   25.8630   33.3670 H   0  0  0  0  0  0  0  0  0  0  0  0
   39.3240   26.3550   35.0570 H   0  0  0  0  0  0  0  0  0  0  0  0
   36.2760   28.4850   34.0790 C   0  0  0  0  0  0  0  0  0  0  0  0
   36.2820   28.0900   32.7680 C   0  0  0  0  0  0  0  0  0  0  0  0
   37.2230   27.0880   32.6020 C   0  0  0  0  0  0  0  0  0  0  0  0
   37.7630   26.9150   33.8540 N   0  0  0  0  0  0  0  0  0  0  0  0
   37.1950   27.7500   34.7330 N   0  0  0  0  0  0  0  0  0  0  0  0
   35.6780   28.4510   31.9260 H   0  0  0  0  0  0  0  0  0  0  0  0
   37.4960   26.5460   31.7060 H   0  0  0  0  0  0  0  0  0  0  0  0
   34.9130   31.5930   35.7040 C   0  0  0  0  0  0  0  0  0  0  0  0
   35.8400   30.6570   35.2710 C   0  0  0  0  0  0  0  0  0  0  0  0
   35.3920   29.5280   34.5780 C   0  0  0  0  0  0  0  0  0  0  0  0
   34.0500   29.4150   34.3670 N   0  0  0  0  0  0  0  0  0  0  0  0
   33.1780   30.3550   34.8080 C   0  0  0  0  0  0  0  0  0  0  0  0
   33.6070   31.4320   35.4690 N   0  0  0  0  0  0  0  0  0  0  0  0
   35.4260   32.4070   36.2240 H   0  0  0  0  0  0  0  0  0  0  0  0
   36.9110   30.6820   35.4020 H   0  0  0  0  0  0  0  0  0  0  0  0
   32.1120   30.2400   34.6260 H   0  0  0  0  0  0  0  0  0  0  0  0
   38.1530   24.6060   34.4730 C   0  0  0  0  0  0  0  0  0  0  0  0
   37.0470   24.8150   34.4230 H   0  0  0  0  0  0  0  0  0  0  0  0
   38.3520   23.8480   33.7210 H   0  0  0  0  0  0  0  0  0  0  0  0
   40.3990   22.7230   34.7670 Cl  0  0  0  0  0  0  0  0  0  0  0  0
   39.4440   23.2980   36.1320 C   0  0  0  0  0  0  0  0  0  0  0  0
   38.3980   24.1940   35.8730 C   0  0  0  0  0  0  0  0  0  0  0  0
   37.6980   24.5990   36.9780 C   0  0  0  0  0  0  0  0  0  0  0  0
   36.8800   25.2980   36.7980 H   0  0  0  0  0  0  0  0  0  0  0  0
   37.9710   24.1810   38.2600 C   0  0  0  0  0  0  0  0  0  0  0  0
   37.3730   24.5450   39.0830 H   0  0  0  0  0  0  0  0  0  0  0  0
   39.0150   23.3000   38.4410 C   0  0  0  0  0  0  0  0  0  0  0  0
   39.2760   22.9350   39.4300 H   0  0  0  0  0  0  0  0  0  0  0  0
   39.7820   22.8320   37.3820 C   0  0  0  0  0  0  0  0  0  0  0  0
   41.1080   21.7160   37.5840 Cl  0  0  0  0  0  0  0  0  0  0  0  0
  1 20  1  0  0  0  0
  1  3  1  0  0  0  0
  2  1  1  0  0  0  0
  4 13  1  0  0  0  0
  4  8  2  0  0  0  0
  5  4  1  0  0  0  0
  6  5  2  0  0  0  0
  6  7  1  0  0  0  0
  7  1  1  0  0  0  0
  7  8  1  0  0  0  0
  9  5  1  0  0  0  0
 10  6  1  0  0  0  0
 11 17  1  0  0  0  0
 12 18  1  0  0  0  0
 12 11  2  0  0  0  0
 13 12  1  0  0  0  0
 14 13  2  0  0  0  0
 14 15  1  0  0  0  0
 15 16  2  0  0  0  0
 16 11  1  0  0  0  0
 19 15  1  0  0  0  0
 20 25  1  0  0  0  0
 21 20  1  0  0  0  0
 22 20  1  0  0  0  0
 23 24  1  0  0  0  0
 24 32  1  0  0  0  0
 25 24  2  0  0  0  0
 25 26  1  0  0  0  0
 26 28  2  0  0  0  0
 27 26  1  0  0  0  0
 28 30  1  0  0  0  0
 28 29  1  0  0  0  0
 30 31  1  0  0  0  0
 32 33  1  0  0  0  0
 32 30  2  0  0  0  0
M  END
>  <minimizedAffinity>
-5.39334679

$$$$

 OpenBabel03272508353D

 33 35  0  0  0  0  0  0  0  0999 V2000
   37.2870   26.4540   32.6410 C   0  0  0  0  0  0  0  0  0  0  0  0
   36.5650   25.6330   32.7010 H   0  0  0  0  0  0  0  0  0  0  0  0
   37.6280   26.5210   31.5880 H   0  0  0  0  0  0  0  0  0  0  0  0
   35.7510   29.4390   33.9440 C   0  0  0  0  0  0  0  0  0  0  0  0
   35.9190   29.7920   32.6310 C   0  0  0  0  0  0  0  0  0  0  0  0
   36.5110   28.7400   31.9530 C   0  0  0  0  0  0  0  0  0  0  0  0
   36.6820   27.7680   32.9100 N   0  0  0  0  0  0  0  0  0  0  0  0
   36.2280   28.1890   34.0970 N   0  0  0  0  0  0  0  0  0  0  0  0
   35.6580   30.7260   32.1200 H   0  0  0  0  0  0  0  0  0  0  0  0
   36.7880   28.6670   30.9100 H   0  0  0  0  0  0  0  0  0  0  0  0
   35.2160   32.0620   36.5880 C   0  0  0  0  0  0  0  0  0  0  0  0
   35.8840   31.2550   35.6800 C   0  0  0  0  0  0  0  0  0  0  0  0
   35.1540   30.3330   34.9240 C   0  0  0  0  0  0  0  0  0  0  0  0
   33.8070   30.2830   35.1310 N   0  0  0  0  0  0  0  0  0  0  0  0
   33.1930   31.0910   36.0300 C   0  0  0  0  0  0  0  0  0  0  0  0
   33.8920   31.9700   36.7510 N   0  0  0  0  0  0  0  0  0  0  0  0
   35.9290   32.7200   37.0920 H   0  0  0  0  0  0  0  0  0  0  0  0
   36.9420   31.2420   35.4660 H   0  0  0  0  0  0  0  0  0  0  0  0
   32.1170   31.0300   36.1750 H   0  0  0  0  0  0  0  0  0  0  0  0
   38.4650   26.2780   33.5910 C   0  0  0  0  0  0  0  0  0  0  0  0
   39.3410   26.0310   32.9280 H   0  0  0  0  0  0  0  0  0  0  0  0
   38.7280   27.1950   34.1100 H   0  0  0  0  0  0  0  0  0  0  0  0
   38.3530   26.9100   36.4660 Cl  0  0  0  0  0  0  0  0  0  0  0  0
   38.2260   25.2680   35.8390 C   0  0  0  0  0  0  0  0  0  0  0  0
   38.2930   25.0860   34.4520 C   0  0  0  0  0  0  0  0  0  0  0  0
   38.1880   23.7860   34.0340 C   0  0  0  0  0  0  0  0  0  0  0  0
   38.2360   23.6230   32.9560 H   0  0  0  0  0  0  0  0  0  0  0  0
   38.0290   22.7150   34.8820 C   0  0  0  0  0  0  0  0  0  0  0  0
   37.9540   21.7160   34.4770 H   0  0  0  0  0  0  0  0  0  0  0  0
   37.9710   22.9670   36.2350 C   0  0  0  0  0  0  0  0  0  0  0  0
   37.8470   22.1610   36.9520 H   0  0  0  0  0  0  0  0  0  0  0  0
   38.0680   24.2520   36.7530 C   0  0  0  0  0  0  0  0  0  0  0  0
   37.9990   24.5980   38.4620 Cl  0  0  0  0  0  0  0  0  0  0  0  0
  1  2  1  0  0  0  0
  1  7  1  0  0  0  0
  1 20  1  0  0  0  0
  3  1  1  0  0  0  0
  4  8  2  0  0  0  0
  4 13  1  0  0  0  0
  5  4  1  0  0  0  0
  6  5  2  0  0  0  0
  6  7  1  0  0  0  0
  7  8  1  0  0  0  0
  9  5  1  0  0  0  0
 10  6  1  0  0  0  0
 11 16  1  0  0  0  0
 11 17  1  0  0  0  0
 12 11  2  0  0  0  0
 13 14  2  0  0  0  0
 13 12  1  0  0  0  0
 14 15  1  0  0  0  0
 15 19  1  0  0  0  0
 15 16  2  0  0  0  0
 18 12  1  0  0  0  0
 20 22  1  0  0  0  0
 20 25  1  0  0  0  0
 21 20  1  0  0  0  0
 24 23  1  0  0  0  0
 24 32  1  0  0  0  0
 25 24  2  0  0  0  0
 26 25  1  0  0  0  0
 26 28  2  0  0  0  0
 27 26  1  0  0  0  0
 28 30  1  0  0  0  0
 29 28  1  0  0  0  0
 30 32  2  0  0  0  0
 30 31  1  0  0  0  0
 32 33  1  0  0  0  0
M  END
>  <minimizedAffinity>
-5.36146307

$$$$

 OpenBabel03272508353D

 33 35  0  0  0  0  0  0  0  0999 V2000
   36.1190   26.5820   31.2990 C   0  0  0  0  0  0  0  0  0  0  0  0
   35.5330   26.9110   30.4350 H   0  0  0  0  0  0  0  0  0  0  0  0
   35.4630   26.6500   32.1920 H   0  0  0  0  0  0  0  0  0  0  0  0
   36.4470   23.0010   31.4950 C   0  0  0  0  0  0  0  0  0  0  0  0
   37.5640   23.3190   30.7680 C   0  0  0  0  0  0  0  0  0  0  0  0
   37.6100   24.6910   30.5880 C   0  0  0  0  0  0  0  0  0  0  0  0
   36.4880   25.1590   31.2300 N   0  0  0  0  0  0  0  0  0  0  0  0
   35.7970   24.1470   31.7700 N   0  0  0  0  0  0  0  0  0  0  0  0
   38.3410   22.6630   30.3590 H   0  0  0  0  0  0  0  0  0  0  0  0
   38.3460   25.2890   30.0670 H   0  0  0  0  0  0  0  0  0  0  0  0
   35.7250   19.3100   31.3790 C   0  0  0  0  0  0  0  0  0  0  0  0
   36.0560   20.5800   30.9320 C   0  0  0  0  0  0  0  0  0  0  0  0
   36.1110   21.6310   31.8530 C   0  0  0  0  0  0  0  0  0  0  0  0
   35.8290   21.3380   33.1540 N   0  0  0  0  0  0  0  0  0  0  0  0
   35.5090   20.0800   33.5490 C   0  0  0  0  0  0  0  0  0  0  0  0
   35.4580   19.0790   32.6690 N   0  0  0  0  0  0  0  0  0  0  0  0
   35.7280   18.6110   30.5390 H   0  0  0  0  0  0  0  0  0  0  0  0
   36.2900   20.8830   29.9240 H   0  0  0  0  0  0  0  0  0  0  0  0
   35.2900   19.8740   34.5930 H   0  0  0  0  0  0  0  0  0  0  0  0
   37.3970   27.3880   31.4930 C   0  0  0  0  0  0  0  0  0  0  0  0
   38.1830   26.8340   30.9070 H   0  0  0  0  0  0  0  0  0  0  0  0
   37.3380   28.3810   31.0560 H   0  0  0  0  0  0  0  0  0  0  0  0
   40.2670   26.7790   31.7570 Cl  0  0  0  0  0  0  0  0  0  0  0  0
   39.2130   27.0540   33.1420 C   0  0  0  0  0  0  0  0  0  0  0  0
   37.8620   27.3360   32.8960 C   0  0  0  0  0  0  0  0  0  0  0  0
   37.1010   27.5390   34.0170 C   0  0  0  0  0  0  0  0  0  0  0  0
   36.0470   27.7620   33.8460 H   0  0  0  0  0  0  0  0  0  0  0  0
   37.5890   27.4780   35.3010 C   0  0  0  0  0  0  0  0  0  0  0  0
   36.9260   27.6490   36.1370 H   0  0  0  0  0  0  0  0  0  0  0  0
   38.9270   27.1960   35.4690 C   0  0  0  0  0  0  0  0  0  0  0  0
   39.3680   27.1340   36.4600 H   0  0  0  0  0  0  0  0  0  0  0  0
   39.7780   26.9750   34.3940 C   0  0  0  0  0  0  0  0  0  0  0  0
   41.4760   26.6160   34.5800 Cl  0  0  0  0  0  0  0  0  0  0  0  0
  1 20  1  0  0  0  0
  1  3  1  0  0  0  0
  2  1  1  0  0  0  0
  4  8  2  0  0  0  0
  4 13  1  0  0  0  0
  5  4  1  0  0  0  0
  6  5  2  0  0  0  0
  6  7  1  0  0  0  0
  7  1  1  0  0  0  0
  7  8  1  0  0  0  0
  9  5  1  0  0  0  0
 10  6  1  0  0  0  0
 11 16  1  0  0  0  0
 12 11  2  0  0  0  0
 12 13  1  0  0  0  0
 13 14  2  0  0  0  0
 14 15  1  0  0  0  0
 15 19  1  0  0  0  0
 16 15  2  0  0  0  0
 17 11  1  0  0  0  0
 18 12  1  0  0  0  0
 20 25  1  0  0  0  0
 21 20  1  0  0  0  0
 22 20  1  0  0  0  0
 23 24  1  0  0  0  0
 24 32  1  0  0  0  0
 25 24  2  0  0  0  0
 25 26  1  0  0  0  0
 26 28  2  0  0  0  0
 27 26  1  0  0  0  0
 28 30  1  0  0  0  0
 28 29  1  0  0  0  0
 30 31  1  0  0  0  0
 32 33  1  0  0  0  0
 32 30  2  0  0  0  0
M  END
>  <minimizedAffinity>
-5.29229069

$$$$

 OpenBabel03272508353D

 33 35  0  0  0  0  0  0  0  0999 V2000
   35.4110   30.2900   34.1320 C   0  0  0  0  0  0  0  0  0  0  0  0
   35.5250   31.0160   33.3220 H   0  0  0  0  0  0  0  0  0  0  0  0
   34.3280   30.0760   34.2390 H   0  0  0  0  0  0  0  0  0  0  0  0
   36.9890   27.0540   34.0340 C   0  0  0  0  0  0  0  0  0  0  0  0
   36.6970   27.2340   32.7080 C   0  0  0  0  0  0  0  0  0  0  0  0
   36.0710   28.4580   32.5460 C   0  0  0  0  0  0  0  0  0  0  0  0
   36.0070   28.9820   33.8160 N   0  0  0  0  0  0  0  0  0  0  0  0
   36.5570   28.1410   34.7010 N   0  0  0  0  0  0  0  0  0  0  0  0
   36.8890   26.5740   31.8540 H   0  0  0  0  0  0  0  0  0  0  0  0
   35.7020   28.9250   31.6420 H   0  0  0  0  0  0  0  0  0  0  0  0
   38.6020   24.4770   36.2510 C   0  0  0  0  0  0  0  0  0  0  0  0
   37.9700   25.6540   35.8800 C   0  0  0  0  0  0  0  0  0  0  0  0
   37.6520   25.8590   34.5340 C   0  0  0  0  0  0  0  0  0  0  0  0
   37.9890   24.8720   33.6550 N   0  0  0  0  0  0  0  0  0  0  0  0
   38.6070   23.7360   34.0610 C   0  0  0  0  0  0  0  0  0  0  0  0
   38.9100   23.5430   35.3460 N   0  0  0  0  0  0  0  0  0  0  0  0
   38.7770   24.4770   37.3310 H   0  0  0  0  0  0  0  0  0  0  0  0
   37.6740   26.4720   36.5180 H   0  0  0  0  0  0  0  0  0  0  0  0
   38.8650   22.9660   33.3390 H   0  0  0  0  0  0  0  0  0  0  0  0
   36.0090   30.7700   35.4490 C   0  0  0  0  0  0  0  0  0  0  0  0
   35.9850   29.8710   36.1260 H   0  0  0  0  0  0  0  0  0  0  0  0
   37.0540   31.0520   35.3580 H   0  0  0  0  0  0  0  0  0  0  0  0
   37.1010   33.5060   35.4000 Cl  0  0  0  0  0  0  0  0  0  0  0  0
   35.5560   33.1020   36.1450 C   0  0  0  0  0  0  0  0  0  0  0  0
   35.1350   31.7660   36.1080 C   0  0  0  0  0  0  0  0  0  0  0  0
   33.9270   31.5240   36.7040 C   0  0  0  0  0  0  0  0  0  0  0  0
   33.5810   30.4890   36.6850 H   0  0  0  0  0  0  0  0  0  0  0  0
   33.1550   32.4920   37.3040 C   0  0  0  0  0  0  0  0  0  0  0  0
   32.2110   32.2240   37.7550 H   0  0  0  0  0  0  0  0  0  0  0  0
   33.6290   33.7860   37.3030 C   0  0  0  0  0  0  0  0  0  0  0  0
   33.0650   34.5920   37.7620 H   0  0  0  0  0  0  0  0  0  0  0  0
   34.8440   34.1290   36.7230 C   0  0  0  0  0  0  0  0  0  0  0  0
   35.4680   35.7580   36.7090 Cl  0  0  0  0  0  0  0  0  0  0  0  0
  1  3  1  0  0  0  0
  1 20  1  0  0  0  0
  2  1  1  0  0  0  0
  4 13  1  0  0  0  0
  4  8  2  0  0  0  0
  5  4  1  0  0  0  0
  6  5  2  0  0  0  0
  6  7  1  0  0  0  0
  7  1  1  0  0  0  0
  7  8  1  0  0  0  0
  9  5  1  0  0  0  0
 10  6  1  0  0  0  0
 11 17  1  0  0  0  0
 12 11  1  0  0  0  0
 12 18  1  0  0  0  0
 13 12  2  0  0  0  0
 14 15  2  0  0  0  0
 14 13  1  0  0  0  0
 15 16  1  0  0  0  0
 16 11  2  0  0  0  0
 19 15  1  0  0  0  0
 20 25  1  0  0  0  0
 20 21  1  0  0  0  0
 22 20  1  0  0  0  0
 23 24  1  0  0  0  0
 24 32  1  0  0  0  0
 25 24  2  0  0  0  0
 25 26  1  0  0  0  0
 26 28  2  0  0  0  0
 27 26  1  0  0  0  0
 28 29  1  0  0  0  0
 30 28  1  0  0  0  0
 30 31  1  0  0  0  0
 32 30  2  0  0  0  0
 33 32  1  0  0  0  0
M  END
>  <minimizedAffinity>
-5.14748526

$$$$

 OpenBabel03272508353D

 33 35  0  0  0  0  0  0  0  0999 V2000
   38.6750   25.4320   33.7280 C   0  0  0  0  0  0  0  0  0  0  0  0
   39.6040   25.3650   33.1520 H   0  0  0  0  0  0  0  0  0  0  0  0
   38.8660   26.1010   34.5920 H   0  0  0  0  0  0  0  0  0  0  0  0
   36.2110   27.6190   32.2730 C   0  0  0  0  0  0  0  0  0  0  0  0
   35.9300   26.4490   31.6200 C   0  0  0  0  0  0  0  0  0  0  0  0
   36.7980   25.4650   32.0610 C   0  0  0  0  0  0  0  0  0  0  0  0
   37.5910   26.0980   32.9880 N   0  0  0  0  0  0  0  0  0  0  0  0
   37.2380   27.3830   33.1120 N   0  0  0  0  0  0  0  0  0  0  0  0
   35.1660   26.2380   30.8620 H   0  0  0  0  0  0  0  0  0  0  0  0
   36.8640   24.4260   31.7640 H   0  0  0  0  0  0  0  0  0  0  0  0
   35.1420   31.0060   31.0330 C   0  0  0  0  0  0  0  0  0  0  0  0
   35.9260   29.8740   31.1960 C   0  0  0  0  0  0  0  0  0  0  0  0
   35.4720   28.8480   32.0310 C   0  0  0  0  0  0  0  0  0  0  0  0
   34.2670   29.0280   32.6430 N   0  0  0  0  0  0  0  0  0  0  0  0
   33.5320   30.1510   32.4550 C   0  0  0  0  0  0  0  0  0  0  0  0
   33.9670   31.1290   31.6580 N   0  0  0  0  0  0  0  0  0  0  0  0
   35.6390   31.7040   30.3540 H   0  0  0  0  0  0  0  0  0  0  0  0
   36.8840   29.6670   30.7450 H   0  0  0  0  0  0  0  0  0  0  0  0
   32.5740   30.2680   32.9560 H   0  0  0  0  0  0  0  0  0  0  0  0
   38.1630   24.0730   34.1870 C   0  0  0  0  0  0  0  0  0  0  0  0
   37.0420   24.1410   34.1050 H   0  0  0  0  0  0  0  0  0  0  0  0
   38.4660   23.2640   33.5290 H   0  0  0  0  0  0  0  0  0  0  0  0
   40.4320   22.2670   34.7070 Cl  0  0  0  0  0  0  0  0  0  0  0  0
   39.4830   23.0110   35.9920 C   0  0  0  0  0  0  0  0  0  0  0  0
   38.4250   23.8540   35.6270 C   0  0  0  0  0  0  0  0  0  0  0  0
   37.7310   24.3980   36.6750 C   0  0  0  0  0  0  0  0  0  0  0  0
   36.9040   25.0590   36.4120 H   0  0  0  0  0  0  0  0  0  0  0  0
   38.0210   24.1580   37.9980 C   0  0  0  0  0  0  0  0  0  0  0  0
   37.4270   24.6240   38.7710 H   0  0  0  0  0  0  0  0  0  0  0  0
   39.0750   23.3190   38.2850 C   0  0  0  0  0  0  0  0  0  0  0  0
   39.3500   23.0930   39.3110 H   0  0  0  0  0  0  0  0  0  0  0  0
   39.8380   22.7210   37.2900 C   0  0  0  0  0  0  0  0  0  0  0  0
   41.1770   21.6550   37.6260 Cl  0  0  0  0  0  0  0  0  0  0  0  0
  1 20  1  0  0  0  0
  1  3  1  0  0  0  0
  2  1  1  0  0  0  0
  4  8  2  0  0  0  0
  5  6  2  0  0  0  0
  5  4  1  0  0  0  0
  6  7  1  0  0  0  0
  7  8  1  0  0  0  0
  7  1  1  0  0  0  0
  9  5  1  0  0  0  0
 10  6  1  0  0  0  0
 11 12  2  0  0  0  0
 11 16  1  0  0  0  0
 12 13  1  0  0  0  0
 13  4  1  0  0  0  0
 13 14  2  0  0  0  0
 15 14  1  0  0  0  0
 15 19  1  0  0  0  0
 16 15  2  0  0  0  0
 17 11  1  0  0  0  0
 18 12  1  0  0  0  0
 20 25  1  0  0  0  0
 21 20  1  0  0  0  0
 22 20  1  0  0  0  0
 23 24  1  0  0  0  0
 24 32  1  0  0  0  0
 25 24  2  0  0  0  0
 25 26  1  0  0  0  0
 26 28  2  0  0  0  0
 27 26  1  0  0  0  0
 28 30  1  0  0  0  0
 28 29  1  0  0  0  0
 30 31  1  0  0  0  0
 32 33  1  0  0  0  0
 32 30  2  0  0  0  0
M  END
>  <minimizedAffinity>
-5.11550713

$$$$

 OpenBabel03272508353D

 33 35  0  0  0  0  0  0  0  0999 V2000
   36.7020   26.8140   32.0760 C   0  0  0  0  0  0  0  0  0  0  0  0
   37.5090   26.9040   31.3430 H   0  0  0  0  0  0  0  0  0  0  0  0
   36.1290   25.8960   31.8310 H   0  0  0  0  0  0  0  0  0  0  0  0
   38.0020   25.5870   35.2030 C   0  0  0  0  0  0  0  0  0  0  0  0
   37.7810   26.9020   35.5180 C   0  0  0  0  0  0  0  0  0  0  0  0
   37.2670   27.5520   34.4090 C   0  0  0  0  0  0  0  0  0  0  0  0
   37.1960   26.5770   33.4430 N   0  0  0  0  0  0  0  0  0  0  0  0
   37.6350   25.4060   33.9200 N   0  0  0  0  0  0  0  0  0  0  0  0
   37.9550   27.4330   36.4620 H   0  0  0  0  0  0  0  0  0  0  0  0
   36.9770   28.5880   34.2960 H   0  0  0  0  0  0  0  0  0  0  0  0
   38.5890   23.4780   38.2620 C   0  0  0  0  0  0  0  0  0  0  0  0
   37.9950   24.4110   37.4270 C   0  0  0  0  0  0  0  0  0  0  0  0
   38.5430   24.6330   36.1590 C   0  0  0  0  0  0  0  0  0  0  0  0
   39.6450   23.9070   35.8180 N   0  0  0  0  0  0  0  0  0  0  0  0
   40.1940   23.0030   36.6670 C   0  0  0  0  0  0  0  0  0  0  0  0
   39.6700   22.7920   37.8760 N   0  0  0  0  0  0  0  0  0  0  0  0
   38.0410   23.4270   39.2070 H   0  0  0  0  0  0  0  0  0  0  0  0
   37.1270   25.0180   37.6300 H   0  0  0  0  0  0  0  0  0  0  0  0
   41.0730   22.4370   36.3690 H   0  0  0  0  0  0  0  0  0  0  0  0
   35.7940   28.0370   32.1120 C   0  0  0  0  0  0  0  0  0  0  0  0
   34.8430   27.7090   31.6060 H   0  0  0  0  0  0  0  0  0  0  0  0
   35.5150   28.3240   33.1220 H   0  0  0  0  0  0  0  0  0  0  0  0
   35.5960   30.6980   33.3600 Cl  0  0  0  0  0  0  0  0  0  0  0  0
   36.2780   30.4380   31.7560 C   0  0  0  0  0  0  0  0  0  0  0  0
   36.3210   29.1280   31.2630 C   0  0  0  0  0  0  0  0  0  0  0  0
   36.8630   28.9990   30.0110 C   0  0  0  0  0  0  0  0  0  0  0  0
   36.9070   27.9850   29.6100 H   0  0  0  0  0  0  0  0  0  0  0  0
   37.3380   30.0520   29.2650 C   0  0  0  0  0  0  0  0  0  0  0  0
   37.7520   29.8710   28.2840 H   0  0  0  0  0  0  0  0  0  0  0  0
   37.2650   31.3140   29.8120 C   0  0  0  0  0  0  0  0  0  0  0  0
   37.6240   32.1830   29.2700 H   0  0  0  0  0  0  0  0  0  0  0  0
   36.7320   31.5440   31.0740 C   0  0  0  0  0  0  0  0  0  0  0  0
   36.6270   33.1320   31.7900 Cl  0  0  0  0  0  0  0  0  0  0  0  0
  1 20  1  0  0  0  0
  1  7  1  0  0  0  0
  2  1  1  0  0  0  0
  3  1  1  0  0  0  0
  4  5  1  0  0  0  0
  4 13  1  0  0  0  0
  5  9  1  0  0  0  0
  6  5  2  0  0  0  0
  7  8  1  0  0  0  0
  7  6  1  0  0  0  0
  8  4  2  0  0  0  0
 10  6  1  0  0  0  0
 11 17  1  0  0  0  0
 12 18  1  0  0  0  0
 12 11  2  0  0  0  0
 13 12  1  0  0  0  0
 14 13  2  0  0  0  0
 14 15  1  0  0  0  0
 15 16  2  0  0  0  0
 16 11  1  0  0  0  0
 19 15  1  0  0  0  0
 20 22  1  0  0  0  0
 21 20  1  0  0  0  0
 24 23  1  0  0  0  0
 25 24  1  0  0  0  0
 25 20  1  0  0  0  0
 26 25  2  0  0  0  0
 27 26  1  0  0  0  0
 28 30  2  0  0  0  0
 28 26  1  0  0  0  0
 29 28  1  0  0  0  0
 30 32  1  0  0  0  0
 31 30  1  0  0  0  0
 32 24  2  0  0  0  0
 32 33  1  0  0  0  0
M  END
>  <minimizedAffinity>
-5.10423279

$$$$

 OpenBabel03272508353D

 33 35  0  0  0  0  0  0  0  0999 V2000
   36.1060   29.1780   32.7000 C   0  0  0  0  0  0  0  0  0  0  0  0
   36.6980   30.0720   32.9210 H   0  0  0  0  0  0  0  0  0  0  0  0
   35.9090   29.1700   31.6080 H   0  0  0  0  0  0  0  0  0  0  0  0
   37.6500   26.1640   33.9250 C   0  0  0  0  0  0  0  0  0  0  0  0
   38.1160   26.1820   32.6370 C   0  0  0  0  0  0  0  0  0  0  0  0
   37.6150   27.3000   31.9920 C   0  0  0  0  0  0  0  0  0  0  0  0
   36.8460   27.9290   32.9420 N   0  0  0  0  0  0  0  0  0  0  0  0
   36.8680   27.2480   34.0940 N   0  0  0  0  0  0  0  0  0  0  0  0
   38.7750   25.4730   32.1230 H   0  0  0  0  0  0  0  0  0  0  0  0
   37.7740   27.6320   30.9750 H   0  0  0  0  0  0  0  0  0  0  0  0
   38.8200   22.9380   35.4670 C   0  0  0  0  0  0  0  0  0  0  0  0
   38.5240   23.8730   34.4870 C   0  0  0  0  0  0  0  0  0  0  0  0
   37.9960   25.1100   34.8680 C   0  0  0  0  0  0  0  0  0  0  0  0
   37.8010   25.3240   36.2000 N   0  0  0  0  0  0  0  0  0  0  0  0
   38.1040   24.3810   37.1250 C   0  0  0  0  0  0  0  0  0  0  0  0
   38.6080   23.2000   36.7610 N   0  0  0  0  0  0  0  0  0  0  0  0
   39.2210   22.0320   35.0040 H   0  0  0  0  0  0  0  0  0  0  0  0
   38.6520   23.7720   33.4210 H   0  0  0  0  0  0  0  0  0  0  0  0
   37.9390   24.5780   38.1820 H   0  0  0  0  0  0  0  0  0  0  0  0
   34.8070   29.1140   33.4930 C   0  0  0  0  0  0  0  0  0  0  0  0
   34.0110   29.4690   32.7800 H   0  0  0  0  0  0  0  0  0  0  0  0
   34.5340   28.1000   33.7720 H   0  0  0  0  0  0  0  0  0  0  0  0
   32.1540   29.4810   34.7190 Cl  0  0  0  0  0  0  0  0  0  0  0  0
   33.5870   30.3570   35.2520 C   0  0  0  0  0  0  0  0  0  0  0  0
   34.7980   30.1020   34.5950 C   0  0  0  0  0  0  0  0  0  0  0  0
   35.8690   30.8170   35.0600 C   0  0  0  0  0  0  0  0  0  0  0  0
   36.8220   30.6310   34.5620 H   0  0  0  0  0  0  0  0  0  0  0  0
   35.8010   31.7250   36.0910 C   0  0  0  0  0  0  0  0  0  0  0  0
   36.6920   32.2520   36.4020 H   0  0  0  0  0  0  0  0  0  0  0  0
   34.5780   31.9260   36.6930 C   0  0  0  0  0  0  0  0  0  0  0  0
   34.4640   32.6310   37.5100 H   0  0  0  0  0  0  0  0  0  0  0  0
   33.4350   31.2480   36.2900 C   0  0  0  0  0  0  0  0  0  0  0  0
   31.8740   31.4850   37.0340 Cl  0  0  0  0  0  0  0  0  0  0  0  0
  1  2  1  0  0  0  0
  1  7  1  0  0  0  0
  1 20  1  0  0  0  0
  3  1  1  0  0  0  0
  4  8  2  0  0  0  0
  4 13  1  0  0  0  0
  5  4  1  0  0  0  0
  6  5  2  0  0  0  0
  6  7  1  0  0  0  0
  7  8  1  0  0  0  0
  9  5  1  0  0  0  0
 10  6  1  0  0  0  0
 11 16  1  0  0  0  0
 12 13  1  0  0  0  0
 12 11  2  0  0  0  0
 13 14  2  0  0  0  0
 14 15  1  0  0  0  0
 15 19  1  0  0  0  0
 16 15  2  0  0  0  0
 17 11  1  0  0  0  0
 18 12  1  0  0  0  0
 20 22  1  0  0  0  0
 20 25  1  0  0  0  0
 21 20  1  0  0  0  0
 23 24  1  0  0  0  0
 24 32  1  0  0  0  0
 25 26  1  0  0  0  0
 25 24  2  0  0  0  0
 26 28  2  0  0  0  0
 27 26  1  0  0  0  0
 28 29  1  0  0  0  0
 28 30  1  0  0  0  0
 30 31  1  0  0  0  0
 32 30  2  0  0  0  0
 32 33  1  0  0  0  0
M  END
>  <minimizedAffinity>
-5.08959579

$$$$

 OpenBabel03272508353D

 33 35  0  0  0  0  0  0  0  0999 V2000
   35.9620   28.3310   33.1540 C   0  0  0  0  0  0  0  0  0  0  0  0
   36.0250   28.5310   32.0790 H   0  0  0  0  0  0  0  0  0  0  0  0
   35.0190   27.7750   33.3340 H   0  0  0  0  0  0  0  0  0  0  0  0
   38.0850   25.9370   34.8060 C   0  0  0  0  0  0  0  0  0  0  0  0
   38.9000   26.3320   33.7780 C   0  0  0  0  0  0  0  0  0  0  0  0
   38.2360   27.2770   33.0140 C   0  0  0  0  0  0  0  0  0  0  0  0
   37.0150   27.4180   33.6280 N   0  0  0  0  0  0  0  0  0  0  0  0
   36.9280   26.6170   34.6970 N   0  0  0  0  0  0  0  0  0  0  0  0
   39.9170   26.0060   33.5280 H   0  0  0  0  0  0  0  0  0  0  0  0
   38.5730   27.8030   32.1300 H   0  0  0  0  0  0  0  0  0  0  0  0
   38.3550   23.8280   37.9100 C   0  0  0  0  0  0  0  0  0  0  0  0
   37.8890   24.8060   37.0450 C   0  0  0  0  0  0  0  0  0  0  0  0
   38.4930   24.9470   35.7910 C   0  0  0  0  0  0  0  0  0  0  0  0
   39.5200   24.1010   35.4940 N   0  0  0  0  0  0  0  0  0  0  0  0
   39.9440   23.1580   36.3710 C   0  0  0  0  0  0  0  0  0  0  0  0
   39.3660   23.0250   37.5660 N   0  0  0  0  0  0  0  0  0  0  0  0
   37.7780   23.8520   38.8390 H   0  0  0  0  0  0  0  0  0  0  0  0
   37.0860   25.5060   37.2130 H   0  0  0  0  0  0  0  0  0  0  0  0
   40.7650   22.4960   36.1070 H   0  0  0  0  0  0  0  0  0  0  0  0
   36.0250   29.5970   33.9980 C   0  0  0  0  0  0  0  0  0  0  0  0
   36.6720   29.3280   34.8790 H   0  0  0  0  0  0  0  0  0  0  0  0
   36.5280   30.4160   33.4920 H   0  0  0  0  0  0  0  0  0  0  0  0
   36.1330   31.7390   36.0180 Cl  0  0  0  0  0  0  0  0  0  0  0  0
   34.6370   30.9300   35.5550 C   0  0  0  0  0  0  0  0  0  0  0  0
   34.7050   29.9250   34.5820 C   0  0  0  0  0  0  0  0  0  0  0  0
   33.5070   29.3390   34.2710 C   0  0  0  0  0  0  0  0  0  0  0  0
   33.5390   28.5540   33.5140 H   0  0  0  0  0  0  0  0  0  0  0  0
   32.3070   29.6850   34.8480 C   0  0  0  0  0  0  0  0  0  0  0  0
   31.4020   29.1770   34.5510 H   0  0  0  0  0  0  0  0  0  0  0  0
   32.3130   30.6830   35.7980 C   0  0  0  0  0  0  0  0  0  0  0  0
   31.3970   30.9980   36.2880 H   0  0  0  0  0  0  0  0  0  0  0  0
   33.4790   31.3350   36.1790 C   0  0  0  0  0  0  0  0  0  0  0  0
   33.5140   32.6010   37.3800 Cl  0  0  0  0  0  0  0  0  0  0  0  0
  1  3  1  0  0  0  0
  1  7  1  0  0  0  0
  1 20  1  0  0  0  0
  2  1  1  0  0  0  0
  4 13  1  0  0  0  0
  5  4  1  0  0  0  0
  6  7  1  0  0  0  0
  6  5  2  0  0  0  0
  7  8  1  0  0  0  0
  8  4  2  0  0  0  0
  9  5  1  0  0  0  0
 10  6  1  0  0  0  0
 11 17  1  0  0  0  0
 12 18  1  0  0  0  0
 12 11  2  0  0  0  0
 13 12  1  0  0  0  0
 14 13  2  0  0  0  0
 14 15  1  0  0  0  0
 15 16  2  0  0  0  0
 16 11  1  0  0  0  0
 19 15  1  0  0  0  0
 20 25  1  0  0  0  0
 20 21  1  0  0  0  0
 22 20  1  0  0  0  0
 24 23  1  0  0  0  0
 24 32  1  0  0  0  0
 25 24  2  0  0  0  0
 26 25  1  0  0  0  0
 26 28  2  0  0  0  0
 27 26  1  0  0  0  0
 28 30  1  0  0  0  0
 29 28  1  0  0  0  0
 30 32  2  0  0  0  0
 30 31  1  0  0  0  0
 32 33  1  0  0  0  0
M  END
>  <minimizedAffinity>
-5.04768658

$$$$
