
 OpenBabel03272507493D

 48 52  0  0  0  0  0  0  0  0999 V2000
   37.1910   27.6160   31.7240 N   0  0  0  0  0  0  0  0  0  0  0  0
   36.6740   26.3310   31.4020 C   0  0  0  0  0  0  0  0  0  0  0  0
   36.8780   25.2550   32.3990 C   0  0  0  0  0  0  0  0  0  0  0  0
   38.1620   25.2420   33.0990 C   0  0  0  0  0  0  0  0  0  0  0  0
   38.7120   26.6580   33.3480 C   0  0  0  0  0  0  0  0  0  0  0  0
   38.5960   27.4330   32.0300 C   0  0  0  0  0  0  0  0  0  0  0  0
   35.5900   26.4420   31.1990 H   0  0  0  0  0  0  0  0  0  0  0  0
   37.1180   26.0030   30.4260 H   0  0  0  0  0  0  0  0  0  0  0  0
   36.0890   25.5170   33.1800 H   0  0  0  0  0  0  0  0  0  0  0  0
   36.6690   24.2740   31.9380 H   0  0  0  0  0  0  0  0  0  0  0  0
   38.9660   24.7440   32.5130 H   0  0  0  0  0  0  0  0  0  0  0  0
   39.7670   26.5340   33.6150 H   0  0  0  0  0  0  0  0  0  0  0  0
   38.0960   27.1200   34.1250 H   0  0  0  0  0  0  0  0  0  0  0  0
   39.1590   26.9010   31.2490 H   0  0  0  0  0  0  0  0  0  0  0  0
   39.1020   28.4160   32.1670 H   0  0  0  0  0  0  0  0  0  0  0  0
   38.1380   23.2140   34.4760 C   0  0  0  0  0  0  0  0  0  0  0  0
   38.1390   24.6000   34.4370 C   0  0  0  0  0  0  0  0  0  0  0  0
   38.0920   25.3960   35.5490 C   0  0  0  0  0  0  0  0  0  0  0  0
   38.0390   24.7700   36.7930 C   0  0  0  0  0  0  0  0  0  0  0  0
   38.0370   23.3990   36.8370 C   0  0  0  0  0  0  0  0  0  0  0  0
   38.0860   22.5840   35.7090 C   0  0  0  0  0  0  0  0  0  0  0  0
   37.9790   22.9560   38.1700 O   0  0  0  0  0  0  0  0  0  0  0  0
   38.2840   24.1130   38.9430 C   0  0  0  0  0  0  0  0  0  0  0  0
   37.9840   25.2080   38.1170 O   0  0  0  0  0  0  0  0  0  0  0  0
   38.1840   22.4900   33.6760 H   0  0  0  0  0  0  0  0  0  0  0  0
   38.0950   26.4540   35.4830 H   0  0  0  0  0  0  0  0  0  0  0  0
   38.0800   21.4990   35.8190 H   0  0  0  0  0  0  0  0  0  0  0  0
   39.3240   24.1420   39.2790 H   0  0  0  0  0  0  0  0  0  0  0  0
   37.5420   24.1040   39.7840 H   0  0  0  0  0  0  0  0  0  0  0  0
   36.5170   28.8690   31.7550 C   0  0  0  0  0  0  0  0  0  0  0  0
   36.2530   29.6950   30.6660 C   0  0  0  0  0  0  0  0  0  0  0  0
   35.5740   30.8790   30.9110 C   0  0  0  0  0  0  0  0  0  0  0  0
   35.2040   31.1720   32.1850 N   0  0  0  0  0  0  0  0  0  0  0  0
   35.4690   30.3570   33.2200 C   0  0  0  0  0  0  0  0  0  0  0  0
   36.1210   29.2150   33.0010 N   0  0  0  0  0  0  0  0  0  0  0  0
   36.6040   29.3390   29.7210 H   0  0  0  0  0  0  0  0  0  0  0  0
   35.3760   31.5130   30.0560 H   0  0  0  0  0  0  0  0  0  0  0  0
   32.6700   29.5370   34.1690 Cl  0  0  0  0  0  0  0  0  0  0  0  0
   33.7590   30.5580   35.0540 C   0  0  0  0  0  0  0  0  0  0  0  0
   34.9890   30.8460   34.5080 C   0  0  0  0  0  0  0  0  0  0  0  0
   35.7810   31.6670   35.2810 C   0  0  0  0  0  0  0  0  0  0  0  0
   36.7790   31.9770   34.9700 H   0  0  0  0  0  0  0  0  0  0  0  0
   35.3600   32.1570   36.5140 C   0  0  0  0  0  0  0  0  0  0  0  0
   36.0090   32.8050   37.1030 H   0  0  0  0  0  0  0  0  0  0  0  0
   34.1180   31.8390   37.0190 C   0  0  0  0  0  0  0  0  0  0  0  0
   33.8380   32.2420   37.9740 H   0  0  0  0  0  0  0  0  0  0  0  0
   33.3010   31.0190   36.2680 C   0  0  0  0  0  0  0  0  0  0  0  0
   31.7180   30.6000   36.8870 Cl  0  0  0  0  0  0  0  0  0  0  0  0
  1 30  1  0  0  0  0
  1  6  1  0  0  0  0
  2  1  1  0  0  0  0
  2  3  1  0  0  0  0
  3  4  1  0  0  0  0
  3  9  1  0  0  0  0
  4  5  1  0  0  0  0
  4 17  1  0  0  0  0
  5 12  1  0  0  0  0
  5 13  1  0  0  0  0
  6 15  1  0  0  0  0
  6  5  1  0  0  0  0
  7  2  1  0  0  0  0
  8  2  1  0  0  0  0
 10  3  1  0  0  0  0
 11  4  1  0  0  0  0
 14  6  1  0  0  0  0
 16 21  1  0  0  0  0
 17 16  2  0  0  0  0
 17 18  1  0  0  0  0
 18 19  2  0  0  0  0
 19 20  1  0  0  0  0
 19 24  1  0  0  0  0
 20 22  1  0  0  0  0
 21 27  1  0  0  0  0
 21 20  2  0  0  0  0
 22 23  1  0  0  0  0
 23 28  1  0  0  0  0
 23 29  1  0  0  0  0
 24 23  1  0  0  0  0
 25 16  1  0  0  0  0
 26 18  1  0  0  0  0
 30 35  1  0  0  0  0
 31 32  1  0  0  0  0
 31 30  2  0  0  0  0
 32 33  2  0  0  0  0
 33 34  1  0  0  0  0
 34 40  1  0  0  0  0
 35 34  2  0  0  0  0
 36 31  1  0  0  0  0
 37 32  1  0  0  0  0
 38 39  1  0  0  0  0
 39 47  1  0  0  0  0
 40 39  2  0  0  0  0
 40 41  1  0  0  0  0
 41 43  2  0  0  0  0
 42 41  1  0  0  0  0
 43 45  1  0  0  0  0
 43 44  1  0  0  0  0
 45 46  1  0  0  0  0
 47 48  1  0  0  0  0
 47 45  2  0  0  0  0
M  END
>  <minimizedAffinity>
-7.04848242

$$$$

 OpenBabel03272507493D

 48 52  0  0  0  0  0  0  0  0999 V2000
   37.1860   27.4700   31.3890 N   0  0  0  0  0  0  0  0  0  0  0  0
   36.7950   26.1160   31.2000 C   0  0  0  0  0  0  0  0  0  0  0  0
   37.2670   25.1340   32.2040 C   0  0  0  0  0  0  0  0  0  0  0  0
   38.6260   25.3160   32.7120 C   0  0  0  0  0  0  0  0  0  0  0  0
   39.0230   26.7990   32.8180 C   0  0  0  0  0  0  0  0  0  0  0  0
   38.6310   27.4740   31.4990 C   0  0  0  0  0  0  0  0  0  0  0  0
   35.6880   26.0860   31.1500 H   0  0  0  0  0  0  0  0  0  0  0  0
   37.1390   25.7840   30.1870 H   0  0  0  0  0  0  0  0  0  0  0  0
   36.5660   25.3480   33.0780 H   0  0  0  0  0  0  0  0  0  0  0  0
   37.1220   24.1090   31.8210 H   0  0  0  0  0  0  0  0  0  0  0  0
   39.3990   24.8810   32.0400 H   0  0  0  0  0  0  0  0  0  0  0  0
   40.1120   26.8180   32.9370 H   0  0  0  0  0  0  0  0  0  0  0  0
   38.4660   27.2320   33.6550 H   0  0  0  0  0  0  0  0  0  0  0  0
   39.1450   26.9660   30.6680 H   0  0  0  0  0  0  0  0  0  0  0  0
   39.0240   28.5160   31.5190 H   0  0  0  0  0  0  0  0  0  0  0  0
   40.0930   24.1510   34.2950 C   0  0  0  0  0  0  0  0  0  0  0  0
   38.8670   24.7580   34.0670 C   0  0  0  0  0  0  0  0  0  0  0  0
   37.8710   24.8440   35.0020 C   0  0  0  0  0  0  0  0  0  0  0  0
   38.1090   24.2850   36.2560 C   0  0  0  0  0  0  0  0  0  0  0  0
   39.3200   23.6820   36.4860 C   0  0  0  0  0  0  0  0  0  0  0  0
   40.3370   23.5930   35.5390 C   0  0  0  0  0  0  0  0  0  0  0  0
   39.3710   23.1810   37.7980 O   0  0  0  0  0  0  0  0  0  0  0  0
   38.2710   23.7990   38.4580 C   0  0  0  0  0  0  0  0  0  0  0  0
   37.3780   24.1670   37.4400 O   0  0  0  0  0  0  0  0  0  0  0  0
   40.9480   24.0350   33.6470 H   0  0  0  0  0  0  0  0  0  0  0  0
   36.9450   25.3160   34.7940 H   0  0  0  0  0  0  0  0  0  0  0  0
   41.2760   23.0990   35.7920 H   0  0  0  0  0  0  0  0  0  0  0  0
   38.5620   24.6620   39.0620 H   0  0  0  0  0  0  0  0  0  0  0  0
   37.7910   22.9770   39.0530 H   0  0  0  0  0  0  0  0  0  0  0  0
   36.3700   28.6340   31.4620 C   0  0  0  0  0  0  0  0  0  0  0  0
   36.5220   29.8000   30.7180 C   0  0  0  0  0  0  0  0  0  0  0  0
   35.6120   30.8230   30.9370 C   0  0  0  0  0  0  0  0  0  0  0  0
   34.6280   30.6400   31.8560 N   0  0  0  0  0  0  0  0  0  0  0  0
   34.5010   29.5040   32.5620 C   0  0  0  0  0  0  0  0  0  0  0  0
   35.3680   28.5110   32.3630 N   0  0  0  0  0  0  0  0  0  0  0  0
   37.3420   29.8060   30.0310 H   0  0  0  0  0  0  0  0  0  0  0  0
   35.7420   31.7250   30.3520 H   0  0  0  0  0  0  0  0  0  0  0  0
   34.8880   30.7450   35.3400 Cl  0  0  0  0  0  0  0  0  0  0  0  0
   33.4160   30.0220   34.7710 C   0  0  0  0  0  0  0  0  0  0  0  0
   33.3820   29.5000   33.4980 C   0  0  0  0  0  0  0  0  0  0  0  0
   32.1730   28.9450   33.1380 C   0  0  0  0  0  0  0  0  0  0  0  0
   32.0070   28.4950   32.1590 H   0  0  0  0  0  0  0  0  0  0  0  0
   31.0820   28.9200   34.0020 C   0  0  0  0  0  0  0  0  0  0  0  0
   30.1390   28.4730   33.6890 H   0  0  0  0  0  0  0  0  0  0  0  0
   31.1660   29.4560   35.2690 C   0  0  0  0  0  0  0  0  0  0  0  0
   30.2980   29.4120   35.8980 H   0  0  0  0  0  0  0  0  0  0  0  0
   32.3630   30.0200   35.6590 C   0  0  0  0  0  0  0  0  0  0  0  0
   32.4960   30.7070   37.2630 Cl  0  0  0  0  0  0  0  0  0  0  0  0
  1 30  1  0  0  0  0
  1  6  1  0  0  0  0
  2  1  1  0  0  0  0
  2  3  1  0  0  0  0
  3  4  1  0  0  0  0
  3  9  1  0  0  0  0
  4  5  1  0  0  0  0
  4 17  1  0  0  0  0
  5 12  1  0  0  0  0
  5 13  1  0  0  0  0
  6 15  1  0  0  0  0
  6  5  1  0  0  0  0
  7  2  1  0  0  0  0
  8  2  1  0  0  0  0
 10  3  1  0  0  0  0
 11  4  1  0  0  0  0
 14  6  1  0  0  0  0
 16 21  1  0  0  0  0
 17 16  2  0  0  0  0
 17 18  1  0  0  0  0
 18 19  2  0  0  0  0
 19 20  1  0  0  0  0
 19 24  1  0  0  0  0
 20 22  1  0  0  0  0
 21 27  1  0  0  0  0
 21 20  2  0  0  0  0
 22 23  1  0  0  0  0
 23 29  1  0  0  0  0
 23 28  1  0  0  0  0
 24 23  1  0  0  0  0
 25 16  1  0  0  0  0
 26 18  1  0  0  0  0
 30 35  1  0  0  0  0
 31 32  1  0  0  0  0
 31 30  2  0  0  0  0
 32 33  2  0  0  0  0
 33 34  1  0  0  0  0
 34 40  1  0  0  0  0
 35 34  2  0  0  0  0
 36 31  1  0  0  0  0
 37 32  1  0  0  0  0
 39 38  1  0  0  0  0
 39 47  1  0  0  0  0
 40 39  2  0  0  0  0
 41 40  1  0  0  0  0
 41 43  2  0  0  0  0
 42 41  1  0  0  0  0
 43 45  1  0  0  0  0
 44 43  1  0  0  0  0
 45 47  2  0  0  0  0
 45 46  1  0  0  0  0
 47 48  1  0  0  0  0
M  END
>  <minimizedAffinity>
-6.67981863

$$$$

 OpenBabel03272507493D

 48 52  0  0  0  0  0  0  0  0999 V2000
   37.5460   27.5480   32.0820 N   0  0  0  0  0  0  0  0  0  0  0  0
   38.1980   26.8430   31.0330 C   0  0  0  0  0  0  0  0  0  0  0  0
   37.9280   25.3900   30.9320 C   0  0  0  0  0  0  0  0  0  0  0  0
   37.8150   24.6530   32.1900 C   0  0  0  0  0  0  0  0  0  0  0  0
   37.1770   25.4940   33.3100 C   0  0  0  0  0  0  0  0  0  0  0  0
   37.8740   26.8590   33.3130 C   0  0  0  0  0  0  0  0  0  0  0  0
   37.9300   27.3330   30.0760 H   0  0  0  0  0  0  0  0  0  0  0  0
   39.3030   26.9950   31.1360 H   0  0  0  0  0  0  0  0  0  0  0  0
   36.8890   25.3840   30.4620 H   0  0  0  0  0  0  0  0  0  0  0  0
   38.6680   24.9180   30.2630 H   0  0  0  0  0  0  0  0  0  0  0  0
   38.8030   24.3600   32.6080 H   0  0  0  0  0  0  0  0  0  0  0  0
   37.3870   24.9660   34.2470 H   0  0  0  0  0  0  0  0  0  0  0  0
   36.1130   25.6030   33.0770 H   0  0  0  0  0  0  0  0  0  0  0  0
   38.9540   26.7110   33.4700 H   0  0  0  0  0  0  0  0  0  0  0  0
   37.5050   27.4290   34.1970 H   0  0  0  0  0  0  0  0  0  0  0  0
   36.1260   23.2930   31.0440 C   0  0  0  0  0  0  0  0  0  0  0  0
   36.9910   23.4200   32.1210 C   0  0  0  0  0  0  0  0  0  0  0  0
   37.1040   22.4950   33.1230 C   0  0  0  0  0  0  0  0  0  0  0  0
   36.2980   21.3610   33.0520 C   0  0  0  0  0  0  0  0  0  0  0  0
   35.4400   21.2310   31.9900 C   0  0  0  0  0  0  0  0  0  0  0  0
   35.3220   22.1680   30.9670 C   0  0  0  0  0  0  0  0  0  0  0  0
   34.7150   20.0310   32.0950 O   0  0  0  0  0  0  0  0  0  0  0  0
   35.4100   19.2810   33.0860 C   0  0  0  0  0  0  0  0  0  0  0  0
   36.1190   20.2250   33.8450 O   0  0  0  0  0  0  0  0  0  0  0  0
   35.9610   23.9430   30.1980 H   0  0  0  0  0  0  0  0  0  0  0  0
   37.7770   22.6230   33.9320 H   0  0  0  0  0  0  0  0  0  0  0  0
   34.6160   22.0000   30.1520 H   0  0  0  0  0  0  0  0  0  0  0  0
   36.0800   18.5280   32.6630 H   0  0  0  0  0  0  0  0  0  0  0  0
   34.6070   18.8500   33.7400 H   0  0  0  0  0  0  0  0  0  0  0  0
   36.7240   28.7080   32.0030 C   0  0  0  0  0  0  0  0  0  0  0  0
   36.3480   29.3800   30.8430 C   0  0  0  0  0  0  0  0  0  0  0  0
   35.5330   30.4930   30.9840 C   0  0  0  0  0  0  0  0  0  0  0  0
   35.1450   30.8680   32.2310 N   0  0  0  0  0  0  0  0  0  0  0  0
   35.5200   30.2020   33.3360 C   0  0  0  0  0  0  0  0  0  0  0  0
   36.3040   29.1310   33.2170 N   0  0  0  0  0  0  0  0  0  0  0  0
   36.7280   28.9730   29.9300 H   0  0  0  0  0  0  0  0  0  0  0  0
   35.2480   31.0070   30.0740 H   0  0  0  0  0  0  0  0  0  0  0  0
   32.7080   29.4010   34.2600 Cl  0  0  0  0  0  0  0  0  0  0  0  0
   33.7600   30.4880   35.1090 C   0  0  0  0  0  0  0  0  0  0  0  0
   35.0000   30.7610   34.5780 C   0  0  0  0  0  0  0  0  0  0  0  0
   35.7610   31.6380   35.3220 C   0  0  0  0  0  0  0  0  0  0  0  0
   36.7630   31.9420   35.0180 H   0  0  0  0  0  0  0  0  0  0  0  0
   35.3010   32.1950   36.5110 C   0  0  0  0  0  0  0  0  0  0  0  0
   35.9260   32.8850   37.0770 H   0  0  0  0  0  0  0  0  0  0  0  0
   34.0500   31.8890   37.0020 C   0  0  0  0  0  0  0  0  0  0  0  0
   33.7400   32.3450   37.9240 H   0  0  0  0  0  0  0  0  0  0  0  0
   33.2640   31.0150   36.2820 C   0  0  0  0  0  0  0  0  0  0  0  0
   31.6710   30.6110   36.8830 Cl  0  0  0  0  0  0  0  0  0  0  0  0
  1  6  1  0  0  0  0
  2  8  1  0  0  0  0
  2  1  1  0  0  0  0
  3  2  1  0  0  0  0
  3  4  1  0  0  0  0
  4 11  1  0  0  0  0
  4  5  1  0  0  0  0
  5  6  1  0  0  0  0
  5 12  1  0  0  0  0
  6 14  1  0  0  0  0
  6 15  1  0  0  0  0
  7  2  1  0  0  0  0
  9  3  1  0  0  0  0
 10  3  1  0  0  0  0
 13  5  1  0  0  0  0
 16 17  1  0  0  0  0
 17  4  1  0  0  0  0
 17 18  2  0  0  0  0
 18 26  1  0  0  0  0
 19 18  1  0  0  0  0
 19 24  1  0  0  0  0
 20 22  1  0  0  0  0
 20 19  2  0  0  0  0
 21 16  2  0  0  0  0
 21 20  1  0  0  0  0
 22 23  1  0  0  0  0
 23 29  1  0  0  0  0
 23 24  1  0  0  0  0
 25 16  1  0  0  0  0
 27 21  1  0  0  0  0
 28 23  1  0  0  0  0
 30  1  1  0  0  0  0
 30 35  1  0  0  0  0
 31 32  1  0  0  0  0
 31 30  2  0  0  0  0
 32 33  2  0  0  0  0
 33 34  1  0  0  0  0
 34 40  1  0  0  0  0
 35 34  2  0  0  0  0
 36 31  1  0  0  0  0
 37 32  1  0  0  0  0
 38 39  1  0  0  0  0
 39 47  1  0  0  0  0
 40 39  2  0  0  0  0
 40 41  1  0  0  0  0
 41 43  2  0  0  0  0
 42 41  1  0  0  0  0
 43 45  1  0  0  0  0
 43 44  1  0  0  0  0
 45 46  1  0  0  0  0
 47 48  1  0  0  0  0
 47 45  2  0  0  0  0
M  END
>  <minimizedAffinity>
-6.678967

$$$$

 OpenBabel03272507493D

 48 52  0  0  0  0  0  0  0  0999 V2000
   37.0980   25.1820   31.5390 N   0  0  0  0  0  0  0  0  0  0  0  0
   38.1650   26.0920   31.3010 C   0  0  0  0  0  0  0  0  0  0  0  0
   37.9490   27.5000   31.7030 C   0  0  0  0  0  0  0  0  0  0  0  0
   36.6120   28.0500   31.4820 C   0  0  0  0  0  0  0  0  0  0  0  0
   35.5030   27.0000   31.6740 C   0  0  0  0  0  0  0  0  0  0  0  0
   35.9240   25.7440   30.9030 C   0  0  0  0  0  0  0  0  0  0  0  0
   39.0670   25.6980   31.8110 H   0  0  0  0  0  0  0  0  0  0  0  0
   38.4160   26.0670   30.2090 H   0  0  0  0  0  0  0  0  0  0  0  0
   38.0860   27.4370   32.8340 H   0  0  0  0  0  0  0  0  0  0  0  0
   38.7210   28.1430   31.2460 H   0  0  0  0  0  0  0  0  0  0  0  0
   36.4610   28.4080   30.4390 H   0  0  0  0  0  0  0  0  0  0  0  0
   34.5970   27.4250   31.2280 H   0  0  0  0  0  0  0  0  0  0  0  0
   35.4280   26.7900   32.7450 H   0  0  0  0  0  0  0  0  0  0  0  0
   36.0690   26.0040   29.8430 H   0  0  0  0  0  0  0  0  0  0  0  0
   35.0740   25.0240   30.9340 H   0  0  0  0  0  0  0  0  0  0  0  0
   35.9220   28.8510   33.6940 C   0  0  0  0  0  0  0  0  0  0  0  0
   36.2380   29.1700   32.3820 C   0  0  0  0  0  0  0  0  0  0  0  0
   36.1980   30.4390   31.8730 C   0  0  0  0  0  0  0  0  0  0  0  0
   35.8140   31.4690   32.7300 C   0  0  0  0  0  0  0  0  0  0  0  0
   35.4990   31.1600   34.0280 C   0  0  0  0  0  0  0  0  0  0  0  0
   35.5400   29.8690   34.5520 C   0  0  0  0  0  0  0  0  0  0  0  0
   35.1370   32.3210   34.7310 O   0  0  0  0  0  0  0  0  0  0  0  0
   35.5690   33.3910   33.8960 C   0  0  0  0  0  0  0  0  0  0  0  0
   35.6530   32.8500   32.6030 O   0  0  0  0  0  0  0  0  0  0  0  0
   35.9290   27.9000   34.2050 H   0  0  0  0  0  0  0  0  0  0  0  0
   36.4480   30.6480   30.8640 H   0  0  0  0  0  0  0  0  0  0  0  0
   35.2750   29.6960   35.5960 H   0  0  0  0  0  0  0  0  0  0  0  0
   36.5240   33.8210   34.2090 H   0  0  0  0  0  0  0  0  0  0  0  0
   34.7220   34.1270   33.9050 H   0  0  0  0  0  0  0  0  0  0  0  0
   37.1170   23.9490   32.2490 C   0  0  0  0  0  0  0  0  0  0  0  0
   36.5220   22.7540   31.8520 C   0  0  0  0  0  0  0  0  0  0  0  0
   36.6620   21.6600   32.6910 C   0  0  0  0  0  0  0  0  0  0  0  0
   37.3650   21.8030   33.8460 N   0  0  0  0  0  0  0  0  0  0  0  0
   37.9310   22.9670   34.2070 C   0  0  0  0  0  0  0  0  0  0  0  0
   37.8050   24.0290   33.4110 N   0  0  0  0  0  0  0  0  0  0  0  0
   36.0000   22.7870   30.9200 H   0  0  0  0  0  0  0  0  0  0  0  0
   36.1950   20.7370   32.3710 H   0  0  0  0  0  0  0  0  0  0  0  0
   40.7640   21.7950   34.2790 Cl  0  0  0  0  0  0  0  0  0  0  0  0
   39.9130   22.4210   35.6560 C   0  0  0  0  0  0  0  0  0  0  0  0
   38.6420   22.9190   35.4800 C   0  0  0  0  0  0  0  0  0  0  0  0
   38.0470   23.3890   36.6300 C   0  0  0  0  0  0  0  0  0  0  0  0
   37.0400   23.8100   36.6360 H   0  0  0  0  0  0  0  0  0  0  0  0
   38.6900   23.3590   37.8640 C   0  0  0  0  0  0  0  0  0  0  0  0
   38.1930   23.7380   38.7560 H   0  0  0  0  0  0  0  0  0  0  0  0
   39.9650   22.8510   37.9890 C   0  0  0  0  0  0  0  0  0  0  0  0
   40.4180   22.8490   38.9620 H   0  0  0  0  0  0  0  0  0  0  0  0
   40.5880   22.3720   36.8560 C   0  0  0  0  0  0  0  0  0  0  0  0
   42.2070   21.7210   36.9870 Cl  0  0  0  0  0  0  0  0  0  0  0  0
  1 30  1  0  0  0  0
  2  1  1  0  0  0  0
  2  3  1  0  0  0  0
  2  7  1  0  0  0  0
  3  9  1  0  0  0  0
  4  5  1  0  0  0  0
  4  3  1  0  0  0  0
  4 17  1  0  0  0  0
  5 13  1  0  0  0  0
  6 15  1  0  0  0  0
  6  1  1  0  0  0  0
  6  5  1  0  0  0  0
  8  2  1  0  0  0  0
 10  3  1  0  0  0  0
 11  4  1  0  0  0  0
 12  5  1  0  0  0  0
 14  6  1  0  0  0  0
 16 25  1  0  0  0  0
 16 21  1  0  0  0  0
 17 16  2  0  0  0  0
 18 17  1  0  0  0  0
 18 19  2  0  0  0  0
 19 20  1  0  0  0  0
 20 21  2  0  0  0  0
 20 22  1  0  0  0  0
 21 27  1  0  0  0  0
 23 29  1  0  0  0  0
 23 28  1  0  0  0  0
 23 22  1  0  0  0  0
 24 19  1  0  0  0  0
 24 23  1  0  0  0  0
 26 18  1  0  0  0  0
 30 35  1  0  0  0  0
 31 30  2  0  0  0  0
 31 32  1  0  0  0  0
 32 33  2  0  0  0  0
 33 34  1  0  0  0  0
 34 40  1  0  0  0  0
 35 34  2  0  0  0  0
 36 31  1  0  0  0  0
 37 32  1  0  0  0  0
 38 39  1  0  0  0  0
 39 47  1  0  0  0  0
 40 39  2  0  0  0  0
 40 41  1  0  0  0  0
 41 42  1  0  0  0  0
 41 43  2  0  0  0  0
 43 45  1  0  0  0  0
 43 44  1  0  0  0  0
 45 46  1  0  0  0  0
 47 48  1  0  0  0  0
 47 45  2  0  0  0  0
M  END
>  <minimizedAffinity>
-6.60537767

$$$$

 OpenBabel03272507493D

 48 52  0  0  0  0  0  0  0  0999 V2000
   36.7220   28.4880   31.8530 N   0  0  0  0  0  0  0  0  0  0  0  0
   36.7710   29.7490   31.1990 C   0  0  0  0  0  0  0  0  0  0  0  0
   36.3090   30.9250   31.9710 C   0  0  0  0  0  0  0  0  0  0  0  0
   35.1480   30.7280   32.8370 C   0  0  0  0  0  0  0  0  0  0  0  0
   35.1030   29.3190   33.4520 C   0  0  0  0  0  0  0  0  0  0  0  0
   35.3620   28.3160   32.3220 C   0  0  0  0  0  0  0  0  0  0  0  0
   37.8140   29.9170   30.8630 H   0  0  0  0  0  0  0  0  0  0  0  0
   36.1720   29.6840   30.2540 H   0  0  0  0  0  0  0  0  0  0  0  0
   37.1980   31.1070   32.6620 H   0  0  0  0  0  0  0  0  0  0  0  0
   36.1550   31.7820   31.2910 H   0  0  0  0  0  0  0  0  0  0  0  0
   34.1830   30.8090   32.2880 H   0  0  0  0  0  0  0  0  0  0  0  0
   34.0880   29.1860   33.8430 H   0  0  0  0  0  0  0  0  0  0  0  0
   35.8930   29.2620   34.2080 H   0  0  0  0  0  0  0  0  0  0  0  0
   34.5980   28.4510   31.5400 H   0  0  0  0  0  0  0  0  0  0  0  0
   35.2110   27.2920   32.7330 H   0  0  0  0  0  0  0  0  0  0  0  0
   35.5440   31.1930   35.2110 C   0  0  0  0  0  0  0  0  0  0  0  0
   35.0660   31.6540   33.9950 C   0  0  0  0  0  0  0  0  0  0  0  0
   34.5050   32.8890   33.8120 C   0  0  0  0  0  0  0  0  0  0  0  0
   34.4100   33.7280   34.9210 C   0  0  0  0  0  0  0  0  0  0  0  0
   34.8810   33.2760   36.1270 C   0  0  0  0  0  0  0  0  0  0  0  0
   35.4540   32.0210   36.3180 C   0  0  0  0  0  0  0  0  0  0  0  0
   34.6980   34.2560   37.1180 O   0  0  0  0  0  0  0  0  0  0  0  0
   34.4040   35.4450   36.3920 C   0  0  0  0  0  0  0  0  0  0  0  0
   33.9220   35.0170   35.1450 O   0  0  0  0  0  0  0  0  0  0  0  0
   36.0120   30.2550   35.4700 H   0  0  0  0  0  0  0  0  0  0  0  0
   34.1490   33.2110   32.8670 H   0  0  0  0  0  0  0  0  0  0  0  0
   35.8070   31.7270   37.3080 H   0  0  0  0  0  0  0  0  0  0  0  0
   35.2690   36.1040   36.2780 H   0  0  0  0  0  0  0  0  0  0  0  0
   33.5500   35.9200   36.9440 H   0  0  0  0  0  0  0  0  0  0  0  0
   37.7640   27.5370   32.0420 C   0  0  0  0  0  0  0  0  0  0  0  0
   38.9440   27.4440   31.3080 C   0  0  0  0  0  0  0  0  0  0  0  0
   39.8370   26.4430   31.6570 C   0  0  0  0  0  0  0  0  0  0  0  0
   39.5230   25.6120   32.6850 N   0  0  0  0  0  0  0  0  0  0  0  0
   38.3780   25.7230   33.3800 C   0  0  0  0  0  0  0  0  0  0  0  0
   37.5090   26.6800   33.0560 N   0  0  0  0  0  0  0  0  0  0  0  0
   39.0580   28.1640   30.5260 H   0  0  0  0  0  0  0  0  0  0  0  0
   40.7500   26.3810   31.0780 H   0  0  0  0  0  0  0  0  0  0  0  0
   38.3460   26.6840   36.2920 Cl  0  0  0  0  0  0  0  0  0  0  0  0
   38.1940   25.0300   35.7910 C   0  0  0  0  0  0  0  0  0  0  0  0
   38.2250   24.7390   34.4450 C   0  0  0  0  0  0  0  0  0  0  0  0
   38.1020   23.3990   34.1460 C   0  0  0  0  0  0  0  0  0  0  0  0
   38.1110   23.0280   33.1200 H   0  0  0  0  0  0  0  0  0  0  0  0
   37.9560   22.4290   35.1330 C   0  0  0  0  0  0  0  0  0  0  0  0
   37.8610   21.3770   34.8650 H   0  0  0  0  0  0  0  0  0  0  0  0
   37.9300   22.7710   36.4670 C   0  0  0  0  0  0  0  0  0  0  0  0
   37.8160   21.9860   37.1920 H   0  0  0  0  0  0  0  0  0  0  0  0
   38.0510   24.1040   36.8000 C   0  0  0  0  0  0  0  0  0  0  0  0
   38.0220   24.5640   38.4880 Cl  0  0  0  0  0  0  0  0  0  0  0  0
  1 30  1  0  0  0  0
  1  6  1  0  0  0  0
  2  1  1  0  0  0  0
  2  3  1  0  0  0  0
  3  9  1  0  0  0  0
  3  4  1  0  0  0  0
  4  5  1  0  0  0  0
  4 17  1  0  0  0  0
  5 12  1  0  0  0  0
  5 13  1  0  0  0  0
  6 15  1  0  0  0  0
  6  5  1  0  0  0  0
  7  2  1  0  0  0  0
  8  2  1  0  0  0  0
 10  3  1  0  0  0  0
 11  4  1  0  0  0  0
 14  6  1  0  0  0  0
 16 25  1  0  0  0  0
 16 21  1  0  0  0  0
 17 16  2  0  0  0  0
 18 17  1  0  0  0  0
 18 19  2  0  0  0  0
 19 24  1  0  0  0  0
 19 20  1  0  0  0  0
 20 21  2  0  0  0  0
 20 22  1  0  0  0  0
 21 27  1  0  0  0  0
 23 29  1  0  0  0  0
 23 22  1  0  0  0  0
 24 23  1  0  0  0  0
 26 18  1  0  0  0  0
 28 23  1  0  0  0  0
 30 35  1  0  0  0  0
 31 32  1  0  0  0  0
 31 30  2  0  0  0  0
 32 33  2  0  0  0  0
 33 34  1  0  0  0  0
 34 40  1  0  0  0  0
 35 34  2  0  0  0  0
 36 31  1  0  0  0  0
 37 32  1  0  0  0  0
 39 38  1  0  0  0  0
 39 47  1  0  0  0  0
 40 39  2  0  0  0  0
 41 40  1  0  0  0  0
 41 43  2  0  0  0  0
 42 41  1  0  0  0  0
 43 45  1  0  0  0  0
 44 43  1  0  0  0  0
 45 47  2  0  0  0  0
 45 46  1  0  0  0  0
 47 48  1  0  0  0  0
M  END
>  <minimizedAffinity>
-6.58024311

$$$$

 OpenBabel03272507493D

 48 52  0  0  0  0  0  0  0  0999 V2000
   37.4920   27.7590   32.4530 N   0  0  0  0  0  0  0  0  0  0  0  0
   38.1890   27.0400   31.4430 C   0  0  0  0  0  0  0  0  0  0  0  0
   38.1210   25.5620   31.5020 C   0  0  0  0  0  0  0  0  0  0  0  0
   38.1690   24.9540   32.8300 C   0  0  0  0  0  0  0  0  0  0  0  0
   37.4700   25.8140   33.8980 C   0  0  0  0  0  0  0  0  0  0  0  0
   37.9690   27.2540   33.7250 C   0  0  0  0  0  0  0  0  0  0  0  0
   37.8120   27.3860   30.4600 H   0  0  0  0  0  0  0  0  0  0  0  0
   39.2660   27.3500   31.4650 H   0  0  0  0  0  0  0  0  0  0  0  0
   37.0730   25.3670   31.0970 H   0  0  0  0  0  0  0  0  0  0  0  0
   38.8890   25.1260   30.8400 H   0  0  0  0  0  0  0  0  0  0  0  0
   39.2060   24.8430   33.2160 H   0  0  0  0  0  0  0  0  0  0  0  0
   37.7940   25.4220   34.8690 H   0  0  0  0  0  0  0  0  0  0  0  0
   36.3920   25.7540   33.7190 H   0  0  0  0  0  0  0  0  0  0  0  0
   39.0650   27.2700   33.8310 H   0  0  0  0  0  0  0  0  0  0  0  0
   37.5640   27.8590   34.5690 H   0  0  0  0  0  0  0  0  0  0  0  0
   37.8660   22.8310   34.0190 C   0  0  0  0  0  0  0  0  0  0  0  0
   37.5240   23.6200   32.9320 C   0  0  0  0  0  0  0  0  0  0  0  0
   36.6570   23.2310   31.9480 C   0  0  0  0  0  0  0  0  0  0  0  0
   36.0880   21.9630   32.0490 C   0  0  0  0  0  0  0  0  0  0  0  0
   36.4240   21.1770   33.1210 C   0  0  0  0  0  0  0  0  0  0  0  0
   37.3050   21.5690   34.1260 C   0  0  0  0  0  0  0  0  0  0  0  0
   35.7560   19.9430   33.0480 O   0  0  0  0  0  0  0  0  0  0  0  0
   34.7450   20.1440   32.0650 C   0  0  0  0  0  0  0  0  0  0  0  0
   35.1900   21.2190   31.2810 O   0  0  0  0  0  0  0  0  0  0  0  0
   38.5210   23.0330   34.8530 H   0  0  0  0  0  0  0  0  0  0  0  0
   36.4150   23.8610   31.1300 H   0  0  0  0  0  0  0  0  0  0  0  0
   37.5270   20.8900   34.9520 H   0  0  0  0  0  0  0  0  0  0  0  0
   33.7610   20.3470   32.4970 H   0  0  0  0  0  0  0  0  0  0  0  0
   34.7710   19.2210   31.4280 H   0  0  0  0  0  0  0  0  0  0  0  0
   36.5140   28.7820   32.3090 C   0  0  0  0  0  0  0  0  0  0  0  0
   36.1570   29.4280   31.1290 C   0  0  0  0  0  0  0  0  0  0  0  0
   35.1700   30.3990   31.2030 C   0  0  0  0  0  0  0  0  0  0  0  0
   34.6050   30.6690   32.4090 N   0  0  0  0  0  0  0  0  0  0  0  0
   34.9650   30.0310   33.5350 C   0  0  0  0  0  0  0  0  0  0  0  0
   35.9130   29.0950   33.4800 N   0  0  0  0  0  0  0  0  0  0  0  0
   36.6850   29.1140   30.2540 H   0  0  0  0  0  0  0  0  0  0  0  0
   34.9020   30.8940   30.2780 H   0  0  0  0  0  0  0  0  0  0  0  0
   35.9980   32.4600   35.0970 Cl  0  0  0  0  0  0  0  0  0  0  0  0
   34.5930   31.5320   35.5190 C   0  0  0  0  0  0  0  0  0  0  0  0
   34.2430   30.4620   34.7270 C   0  0  0  0  0  0  0  0  0  0  0  0
   33.1170   29.7850   35.1440 C   0  0  0  0  0  0  0  0  0  0  0  0
   32.7270   28.9180   34.6090 H   0  0  0  0  0  0  0  0  0  0  0  0
   32.4010   30.1630   36.2750 C   0  0  0  0  0  0  0  0  0  0  0  0
   31.5150   29.6080   36.5800 H   0  0  0  0  0  0  0  0  0  0  0  0
   32.7920   31.2430   37.0360 C   0  0  0  0  0  0  0  0  0  0  0  0
   32.2070   31.4950   37.9010 H   0  0  0  0  0  0  0  0  0  0  0  0
   33.9150   31.9420   36.6450 C   0  0  0  0  0  0  0  0  0  0  0  0
   34.4340   33.3170   37.5950 Cl  0  0  0  0  0  0  0  0  0  0  0  0
  1  6  1  0  0  0  0
  2  8  1  0  0  0  0
  2  3  1  0  0  0  0
  2  1  1  0  0  0  0
  3  4  1  0  0  0  0
  4 17  1  0  0  0  0
  4 11  1  0  0  0  0
  4  5  1  0  0  0  0
  5 12  1  0  0  0  0
  6 14  1  0  0  0  0
  6  5  1  0  0  0  0
  6 15  1  0  0  0  0
  7  2  1  0  0  0  0
  9  3  1  0  0  0  0
 10  3  1  0  0  0  0
 13  5  1  0  0  0  0
 16 21  1  0  0  0  0
 16 25  1  0  0  0  0
 17 16  2  0  0  0  0
 18 19  2  0  0  0  0
 18 17  1  0  0  0  0
 19 20  1  0  0  0  0
 20 21  2  0  0  0  0
 21 27  1  0  0  0  0
 22 20  1  0  0  0  0
 23 28  1  0  0  0  0
 23 22  1  0  0  0  0
 24 19  1  0  0  0  0
 24 23  1  0  0  0  0
 26 18  1  0  0  0  0
 29 23  1  0  0  0  0
 30  1  1  0  0  0  0
 30 35  1  0  0  0  0
 31 32  1  0  0  0  0
 31 30  2  0  0  0  0
 32 33  2  0  0  0  0
 33 34  1  0  0  0  0
 34 40  1  0  0  0  0
 35 34  2  0  0  0  0
 36 31  1  0  0  0  0
 37 32  1  0  0  0  0
 38 39  1  0  0  0  0
 39 47  1  0  0  0  0
 40 41  1  0  0  0  0
 40 39  2  0  0  0  0
 41 43  2  0  0  0  0
 42 41  1  0  0  0  0
 43 44  1  0  0  0  0
 43 45  1  0  0  0  0
 45 46  1  0  0  0  0
 47 45  2  0  0  0  0
 47 48  1  0  0  0  0
M  END
>  <minimizedAffinity>
-6.55105543

$$$$

 OpenBabel03272507493D

 48 52  0  0  0  0  0  0  0  0999 V2000
   36.9040   26.2180   32.1690 N   0  0  0  0  0  0  0  0  0  0  0  0
   35.7010   25.8260   31.5210 C   0  0  0  0  0  0  0  0  0  0  0  0
   35.5330   24.3830   31.2330 C   0  0  0  0  0  0  0  0  0  0  0  0
   36.7260   23.6540   30.8060 C   0  0  0  0  0  0  0  0  0  0  0  0
   38.0080   24.1750   31.4790 C   0  0  0  0  0  0  0  0  0  0  0  0
   37.9950   25.7040   31.3660 C   0  0  0  0  0  0  0  0  0  0  0  0
   34.8510   26.1780   32.1390 H   0  0  0  0  0  0  0  0  0  0  0  0
   35.6140   26.3940   30.5590 H   0  0  0  0  0  0  0  0  0  0  0  0
   35.2600   23.9760   32.2630 H   0  0  0  0  0  0  0  0  0  0  0  0
   34.7040   24.2380   30.5180 H   0  0  0  0  0  0  0  0  0  0  0  0
   36.9330   23.7660   29.7180 H   0  0  0  0  0  0  0  0  0  0  0  0
   38.8460   23.7670   30.9020 H   0  0  0  0  0  0  0  0  0  0  0  0
   37.9820   23.8640   32.5270 H   0  0  0  0  0  0  0  0  0  0  0  0
   37.9410   25.9860   30.3030 H   0  0  0  0  0  0  0  0  0  0  0  0
   38.9750   26.0820   31.7410 H   0  0  0  0  0  0  0  0  0  0  0  0
   37.8980   21.5040   30.9400 C   0  0  0  0  0  0  0  0  0  0  0  0
   36.7080   22.1980   31.0950 C   0  0  0  0  0  0  0  0  0  0  0  0
   35.5270   21.6150   31.4690 C   0  0  0  0  0  0  0  0  0  0  0  0
   35.5280   20.2420   31.7040 C   0  0  0  0  0  0  0  0  0  0  0  0
   36.7020   19.5510   31.5510 C   0  0  0  0  0  0  0  0  0  0  0  0
   37.9070   20.1380   31.1730 C   0  0  0  0  0  0  0  0  0  0  0  0
   36.5040   18.1870   31.8300 O   0  0  0  0  0  0  0  0  0  0  0  0
   35.2390   18.1380   32.4830 C   0  0  0  0  0  0  0  0  0  0  0  0
   34.5660   19.3060   32.0890 O   0  0  0  0  0  0  0  0  0  0  0  0
   38.8820   21.8540   30.6650 H   0  0  0  0  0  0  0  0  0  0  0  0
   34.6340   22.1760   31.5800 H   0  0  0  0  0  0  0  0  0  0  0  0
   38.8040   19.5260   31.0690 H   0  0  0  0  0  0  0  0  0  0  0  0
   35.3200   18.0740   33.5710 H   0  0  0  0  0  0  0  0  0  0  0  0
   34.7080   17.2650   32.0210 H   0  0  0  0  0  0  0  0  0  0  0  0
   37.0700   26.9680   33.3680 C   0  0  0  0  0  0  0  0  0  0  0  0
   37.9380   26.6740   34.4150 C   0  0  0  0  0  0  0  0  0  0  0  0
   37.9520   27.5400   35.4980 C   0  0  0  0  0  0  0  0  0  0  0  0
   37.1270   28.6200   35.4840 N   0  0  0  0  0  0  0  0  0  0  0  0
   36.2980   28.8830   34.4600 C   0  0  0  0  0  0  0  0  0  0  0  0
   36.2740   28.0600   33.4120 N   0  0  0  0  0  0  0  0  0  0  0  0
   38.5280   25.7900   34.2920 H   0  0  0  0  0  0  0  0  0  0  0  0
   38.6310   27.3000   36.3060 H   0  0  0  0  0  0  0  0  0  0  0  0
   33.6840   29.1630   32.8810 Cl  0  0  0  0  0  0  0  0  0  0  0  0
   34.3060   30.3440   33.9890 C   0  0  0  0  0  0  0  0  0  0  0  0
   35.4960   30.0890   34.6330 C   0  0  0  0  0  0  0  0  0  0  0  0
   35.9090   31.0860   35.4890 C   0  0  0  0  0  0  0  0  0  0  0  0
   36.8340   31.0150   36.0630 H   0  0  0  0  0  0  0  0  0  0  0  0
   35.1740   32.2520   35.6810 C   0  0  0  0  0  0  0  0  0  0  0  0
   35.5270   33.0230   36.3650 H   0  0  0  0  0  0  0  0  0  0  0  0
   33.9860   32.4610   35.0130 C   0  0  0  0  0  0  0  0  0  0  0  0
   33.4550   33.3760   35.1940 H   0  0  0  0  0  0  0  0  0  0  0  0
   33.5450   31.4820   34.1480 C   0  0  0  0  0  0  0  0  0  0  0  0
   32.0400   31.7230   33.2870 Cl  0  0  0  0  0  0  0  0  0  0  0  0
  1 30  1  0  0  0  0
  2  7  1  0  0  0  0
  2  1  1  0  0  0  0
  3  2  1  0  0  0  0
  3  9  1  0  0  0  0
  4 17  1  0  0  0  0
  4  3  1  0  0  0  0
  4  5  1  0  0  0  0
  5 13  1  0  0  0  0
  6  5  1  0  0  0  0
  6 15  1  0  0  0  0
  6  1  1  0  0  0  0
  8  2  1  0  0  0  0
 10  3  1  0  0  0  0
 11  4  1  0  0  0  0
 12  5  1  0  0  0  0
 14  6  1  0  0  0  0
 16 17  2  0  0  0  0
 16 21  1  0  0  0  0
 17 18  1  0  0  0  0
 18 26  1  0  0  0  0
 18 19  2  0  0  0  0
 19 24  1  0  0  0  0
 20 19  1  0  0  0  0
 20 22  1  0  0  0  0
 21 20  2  0  0  0  0
 22 23  1  0  0  0  0
 23 28  1  0  0  0  0
 24 23  1  0  0  0  0
 25 16  1  0  0  0  0
 27 21  1  0  0  0  0
 29 23  1  0  0  0  0
 30 35  2  0  0  0  0
 30 31  1  0  0  0  0
 31 32  2  0  0  0  0
 32 37  1  0  0  0  0
 33 32  1  0  0  0  0
 34 40  1  0  0  0  0
 34 33  2  0  0  0  0
 35 34  1  0  0  0  0
 36 31  1  0  0  0  0
 38 39  1  0  0  0  0
 39 47  2  0  0  0  0
 39 40  1  0  0  0  0
 40 41  2  0  0  0  0
 41 43  1  0  0  0  0
 41 42  1  0  0  0  0
 43 44  1  0  0  0  0
 45 46  1  0  0  0  0
 45 43  2  0  0  0  0
 47 45  1  0  0  0  0
 48 47  1  0  0  0  0
M  END
>  <minimizedAffinity>
-6.54860258

$$$$

 OpenBabel03272507493D

 48 52  0  0  0  0  0  0  0  0999 V2000
   37.1630   25.0920   31.5740 N   0  0  0  0  0  0  0  0  0  0  0  0
   38.2440   25.9960   31.3840 C   0  0  0  0  0  0  0  0  0  0  0  0
   38.0110   27.4100   31.7590 C   0  0  0  0  0  0  0  0  0  0  0  0
   36.6900   27.9610   31.4580 C   0  0  0  0  0  0  0  0  0  0  0  0
   35.5690   26.9160   31.6010 C   0  0  0  0  0  0  0  0  0  0  0  0
   36.0260   25.6500   30.8690 C   0  0  0  0  0  0  0  0  0  0  0  0
   39.1150   25.6060   31.9470 H   0  0  0  0  0  0  0  0  0  0  0  0
   38.5540   25.9580   30.3080 H   0  0  0  0  0  0  0  0  0  0  0  0
   38.0860   27.3590   32.8960 H   0  0  0  0  0  0  0  0  0  0  0  0
   38.8090   28.0450   31.3370 H   0  0  0  0  0  0  0  0  0  0  0  0
   36.5980   28.3070   30.4050 H   0  0  0  0  0  0  0  0  0  0  0  0
   34.6900   27.3380   31.1020 H   0  0  0  0  0  0  0  0  0  0  0  0
   35.4350   26.7190   32.6700 H   0  0  0  0  0  0  0  0  0  0  0  0
   36.2300   25.8970   29.8160 H   0  0  0  0  0  0  0  0  0  0  0  0
   35.1730   24.9320   30.8620 H   0  0  0  0  0  0  0  0  0  0  0  0
   35.9900   28.8050   33.6510 C   0  0  0  0  0  0  0  0  0  0  0  0
   36.2720   29.0920   32.3240 C   0  0  0  0  0  0  0  0  0  0  0  0
   36.1590   30.3380   31.7710 C   0  0  0  0  0  0  0  0  0  0  0  0
   35.7340   31.3780   32.5960 C   0  0  0  0  0  0  0  0  0  0  0  0
   35.4540   31.1000   33.9100 C   0  0  0  0  0  0  0  0  0  0  0  0
   35.5670   29.8330   34.4780 C   0  0  0  0  0  0  0  0  0  0  0  0
   35.0420   32.2660   34.5760 O   0  0  0  0  0  0  0  0  0  0  0  0
   35.4070   33.3260   33.6970 C   0  0  0  0  0  0  0  0  0  0  0  0
   35.5010   32.7430   32.4230 O   0  0  0  0  0  0  0  0  0  0  0  0
   36.0530   27.8750   34.1960 H   0  0  0  0  0  0  0  0  0  0  0  0
   36.3840   30.5230   30.7510 H   0  0  0  0  0  0  0  0  0  0  0  0
   35.3260   29.6840   35.5310 H   0  0  0  0  0  0  0  0  0  0  0  0
   36.3420   33.8150   33.9800 H   0  0  0  0  0  0  0  0  0  0  0  0
   34.5230   34.0170   33.6930 H   0  0  0  0  0  0  0  0  0  0  0  0
   37.1380   23.8670   32.2990 C   0  0  0  0  0  0  0  0  0  0  0  0
   36.3570   22.7510   32.0140 C   0  0  0  0  0  0  0  0  0  0  0  0
   36.4860   21.6490   32.8460 C   0  0  0  0  0  0  0  0  0  0  0  0
   37.3600   21.7110   33.8850 N   0  0  0  0  0  0  0  0  0  0  0  0
   38.1040   22.8000   34.1400 C   0  0  0  0  0  0  0  0  0  0  0  0
   37.9910   23.8680   33.3490 N   0  0  0  0  0  0  0  0  0  0  0  0
   35.7130   22.8430   31.1650 H   0  0  0  0  0  0  0  0  0  0  0  0
   35.8730   20.7880   32.6140 H   0  0  0  0  0  0  0  0  0  0  0  0
   37.2070   23.9960   36.8180 Cl  0  0  0  0  0  0  0  0  0  0  0  0
   38.7040   23.1580   36.5560 C   0  0  0  0  0  0  0  0  0  0  0  0
   38.9800   22.6710   35.2990 C   0  0  0  0  0  0  0  0  0  0  0  0
   40.1930   22.0250   35.1890 C   0  0  0  0  0  0  0  0  0  0  0  0
   40.5390   21.5910   34.2500 H   0  0  0  0  0  0  0  0  0  0  0  0
   41.0580   21.8820   36.2690 C   0  0  0  0  0  0  0  0  0  0  0  0
   42.0100   21.3660   36.1510 H   0  0  0  0  0  0  0  0  0  0  0  0
   40.7350   22.3870   37.5100 C   0  0  0  0  0  0  0  0  0  0  0  0
   41.4350   22.2520   38.3120 H   0  0  0  0  0  0  0  0  0  0  0  0
   39.5280   23.0390   37.6530 C   0  0  0  0  0  0  0  0  0  0  0  0
   39.0940   23.6900   39.2190 Cl  0  0  0  0  0  0  0  0  0  0  0  0
  1 30  1  0  0  0  0
  2  1  1  0  0  0  0
  2  3  1  0  0  0  0
  2  7  1  0  0  0  0
  3  9  1  0  0  0  0
  4  5  1  0  0  0  0
  4  3  1  0  0  0  0
  4 17  1  0  0  0  0
  5 13  1  0  0  0  0
  6  1  1  0  0  0  0
  6  5  1  0  0  0  0
  8  2  1  0  0  0  0
 10  3  1  0  0  0  0
 11  4  1  0  0  0  0
 12  5  1  0  0  0  0
 14  6  1  0  0  0  0
 15  6  1  0  0  0  0
 16 25  1  0  0  0  0
 16 21  1  0  0  0  0
 17 16  2  0  0  0  0
 18 17  1  0  0  0  0
 18 19  2  0  0  0  0
 19 20  1  0  0  0  0
 20 21  2  0  0  0  0
 20 22  1  0  0  0  0
 21 27  1  0  0  0  0
 23 28  1  0  0  0  0
 23 22  1  0  0  0  0
 24 19  1  0  0  0  0
 24 23  1  0  0  0  0
 26 18  1  0  0  0  0
 29 23  1  0  0  0  0
 30 35  1  0  0  0  0
 31 30  2  0  0  0  0
 31 32  1  0  0  0  0
 32 33  2  0  0  0  0
 33 34  1  0  0  0  0
 34 40  1  0  0  0  0
 35 34  2  0  0  0  0
 36 31  1  0  0  0  0
 37 32  1  0  0  0  0
 39 38  1  0  0  0  0
 39 47  1  0  0  0  0
 40 39  2  0  0  0  0
 41 40  1  0  0  0  0
 41 43  2  0  0  0  0
 42 41  1  0  0  0  0
 43 45  1  0  0  0  0
 44 43  1  0  0  0  0
 45 47  2  0  0  0  0
 45 46  1  0  0  0  0
 47 48  1  0  0  0  0
M  END
>  <minimizedAffinity>
-6.53679991

$$$$

 OpenBabel03272507493D

 48 52  0  0  0  0  0  0  0  0999 V2000
   37.0970   26.4820   34.0380 N   0  0  0  0  0  0  0  0  0  0  0  0
   37.2280   26.0520   35.3860 C   0  0  0  0  0  0  0  0  0  0  0  0
   38.5490   25.5250   35.7990 C   0  0  0  0  0  0  0  0  0  0  0  0
   39.2650   24.7060   34.8220 C   0  0  0  0  0  0  0  0  0  0  0  0
   39.0210   25.1680   33.3740 C   0  0  0  0  0  0  0  0  0  0  0  0
   37.5110   25.3700   33.2050 C   0  0  0  0  0  0  0  0  0  0  0  0
   36.9510   26.9020   36.0420 H   0  0  0  0  0  0  0  0  0  0  0  0
   36.4520   25.2680   35.5860 H   0  0  0  0  0  0  0  0  0  0  0  0
   39.1510   26.4870   35.9140 H   0  0  0  0  0  0  0  0  0  0  0  0
   38.4570   24.9980   36.7640 H   0  0  0  0  0  0  0  0  0  0  0  0
   38.9290   23.6450   34.8220 H   0  0  0  0  0  0  0  0  0  0  0  0
   39.3610   24.3500   32.7290 H   0  0  0  0  0  0  0  0  0  0  0  0
   39.5570   26.1120   33.2330 H   0  0  0  0  0  0  0  0  0  0  0  0
   36.9940   24.4250   33.4310 H   0  0  0  0  0  0  0  0  0  0  0  0
   37.3130   25.5860   32.1300 H   0  0  0  0  0  0  0  0  0  0  0  0
   41.4290   25.8360   34.5960 C   0  0  0  0  0  0  0  0  0  0  0  0
   40.7410   24.6940   34.9760 C   0  0  0  0  0  0  0  0  0  0  0  0
   41.3450   23.5620   35.4530 C   0  0  0  0  0  0  0  0  0  0  0  0
   42.7340   23.5640   35.5590 C   0  0  0  0  0  0  0  0  0  0  0  0
   43.4190   24.6910   35.1830 C   0  0  0  0  0  0  0  0  0  0  0  0
   42.8100   25.8460   34.6980 C   0  0  0  0  0  0  0  0  0  0  0  0
   44.8010   24.5020   35.3590 O   0  0  0  0  0  0  0  0  0  0  0  0
   44.8990   23.3360   36.1720 C   0  0  0  0  0  0  0  0  0  0  0  0
   43.6930   22.6420   35.9840 O   0  0  0  0  0  0  0  0  0  0  0  0
   41.0640   26.7820   34.2210 H   0  0  0  0  0  0  0  0  0  0  0  0
   40.7880   22.7050   35.7360 H   0  0  0  0  0  0  0  0  0  0  0  0
   43.4190   26.7070   34.4170 H   0  0  0  0  0  0  0  0  0  0  0  0
   45.0660   23.5630   37.2280 H   0  0  0  0  0  0  0  0  0  0  0  0
   45.7200   22.7280   35.7090 H   0  0  0  0  0  0  0  0  0  0  0  0
   36.6540   27.7390   33.5390 C   0  0  0  0  0  0  0  0  0  0  0  0
   36.7450   28.1890   32.2250 C   0  0  0  0  0  0  0  0  0  0  0  0
   36.2450   29.4510   31.9430 C   0  0  0  0  0  0  0  0  0  0  0  0
   35.6960   30.1790   32.9510 N   0  0  0  0  0  0  0  0  0  0  0  0
   35.6180   29.7230   34.2120 C   0  0  0  0  0  0  0  0  0  0  0  0
   36.0950   28.5110   34.4990 N   0  0  0  0  0  0  0  0  0  0  0  0
   37.2020   27.5100   31.5360 H   0  0  0  0  0  0  0  0  0  0  0  0
   36.3230   29.7890   30.9170 H   0  0  0  0  0  0  0  0  0  0  0  0
   32.6000   29.5210   34.7140 Cl  0  0  0  0  0  0  0  0  0  0  0  0
   33.6560   30.6730   35.4670 C   0  0  0  0  0  0  0  0  0  0  0  0
   34.9950   30.6520   35.1480 C   0  0  0  0  0  0  0  0  0  0  0  0
   35.7520   31.6060   35.7930 C   0  0  0  0  0  0  0  0  0  0  0  0
   36.8270   31.7020   35.6340 H   0  0  0  0  0  0  0  0  0  0  0  0
   35.1970   32.5120   36.6910 C   0  0  0  0  0  0  0  0  0  0  0  0
   35.8210   33.2550   37.1850 H   0  0  0  0  0  0  0  0  0  0  0  0
   33.8490   32.4930   36.9780 C   0  0  0  0  0  0  0  0  0  0  0  0
   33.4670   33.2120   37.6770 H   0  0  0  0  0  0  0  0  0  0  0  0
   33.0630   31.5490   36.3490 C   0  0  0  0  0  0  0  0  0  0  0  0
   31.3480   31.5040   36.6940 Cl  0  0  0  0  0  0  0  0  0  0  0  0
  1  2  1  0  0  0  0
  2  8  1  0  0  0  0
  2  3  1  0  0  0  0
  2  7  1  0  0  0  0
  3  9  1  0  0  0  0
  3 10  1  0  0  0  0
  4 17  1  0  0  0  0
  4  3  1  0  0  0  0
  5  4  1  0  0  0  0
  6  5  1  0  0  0  0
  6 14  1  0  0  0  0
  6  1  1  0  0  0  0
 11  4  1  0  0  0  0
 12  5  1  0  0  0  0
 13  5  1  0  0  0  0
 15  6  1  0  0  0  0
 16 21  2  0  0  0  0
 16 17  1  0  0  0  0
 17 18  2  0  0  0  0
 18 19  1  0  0  0  0
 18 26  1  0  0  0  0
 19 24  1  0  0  0  0
 20 22  1  0  0  0  0
 20 19  2  0  0  0  0
 21 20  1  0  0  0  0
 22 23  1  0  0  0  0
 23 28  1  0  0  0  0
 24 23  1  0  0  0  0
 25 16  1  0  0  0  0
 27 21  1  0  0  0  0
 29 23  1  0  0  0  0
 30  1  1  0  0  0  0
 30 35  1  0  0  0  0
 31 30  2  0  0  0  0
 32 31  1  0  0  0  0
 32 33  2  0  0  0  0
 33 34  1  0  0  0  0
 34 35  2  0  0  0  0
 34 40  1  0  0  0  0
 36 31  1  0  0  0  0
 37 32  1  0  0  0  0
 38 39  1  0  0  0  0
 39 47  1  0  0  0  0
 40 39  2  0  0  0  0
 40 41  1  0  0  0  0
 41 43  2  0  0  0  0
 42 41  1  0  0  0  0
 43 45  1  0  0  0  0
 43 44  1  0  0  0  0
 45 46  1  0  0  0  0
 47 48  1  0  0  0  0
 47 45  2  0  0  0  0
M  END
>  <minimizedAffinity>
-6.51819849

$$$$
