
 OpenBabel03272510273D

 47 51  0  0  1  0  0  0  0  0999 V2000
   39.1960   31.3430   41.0530 N   0  0  0  0  0  0  0  0  0  0  0  0
   38.9170   32.7450   40.9920 C   0  0  1  0  0  0  0  0  0  0  0  0
   37.5260   32.9680   40.5870 C   0  0  0  0  0  0  0  0  0  0  0  0
   37.3600   32.5000   39.2880 O   0  0  0  0  0  0  0  0  0  0  0  0
   37.7090   31.1930   39.1110 C   0  0  0  0  0  0  0  0  0  0  0  0
   39.0470   30.8220   39.6930 C   0  0  1  0  0  0  0  0  0  0  0  0
   38.6260   30.7390   41.6160 H   0  0  0  0  0  0  0  0  0  0  0  0
   39.5680   33.2200   40.2290 H   0  0  0  0  0  0  0  0  0  0  0  0
   36.6820   32.5960   41.1050 H   0  0  0  0  0  0  0  0  0  0  0  0
   37.3810   34.0870   40.4960 H   0  0  0  0  0  0  0  0  0  0  0  0
   37.6440   30.9510   38.0560 H   0  0  0  0  0  0  0  0  0  0  0  0
   36.9590   30.5890   39.7020 H   0  0  0  0  0  0  0  0  0  0  0  0
   39.0520   29.7060   39.7540 H   0  0  0  0  0  0  0  0  0  0  0  0
   41.8420   29.5460   40.2610 Cl  0  0  0  0  0  0  0  0  0  0  0  0
   41.4920   30.8140   39.1050 C   0  0  0  0  0  0  0  0  0  0  0  0
   40.2080   31.2860   38.9090 C   0  0  0  0  0  0  0  0  0  0  0  0
   40.1190   32.2490   37.9360 C   0  0  0  0  0  0  0  0  0  0  0  0
   39.1980   32.7070   37.6710 H   0  0  0  0  0  0  0  0  0  0  0  0
   41.1860   32.7370   37.1940 C   0  0  0  0  0  0  0  0  0  0  0  0
   41.1030   33.4890   36.4380 H   0  0  0  0  0  0  0  0  0  0  0  0
   42.4510   32.2240   37.4380 C   0  0  0  0  0  0  0  0  0  0  0  0
   43.3010   32.5840   36.8780 H   0  0  0  0  0  0  0  0  0  0  0  0
   42.5990   31.2520   38.4060 C   0  0  0  0  0  0  0  0  0  0  0  0
   44.2200   30.6440   38.6680 Cl  0  0  0  0  0  0  0  0  0  0  0  0
   39.1560   33.2640   42.2920 O   0  0  0  0  0  0  0  0  0  0  0  0
   36.1970   30.2680   46.4320 C   0  0  0  0  0  0  0  0  0  0  0  0
   37.1860   30.7890   47.2330 C   0  0  0  0  0  0  0  0  0  0  0  0
   38.1950   31.6120   46.7040 C   0  0  0  0  0  0  0  0  0  0  0  0
   38.1320   31.8630   45.3480 C   0  0  0  0  0  0  0  0  0  0  0  0
   38.9840   32.6300   44.5980 N   0  0  0  0  0  0  0  0  0  0  0  0
   38.5200   32.5820   43.3360 C   0  0  0  0  0  0  0  0  0  0  0  0
   37.4410   31.8330   43.2810 N   0  0  0  0  0  0  0  0  0  0  0  0
   37.1540   31.3590   44.5080 C   0  0  0  0  0  0  0  0  0  0  0  0
   36.1640   30.5410   45.0690 C   0  0  0  0  0  0  0  0  0  0  0  0
   35.4150   29.6340   46.8260 H   0  0  0  0  0  0  0  0  0  0  0  0
   38.9830   32.0320   47.3170 H   0  0  0  0  0  0  0  0  0  0  0  0
   39.8400   33.1590   44.9370 H   0  0  0  0  0  0  0  0  0  0  0  0
   35.4010   30.1470   44.4170 H   0  0  0  0  0  0  0  0  0  0  0  0
   37.8730   30.5920   50.9300 C   0  0  0  0  0  0  0  0  0  0  0  0
   38.0310   30.9820   49.6070 C   0  0  0  0  0  0  0  0  0  0  0  0
   37.1770   30.4880   48.6540 C   0  0  0  0  0  0  0  0  0  0  0  0
   36.1950   29.6160   49.0800 N   0  0  0  0  0  0  0  0  0  0  0  0
   36.0430   29.2380   50.3660 C   0  0  0  0  0  0  0  0  0  0  0  0
   36.8750   29.7240   51.2750 N   0  0  0  0  0  0  0  0  0  0  0  0
   38.5710   31.0080   51.6570 H   0  0  0  0  0  0  0  0  0  0  0  0
   38.7840   31.6550   49.2660 H   0  0  0  0  0  0  0  0  0  0  0  0
   35.2450   28.5480   50.6110 H   0  0  0  0  0  0  0  0  0  0  0  0
  1  7  1  0  0  0  0
  2  8  1  6  0  0  0
  2  1  1  0  0  0  0
  2 25  1  0  0  0  0
  3  2  1  0  0  0  0
  3  9  1  0  0  0  0
  4  3  1  0  0  0  0
  5  4  1  0  0  0  0
  5  6  1  0  0  0  0
  5 12  1  0  0  0  0
  6 13  1  1  0  0  0
  6  1  1  0  0  0  0
 10  3  1  0  0  0  0
 11  5  1  0  0  0  0
 15 14  1  0  0  0  0
 16 15  1  0  0  0  0
 16  6  1  0  0  0  0
 17 16  2  0  0  0  0
 18 17  1  0  0  0  0
 19 21  2  0  0  0  0
 19 17  1  0  0  0  0
 20 19  1  0  0  0  0
 21 23  1  0  0  0  0
 22 21  1  0  0  0  0
 23 24  1  0  0  0  0
 23 15  2  0  0  0  0
 25 31  1  0  0  0  0
 26 35  1  0  0  0  0
 26 27  1  0  0  0  0
 27 41  1  0  0  0  0
 28 27  2  0  0  0  0
 28 36  1  0  0  0  0
 29 28  1  0  0  0  0
 30 37  1  0  0  0  0
 30 29  1  0  0  0  0
 31 30  1  0  0  0  0
 32 31  2  0  0  0  0
 32 33  1  0  0  0  0
 33 34  1  0  0  0  0
 33 29  2  0  0  0  0
 34 26  2  0  0  0  0
 38 34  1  0  0  0  0
 39 44  1  0  0  0  0
 39 45  1  0  0  0  0
 40 39  2  0  0  0  0
 41 42  2  0  0  0  0
 41 40  1  0  0  0  0
 42 43  1  0  0  0  0
 43 47  1  0  0  0  0
 43 44  2  0  0  0  0
 46 40  1  0  0  0  0
M  END
>  <minimizedAffinity>
-5.57704735

>  <minimizedRMSD>
0.990475059

$$$$
