
 OpenBabel03272504093D

 35 37  0  0  0  0  0  0  0  0999 V2000
   37.2910   30.6250   50.2340 C   0  0  0  0  0  0  0  0  0  0  0  0
   36.9830   30.6090   48.8850 C   0  0  0  0  0  0  0  0  0  0  0  0
   35.7690   30.0200   48.4480 C   0  0  0  0  0  0  0  0  0  0  0  0
   34.9550   29.4900   49.3880 N   0  0  0  0  0  0  0  0  0  0  0  0
   35.3050   29.5270   50.7260 C   0  0  0  0  0  0  0  0  0  0  0  0
   36.4730   30.0980   51.1390 N   0  0  0  0  0  0  0  0  0  0  0  0
   34.3910   28.9450   51.6640 N   0  0  0  0  0  0  0  0  0  0  0  0
   38.2210   31.0780   50.5590 H   0  0  0  0  0  0  0  0  0  0  0  0
   33.6040   29.5700   51.9520 H   0  0  0  0  0  0  0  0  0  0  0  0
   34.4370   27.9890   52.0700 H   0  0  0  0  0  0  0  0  0  0  0  0
   37.9650   33.4610   49.2730 Cl  0  0  0  0  0  0  0  0  0  0  0  0
   38.4900   32.4690   47.9480 C   0  0  0  0  0  0  0  0  0  0  0  0
   37.9490   31.2220   47.9500 C   0  0  0  0  0  0  0  0  0  0  0  0
   38.3290   30.3450   46.9160 C   0  0  0  0  0  0  0  0  0  0  0  0
   39.1970   30.7070   45.9450 C   0  0  0  0  0  0  0  0  0  0  0  0
   39.7360   31.9890   45.9670 C   0  0  0  0  0  0  0  0  0  0  0  0
   40.8600   32.5040   44.7410 Cl  0  0  0  0  0  0  0  0  0  0  0  0
   39.3780   32.8490   46.9630 C   0  0  0  0  0  0  0  0  0  0  0  0
   37.9870   29.3250   46.8080 H   0  0  0  0  0  0  0  0  0  0  0  0
   39.5260   30.0780   45.1260 H   0  0  0  0  0  0  0  0  0  0  0  0
   39.7720   33.8630   47.0220 H   0  0  0  0  0  0  0  0  0  0  0  0
   35.4650   30.0200   47.0290 C   0  0  0  0  0  0  0  0  0  0  0  0
   35.6750   31.0610   46.6440 H   0  0  0  0  0  0  0  0  0  0  0  0
   36.1160   29.3530   46.4650 H   0  0  0  0  0  0  0  0  0  0  0  0
   34.2960   27.1990   47.2890 Cl  0  0  0  0  0  0  0  0  0  0  0  0
   33.3520   28.6050   46.7690 C   0  0  0  0  0  0  0  0  0  0  0  0
   34.0270   29.8030   46.7010 C   0  0  0  0  0  0  0  0  0  0  0  0
   33.2480   30.8880   46.2870 C   0  0  0  0  0  0  0  0  0  0  0  0
   33.7540   31.8520   46.2240 H   0  0  0  0  0  0  0  0  0  0  0  0
   31.8990   30.8630   45.9500 C   0  0  0  0  0  0  0  0  0  0  0  0
   31.3980   31.7550   45.6470 H   0  0  0  0  0  0  0  0  0  0  0  0
   31.3260   29.5950   46.0570 C   0  0  0  0  0  0  0  0  0  0  0  0
   30.2740   29.5560   45.7980 H   0  0  0  0  0  0  0  0  0  0  0  0
   32.0160   28.4710   46.4570 C   0  0  0  0  0  0  0  0  0  0  0  0
   31.2320   26.9110   46.5640 Cl  0  0  0  0  0  0  0  0  0  0  0  0
  1  8  1  0  0  0  0
  1  6  1  0  0  0  0
  2  1  2  0  0  0  0
  3  2  1  0  0  0  0
  3  4  2  0  0  0  0
  4  5  1  0  0  0  0
  5  6  2  0  0  0  0
  5  7  1  0  0  0  0
  7  9  1  0  0  0  0
  7 10  1  0  0  0  0
 12 13  1  0  0  0  0
 12 11  1  0  0  0  0
 13  2  1  0  0  0  0
 14 13  2  0  0  0  0
 15 16  2  0  0  0  0
 15 14  1  0  0  0  0
 16 18  1  0  0  0  0
 17 16  1  0  0  0  0
 18 21  1  0  0  0  0
 18 12  2  0  0  0  0
 19 14  1  0  0  0  0
 20 15  1  0  0  0  0
 22  3  1  0  0  0  0
 23 22  1  0  0  0  0
 24 22  1  0  0  0  0
 26 25  1  0  0  0  0
 27 26  1  0  0  0  0
 27 22  1  0  0  0  0
 28 27  2  0  0  0  0
 29 28  1  0  0  0  0
 30 32  2  0  0  0  0
 30 28  1  0  0  0  0
 31 30  1  0  0  0  0
 32 34  1  0  0  0  0
 33 32  1  0  0  0  0
 34 35  1  0  0  0  0
 34 26  2  0  0  0  0
M  END
>  <minimizedAffinity>
-5.84643936

>  <minimizedRMSD>
0.827826858

$$$$
