REMARK  Name = 
REMARK  3 active torsions:
REMARK  status: ('A' for Active; 'I' for Inactive)
REMARK    1  A    between atoms: C_1  and  C_16
REMARK    2  A    between atoms: C_3  and  C_4
REMARK    3  A    between atoms: C_18  and  C_35
REMARK                            x       y       z     vdW  Elec       q    Type
REMARK                         _______ _______ _______ _____ _____    ______ ____
ROOT
ATOM      1  C   UNL     1      37.557  32.062  48.502  0.00  0.00    +0.000 C 
ATOM      2  C   UNL     1      38.787  32.800  48.834  0.00  0.00    +0.000 C 
ATOM      3  C   UNL     1      38.936  31.639  47.919  0.00  0.00    +0.000 C 
ATOM      4  H   UNL     1      36.908  32.395  47.708  0.00  0.00    +0.000 HD
ATOM      5  H   UNL     1      38.700  33.851  48.604  0.00  0.00    +0.000 HD
ATOM      6  H   UNL     1      39.215  32.679  49.889  0.00  0.00    +0.000 HD
ATOM      7  H   UNL     1      39.082  30.583  48.096  0.00  0.00    +0.000 HD
ENDROOT
BRANCH   3   8
ATOM      8  C   UNL     1      39.299  32.098  46.553  0.00  0.00    +0.000 A 
ATOM      9  C   UNL     1      39.754  33.422  46.588  0.00  0.00    +0.000 A 
ATOM     10  C   UNL     1      40.225  34.038  45.447  0.00  0.00    +0.000 A 
ATOM     11  C   UNL     1      40.262  33.361  44.224  0.00  0.00    +0.000 A 
ATOM     12  C   UNL     1      39.810  32.063  44.218  0.00  0.00    +0.000 A 
ATOM     13  C   UNL     1      39.766  31.268  43.097  0.00  0.00    +0.000 A 
ATOM     14  C   UNL     1      39.304  29.971  43.066  0.00  0.00    +0.000 A 
ATOM     15  C   UNL     1      38.847  29.413  44.245  0.00  0.00    +0.000 A 
ATOM     16  C   UNL     1      38.880  30.183  45.379  0.00  0.00    +0.000 A 
ATOM     17  C   UNL     1      39.350  31.473  45.356  0.00  0.00    +0.000 A 
ATOM     18  H   UNL     1      39.881  34.192  47.319  0.00  0.00    +0.000 HD
ATOM     19  H   UNL     1      40.606  35.033  45.296  0.00  0.00    +0.000 HD
ATOM     20  H   UNL     1      40.594  33.691  43.251  0.00  0.00    +0.000 HD
ATOM     21  H   UNL     1      40.123  31.685  42.142  0.00  0.00    +0.000 HD
ATOM     22  H   UNL     1      39.301  29.408  42.137  0.00  0.00    +0.000 HD
ATOM     23  H   UNL     1      38.474  28.409  44.297  0.00  0.00    +0.000 HD
ATOM     24  H   UNL     1      38.511  29.717  46.310  0.00  0.00    +0.000 HD
ENDBRANCH   3   8
BRANCH   1  27
ATOM     25  C   UNL     1      35.292  29.571  50.194  0.00  0.00    +0.000 A 
ATOM     26  C   UNL     1      35.811  30.480  49.245  0.00  0.00    +0.000 A 
ATOM     27  C   UNL     1      37.019  31.098  49.483  0.00  0.00    +0.000 A 
ATOM     28  N   UNL     1      37.641  30.778  50.644  0.00  0.00    +0.000 NA
ATOM     29  C   UNL     1      37.156  29.914  51.553  0.00  0.00    +0.000 A 
ATOM     30  N   UNL     1      35.956  29.300  51.319  0.00  0.00    +0.000 NA
ATOM     31  H   UNL     1      34.325  29.120  49.932  0.00  0.00    +0.000 HD
ATOM     32  H   UNL     1      35.251  30.686  48.331  0.00  0.00    +0.000 HD
BRANCH  29  35
ATOM     33 CL   UNL     1      39.023  27.468  51.630  0.00  0.00    +0.000 Cl
ATOM     34  C   UNL     1      38.647  28.479  52.996  0.00  0.00    +0.000 A 
ATOM     35  C   UNL     1      37.792  29.540  52.804  0.00  0.00    +0.000 A 
ATOM     36  C   UNL     1      37.573  30.261  53.970  0.00  0.00    +0.000 A 
ATOM     37  H   UNL     1      36.910  31.134  53.956  0.00  0.00    +0.000 HD
ATOM     38  C   UNL     1      38.147  29.948  55.178  0.00  0.00    +0.000 A 
ATOM     39  H   UNL     1      37.928  30.561  56.052  0.00  0.00    +0.000 HD
ATOM     40  C   UNL     1      38.995  28.869  55.296  0.00  0.00    +0.000 A 
ATOM     41  H   UNL     1      39.408  28.686  56.275  0.00  0.00    +0.000 HD
ATOM     42  C   UNL     1      39.246  28.120  54.167  0.00  0.00    +0.000 A 
ATOM     43 CL   UNL     1      40.318  26.757  54.318  0.00  0.00    +0.000 Cl
ENDBRANCH  29  35
ENDBRANCH   1  27
TORSDOF 3
