
 OpenBabel03272507133D

 42 46  0  0  0  0  0  0  0  0999 V2000
   35.7280   29.0780   49.8260 C   0  0  0  0  0  0  0  0  0  0  0  0
   34.7110   29.5510   50.5900 C   0  0  0  0  0  0  0  0  0  0  0  0
   33.5390   28.9660   50.1090 C   0  0  0  0  0  0  0  0  0  0  0  0
   33.9390   28.1460   49.0460 C   0  0  0  0  0  0  0  0  0  0  0  0
   35.2270   28.2640   48.9400 O   0  0  0  0  0  0  0  0  0  0  0  0
   34.7600   30.2500   51.4230 H   0  0  0  0  0  0  0  0  0  0  0  0
   32.5780   29.1690   50.5360 H   0  0  0  0  0  0  0  0  0  0  0  0
   33.3800   26.3310   47.4360 C   0  0  0  0  0  0  0  0  0  0  0  0
   32.9860   27.3470   48.2660 C   0  0  0  0  0  0  0  0  0  0  0  0
   31.6470   27.6870   48.4280 C   0  0  0  0  0  0  0  0  0  0  0  0
   30.7170   26.9480   47.7110 C   0  0  0  0  0  0  0  0  0  0  0  0
   29.3830   27.0540   47.6800 N   0  0  0  0  0  0  0  0  0  0  0  0
   28.9390   26.1150   46.8430 N   0  0  0  0  0  0  0  0  0  0  0  0
   29.9740   25.4310   46.3550 C   0  0  0  0  0  0  0  0  0  0  0  0
   31.1560   25.9340   46.8870 C   0  0  0  0  0  0  0  0  0  0  0  0
   32.4930   25.5990   46.7280 C   0  0  0  0  0  0  0  0  0  0  0  0
   34.4610   26.1490   47.3800 H   0  0  0  0  0  0  0  0  0  0  0  0
   31.2680   28.4830   49.0710 H   0  0  0  0  0  0  0  0  0  0  0  0
   28.7490   27.7160   48.1860 H   0  0  0  0  0  0  0  0  0  0  0  0
   29.9750   24.5920   45.6410 H   0  0  0  0  0  0  0  0  0  0  0  0
   32.7930   24.7940   46.0680 H   0  0  0  0  0  0  0  0  0  0  0  0
   37.1100   29.4810   50.0490 C   0  0  0  0  0  0  0  0  0  0  0  0
   37.7880   28.8750   50.9210 O   0  0  0  0  0  0  0  0  0  0  0  0
   37.6240   30.5660   49.2460 C   0  0  0  0  0  0  0  0  0  0  0  0
   38.2940   31.5800   49.9080 C   0  0  0  0  0  0  0  0  0  0  0  0
   38.8050   32.6430   49.1720 C   0  0  0  0  0  0  0  0  0  0  0  0
   38.6110   32.6150   47.8230 N   0  0  0  0  0  0  0  0  0  0  0  0
   37.9600   31.6240   47.2020 C   0  0  0  0  0  0  0  0  0  0  0  0
   37.4750   30.6110   47.9240 N   0  0  0  0  0  0  0  0  0  0  0  0
   38.4750   31.6530   50.9580 H   0  0  0  0  0  0  0  0  0  0  0  0
   39.3430   33.4700   49.6440 H   0  0  0  0  0  0  0  0  0  0  0  0
   39.8980   33.3210   45.7930 Cl  0  0  0  0  0  0  0  0  0  0  0  0
   38.6290   32.4100   44.9710 C   0  0  0  0  0  0  0  0  0  0  0  0
   37.7820   31.6480   45.7530 C   0  0  0  0  0  0  0  0  0  0  0  0
   36.7740   30.9190   45.1590 C   0  0  0  0  0  0  0  0  0  0  0  0
   36.0880   30.3090   45.7310 H   0  0  0  0  0  0  0  0  0  0  0  0
   36.6160   30.9520   43.7690 C   0  0  0  0  0  0  0  0  0  0  0  0
   35.8390   30.3990   43.2280 H   0  0  0  0  0  0  0  0  0  0  0  0
   37.4880   31.7280   43.0350 C   0  0  0  0  0  0  0  0  0  0  0  0
   37.3750   31.7610   41.9620 H   0  0  0  0  0  0  0  0  0  0  0  0
   38.4940   32.4590   43.6110 C   0  0  0  0  0  0  0  0  0  0  0  0
   39.6200   33.4580   42.6920 Cl  0  0  0  0  0  0  0  0  0  0  0  0
  1 22  1  0  0  0  0
  1  2  2  0  0  0  0
  2  6  1  0  0  0  0
  3  7  1  0  0  0  0
  3  2  1  0  0  0  0
  4  3  2  0  0  0  0
  5  4  1  0  0  0  0
  5  1  1  0  0  0  0
  8  9  1  0  0  0  0
  9 10  2  0  0  0  0
  9  4  1  0  0  0  0
 10 18  1  0  0  0  0
 11 10  1  0  0  0  0
 12 11  1  0  0  0  0
 12 19  1  0  0  0  0
 13 12  1  0  0  0  0
 14 13  2  0  0  0  0
 14 15  1  0  0  0  0
 15 11  2  0  0  0  0
 16 15  1  0  0  0  0
 16  8  2  0  0  0  0
 17  8  1  0  0  0  0
 20 14  1  0  0  0  0
 21 16  1  0  0  0  0
 22 23  2  0  0  0  0
 24 25  1  0  0  0  0
 24 22  1  0  0  0  0
 25 30  1  0  0  0  0
 26 31  1  0  0  0  0
 26 25  2  0  0  0  0
 27 26  1  0  0  0  0
 28 27  2  0  0  0  0
 28 29  1  0  0  0  0
 29 24  2  0  0  0  0
 33 34  1  0  0  0  0
 33 32  1  0  0  0  0
 34 28  1  0  0  0  0
 35 36  1  0  0  0  0
 35 34  2  0  0  0  0
 37 35  1  0  0  0  0
 38 37  1  0  0  0  0
 39 41  1  0  0  0  0
 39 37  2  0  0  0  0
 40 39  1  0  0  0  0
 41 33  2  0  0  0  0
 42 41  1  0  0  0  0
M  END
>  <minimizedAffinity>
-7.18693352

>  <minimizedRMSD>
0.71068567

$$$$
