
 OpenBabel03272502033D

 44 48  0  0  0  0  0  0  0  0999 V2000
   37.5930   26.1990   35.2950 C   0  0  0  0  0  0  0  0  0  0  0  0
   36.5060   26.0500   35.2010 H   0  0  0  0  0  0  0  0  0  0  0  0
   37.8890   27.1060   35.8620 H   0  0  0  0  0  0  0  0  0  0  0  0
   38.2450   25.0360   36.0150 C   0  0  0  0  0  0  0  0  0  0  0  0
   37.8240   24.3930   37.1550 C   0  0  0  0  0  0  0  0  0  0  0  0
   38.7330   23.3860   37.4580 C   0  0  0  0  0  0  0  0  0  0  0  0
   39.6750   23.4550   36.4880 N   0  0  0  0  0  0  0  0  0  0  0  0
   39.3780   24.4220   35.6520 N   0  0  0  0  0  0  0  0  0  0  0  0
   40.9690   21.5080   37.3910 N   0  0  0  0  0  0  0  0  0  0  0  0
   40.7520   22.5280   36.5400 C   0  0  0  0  0  0  0  0  0  0  0  0
   41.8070   22.5370   35.6700 N   0  0  0  0  0  0  0  0  0  0  0  0
   42.6540   21.5500   35.9730 C   0  0  0  0  0  0  0  0  0  0  0  0
   43.8420   21.1720   35.3840 C   0  0  0  0  0  0  0  0  0  0  0  0
   44.5090   20.1230   35.8980 N   0  0  0  0  0  0  0  0  0  0  0  0
   44.0100   19.4650   36.9710 C   0  0  0  0  0  0  0  0  0  0  0  0
   42.8360   19.8440   37.5450 N   0  0  0  0  0  0  0  0  0  0  0  0
   42.1350   20.8880   37.0630 C   0  0  0  0  0  0  0  0  0  0  0  0
   36.9360   24.6490   37.7010 H   0  0  0  0  0  0  0  0  0  0  0  0
   38.6040   22.7410   38.3270 H   0  0  0  0  0  0  0  0  0  0  0  0
   40.3430   21.2330   38.1810 H   0  0  0  0  0  0  0  0  0  0  0  0
   44.2660   21.6830   34.5210 H   0  0  0  0  0  0  0  0  0  0  0  0
   44.5530   18.6210   37.3790 H   0  0  0  0  0  0  0  0  0  0  0  0
   38.1980   26.2080   33.9230 C   0  0  0  0  0  0  0  0  0  0  0  0
   39.1780   25.6620   33.8870 H   0  0  0  0  0  0  0  0  0  0  0  0
   38.4260   27.2450   33.5780 H   0  0  0  0  0  0  0  0  0  0  0  0
   35.6170   25.9040   31.2810 C   0  0  0  0  0  0  0  0  0  0  0  0
   35.5120   24.5090   31.1680 C   0  0  0  0  0  0  0  0  0  0  0  0
   36.3260   23.6730   31.9920 C   0  0  0  0  0  0  0  0  0  0  0  0
   37.1730   24.2690   32.8570 N   0  0  0  0  0  0  0  0  0  0  0  0
   37.2420   25.6340   32.9350 C   0  0  0  0  0  0  0  0  0  0  0  0
   36.4850   26.4190   32.1670 N   0  0  0  0  0  0  0  0  0  0  0  0
   35.0810   26.6400   30.7390 H   0  0  0  0  0  0  0  0  0  0  0  0
   34.7880   24.2920   30.4250 H   0  0  0  0  0  0  0  0  0  0  0  0
   38.4080   22.1450   30.2930 Cl  0  0  0  0  0  0  0  0  0  0  0  0
   36.9880   21.4730   31.0180 C   0  0  0  0  0  0  0  0  0  0  0  0
   36.1390   22.2570   31.7510 C   0  0  0  0  0  0  0  0  0  0  0  0
   35.0580   21.5550   32.2320 C   0  0  0  0  0  0  0  0  0  0  0  0
   34.2900   22.0090   32.8330 H   0  0  0  0  0  0  0  0  0  0  0  0
   34.8360   20.2370   32.0160 C   0  0  0  0  0  0  0  0  0  0  0  0
   33.9810   19.7020   32.4000 H   0  0  0  0  0  0  0  0  0  0  0  0
   35.7110   19.4810   31.2730 C   0  0  0  0  0  0  0  0  0  0  0  0
   35.5410   18.4280   31.0960 H   0  0  0  0  0  0  0  0  0  0  0  0
   36.8220   20.1290   30.7610 C   0  0  0  0  0  0  0  0  0  0  0  0
   37.9410   19.1670   29.8130 Cl  0  0  0  0  0  0  0  0  0  0  0  0
  1  3  1  0  0  0  0
  1  4  1  0  0  0  0
  2  1  1  0  0  0  0
  4  5  1  0  0  0  0
  5  6  2  0  0  0  0
  5 18  1  0  0  0  0
  6 19  1  0  0  0  0
  7 10  1  0  0  0  0
  7  6  1  0  0  0  0
  8  4  2  0  0  0  0
  8  7  1  0  0  0  0
  9 20  1  0  0  0  0
 10  9  1  0  0  0  0
 11 12  1  0  0  0  0
 11 10  2  0  0  0  0
 12 17  1  0  0  0  0
 13 14  1  0  0  0  0
 13 12  2  0  0  0  0
 14 15  2  0  0  0  0
 15 22  1  0  0  0  0
 15 16  1  0  0  0  0
 17  9  1  0  0  0  0
 17 16  2  0  0  0  0
 21 13  1  0  0  0  0
 23  1  1  0  0  0  0
 24 23  1  0  0  0  0
 25 23  1  0  0  0  0
 26 31  1  0  0  0  0
 27 26  2  0  0  0  0
 27 28  1  0  0  0  0
 28 29  2  0  0  0  0
 29 30  1  0  0  0  0
 30 23  1  0  0  0  0
 31 30  2  0  0  0  0
 32 26  1  0  0  0  0
 33 27  1  0  0  0  0
 34 35  1  0  0  0  0
 35 36  1  0  0  0  0
 36 28  1  0  0  0  0
 36 37  2  0  0  0  0
 37 38  1  0  0  0  0
 39 37  1  0  0  0  0
 39 40  1  0  0  0  0
 41 39  2  0  0  0  0
 42 41  1  0  0  0  0
 43 35  2  0  0  0  0
 43 41  1  0  0  0  0
 44 43  1  0  0  0  0
M  END
>  <minimizedAffinity>
-6.98449421

$$$$

 OpenBabel03272502033D

 44 48  0  0  0  0  0  0  0  0999 V2000
   37.7730   26.3810   35.8770 C   0  0  0  0  0  0  0  0  0  0  0  0
   36.7920   26.5840   36.3330 H   0  0  0  0  0  0  0  0  0  0  0  0
   38.5480   27.1480   36.0840 H   0  0  0  0  0  0  0  0  0  0  0  0
   38.3500   25.0720   36.3780 C   0  0  0  0  0  0  0  0  0  0  0  0
   37.7890   24.1700   37.2510 C   0  0  0  0  0  0  0  0  0  0  0  0
   38.6740   23.1140   37.4280 C   0  0  0  0  0  0  0  0  0  0  0  0
   39.7440   23.4140   36.6540 N   0  0  0  0  0  0  0  0  0  0  0  0
   39.5410   24.5590   36.0470 N   0  0  0  0  0  0  0  0  0  0  0  0
   40.9520   21.2960   37.2320 N   0  0  0  0  0  0  0  0  0  0  0  0
   40.8300   22.4960   36.6350 C   0  0  0  0  0  0  0  0  0  0  0  0
   41.9980   22.7130   35.9590 N   0  0  0  0  0  0  0  0  0  0  0  0
   42.8220   21.6760   36.1320 C   0  0  0  0  0  0  0  0  0  0  0  0
   44.0940   21.4480   35.6490 C   0  0  0  0  0  0  0  0  0  0  0  0
   44.7100   20.3010   35.9830 N   0  0  0  0  0  0  0  0  0  0  0  0
   44.0830   19.4010   36.7750 C   0  0  0  0  0  0  0  0  0  0  0  0
   42.8270   19.6340   37.2460 N   0  0  0  0  0  0  0  0  0  0  0  0
   42.1720   20.7690   36.9370 C   0  0  0  0  0  0  0  0  0  0  0  0
   36.8240   24.2890   37.7060 H   0  0  0  0  0  0  0  0  0  0  0  0
   38.4410   22.2740   38.0820 H   0  0  0  0  0  0  0  0  0  0  0  0
   40.2280   20.8390   37.8290 H   0  0  0  0  0  0  0  0  0  0  0  0
   44.6220   22.1540   35.0110 H   0  0  0  0  0  0  0  0  0  0  0  0
   44.5860   18.4790   37.0390 H   0  0  0  0  0  0  0  0  0  0  0  0
   37.5900   26.1960   34.4000 C   0  0  0  0  0  0  0  0  0  0  0  0
   37.1010   25.2170   34.1520 H   0  0  0  0  0  0  0  0  0  0  0  0
   38.5660   26.1840   33.8600 H   0  0  0  0  0  0  0  0  0  0  0  0
   35.7960   28.4030   32.0230 C   0  0  0  0  0  0  0  0  0  0  0  0
   35.3880   29.4400   32.8770 C   0  0  0  0  0  0  0  0  0  0  0  0
   35.7220   29.3830   34.2640 C   0  0  0  0  0  0  0  0  0  0  0  0
   36.4280   28.3200   34.7020 N   0  0  0  0  0  0  0  0  0  0  0  0
   36.8070   27.3300   33.8340 C   0  0  0  0  0  0  0  0  0  0  0  0
   36.4950   27.3780   32.5370 N   0  0  0  0  0  0  0  0  0  0  0  0
   35.6200   28.3130   30.9820 H   0  0  0  0  0  0  0  0  0  0  0  0
   34.8510   30.1500   32.3000 H   0  0  0  0  0  0  0  0  0  0  0  0
   32.7650   29.3720   35.1630 Cl  0  0  0  0  0  0  0  0  0  0  0  0
   33.9280   30.6120   35.4880 C   0  0  0  0  0  0  0  0  0  0  0  0
   35.2140   30.5000   35.0330 C   0  0  0  0  0  0  0  0  0  0  0  0
   35.9860   31.5870   35.3710 C   0  0  0  0  0  0  0  0  0  0  0  0
   37.0250   31.6700   35.1000 H   0  0  0  0  0  0  0  0  0  0  0  0
   35.5480   32.6590   36.0720 C   0  0  0  0  0  0  0  0  0  0  0  0
   36.1680   33.5030   36.3260 H   0  0  0  0  0  0  0  0  0  0  0  0
   34.2480   32.7350   36.5120 C   0  0  0  0  0  0  0  0  0  0  0  0
   33.8890   33.5870   37.0730 H   0  0  0  0  0  0  0  0  0  0  0  0
   33.4180   31.6710   36.2050 C   0  0  0  0  0  0  0  0  0  0  0  0
   31.7580   31.7670   36.7670 Cl  0  0  0  0  0  0  0  0  0  0  0  0
  1  3  1  0  0  0  0
  1  2  1  0  0  0  0
  1  4  1  0  0  0  0
  4  5  1  0  0  0  0
  5  6  2  0  0  0  0
  5 18  1  0  0  0  0
  6 19  1  0  0  0  0
  7  6  1  0  0  0  0
  8  4  2  0  0  0  0
  8  7  1  0  0  0  0
  9 20  1  0  0  0  0
 10  7  1  0  0  0  0
 10  9  1  0  0  0  0
 11 12  1  0  0  0  0
 11 10  2  0  0  0  0
 12 17  1  0  0  0  0
 13 14  1  0  0  0  0
 13 12  2  0  0  0  0
 14 15  2  0  0  0  0
 15 22  1  0  0  0  0
 15 16  1  0  0  0  0
 17  9  1  0  0  0  0
 17 16  2  0  0  0  0
 21 13  1  0  0  0  0
 23  1  1  0  0  0  0
 24 23  1  0  0  0  0
 25 23  1  0  0  0  0
 26 31  2  0  0  0  0
 26 27  1  0  0  0  0
 27 28  2  0  0  0  0
 28 29  1  0  0  0  0
 28 36  1  0  0  0  0
 30 23  1  0  0  0  0
 30 29  2  0  0  0  0
 31 30  1  0  0  0  0
 32 26  1  0  0  0  0
 33 27  1  0  0  0  0
 34 35  1  0  0  0  0
 35 43  1  0  0  0  0
 36 37  1  0  0  0  0
 36 35  2  0  0  0  0
 37 39  2  0  0  0  0
 38 37  1  0  0  0  0
 39 40  1  0  0  0  0
 39 41  1  0  0  0  0
 41 42  1  0  0  0  0
 43 41  2  0  0  0  0
 43 44  1  0  0  0  0
M  END
>  <minimizedAffinity>
-6.83362722

$$$$

 OpenBabel03272502033D

 44 48  0  0  0  0  0  0  0  0999 V2000
   35.8080   28.1040   31.3280 C   0  0  0  0  0  0  0  0  0  0  0  0
   35.2030   27.6640   30.5210 H   0  0  0  0  0  0  0  0  0  0  0  0
   35.2230   28.4700   32.1980 H   0  0  0  0  0  0  0  0  0  0  0  0
   36.7890   27.0940   31.8910 C   0  0  0  0  0  0  0  0  0  0  0  0
   37.7740   26.4010   31.2280 C   0  0  0  0  0  0  0  0  0  0  0  0
   38.4290   25.5820   32.1390 C   0  0  0  0  0  0  0  0  0  0  0  0
   37.8160   25.8080   33.3250 N   0  0  0  0  0  0  0  0  0  0  0  0
   36.8600   26.6930   33.1650 N   0  0  0  0  0  0  0  0  0  0  0  0
   39.3190   24.2420   34.5780 N   0  0  0  0  0  0  0  0  0  0  0  0
   38.2830   25.0940   34.4630 C   0  0  0  0  0  0  0  0  0  0  0  0
   37.7050   25.1700   35.6990 N   0  0  0  0  0  0  0  0  0  0  0  0
   38.3650   24.3880   36.5580 C   0  0  0  0  0  0  0  0  0  0  0  0
   38.1530   24.1450   37.8990 C   0  0  0  0  0  0  0  0  0  0  0  0
   38.9800   23.2970   38.5360 N   0  0  0  0  0  0  0  0  0  0  0  0
   39.9920   22.7050   37.8610 C   0  0  0  0  0  0  0  0  0  0  0  0
   40.1950   22.9510   36.5390 N   0  0  0  0  0  0  0  0  0  0  0  0
   39.3920   23.7930   35.8600 C   0  0  0  0  0  0  0  0  0  0  0  0
   37.9810   26.4970   30.1790 H   0  0  0  0  0  0  0  0  0  0  0  0
   39.2530   24.9350   31.8390 H   0  0  0  0  0  0  0  0  0  0  0  0
   39.9670   23.9670   33.8060 H   0  0  0  0  0  0  0  0  0  0  0  0
   37.3460   24.6080   38.4650 H   0  0  0  0  0  0  0  0  0  0  0  0
   40.6540   22.0230   38.3820 H   0  0  0  0  0  0  0  0  0  0  0  0
   36.6520   29.2020   30.7550 C   0  0  0  0  0  0  0  0  0  0  0  0
   36.4480   29.3690   29.6640 H   0  0  0  0  0  0  0  0  0  0  0  0
   37.7410   28.9640   30.8180 H   0  0  0  0  0  0  0  0  0  0  0  0
   36.7100   32.7700   31.7570 C   0  0  0  0  0  0  0  0  0  0  0  0
   36.0520   32.7110   32.9950 C   0  0  0  0  0  0  0  0  0  0  0  0
   35.5860   31.4530   33.4850 C   0  0  0  0  0  0  0  0  0  0  0  0
   35.8010   30.3590   32.7270 N   0  0  0  0  0  0  0  0  0  0  0  0
   36.4490   30.4620   31.5250 C   0  0  0  0  0  0  0  0  0  0  0  0
   36.8850   31.6350   31.0620 N   0  0  0  0  0  0  0  0  0  0  0  0
   37.1050   33.6260   31.2730 H   0  0  0  0  0  0  0  0  0  0  0  0
   36.0040   33.6940   33.3910 H   0  0  0  0  0  0  0  0  0  0  0  0
   32.7370   30.2820   33.7460 Cl  0  0  0  0  0  0  0  0  0  0  0  0
   33.6400   31.0620   34.9980 C   0  0  0  0  0  0  0  0  0  0  0  0
   34.8990   31.5410   34.7580 C   0  0  0  0  0  0  0  0  0  0  0  0
   35.4510   32.1440   35.8640 C   0  0  0  0  0  0  0  0  0  0  0  0
   36.4380   32.5750   35.8610 H   0  0  0  0  0  0  0  0  0  0  0  0
   34.8390   32.2640   37.0660 C   0  0  0  0  0  0  0  0  0  0  0  0
   35.2870   32.7410   37.9220 H   0  0  0  0  0  0  0  0  0  0  0  0
   33.5730   31.7700   37.2690 C   0  0  0  0  0  0  0  0  0  0  0  0
   33.0760   31.8610   38.2250 H   0  0  0  0  0  0  0  0  0  0  0  0
   32.9610   31.1490   36.1940 C   0  0  0  0  0  0  0  0  0  0  0  0
   31.3440   30.5180   36.4520 Cl  0  0  0  0  0  0  0  0  0  0  0  0
  1  4  1  0  0  0  0
  1  3  1  0  0  0  0
  2  1  1  0  0  0  0
  4  8  2  0  0  0  0
  5  4  1  0  0  0  0
  5  6  2  0  0  0  0
  6  7  1  0  0  0  0
  7 10  1  0  0  0  0
  8  7  1  0  0  0  0
  9 17  1  0  0  0  0
 10  9  1  0  0  0  0
 10 11  2  0  0  0  0
 11 12  1  0  0  0  0
 12 13  1  0  0  0  0
 13 21  1  0  0  0  0
 13 14  2  0  0  0  0
 15 22  1  0  0  0  0
 15 14  1  0  0  0  0
 16 15  2  0  0  0  0
 17 16  1  0  0  0  0
 17 12  2  0  0  0  0
 18  5  1  0  0  0  0
 19  6  1  0  0  0  0
 20  9  1  0  0  0  0
 23 25  1  0  0  0  0
 23  1  1  0  0  0  0
 23 30  1  0  0  0  0
 24 23  1  0  0  0  0
 26 27  1  0  0  0  0
 27 33  1  0  0  0  0
 27 28  2  0  0  0  0
 28 36  1  0  0  0  0
 29 28  1  0  0  0  0
 30 29  2  0  0  0  0
 31 30  1  0  0  0  0
 31 26  2  0  0  0  0
 32 26  1  0  0  0  0
 34 35  1  0  0  0  0
 35 43  1  0  0  0  0
 36 35  2  0  0  0  0
 36 37  1  0  0  0  0
 37 39  2  0  0  0  0
 38 37  1  0  0  0  0
 39 41  1  0  0  0  0
 39 40  1  0  0  0  0
 41 42  1  0  0  0  0
 43 44  1  0  0  0  0
 43 41  2  0  0  0  0
M  END
>  <minimizedAffinity>
-6.72306061

$$$$

 OpenBabel03272502033D

 44 48  0  0  0  0  0  0  0  0999 V2000
   36.3570   26.1450   31.5230 C   0  0  0  0  0  0  0  0  0  0  0  0
   36.1640   25.5950   32.4570 H   0  0  0  0  0  0  0  0  0  0  0  0
   35.6810   25.8810   30.6820 H   0  0  0  0  0  0  0  0  0  0  0  0
   36.1970   27.6380   31.7220 C   0  0  0  0  0  0  0  0  0  0  0  0
   36.3260   28.6420   30.7910 C   0  0  0  0  0  0  0  0  0  0  0  0
   36.0970   29.8610   31.4180 C   0  0  0  0  0  0  0  0  0  0  0  0
   35.8360   29.5520   32.7100 N   0  0  0  0  0  0  0  0  0  0  0  0
   35.8980   28.2510   32.8740 N   0  0  0  0  0  0  0  0  0  0  0  0
   35.4440   31.9390   33.3640 N   0  0  0  0  0  0  0  0  0  0  0  0
   35.5590   30.6200   33.6070 C   0  0  0  0  0  0  0  0  0  0  0  0
   35.3560   30.4540   34.9490 N   0  0  0  0  0  0  0  0  0  0  0  0
   35.1210   31.6370   35.5220 C   0  0  0  0  0  0  0  0  0  0  0  0
   34.8640   31.9640   36.8370 C   0  0  0  0  0  0  0  0  0  0  0  0
   34.6600   33.2560   37.1490 N   0  0  0  0  0  0  0  0  0  0  0  0
   34.7100   34.2010   36.1820 C   0  0  0  0  0  0  0  0  0  0  0  0
   34.9630   33.8700   34.8870 N   0  0  0  0  0  0  0  0  0  0  0  0
   35.1730   32.5890   34.5290 C   0  0  0  0  0  0  0  0  0  0  0  0
   36.5660   28.4810   29.7570 H   0  0  0  0  0  0  0  0  0  0  0  0
   36.1460   30.8040   30.8730 H   0  0  0  0  0  0  0  0  0  0  0  0
   35.5460   32.3950   32.4310 H   0  0  0  0  0  0  0  0  0  0  0  0
   34.8180   31.2240   37.6350 H   0  0  0  0  0  0  0  0  0  0  0  0
   34.5450   35.2400   36.4420 H   0  0  0  0  0  0  0  0  0  0  0  0
   37.7920   25.9460   31.1350 C   0  0  0  0  0  0  0  0  0  0  0  0
   38.1010   26.6180   30.2910 H   0  0  0  0  0  0  0  0  0  0  0  0
   37.9820   24.9090   30.7690 H   0  0  0  0  0  0  0  0  0  0  0  0
   40.4260   27.2660   33.3830 C   0  0  0  0  0  0  0  0  0  0  0  0
   40.2580   26.4410   34.5050 C   0  0  0  0  0  0  0  0  0  0  0  0
   39.2430   25.4370   34.4950 C   0  0  0  0  0  0  0  0  0  0  0  0
   38.4770   25.3210   33.3910 N   0  0  0  0  0  0  0  0  0  0  0  0
   38.6760   26.1470   32.3170 C   0  0  0  0  0  0  0  0  0  0  0  0
   39.6230   27.0880   32.3210 N   0  0  0  0  0  0  0  0  0  0  0  0
   41.1320   28.0460   33.2510 H   0  0  0  0  0  0  0  0  0  0  0  0
   40.9710   26.7290   35.2360 H   0  0  0  0  0  0  0  0  0  0  0  0
   41.2760   23.1660   35.0110 Cl  0  0  0  0  0  0  0  0  0  0  0  0
   39.9980   23.6550   36.0710 C   0  0  0  0  0  0  0  0  0  0  0  0
   39.1590   24.6800   35.7280 C   0  0  0  0  0  0  0  0  0  0  0  0
   38.1970   24.9120   36.6830 C   0  0  0  0  0  0  0  0  0  0  0  0
   37.4530   25.6850   36.5840 H   0  0  0  0  0  0  0  0  0  0  0  0
   38.0720   24.2190   37.8390 C   0  0  0  0  0  0  0  0  0  0  0  0
   37.3090   24.4140   38.5760 H   0  0  0  0  0  0  0  0  0  0  0  0
   38.9340   23.1940   38.1480 C   0  0  0  0  0  0  0  0  0  0  0  0
   38.8420   22.6350   39.0690 H   0  0  0  0  0  0  0  0  0  0  0  0
   39.9280   22.9100   37.2280 C   0  0  0  0  0  0  0  0  0  0  0  0
   41.0300   21.6030   37.6210 Cl  0  0  0  0  0  0  0  0  0  0  0  0
  1  4  1  0  0  0  0
  1  2  1  0  0  0  0
  3  1  1  0  0  0  0
  4  8  2  0  0  0  0
  5  6  2  0  0  0  0
  5  4  1  0  0  0  0
  6  7  1  0  0  0  0
  7  8  1  0  0  0  0
  7 10  1  0  0  0  0
  9 10  1  0  0  0  0
  9 17  1  0  0  0  0
 10 11  2  0  0  0  0
 11 12  1  0  0  0  0
 12 13  1  0  0  0  0
 13 14  2  0  0  0  0
 13 21  1  0  0  0  0
 15 22  1  0  0  0  0
 15 14  1  0  0  0  0
 16 15  2  0  0  0  0
 17 16  1  0  0  0  0
 17 12  2  0  0  0  0
 18  5  1  0  0  0  0
 19  6  1  0  0  0  0
 20  9  1  0  0  0  0
 23  1  1  0  0  0  0
 23 30  1  0  0  0  0
 24 23  1  0  0  0  0
 25 23  1  0  0  0  0
 26 27  1  0  0  0  0
 27 33  1  0  0  0  0
 28 27  2  0  0  0  0
 28 36  1  0  0  0  0
 29 28  1  0  0  0  0
 30 31  1  0  0  0  0
 30 29  2  0  0  0  0
 31 26  2  0  0  0  0
 32 26  1  0  0  0  0
 34 35  1  0  0  0  0
 35 43  1  0  0  0  0
 36 35  2  0  0  0  0
 36 37  1  0  0  0  0
 37 39  2  0  0  0  0
 38 37  1  0  0  0  0
 39 41  1  0  0  0  0
 39 40  1  0  0  0  0
 41 42  1  0  0  0  0
 43 44  1  0  0  0  0
 43 41  2  0  0  0  0
M  END
>  <minimizedAffinity>
-6.70329475

$$$$

 OpenBabel03272502033D

 44 48  0  0  0  0  0  0  0  0999 V2000
   39.0290   26.7430   35.6180 C   0  0  0  0  0  0  0  0  0  0  0  0
   39.8710   26.2330   35.1250 H   0  0  0  0  0  0  0  0  0  0  0  0
   39.3200   27.5970   36.2650 H   0  0  0  0  0  0  0  0  0  0  0  0
   38.0590   27.3100   34.6020 C   0  0  0  0  0  0  0  0  0  0  0  0
   38.1010   27.2060   33.2320 C   0  0  0  0  0  0  0  0  0  0  0  0
   37.0100   27.8840   32.7010 C   0  0  0  0  0  0  0  0  0  0  0  0
   36.3440   28.3770   33.7720 N   0  0  0  0  0  0  0  0  0  0  0  0
   36.9680   28.0350   34.8750 N   0  0  0  0  0  0  0  0  0  0  0  0
   34.5310   29.3940   32.3730 N   0  0  0  0  0  0  0  0  0  0  0  0
   35.1620   29.1310   33.5320 C   0  0  0  0  0  0  0  0  0  0  0  0
   34.4410   29.7480   34.5150 N   0  0  0  0  0  0  0  0  0  0  0  0
   33.3900   30.3760   33.9800 C   0  0  0  0  0  0  0  0  0  0  0  0
   32.3920   31.1230   34.5710 C   0  0  0  0  0  0  0  0  0  0  0  0
   31.4380   31.6540   33.7870 N   0  0  0  0  0  0  0  0  0  0  0  0
   31.4710   31.4500   32.4490 C   0  0  0  0  0  0  0  0  0  0  0  0
   32.4580   30.7110   31.8750 N   0  0  0  0  0  0  0  0  0  0  0  0
   33.4340   30.1600   32.6220 C   0  0  0  0  0  0  0  0  0  0  0  0
   38.8630   26.6800   32.6870 H   0  0  0  0  0  0  0  0  0  0  0  0
   36.8340   27.9360   31.6270 H   0  0  0  0  0  0  0  0  0  0  0  0
   34.8330   29.0640   31.4290 H   0  0  0  0  0  0  0  0  0  0  0  0
   32.3420   31.3030   35.6440 H   0  0  0  0  0  0  0  0  0  0  0  0
   30.6980   31.8810   31.8240 H   0  0  0  0  0  0  0  0  0  0  0  0
   38.2430   25.7300   36.3970 C   0  0  0  0  0  0  0  0  0  0  0  0
   37.1370   25.9080   36.3290 H   0  0  0  0  0  0  0  0  0  0  0  0
   38.4810   25.7700   37.4860 H   0  0  0  0  0  0  0  0  0  0  0  0
   39.7590   22.3540   36.1990 C   0  0  0  0  0  0  0  0  0  0  0  0
   39.1580   21.8590   35.0310 C   0  0  0  0  0  0  0  0  0  0  0  0
   38.2330   22.6770   34.3140 C   0  0  0  0  0  0  0  0  0  0  0  0
   37.9720   23.9100   34.7960 N   0  0  0  0  0  0  0  0  0  0  0  0
   38.5820   24.3540   35.9390 C   0  0  0  0  0  0  0  0  0  0  0  0
   39.4460   23.5930   36.6130 N   0  0  0  0  0  0  0  0  0  0  0  0
   40.4570   21.8630   36.8270 H   0  0  0  0  0  0  0  0  0  0  0  0
   39.5210   20.8760   34.8650 H   0  0  0  0  0  0  0  0  0  0  0  0
   35.7990   20.8040   34.6600 Cl  0  0  0  0  0  0  0  0  0  0  0  0
   36.5930   21.1840   33.1710 C   0  0  0  0  0  0  0  0  0  0  0  0
   37.6660   22.0320   33.1470 C   0  0  0  0  0  0  0  0  0  0  0  0
   38.1760   22.2000   31.8800 C   0  0  0  0  0  0  0  0  0  0  0  0
   39.0190   22.8360   31.6710 H   0  0  0  0  0  0  0  0  0  0  0  0
   37.6890   21.6040   30.7670 C   0  0  0  0  0  0  0  0  0  0  0  0
   38.1020   21.7460   29.7810 H   0  0  0  0  0  0  0  0  0  0  0  0
   36.6080   20.7570   30.8300 C   0  0  0  0  0  0  0  0  0  0  0  0
   36.2130   20.2760   29.9460 H   0  0  0  0  0  0  0  0  0  0  0  0
   36.0480   20.5460   32.0780 C   0  0  0  0  0  0  0  0  0  0  0  0
   34.6670   19.4660   32.1610 Cl  0  0  0  0  0  0  0  0  0  0  0  0
  1  3  1  0  0  0  0
  1 23  1  0  0  0  0
  2  1  1  0  0  0  0
  4  8  2  0  0  0  0
  4  1  1  0  0  0  0
  5  4  1  0  0  0  0
  6  5  2  0  0  0  0
  6  7  1  0  0  0  0
  7  8  1  0  0  0  0
  9 17  1  0  0  0  0
  9 10  1  0  0  0  0
 10  7  1  0  0  0  0
 10 11  2  0  0  0  0
 12 11  1  0  0  0  0
 12 13  1  0  0  0  0
 13 21  1  0  0  0  0
 14 13  2  0  0  0  0
 15 14  1  0  0  0  0
 16 15  2  0  0  0  0
 16 17  1  0  0  0  0
 17 12  2  0  0  0  0
 18  5  1  0  0  0  0
 19  6  1  0  0  0  0
 20  9  1  0  0  0  0
 22 15  1  0  0  0  0
 23 25  1  0  0  0  0
 24 23  1  0  0  0  0
 26 31  1  0  0  0  0
 26 32  1  0  0  0  0
 27 26  2  0  0  0  0
 28 29  2  0  0  0  0
 28 27  1  0  0  0  0
 29 30  1  0  0  0  0
 30 23  1  0  0  0  0
 30 31  2  0  0  0  0
 33 27  1  0  0  0  0
 35 34  1  0  0  0  0
 36 35  1  0  0  0  0
 36 28  1  0  0  0  0
 37 36  2  0  0  0  0
 38 37  1  0  0  0  0
 39 41  2  0  0  0  0
 39 37  1  0  0  0  0
 40 39  1  0  0  0  0
 41 43  1  0  0  0  0
 42 41  1  0  0  0  0
 43 44  1  0  0  0  0
 43 35  2  0  0  0  0
M  END
>  <minimizedAffinity>
-6.44049311

$$$$

 OpenBabel03272502033D

 44 48  0  0  0  0  0  0  0  0999 V2000
   37.3140   27.6620   30.7210 C   0  0  0  0  0  0  0  0  0  0  0  0
   36.7890   26.7270   30.4740 H   0  0  0  0  0  0  0  0  0  0  0  0
   37.8690   28.1190   29.8750 H   0  0  0  0  0  0  0  0  0  0  0  0
   36.3460   28.7260   31.1970 C   0  0  0  0  0  0  0  0  0  0  0  0
   36.1140   29.9700   30.6590 C   0  0  0  0  0  0  0  0  0  0  0  0
   35.1450   30.6100   31.4230 C   0  0  0  0  0  0  0  0  0  0  0  0
   34.8240   29.7280   32.3990 N   0  0  0  0  0  0  0  0  0  0  0  0
   35.5320   28.6330   32.2550 N   0  0  0  0  0  0  0  0  0  0  0  0
   33.0930   31.2350   33.4070 N   0  0  0  0  0  0  0  0  0  0  0  0
   33.8390   30.1160   33.3490 C   0  0  0  0  0  0  0  0  0  0  0  0
   33.4790   29.3550   34.4260 N   0  0  0  0  0  0  0  0  0  0  0  0
   32.5350   29.9850   35.1320 C   0  0  0  0  0  0  0  0  0  0  0  0
   31.8730   29.6110   36.2830 C   0  0  0  0  0  0  0  0  0  0  0  0
   30.9530   30.4480   36.7940 N   0  0  0  0  0  0  0  0  0  0  0  0
   30.6950   31.6260   36.1800 C   0  0  0  0  0  0  0  0  0  0  0  0
   31.3510   31.9860   35.0440 N   0  0  0  0  0  0  0  0  0  0  0  0
   32.2810   31.1790   34.4960 C   0  0  0  0  0  0  0  0  0  0  0  0
   36.6130   30.3580   29.7920 H   0  0  0  0  0  0  0  0  0  0  0  0
   34.7980   31.6150   31.1840 H   0  0  0  0  0  0  0  0  0  0  0  0
   33.1310   32.0250   32.7240 H   0  0  0  0  0  0  0  0  0  0  0  0
   32.0620   28.6700   36.7970 H   0  0  0  0  0  0  0  0  0  0  0  0
   29.9510   32.2940   36.5980 H   0  0  0  0  0  0  0  0  0  0  0  0
   38.2290   27.4080   31.8810 C   0  0  0  0  0  0  0  0  0  0  0  0
   38.0870   28.1560   32.7060 H   0  0  0  0  0  0  0  0  0  0  0  0
   39.3030   27.4930   31.5890 H   0  0  0  0  0  0  0  0  0  0  0  0
   37.4070   23.7980   32.0590 C   0  0  0  0  0  0  0  0  0  0  0  0
   37.7040   23.5220   33.4030 C   0  0  0  0  0  0  0  0  0  0  0  0
   38.1880   24.5680   34.2460 C   0  0  0  0  0  0  0  0  0  0  0  0
   38.3410   25.7960   33.7080 N   0  0  0  0  0  0  0  0  0  0  0  0
   38.0380   26.0220   32.3920 C   0  0  0  0  0  0  0  0  0  0  0  0
   37.5870   25.0470   31.5990 N   0  0  0  0  0  0  0  0  0  0  0  0
   37.0440   23.1270   31.3240 H   0  0  0  0  0  0  0  0  0  0  0  0
   37.5060   22.4950   33.5800 H   0  0  0  0  0  0  0  0  0  0  0  0
   40.5550   22.6400   34.7330 Cl  0  0  0  0  0  0  0  0  0  0  0  0
   39.5000   23.2900   35.9410 C   0  0  0  0  0  0  0  0  0  0  0  0
   38.4830   24.1380   35.5980 C   0  0  0  0  0  0  0  0  0  0  0  0
   37.7410   24.5360   36.6860 C   0  0  0  0  0  0  0  0  0  0  0  0
   36.9030   25.2070   36.6050 H   0  0  0  0  0  0  0  0  0  0  0  0
   37.9700   24.1450   37.9620 C   0  0  0  0  0  0  0  0  0  0  0  0
   37.3770   24.4660   38.8030 H   0  0  0  0  0  0  0  0  0  0  0  0
   39.0030   23.2910   38.2680 C   0  0  0  0  0  0  0  0  0  0  0  0
   39.1930   22.9740   39.2840 H   0  0  0  0  0  0  0  0  0  0  0  0
   39.7890   22.8540   37.2160 C   0  0  0  0  0  0  0  0  0  0  0  0
   41.1080   21.7640   37.6040 Cl  0  0  0  0  0  0  0  0  0  0  0  0
  1  4  1  0  0  0  0
  1 23  1  0  0  0  0
  2  1  1  0  0  0  0
  3  1  1  0  0  0  0
  4  8  2  0  0  0  0
  5  4  1  0  0  0  0
  5  6  2  0  0  0  0
  6  7  1  0  0  0  0
  7 10  1  0  0  0  0
  8  7  1  0  0  0  0
  9 17  1  0  0  0  0
 10  9  1  0  0  0  0
 10 11  2  0  0  0  0
 11 12  1  0  0  0  0
 12 13  1  0  0  0  0
 13 14  2  0  0  0  0
 13 21  1  0  0  0  0
 15 22  1  0  0  0  0
 15 14  1  0  0  0  0
 16 15  2  0  0  0  0
 17 16  1  0  0  0  0
 17 12  2  0  0  0  0
 18  5  1  0  0  0  0
 19  6  1  0  0  0  0
 20  9  1  0  0  0  0
 23 30  1  0  0  0  0
 23 24  1  0  0  0  0
 25 23  1  0  0  0  0
 26 27  1  0  0  0  0
 27 33  1  0  0  0  0
 27 28  2  0  0  0  0
 28 36  1  0  0  0  0
 29 28  1  0  0  0  0
 30 29  2  0  0  0  0
 31 26  2  0  0  0  0
 31 30  1  0  0  0  0
 32 26  1  0  0  0  0
 34 35  1  0  0  0  0
 35 43  1  0  0  0  0
 36 35  2  0  0  0  0
 36 37  1  0  0  0  0
 37 39  2  0  0  0  0
 38 37  1  0  0  0  0
 39 41  1  0  0  0  0
 39 40  1  0  0  0  0
 41 42  1  0  0  0  0
 43 44  1  0  0  0  0
 43 41  2  0  0  0  0
M  END
>  <minimizedAffinity>
-6.43106508

$$$$

 OpenBabel03272502033D

 44 48  0  0  0  0  0  0  0  0999 V2000
   37.6290   26.9680   31.5880 C   0  0  0  0  0  0  0  0  0  0  0  0
   38.2320   27.8850   31.5030 H   0  0  0  0  0  0  0  0  0  0  0  0
   37.7950   26.2280   30.7770 H   0  0  0  0  0  0  0  0  0  0  0  0
   37.9250   26.2340   32.8790 C   0  0  0  0  0  0  0  0  0  0  0  0
   37.2850   26.3450   34.0910 C   0  0  0  0  0  0  0  0  0  0  0  0
   37.8950   25.4850   34.9960 C   0  0  0  0  0  0  0  0  0  0  0  0
   38.8860   24.8810   34.2990 N   0  0  0  0  0  0  0  0  0  0  0  0
   38.8930   25.3280   33.0650 N   0  0  0  0  0  0  0  0  0  0  0  0
   39.5980   23.4620   36.2380 N   0  0  0  0  0  0  0  0  0  0  0  0
   39.6960   23.9300   34.9800 C   0  0  0  0  0  0  0  0  0  0  0  0
   40.7740   23.3080   34.4170 N   0  0  0  0  0  0  0  0  0  0  0  0
   41.3300   22.4750   35.3020 C   0  0  0  0  0  0  0  0  0  0  0  0
   42.4240   21.6430   35.1890 C   0  0  0  0  0  0  0  0  0  0  0  0
   42.7760   20.8980   36.2520 N   0  0  0  0  0  0  0  0  0  0  0  0
   42.0610   20.9760   37.3990 C   0  0  0  0  0  0  0  0  0  0  0  0
   40.9820   21.7980   37.5000 N   0  0  0  0  0  0  0  0  0  0  0  0
   40.5940   22.5620   36.4610 C   0  0  0  0  0  0  0  0  0  0  0  0
   36.4530   26.9980   34.2780 H   0  0  0  0  0  0  0  0  0  0  0  0
   37.5540   25.4030   36.0280 H   0  0  0  0  0  0  0  0  0  0  0  0
   38.8730   23.7430   36.9350 H   0  0  0  0  0  0  0  0  0  0  0  0
   43.0170   21.5610   34.2800 H   0  0  0  0  0  0  0  0  0  0  0  0
   42.3510   20.3720   38.2510 H   0  0  0  0  0  0  0  0  0  0  0  0
   36.1810   27.3500   31.6700 C   0  0  0  0  0  0  0  0  0  0  0  0
   35.6180   26.7250   32.4130 H   0  0  0  0  0  0  0  0  0  0  0  0
   35.6550   27.1960   30.6980 H   0  0  0  0  0  0  0  0  0  0  0  0
   36.3380   31.0460   31.4360 C   0  0  0  0  0  0  0  0  0  0  0  0
   35.7880   31.4160   32.6740 C   0  0  0  0  0  0  0  0  0  0  0  0
   35.3610   30.4030   33.5850 C   0  0  0  0  0  0  0  0  0  0  0  0
   35.5070   29.1140   33.2140 N   0  0  0  0  0  0  0  0  0  0  0  0
   36.0490   28.7980   31.9970 C   0  0  0  0  0  0  0  0  0  0  0  0
   36.4480   29.7400   31.1410 N   0  0  0  0  0  0  0  0  0  0  0  0
   36.6930   31.6840   30.6680 H   0  0  0  0  0  0  0  0  0  0  0  0
   35.7780   32.4750   32.7260 H   0  0  0  0  0  0  0  0  0  0  0  0
   32.3710   29.8940   34.1830 Cl  0  0  0  0  0  0  0  0  0  0  0  0
   33.4800   30.7660   35.1850 C   0  0  0  0  0  0  0  0  0  0  0  0
   34.7860   30.9240   34.8090 C   0  0  0  0  0  0  0  0  0  0  0  0
   35.5100   31.6590   35.7190 C   0  0  0  0  0  0  0  0  0  0  0  0
   36.5550   31.8800   35.5900 H   0  0  0  0  0  0  0  0  0  0  0  0
   35.0090   32.1790   36.8640 C   0  0  0  0  0  0  0  0  0  0  0  0
   35.5910   32.7550   37.5660 H   0  0  0  0  0  0  0  0  0  0  0  0
   33.6910   31.9990   37.2090 C   0  0  0  0  0  0  0  0  0  0  0  0
   33.2830   32.4110   38.1210 H   0  0  0  0  0  0  0  0  0  0  0  0
   32.9080   31.2670   36.3340 C   0  0  0  0  0  0  0  0  0  0  0  0
   31.2240   31.0360   36.7720 Cl  0  0  0  0  0  0  0  0  0  0  0  0
  1 23  1  0  0  0  0
  1  4  1  0  0  0  0
  2  1  1  0  0  0  0
  3  1  1  0  0  0  0
  4  8  2  0  0  0  0
  4  5  1  0  0  0  0
  5 18  1  0  0  0  0
  5  6  2  0  0  0  0
  6 19  1  0  0  0  0
  7 10  1  0  0  0  0
  7  6  1  0  0  0  0
  8  7  1  0  0  0  0
  9 17  1  0  0  0  0
  9 20  1  0  0  0  0
 10  9  1  0  0  0  0
 11 10  2  0  0  0  0
 11 12  1  0  0  0  0
 12 17  1  0  0  0  0
 13 12  2  0  0  0  0
 13 14  1  0  0  0  0
 14 15  2  0  0  0  0
 15 16  1  0  0  0  0
 15 22  1  0  0  0  0
 17 16  2  0  0  0  0
 21 13  1  0  0  0  0
 23 30  1  0  0  0  0
 23 24  1  0  0  0  0
 25 23  1  0  0  0  0
 26 27  1  0  0  0  0
 27 33  1  0  0  0  0
 27 28  2  0  0  0  0
 28 36  1  0  0  0  0
 29 28  1  0  0  0  0
 30 29  2  0  0  0  0
 31 26  2  0  0  0  0
 31 30  1  0  0  0  0
 32 26  1  0  0  0  0
 34 35  1  0  0  0  0
 35 43  1  0  0  0  0
 36 35  2  0  0  0  0
 36 37  1  0  0  0  0
 37 39  2  0  0  0  0
 38 37  1  0  0  0  0
 39 41  1  0  0  0  0
 39 40  1  0  0  0  0
 41 42  1  0  0  0  0
 43 44  1  0  0  0  0
 43 41  2  0  0  0  0
M  END
>  <minimizedAffinity>
-6.37340307

$$$$

 OpenBabel03272502033D

 44 48  0  0  0  0  0  0  0  0999 V2000
   35.6520   27.7250   31.5720 C   0  0  0  0  0  0  0  0  0  0  0  0
   34.6910   27.7600   31.0370 H   0  0  0  0  0  0  0  0  0  0  0  0
   35.5780   27.8870   32.6680 H   0  0  0  0  0  0  0  0  0  0  0  0
   36.3270   26.3780   31.4030 C   0  0  0  0  0  0  0  0  0  0  0  0
   37.6040   26.1120   30.9680 C   0  0  0  0  0  0  0  0  0  0  0  0
   37.7940   24.7360   30.9660 C   0  0  0  0  0  0  0  0  0  0  0  0
   36.6230   24.2150   31.4010 N   0  0  0  0  0  0  0  0  0  0  0  0
   35.7750   25.1850   31.6520 N   0  0  0  0  0  0  0  0  0  0  0  0
   37.4530   21.8530   31.2930 N   0  0  0  0  0  0  0  0  0  0  0  0
   36.5200   22.8000   31.5030 C   0  0  0  0  0  0  0  0  0  0  0  0
   35.3740   22.1440   31.8540 N   0  0  0  0  0  0  0  0  0  0  0  0
   35.5900   20.8250   31.8610 C   0  0  0  0  0  0  0  0  0  0  0  0
   34.7410   19.7770   32.1500 C   0  0  0  0  0  0  0  0  0  0  0  0
   35.2240   18.5230   32.0790 N   0  0  0  0  0  0  0  0  0  0  0  0
   36.5150   18.3140   31.7310 C   0  0  0  0  0  0  0  0  0  0  0  0
   37.3450   19.3550   31.4490 N   0  0  0  0  0  0  0  0  0  0  0  0
   36.9050   20.6260   31.5070 C   0  0  0  0  0  0  0  0  0  0  0  0
   38.3150   26.8640   30.6830 H   0  0  0  0  0  0  0  0  0  0  0  0
   38.7380   24.2880   30.6560 H   0  0  0  0  0  0  0  0  0  0  0  0
   38.4420   22.0290   31.0090 H   0  0  0  0  0  0  0  0  0  0  0  0
   33.6990   19.9170   32.4320 H   0  0  0  0  0  0  0  0  0  0  0  0
   36.8950   17.3010   31.6770 H   0  0  0  0  0  0  0  0  0  0  0  0
   36.5870   28.7190   30.9500 C   0  0  0  0  0  0  0  0  0  0  0  0
   36.4630   28.7800   29.8360 H   0  0  0  0  0  0  0  0  0  0  0  0
   37.6550   28.4420   31.1130 H   0  0  0  0  0  0  0  0  0  0  0  0
   36.6760   32.3780   31.5350 C   0  0  0  0  0  0  0  0  0  0  0  0
   36.0270   32.4660   32.7770 C   0  0  0  0  0  0  0  0  0  0  0  0
   35.5570   31.2770   33.4120 C   0  0  0  0  0  0  0  0  0  0  0  0
   35.7590   30.1010   32.7820 N   0  0  0  0  0  0  0  0  0  0  0  0
   36.3980   30.0600   31.5720 C   0  0  0  0  0  0  0  0  0  0  0  0
   36.8380   31.1690   30.9740 N   0  0  0  0  0  0  0  0  0  0  0  0
   37.0730   33.1700   30.9540 H   0  0  0  0  0  0  0  0  0  0  0  0
   35.9890   33.4890   33.0570 H   0  0  0  0  0  0  0  0  0  0  0  0
   32.4810   30.9980   33.5480 Cl  0  0  0  0  0  0  0  0  0  0  0  0
   33.5290   31.4240   34.8580 C   0  0  0  0  0  0  0  0  0  0  0  0
   34.8810   31.5150   34.6700 C   0  0  0  0  0  0  0  0  0  0  0  0
   35.5470   31.8820   35.8170 C   0  0  0  0  0  0  0  0  0  0  0  0
   36.6160   31.9990   35.8570 H   0  0  0  0  0  0  0  0  0  0  0  0
   34.9540   32.1320   37.0080 C   0  0  0  0  0  0  0  0  0  0  0  0
   35.4920   32.4200   37.8970 H   0  0  0  0  0  0  0  0  0  0  0  0
   33.5920   32.0300   37.1580 C   0  0  0  0  0  0  0  0  0  0  0  0
   33.1100   32.2270   38.1060 H   0  0  0  0  0  0  0  0  0  0  0  0
   32.8630   31.6630   36.0400 C   0  0  0  0  0  0  0  0  0  0  0  0
   31.1230   31.5320   36.2290 Cl  0  0  0  0  0  0  0  0  0  0  0  0
  1  3  1  0  0  0  0
  2  1  1  0  0  0  0
  4  1  1  0  0  0  0
  4  8  2  0  0  0  0
  5  4  1  0  0  0  0
  6  5  2  0  0  0  0
  6  7  1  0  0  0  0
  7 10  1  0  0  0  0
  7  8  1  0  0  0  0
  9 10  1  0  0  0  0
  9 17  1  0  0  0  0
 10 11  2  0  0  0  0
 11 12  1  0  0  0  0
 12 13  1  0  0  0  0
 13 21  1  0  0  0  0
 14 13  2  0  0  0  0
 15 14  1  0  0  0  0
 16 17  1  0  0  0  0
 16 15  2  0  0  0  0
 17 12  2  0  0  0  0
 18  5  1  0  0  0  0
 19  6  1  0  0  0  0
 20  9  1  0  0  0  0
 22 15  1  0  0  0  0
 23 25  1  0  0  0  0
 23  1  1  0  0  0  0
 23 30  1  0  0  0  0
 24 23  1  0  0  0  0
 26 27  1  0  0  0  0
 27 33  1  0  0  0  0
 27 28  2  0  0  0  0
 28 36  1  0  0  0  0
 29 28  1  0  0  0  0
 30 29  2  0  0  0  0
 31 26  2  0  0  0  0
 31 30  1  0  0  0  0
 32 26  1  0  0  0  0
 34 35  1  0  0  0  0
 35 43  1  0  0  0  0
 36 35  2  0  0  0  0
 36 37  1  0  0  0  0
 37 38  1  0  0  0  0
 37 39  2  0  0  0  0
 39 41  1  0  0  0  0
 39 40  1  0  0  0  0
 41 42  1  0  0  0  0
 43 44  1  0  0  0  0
 43 41  2  0  0  0  0
M  END
>  <minimizedAffinity>
-6.34467125

$$$$

 OpenBabel03272502033D

 44 48  0  0  0  0  0  0  0  0999 V2000
   35.6030   31.8330   30.8410 C   0  0  0  0  0  0  0  0  0  0  0  0
   35.2520   32.2620   29.8910 H   0  0  0  0  0  0  0  0  0  0  0  0
   34.7970   31.5880   31.5650 H   0  0  0  0  0  0  0  0  0  0  0  0
   36.3550   30.5370   30.6150 C   0  0  0  0  0  0  0  0  0  0  0  0
   37.6000   30.3590   30.0610 C   0  0  0  0  0  0  0  0  0  0  0  0
   37.8900   29.0000   30.0480 C   0  0  0  0  0  0  0  0  0  0  0  0
   36.8070   28.4010   30.5960 N   0  0  0  0  0  0  0  0  0  0  0  0
   35.9190   29.3100   30.9220 N   0  0  0  0  0  0  0  0  0  0  0  0
   37.7940   26.1040   30.4210 N   0  0  0  0  0  0  0  0  0  0  0  0
   36.8190   26.9830   30.7150 C   0  0  0  0  0  0  0  0  0  0  0  0
   35.7620   26.2500   31.1780 N   0  0  0  0  0  0  0  0  0  0  0  0
   36.0740   24.9510   31.1710 C   0  0  0  0  0  0  0  0  0  0  0  0
   35.3370   23.8470   31.5450 C   0  0  0  0  0  0  0  0  0  0  0  0
   35.9010   22.6310   31.4350 N   0  0  0  0  0  0  0  0  0  0  0  0
   37.1640   22.5120   30.9650 C   0  0  0  0  0  0  0  0  0  0  0  0
   37.8850   23.6060   30.6000 N   0  0  0  0  0  0  0  0  0  0  0  0
   37.3610   24.8430   30.6930 C   0  0  0  0  0  0  0  0  0  0  0  0
   38.2250   31.1570   29.7050 H   0  0  0  0  0  0  0  0  0  0  0  0
   38.8310   28.6180   29.6510 H   0  0  0  0  0  0  0  0  0  0  0  0
   38.7360   26.3470   30.0420 H   0  0  0  0  0  0  0  0  0  0  0  0
   34.3190   23.9150   31.9260 H   0  0  0  0  0  0  0  0  0  0  0  0
   37.6110   21.5290   30.8800 H   0  0  0  0  0  0  0  0  0  0  0  0
   36.6000   32.7700   31.4540 C   0  0  0  0  0  0  0  0  0  0  0  0
   36.5360   33.8020   31.0190 H   0  0  0  0  0  0  0  0  0  0  0  0
   37.6490   32.4370   31.2700 H   0  0  0  0  0  0  0  0  0  0  0  0
   37.1090   33.5360   35.0450 C   0  0  0  0  0  0  0  0  0  0  0  0
   36.0420   32.8300   35.6230 C   0  0  0  0  0  0  0  0  0  0  0  0
   35.1480   32.0960   34.7860 C   0  0  0  0  0  0  0  0  0  0  0  0
   35.3700   32.1110   33.4550 N   0  0  0  0  0  0  0  0  0  0  0  0
   36.4240   32.8130   32.9330 C   0  0  0  0  0  0  0  0  0  0  0  0
   37.2610   33.5020   33.7110 N   0  0  0  0  0  0  0  0  0  0  0  0
   37.8440   34.1190   35.5380 H   0  0  0  0  0  0  0  0  0  0  0  0
   36.0810   32.9760   36.6730 H   0  0  0  0  0  0  0  0  0  0  0  0
   33.5620   29.8300   33.4050 Cl  0  0  0  0  0  0  0  0  0  0  0  0
   33.3050   30.4280   35.0080 C   0  0  0  0  0  0  0  0  0  0  0  0
   34.0770   31.4410   35.5090 C   0  0  0  0  0  0  0  0  0  0  0  0
   33.7150   31.7940   36.7880 C   0  0  0  0  0  0  0  0  0  0  0  0
   34.2170   32.5700   37.3410 H   0  0  0  0  0  0  0  0  0  0  0  0
   32.7120   31.2220   37.4930 C   0  0  0  0  0  0  0  0  0  0  0  0
   32.4410   31.5130   38.4950 H   0  0  0  0  0  0  0  0  0  0  0  0
   31.9570   30.2070   36.9560 C   0  0  0  0  0  0  0  0  0  0  0  0
   31.1530   29.7430   37.5120 H   0  0  0  0  0  0  0  0  0  0  0  0
   32.2710   29.8020   35.6700 C   0  0  0  0  0  0  0  0  0  0  0  0
   31.3090   28.5060   34.9830 Cl  0  0  0  0  0  0  0  0  0  0  0  0
  1 23  1  0  0  0  0
  1  3  1  0  0  0  0
  2  1  1  0  0  0  0
  4  1  1  0  0  0  0
  4  8  2  0  0  0  0
  5  4  1  0  0  0  0
  6  5  2  0  0  0  0
  6  7  1  0  0  0  0
  7 10  1  0  0  0  0
  7  8  1  0  0  0  0
  9 17  1  0  0  0  0
  9 10  1  0  0  0  0
 10 11  2  0  0  0  0
 12 11  1  0  0  0  0
 12 13  1  0  0  0  0
 13 21  1  0  0  0  0
 14 13  2  0  0  0  0
 15 14  1  0  0  0  0
 16 17  1  0  0  0  0
 16 15  2  0  0  0  0
 17 12  2  0  0  0  0
 18  5  1  0  0  0  0
 19  6  1  0  0  0  0
 20  9  1  0  0  0  0
 22 15  1  0  0  0  0
 23 30  1  0  0  0  0
 24 23  1  0  0  0  0
 25 23  1  0  0  0  0
 26 32  1  0  0  0  0
 26 27  1  0  0  0  0
 27 33  1  0  0  0  0
 28 36  1  0  0  0  0
 28 27  2  0  0  0  0
 29 28  1  0  0  0  0
 30 29  2  0  0  0  0
 30 31  1  0  0  0  0
 31 26  2  0  0  0  0
 34 35  1  0  0  0  0
 35 36  2  0  0  0  0
 35 43  1  0  0  0  0
 36 37  1  0  0  0  0
 37 38  1  0  0  0  0
 37 39  2  0  0  0  0
 39 40  1  0  0  0  0
 41 39  1  0  0  0  0
 41 42  1  0  0  0  0
 43 41  2  0  0  0  0
 44 43  1  0  0  0  0
M  END
>  <minimizedAffinity>
-6.34128284

$$$$
