
 OpenBabel03272502593D

 36 38  0  0  1  0  0  0  0  0999 V2000
   35.7680   29.6770   48.7160 N   0  0  0  0  0  0  0  0  0  0  0  0
   36.6710   28.9140   49.5470 C   0  0  0  0  0  0  0  0  0  0  0  0
   37.2360   29.5720   50.7300 C   0  0  0  0  0  0  0  0  0  0  0  0
   37.3580   31.0420   50.7270 C   0  0  0  0  0  0  0  0  0  0  0  0
   36.4410   31.7350   49.7660 C   0  0  0  0  0  0  0  0  0  0  0  0
   36.3880   30.9650   48.4410 C   0  0  1  0  0  0  0  0  0  0  0  0
   37.4970   28.5850   48.8700 H   0  0  0  0  0  0  0  0  0  0  0  0
   36.1230   27.9730   49.7990 H   0  0  0  0  0  0  0  0  0  0  0  0
   38.2550   29.1410   50.9200 H   0  0  0  0  0  0  0  0  0  0  0  0
   36.6400   29.2460   51.6270 H   0  0  0  0  0  0  0  0  0  0  0  0
   37.0970   31.4580   51.7440 H   0  0  0  0  0  0  0  0  0  0  0  0
   38.4010   31.4150   50.5340 H   0  0  0  0  0  0  0  0  0  0  0  0
   36.7610   32.7760   49.5820 H   0  0  0  0  0  0  0  0  0  0  0  0
   35.3950   31.7940   50.1150 H   0  0  0  0  0  0  0  0  0  0  0  0
   35.8250   31.5520   47.7120 H   0  0  0  0  0  0  0  0  0  0  0  0
   34.4950   29.2310   48.2550 C   0  0  0  0  0  0  0  0  0  0  0  0
   33.8920   29.6590   47.0750 C   0  0  0  0  0  0  0  0  0  0  0  0
   32.6500   29.1500   46.7400 C   0  0  0  0  0  0  0  0  0  0  0  0
   32.0800   28.2520   47.5840 N   0  0  0  0  0  0  0  0  0  0  0  0
   32.6870   27.8630   48.7090 C   0  0  0  0  0  0  0  0  0  0  0  0
   33.8990   28.3540   49.0460 N   0  0  0  0  0  0  0  0  0  0  0  0
   34.4220   30.3770   46.4660 H   0  0  0  0  0  0  0  0  0  0  0  0
   32.1730   29.4750   45.8250 H   0  0  0  0  0  0  0  0  0  0  0  0
   32.1900   27.1350   49.3630 H   0  0  0  0  0  0  0  0  0  0  0  0
   37.7190   30.8080   48.0650 O   0  0  0  0  0  0  0  0  0  0  0  0
   36.9750   30.3590   45.2940 Cl  0  0  0  0  0  0  0  0  0  0  0  0
   38.1240   31.5310   45.9410 C   0  0  0  0  0  0  0  0  0  0  0  0
   38.4300   31.6890   47.2830 C   0  0  0  0  0  0  0  0  0  0  0  0
   39.3490   32.6510   47.6240 C   0  0  0  0  0  0  0  0  0  0  0  0
   39.5390   32.7180   48.6820 H   0  0  0  0  0  0  0  0  0  0  0  0
   39.9460   33.4310   46.6620 C   0  0  0  0  0  0  0  0  0  0  0  0
   40.6570   34.1680   46.9770 H   0  0  0  0  0  0  0  0  0  0  0  0
   39.6540   33.2880   45.3230 C   0  0  0  0  0  0  0  0  0  0  0  0
   40.1250   33.9020   44.5740 H   0  0  0  0  0  0  0  0  0  0  0  0
   38.7190   32.3140   44.9590 C   0  0  0  0  0  0  0  0  0  0  0  0
   38.3800   32.1670   43.2480 Cl  0  0  0  0  0  0  0  0  0  0  0  0
  1  2  1  0  0  0  0
  2  8  1  0  0  0  0
  2  3  1  0  0  0  0
  3  9  1  0  0  0  0
  3 10  1  0  0  0  0
  4  3  1  0  0  0  0
  4 11  1  0  0  0  0
  5 14  1  0  0  0  0
  5  4  1  0  0  0  0
  6 15  1  6  0  0  0
  6  1  1  0  0  0  0
  6  5  1  0  0  0  0
  7  2  1  0  0  0  0
 12  4  1  0  0  0  0
 13  5  1  0  0  0  0
 16  1  1  0  0  0  0
 16 21  1  0  0  0  0
 17 16  2  0  0  0  0
 18 17  1  0  0  0  0
 18 19  2  0  0  0  0
 19 20  1  0  0  0  0
 20 21  2  0  0  0  0
 20 24  1  0  0  0  0
 22 17  1  0  0  0  0
 23 18  1  0  0  0  0
 25  6  1  0  0  0  0
 26 27  1  0  0  0  0
 27 28  1  0  0  0  0
 28 29  2  0  0  0  0
 28 25  1  0  0  0  0
 29 30  1  0  0  0  0
 31 32  1  0  0  0  0
 31 29  1  0  0  0  0
 33 31  2  0  0  0  0
 34 33  1  0  0  0  0
 35 33  1  0  0  0  0
 35 27  2  0  0  0  0
 36 35  1  0  0  0  0
M  END
>  <minimizedAffinity>
-5.81162262

>  <minimizedRMSD>
1.29182053

$$$$
