REMARK  Name = 
REMARK  4 active torsions:
REMARK  status: ('A' for Active; 'I' for Inactive)
REMARK    1  A    between atoms: C_1  and  C_8
REMARK    2  A    between atoms: C_3  and  N_12
REMARK    3  A    between atoms: C_10  and  C_13
REMARK    4  A    between atoms: C_17  and  C_32
REMARK                            x       y       z     vdW  Elec       q    Type
REMARK                         _______ _______ _______ _____ _____    ______ ____
ROOT
ATOM      1  C   UNL     1      38.405  31.845  44.520  0.00  0.00    +0.000 C 
ATOM      2  O   UNL     1      37.292  32.429  44.400  0.00  0.00    +0.000 OA
ATOM      3  N   UNL     1      38.942  31.562  45.821  0.00  0.00    +0.000 N 
ATOM      4  H   UNL     1      39.913  31.263  45.981  0.00  0.00    +0.000 HD
ENDROOT
BRANCH   1   5
ATOM      5  C   UNL     1      39.188  31.435  43.336  0.00  0.00    +0.000 A 
ATOM      6  C   UNL     1      40.159  30.482  43.489  0.00  0.00    +0.000 A 
ATOM      7  C   UNL     1      40.872  30.121  42.358  0.00  0.00    +0.000 A 
ATOM      8  C   UNL     1      40.576  30.721  41.174  0.00  0.00    +0.000 A 
ATOM      9  C   UNL     1      39.597  31.684  41.009  0.00  0.00    +0.000 A 
ATOM     10  N   UNL     1      38.941  31.993  42.135  0.00  0.00    +0.000 NA
ATOM     11  H   UNL     1      40.407  29.995  44.422  0.00  0.00    +0.000 HD
ATOM     12  H   UNL     1      41.666  29.360  42.417  0.00  0.00    +0.000 HD
ATOM     13  H   UNL     1      41.158  30.408  40.317  0.00  0.00    +0.000 HD
BRANCH   9  16
ATOM     14 CL   UNL     1      37.436  33.661  41.195  0.00  0.00    +0.000 Cl
ATOM     15  C   UNL     1      38.295  33.261  39.704  0.00  0.00    +0.000 A 
ATOM     16  C   UNL     1      39.289  32.319  39.741  0.00  0.00    +0.000 A 
ATOM     17  C   UNL     1      39.929  32.035  38.578  0.00  0.00    +0.000 A 
ATOM     18  H   UNL     1      40.716  31.306  38.544  0.00  0.00    +0.000 HD
ATOM     19  C   UNL     1      39.596  32.671  37.388  0.00  0.00    +0.000 A 
ATOM     20  H   UNL     1      40.096  32.461  36.435  0.00  0.00    +0.000 HD
ATOM     21  C   UNL     1      38.587  33.611  37.412  0.00  0.00    +0.000 A 
ATOM     22  H   UNL     1      38.283  34.142  36.513  0.00  0.00    +0.000 HD
ATOM     23  C   UNL     1      37.905  33.936  38.567  0.00  0.00    +0.000 A 
ATOM     24 CL   UNL     1      36.613  35.132  38.629  0.00  0.00    +0.000 Cl
ENDBRANCH   9  16
ENDBRANCH   1   5
BRANCH   3  27
ATOM     25  C   UNL     1      38.427  31.116  48.217  0.00  0.00    +0.000 C 
ATOM     26  C   UNL     1      38.674  32.562  48.101  0.00  0.00    +0.000 C 
ATOM     27  C   UNL     1      38.056  31.712  46.959  0.00  0.00    +0.000 C 
ATOM     28  H   UNL     1      39.359  30.518  48.316  0.00  0.00    +0.000 HD
ATOM     29  H   UNL     1      37.992  33.283  48.597  0.00  0.00    +0.000 HD
ATOM     30  H   UNL     1      39.686  32.936  47.963  0.00  0.00    +0.000 HD
ATOM     31  H   UNL     1      36.996  31.965  46.746  0.00  0.00    +0.000 HD
BRANCH  25  36
ATOM     32  C   UNL     1      35.095  30.230  49.561  0.00  0.00    +0.000 A 
ATOM     33  C   UNL     1      35.422  29.545  50.763  0.00  0.00    +0.000 A 
ATOM     34  C   UNL     1      36.813  29.409  51.091  0.00  0.00    +0.000 A 
ATOM     35  N   UNL     1      37.755  29.931  50.252  0.00  0.00    +0.000 NA
ATOM     36  C   UNL     1      37.354  30.577  49.113  0.00  0.00    +0.000 A 
ATOM     37  N   UNL     1      36.036  30.745  48.737  0.00  0.00    +0.000 NA
ATOM     38  H   UNL     1      34.069  30.359  49.272  0.00  0.00    +0.000 HD
ATOM     39  H   UNL     1      34.651  29.152  51.390  0.00  0.00    +0.000 HD
ATOM     40  H   UNL     1      37.076  28.891  52.001  0.00  0.00    +0.000 HD
ENDBRANCH  25  36
ENDBRANCH   3  27
TORSDOF 4
