
 OpenBabel03272504573D

 35 37  0  0  1  0  0  0  0  0999 V2000
   37.8600   31.5770   49.6420 C   0  0  1  0  0  0  0  0  0  0  0  0
   36.6770   32.1460   50.2440 C   0  0  0  0  0  0  0  0  0  0  0  0
   36.5510   31.0900   49.1920 C   0  0  2  0  0  0  0  0  0  0  0  0
   38.4940   30.7800   50.1630 H   0  0  0  0  0  0  0  0  0  0  0  0
   36.7870   32.0740   51.3070 H   0  0  0  0  0  0  0  0  0  0  0  0
   36.4090   33.1750   49.9250 H   0  0  0  0  0  0  0  0  0  0  0  0
   35.8990   31.4290   48.4020 H   0  0  0  0  0  0  0  0  0  0  0  0
   38.6660   32.3630   48.6450 C   0  0  0  0  0  0  0  0  0  0  0  0
   39.1140   33.6260   49.0810 C   0  0  0  0  0  0  0  0  0  0  0  0
   39.8510   34.3280   48.1580 C   0  0  0  0  0  0  0  0  0  0  0  0
   40.1000   33.8030   46.9380 N   0  0  0  0  0  0  0  0  0  0  0  0
   39.6500   32.5760   46.5530 C   0  0  0  0  0  0  0  0  0  0  0  0
   38.9100   31.8410   47.4430 N   0  0  0  0  0  0  0  0  0  0  0  0
   39.9160   32.0000   45.3060 N   0  0  0  0  0  0  0  0  0  0  0  0
   38.9240   34.0510   50.0400 H   0  0  0  0  0  0  0  0  0  0  0  0
   40.2540   35.3020   48.3530 H   0  0  0  0  0  0  0  0  0  0  0  0
   40.7420   31.3660   45.1950 H   0  0  0  0  0  0  0  0  0  0  0  0
   39.3300   32.1620   44.4510 H   0  0  0  0  0  0  0  0  0  0  0  0
   36.2010   29.8190   49.6630 O   0  0  0  0  0  0  0  0  0  0  0  0
   34.5710   27.9230   49.0330 O   0  0  0  0  0  0  0  0  0  0  0  0
   34.6670   29.4110   49.1480 P   0  0  1  0  0  0  0  0  0  0  0  0
   33.5440   29.7590   50.4370 O   0  0  0  0  0  0  0  0  0  0  0  0
   32.6630   29.8560   50.0040 H   0  0  0  0  0  0  0  0  0  0  0  0
   34.2610   30.2740   47.8120 O   0  0  0  0  0  0  0  0  0  0  0  0
   36.3930   30.3800   45.6680 Cl  0  0  0  0  0  0  0  0  0  0  0  0
   34.7310   29.9840   45.4270 C   0  0  0  0  0  0  0  0  0  0  0  0
   33.9270   29.9970   46.5500 C   0  0  0  0  0  0  0  0  0  0  0  0
   32.5730   29.6750   46.3560 C   0  0  0  0  0  0  0  0  0  0  0  0
   31.8390   29.6490   47.1540 H   0  0  0  0  0  0  0  0  0  0  0  0
   32.1230   29.3680   45.0670 C   0  0  0  0  0  0  0  0  0  0  0  0
   31.0790   29.1180   44.9060 H   0  0  0  0  0  0  0  0  0  0  0  0
   32.9590   29.3690   43.9880 C   0  0  0  0  0  0  0  0  0  0  0  0
   32.5940   29.1320   43.0150 H   0  0  0  0  0  0  0  0  0  0  0  0
   34.2780   29.6800   44.1580 C   0  0  0  0  0  0  0  0  0  0  0  0
   35.4000   29.7040   42.8420 Cl  0  0  0  0  0  0  0  0  0  0  0  0
  1  4  1  1  0  0  0
  1  2  1  0  0  0  0
  2  5  1  0  0  0  0
  3  7  1  6  0  0  0
  3  1  1  0  0  0  0
  3 19  1  0  0  0  0
  3  2  1  0  0  0  0
  6  2  1  0  0  0  0
  8  9  1  0  0  0  0
  8  1  1  0  0  0  0
  9 15  1  0  0  0  0
 10 16  1  0  0  0  0
 10  9  2  0  0  0  0
 11 10  1  0  0  0  0
 12 11  2  0  0  0  0
 12 13  1  0  0  0  0
 13  8  2  0  0  0  0
 14 12  1  0  0  0  0
 17 14  1  0  0  0  0
 18 14  1  0  0  0  0
 21 20  2  6  0  0  0
 21 19  1  0  0  0  0
 21 22  1  0  0  0  0
 23 22  1  0  0  0  0
 24 21  1  0  0  0  0
 26 25  1  0  0  0  0
 26 27  1  0  0  0  0
 27 24  1  0  0  0  0
 28 27  2  0  0  0  0
 28 29  1  0  0  0  0
 30 28  1  0  0  0  0
 31 30  1  0  0  0  0
 32 34  1  0  0  0  0
 32 30  2  0  0  0  0
 33 32  1  0  0  0  0
 34 26  2  0  0  0  0
 35 34  1  0  0  0  0
M  END
>  <minimizedAffinity>
-5.32675838

>  <minimizedRMSD>
2.04517102

$$$$
