
 OpenBabel03272502533D

 29 31  0  0  0  0  0  0  0  0999 V2000
   35.8240   30.1770   48.2360 C   0  0  0  0  0  0  0  0  0  0  0  0
   35.7570   29.1480   49.1690 C   0  0  0  0  0  0  0  0  0  0  0  0
   34.7640   28.1910   49.0980 C   0  0  0  0  0  0  0  0  0  0  0  0
   33.8590   28.3100   48.0720 C   0  0  0  0  0  0  0  0  0  0  0  0
   33.9120   29.3290   47.1360 C   0  0  0  0  0  0  0  0  0  0  0  0
   34.9130   30.2640   47.2360 N   0  0  0  0  0  0  0  0  0  0  0  0
   36.5240   29.1340   49.9530 H   0  0  0  0  0  0  0  0  0  0  0  0
   34.7490   27.4130   49.8380 H   0  0  0  0  0  0  0  0  0  0  0  0
   33.0890   27.5590   48.0260 H   0  0  0  0  0  0  0  0  0  0  0  0
   34.9370   28.5090   44.4240 Cl  0  0  0  0  0  0  0  0  0  0  0  0
   33.3060   29.1070   44.7630 C   0  0  0  0  0  0  0  0  0  0  0  0
   32.9500   29.4530   46.0480 C   0  0  0  0  0  0  0  0  0  0  0  0
   31.6590   29.9060   46.2070 C   0  0  0  0  0  0  0  0  0  0  0  0
   31.3150   30.1920   47.1790 H   0  0  0  0  0  0  0  0  0  0  0  0
   30.7430   30.0270   45.1870 C   0  0  0  0  0  0  0  0  0  0  0  0
   29.7320   30.3890   45.3520 H   0  0  0  0  0  0  0  0  0  0  0  0
   31.1360   29.6690   43.9020 C   0  0  0  0  0  0  0  0  0  0  0  0
   30.5010   29.7260   43.0450 H   0  0  0  0  0  0  0  0  0  0  0  0
   32.4210   29.2090   43.6980 C   0  0  0  0  0  0  0  0  0  0  0  0
   32.9580   28.7460   42.0800 Cl  0  0  0  0  0  0  0  0  0  0  0  0
   37.9970   32.7940   49.5840 C   0  0  0  0  0  0  0  0  0  0  0  0
   38.8760   33.0520   48.5070 C   0  0  0  0  0  0  0  0  0  0  0  0
   38.7040   32.3120   47.3200 C   0  0  0  0  0  0  0  0  0  0  0  0
   37.6970   31.4040   47.3160 N   0  0  0  0  0  0  0  0  0  0  0  0
   36.8760   31.1710   48.3380 C   0  0  0  0  0  0  0  0  0  0  0  0
   37.0440   31.8740   49.4540 N   0  0  0  0  0  0  0  0  0  0  0  0
   38.1260   33.3700   50.5140 H   0  0  0  0  0  0  0  0  0  0  0  0
   39.6640   33.7860   48.5610 H   0  0  0  0  0  0  0  0  0  0  0  0
   39.3550   32.4930   46.5030 H   0  0  0  0  0  0  0  0  0  0  0  0
  1 25  1  0  0  0  0
  1  2  1  0  0  0  0
  2  7  1  0  0  0  0
  3  2  2  0  0  0  0
  3  8  1  0  0  0  0
  4  3  1  0  0  0  0
  5  6  1  0  0  0  0
  5  4  2  0  0  0  0
  6  1  2  0  0  0  0
  9  4  1  0  0  0  0
 10 11  1  0  0  0  0
 11 12  1  0  0  0  0
 12 13  2  0  0  0  0
 12  5  1  0  0  0  0
 13 14  1  0  0  0  0
 15 16  1  0  0  0  0
 15 13  1  0  0  0  0
 17 15  2  0  0  0  0
 18 17  1  0  0  0  0
 19 17  1  0  0  0  0
 19 11  2  0  0  0  0
 20 19  1  0  0  0  0
 21 27  1  0  0  0  0
 22 28  1  0  0  0  0
 22 21  2  0  0  0  0
 23 22  1  0  0  0  0
 24 23  2  0  0  0  0
 24 25  1  0  0  0  0
 25 26  2  0  0  0  0
 26 21  1  0  0  0  0
 29 23  1  0  0  0  0
M  END
>  <minimizedAffinity>
-5.04249811

>  <minimizedRMSD>
0.538285315

$$$$
