
     RDKit          3D

 44 47  0  0  0  0  0  0  0  0999 V2000
   35.9957   30.3096   48.6358 C   0  0  0  0  0  0  0  0  0  0  0  0
   36.0547   29.3348   49.6390 C   0  0  0  0  0  0  0  0  0  0  0  0
   35.0998   28.3396   49.7098 C   0  0  0  0  0  0  0  0  0  0  0  0
   34.1063   28.3783   48.7394 C   0  0  0  0  0  0  0  0  0  0  0  0
   34.0404   29.3328   47.7498 C   0  0  0  0  0  0  0  0  0  0  0  0
   35.0039   30.2811   47.7326 N   0  0  0  0  0  0  0  0  0  0  0  0
   32.9880   29.2710   46.8210 N   0  0  0  0  0  0  0  0  0  0  0  0
   31.8514   28.4309   47.1221 C   0  0  0  0  0  0  0  0  0  0  0  0
   30.9611   28.4494   45.8846 C   0  0  0  0  0  0  0  0  0  0  0  0
   30.5115   29.8863   45.6318 C   0  0  0  0  0  0  0  0  0  0  0  0
   31.6841   30.8044   45.5079 C   0  0  0  0  0  0  0  0  0  0  0  0
   32.9752   30.0041   45.5709 C   0  0  0  0  0  0  0  0  0  0  0  0
   38.1228   33.1601   49.4797 C   0  0  0  0  0  0  0  0  0  0  0  0
   39.0336   33.1883   48.4274 C   0  0  0  0  0  0  0  0  0  0  0  0
   38.9150   32.2469   47.4400 C   0  0  0  0  0  0  0  0  0  0  0  0
   37.8981   31.3611   47.5933 N   0  0  0  0  0  0  0  0  0  0  0  0
   37.0229   31.3283   48.5998 C   0  0  0  0  0  0  0  0  0  0  0  0
   37.1515   32.2401   49.5371 N   0  0  0  0  0  0  0  0  0  0  0  0
   36.8492   29.3403   50.3798 H   0  0  0  0  0  0  0  0  0  0  0  0
   35.1428   27.5924   50.4766 H   0  0  0  0  0  0  0  0  0  0  0  0
   33.3780   27.5856   48.8252 H   0  0  0  0  0  0  0  0  0  0  0  0
   32.1358   27.3471   47.2314 H   0  0  0  0  0  0  0  0  0  0  0  0
   31.3330   28.8418   47.9970 H   0  0  0  0  0  0  0  0  0  0  0  0
   30.0762   27.8102   46.0239 H   0  0  0  0  0  0  0  0  0  0  0  0
   31.5874   28.1217   45.0337 H   0  0  0  0  0  0  0  0  0  0  0  0
   29.9618   30.1850   46.5564 H   0  0  0  0  0  0  0  0  0  0  0  0
   29.7881   29.9207   44.8090 H   0  0  0  0  0  0  0  0  0  0  0  0
   31.6491   31.3851   44.5639 H   0  0  0  0  0  0  0  0  0  0  0  0
   31.7484   31.5660   46.3205 H   0  0  0  0  0  0  0  0  0  0  0  0
   33.8023   30.7596   45.6294 H   0  0  0  0  0  0  0  0  0  0  0  0
   33.1597   29.3971   44.6830 H   0  0  0  0  0  0  0  0  0  0  0  0
   38.2389   33.9240   50.2552 H   0  0  0  0  0  0  0  0  0  0  0  0
   39.8111   33.8986   48.3719 H   0  0  0  0  0  0  0  0  0  0  0  0
   38.5286   29.7177   45.6425 Cl  0  0  0  0  0  0  0  0  0  0  0  0
   39.6744   30.9954   45.3671 C   0  0  0  0  0  0  0  0  0  0  0  0
   39.7163   32.0335   46.2560 C   0  0  0  0  0  0  0  0  0  0  0  0
   40.6815   32.9518   45.9209 C   0  0  0  0  0  0  0  0  0  0  0  0
   40.8742   33.8594   46.5098 H   0  0  0  0  0  0  0  0  0  0  0  0
   41.5079   32.8464   44.8257 C   0  0  0  0  0  0  0  0  0  0  0  0
   42.2535   33.5921   44.5986 H   0  0  0  0  0  0  0  0  0  0  0  0
   41.4112   31.7737   43.9706 C   0  0  0  0  0  0  0  0  0  0  0  0
   42.0694   31.7123   43.1182 H   0  0  0  0  0  0  0  0  0  0  0  0
   40.4602   30.8202   44.2573 C   0  0  0  0  0  0  0  0  0  0  0  0
   40.3255   29.4643   43.1918 Cl  0  0  0  0  0  0  0  0  0  0  0  0
  1  2  2  0
  2  3  1  0
  4  3  2  0
  5  4  1  0
  6  5  2  0
  6  1  1  0
  7  8  1  0
  7  5  1  0
  9  8  1  0
 10  9  1  0
 11 12  1  0
 11 10  1  0
 12  7  1  0
 13 18  2  0
 14 13  1  0
 15 16  1  0
 15 14  2  0
 16 17  2  0
 17  1  1  0
 17 18  1  0
  2 19  1  0
  3 20  1  0
  4 21  1  0
  8 22  1  0
  8 23  1  0
  9 24  1  0
  9 25  1  0
 10 26  1  0
 10 27  1  0
 11 28  1  0
 11 29  1  0
 12 30  1  0
 12 31  1  0
 13 32  1  0
 14 33  1  0
 34 35  1  0
 35 36  2  0
 36 37  1  0
 37 38  1  0
 37 39  2  0
 39 40  1  0
 39 41  1  0
 41 42  1  0
 41 43  2  0
 43 44  1  0
 43 35  1  0
 15 36  1  0
M  ISO  8  19  14  20  14  21  14  22  13  23  13  24  13  25  13  26  13
M  ISO  8  27  13  28  13  29  13  30  13  31  13  32  14  33  14  38  15
M  ISO  2  40  15  42  15
M  END
>  <DihAtoms>  (1) 
15,14,35,34

>  <DihDeg>  (1) 
172.35519668560354

$$$$
