
 OpenBabel03272508463D

 29 31  0  0  0  0  0  0  0  0999 V2000
   36.6480   28.6380   32.6330 C   0  0  0  0  0  0  0  0  0  0  0  0
   36.3670   29.6910   31.7730 C   0  0  0  0  0  0  0  0  0  0  0  0
   35.6490   30.5590   32.5980 C   0  0  0  0  0  0  0  0  0  0  0  0
   35.5270   30.0320   33.8600 C   0  0  0  0  0  0  0  0  0  0  0  0
   36.1380   28.8800   33.8450 O   0  0  0  0  0  0  0  0  0  0  0  0
   36.6540   29.7680   30.7340 H   0  0  0  0  0  0  0  0  0  0  0  0
   35.2530   31.5170   32.2550 H   0  0  0  0  0  0  0  0  0  0  0  0
   32.5760   29.3320   34.2090 Cl  0  0  0  0  0  0  0  0  0  0  0  0
   33.5080   30.3950   35.2250 C   0  0  0  0  0  0  0  0  0  0  0  0
   34.8420   30.6540   34.9890 C   0  0  0  0  0  0  0  0  0  0  0  0
   35.5280   31.5050   35.8280 C   0  0  0  0  0  0  0  0  0  0  0  0
   36.5820   31.6840   35.6100 H   0  0  0  0  0  0  0  0  0  0  0  0
   34.9600   32.1370   36.9210 C   0  0  0  0  0  0  0  0  0  0  0  0
   35.5910   32.7850   37.5120 H   0  0  0  0  0  0  0  0  0  0  0  0
   33.6150   31.8760   37.1570 C   0  0  0  0  0  0  0  0  0  0  0  0
   33.1710   32.3690   38.0090 H   0  0  0  0  0  0  0  0  0  0  0  0
   32.9060   31.0190   36.3210 C   0  0  0  0  0  0  0  0  0  0  0  0
   31.2140   30.7620   36.7140 Cl  0  0  0  0  0  0  0  0  0  0  0  0
   37.3970   27.4390   32.2600 C   0  0  0  0  0  0  0  0  0  0  0  0
   38.6580   27.5150   32.2670 O   0  0  0  0  0  0  0  0  0  0  0  0
   36.6340   23.9040   31.9890 C   0  0  0  0  0  0  0  0  0  0  0  0
   35.4360   23.8840   31.2660 C   0  0  0  0  0  0  0  0  0  0  0  0
   34.8860   25.0880   30.8680 C   0  0  0  0  0  0  0  0  0  0  0  0
   35.5480   26.2280   31.2080 N   0  0  0  0  0  0  0  0  0  0  0  0
   36.6960   26.2230   31.9020 C   0  0  0  0  0  0  0  0  0  0  0  0
   37.2420   25.0530   32.2950 N   0  0  0  0  0  0  0  0  0  0  0  0
   37.1270   22.9910   32.3360 H   0  0  0  0  0  0  0  0  0  0  0  0
   35.0210   22.9250   31.0660 H   0  0  0  0  0  0  0  0  0  0  0  0
   33.9600   25.0750   30.3090 H   0  0  0  0  0  0  0  0  0  0  0  0
  1  5  1  0  0  0  0
  2  3  1  0  0  0  0
  2  1  2  0  0  0  0
  3  4  2  0  0  0  0
  4 10  1  0  0  0  0
  5  4  1  0  0  0  0
  6  2  1  0  0  0  0
  7  3  1  0  0  0  0
  8  9  1  0  0  0  0
  9 17  1  0  0  0  0
 10  9  2  0  0  0  0
 10 11  1  0  0  0  0
 11 13  2  0  0  0  0
 12 11  1  0  0  0  0
 13 15  1  0  0  0  0
 13 14  1  0  0  0  0
 15 16  1  0  0  0  0
 17 18  1  0  0  0  0
 17 15  2  0  0  0  0
 19 20  2  0  0  0  0
 19  1  1  0  0  0  0
 21 26  1  0  0  0  0
 21 27  1  0  0  0  0
 22 21  2  0  0  0  0
 23 24  2  0  0  0  0
 23 22  1  0  0  0  0
 24 25  1  0  0  0  0
 25 19  1  0  0  0  0
 25 26  2  0  0  0  0
 28 22  1  0  0  0  0
 29 23  1  0  0  0  0
M  END
>  <minimizedAffinity>
-5.63954926

$$$$

 OpenBabel03272508463D

 29 31  0  0  0  0  0  0  0  0999 V2000
   38.0980   25.4760   35.8460 C   0  0  0  0  0  0  0  0  0  0  0  0
   38.3540   26.6810   36.4870 C   0  0  0  0  0  0  0  0  0  0  0  0
   38.0720   27.6110   35.4840 C   0  0  0  0  0  0  0  0  0  0  0  0
   37.6770   26.9740   34.3340 C   0  0  0  0  0  0  0  0  0  0  0  0
   37.7040   25.6950   34.5870 O   0  0  0  0  0  0  0  0  0  0  0  0
   38.6870   26.8100   37.5070 H   0  0  0  0  0  0  0  0  0  0  0  0
   38.1650   28.6890   35.6280 H   0  0  0  0  0  0  0  0  0  0  0  0
   39.7390   26.8630   32.0850 Cl  0  0  0  0  0  0  0  0  0  0  0  0
   38.1710   27.6180   32.0070 C   0  0  0  0  0  0  0  0  0  0  0  0
   37.3020   27.6180   33.0790 C   0  0  0  0  0  0  0  0  0  0  0  0
   36.0750   28.2310   32.9590 C   0  0  0  0  0  0  0  0  0  0  0  0
   35.4150   28.2110   33.8270 H   0  0  0  0  0  0  0  0  0  0  0  0
   35.6370   28.8650   31.8080 C   0  0  0  0  0  0  0  0  0  0  0  0
   34.6540   29.3140   31.8230 H   0  0  0  0  0  0  0  0  0  0  0  0
   36.5130   28.8640   30.7290 C   0  0  0  0  0  0  0  0  0  0  0  0
   36.1730   29.3580   29.8320 H   0  0  0  0  0  0  0  0  0  0  0  0
   37.7580   28.2490   30.8320 C   0  0  0  0  0  0  0  0  0  0  0  0
   38.7830   28.3100   29.4070 Cl  0  0  0  0  0  0  0  0  0  0  0  0
   38.2410   24.1590   36.4660 C   0  0  0  0  0  0  0  0  0  0  0  0
   37.2040   23.6330   36.9580 O   0  0  0  0  0  0  0  0  0  0  0  0
   41.6520   23.3140   35.5690 C   0  0  0  0  0  0  0  0  0  0  0  0
   41.9960   22.3230   36.4960 C   0  0  0  0  0  0  0  0  0  0  0  0
   41.0550   21.9410   37.4330 C   0  0  0  0  0  0  0  0  0  0  0  0
   39.8420   22.5580   37.3980 N   0  0  0  0  0  0  0  0  0  0  0  0
   39.5330   23.5060   36.5000 C   0  0  0  0  0  0  0  0  0  0  0  0
   40.4450   23.8860   35.5800 N   0  0  0  0  0  0  0  0  0  0  0  0
   42.3440   23.6660   34.7990 H   0  0  0  0  0  0  0  0  0  0  0  0
   42.9780   21.9210   36.4150 H   0  0  0  0  0  0  0  0  0  0  0  0
   41.3180   21.1750   38.1500 H   0  0  0  0  0  0  0  0  0  0  0  0
  1 19  1  0  0  0  0
  1  2  2  0  0  0  0
  2  6  1  0  0  0  0
  3  7  1  0  0  0  0
  3  2  1  0  0  0  0
  4  5  1  0  0  0  0
  4  3  2  0  0  0  0
  5  1  1  0  0  0  0
  9  8  1  0  0  0  0
  9 10  1  0  0  0  0
 10  4  1  0  0  0  0
 11 10  2  0  0  0  0
 11 12  1  0  0  0  0
 13 14  1  0  0  0  0
 13 11  1  0  0  0  0
 15 17  1  0  0  0  0
 15 13  2  0  0  0  0
 16 15  1  0  0  0  0
 17  9  2  0  0  0  0
 18 17  1  0  0  0  0
 19 25  1  0  0  0  0
 19 20  2  0  0  0  0
 21 26  2  0  0  0  0
 21 22  1  0  0  0  0
 22 23  2  0  0  0  0
 23 29  1  0  0  0  0
 24 23  1  0  0  0  0
 25 24  2  0  0  0  0
 26 25  1  0  0  0  0
 27 21  1  0  0  0  0
 28 22  1  0  0  0  0
M  END
>  <minimizedAffinity>
-5.51947355

$$$$

 OpenBabel03272508463D

 29 31  0  0  0  0  0  0  0  0999 V2000
   36.3670   28.5510   32.9490 C   0  0  0  0  0  0  0  0  0  0  0  0
   36.1290   29.5930   32.0620 C   0  0  0  0  0  0  0  0  0  0  0  0
   35.2930   30.4270   32.8080 C   0  0  0  0  0  0  0  0  0  0  0  0
   35.0660   29.8920   34.0520 C   0  0  0  0  0  0  0  0  0  0  0  0
   35.7250   28.7670   34.1020 O   0  0  0  0  0  0  0  0  0  0  0  0
   36.5180   29.6850   31.0580 H   0  0  0  0  0  0  0  0  0  0  0  0
   34.8940   31.3670   32.4240 H   0  0  0  0  0  0  0  0  0  0  0  0
   36.2400   32.3100   35.4990 Cl  0  0  0  0  0  0  0  0  0  0  0  0
   34.6920   31.5760   35.8110 C   0  0  0  0  0  0  0  0  0  0  0  0
   34.2430   30.4800   35.1030 C   0  0  0  0  0  0  0  0  0  0  0  0
   33.0080   29.9420   35.3950 C   0  0  0  0  0  0  0  0  0  0  0  0
   32.6870   29.0770   34.8140 H   0  0  0  0  0  0  0  0  0  0  0  0
   32.1630   30.4350   36.3740 C   0  0  0  0  0  0  0  0  0  0  0  0
   31.2150   29.9350   36.5190 H   0  0  0  0  0  0  0  0  0  0  0  0
   32.6160   31.5390   37.0860 C   0  0  0  0  0  0  0  0  0  0  0  0
   31.9570   31.9240   37.8500 H   0  0  0  0  0  0  0  0  0  0  0  0
   33.8600   32.0970   36.8060 C   0  0  0  0  0  0  0  0  0  0  0  0
   34.3320   33.4880   37.7680 Cl  0  0  0  0  0  0  0  0  0  0  0  0
   37.2010   27.3860   32.6560 C   0  0  0  0  0  0  0  0  0  0  0  0
   38.4410   27.4920   32.8690 O   0  0  0  0  0  0  0  0  0  0  0  0
   36.6300   23.8490   32.0940 C   0  0  0  0  0  0  0  0  0  0  0  0
   35.5340   23.8310   31.2240 C   0  0  0  0  0  0  0  0  0  0  0  0
   34.9870   25.0360   30.8260 C   0  0  0  0  0  0  0  0  0  0  0  0
   35.5520   26.1760   31.3100 N   0  0  0  0  0  0  0  0  0  0  0  0
   36.6030   26.1710   32.1450 C   0  0  0  0  0  0  0  0  0  0  0  0
   37.1440   24.9990   32.5380 N   0  0  0  0  0  0  0  0  0  0  0  0
   37.1140   22.9350   32.4510 H   0  0  0  0  0  0  0  0  0  0  0  0
   35.1890   22.8720   30.9200 H   0  0  0  0  0  0  0  0  0  0  0  0
   34.1400   25.0240   30.1530 H   0  0  0  0  0  0  0  0  0  0  0  0
  1  5  1  0  0  0  0
  2  3  1  0  0  0  0
  2  1  2  0  0  0  0
  3  4  2  0  0  0  0
  4  5  1  0  0  0  0
  4 10  1  0  0  0  0
  6  2  1  0  0  0  0
  7  3  1  0  0  0  0
  8  9  1  0  0  0  0
  9 17  1  0  0  0  0
 10 11  1  0  0  0  0
 10  9  2  0  0  0  0
 11 13  2  0  0  0  0
 12 11  1  0  0  0  0
 13 14  1  0  0  0  0
 13 15  1  0  0  0  0
 15 16  1  0  0  0  0
 17 15  2  0  0  0  0
 17 18  1  0  0  0  0
 19 20  2  0  0  0  0
 19  1  1  0  0  0  0
 21 27  1  0  0  0  0
 21 26  1  0  0  0  0
 22 21  2  0  0  0  0
 23 22  1  0  0  0  0
 23 24  2  0  0  0  0
 24 25  1  0  0  0  0
 25 26  2  0  0  0  0
 25 19  1  0  0  0  0
 28 22  1  0  0  0  0
 29 23  1  0  0  0  0
M  END
>  <minimizedAffinity>
-5.46818781

$$$$

 OpenBabel03272508463D

 29 31  0  0  0  0  0  0  0  0999 V2000
   37.2190   26.2620   33.2770 C   0  0  0  0  0  0  0  0  0  0  0  0
   37.4610   27.4190   34.0070 C   0  0  0  0  0  0  0  0  0  0  0  0
   37.9590   26.9070   35.2080 C   0  0  0  0  0  0  0  0  0  0  0  0
   38.0000   25.5360   35.1660 C   0  0  0  0  0  0  0  0  0  0  0  0
   37.5500   25.1830   33.9940 O   0  0  0  0  0  0  0  0  0  0  0  0
   37.2880   28.4350   33.6810 H   0  0  0  0  0  0  0  0  0  0  0  0
   38.2640   27.5390   36.0440 H   0  0  0  0  0  0  0  0  0  0  0  0
   40.4120   23.7750   34.5290 Cl  0  0  0  0  0  0  0  0  0  0  0  0
   39.5450   23.8250   36.0380 C   0  0  0  0  0  0  0  0  0  0  0  0
   38.4620   24.6560   36.2360 C   0  0  0  0  0  0  0  0  0  0  0  0
   37.8150   24.6530   37.4520 C   0  0  0  0  0  0  0  0  0  0  0  0
   36.9630   25.3230   37.5710 H   0  0  0  0  0  0  0  0  0  0  0  0
   38.1840   23.8530   38.5210 C   0  0  0  0  0  0  0  0  0  0  0  0
   37.6060   23.9300   39.4310 H   0  0  0  0  0  0  0  0  0  0  0  0
   39.2760   23.0160   38.3200 C   0  0  0  0  0  0  0  0  0  0  0  0
   39.5630   22.3920   39.1530 H   0  0  0  0  0  0  0  0  0  0  0  0
   39.9420   23.0060   37.0990 C   0  0  0  0  0  0  0  0  0  0  0  0
   41.3060   21.9100   36.9580 Cl  0  0  0  0  0  0  0  0  0  0  0  0
   36.6810   26.2370   31.9180 C   0  0  0  0  0  0  0  0  0  0  0  0
   35.7490   25.4200   31.6770 O   0  0  0  0  0  0  0  0  0  0  0  0
   38.9360   27.5880   29.4200 C   0  0  0  0  0  0  0  0  0  0  0  0
   38.2880   28.7510   28.9900 C   0  0  0  0  0  0  0  0  0  0  0  0
   37.0710   29.0760   29.5600 C   0  0  0  0  0  0  0  0  0  0  0  0
   36.5740   28.2370   30.5100 N   0  0  0  0  0  0  0  0  0  0  0  0
   37.2130   27.1260   30.9060 C   0  0  0  0  0  0  0  0  0  0  0  0
   38.4020   26.8000   30.3570 N   0  0  0  0  0  0  0  0  0  0  0  0
   39.9010   27.2680   29.0150 H   0  0  0  0  0  0  0  0  0  0  0  0
   38.7840   29.3190   28.2410 H   0  0  0  0  0  0  0  0  0  0  0  0
   36.5680   29.9750   29.2300 H   0  0  0  0  0  0  0  0  0  0  0  0
  1  5  1  0  0  0  0
  1  2  2  0  0  0  0
  2  3  1  0  0  0  0
  3  7  1  0  0  0  0
  4  3  2  0  0  0  0
  4 10  1  0  0  0  0
  5  4  1  0  0  0  0
  6  2  1  0  0  0  0
  8  9  1  0  0  0  0
  9 10  2  0  0  0  0
  9 17  1  0  0  0  0
 10 11  1  0  0  0  0
 11 12  1  0  0  0  0
 11 13  2  0  0  0  0
 13 14  1  0  0  0  0
 15 13  1  0  0  0  0
 15 16  1  0  0  0  0
 17 15  2  0  0  0  0
 18 17  1  0  0  0  0
 19  1  1  0  0  0  0
 20 19  2  0  0  0  0
 21 26  1  0  0  0  0
 22 21  2  0  0  0  0
 22 23  1  0  0  0  0
 23 24  2  0  0  0  0
 24 25  1  0  0  0  0
 25 19  1  0  0  0  0
 26 25  2  0  0  0  0
 27 21  1  0  0  0  0
 28 22  1  0  0  0  0
 29 23  1  0  0  0  0
M  END
>  <minimizedAffinity>
-5.4506278

$$$$

 OpenBabel03272508463D

 29 31  0  0  0  0  0  0  0  0999 V2000
   38.5700   25.2080   34.0840 C   0  0  0  0  0  0  0  0  0  0  0  0
   39.6480   26.0330   34.3750 C   0  0  0  0  0  0  0  0  0  0  0  0
   39.4030   27.1340   33.5510 C   0  0  0  0  0  0  0  0  0  0  0  0
   38.2500   26.9490   32.8310 C   0  0  0  0  0  0  0  0  0  0  0  0
   37.7760   25.7840   33.1750 O   0  0  0  0  0  0  0  0  0  0  0  0
   40.4490   25.8250   35.0710 H   0  0  0  0  0  0  0  0  0  0  0  0
   40.0600   28.0050   33.5100 H   0  0  0  0  0  0  0  0  0  0  0  0
   35.9030   28.6370   33.8130 Cl  0  0  0  0  0  0  0  0  0  0  0  0
   36.6140   28.6900   32.2240 C   0  0  0  0  0  0  0  0  0  0  0  0
   37.6770   27.8860   31.8690 C   0  0  0  0  0  0  0  0  0  0  0  0
   38.1990   27.9720   30.5960 C   0  0  0  0  0  0  0  0  0  0  0  0
   39.0390   27.3210   30.3530 H   0  0  0  0  0  0  0  0  0  0  0  0
   37.7200   28.8300   29.6220 C   0  0  0  0  0  0  0  0  0  0  0  0
   38.2040   28.8150   28.6550 H   0  0  0  0  0  0  0  0  0  0  0  0
   36.6480   29.6390   29.9810 C   0  0  0  0  0  0  0  0  0  0  0  0
   36.2740   30.3090   29.2210 H   0  0  0  0  0  0  0  0  0  0  0  0
   36.1080   29.5670   31.2620 C   0  0  0  0  0  0  0  0  0  0  0  0
   34.7580   30.6350   31.6050 Cl  0  0  0  0  0  0  0  0  0  0  0  0
   38.3410   23.8970   34.6900 C   0  0  0  0  0  0  0  0  0  0  0  0
   37.9540   22.9650   33.9310 O   0  0  0  0  0  0  0  0  0  0  0  0
   37.8290   24.1190   38.2740 C   0  0  0  0  0  0  0  0  0  0  0  0
   38.8960   23.3830   38.8010 C   0  0  0  0  0  0  0  0  0  0  0  0
   39.7970   22.8070   37.9250 C   0  0  0  0  0  0  0  0  0  0  0  0
   39.5890   22.9920   36.5930 N   0  0  0  0  0  0  0  0  0  0  0  0
   38.5580   23.7020   36.1090 C   0  0  0  0  0  0  0  0  0  0  0  0
   37.6730   24.2690   36.9560 N   0  0  0  0  0  0  0  0  0  0  0  0
   37.0780   24.6020   38.9050 H   0  0  0  0  0  0  0  0  0  0  0  0
   38.9440   23.3150   39.8620 H   0  0  0  0  0  0  0  0  0  0  0  0
   40.6230   22.2380   38.3310 H   0  0  0  0  0  0  0  0  0  0  0  0
  1  2  2  0  0  0  0
  1 19  1  0  0  0  0
  2  6  1  0  0  0  0
  3  2  1  0  0  0  0
  4  5  1  0  0  0  0
  4  3  2  0  0  0  0
  5  1  1  0  0  0  0
  7  3  1  0  0  0  0
  9  8  1  0  0  0  0
 10  9  1  0  0  0  0
 10  4  1  0  0  0  0
 11 10  2  0  0  0  0
 12 11  1  0  0  0  0
 13 15  2  0  0  0  0
 13 11  1  0  0  0  0
 14 13  1  0  0  0  0
 15 17  1  0  0  0  0
 16 15  1  0  0  0  0
 17 18  1  0  0  0  0
 17  9  2  0  0  0  0
 19 25  1  0  0  0  0
 20 19  2  0  0  0  0
 21 22  1  0  0  0  0
 21 27  1  0  0  0  0
 22 28  1  0  0  0  0
 23 29  1  0  0  0  0
 23 22  2  0  0  0  0
 24 23  1  0  0  0  0
 25 24  2  0  0  0  0
 25 26  1  0  0  0  0
 26 21  2  0  0  0  0
M  END
>  <minimizedAffinity>
-5.34581804

$$$$

 OpenBabel03272508463D

 29 31  0  0  0  0  0  0  0  0999 V2000
   36.4160   25.9780   32.0230 C   0  0  0  0  0  0  0  0  0  0  0  0
   35.3670   25.9980   31.1130 C   0  0  0  0  0  0  0  0  0  0  0  0
   35.1480   24.6360   30.8900 C   0  0  0  0  0  0  0  0  0  0  0  0
   36.0220   23.8810   31.6310 C   0  0  0  0  0  0  0  0  0  0  0  0
   36.7680   24.7170   32.2980 O   0  0  0  0  0  0  0  0  0  0  0  0
   34.8800   26.8750   30.7100 H   0  0  0  0  0  0  0  0  0  0  0  0
   34.3790   24.2600   30.2120 H   0  0  0  0  0  0  0  0  0  0  0  0
   38.4400   22.6150   30.2640 Cl  0  0  0  0  0  0  0  0  0  0  0  0
   37.1490   21.7640   31.0630 C   0  0  0  0  0  0  0  0  0  0  0  0
   36.0910   22.4230   31.6560 C   0  0  0  0  0  0  0  0  0  0  0  0
   35.0980   21.6960   32.2740 C   0  0  0  0  0  0  0  0  0  0  0  0
   34.2790   22.2520   32.7320 H   0  0  0  0  0  0  0  0  0  0  0  0
   35.0830   20.3140   32.3460 C   0  0  0  0  0  0  0  0  0  0  0  0
   34.2520   19.8450   32.8560 H   0  0  0  0  0  0  0  0  0  0  0  0
   36.1480   19.6510   31.7480 C   0  0  0  0  0  0  0  0  0  0  0  0
   36.1370   18.5730   31.8030 H   0  0  0  0  0  0  0  0  0  0  0  0
   37.1620   20.3680   31.1190 C   0  0  0  0  0  0  0  0  0  0  0  0
   38.4570   19.4270   30.3980 Cl  0  0  0  0  0  0  0  0  0  0  0  0
   37.0410   27.1700   32.5950 C   0  0  0  0  0  0  0  0  0  0  0  0
   36.4140   28.2610   32.4930 O   0  0  0  0  0  0  0  0  0  0  0  0
   40.6420   27.0840   33.0220 C   0  0  0  0  0  0  0  0  0  0  0  0
   40.8010   26.9030   34.4010 C   0  0  0  0  0  0  0  0  0  0  0  0
   39.6700   26.8100   35.1890 C   0  0  0  0  0  0  0  0  0  0  0  0
   38.4600   26.9010   34.5720 N   0  0  0  0  0  0  0  0  0  0  0  0
   38.3300   27.0740   33.2470 C   0  0  0  0  0  0  0  0  0  0  0  0
   39.4290   27.1660   32.4690 N   0  0  0  0  0  0  0  0  0  0  0  0
   41.4900   27.1660   32.3370 H   0  0  0  0  0  0  0  0  0  0  0  0
   41.8020   26.8480   34.7560 H   0  0  0  0  0  0  0  0  0  0  0  0
   39.7910   26.6700   36.2550 H   0  0  0  0  0  0  0  0  0  0  0  0
  1  5  1  0  0  0  0
  1 19  1  0  0  0  0
  2  1  2  0  0  0  0
  3  2  1  0  0  0  0
  3  4  2  0  0  0  0
  4 10  1  0  0  0  0
  4  5  1  0  0  0  0
  6  2  1  0  0  0  0
  7  3  1  0  0  0  0
  8  9  1  0  0  0  0
  9 17  2  0  0  0  0
  9 10  1  0  0  0  0
 10 11  2  0  0  0  0
 11 13  1  0  0  0  0
 11 12  1  0  0  0  0
 13 14  1  0  0  0  0
 15 16  1  0  0  0  0
 15 13  2  0  0  0  0
 17 15  1  0  0  0  0
 18 17  1  0  0  0  0
 19 25  1  0  0  0  0
 20 19  2  0  0  0  0
 21 22  1  0  0  0  0
 22 28  1  0  0  0  0
 22 23  2  0  0  0  0
 23 29  1  0  0  0  0
 24 23  1  0  0  0  0
 25 24  2  0  0  0  0
 26 21  2  0  0  0  0
 26 25  1  0  0  0  0
 27 21  1  0  0  0  0
M  END
>  <minimizedAffinity>
-5.30608892

$$$$

 OpenBabel03272508463D

 29 31  0  0  0  0  0  0  0  0999 V2000
   36.6460   28.4470   32.6600 C   0  0  0  0  0  0  0  0  0  0  0  0
   36.3590   29.4620   31.7570 C   0  0  0  0  0  0  0  0  0  0  0  0
   35.6660   30.3760   32.5550 C   0  0  0  0  0  0  0  0  0  0  0  0
   35.5640   29.9090   33.8420 C   0  0  0  0  0  0  0  0  0  0  0  0
   36.1620   28.7500   33.8690 O   0  0  0  0  0  0  0  0  0  0  0  0
   36.6270   29.4870   30.7100 H   0  0  0  0  0  0  0  0  0  0  0  0
   35.2740   31.3210   32.1750 H   0  0  0  0  0  0  0  0  0  0  0  0
   32.5930   29.3210   34.2300 Cl  0  0  0  0  0  0  0  0  0  0  0  0
   33.5670   30.3850   35.2060 C   0  0  0  0  0  0  0  0  0  0  0  0
   34.9080   30.5910   34.9540 C   0  0  0  0  0  0  0  0  0  0  0  0
   35.6280   31.4440   35.7600 C   0  0  0  0  0  0  0  0  0  0  0  0
   36.6860   31.5810   35.5300 H   0  0  0  0  0  0  0  0  0  0  0  0
   35.0890   32.1310   36.8350 C   0  0  0  0  0  0  0  0  0  0  0  0
   35.7460   32.7760   37.4010 H   0  0  0  0  0  0  0  0  0  0  0  0
   33.7380   31.9230   37.0870 C   0  0  0  0  0  0  0  0  0  0  0  0
   33.3170   32.4590   37.9250 H   0  0  0  0  0  0  0  0  0  0  0  0
   32.9940   31.0640   36.2840 C   0  0  0  0  0  0  0  0  0  0  0  0
   31.2970   30.8780   36.6950 Cl  0  0  0  0  0  0  0  0  0  0  0  0
   37.3750   27.2230   32.3290 C   0  0  0  0  0  0  0  0  0  0  0  0
   37.3020   26.8070   31.1390 O   0  0  0  0  0  0  0  0  0  0  0  0
   38.3730   24.6480   34.6800 C   0  0  0  0  0  0  0  0  0  0  0  0
   39.5350   25.1690   35.2600 C   0  0  0  0  0  0  0  0  0  0  0  0
   39.9790   26.4110   34.8450 C   0  0  0  0  0  0  0  0  0  0  0  0
   39.2550   27.0540   33.8890 N   0  0  0  0  0  0  0  0  0  0  0  0
   38.1430   26.5350   33.3450 C   0  0  0  0  0  0  0  0  0  0  0  0
   37.7000   25.3240   33.7440 N   0  0  0  0  0  0  0  0  0  0  0  0
   37.9620   23.6730   34.9580 H   0  0  0  0  0  0  0  0  0  0  0  0
   40.0060   24.5650   35.9970 H   0  0  0  0  0  0  0  0  0  0  0  0
   40.8770   26.8160   35.2920 H   0  0  0  0  0  0  0  0  0  0  0  0
  1  5  1  0  0  0  0
  2  3  1  0  0  0  0
  2  1  2  0  0  0  0
  3  4  2  0  0  0  0
  4  5  1  0  0  0  0
  4 10  1  0  0  0  0
  6  2  1  0  0  0  0
  7  3  1  0  0  0  0
  8  9  1  0  0  0  0
  9 17  1  0  0  0  0
 10  9  2  0  0  0  0
 10 11  1  0  0  0  0
 11 13  2  0  0  0  0
 12 11  1  0  0  0  0
 13 15  1  0  0  0  0
 13 14  1  0  0  0  0
 15 16  1  0  0  0  0
 17 18  1  0  0  0  0
 17 15  2  0  0  0  0
 19  1  1  0  0  0  0
 19 25  1  0  0  0  0
 20 19  2  0  0  0  0
 21 27  1  0  0  0  0
 21 22  1  0  0  0  0
 22 28  1  0  0  0  0
 23 22  2  0  0  0  0
 23 29  1  0  0  0  0
 24 23  1  0  0  0  0
 25 26  1  0  0  0  0
 25 24  2  0  0  0  0
 26 21  2  0  0  0  0
M  END
>  <minimizedAffinity>
-5.23979616

$$$$

 OpenBabel03272508463D

 29 31  0  0  0  0  0  0  0  0999 V2000
   36.6490   25.7550   32.0350 C   0  0  0  0  0  0  0  0  0  0  0  0
   35.5430   25.8600   31.2020 C   0  0  0  0  0  0  0  0  0  0  0  0
   35.2200   24.5200   30.9740 C   0  0  0  0  0  0  0  0  0  0  0  0
   36.0920   23.6960   31.6400 C   0  0  0  0  0  0  0  0  0  0  0  0
   36.9360   24.4690   32.2660 O   0  0  0  0  0  0  0  0  0  0  0  0
   35.0880   26.7750   30.8480 H   0  0  0  0  0  0  0  0  0  0  0  0
   34.3830   24.2080   30.3470 H   0  0  0  0  0  0  0  0  0  0  0  0
   38.4220   22.3010   30.2450 Cl  0  0  0  0  0  0  0  0  0  0  0  0
   37.0780   21.5210   31.0320 C   0  0  0  0  0  0  0  0  0  0  0  0
   36.0660   22.2360   31.6380 C   0  0  0  0  0  0  0  0  0  0  0  0
   35.0280   21.5640   32.2450 C   0  0  0  0  0  0  0  0  0  0  0  0
   34.2470   22.1640   32.7150 H   0  0  0  0  0  0  0  0  0  0  0  0
   34.9240   20.1840   32.2910 C   0  0  0  0  0  0  0  0  0  0  0  0
   34.0650   19.7610   32.7950 H   0  0  0  0  0  0  0  0  0  0  0  0
   35.9430   19.4650   31.6800 C   0  0  0  0  0  0  0  0  0  0  0  0
   35.8620   18.3890   31.7150 H   0  0  0  0  0  0  0  0  0  0  0  0
   37.0010   20.1260   31.0620 C   0  0  0  0  0  0  0  0  0  0  0  0
   38.2320   19.1170   30.3210 Cl  0  0  0  0  0  0  0  0  0  0  0  0
   37.3900   26.8920   32.5780 C   0  0  0  0  0  0  0  0  0  0  0  0
   38.6180   26.7240   32.8190 O   0  0  0  0  0  0  0  0  0  0  0  0
   35.5390   29.4830   34.3150 C   0  0  0  0  0  0  0  0  0  0  0  0
   35.4290   30.5000   33.3600 C   0  0  0  0  0  0  0  0  0  0  0  0
   35.9910   30.2980   32.1140 C   0  0  0  0  0  0  0  0  0  0  0  0
   36.6230   29.1130   31.8900 N   0  0  0  0  0  0  0  0  0  0  0  0
   36.7170   28.1510   32.8210 C   0  0  0  0  0  0  0  0  0  0  0  0
   36.1710   28.3380   34.0410 N   0  0  0  0  0  0  0  0  0  0  0  0
   35.1190   29.5710   35.3210 H   0  0  0  0  0  0  0  0  0  0  0  0
   34.9090   31.3770   33.6630 H   0  0  0  0  0  0  0  0  0  0  0  0
   35.9060   31.0830   31.3740 H   0  0  0  0  0  0  0  0  0  0  0  0
  1  5  1  0  0  0  0
  1 19  1  0  0  0  0
  2  1  2  0  0  0  0
  3  2  1  0  0  0  0
  3  4  2  0  0  0  0
  4  5  1  0  0  0  0
  6  2  1  0  0  0  0
  7  3  1  0  0  0  0
  8  9  1  0  0  0  0
  9 17  2  0  0  0  0
  9 10  1  0  0  0  0
 10  4  1  0  0  0  0
 10 11  2  0  0  0  0
 11 13  1  0  0  0  0
 11 12  1  0  0  0  0
 13 14  1  0  0  0  0
 15 16  1  0  0  0  0
 15 13  2  0  0  0  0
 17 15  1  0  0  0  0
 18 17  1  0  0  0  0
 19 20  2  0  0  0  0
 19 25  1  0  0  0  0
 21 27  1  0  0  0  0
 22 28  1  0  0  0  0
 22 21  2  0  0  0  0
 23 22  1  0  0  0  0
 24 23  2  0  0  0  0
 24 25  1  0  0  0  0
 25 26  2  0  0  0  0
 26 21  1  0  0  0  0
 29 23  1  0  0  0  0
M  END
>  <minimizedAffinity>
-5.19667006

$$$$

 OpenBabel03272508463D

 29 31  0  0  0  0  0  0  0  0999 V2000
   37.3960   25.3860   32.9040 C   0  0  0  0  0  0  0  0  0  0  0  0
   37.4100   26.6550   33.4690 C   0  0  0  0  0  0  0  0  0  0  0  0
   37.7970   26.3850   34.7840 C   0  0  0  0  0  0  0  0  0  0  0  0
   37.9920   25.0380   34.9610 C   0  0  0  0  0  0  0  0  0  0  0  0
   37.7430   24.4690   33.8130 O   0  0  0  0  0  0  0  0  0  0  0  0
   37.1730   27.5840   32.9710 H   0  0  0  0  0  0  0  0  0  0  0  0
   37.9170   27.1620   35.5410 H   0  0  0  0  0  0  0  0  0  0  0  0
   40.3200   23.0730   34.7540 Cl  0  0  0  0  0  0  0  0  0  0  0  0
   39.4440   23.4800   36.2020 C   0  0  0  0  0  0  0  0  0  0  0  0
   38.4000   24.3830   36.2000 C   0  0  0  0  0  0  0  0  0  0  0  0
   37.7430   24.6660   37.3770 C   0  0  0  0  0  0  0  0  0  0  0  0
   36.9240   25.3850   37.3360 H   0  0  0  0  0  0  0  0  0  0  0  0
   38.0630   24.0940   38.5970 C   0  0  0  0  0  0  0  0  0  0  0  0
   37.4800   24.3880   39.4590 H   0  0  0  0  0  0  0  0  0  0  0  0
   39.1140   23.1840   38.5980 C   0  0  0  0  0  0  0  0  0  0  0  0
   39.3630   22.7370   39.5480 H   0  0  0  0  0  0  0  0  0  0  0  0
   39.7900   22.8860   37.4180 C   0  0  0  0  0  0  0  0  0  0  0  0
   41.1000   21.7230   37.5370 Cl  0  0  0  0  0  0  0  0  0  0  0  0
   37.0490   25.1010   31.5120 C   0  0  0  0  0  0  0  0  0  0  0  0
   35.9890   25.6190   31.0600 O   0  0  0  0  0  0  0  0  0  0  0  0
   39.5660   24.1320   29.0880 C   0  0  0  0  0  0  0  0  0  0  0  0
   39.5540   22.7340   29.1480 C   0  0  0  0  0  0  0  0  0  0  0  0
   38.6780   22.1190   30.0220 C   0  0  0  0  0  0  0  0  0  0  0  0
   37.8760   22.9170   30.7790 N   0  0  0  0  0  0  0  0  0  0  0  0
   37.9050   24.2560   30.7060 C   0  0  0  0  0  0  0  0  0  0  0  0
   38.7560   24.8670   29.8550 N   0  0  0  0  0  0  0  0  0  0  0  0
   40.2320   24.6870   28.4210 H   0  0  0  0  0  0  0  0  0  0  0  0
   40.2320   22.2280   28.5030 H   0  0  0  0  0  0  0  0  0  0  0  0
   38.6660   21.0380   30.0690 H   0  0  0  0  0  0  0  0  0  0  0  0
  1  2  2  0  0  0  0
  1  5  1  0  0  0  0
  2  3  1  0  0  0  0
  3  4  2  0  0  0  0
  3  7  1  0  0  0  0
  4 10  1  0  0  0  0
  5  4  1  0  0  0  0
  6  2  1  0  0  0  0
  8  9  1  0  0  0  0
  9 17  1  0  0  0  0
 10  9  2  0  0  0  0
 10 11  1  0  0  0  0
 11 13  2  0  0  0  0
 12 11  1  0  0  0  0
 13 15  1  0  0  0  0
 13 14  1  0  0  0  0
 15 16  1  0  0  0  0
 17 18  1  0  0  0  0
 17 15  2  0  0  0  0
 19  1  1  0  0  0  0
 20 19  2  0  0  0  0
 21 22  2  0  0  0  0
 21 26  1  0  0  0  0
 22 23  1  0  0  0  0
 23 29  1  0  0  0  0
 23 24  2  0  0  0  0
 25 24  1  0  0  0  0
 25 19  1  0  0  0  0
 26 25  2  0  0  0  0
 27 21  1  0  0  0  0
 28 22  1  0  0  0  0
M  END
>  <minimizedAffinity>
-5.13498974

$$$$
