
 OpenBabel03262522413D

 43 47  0  0  0  0  0  0  0  0999 V2000
   37.0310   26.7320   32.4210 C   0  0  0  0  0  0  0  0  0  0  0  0
   37.5500   27.3520   31.3150 C   0  0  0  0  0  0  0  0  0  0  0  0
   37.3450   28.6840   31.0200 C   0  0  0  0  0  0  0  0  0  0  0  0
   36.5850   29.4570   31.8600 C   0  0  0  0  0  0  0  0  0  0  0  0
   36.0750   28.8100   32.9640 C   0  0  0  0  0  0  0  0  0  0  0  0
   36.2890   27.5280   33.2230 N   0  0  0  0  0  0  0  0  0  0  0  0
   38.1570   26.7840   30.6210 H   0  0  0  0  0  0  0  0  0  0  0  0
   37.7720   29.1350   30.1370 H   0  0  0  0  0  0  0  0  0  0  0  0
   36.4110   30.5070   31.6460 H   0  0  0  0  0  0  0  0  0  0  0  0
   33.8810   29.5240   33.9570 C   0  0  0  0  0  0  0  0  0  0  0  0
   35.2610   29.5690   33.8970 C   0  0  0  0  0  0  0  0  0  0  0  0
   35.8120   30.4280   34.8330 C   0  0  0  0  0  0  0  0  0  0  0  0
   35.0990   31.1770   35.7460 C   0  0  0  0  0  0  0  0  0  0  0  0
   35.4600   32.0440   36.7060 N   0  0  0  0  0  0  0  0  0  0  0  0
   34.3290   32.4900   37.3080 C   0  0  0  0  0  0  0  0  0  0  0  0
   33.2220   31.9020   36.7250 C   0  0  0  0  0  0  0  0  0  0  0  0
   33.7310   31.0770   35.7410 C   0  0  0  0  0  0  0  0  0  0  0  0
   33.1200   30.2500   34.8480 C   0  0  0  0  0  0  0  0  0  0  0  0
   33.3630   28.8650   33.2470 H   0  0  0  0  0  0  0  0  0  0  0  0
   36.8930   30.5420   34.8760 H   0  0  0  0  0  0  0  0  0  0  0  0
   36.4530   32.3070   36.9270 H   0  0  0  0  0  0  0  0  0  0  0  0
   34.4030   33.2060   38.1190 H   0  0  0  0  0  0  0  0  0  0  0  0
   32.2080   32.0940   37.0270 H   0  0  0  0  0  0  0  0  0  0  0  0
   32.0520   30.1860   34.8610 H   0  0  0  0  0  0  0  0  0  0  0  0
   37.2630   22.9750   32.2530 C   0  0  0  0  0  0  0  0  0  0  0  0
   37.0160   24.2950   31.8280 C   0  0  0  0  0  0  0  0  0  0  0  0
   37.2460   25.3280   32.7350 C   0  0  0  0  0  0  0  0  0  0  0  0
   37.6910   25.0010   33.9620 N   0  0  0  0  0  0  0  0  0  0  0  0
   37.9190   23.7250   34.3480 C   0  0  0  0  0  0  0  0  0  0  0  0
   37.7090   22.7300   33.5080 N   0  0  0  0  0  0  0  0  0  0  0  0
   37.0760   22.1860   31.5270 H   0  0  0  0  0  0  0  0  0  0  0  0
   36.6580   24.5450   30.8360 H   0  0  0  0  0  0  0  0  0  0  0  0
   40.4020   22.0970   34.6600 Cl  0  0  0  0  0  0  0  0  0  0  0  0
   39.5230   22.8170   36.0170 C   0  0  0  0  0  0  0  0  0  0  0  0
   38.3970   23.5390   35.7050 C   0  0  0  0  0  0  0  0  0  0  0  0
   37.7190   24.0960   36.7690 C   0  0  0  0  0  0  0  0  0  0  0  0
   36.8160   24.6860   36.6420 H   0  0  0  0  0  0  0  0  0  0  0  0
   38.1480   23.9360   38.0670 C   0  0  0  0  0  0  0  0  0  0  0  0
   37.6310   24.3640   38.9210 H   0  0  0  0  0  0  0  0  0  0  0  0
   39.2850   23.1970   38.2780 C   0  0  0  0  0  0  0  0  0  0  0  0
   39.6170   23.0750   39.3140 H   0  0  0  0  0  0  0  0  0  0  0  0
   40.0330   22.5980   37.2770 C   0  0  0  0  0  0  0  0  0  0  0  0
   41.4770   21.6630   37.5720 Cl  0  0  0  0  0  0  0  0  0  0  0  0
  1 27  1  0  0  0  0
  1  6  1  0  0  0  0
  2  1  2  0  0  0  0
  3  2  1  0  0  0  0
  3  4  2  0  0  0  0
  4  5  1  0  0  0  0
  5  6  2  0  0  0  0
  5 11  1  0  0  0  0
  7  2  1  0  0  0  0
  8  3  1  0  0  0  0
  9  4  1  0  0  0  0
 10 18  1  0  0  0  0
 11 10  2  0  0  0  0
 11 12  1  0  0  0  0
 12 20  1  0  0  0  0
 12 13  2  0  0  0  0
 13 14  1  0  0  0  0
 14 21  1  0  0  0  0
 14 15  1  0  0  0  0
 15 22  1  0  0  0  0
 16 23  1  0  0  0  0
 16 15  2  0  0  0  0
 17 13  1  0  0  0  0
 17 16  1  0  0  0  0
 18 24  1  0  0  0  0
 18 17  2  0  0  0  0
 19 10  1  0  0  0  0
 25 30  1  0  0  0  0
 26 25  2  0  0  0  0
 26 27  1  0  0  0  0
 27 28  2  0  0  0  0
 28 29  1  0  0  0  0
 29 35  1  0  0  0  0
 30 29  2  0  0  0  0
 31 25  1  0  0  0  0
 32 26  1  0  0  0  0
 33 34  1  0  0  0  0
 34 42  1  0  0  0  0
 35 34  2  0  0  0  0
 35 36  1  0  0  0  0
 36 38  2  0  0  0  0
 37 36  1  0  0  0  0
 38 40  1  0  0  0  0
 38 39  1  0  0  0  0
 40 41  1  0  0  0  0
 42 43  1  0  0  0  0
 42 40  2  0  0  0  0
M  END
>  <minimizedAffinity>
-7.59768867

$$$$

 OpenBabel03262522413D

 43 47  0  0  0  0  0  0  0  0999 V2000
   36.3740   26.6610   32.0410 C   0  0  0  0  0  0  0  0  0  0  0  0
   35.6940   25.7260   31.3040 C   0  0  0  0  0  0  0  0  0  0  0  0
   35.9380   24.3710   31.3800 C   0  0  0  0  0  0  0  0  0  0  0  0
   36.9050   23.9000   32.2310 C   0  0  0  0  0  0  0  0  0  0  0  0
   37.5730   24.8600   32.9590 C   0  0  0  0  0  0  0  0  0  0  0  0
   37.3180   26.1570   32.8660 N   0  0  0  0  0  0  0  0  0  0  0  0
   34.9200   26.0480   30.6180 H   0  0  0  0  0  0  0  0  0  0  0  0
   35.3790   23.6670   30.7820 H   0  0  0  0  0  0  0  0  0  0  0  0
   37.1120   22.8370   32.3050 H   0  0  0  0  0  0  0  0  0  0  0  0
   39.9400   24.8050   33.8000 C   0  0  0  0  0  0  0  0  0  0  0  0
   38.6110   24.4320   33.8800 C   0  0  0  0  0  0  0  0  0  0  0  0
   38.3540   23.5870   34.9470 C   0  0  0  0  0  0  0  0  0  0  0  0
   39.2910   23.1430   35.8580 C   0  0  0  0  0  0  0  0  0  0  0  0
   39.2200   22.3390   36.9300 N   0  0  0  0  0  0  0  0  0  0  0  0
   40.4650   22.2470   37.4610 C   0  0  0  0  0  0  0  0  0  0  0  0
   41.3520   23.0020   36.7170 C   0  0  0  0  0  0  0  0  0  0  0  0
   40.5880   23.5590   35.7090 C   0  0  0  0  0  0  0  0  0  0  0  0
   40.9150   24.3910   34.6810 C   0  0  0  0  0  0  0  0  0  0  0  0
   40.2310   25.4750   32.9800 H   0  0  0  0  0  0  0  0  0  0  0  0
   37.3390   23.2300   35.1070 H   0  0  0  0  0  0  0  0  0  0  0  0
   38.3390   21.8800   37.2730 H   0  0  0  0  0  0  0  0  0  0  0  0
   40.6250   21.6370   38.3430 H   0  0  0  0  0  0  0  0  0  0  0  0
   42.4010   23.0910   36.9360 H   0  0  0  0  0  0  0  0  0  0  0  0
   41.9340   24.7040   34.5830 H   0  0  0  0  0  0  0  0  0  0  0  0
   36.0100   30.2170   30.8520 C   0  0  0  0  0  0  0  0  0  0  0  0
   36.2900   28.8390   30.7990 C   0  0  0  0  0  0  0  0  0  0  0  0
   36.1200   28.0910   31.9630 C   0  0  0  0  0  0  0  0  0  0  0  0
   35.6980   28.7340   33.0670 N   0  0  0  0  0  0  0  0  0  0  0  0
   35.4360   30.0600   33.0940 C   0  0  0  0  0  0  0  0  0  0  0  0
   35.5890   30.7890   32.0060 N   0  0  0  0  0  0  0  0  0  0  0  0
   36.1500   30.7790   29.9310 H   0  0  0  0  0  0  0  0  0  0  0  0
   36.6290   28.3330   29.9020 H   0  0  0  0  0  0  0  0  0  0  0  0
   32.5850   29.5490   33.8160 Cl  0  0  0  0  0  0  0  0  0  0  0  0
   33.7100   30.4540   34.8390 C   0  0  0  0  0  0  0  0  0  0  0  0
   34.9900   30.6020   34.3630 C   0  0  0  0  0  0  0  0  0  0  0  0
   35.8590   31.3090   35.1680 C   0  0  0  0  0  0  0  0  0  0  0  0
   36.8930   31.4880   34.8940 H   0  0  0  0  0  0  0  0  0  0  0  0
   35.4630   31.8350   36.3770 C   0  0  0  0  0  0  0  0  0  0  0  0
   36.1280   32.3950   37.0280 H   0  0  0  0  0  0  0  0  0  0  0  0
   34.1620   31.6340   36.7670 C   0  0  0  0  0  0  0  0  0  0  0  0
   33.8580   32.0570   37.7300 H   0  0  0  0  0  0  0  0  0  0  0  0
   33.2170   30.9400   36.0300 C   0  0  0  0  0  0  0  0  0  0  0  0
   31.5670   30.6980   36.5480 Cl  0  0  0  0  0  0  0  0  0  0  0  0
  1  6  1  0  0  0  0
  2  3  1  0  0  0  0
  2  1  2  0  0  0  0
  3  4  2  0  0  0  0
  4  9  1  0  0  0  0
  4  5  1  0  0  0  0
  5 11  1  0  0  0  0
  6  5  2  0  0  0  0
  7  2  1  0  0  0  0
  8  3  1  0  0  0  0
 10 11  2  0  0  0  0
 10 18  1  0  0  0  0
 11 12  1  0  0  0  0
 12 20  1  0  0  0  0
 12 13  2  0  0  0  0
 13 14  1  0  0  0  0
 14 21  1  0  0  0  0
 14 15  1  0  0  0  0
 15 22  1  0  0  0  0
 16 23  1  0  0  0  0
 16 15  2  0  0  0  0
 17 13  1  0  0  0  0
 17 16  1  0  0  0  0
 18 17  2  0  0  0  0
 19 10  1  0  0  0  0
 24 18  1  0  0  0  0
 25 30  1  0  0  0  0
 26 25  2  0  0  0  0
 26 27  1  0  0  0  0
 27  1  1  0  0  0  0
 27 28  2  0  0  0  0
 28 29  1  0  0  0  0
 29 35  1  0  0  0  0
 30 29  2  0  0  0  0
 31 25  1  0  0  0  0
 32 26  1  0  0  0  0
 33 34  1  0  0  0  0
 34 42  1  0  0  0  0
 35 34  2  0  0  0  0
 35 36  1  0  0  0  0
 36 38  2  0  0  0  0
 37 36  1  0  0  0  0
 38 40  1  0  0  0  0
 38 39  1  0  0  0  0
 40 41  1  0  0  0  0
 42 43  1  0  0  0  0
 42 40  2  0  0  0  0
M  END
>  <minimizedAffinity>
-7.34331656

$$$$

 OpenBabel03262522413D

 43 47  0  0  0  0  0  0  0  0999 V2000
   37.2490   26.5830   33.1440 C   0  0  0  0  0  0  0  0  0  0  0  0
   37.5740   27.0020   31.8810 C   0  0  0  0  0  0  0  0  0  0  0  0
   37.1800   28.2150   31.3560 C   0  0  0  0  0  0  0  0  0  0  0  0
   36.4220   29.0710   32.1130 C   0  0  0  0  0  0  0  0  0  0  0  0
   36.1090   28.6250   33.3780 C   0  0  0  0  0  0  0  0  0  0  0  0
   36.5010   27.4540   33.8580 N   0  0  0  0  0  0  0  0  0  0  0  0
   38.1720   26.3620   31.2440 H   0  0  0  0  0  0  0  0  0  0  0  0
   37.4590   28.5090   30.3540 H   0  0  0  0  0  0  0  0  0  0  0  0
   36.1020   30.0300   31.7180 H   0  0  0  0  0  0  0  0  0  0  0  0
   33.9320   29.4140   34.3530 C   0  0  0  0  0  0  0  0  0  0  0  0
   35.3080   29.4810   34.2350 C   0  0  0  0  0  0  0  0  0  0  0  0
   35.8670   30.4670   35.0300 C   0  0  0  0  0  0  0  0  0  0  0  0
   35.1670   31.3130   35.8650 C   0  0  0  0  0  0  0  0  0  0  0  0
   35.5370   32.3050   36.6900 N   0  0  0  0  0  0  0  0  0  0  0  0
   34.4170   32.8010   37.2720 C   0  0  0  0  0  0  0  0  0  0  0  0
   33.3060   32.1180   36.8130 C   0  0  0  0  0  0  0  0  0  0  0  0
   33.8030   31.1830   35.9250 C   0  0  0  0  0  0  0  0  0  0  0  0
   33.1840   30.2330   35.1700 C   0  0  0  0  0  0  0  0  0  0  0  0
   33.4070   28.6570   33.7550 H   0  0  0  0  0  0  0  0  0  0  0  0
   36.9450   30.6100   35.0170 H   0  0  0  0  0  0  0  0  0  0  0  0
   36.5300   32.6170   36.8370 H   0  0  0  0  0  0  0  0  0  0  0  0
   34.5000   33.6180   37.9790 H   0  0  0  0  0  0  0  0  0  0  0  0
   32.2980   32.3250   37.1260 H   0  0  0  0  0  0  0  0  0  0  0  0
   32.1190   30.1470   35.2330 H   0  0  0  0  0  0  0  0  0  0  0  0
   38.6350   23.8780   35.3710 C   0  0  0  0  0  0  0  0  0  0  0  0
   38.2840   25.1720   34.9420 C   0  0  0  0  0  0  0  0  0  0  0  0
   37.6620   25.3040   33.7020 C   0  0  0  0  0  0  0  0  0  0  0  0
   37.4340   24.1850   32.9900 N   0  0  0  0  0  0  0  0  0  0  0  0
   37.7820   22.9520   33.4240 C   0  0  0  0  0  0  0  0  0  0  0  0
   38.3720   22.8010   34.5930 N   0  0  0  0  0  0  0  0  0  0  0  0
   39.1200   23.8020   36.3420 H   0  0  0  0  0  0  0  0  0  0  0  0
   38.4730   26.0670   35.5260 H   0  0  0  0  0  0  0  0  0  0  0  0
   35.8600   20.9240   34.4760 Cl  0  0  0  0  0  0  0  0  0  0  0  0
   36.6030   20.8330   32.8730 C   0  0  0  0  0  0  0  0  0  0  0  0
   37.4680   21.8470   32.5380 C   0  0  0  0  0  0  0  0  0  0  0  0
   38.0420   21.7670   31.2870 C   0  0  0  0  0  0  0  0  0  0  0  0
   38.7400   22.5100   30.9160 H   0  0  0  0  0  0  0  0  0  0  0  0
   37.7630   20.7290   30.4250 C   0  0  0  0  0  0  0  0  0  0  0  0
   38.2030   20.6440   29.4360 H   0  0  0  0  0  0  0  0  0  0  0  0
   36.8860   19.7640   30.8510 C   0  0  0  0  0  0  0  0  0  0  0  0
   36.6710   18.9430   30.1580 H   0  0  0  0  0  0  0  0  0  0  0  0
   36.2600   19.7560   32.0860 C   0  0  0  0  0  0  0  0  0  0  0  0
   35.1460   18.5150   32.6030 Cl  0  0  0  0  0  0  0  0  0  0  0  0
  1 27  1  0  0  0  0
  1  6  1  0  0  0  0
  2  1  2  0  0  0  0
  3  2  1  0  0  0  0
  3  4  2  0  0  0  0
  4  5  1  0  0  0  0
  5  6  2  0  0  0  0
  5 11  1  0  0  0  0
  7  2  1  0  0  0  0
  8  3  1  0  0  0  0
  9  4  1  0  0  0  0
 10 18  1  0  0  0  0
 11 10  2  0  0  0  0
 11 12  1  0  0  0  0
 12 13  2  0  0  0  0
 13 17  1  0  0  0  0
 13 14  1  0  0  0  0
 14 21  1  0  0  0  0
 14 15  1  0  0  0  0
 15 22  1  0  0  0  0
 16 23  1  0  0  0  0
 16 15  2  0  0  0  0
 17 16  1  0  0  0  0
 18 24  1  0  0  0  0
 18 17  2  0  0  0  0
 19 10  1  0  0  0  0
 20 12  1  0  0  0  0
 25 31  1  0  0  0  0
 26 25  1  0  0  0  0
 26 32  1  0  0  0  0
 27 26  2  0  0  0  0
 28 29  2  0  0  0  0
 28 27  1  0  0  0  0
 29 30  1  0  0  0  0
 30 25  2  0  0  0  0
 34 33  1  0  0  0  0
 35 34  1  0  0  0  0
 35 29  1  0  0  0  0
 36 35  2  0  0  0  0
 37 36  1  0  0  0  0
 38 40  2  0  0  0  0
 38 36  1  0  0  0  0
 39 38  1  0  0  0  0
 40 42  1  0  0  0  0
 41 40  1  0  0  0  0
 42 43  1  0  0  0  0
 42 34  2  0  0  0  0
M  END
>  <minimizedAffinity>
-7.09417009

$$$$

 OpenBabel03262522413D

 43 47  0  0  0  0  0  0  0  0999 V2000
   37.3780   26.7280   33.5990 C   0  0  0  0  0  0  0  0  0  0  0  0
   38.2870   26.6140   34.6180 C   0  0  0  0  0  0  0  0  0  0  0  0
   38.8610   25.4190   34.9970 C   0  0  0  0  0  0  0  0  0  0  0  0
   38.5250   24.2640   34.3390 C   0  0  0  0  0  0  0  0  0  0  0  0
   37.6090   24.4060   33.3200 C   0  0  0  0  0  0  0  0  0  0  0  0
   37.0730   25.5690   32.9760 N   0  0  0  0  0  0  0  0  0  0  0  0
   38.5850   27.4980   35.1680 H   0  0  0  0  0  0  0  0  0  0  0  0
   39.5750   25.3710   35.8060 H   0  0  0  0  0  0  0  0  0  0  0  0
   38.9650   23.3130   34.6220 H   0  0  0  0  0  0  0  0  0  0  0  0
   36.0810   23.1360   31.7820 C   0  0  0  0  0  0  0  0  0  0  0  0
   37.2070   23.2230   32.5800 C   0  0  0  0  0  0  0  0  0  0  0  0
   37.9370   22.0460   32.6100 C   0  0  0  0  0  0  0  0  0  0  0  0
   37.6130   20.8880   31.9330 C   0  0  0  0  0  0  0  0  0  0  0  0
   38.1920   19.6800   31.8490 N   0  0  0  0  0  0  0  0  0  0  0  0
   37.4320   18.9120   31.0290 C   0  0  0  0  0  0  0  0  0  0  0  0
   36.3450   19.6370   30.5790 C   0  0  0  0  0  0  0  0  0  0  0  0
   36.4790   20.8820   31.1620 C   0  0  0  0  0  0  0  0  0  0  0  0
   35.7120   22.0060   31.0850 C   0  0  0  0  0  0  0  0  0  0  0  0
   35.4450   24.0270   31.7020 H   0  0  0  0  0  0  0  0  0  0  0  0
   38.8450   22.0010   33.2070 H   0  0  0  0  0  0  0  0  0  0  0  0
   39.0790   19.4100   32.3430 H   0  0  0  0  0  0  0  0  0  0  0  0
   37.7300   17.8900   30.8270 H   0  0  0  0  0  0  0  0  0  0  0  0
   35.5930   19.2490   29.9150 H   0  0  0  0  0  0  0  0  0  0  0  0
   34.8310   21.9800   30.4770 H   0  0  0  0  0  0  0  0  0  0  0  0
   36.1740   29.7040   31.6270 C   0  0  0  0  0  0  0  0  0  0  0  0
   36.8000   28.4710   31.8890 C   0  0  0  0  0  0  0  0  0  0  0  0
   36.7710   27.9870   33.1960 C   0  0  0  0  0  0  0  0  0  0  0  0
   36.1450   28.7310   34.1280 N   0  0  0  0  0  0  0  0  0  0  0  0
   35.5520   29.9140   33.8510 C   0  0  0  0  0  0  0  0  0  0  0  0
   35.5660   30.3920   32.6230 N   0  0  0  0  0  0  0  0  0  0  0  0
   36.2110   30.0600   30.5990 H   0  0  0  0  0  0  0  0  0  0  0  0
   37.3010   27.8810   31.1290 H   0  0  0  0  0  0  0  0  0  0  0  0
   32.6450   29.3640   34.2550 Cl  0  0  0  0  0  0  0  0  0  0  0  0
   33.5930   30.4470   35.2850 C   0  0  0  0  0  0  0  0  0  0  0  0
   34.9200   30.5930   34.9660 C   0  0  0  0  0  0  0  0  0  0  0  0
   35.6500   31.4390   35.7750 C   0  0  0  0  0  0  0  0  0  0  0  0
   36.7070   31.6310   35.6180 H   0  0  0  0  0  0  0  0  0  0  0  0
   35.0770   32.0980   36.8410 C   0  0  0  0  0  0  0  0  0  0  0  0
   35.6310   32.7680   37.4920 H   0  0  0  0  0  0  0  0  0  0  0  0
   33.7430   31.8870   37.0800 C   0  0  0  0  0  0  0  0  0  0  0  0
   33.2970   32.4150   37.9290 H   0  0  0  0  0  0  0  0  0  0  0  0
   32.9270   31.0590   36.3260 C   0  0  0  0  0  0  0  0  0  0  0  0
   31.2310   30.8070   36.6510 Cl  0  0  0  0  0  0  0  0  0  0  0  0
  1  2  1  0  0  0  0
  2  3  2  0  0  0  0
  2  7  1  0  0  0  0
  3  8  1  0  0  0  0
  4  9  1  0  0  0  0
  4  3  1  0  0  0  0
  5  4  2  0  0  0  0
  6  5  1  0  0  0  0
  6  1  2  0  0  0  0
 10 11  1  0  0  0  0
 11 12  2  0  0  0  0
 11  5  1  0  0  0  0
 12 20  1  0  0  0  0
 13 12  1  0  0  0  0
 14 13  1  0  0  0  0
 14 21  1  0  0  0  0
 15 14  1  0  0  0  0
 16 15  2  0  0  0  0
 16 17  1  0  0  0  0
 17 13  2  0  0  0  0
 18 17  1  0  0  0  0
 18 10  2  0  0  0  0
 19 10  1  0  0  0  0
 22 15  1  0  0  0  0
 23 16  1  0  0  0  0
 24 18  1  0  0  0  0
 25 26  2  0  0  0  0
 25 30  1  0  0  0  0
 26 27  1  0  0  0  0
 27  1  1  0  0  0  0
 27 28  2  0  0  0  0
 29 28  1  0  0  0  0
 29 35  1  0  0  0  0
 30 29  2  0  0  0  0
 31 25  1  0  0  0  0
 32 26  1  0  0  0  0
 33 34  1  0  0  0  0
 34 42  1  0  0  0  0
 35 34  2  0  0  0  0
 35 36  1  0  0  0  0
 36 38  2  0  0  0  0
 37 36  1  0  0  0  0
 38 40  1  0  0  0  0
 38 39  1  0  0  0  0
 40 41  1  0  0  0  0
 42 43  1  0  0  0  0
 42 40  2  0  0  0  0
M  END
>  <minimizedAffinity>
-7.08727646

$$$$

 OpenBabel03262522413D

 43 47  0  0  0  0  0  0  0  0999 V2000
   37.2870   28.1530   32.0120 C   0  0  0  0  0  0  0  0  0  0  0  0
   37.0140   28.6560   30.7670 C   0  0  0  0  0  0  0  0  0  0  0  0
   36.1250   29.6850   30.5390 C   0  0  0  0  0  0  0  0  0  0  0  0
   35.4630   30.2590   31.5930 C   0  0  0  0  0  0  0  0  0  0  0  0
   35.7550   29.7350   32.8330 C   0  0  0  0  0  0  0  0  0  0  0  0
   36.6140   28.7450   33.0240 N   0  0  0  0  0  0  0  0  0  0  0  0
   37.5120   28.2370   29.9010 H   0  0  0  0  0  0  0  0  0  0  0  0
   35.9380   30.0530   29.5400 H   0  0  0  0  0  0  0  0  0  0  0  0
   34.7590   31.0700   31.4350 H   0  0  0  0  0  0  0  0  0  0  0  0
   35.7060   31.0640   34.9650 C   0  0  0  0  0  0  0  0  0  0  0  0
   35.0890   30.2950   33.9960 C   0  0  0  0  0  0  0  0  0  0  0  0
   33.7400   30.1020   34.2430 C   0  0  0  0  0  0  0  0  0  0  0  0
   33.0450   30.6040   35.3240 C   0  0  0  0  0  0  0  0  0  0  0  0
   31.7640   30.5180   35.7140 N   0  0  0  0  0  0  0  0  0  0  0  0
   31.6350   31.2140   36.8710 C   0  0  0  0  0  0  0  0  0  0  0  0
   32.8540   31.7550   37.2330 C   0  0  0  0  0  0  0  0  0  0  0  0
   33.7300   31.3570   36.2420 C   0  0  0  0  0  0  0  0  0  0  0  0
   35.0610   31.5890   36.0630 C   0  0  0  0  0  0  0  0  0  0  0  0
   36.7790   31.2660   34.8460 H   0  0  0  0  0  0  0  0  0  0  0  0
   33.1530   29.5110   33.5430 H   0  0  0  0  0  0  0  0  0  0  0  0
   31.0160   29.9960   35.1910 H   0  0  0  0  0  0  0  0  0  0  0  0
   30.6670   31.2690   37.3560 H   0  0  0  0  0  0  0  0  0  0  0  0
   33.0120   32.3510   38.1140 H   0  0  0  0  0  0  0  0  0  0  0  0
   35.5770   32.1810   36.7910 H   0  0  0  0  0  0  0  0  0  0  0  0
   40.1860   25.7550   31.8170 C   0  0  0  0  0  0  0  0  0  0  0  0
   39.3570   26.8400   31.4770 C   0  0  0  0  0  0  0  0  0  0  0  0
   38.2240   27.0680   32.2570 C   0  0  0  0  0  0  0  0  0  0  0  0
   37.9930   26.2350   33.2890 N   0  0  0  0  0  0  0  0  0  0  0  0
   38.8050   25.1980   33.5950 C   0  0  0  0  0  0  0  0  0  0  0  0
   39.8820   24.9620   32.8730 N   0  0  0  0  0  0  0  0  0  0  0  0
   41.0640   25.5980   31.1930 H   0  0  0  0  0  0  0  0  0  0  0  0
   39.5540   27.5040   30.6430 H   0  0  0  0  0  0  0  0  0  0  0  0
   38.6660   26.6160   36.2190 Cl  0  0  0  0  0  0  0  0  0  0  0  0
   38.3070   24.8950   36.0120 C   0  0  0  0  0  0  0  0  0  0  0  0
   38.4170   24.3930   34.7380 C   0  0  0  0  0  0  0  0  0  0  0  0
   38.1350   23.0520   34.5870 C   0  0  0  0  0  0  0  0  0  0  0  0
   38.1890   22.5480   33.6270 H   0  0  0  0  0  0  0  0  0  0  0  0
   37.7640   22.2640   35.6540 C   0  0  0  0  0  0  0  0  0  0  0  0
   37.5370   21.2060   35.5600 H   0  0  0  0  0  0  0  0  0  0  0  0
   37.6820   22.8570   36.8880 C   0  0  0  0  0  0  0  0  0  0  0  0
   37.3860   22.2210   37.7300 H   0  0  0  0  0  0  0  0  0  0  0  0
   37.9450   24.1930   37.1410 C   0  0  0  0  0  0  0  0  0  0  0  0
   37.8320   24.9240   38.7220 Cl  0  0  0  0  0  0  0  0  0  0  0  0
  1 27  1  0  0  0  0
  1  6  1  0  0  0  0
  2  1  2  0  0  0  0
  3  2  1  0  0  0  0
  3  4  2  0  0  0  0
  4  5  1  0  0  0  0
  5  6  2  0  0  0  0
  5 11  1  0  0  0  0
  7  2  1  0  0  0  0
  8  3  1  0  0  0  0
  9  4  1  0  0  0  0
 10 18  1  0  0  0  0
 11 12  1  0  0  0  0
 11 10  2  0  0  0  0
 12 13  2  0  0  0  0
 13 14  1  0  0  0  0
 13 17  1  0  0  0  0
 14 15  1  0  0  0  0
 15 16  2  0  0  0  0
 15 22  1  0  0  0  0
 16 23  1  0  0  0  0
 17 16  1  0  0  0  0
 18 17  2  0  0  0  0
 18 24  1  0  0  0  0
 19 10  1  0  0  0  0
 20 12  1  0  0  0  0
 21 14  1  0  0  0  0
 25 30  1  0  0  0  0
 26 25  2  0  0  0  0
 26 27  1  0  0  0  0
 27 28  2  0  0  0  0
 28 29  1  0  0  0  0
 29 35  1  0  0  0  0
 30 29  2  0  0  0  0
 31 25  1  0  0  0  0
 32 26  1  0  0  0  0
 34 33  1  0  0  0  0
 34 42  1  0  0  0  0
 35 34  2  0  0  0  0
 36 35  1  0  0  0  0
 36 38  2  0  0  0  0
 37 36  1  0  0  0  0
 38 40  1  0  0  0  0
 39 38  1  0  0  0  0
 40 42  2  0  0  0  0
 40 41  1  0  0  0  0
 42 43  1  0  0  0  0
M  END
>  <minimizedAffinity>
-7.02513409

$$$$

 OpenBabel03262522413D

 43 47  0  0  0  0  0  0  0  0999 V2000
   36.2840   26.2820   31.8620 C   0  0  0  0  0  0  0  0  0  0  0  0
   35.6470   25.3030   31.1480 C   0  0  0  0  0  0  0  0  0  0  0  0
   35.9310   23.9590   31.2740 C   0  0  0  0  0  0  0  0  0  0  0  0
   36.8980   23.5490   32.1560 C   0  0  0  0  0  0  0  0  0  0  0  0
   37.5230   24.5530   32.8610 C   0  0  0  0  0  0  0  0  0  0  0  0
   37.2300   25.8370   32.7200 N   0  0  0  0  0  0  0  0  0  0  0  0
   34.8750   25.5760   30.4380 H   0  0  0  0  0  0  0  0  0  0  0  0
   35.4050   23.2180   30.6910 H   0  0  0  0  0  0  0  0  0  0  0  0
   37.1370   22.4960   32.2700 H   0  0  0  0  0  0  0  0  0  0  0  0
   39.8870   24.5570   33.7120 C   0  0  0  0  0  0  0  0  0  0  0  0
   38.5580   24.1890   33.8120 C   0  0  0  0  0  0  0  0  0  0  0  0
   38.2980   23.4200   34.9340 C   0  0  0  0  0  0  0  0  0  0  0  0
   39.2310   23.0390   35.8770 C   0  0  0  0  0  0  0  0  0  0  0  0
   39.1570   22.3110   37.0010 N   0  0  0  0  0  0  0  0  0  0  0  0
   40.4010   22.2560   37.5420 C   0  0  0  0  0  0  0  0  0  0  0  0
   41.2890   22.9580   36.7510 C   0  0  0  0  0  0  0  0  0  0  0  0
   40.5290   23.4450   35.7040 C   0  0  0  0  0  0  0  0  0  0  0  0
   40.8590   24.2050   34.6230 C   0  0  0  0  0  0  0  0  0  0  0  0
   40.1800   25.1700   32.8490 H   0  0  0  0  0  0  0  0  0  0  0  0
   37.2830   23.0740   35.1150 H   0  0  0  0  0  0  0  0  0  0  0  0
   38.2750   21.8750   37.3720 H   0  0  0  0  0  0  0  0  0  0  0  0
   40.5570   21.7080   38.4640 H   0  0  0  0  0  0  0  0  0  0  0  0
   42.3380   23.0630   36.9670 H   0  0  0  0  0  0  0  0  0  0  0  0
   41.8780   24.5110   34.5070 H   0  0  0  0  0  0  0  0  0  0  0  0
   36.2300   29.8880   30.7710 C   0  0  0  0  0  0  0  0  0  0  0  0
   36.6060   28.5320   30.7990 C   0  0  0  0  0  0  0  0  0  0  0  0
   35.9870   27.7000   31.7310 C   0  0  0  0  0  0  0  0  0  0  0  0
   35.0670   28.2470   32.5480 N   0  0  0  0  0  0  0  0  0  0  0  0
   34.7240   29.5540   32.5030 C   0  0  0  0  0  0  0  0  0  0  0  0
   35.2950   30.3600   31.6300 N   0  0  0  0  0  0  0  0  0  0  0  0
   36.7280   30.5170   30.0350 H   0  0  0  0  0  0  0  0  0  0  0  0
   37.3480   28.1040   30.1340 H   0  0  0  0  0  0  0  0  0  0  0  0
   35.7350   30.6840   35.0750 Cl  0  0  0  0  0  0  0  0  0  0  0  0
   34.0170   30.5280   34.6780 C   0  0  0  0  0  0  0  0  0  0  0  0
   33.7160   29.9870   33.4520 C   0  0  0  0  0  0  0  0  0  0  0  0
   32.3750   29.8710   33.1520 C   0  0  0  0  0  0  0  0  0  0  0  0
   32.0200   29.4580   32.2130 H   0  0  0  0  0  0  0  0  0  0  0  0
   31.3960   30.2730   34.0330 C   0  0  0  0  0  0  0  0  0  0  0  0
   30.3350   30.1910   33.8200 H   0  0  0  0  0  0  0  0  0  0  0  0
   31.7970   30.8020   35.2340 C   0  0  0  0  0  0  0  0  0  0  0  0
   31.0100   31.1190   35.9280 H   0  0  0  0  0  0  0  0  0  0  0  0
   33.1160   30.9600   35.6270 C   0  0  0  0  0  0  0  0  0  0  0  0
   33.5990   31.6370   37.1620 Cl  0  0  0  0  0  0  0  0  0  0  0  0
  1  6  1  0  0  0  0
  2  3  1  0  0  0  0
  2  1  2  0  0  0  0
  3  4  2  0  0  0  0
  4  9  1  0  0  0  0
  4  5  1  0  0  0  0
  5 11  1  0  0  0  0
  6  5  2  0  0  0  0
  7  2  1  0  0  0  0
  8  3  1  0  0  0  0
 10 11  2  0  0  0  0
 10 18  1  0  0  0  0
 11 12  1  0  0  0  0
 12 20  1  0  0  0  0
 12 13  2  0  0  0  0
 13 14  1  0  0  0  0
 14 21  1  0  0  0  0
 14 15  1  0  0  0  0
 15 22  1  0  0  0  0
 16 23  1  0  0  0  0
 16 15  2  0  0  0  0
 17 13  1  0  0  0  0
 17 16  1  0  0  0  0
 18 17  2  0  0  0  0
 19 10  1  0  0  0  0
 24 18  1  0  0  0  0
 25 26  2  0  0  0  0
 25 30  1  0  0  0  0
 26 27  1  0  0  0  0
 27  1  1  0  0  0  0
 27 28  2  0  0  0  0
 29 28  1  0  0  0  0
 29 35  1  0  0  0  0
 30 29  2  0  0  0  0
 31 25  1  0  0  0  0
 32 26  1  0  0  0  0
 34 33  1  0  0  0  0
 34 42  1  0  0  0  0
 35 34  2  0  0  0  0
 36 35  1  0  0  0  0
 36 38  2  0  0  0  0
 37 36  1  0  0  0  0
 38 40  1  0  0  0  0
 39 38  1  0  0  0  0
 40 42  2  0  0  0  0
 40 41  1  0  0  0  0
 42 43  1  0  0  0  0
M  END
>  <minimizedAffinity>
-7.01454639

$$$$

 OpenBabel03262522413D

 43 47  0  0  0  0  0  0  0  0999 V2000
   37.2490   26.0610   32.2410 C   0  0  0  0  0  0  0  0  0  0  0  0
   37.9000   26.5810   31.1530 C   0  0  0  0  0  0  0  0  0  0  0  0
   37.8390   27.9110   30.7930 C   0  0  0  0  0  0  0  0  0  0  0  0
   37.0980   28.7870   31.5440 C   0  0  0  0  0  0  0  0  0  0  0  0
   36.4540   28.2380   32.6320 C   0  0  0  0  0  0  0  0  0  0  0  0
   36.5300   26.9550   32.9550 N   0  0  0  0  0  0  0  0  0  0  0  0
   38.4980   25.9300   30.5280 H   0  0  0  0  0  0  0  0  0  0  0  0
   38.3680   28.2820   29.9270 H   0  0  0  0  0  0  0  0  0  0  0  0
   37.0380   29.8370   31.2780 H   0  0  0  0  0  0  0  0  0  0  0  0
   34.2830   29.2740   33.3560 C   0  0  0  0  0  0  0  0  0  0  0  0
   35.6510   29.1080   33.4720 C   0  0  0  0  0  0  0  0  0  0  0  0
   36.2000   29.8700   34.4900 C   0  0  0  0  0  0  0  0  0  0  0  0
   35.4970   30.7160   35.3240 C   0  0  0  0  0  0  0  0  0  0  0  0
   35.8580   31.5130   36.3410 N   0  0  0  0  0  0  0  0  0  0  0  0
   34.7390   32.1240   36.8060 C   0  0  0  0  0  0  0  0  0  0  0  0
   33.6410   31.7140   36.0750 C   0  0  0  0  0  0  0  0  0  0  0  0
   34.1420   30.8250   35.1440 C   0  0  0  0  0  0  0  0  0  0  0  0
   33.5330   30.1040   34.1610 C   0  0  0  0  0  0  0  0  0  0  0  0
   33.7670   28.7050   32.5710 H   0  0  0  0  0  0  0  0  0  0  0  0
   37.2710   29.8180   34.6720 H   0  0  0  0  0  0  0  0  0  0  0  0
   36.8420   31.6210   36.6920 H   0  0  0  0  0  0  0  0  0  0  0  0
   34.8150   32.8160   37.6360 H   0  0  0  0  0  0  0  0  0  0  0  0
   32.6360   32.0570   36.2510 H   0  0  0  0  0  0  0  0  0  0  0  0
   32.4740   30.2040   34.0380 H   0  0  0  0  0  0  0  0  0  0  0  0
   36.7460   22.3320   32.4370 C   0  0  0  0  0  0  0  0  0  0  0  0
   36.6020   23.6530   31.9700 C   0  0  0  0  0  0  0  0  0  0  0  0
   37.3100   24.6590   32.6240 C   0  0  0  0  0  0  0  0  0  0  0  0
   38.0910   24.3060   33.6620 N   0  0  0  0  0  0  0  0  0  0  0  0
   38.2120   23.0290   34.0930 C   0  0  0  0  0  0  0  0  0  0  0  0
   37.5520   22.0600   33.4910 N   0  0  0  0  0  0  0  0  0  0  0  0
   36.1820   21.5650   31.9100 H   0  0  0  0  0  0  0  0  0  0  0  0
   35.9700   23.9240   31.1320 H   0  0  0  0  0  0  0  0  0  0  0  0
   37.2200   23.9990   36.7360 Cl  0  0  0  0  0  0  0  0  0  0  0  0
   38.7830   23.2010   36.5060 C   0  0  0  0  0  0  0  0  0  0  0  0
   39.0920   22.8140   35.2250 C   0  0  0  0  0  0  0  0  0  0  0  0
   40.3120   22.1920   35.0560 C   0  0  0  0  0  0  0  0  0  0  0  0
   40.6610   21.8440   34.0900 H   0  0  0  0  0  0  0  0  0  0  0  0
   41.1680   21.9740   36.1130 C   0  0  0  0  0  0  0  0  0  0  0  0
   42.1330   21.4880   36.0050 H   0  0  0  0  0  0  0  0  0  0  0  0
   40.7700   22.3980   37.3560 C   0  0  0  0  0  0  0  0  0  0  0  0
   41.4580   22.2200   38.1890 H   0  0  0  0  0  0  0  0  0  0  0  0
   39.5670   23.0300   37.6260 C   0  0  0  0  0  0  0  0  0  0  0  0
   39.0830   23.5580   39.2180 Cl  0  0  0  0  0  0  0  0  0  0  0  0
  1 27  1  0  0  0  0
  1  6  1  0  0  0  0
  2  1  2  0  0  0  0
  3  2  1  0  0  0  0
  3  4  2  0  0  0  0
  4  5  1  0  0  0  0
  5  6  2  0  0  0  0
  5 11  1  0  0  0  0
  7  2  1  0  0  0  0
  8  3  1  0  0  0  0
  9  4  1  0  0  0  0
 10 11  2  0  0  0  0
 10 18  1  0  0  0  0
 11 12  1  0  0  0  0
 12 20  1  0  0  0  0
 12 13  2  0  0  0  0
 13 14  1  0  0  0  0
 14 21  1  0  0  0  0
 14 15  1  0  0  0  0
 15 22  1  0  0  0  0
 16 23  1  0  0  0  0
 16 15  2  0  0  0  0
 17 13  1  0  0  0  0
 17 16  1  0  0  0  0
 18 17  2  0  0  0  0
 19 10  1  0  0  0  0
 24 18  1  0  0  0  0
 25 30  1  0  0  0  0
 26 25  2  0  0  0  0
 26 27  1  0  0  0  0
 27 28  2  0  0  0  0
 28 29  1  0  0  0  0
 29 35  1  0  0  0  0
 30 29  2  0  0  0  0
 31 25  1  0  0  0  0
 32 26  1  0  0  0  0
 34 33  1  0  0  0  0
 34 42  1  0  0  0  0
 35 34  2  0  0  0  0
 36 35  1  0  0  0  0
 36 38  2  0  0  0  0
 37 36  1  0  0  0  0
 38 40  1  0  0  0  0
 39 38  1  0  0  0  0
 40 42  2  0  0  0  0
 40 41  1  0  0  0  0
 42 43  1  0  0  0  0
M  END
>  <minimizedAffinity>
-6.95013952

$$$$

 OpenBabel03262522413D

 43 47  0  0  0  0  0  0  0  0999 V2000
   37.0190   27.0740   33.0720 C   0  0  0  0  0  0  0  0  0  0  0  0
   37.1480   27.5130   31.7810 C   0  0  0  0  0  0  0  0  0  0  0  0
   36.7050   28.7450   31.3470 C   0  0  0  0  0  0  0  0  0  0  0  0
   36.0990   29.6010   32.2300 C   0  0  0  0  0  0  0  0  0  0  0  0
   35.9810   29.1350   33.5210 C   0  0  0  0  0  0  0  0  0  0  0  0
   36.4160   27.9460   33.9120 N   0  0  0  0  0  0  0  0  0  0  0  0
   37.6210   26.8740   31.0450 H   0  0  0  0  0  0  0  0  0  0  0  0
   36.8270   29.0540   30.3180 H   0  0  0  0  0  0  0  0  0  0  0  0
   35.7430   30.5740   31.9080 H   0  0  0  0  0  0  0  0  0  0  0  0
   36.0210   30.8570   35.3500 C   0  0  0  0  0  0  0  0  0  0  0  0
   35.3480   29.9900   34.5100 C   0  0  0  0  0  0  0  0  0  0  0  0
   33.9770   30.0100   34.7040 C   0  0  0  0  0  0  0  0  0  0  0  0
   33.3110   30.7950   35.6230 C   0  0  0  0  0  0  0  0  0  0  0  0
   32.0160   30.9400   35.9410 N   0  0  0  0  0  0  0  0  0  0  0  0
   31.9330   31.8630   36.9320 C   0  0  0  0  0  0  0  0  0  0  0  0
   33.1960   32.3170   37.2590 C   0  0  0  0  0  0  0  0  0  0  0  0
   34.0520   31.6290   36.4200 C   0  0  0  0  0  0  0  0  0  0  0  0
   35.4070   31.6630   36.2840 C   0  0  0  0  0  0  0  0  0  0  0  0
   37.1150   30.9040   35.2610 H   0  0  0  0  0  0  0  0  0  0  0  0
   33.3460   29.3650   34.0960 H   0  0  0  0  0  0  0  0  0  0  0  0
   31.2280   30.4170   35.4820 H   0  0  0  0  0  0  0  0  0  0  0  0
   30.9620   32.1260   37.3360 H   0  0  0  0  0  0  0  0  0  0  0  0
   33.3960   33.0540   38.0170 H   0  0  0  0  0  0  0  0  0  0  0  0
   35.9660   32.3220   36.9160 H   0  0  0  0  0  0  0  0  0  0  0  0
   38.6330   24.2890   35.0300 C   0  0  0  0  0  0  0  0  0  0  0  0
   38.2440   25.5990   34.6890 C   0  0  0  0  0  0  0  0  0  0  0  0
   37.4840   25.7760   33.5340 C   0  0  0  0  0  0  0  0  0  0  0  0
   37.1690   24.6830   32.8150 N   0  0  0  0  0  0  0  0  0  0  0  0
   37.5560   23.4350   33.1630 C   0  0  0  0  0  0  0  0  0  0  0  0
   38.2750   23.2410   34.2510 N   0  0  0  0  0  0  0  0  0  0  0  0
   39.2260   24.1780   35.9360 H   0  0  0  0  0  0  0  0  0  0  0  0
   38.5040   26.4710   35.2780 H   0  0  0  0  0  0  0  0  0  0  0  0
   39.5750   22.4930   31.1760 Cl  0  0  0  0  0  0  0  0  0  0  0  0
   37.9450   21.8180   31.3150 C   0  0  0  0  0  0  0  0  0  0  0  0
   37.1350   22.3620   32.2810 C   0  0  0  0  0  0  0  0  0  0  0  0
   35.8670   21.8290   32.3820 C   0  0  0  0  0  0  0  0  0  0  0  0
   35.1410   22.1810   33.1080 H   0  0  0  0  0  0  0  0  0  0  0  0
   35.4400   20.8110   31.5580 C   0  0  0  0  0  0  0  0  0  0  0  0
   34.4470   20.3760   31.6180 H   0  0  0  0  0  0  0  0  0  0  0  0
   36.3230   20.3330   30.6230 C   0  0  0  0  0  0  0  0  0  0  0  0
   35.9730   19.5230   29.9730 H   0  0  0  0  0  0  0  0  0  0  0  0
   37.6140   20.8020   30.4450 C   0  0  0  0  0  0  0  0  0  0  0  0
   38.7190   20.1760   29.2460 Cl  0  0  0  0  0  0  0  0  0  0  0  0
  1 27  1  0  0  0  0
  1  6  1  0  0  0  0
  2  1  2  0  0  0  0
  3  2  1  0  0  0  0
  3  4  2  0  0  0  0
  4  5  1  0  0  0  0
  5  6  2  0  0  0  0
  5 11  1  0  0  0  0
  7  2  1  0  0  0  0
  8  3  1  0  0  0  0
  9  4  1  0  0  0  0
 10 18  1  0  0  0  0
 11 12  1  0  0  0  0
 11 10  2  0  0  0  0
 12 13  2  0  0  0  0
 13 14  1  0  0  0  0
 13 17  1  0  0  0  0
 14 15  1  0  0  0  0
 15 16  2  0  0  0  0
 15 22  1  0  0  0  0
 16 23  1  0  0  0  0
 17 16  1  0  0  0  0
 18 17  2  0  0  0  0
 18 24  1  0  0  0  0
 19 10  1  0  0  0  0
 20 12  1  0  0  0  0
 21 14  1  0  0  0  0
 25 31  1  0  0  0  0
 26 25  1  0  0  0  0
 26 32  1  0  0  0  0
 27 26  2  0  0  0  0
 28 29  2  0  0  0  0
 28 27  1  0  0  0  0
 29 30  1  0  0  0  0
 30 25  2  0  0  0  0
 33 34  1  0  0  0  0
 34 35  1  0  0  0  0
 35 36  2  0  0  0  0
 35 29  1  0  0  0  0
 36 37  1  0  0  0  0
 38 39  1  0  0  0  0
 38 36  1  0  0  0  0
 40 38  2  0  0  0  0
 41 40  1  0  0  0  0
 42 40  1  0  0  0  0
 42 34  2  0  0  0  0
 43 42  1  0  0  0  0
M  END
>  <minimizedAffinity>
-6.93565893

$$$$

 OpenBabel03262522413D

 43 47  0  0  0  0  0  0  0  0999 V2000
   36.6120   27.0850   32.0370 C   0  0  0  0  0  0  0  0  0  0  0  0
   36.9540   27.7760   30.9050 C   0  0  0  0  0  0  0  0  0  0  0  0
   36.6700   29.1120   30.7130 C   0  0  0  0  0  0  0  0  0  0  0  0
   36.0120   29.8150   31.6890 C   0  0  0  0  0  0  0  0  0  0  0  0
   35.6800   29.0970   32.8170 C   0  0  0  0  0  0  0  0  0  0  0  0
   35.9660   27.8120   32.9750 N   0  0  0  0  0  0  0  0  0  0  0  0
   37.4750   27.2660   30.1040 H   0  0  0  0  0  0  0  0  0  0  0  0
   36.9570   29.6220   29.8050 H   0  0  0  0  0  0  0  0  0  0  0  0
   35.7790   30.8670   31.5580 H   0  0  0  0  0  0  0  0  0  0  0  0
   33.6390   29.6230   34.1840 C   0  0  0  0  0  0  0  0  0  0  0  0
   34.9810   29.7780   33.8910 C   0  0  0  0  0  0  0  0  0  0  0  0
   35.6150   30.6700   34.7410 C   0  0  0  0  0  0  0  0  0  0  0  0
   35.0140   31.3500   35.7790 C   0  0  0  0  0  0  0  0  0  0  0  0
   35.4650   32.2330   36.6840 N   0  0  0  0  0  0  0  0  0  0  0  0
   34.4230   32.5810   37.4790 C   0  0  0  0  0  0  0  0  0  0  0  0
   33.2810   31.9130   37.0790 C   0  0  0  0  0  0  0  0  0  0  0  0
   33.6770   31.1410   36.0040 C   0  0  0  0  0  0  0  0  0  0  0  0
   32.9880   30.2760   35.2070 C   0  0  0  0  0  0  0  0  0  0  0  0
   33.0590   28.9320   33.5560 H   0  0  0  0  0  0  0  0  0  0  0  0
   36.6760   30.8690   34.6030 H   0  0  0  0  0  0  0  0  0  0  0  0
   36.4580   32.5730   36.7390 H   0  0  0  0  0  0  0  0  0  0  0  0
   34.5790   33.2920   38.2820 H   0  0  0  0  0  0  0  0  0  0  0  0
   32.3220   32.0190   37.5530 H   0  0  0  0  0  0  0  0  0  0  0  0
   31.9460   30.1270   35.4000 H   0  0  0  0  0  0  0  0  0  0  0  0
   36.5500   23.3180   31.9600 C   0  0  0  0  0  0  0  0  0  0  0  0
   36.1580   24.6420   31.6860 C   0  0  0  0  0  0  0  0  0  0  0  0
   36.9100   25.6760   32.2430 C   0  0  0  0  0  0  0  0  0  0  0  0
   37.9660   25.3430   33.0080 N   0  0  0  0  0  0  0  0  0  0  0  0
   38.3220   24.0630   33.2580 C   0  0  0  0  0  0  0  0  0  0  0  0
   37.6260   23.0680   32.7430 N   0  0  0  0  0  0  0  0  0  0  0  0
   35.9460   22.5290   31.5140 H   0  0  0  0  0  0  0  0  0  0  0  0
   35.3050   24.8970   31.0670 H   0  0  0  0  0  0  0  0  0  0  0  0
   37.7880   23.1160   36.0390 Cl  0  0  0  0  0  0  0  0  0  0  0  0
   39.4080   23.4410   35.4060 C   0  0  0  0  0  0  0  0  0  0  0  0
   39.4850   23.8710   34.1040 C   0  0  0  0  0  0  0  0  0  0  0  0
   40.7520   24.1210   33.6200 C   0  0  0  0  0  0  0  0  0  0  0  0
   40.9330   24.4650   32.6070 H   0  0  0  0  0  0  0  0  0  0  0  0
   41.8740   23.9490   34.4000 C   0  0  0  0  0  0  0  0  0  0  0  0
   42.8810   24.1400   34.0420 H   0  0  0  0  0  0  0  0  0  0  0  0
   41.6950   23.5150   35.6890 C   0  0  0  0  0  0  0  0  0  0  0  0
   42.5940   23.3810   36.3010 H   0  0  0  0  0  0  0  0  0  0  0  0
   40.4660   23.2380   36.2650 C   0  0  0  0  0  0  0  0  0  0  0  0
   40.2660   22.6860   37.9090 Cl  0  0  0  0  0  0  0  0  0  0  0  0
  1 27  1  0  0  0  0
  1  6  1  0  0  0  0
  2  1  2  0  0  0  0
  3  2  1  0  0  0  0
  3  4  2  0  0  0  0
  4  5  1  0  0  0  0
  5  6  2  0  0  0  0
  5 11  1  0  0  0  0
  7  2  1  0  0  0  0
  8  3  1  0  0  0  0
  9  4  1  0  0  0  0
 10 18  1  0  0  0  0
 11 10  2  0  0  0  0
 11 12  1  0  0  0  0
 12 13  2  0  0  0  0
 13 17  1  0  0  0  0
 13 14  1  0  0  0  0
 14 21  1  0  0  0  0
 14 15  1  0  0  0  0
 15 22  1  0  0  0  0
 16 15  2  0  0  0  0
 16 23  1  0  0  0  0
 17 16  1  0  0  0  0
 18 24  1  0  0  0  0
 18 17  2  0  0  0  0
 19 10  1  0  0  0  0
 20 12  1  0  0  0  0
 25 30  1  0  0  0  0
 26 25  2  0  0  0  0
 26 27  1  0  0  0  0
 27 28  2  0  0  0  0
 28 29  1  0  0  0  0
 29 35  1  0  0  0  0
 30 29  2  0  0  0  0
 31 25  1  0  0  0  0
 32 26  1  0  0  0  0
 34 33  1  0  0  0  0
 34 42  1  0  0  0  0
 35 34  2  0  0  0  0
 36 35  1  0  0  0  0
 36 38  2  0  0  0  0
 37 36  1  0  0  0  0
 38 40  1  0  0  0  0
 39 38  1  0  0  0  0
 40 42  2  0  0  0  0
 40 41  1  0  0  0  0
 42 43  1  0  0  0  0
M  END
>  <minimizedAffinity>
-6.88931084

$$$$
