
 OpenBabel03272504093D

 35 37  0  0  0  0  0  0  0  0999 V2000
   37.3040   30.6250   50.1560 C   0  0  0  0  0  0  0  0  0  0  0  0
   36.9730   30.5910   48.8120 C   0  0  0  0  0  0  0  0  0  0  0  0
   35.7430   30.0130   48.4050 C   0  0  0  0  0  0  0  0  0  0  0  0
   34.9370   29.5120   49.3670 N   0  0  0  0  0  0  0  0  0  0  0  0
   35.3100   29.5670   50.6990 C   0  0  0  0  0  0  0  0  0  0  0  0
   36.4920   30.1260   51.0820 N   0  0  0  0  0  0  0  0  0  0  0  0
   34.4020   29.0160   51.6610 N   0  0  0  0  0  0  0  0  0  0  0  0
   38.2460   31.0690   50.4580 H   0  0  0  0  0  0  0  0  0  0  0  0
   33.6300   29.6580   51.9510 H   0  0  0  0  0  0  0  0  0  0  0  0
   34.4400   28.0670   52.0840 H   0  0  0  0  0  0  0  0  0  0  0  0
   38.0440   33.4160   49.1620 Cl  0  0  0  0  0  0  0  0  0  0  0  0
   38.5090   32.4030   47.8300 C   0  0  0  0  0  0  0  0  0  0  0  0
   37.9330   31.1720   47.8510 C   0  0  0  0  0  0  0  0  0  0  0  0
   38.2630   30.2810   46.8130 C   0  0  0  0  0  0  0  0  0  0  0  0
   39.1170   30.6140   45.8190 C   0  0  0  0  0  0  0  0  0  0  0  0
   39.6930   31.8800   45.8220 C   0  0  0  0  0  0  0  0  0  0  0  0
   40.8000   32.3580   44.5670 Cl  0  0  0  0  0  0  0  0  0  0  0  0
   39.3820   32.7540   46.8210 C   0  0  0  0  0  0  0  0  0  0  0  0
   37.8900   29.2700   46.7180 H   0  0  0  0  0  0  0  0  0  0  0  0
   39.4090   29.9720   44.9950 H   0  0  0  0  0  0  0  0  0  0  0  0
   39.8060   33.7570   46.8660 H   0  0  0  0  0  0  0  0  0  0  0  0
   35.4160   29.9940   46.9920 C   0  0  0  0  0  0  0  0  0  0  0  0
   35.6170   31.0300   46.5900 H   0  0  0  0  0  0  0  0  0  0  0  0
   36.0590   29.3210   46.4260 H   0  0  0  0  0  0  0  0  0  0  0  0
   34.2560   27.1750   47.3190 Cl  0  0  0  0  0  0  0  0  0  0  0  0
   33.3010   28.5710   46.7890 C   0  0  0  0  0  0  0  0  0  0  0  0
   33.9730   29.7680   46.6900 C   0  0  0  0  0  0  0  0  0  0  0  0
   33.1860   30.8460   46.2710 C   0  0  0  0  0  0  0  0  0  0  0  0
   33.6890   31.8090   46.1830 H   0  0  0  0  0  0  0  0  0  0  0  0
   31.8320   30.8130   45.9550 C   0  0  0  0  0  0  0  0  0  0  0  0
   31.3240   31.6990   45.6450 H   0  0  0  0  0  0  0  0  0  0  0  0
   31.2630   29.5460   46.0940 C   0  0  0  0  0  0  0  0  0  0  0  0
   30.2070   29.5010   45.8530 H   0  0  0  0  0  0  0  0  0  0  0  0
   31.9610   28.4300   46.5020 C   0  0  0  0  0  0  0  0  0  0  0  0
   31.1810   26.8710   46.6490 Cl  0  0  0  0  0  0  0  0  0  0  0  0
  1  8  1  0  0  0  0
  1  6  1  0  0  0  0
  2  1  2  0  0  0  0
  3  2  1  0  0  0  0
  3  4  2  0  0  0  0
  4  5  1  0  0  0  0
  5  6  2  0  0  0  0
  5  7  1  0  0  0  0
  7  9  1  0  0  0  0
  7 10  1  0  0  0  0
 12 13  1  0  0  0  0
 12 11  1  0  0  0  0
 13  2  1  0  0  0  0
 14 13  2  0  0  0  0
 15 16  2  0  0  0  0
 15 14  1  0  0  0  0
 16 18  1  0  0  0  0
 17 16  1  0  0  0  0
 18 21  1  0  0  0  0
 18 12  2  0  0  0  0
 19 14  1  0  0  0  0
 20 15  1  0  0  0  0
 22  3  1  0  0  0  0
 23 22  1  0  0  0  0
 24 22  1  0  0  0  0
 26 25  1  0  0  0  0
 27 26  1  0  0  0  0
 27 22  1  0  0  0  0
 28 27  2  0  0  0  0
 29 28  1  0  0  0  0
 30 32  2  0  0  0  0
 30 28  1  0  0  0  0
 31 30  1  0  0  0  0
 32 34  1  0  0  0  0
 33 32  1  0  0  0  0
 34 35  1  0  0  0  0
 34 26  2  0  0  0  0
M  END
>  <minimizedAffinity>
-5.89525414

>  <minimizedRMSD>
0.70485276

$$$$
