
     RDKit          3D

 40 43  0  0  0  0  0  0  0  0999 V2000
   38.4273   31.1158   48.2165 C   0  0  2  0  0  0  0  0  0  0  0  0
   38.6740   32.5625   48.1012 C   0  0  0  0  0  0  0  0  0  0  0  0
   38.0557   31.7123   46.9590 C   0  0  1  0  0  0  0  0  0  0  0  0
   35.0951   30.2305   49.5612 C   0  0  0  0  0  0  0  0  0  0  0  0
   35.4218   29.5454   50.7633 C   0  0  0  0  0  0  0  0  0  0  0  0
   36.8131   29.4086   51.0907 C   0  0  0  0  0  0  0  0  0  0  0  0
   37.7553   29.9314   50.2519 N   0  0  0  0  0  0  0  0  0  0  0  0
   37.3539   30.5769   49.1132 C   0  0  0  0  0  0  0  0  0  0  0  0
   36.0364   30.7448   48.7373 N   0  0  0  0  0  0  0  0  0  0  0  0
   38.4054   31.8447   44.5200 C   0  0  0  0  0  0  0  0  0  0  0  0
   37.2920   32.4292   44.3995 O   0  0  0  0  0  0  0  0  0  0  0  0
   38.9420   31.5625   45.8207 N   0  0  0  0  0  0  0  0  0  0  0  0
   39.1882   31.4346   43.3355 C   0  0  0  0  0  0  0  0  0  0  0  0
   40.1593   30.4817   43.4894 C   0  0  0  0  0  0  0  0  0  0  0  0
   40.8723   30.1207   42.3582 C   0  0  0  0  0  0  0  0  0  0  0  0
   40.5761   30.7208   41.1738 C   0  0  0  0  0  0  0  0  0  0  0  0
   39.5970   31.6844   41.0089 C   0  0  0  0  0  0  0  0  0  0  0  0
   38.9412   31.9932   42.1347 N   0  0  0  0  0  0  0  0  0  0  0  0
   39.3592   30.5176   48.3164 H   0  0  0  0  0  0  0  0  0  0  0  0
   37.9916   33.2830   48.5971 H   0  0  0  0  0  0  0  0  0  0  0  0
   39.6862   32.9360   47.9630 H   0  0  0  0  0  0  0  0  0  0  0  0
   36.9960   31.9650   46.7462 H   0  0  0  0  0  0  0  0  0  0  0  0
   34.0690   30.3588   49.2724 H   0  0  0  0  0  0  0  0  0  0  0  0
   34.6510   29.1519   51.3904 H   0  0  0  0  0  0  0  0  0  0  0  0
   37.0762   28.8907   52.0008 H   0  0  0  0  0  0  0  0  0  0  0  0
   39.9133   31.2629   45.9813 H   0  0  0  0  0  0  0  0  0  0  0  0
   40.4071   29.9954   44.4217 H   0  0  0  0  0  0  0  0  0  0  0  0
   41.6659   29.3603   42.4166 H   0  0  0  0  0  0  0  0  0  0  0  0
   41.1576   30.4082   40.3171 H   0  0  0  0  0  0  0  0  0  0  0  0
   36.8266   31.2566   40.1403 Cl  0  0  0  0  0  0  0  0  0  0  0  0
   38.0233   32.1881   39.2329 C   0  0  0  0  0  0  0  0  0  0  0  0
   39.2888   32.3187   39.7410 C   0  0  0  0  0  0  0  0  0  0  0  0
   40.1838   33.0405   39.0193 C   0  0  0  0  0  0  0  0  0  0  0  0
   41.1905   33.1781   39.3655 H   0  0  0  0  0  0  0  0  0  0  0  0
   39.8387   33.6292   37.8085 C   0  0  0  0  0  0  0  0  0  0  0  0
   40.5412   34.2169   37.2055 H   0  0  0  0  0  0  0  0  0  0  0  0
   38.5495   33.4631   37.3474 C   0  0  0  0  0  0  0  0  0  0  0  0
   38.2213   33.8999   36.4074 H   0  0  0  0  0  0  0  0  0  0  0  0
   37.6021   32.7394   38.0422 C   0  0  0  0  0  0  0  0  0  0  0  0
   35.9492   32.5103   37.4791 Cl  0  0  0  0  0  0  0  0  0  0  0  0
  1  8  1  0
  2  1  1  0
  3  2  1  0
  3  1  1  0
  4  5  2  0
  5  6  1  0
  7  6  2  0
  8  7  1  0
  9  8  2  0
  9  4  1  0
 10 12  1  0
 11 10  2  0
 12  3  1  0
 13 14  2  0
 13 10  1  0
 15 14  1  0
 16 15  2  0
 17 16  1  0
 17 18  2  0
 18 13  1  0
  1 19  1  6
  2 20  1  0
  2 21  1  0
  3 22  1  6
  4 23  1  0
  5 24  1  0
  6 25  1  0
 12 26  1  0
 14 27  1  0
 15 28  1  0
 16 29  1  0
 30 31  1  0
 31 32  2  0
 32 33  1  0
 33 34  1  0
 33 35  2  0
 35 36  1  0
 35 37  1  0
 37 38  1  0
 37 39  2  0
 39 40  1  0
 39 31  1  0
 17 32  1  0
M  ISO  8  19  13  20  13  21  13  22  13  23  14  24  14  25  14  27  14
M  ISO  5  28  14  29  14  34  15  36  15  38  15
M  END
>  <DihAtoms>  (1) 
15,16,31,30

>  <DihDeg>  (1) 
179.99537695030494

$$$$
