REMARK  Name = 
REMARK  2 active torsions:
REMARK  status: ('A' for Active; 'I' for Inactive)
REMARK    1  A    between atoms: C_5  and  C_7
REMARK    2  A    between atoms: C_11  and  C_21
REMARK                            x       y       z     vdW  Elec       q    Type
REMARK                         _______ _______ _______ _____ _____    ______ ____
ROOT
ATOM      1  C   UNL     1      35.927  30.258  48.574  0.00  0.00    +0.000 A 
ATOM      2  C   UNL     1      35.928  29.305  49.586  0.00  0.00    +0.000 A 
ATOM      3  C   UNL     1      34.940  28.343  49.654  0.00  0.00    +0.000 A 
ATOM      4  C   UNL     1      33.970  28.380  48.683  0.00  0.00    +0.000 A 
ATOM      5  C   UNL     1      33.954  29.323  47.669  0.00  0.00    +0.000 A 
ATOM      6  N   UNL     1      34.953  30.265  47.631  0.00  0.00    +0.000 NA
ATOM      7  H   UNL     1      36.744  29.354  50.317  0.00  0.00    +0.000 HD
ATOM      8  H   UNL     1      34.978  27.625  50.452  0.00  0.00    +0.000 HD
ATOM      9  H   UNL     1      33.204  27.626  48.746  0.00  0.00    +0.000 HD
ENDROOT
BRANCH   5  12
ATOM     10 CL   UNL     1      31.251  28.306  48.532  0.00  0.00    +0.000 Cl
ATOM     11  C   UNL     1      31.647  28.919  46.919  0.00  0.00    +0.000 A 
ATOM     12  C   UNL     1      32.923  29.359  46.640  0.00  0.00    +0.000 A 
ATOM     13  C   UNL     1      33.129  29.817  45.358  0.00  0.00    +0.000 A 
ATOM     14  H   UNL     1      34.096  30.173  45.072  0.00  0.00    +0.000 HD
ATOM     15  C   UNL     1      32.162  29.855  44.379  0.00  0.00    +0.000 A 
ATOM     16  H   UNL     1      32.362  30.224  43.376  0.00  0.00    +0.000 HD
ATOM     17  C   UNL     1      30.885  29.404  44.694  0.00  0.00    +0.000 A 
ATOM     18  H   UNL     1      30.068  29.393  44.006  0.00  0.00    +0.000 HD
ATOM     19  C   UNL     1      30.635  28.936  45.968  0.00  0.00    +0.000 A 
ATOM     20 CL   UNL     1      29.027  28.355  46.408  0.00  0.00    +0.000 Cl
ENDBRANCH   5  12
BRANCH   1  25
ATOM     21  C   UNL     1      38.062  33.081  49.504  0.00  0.00    +0.000 A 
ATOM     22  C   UNL     1      38.971  33.150  48.423  0.00  0.00    +0.000 A 
ATOM     23  C   UNL     1      38.833  32.213  47.380  0.00  0.00    +0.000 A 
ATOM     24  N   UNL     1      37.826  31.314  47.506  0.00  0.00    +0.000 NA
ATOM     25  C   UNL     1      36.976  31.260  48.530  0.00  0.00    +0.000 A 
ATOM     26  N   UNL     1      37.113  32.148  49.510  0.00  0.00    +0.000 NA
ATOM     27  H   UNL     1      38.165  33.811  50.322  0.00  0.00    +0.000 HD
ATOM     28  H   UNL     1      39.758  33.886  48.370  0.00  0.00    +0.000 HD
ATOM     29  H   UNL     1      39.507  32.251  46.562  0.00  0.00    +0.000 HD
ENDBRANCH   1  25
TORSDOF 2
