
 OpenBabel03272503413D

 43 46  0  0  1  0  0  0  0  0999 V2000
   39.7840   31.2080   41.6970 C   0  0  2  0  0  0  0  0  0  0  0  0
   39.5770   32.3560   42.7030 C   0  0  1  0  0  0  0  0  0  0  0  0
   38.3740   33.0030   42.0650 C   0  0  0  0  0  0  0  0  0  0  0  0
   38.5240   32.8940   40.7040 O   0  0  0  0  0  0  0  0  0  0  0  0
   39.5270   32.0190   40.4190 C   0  0  0  0  0  0  0  0  0  0  0  0
   40.7960   30.8140   41.7320 H   0  0  0  0  0  0  0  0  0  0  0  0
   40.4090   33.0560   42.7140 H   0  0  0  0  0  0  0  0  0  0  0  0
   37.4740   32.4650   42.4180 H   0  0  0  0  0  0  0  0  0  0  0  0
   38.2790   34.0780   42.3090 H   0  0  0  0  0  0  0  0  0  0  0  0
   39.4080   31.3940   39.5380 H   0  0  0  0  0  0  0  0  0  0  0  0
   40.4580   32.6330   40.2640 H   0  0  0  0  0  0  0  0  0  0  0  0
   38.3510   31.1560   45.8580 C   0  0  0  0  0  0  0  0  0  0  0  0
   39.6950   30.9820   46.0480 C   0  0  0  0  0  0  0  0  0  0  0  0
   40.2660   31.4280   44.8560 C   0  0  0  0  0  0  0  0  0  0  0  0
   39.3110   31.8390   44.0160 N   0  0  0  0  0  0  0  0  0  0  0  0
   38.1350   31.6730   44.6280 N   0  0  0  0  0  0  0  0  0  0  0  0
   40.2170   30.5850   46.9280 H   0  0  0  0  0  0  0  0  0  0  0  0
   41.3580   31.3980   44.7390 H   0  0  0  0  0  0  0  0  0  0  0  0
   36.4800   30.6150   49.0640 C   0  0  0  0  0  0  0  0  0  0  0  0
   37.5090   30.9330   48.1890 C   0  0  0  0  0  0  0  0  0  0  0  0
   37.3060   30.8360   46.8250 C   0  0  0  0  0  0  0  0  0  0  0  0
   36.0960   30.4300   46.3930 N   0  0  0  0  0  0  0  0  0  0  0  0
   35.1020   30.1250   47.2700 C   0  0  0  0  0  0  0  0  0  0  0  0
   35.2880   30.2150   48.5810 N   0  0  0  0  0  0  0  0  0  0  0  0
   38.5050   31.2650   48.4600 H   0  0  0  0  0  0  0  0  0  0  0  0
   34.1410   29.8020   46.8960 H   0  0  0  0  0  0  0  0  0  0  0  0
   36.8370   30.7630   50.4040 O   0  0  0  0  0  0  0  0  0  0  0  0
   36.8810   29.6950   51.3140 C   0  0  0  0  0  0  0  0  0  0  0  0
   35.6230   29.2300   51.6490 F   0  0  0  0  0  0  0  0  0  0  0  0
   37.5840   30.0820   52.4280 F   0  0  0  0  0  0  0  0  0  0  0  0
   37.5990   28.6570   50.7260 F   0  0  0  0  0  0  0  0  0  0  0  0
   38.7390   30.3310   41.8980 O   0  0  0  0  0  0  0  0  0  0  0  0
   38.1340   28.9500   39.3200 Cl  0  0  0  0  0  0  0  0  0  0  0  0
   38.5820   28.2380   40.8640 C   0  0  0  0  0  0  0  0  0  0  0  0
   38.8450   28.9740   42.0180 C   0  0  0  0  0  0  0  0  0  0  0  0
   39.1850   28.2740   43.1570 C   0  0  0  0  0  0  0  0  0  0  0  0
   39.3880   28.8500   44.0450 H   0  0  0  0  0  0  0  0  0  0  0  0
   39.2720   26.8900   43.2010 C   0  0  0  0  0  0  0  0  0  0  0  0
   39.5430   26.3990   44.1180 H   0  0  0  0  0  0  0  0  0  0  0  0
   39.0030   26.1800   42.0330 C   0  0  0  0  0  0  0  0  0  0  0  0
   39.0770   25.0940   42.0880 H   0  0  0  0  0  0  0  0  0  0  0  0
   38.6580   26.8600   40.8720 C   0  0  0  0  0  0  0  0  0  0  0  0
   38.3500   25.8350   39.4920 Cl  0  0  0  0  0  0  0  0  0  0  0  0
  1  6  1  1  0  0  0
  1 32  1  0  0  0  0
  1  2  1  0  0  0  0
  2  7  1  1  0  0  0
  2 15  1  0  0  0  0
  3  9  1  0  0  0  0
  3  8  1  0  0  0  0
  3  2  1  0  0  0  0
  4  3  1  0  0  0  0
  5  4  1  0  0  0  0
  5  1  1  0  0  0  0
 10  5  1  0  0  0  0
 11  5  1  0  0  0  0
 12 13  1  0  0  0  0
 12 21  1  0  0  0  0
 13 17  1  0  0  0  0
 14 13  2  0  0  0  0
 15 16  1  0  0  0  0
 15 14  1  0  0  0  0
 16 12  2  0  0  0  0
 18 14  1  0  0  0  0
 19 27  1  0  0  0  0
 20 25  1  0  0  0  0
 20 19  2  0  0  0  0
 21 20  1  0  0  0  0
 22 21  2  0  0  0  0
 22 23  1  0  0  0  0
 23 24  2  0  0  0  0
 24 19  1  0  0  0  0
 26 23  1  0  0  0  0
 27 28  1  0  0  0  0
 28 29  1  0  0  0  0
 28 30  1  0  0  0  0
 31 28  1  0  0  0  0
 32 35  1  0  0  0  0
 33 34  1  0  0  0  0
 34 42  2  0  0  0  0
 34 35  1  0  0  0  0
 35 36  2  0  0  0  0
 36 38  1  0  0  0  0
 36 37  1  0  0  0  0
 38 39  1  0  0  0  0
 40 41  1  0  0  0  0
 40 38  2  0  0  0  0
 42 40  1  0  0  0  0
 43 42  1  0  0  0  0
M  END
>  <minimizedAffinity>
-6.27443457

>  <minimizedRMSD>
0.618543625

$$$$
