
 OpenBabel03272504093D

 35 37  0  0  0  0  0  0  0  0999 V2000
   37.8480   30.3000   50.0670 C   0  0  0  0  0  0  0  0  0  0  0  0
   37.2790   30.6110   48.8440 C   0  0  0  0  0  0  0  0  0  0  0  0
   35.9000   30.3620   48.6270 C   0  0  0  0  0  0  0  0  0  0  0  0
   35.1930   29.8200   49.6440 N   0  0  0  0  0  0  0  0  0  0  0  0
   35.8040   29.5240   50.8490 C   0  0  0  0  0  0  0  0  0  0  0  0
   37.1300   29.7690   51.0510 N   0  0  0  0  0  0  0  0  0  0  0  0
   34.9890   28.9530   51.8800 N   0  0  0  0  0  0  0  0  0  0  0  0
   38.9040   30.4940   50.2240 H   0  0  0  0  0  0  0  0  0  0  0  0
   34.4410   29.6460   52.4390 H   0  0  0  0  0  0  0  0  0  0  0  0
   34.8950   27.9440   52.1150 H   0  0  0  0  0  0  0  0  0  0  0  0
   38.2950   33.4680   49.0770 Cl  0  0  0  0  0  0  0  0  0  0  0  0
   38.6900   32.4470   47.7290 C   0  0  0  0  0  0  0  0  0  0  0  0
   38.1510   31.2020   47.8090 C   0  0  0  0  0  0  0  0  0  0  0  0
   38.4300   30.3030   46.7620 C   0  0  0  0  0  0  0  0  0  0  0  0
   39.2010   30.6430   45.7040 C   0  0  0  0  0  0  0  0  0  0  0  0
   39.7410   31.9230   45.6480 C   0  0  0  0  0  0  0  0  0  0  0  0
   40.7420   32.4100   44.3100 Cl  0  0  0  0  0  0  0  0  0  0  0  0
   39.4790   32.8050   46.6550 C   0  0  0  0  0  0  0  0  0  0  0  0
   38.0790   29.2820   46.7080 H   0  0  0  0  0  0  0  0  0  0  0  0
   39.4500   29.9960   44.8710 H   0  0  0  0  0  0  0  0  0  0  0  0
   39.8780   33.8190   46.6560 H   0  0  0  0  0  0  0  0  0  0  0  0
   35.3240   30.7010   47.3400 C   0  0  0  0  0  0  0  0  0  0  0  0
   34.3980   31.3150   47.5410 H   0  0  0  0  0  0  0  0  0  0  0  0
   35.9820   31.3350   46.7450 H   0  0  0  0  0  0  0  0  0  0  0  0
   35.7820   30.6390   44.3090 Cl  0  0  0  0  0  0  0  0  0  0  0  0
   34.9430   29.3560   45.2000 C   0  0  0  0  0  0  0  0  0  0  0  0
   34.8170   29.5370   46.5580 C   0  0  0  0  0  0  0  0  0  0  0  0
   34.1500   28.5040   47.2250 C   0  0  0  0  0  0  0  0  0  0  0  0
   34.0340   28.6170   48.3030 H   0  0  0  0  0  0  0  0  0  0  0  0
   33.6220   27.3510   46.6540 C   0  0  0  0  0  0  0  0  0  0  0  0
   33.1310   26.6220   47.2590 H   0  0  0  0  0  0  0  0  0  0  0  0
   33.8120   27.2810   45.2730 C   0  0  0  0  0  0  0  0  0  0  0  0
   33.4060   26.3880   44.8110 H   0  0  0  0  0  0  0  0  0  0  0  0
   34.4560   28.2500   44.5360 C   0  0  0  0  0  0  0  0  0  0  0  0
   34.6530   28.0970   42.8050 Cl  0  0  0  0  0  0  0  0  0  0  0  0
  1  8  1  0  0  0  0
  1  6  1  0  0  0  0
  2  1  2  0  0  0  0
  3  2  1  0  0  0  0
  3  4  2  0  0  0  0
  4  5  1  0  0  0  0
  5  6  2  0  0  0  0
  5  7  1  0  0  0  0
  7 10  1  0  0  0  0
  7  9  1  0  0  0  0
 12 13  1  0  0  0  0
 12 11  1  0  0  0  0
 13  2  1  0  0  0  0
 14 13  2  0  0  0  0
 15 14  1  0  0  0  0
 16 15  2  0  0  0  0
 16 18  1  0  0  0  0
 17 16  1  0  0  0  0
 18 21  1  0  0  0  0
 18 12  2  0  0  0  0
 19 14  1  0  0  0  0
 20 15  1  0  0  0  0
 22 23  1  0  0  0  0
 22  3  1  0  0  0  0
 24 22  1  0  0  0  0
 25 26  1  0  0  0  0
 26 27  1  0  0  0  0
 27 28  2  0  0  0  0
 27 22  1  0  0  0  0
 28 29  1  0  0  0  0
 30 28  1  0  0  0  0
 30 31  1  0  0  0  0
 32 30  2  0  0  0  0
 33 32  1  0  0  0  0
 34 26  2  0  0  0  0
 34 32  1  0  0  0  0
 35 34  1  0  0  0  0
M  END
>  <minimizedAffinity>
-5.74230051

>  <minimizedRMSD>
1.83776689

$$$$
