
 OpenBabel03272508453D

 29 31  0  0  0  0  0  0  0  0999 V2000
   35.7880   30.1340   49.9800 C   0  0  0  0  0  0  0  0  0  0  0  0
   36.7490   29.7180   50.8920 C   0  0  0  0  0  0  0  0  0  0  0  0
   37.8440   30.5150   50.5460 C   0  0  0  0  0  0  0  0  0  0  0  0
   37.5250   31.3400   49.4960 C   0  0  0  0  0  0  0  0  0  0  0  0
   36.2850   31.0850   49.1810 O   0  0  0  0  0  0  0  0  0  0  0  0
   36.6290   28.9630   51.6560 H   0  0  0  0  0  0  0  0  0  0  0  0
   38.8050   30.4630   51.0610 H   0  0  0  0  0  0  0  0  0  0  0  0
   38.4740   30.6720   46.6710 Cl  0  0  0  0  0  0  0  0  0  0  0  0
   38.8920   32.0910   47.5880 C   0  0  0  0  0  0  0  0  0  0  0  0
   38.4150   32.3090   48.8630 C   0  0  0  0  0  0  0  0  0  0  0  0
   38.7810   33.4520   49.5410 C   0  0  0  0  0  0  0  0  0  0  0  0
   38.3830   33.5900   50.5470 H   0  0  0  0  0  0  0  0  0  0  0  0
   39.6180   34.4240   49.0200 C   0  0  0  0  0  0  0  0  0  0  0  0
   39.8400   35.2830   49.6400 H   0  0  0  0  0  0  0  0  0  0  0  0
   40.0990   34.2030   47.7340 C   0  0  0  0  0  0  0  0  0  0  0  0
   40.7520   34.9610   47.3280 H   0  0  0  0  0  0  0  0  0  0  0  0
   39.7400   33.0540   47.0350 C   0  0  0  0  0  0  0  0  0  0  0  0
   40.4070   32.8800   45.4190 Cl  0  0  0  0  0  0  0  0  0  0  0  0
   34.4280   29.6020   49.9080 C   0  0  0  0  0  0  0  0  0  0  0  0
   33.6740   29.7980   50.9030 O   0  0  0  0  0  0  0  0  0  0  0  0
   32.6400   27.2070   47.8540 C   0  0  0  0  0  0  0  0  0  0  0  0
   33.1030   27.4780   46.5610 C   0  0  0  0  0  0  0  0  0  0  0  0
   34.0330   28.4870   46.3910 C   0  0  0  0  0  0  0  0  0  0  0  0
   34.4440   29.1600   47.5000 N   0  0  0  0  0  0  0  0  0  0  0  0
   33.9860   28.8840   48.7310 C   0  0  0  0  0  0  0  0  0  0  0  0
   33.0790   27.9010   48.9080 N   0  0  0  0  0  0  0  0  0  0  0  0
   31.9050   26.4250   48.0640 H   0  0  0  0  0  0  0  0  0  0  0  0
   32.7000   26.8780   45.7810 H   0  0  0  0  0  0  0  0  0  0  0  0
   34.3920   28.6970   45.3930 H   0  0  0  0  0  0  0  0  0  0  0  0
  1  2  2  0  0  0  0
  2  6  1  0  0  0  0
  3  2  1  0  0  0  0
  3  7  1  0  0  0  0
  4  3  2  0  0  0  0
  5  4  1  0  0  0  0
  5  1  1  0  0  0  0
  8  9  1  0  0  0  0
  9 10  1  0  0  0  0
 10  4  1  0  0  0  0
 10 11  2  0  0  0  0
 11 12  1  0  0  0  0
 13 11  1  0  0  0  0
 13 14  1  0  0  0  0
 15 13  2  0  0  0  0
 16 15  1  0  0  0  0
 17  9  2  0  0  0  0
 17 15  1  0  0  0  0
 18 17  1  0  0  0  0
 19  1  1  0  0  0  0
 19 20  2  0  0  0  0
 21 27  1  0  0  0  0
 21 26  1  0  0  0  0
 22 21  2  0  0  0  0
 23 22  1  0  0  0  0
 23 24  2  0  0  0  0
 24 25  1  0  0  0  0
 25 26  2  0  0  0  0
 25 19  1  0  0  0  0
 28 22  1  0  0  0  0
 29 23  1  0  0  0  0
M  END
>  <minimizedAffinity>
-6.595716

>  <minimizedRMSD>
2.01909447

$$$$
