
 OpenBabel03272510273D

 47 51  0  0  1  0  0  0  0  0999 V2000
   39.1940   31.3420   41.0540 N   0  0  0  0  0  0  0  0  0  0  0  0
   38.9150   32.7450   40.9920 C   0  0  1  0  0  0  0  0  0  0  0  0
   37.5240   32.9660   40.5860 C   0  0  0  0  0  0  0  0  0  0  0  0
   37.3580   32.4980   39.2870 O   0  0  0  0  0  0  0  0  0  0  0  0
   37.7080   31.1910   39.1120 C   0  0  0  0  0  0  0  0  0  0  0  0
   39.0460   30.8200   39.6950 C   0  0  1  0  0  0  0  0  0  0  0  0
   38.6240   30.7390   41.6180 H   0  0  0  0  0  0  0  0  0  0  0  0
   39.5660   33.2190   40.2290 H   0  0  0  0  0  0  0  0  0  0  0  0
   36.6800   32.5950   41.1040 H   0  0  0  0  0  0  0  0  0  0  0  0
   37.3780   34.0860   40.4940 H   0  0  0  0  0  0  0  0  0  0  0  0
   37.6430   30.9480   38.0570 H   0  0  0  0  0  0  0  0  0  0  0  0
   36.9580   30.5860   39.7030 H   0  0  0  0  0  0  0  0  0  0  0  0
   39.0510   29.7040   39.7560 H   0  0  0  0  0  0  0  0  0  0  0  0
   41.8400   29.5440   40.2620 Cl  0  0  0  0  0  0  0  0  0  0  0  0
   41.4910   30.8120   39.1060 C   0  0  0  0  0  0  0  0  0  0  0  0
   40.2070   31.2840   38.9110 C   0  0  0  0  0  0  0  0  0  0  0  0
   40.1180   32.2480   37.9380 C   0  0  0  0  0  0  0  0  0  0  0  0
   39.1980   32.7060   37.6730 H   0  0  0  0  0  0  0  0  0  0  0  0
   41.1860   32.7360   37.1970 C   0  0  0  0  0  0  0  0  0  0  0  0
   41.1020   33.4890   36.4410 H   0  0  0  0  0  0  0  0  0  0  0  0
   42.4500   32.2230   37.4410 C   0  0  0  0  0  0  0  0  0  0  0  0
   43.3020   32.5830   36.8800 H   0  0  0  0  0  0  0  0  0  0  0  0
   42.5970   31.2500   38.4070 C   0  0  0  0  0  0  0  0  0  0  0  0
   44.2180   30.6420   38.6690 Cl  0  0  0  0  0  0  0  0  0  0  0  0
   39.1530   33.2650   42.2920 O   0  0  0  0  0  0  0  0  0  0  0  0
   36.1970   30.2690   46.4340 C   0  0  0  0  0  0  0  0  0  0  0  0
   37.1860   30.7890   47.2330 C   0  0  0  0  0  0  0  0  0  0  0  0
   38.1950   31.6120   46.7040 C   0  0  0  0  0  0  0  0  0  0  0  0
   38.1310   31.8630   45.3480 C   0  0  0  0  0  0  0  0  0  0  0  0
   38.9830   32.6310   44.5980 N   0  0  0  0  0  0  0  0  0  0  0  0
   38.5180   32.5820   43.3360 C   0  0  0  0  0  0  0  0  0  0  0  0
   37.4390   31.8340   43.2820 N   0  0  0  0  0  0  0  0  0  0  0  0
   37.1530   31.3600   44.5090 C   0  0  0  0  0  0  0  0  0  0  0  0
   36.1630   30.5420   45.0710 C   0  0  0  0  0  0  0  0  0  0  0  0
   35.4150   29.6340   46.8280 H   0  0  0  0  0  0  0  0  0  0  0  0
   38.9830   32.0320   47.3160 H   0  0  0  0  0  0  0  0  0  0  0  0
   39.8390   33.1590   44.9360 H   0  0  0  0  0  0  0  0  0  0  0  0
   35.3990   30.1470   44.4180 H   0  0  0  0  0  0  0  0  0  0  0  0
   37.8750   30.5920   50.9310 C   0  0  0  0  0  0  0  0  0  0  0  0
   38.0320   30.9830   49.6070 C   0  0  0  0  0  0  0  0  0  0  0  0
   37.1780   30.4890   48.6540 C   0  0  0  0  0  0  0  0  0  0  0  0
   36.1970   29.6160   49.0810 N   0  0  0  0  0  0  0  0  0  0  0  0
   36.0450   29.2370   50.3670 C   0  0  0  0  0  0  0  0  0  0  0  0
   36.8780   29.7240   51.2760 N   0  0  0  0  0  0  0  0  0  0  0  0
   38.5730   31.0080   51.6560 H   0  0  0  0  0  0  0  0  0  0  0  0
   38.7850   31.6550   49.2660 H   0  0  0  0  0  0  0  0  0  0  0  0
   35.2470   28.5480   50.6120 H   0  0  0  0  0  0  0  0  0  0  0  0
  1  7  1  0  0  0  0
  2  8  1  6  0  0  0
  2  1  1  0  0  0  0
  2 25  1  0  0  0  0
  3  2  1  0  0  0  0
  3  9  1  0  0  0  0
  4  3  1  0  0  0  0
  5  4  1  0  0  0  0
  5  6  1  0  0  0  0
  5 12  1  0  0  0  0
  6 13  1  1  0  0  0
  6  1  1  0  0  0  0
 10  3  1  0  0  0  0
 11  5  1  0  0  0  0
 15 14  1  0  0  0  0
 16 15  1  0  0  0  0
 16  6  1  0  0  0  0
 17 16  2  0  0  0  0
 18 17  1  0  0  0  0
 19 21  2  0  0  0  0
 19 17  1  0  0  0  0
 20 19  1  0  0  0  0
 21 23  1  0  0  0  0
 22 21  1  0  0  0  0
 23 24  1  0  0  0  0
 23 15  2  0  0  0  0
 25 31  1  0  0  0  0
 26 35  1  0  0  0  0
 26 27  1  0  0  0  0
 27 41  1  0  0  0  0
 28 27  2  0  0  0  0
 28 36  1  0  0  0  0
 29 28  1  0  0  0  0
 30 37  1  0  0  0  0
 30 29  1  0  0  0  0
 31 30  1  0  0  0  0
 32 31  2  0  0  0  0
 32 33  1  0  0  0  0
 33 34  1  0  0  0  0
 33 29  2  0  0  0  0
 34 26  2  0  0  0  0
 38 34  1  0  0  0  0
 39 44  1  0  0  0  0
 39 45  1  0  0  0  0
 40 39  2  0  0  0  0
 41 42  2  0  0  0  0
 41 40  1  0  0  0  0
 42 43  1  0  0  0  0
 43 47  1  0  0  0  0
 43 44  2  0  0  0  0
 46 40  1  0  0  0  0
M  END
>  <minimizedAffinity>
-5.57627869

>  <minimizedRMSD>
0.965080619

$$$$
