
     RDKit          3D

 29 31  0  0  0  0  0  0  0  0999 V2000
   38.0619   33.0807   49.5037 C   0  0  0  0  0  0  0  0  0  0  0  0
   38.9707   33.1496   48.4234 C   0  0  0  0  0  0  0  0  0  0  0  0
   38.8332   32.2128   47.3800 C   0  0  0  0  0  0  0  0  0  0  0  0
   37.8256   31.3136   47.5060 N   0  0  0  0  0  0  0  0  0  0  0  0
   36.9758   31.2597   48.5297 C   0  0  0  0  0  0  0  0  0  0  0  0
   37.1130   32.1476   49.5097 N   0  0  0  0  0  0  0  0  0  0  0  0
   35.9270   30.2582   48.5744 C   0  0  0  0  0  0  0  0  0  0  0  0
   35.9285   29.3046   49.5860 C   0  0  0  0  0  0  0  0  0  0  0  0
   34.9397   28.3434   49.6538 C   0  0  0  0  0  0  0  0  0  0  0  0
   33.9698   28.3801   48.6831 C   0  0  0  0  0  0  0  0  0  0  0  0
   33.9538   29.3226   47.6693 C   0  0  0  0  0  0  0  0  0  0  0  0
   34.9531   30.2650   47.6309 N   0  0  0  0  0  0  0  0  0  0  0  0
   38.1652   33.8106   50.3217 H   0  0  0  0  0  0  0  0  0  0  0  0
   39.7579   33.8864   48.3697 H   0  0  0  0  0  0  0  0  0  0  0  0
   39.5073   32.2512   46.5618 H   0  0  0  0  0  0  0  0  0  0  0  0
   36.7436   29.3540   50.3172 H   0  0  0  0  0  0  0  0  0  0  0  0
   34.9782   27.6246   50.4521 H   0  0  0  0  0  0  0  0  0  0  0  0
   33.2036   27.6261   48.7457 H   0  0  0  0  0  0  0  0  0  0  0  0
   34.9563   29.0031   44.8448 Cl  0  0  0  0  0  0  0  0  0  0  0  0
   33.2619   29.2234   45.3115 C   0  0  0  0  0  0  0  0  0  0  0  0
   32.9226   29.3591   46.6400 C   0  0  0  0  0  0  0  0  0  0  0  0
   31.5805   29.5252   46.8983 C   0  0  0  0  0  0  0  0  0  0  0  0
   31.2460   29.6368   47.9081 H   0  0  0  0  0  0  0  0  0  0  0  0
   30.5991   29.5611   45.9343 C   0  0  0  0  0  0  0  0  0  0  0  0
   29.5478   29.6942   46.1768 H   0  0  0  0  0  0  0  0  0  0  0  0
   30.9765   29.4209   44.6031 C   0  0  0  0  0  0  0  0  0  0  0  0
   30.2924   29.4350   43.7826 H   0  0  0  0  0  0  0  0  0  0  0  0
   32.3122   29.2522   44.2995 C   0  0  0  0  0  0  0  0  0  0  0  0
   32.8314   29.0708   42.6215 Cl  0  0  0  0  0  0  0  0  0  0  0  0
  1  6  2  0
  2  1  1  0
  3  4  1  0
  3  2  2  0
  4  5  2  0
  5  7  1  0
  5  6  1  0
  7  8  2  0
  8  9  1  0
 10  9  2  0
 11 10  1  0
 12 11  2  0
 12  7  1  0
  1 13  1  0
  2 14  1  0
  3 15  1  0
  8 16  1  0
  9 17  1  0
 10 18  1  0
 19 20  1  0
 20 21  2  0
 21 22  1  0
 22 23  1  0
 22 24  2  0
 24 25  1  0
 24 26  1  0
 26 27  1  0
 26 28  2  0
 28 29  1  0
 28 20  1  0
 11 21  1  0
M  ISO  8  13  14  14  14  15  14  16  14  17  14  18  14  23  15  25  15
M  ISO  1  27  15
M  END
>  <DihAtoms>  (1) 
9,10,20,19

>  <DihDeg>  (1) 
-179.9942578001183

$$$$
