
 OpenBabel03272507123D

 42 47  0  0  0  0  0  0  0  0999 V2000
   35.7010   29.1570   49.9130 C   0  0  0  0  0  0  0  0  0  0  0  0
   34.6320   29.6460   50.6100 C   0  0  0  0  0  0  0  0  0  0  0  0
   33.4930   29.0390   50.0720 C   0  0  0  0  0  0  0  0  0  0  0  0
   33.9560   28.1950   49.0500 C   0  0  0  0  0  0  0  0  0  0  0  0
   35.2470   28.3180   49.0200 O   0  0  0  0  0  0  0  0  0  0  0  0
   34.6370   30.3700   51.4330 H   0  0  0  0  0  0  0  0  0  0  0  0
   32.5070   29.2490   50.4390 H   0  0  0  0  0  0  0  0  0  0  0  0
   33.4950   26.4190   47.3770 C   0  0  0  0  0  0  0  0  0  0  0  0
   33.0480   27.3910   48.2570 C   0  0  0  0  0  0  0  0  0  0  0  0
   31.7060   27.6310   48.4130 C   0  0  0  0  0  0  0  0  0  0  0  0
   30.7990   26.8820   47.6740 C   0  0  0  0  0  0  0  0  0  0  0  0
   29.4600   26.9020   47.6270 N   0  0  0  0  0  0  0  0  0  0  0  0
   29.0790   25.9740   46.7470 N   0  0  0  0  0  0  0  0  0  0  0  0
   30.1680   25.3690   46.2400 C   0  0  0  0  0  0  0  0  0  0  0  0
   31.3010   25.9260   46.8110 C   0  0  0  0  0  0  0  0  0  0  0  0
   32.6390   25.6650   46.6350 C   0  0  0  0  0  0  0  0  0  0  0  0
   34.5710   26.2420   47.2650 H   0  0  0  0  0  0  0  0  0  0  0  0
   31.2620   28.3810   49.0860 H   0  0  0  0  0  0  0  0  0  0  0  0
   28.7970   27.5260   48.1730 H   0  0  0  0  0  0  0  0  0  0  0  0
   30.2180   24.5640   45.4950 H   0  0  0  0  0  0  0  0  0  0  0  0
   33.0190   24.9180   45.9590 H   0  0  0  0  0  0  0  0  0  0  0  0
   37.0590   29.5720   50.2060 C   0  0  0  0  0  0  0  0  0  0  0  0
   37.7110   28.9420   51.0820 O   0  0  0  0  0  0  0  0  0  0  0  0
   37.5880   30.6960   49.4690 C   0  0  0  0  0  0  0  0  0  0  0  0
   37.5180   31.9460   50.0760 C   0  0  0  0  0  0  0  0  0  0  0  0
   38.0230   33.0510   49.3870 C   0  0  0  0  0  0  0  0  0  0  0  0
   38.5540   32.8230   48.1540 N   0  0  0  0  0  0  0  0  0  0  0  0
   38.6080   31.6200   47.5960 C   0  0  0  0  0  0  0  0  0  0  0  0
   38.1230   30.5600   48.2590 N   0  0  0  0  0  0  0  0  0  0  0  0
   37.0820   32.0400   51.0580 H   0  0  0  0  0  0  0  0  0  0  0  0
   37.9550   34.0080   49.8830 H   0  0  0  0  0  0  0  0  0  0  0  0
   40.0340   32.3780   45.7290 C   0  0  0  0  0  3  0  0  0  0  0  0
   39.1880   31.4310   46.2710 C   0  0  0  0  0  0  0  0  0  0  0  0
   38.9200   30.3160   45.5150 C   0  0  0  0  0  0  0  0  0  0  0  0
   38.2660   29.5510   45.8920 H   0  0  0  0  0  0  0  0  0  0  0  0
   39.4810   30.1530   44.2520 C   0  0  0  0  0  0  0  0  0  0  0  0
   40.3270   31.1000   43.7100 C   0  0  0  0  0  0  0  0  0  0  0  0
   40.5910   32.2150   44.4770 C   0  0  0  0  0  3  0  0  0  0  0  0
   40.7250   30.6550   42.4440 O   0  0  0  0  0  0  0  0  0  0  0  0
   40.3450   29.2930   42.3540 C   0  0  0  0  0  3  0  0  0  0  0  0
   41.1970   28.6330   42.6390 H   0  0  0  0  0  0  0  0  0  0  0  0
   39.3360   29.1130   43.3480 O   0  0  0  0  0  0  0  0  0  0  0  0
  1 22  1  0  0  0  0
  1  2  2  0  0  0  0
  2  6  1  0  0  0  0
  3  7  1  0  0  0  0
  3  2  1  0  0  0  0
  4  3  2  0  0  0  0
  5  4  1  0  0  0  0
  5  1  1  0  0  0  0
  8  9  1  0  0  0  0
  9 10  2  0  0  0  0
  9  4  1  0  0  0  0
 10 18  1  0  0  0  0
 11 10  1  0  0  0  0
 12 11  1  0  0  0  0
 12 19  1  0  0  0  0
 13 12  1  0  0  0  0
 14 13  2  0  0  0  0
 14 15  1  0  0  0  0
 15 11  2  0  0  0  0
 16 15  1  0  0  0  0
 16  8  2  0  0  0  0
 17  8  1  0  0  0  0
 20 14  1  0  0  0  0
 21 16  1  0  0  0  0
 22 23  2  0  0  0  0
 24 25  1  0  0  0  0
 24 22  1  0  0  0  0
 25 30  1  0  0  0  0
 26 31  1  0  0  0  0
 26 25  2  0  0  0  0
 27 26  1  0  0  0  0
 28 27  2  0  0  0  0
 28 29  1  0  0  0  0
 29 24  2  0  0  0  0
 32 33  1  0  0  0  0
 33 28  1  0  0  0  0
 34 35  1  0  0  0  0
 34 33  2  0  0  0  0
 36 34  1  0  0  0  0
 37 36  2  0  0  0  0
 37 38  1  0  0  0  0
 38 32  2  0  0  0  0
 39 37  1  0  0  0  0
 40 39  1  0  0  0  0
 40 41  1  0  0  0  0
 40 42  1  0  0  0  0
 42 36  1  0  0  0  0
M  END
>  <minimizedAffinity>
-7.89883471

>  <minimizedRMSD>
0.773146749

$$$$
