
 OpenBabel03272507493D

 48 53  0  0  1  0  0  0  0  0999 V2000
   37.5420   27.3430   31.4440 N   0  0  0  0  0  0  0  0  0  0  0  0
   36.9230   26.0920   31.1740 C   0  0  0  0  0  0  0  0  0  0  0  0
   37.0230   25.0580   32.2290 C   0  0  0  0  0  0  0  0  0  0  0  0
   38.2850   24.9790   32.9630 C   0  0  1  0  0  0  0  0  0  0  0  0
   38.9380   26.3590   33.1560 C   0  0  0  0  0  0  0  0  0  0  0  0
   38.9180   27.0700   31.7960 C   0  0  0  0  0  0  0  0  0  0  0  0
   37.3400   25.6850   30.2070 H   0  0  0  0  0  0  0  0  0  0  0  0
   35.8480   26.3070   30.9440 H   0  0  0  0  0  0  0  0  0  0  0  0
   36.2390   25.4140   32.9770 H   0  0  0  0  0  0  0  0  0  0  0  0
   36.7000   24.0840   31.8390 H   0  0  0  0  0  0  0  0  0  0  0  0
   39.0600   24.4260   32.3640 H   0  0  0  0  0  0  0  0  0  0  0  0
   38.4070   26.9770   33.8890 H   0  0  0  0  0  0  0  0  0  0  0  0
   40.0040   26.1950   33.3960 H   0  0  0  0  0  0  0  0  0  0  0  0
   39.4590   28.0400   31.9240 H   0  0  0  0  0  0  0  0  0  0  0  0
   39.4460   26.4700   31.0430 H   0  0  0  0  0  0  0  0  0  0  0  0
   38.0670   23.0340   34.4450 C   0  0  0  0  0  0  0  0  0  0  0  0
   38.1780   24.4140   34.3320 C   0  0  0  0  0  0  0  0  0  0  0  0
   38.1640   25.2700   35.4000 C   0  0  0  0  0  0  0  0  0  0  0  0
   38.0270   24.7150   36.6720 C   0  0  0  0  0  0  0  0  0  0  0  0
   37.9140   23.3520   36.7840 C   0  0  0  0  0  0  0  0  0  0  0  0
   37.9290   22.4770   35.7060 C   0  0  0  0  0  0  0  0  0  0  0  0
   37.7830   22.9860   38.1350 O   0  0  0  0  0  0  0  0  0  0  0  0
   38.1870   24.1500   38.8570 C   0  0  0  0  0  0  0  0  0  0  0  0
   37.9700   25.2220   37.9740 O   0  0  0  0  0  0  0  0  0  0  0  0
   38.0800   22.2690   33.6810 H   0  0  0  0  0  0  0  0  0  0  0  0
   38.2510   26.3180   35.2840 H   0  0  0  0  0  0  0  0  0  0  0  0
   37.8370   21.4070   35.8650 H   0  0  0  0  0  0  0  0  0  0  0  0
   37.4730   24.3040   39.7170 H   0  0  0  0  0  0  0  0  0  0  0  0
   39.2150   24.1070   39.2230 H   0  0  0  0  0  0  0  0  0  0  0  0
   36.9580   28.6480   31.3870 C   0  0  0  0  0  0  0  0  0  0  0  0
   36.9580   29.4910   30.2830 C   0  0  0  0  0  0  0  0  0  0  0  0
   36.3280   30.7240   30.4190 C   0  0  0  0  0  0  0  0  0  0  0  0
   35.7560   31.0350   31.6070 N   0  0  0  0  0  0  0  0  0  0  0  0
   35.7690   30.2020   32.6630 C   0  0  0  0  0  0  0  0  0  0  0  0
   36.3750   29.0160   32.5300 N   0  0  0  0  0  0  0  0  0  0  0  0
   37.4410   29.1230   29.4170 H   0  0  0  0  0  0  0  0  0  0  0  0
   36.3380   31.3630   29.5550 H   0  0  0  0  0  0  0  0  0  0  0  0
   35.8730   31.2260   34.8880 C   0  0  0  0  0  3  0  0  0  0  0  0
   35.1330   30.5950   33.9180 C   0  0  0  0  0  0  0  0  0  0  0  0
   33.7950   30.3390   34.1380 C   0  0  0  0  0  0  0  0  0  0  0  0
   33.1710   29.8460   33.4090 H   0  0  0  0  0  0  0  0  0  0  0  0
   33.2890   30.7560   35.3690 C   0  0  0  0  0  0  0  0  0  0  0  0
   34.0200   31.3890   36.3510 C   0  0  0  0  0  0  0  0  0  0  0  0
   35.3550   31.6330   36.1050 C   0  0  0  0  0  3  0  0  0  0  0  0
   33.1430   31.6300   37.4080 O   0  0  0  0  0  0  0  0  0  0  0  0
   31.8080   31.5120   36.9580 C   0  0  0  0  0  3  0  0  0  0  0  0
   31.1370   31.0050   37.6800 H   0  0  0  0  0  0  0  0  0  0  0  0
   31.9750   30.6270   35.8610 O   0  0  0  0  0  0  0  0  0  0  0  0
  1  6  1  0  0  0  0
  2  1  1  0  0  0  0
  2  3  1  0  0  0  0
  3  4  1  0  0  0  0
  3  9  1  0  0  0  0
  4 11  1  6  0  0  0
  4  5  1  0  0  0  0
  4 17  1  0  0  0  0
  5 13  1  0  0  0  0
  5 12  1  0  0  0  0
  6 14  1  0  0  0  0
  6  5  1  0  0  0  0
  7  2  1  0  0  0  0
  8  2  1  0  0  0  0
 10  3  1  0  0  0  0
 15  6  1  0  0  0  0
 16 21  1  0  0  0  0
 17 16  2  0  0  0  0
 17 18  1  0  0  0  0
 18 19  2  0  0  0  0
 19 20  1  0  0  0  0
 19 24  1  0  0  0  0
 20 22  1  0  0  0  0
 21 27  1  0  0  0  0
 21 20  2  0  0  0  0
 22 23  1  0  0  0  0
 23 29  1  0  0  0  0
 23 28  1  0  0  0  0
 24 23  1  0  0  0  0
 25 16  1  0  0  0  0
 26 18  1  0  0  0  0
 30  1  1  0  0  0  0
 30 35  1  0  0  0  0
 31 32  1  0  0  0  0
 31 30  2  0  0  0  0
 32 33  2  0  0  0  0
 33 34  1  0  0  0  0
 34 39  1  0  0  0  0
 35 34  2  0  0  0  0
 36 31  1  0  0  0  0
 37 32  1  0  0  0  0
 38 44  1  0  0  0  0
 39 40  1  0  0  0  0
 39 38  2  0  0  0  0
 40 42  2  0  0  0  0
 41 40  1  0  0  0  0
 42 48  1  0  0  0  0
 42 43  1  0  0  0  0
 43 45  1  0  0  0  0
 44 43  2  0  0  0  0
 46 45  1  0  0  0  0
 46 47  1  0  0  0  0
 48 46  1  0  0  0  0
M  END
>  <minimizedAffinity>
-6.83437395

$$$$

 OpenBabel03272507493D

 48 53  0  0  1  0  0  0  0  0999 V2000
   37.4550   26.0270   34.0420 N   0  0  0  0  0  0  0  0  0  0  0  0
   37.5080   25.7180   35.4290 C   0  0  0  0  0  0  0  0  0  0  0  0
   38.8060   25.2360   35.9540 C   0  0  0  0  0  0  0  0  0  0  0  0
   39.5830   24.3480   35.0900 C   0  0  1  0  0  0  0  0  0  0  0  0
   39.4220   24.6930   33.5990 C   0  0  0  0  0  0  0  0  0  0  0  0
   37.9210   24.8610   33.3270 C   0  0  0  0  0  0  0  0  0  0  0  0
   36.7030   24.9600   35.6590 H   0  0  0  0  0  0  0  0  0  0  0  0
   37.1860   26.6400   35.9780 H   0  0  0  0  0  0  0  0  0  0  0  0
   39.3990   26.2070   36.0320 H   0  0  0  0  0  0  0  0  0  0  0  0
   38.6800   24.8350   36.9680 H   0  0  0  0  0  0  0  0  0  0  0  0
   39.1860   23.2970   35.1400 H   0  0  0  0  0  0  0  0  0  0  0  0
   39.9410   25.6190   33.3240 H   0  0  0  0  0  0  0  0  0  0  0  0
   39.7390   23.8100   33.0150 H   0  0  0  0  0  0  0  0  0  0  0  0
   37.8040   25.0370   32.2290 H   0  0  0  0  0  0  0  0  0  0  0  0
   37.3790   23.9440   33.5950 H   0  0  0  0  0  0  0  0  0  0  0  0
   41.5820   23.3410   36.0980 C   0  0  0  0  0  0  0  0  0  0  0  0
   41.0470   24.3680   35.3300 C   0  0  0  0  0  0  0  0  0  0  0  0
   41.7860   25.3990   34.8170 C   0  0  0  0  0  0  0  0  0  0  0  0
   43.1540   25.4130   35.0860 C   0  0  0  0  0  0  0  0  0  0  0  0
   43.6830   24.3990   35.8470 C   0  0  0  0  0  0  0  0  0  0  0  0
   42.9410   23.3490   36.3700 C   0  0  0  0  0  0  0  0  0  0  0  0
   45.0660   24.5860   36.0100 O   0  0  0  0  0  0  0  0  0  0  0  0
   45.4120   25.5520   35.0160 C   0  0  0  0  0  0  0  0  0  0  0  0
   44.2220   26.2550   34.7590 O   0  0  0  0  0  0  0  0  0  0  0  0
   41.1020   22.4780   36.5380 H   0  0  0  0  0  0  0  0  0  0  0  0
   41.3520   26.1690   34.2340 H   0  0  0  0  0  0  0  0  0  0  0  0
   43.4220   22.5780   36.9630 H   0  0  0  0  0  0  0  0  0  0  0  0
   46.1230   26.2990   35.4740 H   0  0  0  0  0  0  0  0  0  0  0  0
   45.8490   25.1190   34.1140 H   0  0  0  0  0  0  0  0  0  0  0  0
   37.0250   27.2450   33.4260 C   0  0  0  0  0  0  0  0  0  0  0  0
   37.2140   27.5940   32.0940 C   0  0  0  0  0  0  0  0  0  0  0  0
   36.7150   28.8230   31.6770 C   0  0  0  0  0  0  0  0  0  0  0  0
   36.0800   29.6080   32.5800 N   0  0  0  0  0  0  0  0  0  0  0  0
   35.9080   29.2500   33.8650 C   0  0  0  0  0  0  0  0  0  0  0  0
   36.3890   28.0660   34.2640 N   0  0  0  0  0  0  0  0  0  0  0  0
   37.7280   26.8860   31.4980 H   0  0  0  0  0  0  0  0  0  0  0  0
   36.8710   29.0750   30.6440 H   0  0  0  0  0  0  0  0  0  0  0  0
   35.9320   31.0390   35.5410 C   0  0  0  0  0  3  0  0  0  0  0  0
   35.2130   30.1410   34.7910 C   0  0  0  0  0  0  0  0  0  0  0  0
   33.8390   30.0880   34.9170 C   0  0  0  0  0  0  0  0  0  0  0  0
   33.2310   29.4010   34.3510 H   0  0  0  0  0  0  0  0  0  0  0  0
   33.2780   30.9830   35.8290 C   0  0  0  0  0  0  0  0  0  0  0  0
   33.9870   31.8880   36.5890 C   0  0  0  0  0  0  0  0  0  0  0  0
   35.3580   31.9190   36.4420 C   0  0  0  0  0  3  0  0  0  0  0  0
   33.0530   32.5800   37.3580 O   0  0  0  0  0  0  0  0  0  0  0  0
   31.7590   32.3980   36.8190 C   0  0  0  0  0  3  0  0  0  0  0  0
   30.9710   32.2580   37.5850 H   0  0  0  0  0  0  0  0  0  0  0  0
   31.9190   31.1500   36.1610 O   0  0  0  0  0  0  0  0  0  0  0  0
  1  2  1  0  0  0  0
  2  7  1  0  0  0  0
  2  3  1  0  0  0  0
  2  8  1  0  0  0  0
  3  9  1  0  0  0  0
  3 10  1  0  0  0  0
  4 11  1  1  0  0  0
  4 17  1  0  0  0  0
  4  3  1  0  0  0  0
  5  4  1  0  0  0  0
  6 15  1  0  0  0  0
  6  5  1  0  0  0  0
  6  1  1  0  0  0  0
 12  5  1  0  0  0  0
 13  5  1  0  0  0  0
 14  6  1  0  0  0  0
 16 21  1  0  0  0  0
 16 25  1  0  0  0  0
 17 16  2  0  0  0  0
 18 19  2  0  0  0  0
 18 17  1  0  0  0  0
 19 20  1  0  0  0  0
 20 22  1  0  0  0  0
 20 21  2  0  0  0  0
 21 27  1  0  0  0  0
 23 28  1  0  0  0  0
 23 22  1  0  0  0  0
 24 23  1  0  0  0  0
 24 19  1  0  0  0  0
 26 18  1  0  0  0  0
 29 23  1  0  0  0  0
 30  1  1  0  0  0  0
 30 35  1  0  0  0  0
 31 30  2  0  0  0  0
 32 31  1  0  0  0  0
 32 33  2  0  0  0  0
 33 34  1  0  0  0  0
 34 35  2  0  0  0  0
 34 39  1  0  0  0  0
 36 31  1  0  0  0  0
 37 32  1  0  0  0  0
 38 44  1  0  0  0  0
 39 40  1  0  0  0  0
 39 38  2  0  0  0  0
 40 42  2  0  0  0  0
 41 40  1  0  0  0  0
 42 48  1  0  0  0  0
 42 43  1  0  0  0  0
 43 45  1  0  0  0  0
 44 43  2  0  0  0  0
 46 45  1  0  0  0  0
 46 47  1  0  0  0  0
 48 46  1  0  0  0  0
M  END
>  <minimizedAffinity>
-6.82365084

$$$$

 OpenBabel03272507493D

 48 53  0  0  1  0  0  0  0  0999 V2000
   37.2430   27.1360   30.7600 N   0  0  0  0  0  0  0  0  0  0  0  0
   37.2660   28.3030   29.9480 C   0  0  0  0  0  0  0  0  0  0  0  0
   36.8740   29.5740   30.5970 C   0  0  0  0  0  0  0  0  0  0  0  0
   35.7800   29.5150   31.5660 C   0  0  1  0  0  0  0  0  0  0  0  0
   35.7700   28.1960   32.3580 C   0  0  0  0  0  0  0  0  0  0  0  0
   35.9240   27.0520   31.3470 C   0  0  0  0  0  0  0  0  0  0  0  0
   36.6140   28.1240   29.0440 H   0  0  0  0  0  0  0  0  0  0  0  0
   38.3030   28.3840   29.5310 H   0  0  0  0  0  0  0  0  0  0  0  0
   37.8140   29.8300   31.1910 H   0  0  0  0  0  0  0  0  0  0  0  0
   36.7280   30.3570   29.8420 H   0  0  0  0  0  0  0  0  0  0  0  0
   34.7860   29.4900   31.0400 H   0  0  0  0  0  0  0  0  0  0  0  0
   36.5850   28.1390   33.0890 H   0  0  0  0  0  0  0  0  0  0  0  0
   34.7640   28.0780   32.7990 H   0  0  0  0  0  0  0  0  0  0  0  0
   35.8410   26.0950   31.9190 H   0  0  0  0  0  0  0  0  0  0  0  0
   35.1170   27.0880   30.6040 H   0  0  0  0  0  0  0  0  0  0  0  0
   36.1550   31.8600   32.1880 C   0  0  0  0  0  0  0  0  0  0  0  0
   35.8030   30.5810   32.5980 C   0  0  0  0  0  0  0  0  0  0  0  0
   35.5070   30.2510   33.8930 C   0  0  0  0  0  0  0  0  0  0  0  0
   35.5690   31.2640   34.8500 C   0  0  0  0  0  0  0  0  0  0  0  0
   35.9200   32.5270   34.4450 C   0  0  0  0  0  0  0  0  0  0  0  0
   36.2200   32.8700   33.1340 C   0  0  0  0  0  0  0  0  0  0  0  0
   35.9300   33.4030   35.5440 O   0  0  0  0  0  0  0  0  0  0  0  0
   35.2170   32.7000   36.5630 C   0  0  0  0  0  0  0  0  0  0  0  0
   35.3480   31.3400   36.2290 O   0  0  0  0  0  0  0  0  0  0  0  0
   36.3930   32.2350   31.2020 H   0  0  0  0  0  0  0  0  0  0  0  0
   35.2400   29.2670   34.1780 H   0  0  0  0  0  0  0  0  0  0  0  0
   36.4900   33.8910   32.8800 H   0  0  0  0  0  0  0  0  0  0  0  0
   35.7640   32.8360   37.5410 H   0  0  0  0  0  0  0  0  0  0  0  0
   34.1760   33.0100   36.6670 H   0  0  0  0  0  0  0  0  0  0  0  0
   38.2960   26.1930   30.9820 C   0  0  0  0  0  0  0  0  0  0  0  0
   39.2130   25.7600   30.0320 C   0  0  0  0  0  0  0  0  0  0  0  0
   40.1740   24.8410   30.4420 C   0  0  0  0  0  0  0  0  0  0  0  0
   40.1650   24.4210   31.7300 N   0  0  0  0  0  0  0  0  0  0  0  0
   39.2670   24.8540   32.6320 C   0  0  0  0  0  0  0  0  0  0  0  0
   38.3430   25.7380   32.2360 N   0  0  0  0  0  0  0  0  0  0  0  0
   39.1060   26.1700   29.0630 H   0  0  0  0  0  0  0  0  0  0  0  0
   40.8740   24.5180   29.6940 H   0  0  0  0  0  0  0  0  0  0  0  0
   40.4230   23.6960   34.4590 C   0  0  0  0  0  3  0  0  0  0  0  0
   39.3100   24.3630   34.0080 C   0  0  0  0  0  0  0  0  0  0  0  0
   38.2410   24.5640   34.8590 C   0  0  0  0  0  0  0  0  0  0  0  0
   37.3460   25.0800   34.5530 H   0  0  0  0  0  0  0  0  0  0  0  0
   38.3870   24.0540   36.1490 C   0  0  0  0  0  0  0  0  0  0  0  0
   39.4970   23.3830   36.6140 C   0  0  0  0  0  0  0  0  0  0  0  0
   40.5500   23.1970   35.7430 C   0  0  0  0  0  3  0  0  0  0  0  0
   39.2350   23.0500   37.9420 O   0  0  0  0  0  0  0  0  0  0  0  0
   38.1570   23.8280   38.4260 C   0  0  0  0  0  3  0  0  0  0  0  0
   37.4540   23.2640   39.0710 H   0  0  0  0  0  0  0  0  0  0  0  0
   37.4700   24.1100   37.2170 O   0  0  0  0  0  0  0  0  0  0  0  0
  1 30  1  0  0  0  0
  1  6  1  0  0  0  0
  2  3  1  0  0  0  0
  2  1  1  0  0  0  0
  3  9  1  0  0  0  0
  3  4  1  0  0  0  0
  4 11  1  6  0  0  0
  4  5  1  0  0  0  0
  4 17  1  0  0  0  0
  5 13  1  0  0  0  0
  5 12  1  0  0  0  0
  6 14  1  0  0  0  0
  6  5  1  0  0  0  0
  7  2  1  0  0  0  0
  8  2  1  0  0  0  0
 10  3  1  0  0  0  0
 15  6  1  0  0  0  0
 16 17  2  0  0  0  0
 16 21  1  0  0  0  0
 17 18  1  0  0  0  0
 18 26  1  0  0  0  0
 18 19  2  0  0  0  0
 19 24  1  0  0  0  0
 20 19  1  0  0  0  0
 20 22  1  0  0  0  0
 21 20  2  0  0  0  0
 22 23  1  0  0  0  0
 23 29  1  0  0  0  0
 23 28  1  0  0  0  0
 24 23  1  0  0  0  0
 25 16  1  0  0  0  0
 27 21  1  0  0  0  0
 30 35  1  0  0  0  0
 31 32  1  0  0  0  0
 31 30  2  0  0  0  0
 32 33  2  0  0  0  0
 33 34  1  0  0  0  0
 34 39  1  0  0  0  0
 35 34  2  0  0  0  0
 36 31  1  0  0  0  0
 37 32  1  0  0  0  0
 38 44  1  0  0  0  0
 39 38  2  0  0  0  0
 39 40  1  0  0  0  0
 40 42  2  0  0  0  0
 41 40  1  0  0  0  0
 42 43  1  0  0  0  0
 42 48  1  0  0  0  0
 43 45  1  0  0  0  0
 44 43  2  0  0  0  0
 45 46  1  0  0  0  0
 46 47  1  0  0  0  0
 48 46  1  0  0  0  0
M  END
>  <minimizedAffinity>
-6.68690729

$$$$

 OpenBabel03272507493D

 48 53  0  0  1  0  0  0  0  0999 V2000
   37.0380   27.6110   31.7280 N   0  0  0  0  0  0  0  0  0  0  0  0
   36.5350   26.2930   31.5490 C   0  0  0  0  0  0  0  0  0  0  0  0
   37.0330   25.2570   32.4820 C   0  0  0  0  0  0  0  0  0  0  0  0
   38.4400   25.3360   32.8710 C   0  0  1  0  0  0  0  0  0  0  0  0
   38.9390   26.7870   32.9750 C   0  0  0  0  0  0  0  0  0  0  0  0
   38.4810   27.5220   31.7080 C   0  0  0  0  0  0  0  0  0  0  0  0
   36.7390   25.9720   30.4860 H   0  0  0  0  0  0  0  0  0  0  0  0
   35.4180   26.3640   31.6090 H   0  0  0  0  0  0  0  0  0  0  0  0
   36.4280   25.4830   33.4230 H   0  0  0  0  0  0  0  0  0  0  0  0
   36.7470   24.2580   32.1290 H   0  0  0  0  0  0  0  0  0  0  0  0
   39.0990   24.9090   32.0650 H   0  0  0  0  0  0  0  0  0  0  0  0
   38.5390   27.3070   33.8540 H   0  0  0  0  0  0  0  0  0  0  0  0
   40.0430   26.7670   32.9300 H   0  0  0  0  0  0  0  0  0  0  0  0
   38.9090   28.5540   31.7530 H   0  0  0  0  0  0  0  0  0  0  0  0
   38.8710   27.0190   30.8130 H   0  0  0  0  0  0  0  0  0  0  0  0
   39.9540   24.0270   34.2930 C   0  0  0  0  0  0  0  0  0  0  0  0
   38.7590   24.7280   34.1870 C   0  0  0  0  0  0  0  0  0  0  0  0
   37.8610   24.8600   35.2100 C   0  0  0  0  0  0  0  0  0  0  0  0
   38.1690   24.2490   36.4260 C   0  0  0  0  0  0  0  0  0  0  0  0
   39.3480   23.5540   36.5300 C   0  0  0  0  0  0  0  0  0  0  0  0
   40.2660   23.4180   35.4980 C   0  0  0  0  0  0  0  0  0  0  0  0
   39.4790   23.0130   37.8200 O   0  0  0  0  0  0  0  0  0  0  0  0
   38.5070   23.7140   38.5980 C   0  0  0  0  0  0  0  0  0  0  0  0
   37.5430   24.1500   37.6730 O   0  0  0  0  0  0  0  0  0  0  0  0
   40.7370   23.8710   33.5640 H   0  0  0  0  0  0  0  0  0  0  0  0
   36.9570   25.4000   35.1020 H   0  0  0  0  0  0  0  0  0  0  0  0
   41.1820   22.8540   35.6470 H   0  0  0  0  0  0  0  0  0  0  0  0
   37.9840   22.9730   39.2700 H   0  0  0  0  0  0  0  0  0  0  0  0
   38.9230   24.5310   39.1900 H   0  0  0  0  0  0  0  0  0  0  0  0
   36.2980   28.8230   31.8960 C   0  0  0  0  0  0  0  0  0  0  0  0
   36.6400   30.0650   31.3750 C   0  0  0  0  0  0  0  0  0  0  0  0
   35.7850   31.1290   31.6410 C   0  0  0  0  0  0  0  0  0  0  0  0
   34.6770   30.9030   32.3870 N   0  0  0  0  0  0  0  0  0  0  0  0
   34.3650   29.6920   32.8820 C   0  0  0  0  0  0  0  0  0  0  0  0
   35.1900   28.6690   32.6250 N   0  0  0  0  0  0  0  0  0  0  0  0
   37.5330   30.1000   30.8090 H   0  0  0  0  0  0  0  0  0  0  0  0
   36.0660   32.0810   31.2290 H   0  0  0  0  0  0  0  0  0  0  0  0
   31.9290   29.4830   33.0600 C   0  0  0  0  0  3  0  0  0  0  0  0
   33.1540   29.5120   33.6800 C   0  0  0  0  0  0  0  0  0  0  0  0
   33.2310   29.3710   35.0500 C   0  0  0  0  0  0  0  0  0  0  0  0
   34.1690   29.3880   35.5840 H   0  0  0  0  0  0  0  0  0  0  0  0
   32.0160   29.2050   35.7140 C   0  0  0  0  0  0  0  0  0  0  0  0
   30.7800   29.1740   35.1060 C   0  0  0  0  0  0  0  0  0  0  0  0
   30.7320   29.3180   33.7350 C   0  0  0  0  0  3  0  0  0  0  0  0
   29.8410   28.9920   36.1200 O   0  0  0  0  0  0  0  0  0  0  0  0
   30.4840   28.5250   37.2900 C   0  0  0  0  0  3  0  0  0  0  0  0
   30.0960   28.9780   38.2240 H   0  0  0  0  0  0  0  0  0  0  0  0
   31.7920   29.0400   37.0950 O   0  0  0  0  0  0  0  0  0  0  0  0
  1 30  1  0  0  0  0
  2  8  1  0  0  0  0
  2  1  1  0  0  0  0
  2  3  1  0  0  0  0
  3  4  1  0  0  0  0
  3  9  1  0  0  0  0
  4 11  1  6  0  0  0
  4  5  1  0  0  0  0
  4 17  1  0  0  0  0
  5 12  1  0  0  0  0
  6  1  1  0  0  0  0
  6 14  1  0  0  0  0
  6  5  1  0  0  0  0
  7  2  1  0  0  0  0
 10  3  1  0  0  0  0
 13  5  1  0  0  0  0
 15  6  1  0  0  0  0
 16 21  1  0  0  0  0
 17 16  2  0  0  0  0
 17 18  1  0  0  0  0
 18 19  2  0  0  0  0
 19 20  1  0  0  0  0
 19 24  1  0  0  0  0
 20 22  1  0  0  0  0
 21 27  1  0  0  0  0
 21 20  2  0  0  0  0
 22 23  1  0  0  0  0
 23 29  1  0  0  0  0
 23 28  1  0  0  0  0
 24 23  1  0  0  0  0
 25 16  1  0  0  0  0
 26 18  1  0  0  0  0
 30 35  1  0  0  0  0
 31 32  1  0  0  0  0
 31 30  2  0  0  0  0
 32 33  2  0  0  0  0
 33 34  1  0  0  0  0
 34 39  1  0  0  0  0
 35 34  2  0  0  0  0
 36 31  1  0  0  0  0
 37 32  1  0  0  0  0
 38 39  2  0  0  0  0
 38 44  1  0  0  0  0
 39 40  1  0  0  0  0
 40 41  1  0  0  0  0
 40 42  2  0  0  0  0
 42 48  1  0  0  0  0
 43 42  1  0  0  0  0
 43 45  1  0  0  0  0
 44 43  2  0  0  0  0
 45 46  1  0  0  0  0
 46 47  1  0  0  0  0
 48 46  1  0  0  0  0
M  END
>  <minimizedAffinity>
-6.54717302

$$$$

 OpenBabel03272507493D

 48 53  0  0  1  0  0  0  0  0999 V2000
   38.0720   26.6440   32.9230 N   0  0  0  0  0  0  0  0  0  0  0  0
   39.2630   27.1790   32.3590 C   0  0  0  0  0  0  0  0  0  0  0  0
   40.5420   26.7300   32.9540 C   0  0  0  0  0  0  0  0  0  0  0  0
   40.5710   26.5460   34.4040 C   0  0  1  0  0  0  0  0  0  0  0  0
   39.2290   26.0350   34.9570 C   0  0  0  0  0  0  0  0  0  0  0  0
   38.1210   26.9020   34.3440 C   0  0  0  0  0  0  0  0  0  0  0  0
   39.2040   28.3060   32.3980 H   0  0  0  0  0  0  0  0  0  0  0  0
   39.2380   26.9370   31.2650 H   0  0  0  0  0  0  0  0  0  0  0  0
   40.6570   25.6910   32.4970 H   0  0  0  0  0  0  0  0  0  0  0  0
   41.3700   27.3520   32.5900 H   0  0  0  0  0  0  0  0  0  0  0  0
   40.6890   27.5350   34.9280 H   0  0  0  0  0  0  0  0  0  0  0  0
   39.0430   24.9850   34.7030 H   0  0  0  0  0  0  0  0  0  0  0  0
   39.2120   26.2440   36.0420 H   0  0  0  0  0  0  0  0  0  0  0  0
   37.1560   26.5770   34.8060 H   0  0  0  0  0  0  0  0  0  0  0  0
   38.2860   27.9610   34.5860 H   0  0  0  0  0  0  0  0  0  0  0  0
   41.1120   24.3500   35.3600 C   0  0  0  0  0  0  0  0  0  0  0  0
   41.5790   25.5710   34.8900 C   0  0  0  0  0  0  0  0  0  0  0  0
   42.9000   25.9280   34.8790 C   0  0  0  0  0  0  0  0  0  0  0  0
   43.8240   25.0070   35.3740 C   0  0  0  0  0  0  0  0  0  0  0  0
   43.3620   23.8020   35.8410 C   0  0  0  0  0  0  0  0  0  0  0  0
   42.0240   23.4320   35.8530 C   0  0  0  0  0  0  0  0  0  0  0  0
   44.4340   23.0160   36.2960 O   0  0  0  0  0  0  0  0  0  0  0  0
   45.5930   23.6470   35.7490 C   0  0  0  0  0  0  0  0  0  0  0  0
   45.2130   24.9830   35.5310 O   0  0  0  0  0  0  0  0  0  0  0  0
   40.1050   23.9600   35.4030 H   0  0  0  0  0  0  0  0  0  0  0  0
   43.2290   26.8650   34.5140 H   0  0  0  0  0  0  0  0  0  0  0  0
   41.7260   22.4610   36.2370 H   0  0  0  0  0  0  0  0  0  0  0  0
   46.3940   23.6750   36.5430 H   0  0  0  0  0  0  0  0  0  0  0  0
   45.9730   23.1640   34.8470 H   0  0  0  0  0  0  0  0  0  0  0  0
   37.0020   25.9730   32.2510 C   0  0  0  0  0  0  0  0  0  0  0  0
   35.9720   26.5860   31.5470 C   0  0  0  0  0  0  0  0  0  0  0  0
   35.0240   25.7610   30.9520 C   0  0  0  0  0  0  0  0  0  0  0  0
   35.1500   24.4190   31.0900 N   0  0  0  0  0  0  0  0  0  0  0  0
   36.1550   23.8480   31.7770 C   0  0  0  0  0  0  0  0  0  0  0  0
   37.0670   24.6430   32.3490 N   0  0  0  0  0  0  0  0  0  0  0  0
   35.9950   27.6440   31.5190 H   0  0  0  0  0  0  0  0  0  0  0  0
   34.2360   26.2530   30.4120 H   0  0  0  0  0  0  0  0  0  0  0  0
   35.1000   21.6650   32.1450 C   0  0  0  0  0  3  0  0  0  0  0  0
   36.2360   22.3930   31.8890 C   0  0  0  0  0  0  0  0  0  0  0  0
   37.4450   21.7440   31.7380 C   0  0  0  0  0  0  0  0  0  0  0  0
   38.3650   22.2700   31.5370 H   0  0  0  0  0  0  0  0  0  0  0  0
   37.4100   20.3550   31.8640 C   0  0  0  0  0  0  0  0  0  0  0  0
   36.2780   19.6130   32.1220 C   0  0  0  0  0  0  0  0  0  0  0  0
   35.0840   20.2870   32.2680 C   0  0  0  0  0  3  0  0  0  0  0  0
   36.6790   18.2780   32.1690 O   0  0  0  0  0  0  0  0  0  0  0  0
   37.9520   18.1400   31.5680 C   0  0  0  0  0  3  0  0  0  0  0  0
   38.6240   17.4400   32.1030 H   0  0  0  0  0  0  0  0  0  0  0  0
   38.4790   19.4440   31.7610 O   0  0  0  0  0  0  0  0  0  0  0  0
  1  6  1  0  0  0  0
  2  7  1  0  0  0  0
  2  1  1  0  0  0  0
  2  3  1  0  0  0  0
  3  4  1  0  0  0  0
  4 17  1  0  0  0  0
  4 11  1  1  0  0  0
  4  5  1  0  0  0  0
  5 13  1  0  0  0  0
  6 15  1  0  0  0  0
  6 14  1  0  0  0  0
  6  5  1  0  0  0  0
  8  2  1  0  0  0  0
  9  3  1  0  0  0  0
 10  3  1  0  0  0  0
 12  5  1  0  0  0  0
 16 25  1  0  0  0  0
 16 21  1  0  0  0  0
 17 16  2  0  0  0  0
 18 17  1  0  0  0  0
 18 19  2  0  0  0  0
 19 24  1  0  0  0  0
 19 20  1  0  0  0  0
 20 21  2  0  0  0  0
 20 22  1  0  0  0  0
 21 27  1  0  0  0  0
 23 22  1  0  0  0  0
 23 28  1  0  0  0  0
 24 23  1  0  0  0  0
 26 18  1  0  0  0  0
 29 23  1  0  0  0  0
 30 35  1  0  0  0  0
 30  1  1  0  0  0  0
 31 30  2  0  0  0  0
 32 33  2  0  0  0  0
 32 31  1  0  0  0  0
 33 34  1  0  0  0  0
 34 39  1  0  0  0  0
 34 35  2  0  0  0  0
 36 31  1  0  0  0  0
 37 32  1  0  0  0  0
 38 44  1  0  0  0  0
 39 38  2  0  0  0  0
 40 42  2  0  0  0  0
 40 39  1  0  0  0  0
 41 40  1  0  0  0  0
 42 43  1  0  0  0  0
 43 45  1  0  0  0  0
 43 44  2  0  0  0  0
 46 48  1  0  0  0  0
 46 47  1  0  0  0  0
 46 45  1  0  0  0  0
 48 42  1  0  0  0  0
M  END
>  <minimizedAffinity>
-6.49854517

$$$$

 OpenBabel03272507493D

 48 53  0  0  1  0  0  0  0  0999 V2000
   36.8640   27.0570   32.9790 N   0  0  0  0  0  0  0  0  0  0  0  0
   37.0870   27.8850   34.1130 C   0  0  0  0  0  0  0  0  0  0  0  0
   35.9680   28.7600   34.5300 C   0  0  0  0  0  0  0  0  0  0  0  0
   35.1700   29.3680   33.4660 C   0  0  1  0  0  0  0  0  0  0  0  0
   35.0290   28.4480   32.2400 C   0  0  0  0  0  0  0  0  0  0  0  0
   36.4290   27.9180   31.9020 C   0  0  0  0  0  0  0  0  0  0  0  0
   38.0060   28.5130   33.9240 H   0  0  0  0  0  0  0  0  0  0  0  0
   37.3820   27.2070   34.9550 H   0  0  0  0  0  0  0  0  0  0  0  0
   35.2820   28.0210   35.0620 H   0  0  0  0  0  0  0  0  0  0  0  0
   36.3140   29.4930   35.2700 H   0  0  0  0  0  0  0  0  0  0  0  0
   35.6960   30.2650   33.0370 H   0  0  0  0  0  0  0  0  0  0  0  0
   34.3610   27.5990   32.4270 H   0  0  0  0  0  0  0  0  0  0  0  0
   34.7280   29.0760   31.3820 H   0  0  0  0  0  0  0  0  0  0  0  0
   36.3340   27.3110   30.9680 H   0  0  0  0  0  0  0  0  0  0  0  0
   37.1180   28.7520   31.7100 H   0  0  0  0  0  0  0  0  0  0  0  0
   32.7810   29.4700   32.9090 C   0  0  0  0  0  0  0  0  0  0  0  0
   33.7770   29.7090   33.8480 C   0  0  0  0  0  0  0  0  0  0  0  0
   33.5460   30.2620   35.0780 C   0  0  0  0  0  0  0  0  0  0  0  0
   32.2330   30.6050   35.3980 C   0  0  0  0  0  0  0  0  0  0  0  0
   31.2500   30.3720   34.4700 C   0  0  0  0  0  0  0  0  0  0  0  0
   31.4740   29.8100   33.2210 C   0  0  0  0  0  0  0  0  0  0  0  0
   30.0030   30.7830   34.9710 O   0  0  0  0  0  0  0  0  0  0  0  0
   30.2190   30.9360   36.3750 C   0  0  0  0  0  0  0  0  0  0  0  0
   31.5990   31.1710   36.5090 O   0  0  0  0  0  0  0  0  0  0  0  0
   32.8440   29.0300   31.9240 H   0  0  0  0  0  0  0  0  0  0  0  0
   34.3250   30.4320   35.7750 H   0  0  0  0  0  0  0  0  0  0  0  0
   30.6500   29.6510   32.5330 H   0  0  0  0  0  0  0  0  0  0  0  0
   29.7060   31.8820   36.7150 H   0  0  0  0  0  0  0  0  0  0  0  0
   29.8760   30.0870   36.9680 H   0  0  0  0  0  0  0  0  0  0  0  0
   37.0280   25.6390   32.8750 C   0  0  0  0  0  0  0  0  0  0  0  0
   36.4690   24.8250   31.8980 C   0  0  0  0  0  0  0  0  0  0  0  0
   36.7530   23.4650   31.9590 C   0  0  0  0  0  0  0  0  0  0  0  0
   37.5480   23.0100   32.9570 N   0  0  0  0  0  0  0  0  0  0  0  0
   38.0790   23.8170   33.8920 C   0  0  0  0  0  0  0  0  0  0  0  0
   37.8050   25.1260   33.8320 N   0  0  0  0  0  0  0  0  0  0  0  0
   35.8670   25.3120   31.1770 H   0  0  0  0  0  0  0  0  0  0  0  0
   36.3120   22.8510   31.1960 H   0  0  0  0  0  0  0  0  0  0  0  0
   38.5740   23.4190   36.2610 C   0  0  0  0  0  3  0  0  0  0  0  0
   38.9310   23.2650   34.9430 C   0  0  0  0  0  0  0  0  0  0  0  0
   40.0920   22.5900   34.6240 C   0  0  0  0  0  0  0  0  0  0  0  0
   40.4160   22.4430   33.6060 H   0  0  0  0  0  0  0  0  0  0  0  0
   40.8300   22.1050   35.7030 C   0  0  0  0  0  0  0  0  0  0  0  0
   40.4840   22.2530   37.0290 C   0  0  0  0  0  0  0  0  0  0  0  0
   39.3190   22.9310   37.3190 C   0  0  0  0  0  3  0  0  0  0  0  0
   41.4820   21.6270   37.7740 O   0  0  0  0  0  0  0  0  0  0  0  0
   42.2330   20.7660   36.9400 C   0  0  0  0  0  3  0  0  0  0  0  0
   43.3220   20.7830   37.1450 H   0  0  0  0  0  0  0  0  0  0  0  0
   42.0410   21.3870   35.6780 O   0  0  0  0  0  0  0  0  0  0  0  0
  1  2  1  0  0  0  0
  2  3  1  0  0  0  0
  2  8  1  0  0  0  0
  3  9  1  0  0  0  0
  3 10  1  0  0  0  0
  4 11  1  6  0  0  0
  4 17  1  0  0  0  0
  4  3  1  0  0  0  0
  5 12  1  0  0  0  0
  5  4  1  0  0  0  0
  6  5  1  0  0  0  0
  6  1  1  0  0  0  0
  7  2  1  0  0  0  0
 13  5  1  0  0  0  0
 14  6  1  0  0  0  0
 15  6  1  0  0  0  0
 16 21  2  0  0  0  0
 16 17  1  0  0  0  0
 17 18  2  0  0  0  0
 18 19  1  0  0  0  0
 18 26  1  0  0  0  0
 19 24  1  0  0  0  0
 20 22  1  0  0  0  0
 20 19  2  0  0  0  0
 21 20  1  0  0  0  0
 22 23  1  0  0  0  0
 23 24  1  0  0  0  0
 23 28  1  0  0  0  0
 23 29  1  0  0  0  0
 25 16  1  0  0  0  0
 27 21  1  0  0  0  0
 30  1  1  0  0  0  0
 30 35  1  0  0  0  0
 31 32  1  0  0  0  0
 31 30  2  0  0  0  0
 32 33  2  0  0  0  0
 33 34  1  0  0  0  0
 34 39  1  0  0  0  0
 35 34  2  0  0  0  0
 36 31  1  0  0  0  0
 37 32  1  0  0  0  0
 38 44  1  0  0  0  0
 39 38  2  0  0  0  0
 40 39  1  0  0  0  0
 40 42  2  0  0  0  0
 41 40  1  0  0  0  0
 42 43  1  0  0  0  0
 43 44  2  0  0  0  0
 43 45  1  0  0  0  0
 46 47  1  0  0  0  0
 46 45  1  0  0  0  0
 48 42  1  0  0  0  0
 48 46  1  0  0  0  0
M  END
>  <minimizedAffinity>
-6.49848843

$$$$

 OpenBabel03272507493D

 48 53  0  0  1  0  0  0  0  0999 V2000
   36.9720   28.3950   31.6300 N   0  0  0  0  0  0  0  0  0  0  0  0
   36.8450   29.6550   30.9840 C   0  0  0  0  0  0  0  0  0  0  0  0
   36.3210   30.7730   31.8020 C   0  0  0  0  0  0  0  0  0  0  0  0
   35.2620   30.4560   32.7580 C   0  0  1  0  0  0  0  0  0  0  0  0
   35.4200   29.0500   33.3640 C   0  0  0  0  0  0  0  0  0  0  0  0
   35.6850   28.0790   32.2050 C   0  0  0  0  0  0  0  0  0  0  0  0
   36.1990   29.5250   30.0660 H   0  0  0  0  0  0  0  0  0  0  0  0
   37.8560   29.9130   30.5770 H   0  0  0  0  0  0  0  0  0  0  0  0
   37.2370   31.0550   32.4210 H   0  0  0  0  0  0  0  0  0  0  0  0
   36.0710   31.6280   31.1610 H   0  0  0  0  0  0  0  0  0  0  0  0
   34.2660   30.3860   32.2380 H   0  0  0  0  0  0  0  0  0  0  0  0
   36.2510   28.9910   34.0760 H   0  0  0  0  0  0  0  0  0  0  0  0
   34.4430   28.7560   33.7880 H   0  0  0  0  0  0  0  0  0  0  0  0
   35.7240   27.0500   32.6420 H   0  0  0  0  0  0  0  0  0  0  0  0
   34.8630   28.1200   31.4770 H   0  0  0  0  0  0  0  0  0  0  0  0
   35.6640   30.8940   35.1400 C   0  0  0  0  0  0  0  0  0  0  0  0
   35.1810   31.3680   33.9260 C   0  0  0  0  0  0  0  0  0  0  0  0
   34.6170   32.6030   33.7610 C   0  0  0  0  0  0  0  0  0  0  0  0
   34.5220   33.4270   34.8820 C   0  0  0  0  0  0  0  0  0  0  0  0
   34.9960   32.9580   36.0820 C   0  0  0  0  0  0  0  0  0  0  0  0
   35.5710   31.7070   36.2580 C   0  0  0  0  0  0  0  0  0  0  0  0
   34.8110   33.9230   37.0870 O   0  0  0  0  0  0  0  0  0  0  0  0
   34.5410   35.1300   36.3720 C   0  0  0  0  0  0  0  0  0  0  0  0
   34.0320   34.7130   35.1300 O   0  0  0  0  0  0  0  0  0  0  0  0
   36.1370   29.9530   35.3810 H   0  0  0  0  0  0  0  0  0  0  0  0
   34.2580   32.9390   32.8240 H   0  0  0  0  0  0  0  0  0  0  0  0
   35.9280   31.3980   37.2350 H   0  0  0  0  0  0  0  0  0  0  0  0
   33.6970   35.6720   36.8900 H   0  0  0  0  0  0  0  0  0  0  0  0
   35.4060   35.7880   36.2740 H   0  0  0  0  0  0  0  0  0  0  0  0
   38.1320   27.5610   31.7160 C   0  0  0  0  0  0  0  0  0  0  0  0
   39.1520   27.4860   30.7760 C   0  0  0  0  0  0  0  0  0  0  0  0
   40.2060   26.6180   31.0430 C   0  0  0  0  0  0  0  0  0  0  0  0
   40.1830   25.8990   32.1900 N   0  0  0  0  0  0  0  0  0  0  0  0
   39.1840   25.9880   33.0870 C   0  0  0  0  0  0  0  0  0  0  0  0
   38.1700   26.8240   32.8290 N   0  0  0  0  0  0  0  0  0  0  0  0
   39.0440   28.1030   29.9240 H   0  0  0  0  0  0  0  0  0  0  0  0
   40.9850   26.5740   30.3040 H   0  0  0  0  0  0  0  0  0  0  0  0
   38.1030   25.1170   35.1080 C   0  0  0  0  0  3  0  0  0  0  0  0
   39.2170   25.1860   34.3080 C   0  0  0  0  0  0  0  0  0  0  0  0
   40.3580   24.4960   34.6640 C   0  0  0  0  0  0  0  0  0  0  0  0
   41.2580   24.5180   34.0700 H   0  0  0  0  0  0  0  0  0  0  0  0
   40.2810   23.7620   35.8470 C   0  0  0  0  0  0  0  0  0  0  0  0
   39.1710   23.6850   36.6600 C   0  0  0  0  0  0  0  0  0  0  0  0
   38.0440   24.3840   36.2800 C   0  0  0  0  0  3  0  0  0  0  0  0
   39.5140   22.8570   37.7270 O   0  0  0  0  0  0  0  0  0  0  0  0
   40.6720   22.1120   37.4020 C   0  0  0  0  0  3  0  0  0  0  0  0
   41.3860   22.0080   38.2420 H   0  0  0  0  0  0  0  0  0  0  0  0
   41.2800   22.9710   36.4490 O   0  0  0  0  0  0  0  0  0  0  0  0
  1 30  1  0  0  0  0
  1  6  1  0  0  0  0
  2  1  1  0  0  0  0
  2  3  1  0  0  0  0
  3  9  1  0  0  0  0
  3  4  1  0  0  0  0
  4 11  1  6  0  0  0
  4  5  1  0  0  0  0
  4 17  1  0  0  0  0
  5 13  1  0  0  0  0
  5 12  1  0  0  0  0
  6 14  1  0  0  0  0
  6  5  1  0  0  0  0
  7  2  1  0  0  0  0
  8  2  1  0  0  0  0
 10  3  1  0  0  0  0
 15  6  1  0  0  0  0
 16 25  1  0  0  0  0
 16 21  1  0  0  0  0
 17 16  2  0  0  0  0
 18 17  1  0  0  0  0
 18 19  2  0  0  0  0
 19 24  1  0  0  0  0
 19 20  1  0  0  0  0
 20 21  2  0  0  0  0
 20 22  1  0  0  0  0
 21 27  1  0  0  0  0
 23 28  1  0  0  0  0
 23 22  1  0  0  0  0
 24 23  1  0  0  0  0
 26 18  1  0  0  0  0
 29 23  1  0  0  0  0
 30 35  1  0  0  0  0
 31 32  1  0  0  0  0
 31 30  2  0  0  0  0
 32 33  2  0  0  0  0
 33 34  1  0  0  0  0
 34 39  1  0  0  0  0
 35 34  2  0  0  0  0
 36 31  1  0  0  0  0
 37 32  1  0  0  0  0
 38 44  1  0  0  0  0
 39 40  1  0  0  0  0
 39 38  2  0  0  0  0
 40 42  2  0  0  0  0
 41 40  1  0  0  0  0
 42 48  1  0  0  0  0
 42 43  1  0  0  0  0
 43 45  1  0  0  0  0
 44 43  2  0  0  0  0
 46 45  1  0  0  0  0
 46 47  1  0  0  0  0
 48 46  1  0  0  0  0
M  END
>  <minimizedAffinity>
-6.49747896

$$$$

 OpenBabel03272507493D

 48 53  0  0  1  0  0  0  0  0999 V2000
   36.2150   27.7530   32.6530 N   0  0  0  0  0  0  0  0  0  0  0  0
   36.6970   28.4090   33.8190 C   0  0  0  0  0  0  0  0  0  0  0  0
   35.6970   29.1320   34.6380 C   0  0  0  0  0  0  0  0  0  0  0  0
   34.6400   29.8420   33.9190 C   0  0  1  0  0  0  0  0  0  0  0  0
   34.2170   29.1150   32.6300 C   0  0  0  0  0  0  0  0  0  0  0  0
   35.4990   28.7380   31.8750 C   0  0  0  0  0  0  0  0  0  0  0  0
   37.5210   29.1180   33.5170 H   0  0  0  0  0  0  0  0  0  0  0  0
   37.2130   27.6300   34.4380 H   0  0  0  0  0  0  0  0  0  0  0  0
   35.1880   28.2750   35.1920 H   0  0  0  0  0  0  0  0  0  0  0  0
   36.2000   29.7640   35.3810 H   0  0  0  0  0  0  0  0  0  0  0  0
   35.0160   30.8280   33.5290 H   0  0  0  0  0  0  0  0  0  0  0  0
   33.6410   28.2040   32.8310 H   0  0  0  0  0  0  0  0  0  0  0  0
   33.6920   29.8460   31.9900 H   0  0  0  0  0  0  0  0  0  0  0  0
   35.1860   28.2780   30.9050 H   0  0  0  0  0  0  0  0  0  0  0  0
   36.0940   29.6360   31.6610 H   0  0  0  0  0  0  0  0  0  0  0  0
   33.4140   30.8920   35.7690 C   0  0  0  0  0  0  0  0  0  0  0  0
   33.3810   30.0260   34.6830 C   0  0  0  0  0  0  0  0  0  0  0  0
   32.2700   29.3210   34.3050 C   0  0  0  0  0  0  0  0  0  0  0  0
   31.1100   29.4860   35.0610 C   0  0  0  0  0  0  0  0  0  0  0  0
   31.1440   30.3400   36.1350 C   0  0  0  0  0  0  0  0  0  0  0  0
   32.2650   31.0590   36.5240 C   0  0  0  0  0  0  0  0  0  0  0  0
   29.8890   30.3710   36.7690 O   0  0  0  0  0  0  0  0  0  0  0  0
   28.9980   29.7840   35.8190 C   0  0  0  0  0  0  0  0  0  0  0  0
   29.8110   28.9700   35.0100 O   0  0  0  0  0  0  0  0  0  0  0  0
   34.2210   31.5040   36.1470 H   0  0  0  0  0  0  0  0  0  0  0  0
   32.2730   28.6680   33.4720 H   0  0  0  0  0  0  0  0  0  0  0  0
   32.2230   31.7200   37.3850 H   0  0  0  0  0  0  0  0  0  0  0  0
   28.3010   29.0850   36.3650 H   0  0  0  0  0  0  0  0  0  0  0  0
   28.4260   30.5130   35.2430 H   0  0  0  0  0  0  0  0  0  0  0  0
   36.3840   26.3820   32.2780 C   0  0  0  0  0  0  0  0  0  0  0  0
   35.8130   25.7650   31.1720 C   0  0  0  0  0  0  0  0  0  0  0  0
   36.1040   24.4200   30.9680 C   0  0  0  0  0  0  0  0  0  0  0  0
   36.9190   23.7900   31.8480 N   0  0  0  0  0  0  0  0  0  0  0  0
   37.4610   24.4080   32.9120 C   0  0  0  0  0  0  0  0  0  0  0  0
   37.1790   25.7020   33.1070 N   0  0  0  0  0  0  0  0  0  0  0  0
   35.1960   26.3760   30.5670 H   0  0  0  0  0  0  0  0  0  0  0  0
   35.6530   23.9600   30.1090 H   0  0  0  0  0  0  0  0  0  0  0  0
   39.2570   22.7890   33.3210 C   0  0  0  0  0  3  0  0  0  0  0  0
   38.3330   23.6720   33.8250 C   0  0  0  0  0  0  0  0  0  0  0  0
   38.2370   23.8580   35.1890 C   0  0  0  0  0  0  0  0  0  0  0  0
   37.5290   24.5380   35.6340 H   0  0  0  0  0  0  0  0  0  0  0  0
   39.1170   23.1060   35.9690 C   0  0  0  0  0  0  0  0  0  0  0  0
   40.0480   22.2170   35.4770 C   0  0  0  0  0  0  0  0  0  0  0  0
   40.1220   22.0520   34.1100 C   0  0  0  0  0  3  0  0  0  0  0  0
   40.7130   21.6860   36.5810 O   0  0  0  0  0  0  0  0  0  0  0  0
   40.4870   22.5010   37.7140 C   0  0  0  0  0  3  0  0  0  0  0  0
   40.3260   21.9300   38.6500 H   0  0  0  0  0  0  0  0  0  0  0  0
   39.2420   23.0910   37.3720 O   0  0  0  0  0  0  0  0  0  0  0  0
  1  2  1  0  0  0  0
  2  8  1  0  0  0  0
  2  3  1  0  0  0  0
  3  9  1  0  0  0  0
  3 10  1  0  0  0  0
  4 11  1  6  0  0  0
  4  3  1  0  0  0  0
  4 17  1  0  0  0  0
  5 12  1  0  0  0  0
  5  4  1  0  0  0  0
  6  5  1  0  0  0  0
  6  1  1  0  0  0  0
  7  2  1  0  0  0  0
 13  5  1  0  0  0  0
 14  6  1  0  0  0  0
 15  6  1  0  0  0  0
 16 25  1  0  0  0  0
 16 21  1  0  0  0  0
 17 16  2  0  0  0  0
 18 17  1  0  0  0  0
 18 19  2  0  0  0  0
 19 20  1  0  0  0  0
 20 21  2  0  0  0  0
 20 22  1  0  0  0  0
 21 27  1  0  0  0  0
 23 28  1  0  0  0  0
 23 22  1  0  0  0  0
 24 19  1  0  0  0  0
 24 23  1  0  0  0  0
 26 18  1  0  0  0  0
 29 23  1  0  0  0  0
 30  1  1  0  0  0  0
 30 35  1  0  0  0  0
 31 30  2  0  0  0  0
 32 31  1  0  0  0  0
 32 33  2  0  0  0  0
 33 34  1  0  0  0  0
 34 35  2  0  0  0  0
 34 39  1  0  0  0  0
 36 31  1  0  0  0  0
 37 32  1  0  0  0  0
 38 39  2  0  0  0  0
 38 44  1  0  0  0  0
 39 40  1  0  0  0  0
 40 41  1  0  0  0  0
 40 42  2  0  0  0  0
 42 48  1  0  0  0  0
 43 42  1  0  0  0  0
 43 45  1  0  0  0  0
 44 43  2  0  0  0  0
 45 46  1  0  0  0  0
 46 47  1  0  0  0  0
 48 46  1  0  0  0  0
M  END
>  <minimizedAffinity>
-6.43486166

$$$$

 OpenBabel03272507493D

 48 53  0  0  1  0  0  0  0  0999 V2000
   36.7300   27.6400   31.0140 N   0  0  0  0  0  0  0  0  0  0  0  0
   36.7140   28.8480   30.2640 C   0  0  0  0  0  0  0  0  0  0  0  0
   36.4830   30.0990   31.0220 C   0  0  0  0  0  0  0  0  0  0  0  0
   35.5230   30.0400   32.1230 C   0  0  1  0  0  0  0  0  0  0  0  0
   35.5410   28.6810   32.8440 C   0  0  0  0  0  0  0  0  0  0  0  0
   35.4960   27.5900   31.7670 C   0  0  0  0  0  0  0  0  0  0  0  0
   35.9400   28.7540   29.4470 H   0  0  0  0  0  0  0  0  0  0  0  0
   37.6910   28.9010   29.7180 H   0  0  0  0  0  0  0  0  0  0  0  0
   37.5050   30.2740   31.4970 H   0  0  0  0  0  0  0  0  0  0  0  0
   36.2850   30.9300   30.3320 H   0  0  0  0  0  0  0  0  0  0  0  0
   34.4690   30.0950   31.7340 H   0  0  0  0  0  0  0  0  0  0  0  0
   36.4400   28.5420   33.4560 H   0  0  0  0  0  0  0  0  0  0  0  0
   34.5950   28.5890   33.4090 H   0  0  0  0  0  0  0  0  0  0  0  0
   35.4340   26.6070   32.2970 H   0  0  0  0  0  0  0  0  0  0  0  0
   34.6020   27.7080   31.1400 H   0  0  0  0  0  0  0  0  0  0  0  0
   35.6140   30.6110   34.5090 C   0  0  0  0  0  0  0  0  0  0  0  0
   35.7410   31.0440   33.1950 C   0  0  0  0  0  0  0  0  0  0  0  0
   36.0240   32.3350   32.8420 C   0  0  0  0  0  0  0  0  0  0  0  0
   36.1890   33.2650   33.8680 C   0  0  0  0  0  0  0  0  0  0  0  0
   36.0600   32.8390   35.1670 C   0  0  0  0  0  0  0  0  0  0  0  0
   35.7760   31.5310   35.5330 C   0  0  0  0  0  0  0  0  0  0  0  0
   36.2580   33.9130   36.0510 O   0  0  0  0  0  0  0  0  0  0  0  0
   36.8700   34.9240   35.2490 C   0  0  0  0  0  0  0  0  0  0  0  0
   36.4770   34.6330   33.9300 O   0  0  0  0  0  0  0  0  0  0  0  0
   35.4090   29.6250   34.9010 H   0  0  0  0  0  0  0  0  0  0  0  0
   36.1160   32.6370   31.8320 H   0  0  0  0  0  0  0  0  0  0  0  0
   35.6880   31.2590   36.5800 H   0  0  0  0  0  0  0  0  0  0  0  0
   36.3990   35.9180   35.5030 H   0  0  0  0  0  0  0  0  0  0  0  0
   37.9540   34.9810   35.3630 H   0  0  0  0  0  0  0  0  0  0  0  0
   37.7470   26.6340   31.0470 C   0  0  0  0  0  0  0  0  0  0  0  0
   39.1160   26.8640   31.1010 C   0  0  0  0  0  0  0  0  0  0  0  0
   39.9510   25.7520   31.1350 C   0  0  0  0  0  0  0  0  0  0  0  0
   39.3930   24.5180   31.1120 N   0  0  0  0  0  0  0  0  0  0  0  0
   38.0640   24.3190   31.0600 C   0  0  0  0  0  0  0  0  0  0  0  0
   37.2620   25.3910   31.0270 N   0  0  0  0  0  0  0  0  0  0  0  0
   39.4170   27.8780   31.1130 H   0  0  0  0  0  0  0  0  0  0  0  0
   41.0060   25.9490   31.1760 H   0  0  0  0  0  0  0  0  0  0  0  0
   38.2550   21.9450   30.4780 C   0  0  0  0  0  3  0  0  0  0  0  0
   37.5220   22.9620   31.0390 C   0  0  0  0  0  0  0  0  0  0  0  0
   36.2810   22.6940   31.5780 C   0  0  0  0  0  0  0  0  0  0  0  0
   35.6670   23.4570   32.0290 H   0  0  0  0  0  0  0  0  0  0  0  0
   35.8600   21.3660   31.5050 C   0  0  0  0  0  0  0  0  0  0  0  0
   36.5840   20.3360   30.9450 C   0  0  0  0  0  0  0  0  0  0  0  0
   37.8220   20.6330   30.4130 C   0  0  0  0  0  3  0  0  0  0  0  0
   35.8100   19.1850   31.0790 O   0  0  0  0  0  0  0  0  0  0  0  0
   34.7990   19.3970   32.0450 C   0  0  0  0  0  3  0  0  0  0  0  0
   33.8200   18.9570   31.7710 H   0  0  0  0  0  0  0  0  0  0  0  0
   34.6530   20.8070   31.9680 O   0  0  0  0  0  0  0  0  0  0  0  0
  1 30  1  0  0  0  0
  1  6  1  0  0  0  0
  2  1  1  0  0  0  0
  2  3  1  0  0  0  0
  3  9  1  0  0  0  0
  3  4  1  0  0  0  0
  4 11  1  6  0  0  0
  4  5  1  0  0  0  0
  4 17  1  0  0  0  0
  5 13  1  0  0  0  0
  5 12  1  0  0  0  0
  6 14  1  0  0  0  0
  6  5  1  0  0  0  0
  7  2  1  0  0  0  0
  8  2  1  0  0  0  0
 10  3  1  0  0  0  0
 15  6  1  0  0  0  0
 16 25  1  0  0  0  0
 16 21  1  0  0  0  0
 17 16  2  0  0  0  0
 18 17  1  0  0  0  0
 18 19  2  0  0  0  0
 19 24  1  0  0  0  0
 19 20  1  0  0  0  0
 20 21  2  0  0  0  0
 20 22  1  0  0  0  0
 21 27  1  0  0  0  0
 23 29  1  0  0  0  0
 23 28  1  0  0  0  0
 23 22  1  0  0  0  0
 24 23  1  0  0  0  0
 26 18  1  0  0  0  0
 30 31  1  0  0  0  0
 31 36  1  0  0  0  0
 31 32  2  0  0  0  0
 32 37  1  0  0  0  0
 33 32  1  0  0  0  0
 34 33  2  0  0  0  0
 35 30  2  0  0  0  0
 35 34  1  0  0  0  0
 38 39  1  0  0  0  0
 39 34  1  0  0  0  0
 39 40  2  0  0  0  0
 40 41  1  0  0  0  0
 42 40  1  0  0  0  0
 42 48  1  0  0  0  0
 43 45  1  0  0  0  0
 43 42  2  0  0  0  0
 44 38  2  0  0  0  0
 44 43  1  0  0  0  0
 45 46  1  0  0  0  0
 47 46  1  0  0  0  0
 48 46  1  0  0  0  0
M  END
>  <minimizedAffinity>
-6.3916378

$$$$
