REMARK  Name = 
REMARK  2 active torsions:
REMARK  status: ('A' for Active; 'I' for Inactive)
REMARK    1  A    between atoms: C_12  and  N_13
REMARK    2  A    between atoms: C_17  and  C_37
REMARK                            x       y       z     vdW  Elec       q    Type
REMARK                         _______ _______ _______ _____ _____    ______ ____
ROOT
ATOM      1  C   UNL     1      37.237  29.233  50.570  0.00  0.00    +0.000 A 
ATOM      2  C   UNL     1      37.401  30.598  50.896  0.00  0.00    +0.000 A 
ATOM      3  C   UNL     1      36.680  31.518  50.141  0.00  0.00    +0.000 A 
ATOM      4  N   UNL     1      35.874  31.051  49.150  0.00  0.00    +0.000 NA
ATOM      5  C   UNL     1      35.752  29.756  48.880  0.00  0.00    +0.000 A 
ATOM      6  N   UNL     1      36.430  28.842  49.585  0.00  0.00    +0.000 NA
ATOM      7  N   UNL     1      34.896  29.332  47.832  0.00  0.00    +0.000 N 
ATOM      8  C   UNL     1      34.246  28.035  47.850  0.00  0.00    +0.000 C 
ATOM      9  C   UNL     1      32.771  28.195  47.660  0.00  0.00    +0.000 C 
ATOM     10  N   UNL     1      32.337  29.425  47.205  0.00  0.00    +0.000 NA
ATOM     11  C   UNL     1      33.199  30.293  46.447  0.00  0.00    +0.000 C 
ATOM     12  C   UNL     1      34.626  30.181  46.681  0.00  0.00    +0.000 C 
ATOM     13  H   UNL     1      37.822  28.563  51.190  0.00  0.00    +0.000 HD
ATOM     14  H   UNL     1      38.036  30.968  51.677  0.00  0.00    +0.000 HD
ATOM     15  H   UNL     1      36.715  32.591  50.288  0.00  0.00    +0.000 HD
ATOM     16  H   UNL     1      34.368  27.658  48.914  0.00  0.00    +0.000 HD
ATOM     17  H   UNL     1      34.734  27.270  47.249  0.00  0.00    +0.000 HD
ATOM     18  H   UNL     1      32.173  27.892  48.544  0.00  0.00    +0.000 HD
ATOM     19  H   UNL     1      32.497  27.414  46.889  0.00  0.00    +0.000 HD
ATOM     20  H   UNL     1      31.614  29.869  47.771  0.00  0.00    +0.000 HD
ATOM     21  H   UNL     1      32.899  31.323  46.850  0.00  0.00    +0.000 HD
ATOM     22  H   UNL     1      32.764  30.323  45.460  0.00  0.00    +0.000 HD
ATOM     23  H   UNL     1      35.116  31.178  46.906  0.00  0.00    +0.000 HD
ENDROOT
BRANCH  12  24
ATOM     24  N   UNL     1      35.379  29.634  45.566  0.00  0.00    +0.000 NA
ATOM     25  C   UNL     1      36.558  30.448  45.273  0.00  0.00    +0.000 C 
ATOM     26  C   UNL     1      36.745  30.431  43.769  0.00  0.00    +0.000 C 
ATOM     27  C   UNL     1      35.752  29.418  43.320  0.00  0.00    +0.000 C 
ATOM     28  C   UNL     1      34.628  29.539  44.367  0.00  0.00    +0.000 C 
ATOM     29  H   UNL     1      36.467  31.469  45.675  0.00  0.00    +0.000 HD
ATOM     30  H   UNL     1      37.422  29.936  45.742  0.00  0.00    +0.000 HD
ATOM     31  H   UNL     1      37.760  30.096  43.488  0.00  0.00    +0.000 HD
ATOM     32  H   UNL     1      36.493  31.429  43.364  0.00  0.00    +0.000 HD
ATOM     33  H   UNL     1      35.348  29.609  42.298  0.00  0.00    +0.000 HD
ATOM     34  H   UNL     1      36.142  28.381  43.327  0.00  0.00    +0.000 HD
ATOM     35  H   UNL     1      34.129  30.429  43.988  0.00  0.00    +0.000 HD
BRANCH  28  37
ATOM     36  C   UNL     1      33.138  27.554  45.050  0.00  0.00    +0.000 A 
ATOM     37  C   UNL     1      33.904  28.260  44.146  0.00  0.00    +0.000 A 
ATOM     38  C   UNL     1      33.983  27.688  42.889  0.00  0.00    +0.000 A 
ATOM     39  H   UNL     1      34.551  28.113  42.046  0.00  0.00    +0.000 HD
ATOM     40  C   UNL     1      33.353  26.509  42.549  0.00  0.00    +0.000 A 
ATOM     41  C   UNL     1      32.598  25.841  43.490  0.00  0.00    +0.000 A 
ATOM     42  C   UNL     1      32.492  26.374  44.756  0.00  0.00    +0.000 A 
ATOM     43  O   UNL     1      32.072  24.684  42.893  0.00  0.00    +0.000 OA
ATOM     44  C   UNL     1      32.253  24.779  41.485  0.00  0.00    +0.000 C 
ATOM     45  H   UNL     1      32.660  23.840  41.059  0.00  0.00    +0.000 HD
ATOM     46  O   UNL     1      33.272  25.734  41.378  0.00  0.00    +0.000 OA
ENDBRANCH  28  37
ENDBRANCH  12  24
TORSDOF 2
