
 OpenBabel03272509073D

 42 46  0  0  0  0  0  0  0  0999 V2000
   33.1060   28.2280   47.7310 C   0  0  0  0  0  0  0  0  0  0  0  0
   32.4490   28.9210   47.2120 H   0  0  0  0  0  0  0  0  0  0  0  0
   32.5060   27.7790   48.5520 H   0  0  0  0  0  0  0  0  0  0  0  0
   33.5050   27.0840   46.8650 C   0  0  0  0  0  0  0  0  0  0  0  0
   33.5270   25.7500   47.2640 C   0  0  0  0  0  0  0  0  0  0  0  0
   33.9010   24.7570   46.3990 C   0  0  0  0  0  0  0  0  0  0  0  0
   34.2680   25.0460   45.1030 C   0  0  0  0  0  0  0  0  0  0  0  0
   34.2470   26.3600   44.7030 C   0  0  0  0  0  0  0  0  0  0  0  0
   33.8700   27.3800   45.5670 C   0  0  0  0  0  0  0  0  0  0  0  0
   33.2230   25.6090   48.3100 H   0  0  0  0  0  0  0  0  0  0  0  0
   33.8600   23.7940   46.8740 H   0  0  0  0  0  0  0  0  0  0  0  0
   34.5430   24.1890   44.5080 H   0  0  0  0  0  0  0  0  0  0  0  0
   34.5560   26.4530   43.6610 H   0  0  0  0  0  0  0  0  0  0  0  0
   33.0110   29.4950   44.3520 C   0  0  0  0  0  3  0  0  0  0  0  0
   33.9690   28.6590   44.8730 C   0  0  0  0  0  0  0  0  0  0  0  0
   35.2850   29.1060   44.6730 C   0  0  0  0  0  0  0  0  0  0  0  0
   36.1450   28.5360   45.0390 H   0  0  0  0  0  0  0  0  0  0  0  0
   35.6310   30.2700   44.0200 C   0  0  0  0  0  0  0  0  0  0  0  0
   34.6290   31.0680   43.5160 C   0  0  0  0  0  0  0  0  0  0  0  0
   33.3390   30.6540   43.6970 C   0  0  0  0  0  3  0  0  0  0  0  0
   35.2220   32.1670   42.9090 O   0  0  0  0  0  0  0  0  0  0  0  0
   36.5280   32.2780   43.4440 C   0  0  0  0  0  3  0  0  0  0  0  0
   36.4380   32.8650   44.3790 H   0  0  0  0  0  0  0  0  0  0  0  0
   36.8270   30.9000   43.7100 O   0  0  0  0  0  0  0  0  0  0  0  0
   34.9780   28.4490   49.3940 C   0  0  0  0  0  3  0  0  0  0  0  0
   34.2440   28.8950   48.4030 C   0  0  0  0  0  3  0  0  0  0  0  0
   37.3860   30.1500   51.5410 C   0  0  0  0  0  0  0  0  0  0  0  0
   38.1060   30.9260   50.6120 C   0  0  0  0  0  0  0  0  0  0  0  0
   37.7310   30.8390   49.2490 C   0  0  0  0  0  0  0  0  0  0  0  0
   36.6970   30.0110   48.9160 N   0  0  0  0  0  0  0  0  0  0  0  0
   36.0510   29.2930   49.8740 C   0  0  0  0  0  0  0  0  0  0  0  0
   36.3860   29.3610   51.1590 N   0  0  0  0  0  0  0  0  0  0  0  0
   37.7090   30.2480   52.5840 H   0  0  0  0  0  0  0  0  0  0  0  0
   38.9300   31.5870   50.8730 H   0  0  0  0  0  0  0  0  0  0  0  0
   38.3970   31.6070   48.1970 C   0  0  0  0  0  0  0  0  0  0  0  0
   38.6030   31.1040   46.9320 C   0  0  0  0  0  0  0  0  0  0  0  0
   39.2500   32.0970   46.1900 C   0  0  0  0  0  0  0  0  0  0  0  0
   39.4070   33.1460   47.0320 N   0  0  0  0  0  0  0  0  0  0  0  0
   38.9020   32.8640   48.2310 N   0  0  0  0  0  0  0  0  0  0  0  0
   38.3260   30.1170   46.5380 H   0  0  0  0  0  0  0  0  0  0  0  0
   39.5410   31.9870   45.1550 H   0  0  0  0  0  0  0  0  0  0  0  0
   39.8780   34.0160   46.6760 H   0  0  0  0  0  0  0  0  0  0  0  0
  1 26  1  0  0  0  0
  1  3  1  0  0  0  0
  2  1  1  0  0  0  0
  4  5  1  0  0  0  0
  4  1  1  0  0  0  0
  5 10  1  0  0  0  0
  6 11  1  0  0  0  0
  6  5  2  0  0  0  0
  7  6  1  0  0  0  0
  8  7  2  0  0  0  0
  8  9  1  0  0  0  0
  9  4  2  0  0  0  0
 12  7  1  0  0  0  0
 13  8  1  0  0  0  0
 14 15  1  0  0  0  0
 15  9  1  0  0  0  0
 16 15  2  0  0  0  0
 16 17  1  0  0  0  0
 18 16  1  0  0  0  0
 19 20  1  0  0  0  0
 19 18  2  0  0  0  0
 20 14  2  0  0  0  0
 21 22  1  0  0  0  0
 21 19  1  0  0  0  0
 22 24  1  0  0  0  0
 22 23  1  0  0  0  0
 24 18  1  0  0  0  0
 25 31  1  0  0  0  0
 26 25  2  0  0  0  0
 27 33  1  0  0  0  0
 28 34  1  0  0  0  0
 28 27  2  0  0  0  0
 29 28  1  0  0  0  0
 30 29  2  0  0  0  0
 30 31  1  0  0  0  0
 31 32  2  0  0  0  0
 32 27  1  0  0  0  0
 35 39  2  0  0  0  0
 35 29  1  0  0  0  0
 36 35  1  0  0  0  0
 37 36  2  0  0  0  0
 37 38  1  0  0  0  0
 38 39  1  0  0  0  0
 40 36  1  0  0  0  0
 41 37  1  0  0  0  0
 42 38  1  0  0  0  0
M  END
>  <minimizedAffinity>
-6.61972427

>  <minimizedRMSD>
0.380208015

$$$$
