
 OpenBabel03262523073D

 43 48  0  0  0  0  0  0  0  0999 V2000
   36.2220   26.1950   31.7110 C   0  0  0  0  0  0  0  0  0  0  0  0
   35.3940   25.4200   30.9330 C   0  0  0  0  0  0  0  0  0  0  0  0
   35.4810   24.0610   31.0280 C   0  0  0  0  0  0  0  0  0  0  0  0
   36.3790   23.4880   31.8840 N   0  0  0  0  0  0  0  0  0  0  0  0
   37.1590   24.2690   32.6170 C   0  0  0  0  0  0  0  0  0  0  0  0
   37.0990   25.6160   32.5470 N   0  0  0  0  0  0  0  0  0  0  0  0
   34.6900   25.9100   30.2620 H   0  0  0  0  0  0  0  0  0  0  0  0
   34.8410   23.4260   30.4280 H   0  0  0  0  0  0  0  0  0  0  0  0
   38.1120   23.6600   33.5250 C   0  0  0  0  0  0  0  0  0  0  0  0
   39.0970   22.8230   33.0710 C   0  0  0  0  0  0  0  0  0  0  0  0
   40.0690   22.1710   33.8010 C   0  0  0  0  0  0  0  0  0  0  0  0
   40.0100   22.4190   35.1620 C   0  0  0  0  0  0  0  0  0  0  0  0
   40.9360   21.8110   35.9510 N   0  0  0  0  0  0  0  0  0  0  0  0
   40.9660   21.9850   37.2840 C   0  0  0  0  0  0  0  0  0  0  0  0
   40.0200   22.8120   37.8790 C   0  0  0  0  0  0  0  0  0  0  0  0
   39.0740   23.4330   37.0790 C   0  0  0  0  0  0  0  0  0  0  0  0
   39.0400   23.2560   35.6990 C   0  0  0  0  0  0  0  0  0  0  0  0
   38.1050   23.8680   34.8970 C   0  0  0  0  0  0  0  0  0  0  0  0
   39.1080   22.6530   31.9880 H   0  0  0  0  0  0  0  0  0  0  0  0
   40.7960   21.5330   33.3290 H   0  0  0  0  0  0  0  0  0  0  0  0
   41.7000   21.5050   37.9190 H   0  0  0  0  0  0  0  0  0  0  0  0
   40.0210   22.9710   38.9510 H   0  0  0  0  0  0  0  0  0  0  0  0
   38.3240   24.0840   37.5140 H   0  0  0  0  0  0  0  0  0  0  0  0
   37.3600   24.5130   35.3270 H   0  0  0  0  0  0  0  0  0  0  0  0
   36.5500   29.6770   30.5720 C   0  0  0  0  0  0  0  0  0  0  0  0
   36.0190   30.3950   31.6610 C   0  0  0  0  0  0  0  0  0  0  0  0
   35.5540   29.6660   32.7750 C   0  0  0  0  0  0  0  0  0  0  0  0
   35.6540   28.3190   32.7120 N   0  0  0  0  0  0  0  0  0  0  0  0
   36.1720   27.6500   31.6480 C   0  0  0  0  0  0  0  0  0  0  0  0
   36.6130   28.3370   30.5920 N   0  0  0  0  0  0  0  0  0  0  0  0
   36.9010   30.2580   29.7270 H   0  0  0  0  0  0  0  0  0  0  0  0
   35.9500   31.4500   31.6880 H   0  0  0  0  0  0  0  0  0  0  0  0
   35.8720   30.8750   34.8320 C   0  0  0  0  0  3  0  0  0  0  0  0
   34.9820   30.2750   33.9660 C   0  0  0  0  0  0  0  0  0  0  0  0
   33.6320   30.2650   34.2350 C   0  0  0  0  0  0  0  0  0  0  0  0
   32.9310   29.7960   33.5600 H   0  0  0  0  0  0  0  0  0  0  0  0
   33.1180   30.8560   35.3830 C   0  0  0  0  0  0  0  0  0  0  0  0
   34.0230   31.4550   36.2430 C   0  0  0  0  0  0  0  0  0  0  0  0
   35.3960   31.4820   36.0010 C   0  0  0  0  0  3  0  0  0  0  0  0
   33.3160   31.9880   37.3300 O   0  0  0  0  0  0  0  0  0  0  0  0
   31.9340   32.0100   36.9840 C   0  0  0  0  0  3  0  0  0  0  0  0
   31.6600   32.9800   36.5060 H   0  0  0  0  0  0  0  0  0  0  0  0
   31.8710   31.0360   35.9650 O   0  0  0  0  0  0  0  0  0  0  0  0
  1  6  1  0  0  0  0
  2  3  1  0  0  0  0
  2  1  2  0  0  0  0
  3  4  2  0  0  0  0
  4  5  1  0  0  0  0
  5  9  1  0  0  0  0
  6  5  2  0  0  0  0
  7  2  1  0  0  0  0
  8  3  1  0  0  0  0
  9 18  1  0  0  0  0
 10  9  2  0  0  0  0
 10 11  1  0  0  0  0
 11 12  2  0  0  0  0
 12 17  1  0  0  0  0
 12 13  1  0  0  0  0
 13 14  2  0  0  0  0
 14 15  1  0  0  0  0
 14 21  1  0  0  0  0
 15 22  1  0  0  0  0
 16 23  1  0  0  0  0
 16 15  2  0  0  0  0
 17 16  1  0  0  0  0
 18 24  1  0  0  0  0
 18 17  2  0  0  0  0
 19 10  1  0  0  0  0
 20 11  1  0  0  0  0
 25 30  2  0  0  0  0
 25 26  1  0  0  0  0
 26 32  1  0  0  0  0
 26 27  2  0  0  0  0
 27 34  1  0  0  0  0
 28 27  1  0  0  0  0
 29  1  1  0  0  0  0
 29 28  2  0  0  0  0
 30 29  1  0  0  0  0
 31 25  1  0  0  0  0
 33 39  1  0  0  0  0
 34 35  1  0  0  0  0
 34 33  2  0  0  0  0
 35 37  2  0  0  0  0
 36 35  1  0  0  0  0
 37 43  1  0  0  0  0
 37 38  1  0  0  0  0
 38 40  1  0  0  0  0
 39 38  2  0  0  0  0
 41 40  1  0  0  0  0
 42 41  1  0  0  0  0
 43 41  1  0  0  0  0
M  END
>  <minimizedAffinity>
-7.33708763

$$$$

 OpenBabel03262523073D

 43 48  0  0  0  0  0  0  0  0999 V2000
   36.5940   26.8880   31.5650 C   0  0  0  0  0  0  0  0  0  0  0  0
   37.0210   27.5460   30.4350 C   0  0  0  0  0  0  0  0  0  0  0  0
   36.7610   28.8810   30.3120 C   0  0  0  0  0  0  0  0  0  0  0  0
   36.0890   29.5440   31.2990 N   0  0  0  0  0  0  0  0  0  0  0  0
   35.6950   28.8740   32.3730 C   0  0  0  0  0  0  0  0  0  0  0  0
   35.9340   27.5550   32.5250 N   0  0  0  0  0  0  0  0  0  0  0  0
   37.5530   26.9860   29.6670 H   0  0  0  0  0  0  0  0  0  0  0  0
   37.0850   29.4240   29.4330 H   0  0  0  0  0  0  0  0  0  0  0  0
   34.9810   29.5800   33.4200 C   0  0  0  0  0  0  0  0  0  0  0  0
   33.6250   29.4520   33.5720 C   0  0  0  0  0  0  0  0  0  0  0  0
   32.8100   30.0510   34.5090 C   0  0  0  0  0  0  0  0  0  0  0  0
   33.4830   30.8800   35.3920 C   0  0  0  0  0  0  0  0  0  0  0  0
   32.7470   31.5080   36.3470 N   0  0  0  0  0  0  0  0  0  0  0  0
   33.3030   32.3330   37.2520 C   0  0  0  0  0  0  0  0  0  0  0  0
   34.6750   32.5540   37.2120 C   0  0  0  0  0  0  0  0  0  0  0  0
   35.4290   31.9150   36.2400 C   0  0  0  0  0  0  0  0  0  0  0  0
   34.8570   31.0600   35.3020 C   0  0  0  0  0  0  0  0  0  0  0  0
   35.5980   30.4220   34.3340 C   0  0  0  0  0  0  0  0  0  0  0  0
   33.1320   28.7880   32.8530 H   0  0  0  0  0  0  0  0  0  0  0  0
   31.7490   29.8730   34.5290 H   0  0  0  0  0  0  0  0  0  0  0  0
   32.7230   32.8370   38.0150 H   0  0  0  0  0  0  0  0  0  0  0  0
   35.1500   33.2120   37.9290 H   0  0  0  0  0  0  0  0  0  0  0  0
   36.5000   32.0660   36.1840 H   0  0  0  0  0  0  0  0  0  0  0  0
   36.6600   30.5730   34.2770 H   0  0  0  0  0  0  0  0  0  0  0  0
   36.6770   23.2430   31.0740 C   0  0  0  0  0  0  0  0  0  0  0  0
   37.3800   22.8070   32.2130 C   0  0  0  0  0  0  0  0  0  0  0  0
   37.8170   23.7790   33.1370 C   0  0  0  0  0  0  0  0  0  0  0  0
   37.5240   25.0690   32.8550 N   0  0  0  0  0  0  0  0  0  0  0  0
   36.8430   25.4640   31.7470 C   0  0  0  0  0  0  0  0  0  0  0  0
   36.4280   24.5470   30.8700 N   0  0  0  0  0  0  0  0  0  0  0  0
   36.3510   22.4790   30.3770 H   0  0  0  0  0  0  0  0  0  0  0  0
   37.5970   21.7920   32.4130 H   0  0  0  0  0  0  0  0  0  0  0  0
   38.1000   24.0790   35.5090 C   0  0  0  0  0  3  0  0  0  0  0  0
   38.5520   23.4740   34.3540 C   0  0  0  0  0  0  0  0  0  0  0  0
   39.6400   22.6320   34.3780 C   0  0  0  0  0  0  0  0  0  0  0  0
   39.9980   22.1560   33.4770 H   0  0  0  0  0  0  0  0  0  0  0  0
   40.3210   22.3610   35.5590 C   0  0  0  0  0  0  0  0  0  0  0  0
   39.8550   22.9750   36.7090 C   0  0  0  0  0  0  0  0  0  0  0  0
   38.7560   23.8340   36.7200 C   0  0  0  0  0  3  0  0  0  0  0  0
   40.6660   22.5800   37.7830 O   0  0  0  0  0  0  0  0  0  0  0  0
   41.4360   21.4580   37.3590 C   0  0  0  0  0  3  0  0  0  0  0  0
   40.9060   20.5030   37.5850 H   0  0  0  0  0  0  0  0  0  0  0  0
   41.4110   21.6000   35.9550 O   0  0  0  0  0  0  0  0  0  0  0  0
  1 29  1  0  0  0  0
  1  6  1  0  0  0  0
  2  1  2  0  0  0  0
  3  2  1  0  0  0  0
  3  4  2  0  0  0  0
  4  5  1  0  0  0  0
  5  6  2  0  0  0  0
  5  9  1  0  0  0  0
  7  2  1  0  0  0  0
  8  3  1  0  0  0  0
  9 10  2  0  0  0  0
  9 18  1  0  0  0  0
 10 11  1  0  0  0  0
 11 20  1  0  0  0  0
 11 12  2  0  0  0  0
 12 13  1  0  0  0  0
 13 14  2  0  0  0  0
 14 21  1  0  0  0  0
 15 14  1  0  0  0  0
 15 22  1  0  0  0  0
 16 15  2  0  0  0  0
 17 12  1  0  0  0  0
 17 16  1  0  0  0  0
 18 17  2  0  0  0  0
 19 10  1  0  0  0  0
 23 16  1  0  0  0  0
 24 18  1  0  0  0  0
 25 26  1  0  0  0  0
 26 32  1  0  0  0  0
 26 27  2  0  0  0  0
 27 34  1  0  0  0  0
 28 27  1  0  0  0  0
 29 28  2  0  0  0  0
 30 25  2  0  0  0  0
 30 29  1  0  0  0  0
 31 25  1  0  0  0  0
 33 39  1  0  0  0  0
 34 35  1  0  0  0  0
 34 33  2  0  0  0  0
 35 37  2  0  0  0  0
 36 35  1  0  0  0  0
 37 43  1  0  0  0  0
 37 38  1  0  0  0  0
 38 39  2  0  0  0  0
 38 40  1  0  0  0  0
 41 42  1  0  0  0  0
 41 40  1  0  0  0  0
 43 41  1  0  0  0  0
M  END
>  <minimizedAffinity>
-7.32377481

$$$$

 OpenBabel03262523073D

 43 48  0  0  0  0  0  0  0  0999 V2000
   37.6210   27.7290   31.1000 C   0  0  0  0  0  0  0  0  0  0  0  0
   37.6210   28.4280   29.9160 C   0  0  0  0  0  0  0  0  0  0  0  0
   36.8490   29.5490   29.8110 C   0  0  0  0  0  0  0  0  0  0  0  0
   36.0920   29.9640   30.8700 N   0  0  0  0  0  0  0  0  0  0  0  0
   36.1190   29.2630   31.9950 C   0  0  0  0  0  0  0  0  0  0  0  0
   36.8700   28.1510   32.1310 N   0  0  0  0  0  0  0  0  0  0  0  0
   38.2360   28.0680   29.0920 H   0  0  0  0  0  0  0  0  0  0  0  0
   36.8300   30.1180   28.8900 H   0  0  0  0  0  0  0  0  0  0  0  0
   35.3140   29.7050   33.1180 C   0  0  0  0  0  0  0  0  0  0  0  0
   34.0160   29.2940   33.2730 C   0  0  0  0  0  0  0  0  0  0  0  0
   33.1300   29.6230   34.2760 C   0  0  0  0  0  0  0  0  0  0  0  0
   33.6540   30.4780   35.2320 C   0  0  0  0  0  0  0  0  0  0  0  0
   32.8400   30.8480   36.2560 N   0  0  0  0  0  0  0  0  0  0  0  0
   33.2510   31.6740   37.2340 C   0  0  0  0  0  0  0  0  0  0  0  0
   34.5500   32.1670   37.2010 C   0  0  0  0  0  0  0  0  0  0  0  0
   35.3830   31.7920   36.1590 C   0  0  0  0  0  0  0  0  0  0  0  0
   34.9610   30.9370   35.1450 C   0  0  0  0  0  0  0  0  0  0  0  0
   35.7820   30.5590   34.1060 C   0  0  0  0  0  0  0  0  0  0  0  0
   33.6400   28.6190   32.4950 H   0  0  0  0  0  0  0  0  0  0  0  0
   32.1260   29.2350   34.2910 H   0  0  0  0  0  0  0  0  0  0  0  0
   32.6080   31.9740   38.0520 H   0  0  0  0  0  0  0  0  0  0  0  0
   34.9080   32.8340   37.9770 H   0  0  0  0  0  0  0  0  0  0  0  0
   36.4010   32.1590   36.1060 H   0  0  0  0  0  0  0  0  0  0  0  0
   36.7910   30.9240   34.0530 H   0  0  0  0  0  0  0  0  0  0  0  0
   39.7940   24.8360   30.4420 C   0  0  0  0  0  0  0  0  0  0  0  0
   39.9080   24.2560   31.7200 C   0  0  0  0  0  0  0  0  0  0  0  0
   39.2320   24.8720   32.7930 C   0  0  0  0  0  0  0  0  0  0  0  0
   38.5190   25.9860   32.5110 N   0  0  0  0  0  0  0  0  0  0  0  0
   38.4240   26.5260   31.2670 C   0  0  0  0  0  0  0  0  0  0  0  0
   39.0630   25.9450   30.2480 N   0  0  0  0  0  0  0  0  0  0  0  0
   40.3220   24.3460   29.6320 H   0  0  0  0  0  0  0  0  0  0  0  0
   40.4730   23.3840   31.9180 H   0  0  0  0  0  0  0  0  0  0  0  0
   40.3910   23.6870   34.5390 C   0  0  0  0  0  3  0  0  0  0  0  0
   39.2620   24.3840   34.1630 C   0  0  0  0  0  0  0  0  0  0  0  0
   38.2330   24.5920   35.0520 C   0  0  0  0  0  0  0  0  0  0  0  0
   37.3460   25.1370   34.7630 H   0  0  0  0  0  0  0  0  0  0  0  0
   38.2920   24.1120   36.3550 C   0  0  0  0  0  0  0  0  0  0  0  0
   39.4320   23.4150   36.7180 C   0  0  0  0  0  0  0  0  0  0  0  0
   40.4920   23.1850   35.8420 C   0  0  0  0  0  3  0  0  0  0  0  0
   39.3020   23.0170   38.0560 O   0  0  0  0  0  0  0  0  0  0  0  0
   38.2230   23.7520   38.6270 C   0  0  0  0  0  3  0  0  0  0  0  0
   38.5870   24.7000   39.0870 H   0  0  0  0  0  0  0  0  0  0  0  0
   37.4850   24.1260   37.4840 O   0  0  0  0  0  0  0  0  0  0  0  0
  1 29  1  0  0  0  0
  1  6  1  0  0  0  0
  2  1  2  0  0  0  0
  3  2  1  0  0  0  0
  3  4  2  0  0  0  0
  4  5  1  0  0  0  0
  5  6  2  0  0  0  0
  5  9  1  0  0  0  0
  7  2  1  0  0  0  0
  8  3  1  0  0  0  0
  9 10  2  0  0  0  0
  9 18  1  0  0  0  0
 10 11  1  0  0  0  0
 11 20  1  0  0  0  0
 11 12  2  0  0  0  0
 12 13  1  0  0  0  0
 13 14  2  0  0  0  0
 14 21  1  0  0  0  0
 15 14  1  0  0  0  0
 15 22  1  0  0  0  0
 16 15  2  0  0  0  0
 17 12  1  0  0  0  0
 17 16  1  0  0  0  0
 18 17  2  0  0  0  0
 19 10  1  0  0  0  0
 23 16  1  0  0  0  0
 24 18  1  0  0  0  0
 25 26  1  0  0  0  0
 26 32  1  0  0  0  0
 26 27  2  0  0  0  0
 27 34  1  0  0  0  0
 28 27  1  0  0  0  0
 29 28  2  0  0  0  0
 30 25  2  0  0  0  0
 30 29  1  0  0  0  0
 31 25  1  0  0  0  0
 33 39  1  0  0  0  0
 34 33  2  0  0  0  0
 34 35  1  0  0  0  0
 35 37  2  0  0  0  0
 36 35  1  0  0  0  0
 37 38  1  0  0  0  0
 37 43  1  0  0  0  0
 38 40  1  0  0  0  0
 39 38  2  0  0  0  0
 40 41  1  0  0  0  0
 41 42  1  0  0  0  0
 43 41  1  0  0  0  0
M  END
>  <minimizedAffinity>
-7.15097952

$$$$

 OpenBabel03262523073D

 43 48  0  0  0  0  0  0  0  0999 V2000
   37.7950   26.2010   33.8110 C   0  0  0  0  0  0  0  0  0  0  0  0
   38.6270   26.2880   34.9040 C   0  0  0  0  0  0  0  0  0  0  0  0
   39.1820   25.1450   35.4030 C   0  0  0  0  0  0  0  0  0  0  0  0
   38.9120   23.9390   34.8200 N   0  0  0  0  0  0  0  0  0  0  0  0
   38.1060   23.8970   33.7690 C   0  0  0  0  0  0  0  0  0  0  0  0
   37.5400   25.0080   33.2520 N   0  0  0  0  0  0  0  0  0  0  0  0
   38.8200   27.2660   35.3430 H   0  0  0  0  0  0  0  0  0  0  0  0
   39.8400   25.1830   36.2610 H   0  0  0  0  0  0  0  0  0  0  0  0
   37.8200   22.6150   33.1510 C   0  0  0  0  0  0  0  0  0  0  0  0
   38.5610   22.1500   32.0970 C   0  0  0  0  0  0  0  0  0  0  0  0
   38.4150   20.9640   31.4080 C   0  0  0  0  0  0  0  0  0  0  0  0
   37.3790   20.1690   31.8700 C   0  0  0  0  0  0  0  0  0  0  0  0
   37.1720   18.9810   31.2410 N   0  0  0  0  0  0  0  0  0  0  0  0
   36.1930   18.1370   31.6110 C   0  0  0  0  0  0  0  0  0  0  0  0
   35.3640   18.4860   32.6700 C   0  0  0  0  0  0  0  0  0  0  0  0
   35.5720   19.6960   33.3140 C   0  0  0  0  0  0  0  0  0  0  0  0
   36.5840   20.5720   32.9340 C   0  0  0  0  0  0  0  0  0  0  0  0
   36.7980   21.7750   33.5680 C   0  0  0  0  0  0  0  0  0  0  0  0
   39.3700   22.8090   31.7630 H   0  0  0  0  0  0  0  0  0  0  0  0
   39.0640   20.7050   30.5890 H   0  0  0  0  0  0  0  0  0  0  0  0
   36.0220   17.1900   31.1150 H   0  0  0  0  0  0  0  0  0  0  0  0
   34.5680   17.8240   32.9910 H   0  0  0  0  0  0  0  0  0  0  0  0
   34.9420   19.9950   34.1440 H   0  0  0  0  0  0  0  0  0  0  0  0
   36.1730   22.0730   34.3900 H   0  0  0  0  0  0  0  0  0  0  0  0
   36.6770   28.7920   31.4520 C   0  0  0  0  0  0  0  0  0  0  0  0
   35.9550   29.6630   32.2910 C   0  0  0  0  0  0  0  0  0  0  0  0
   35.8640   29.3430   33.6610 C   0  0  0  0  0  0  0  0  0  0  0  0
   36.4830   28.2130   34.0700 N   0  0  0  0  0  0  0  0  0  0  0  0
   37.1750   27.3890   33.2390 C   0  0  0  0  0  0  0  0  0  0  0  0
   37.2640   27.6880   31.9410 N   0  0  0  0  0  0  0  0  0  0  0  0
   36.7340   29.0570   30.4030 H   0  0  0  0  0  0  0  0  0  0  0  0
   35.4780   30.5430   31.9480 H   0  0  0  0  0  0  0  0  0  0  0  0
   35.9290   30.9420   35.4600 C   0  0  0  0  0  3  0  0  0  0  0  0
   35.1520   30.1500   34.6400 C   0  0  0  0  0  0  0  0  0  0  0  0
   33.7810   30.1400   34.7610 C   0  0  0  0  0  0  0  0  0  0  0  0
   33.1680   29.5210   34.1220 H   0  0  0  0  0  0  0  0  0  0  0  0
   33.1310   30.9230   35.7080 C   0  0  0  0  0  0  0  0  0  0  0  0
   33.9240   31.7130   36.5230 C   0  0  0  0  0  0  0  0  0  0  0  0
   35.3150   31.7460   36.4270 C   0  0  0  0  0  3  0  0  0  0  0  0
   33.0910   32.4200   37.4020 O   0  0  0  0  0  0  0  0  0  0  0  0
   31.7560   32.3200   36.9140 C   0  0  0  0  0  3  0  0  0  0  0  0
   31.5200   33.1660   36.2260 H   0  0  0  0  0  0  0  0  0  0  0  0
   31.8250   31.1640   36.1070 O   0  0  0  0  0  0  0  0  0  0  0  0
  1  2  1  0  0  0  0
  2  7  1  0  0  0  0
  2  3  2  0  0  0  0
  3  8  1  0  0  0  0
  4  3  1  0  0  0  0
  5  4  2  0  0  0  0
  6  5  1  0  0  0  0
  6  1  2  0  0  0  0
  9 18  1  0  0  0  0
  9  5  1  0  0  0  0
 10  9  2  0  0  0  0
 11 12  2  0  0  0  0
 11 10  1  0  0  0  0
 12 17  1  0  0  0  0
 13 14  2  0  0  0  0
 13 12  1  0  0  0  0
 14 15  1  0  0  0  0
 15 22  1  0  0  0  0
 15 16  2  0  0  0  0
 16 23  1  0  0  0  0
 17 16  1  0  0  0  0
 17 18  2  0  0  0  0
 18 24  1  0  0  0  0
 19 10  1  0  0  0  0
 20 11  1  0  0  0  0
 21 14  1  0  0  0  0
 25 30  2  0  0  0  0
 25 26  1  0  0  0  0
 26 27  2  0  0  0  0
 27 28  1  0  0  0  0
 27 34  1  0  0  0  0
 29  1  1  0  0  0  0
 29 28  2  0  0  0  0
 30 29  1  0  0  0  0
 31 25  1  0  0  0  0
 32 26  1  0  0  0  0
 33 39  1  0  0  0  0
 34 35  1  0  0  0  0
 34 33  2  0  0  0  0
 35 37  2  0  0  0  0
 36 35  1  0  0  0  0
 37 43  1  0  0  0  0
 37 38  1  0  0  0  0
 38 40  1  0  0  0  0
 39 38  2  0  0  0  0
 41 40  1  0  0  0  0
 42 41  1  0  0  0  0
 43 41  1  0  0  0  0
M  END
>  <minimizedAffinity>
-7.10384178

$$$$

 OpenBabel03262523073D

 43 48  0  0  0  0  0  0  0  0999 V2000
   37.1720   26.8990   33.0570 C   0  0  0  0  0  0  0  0  0  0  0  0
   37.5620   27.3530   31.8190 C   0  0  0  0  0  0  0  0  0  0  0  0
   37.1590   28.5920   31.4130 C   0  0  0  0  0  0  0  0  0  0  0  0
   36.3810   29.3630   32.2300 N   0  0  0  0  0  0  0  0  0  0  0  0
   36.0250   28.8900   33.4160 C   0  0  0  0  0  0  0  0  0  0  0  0
   36.4060   27.6690   33.8470 N   0  0  0  0  0  0  0  0  0  0  0  0
   38.1820   26.7110   31.1940 H   0  0  0  0  0  0  0  0  0  0  0  0
   37.4510   28.9750   30.4440 H   0  0  0  0  0  0  0  0  0  0  0  0
   35.1990   29.7100   34.2820 C   0  0  0  0  0  0  0  0  0  0  0  0
   33.8630   29.4530   34.4470 C   0  0  0  0  0  0  0  0  0  0  0  0
   32.9520   30.1340   35.2270 C   0  0  0  0  0  0  0  0  0  0  0  0
   33.4930   31.2060   35.9170 C   0  0  0  0  0  0  0  0  0  0  0  0
   32.6570   31.9290   36.7090 N   0  0  0  0  0  0  0  0  0  0  0  0
   33.0810   32.9880   37.4200 C   0  0  0  0  0  0  0  0  0  0  0  0
   34.4180   33.3610   37.3450 C   0  0  0  0  0  0  0  0  0  0  0  0
   35.2740   32.6270   36.5380 C   0  0  0  0  0  0  0  0  0  0  0  0
   34.8380   31.5300   35.8010 C   0  0  0  0  0  0  0  0  0  0  0  0
   35.6810   30.7960   34.9980 C   0  0  0  0  0  0  0  0  0  0  0  0
   33.4750   28.5960   33.8840 H   0  0  0  0  0  0  0  0  0  0  0  0
   31.9190   29.8360   35.2770 H   0  0  0  0  0  0  0  0  0  0  0  0
   32.4210   33.5680   38.0520 H   0  0  0  0  0  0  0  0  0  0  0  0
   34.7880   34.2100   37.9070 H   0  0  0  0  0  0  0  0  0  0  0  0
   36.3220   32.8930   36.4590 H   0  0  0  0  0  0  0  0  0  0  0  0
   36.7200   31.0590   34.9190 H   0  0  0  0  0  0  0  0  0  0  0  0
   38.5370   24.1780   35.1230 C   0  0  0  0  0  0  0  0  0  0  0  0
   38.2740   23.0450   34.3300 C   0  0  0  0  0  0  0  0  0  0  0  0
   37.6270   23.2360   33.0910 C   0  0  0  0  0  0  0  0  0  0  0  0
   37.3060   24.5060   32.7550 N   0  0  0  0  0  0  0  0  0  0  0  0
   37.5720   25.5840   33.5400 C   0  0  0  0  0  0  0  0  0  0  0  0
   38.1840   25.4070   34.7130 N   0  0  0  0  0  0  0  0  0  0  0  0
   39.0340   24.0090   36.0710 H   0  0  0  0  0  0  0  0  0  0  0  0
   38.5340   22.0600   34.6130 H   0  0  0  0  0  0  0  0  0  0  0  0
   35.9800   21.7370   32.1760 C   0  0  0  0  0  3  0  0  0  0  0  0
   37.2940   22.1590   32.1710 C   0  0  0  0  0  0  0  0  0  0  0  0
   38.2190   21.5780   31.3350 C   0  0  0  0  0  0  0  0  0  0  0  0
   39.2490   21.9040   31.3280 H   0  0  0  0  0  0  0  0  0  0  0  0
   37.8680   20.5500   30.4680 C   0  0  0  0  0  0  0  0  0  0  0  0
   36.5460   20.1380   30.4830 C   0  0  0  0  0  0  0  0  0  0  0  0
   35.5830   20.7050   31.3180 C   0  0  0  0  0  3  0  0  0  0  0  0
   36.3920   19.1030   29.5490 O   0  0  0  0  0  0  0  0  0  0  0  0
   37.5470   19.0950   28.7140 C   0  0  0  0  0  3  0  0  0  0  0  0
   37.3950   19.7420   27.8180 H   0  0  0  0  0  0  0  0  0  0  0  0
   38.4970   19.7560   29.5210 O   0  0  0  0  0  0  0  0  0  0  0  0
  1 29  1  0  0  0  0
  1  6  1  0  0  0  0
  2  1  2  0  0  0  0
  3  2  1  0  0  0  0
  3  4  2  0  0  0  0
  4  5  1  0  0  0  0
  5  6  2  0  0  0  0
  5  9  1  0  0  0  0
  7  2  1  0  0  0  0
  8  3  1  0  0  0  0
  9 10  2  0  0  0  0
  9 18  1  0  0  0  0
 10 11  1  0  0  0  0
 11 20  1  0  0  0  0
 11 12  2  0  0  0  0
 12 13  1  0  0  0  0
 13 14  2  0  0  0  0
 14 21  1  0  0  0  0
 15 14  1  0  0  0  0
 15 22  1  0  0  0  0
 16 15  2  0  0  0  0
 17 12  1  0  0  0  0
 17 16  1  0  0  0  0
 18 17  2  0  0  0  0
 19 10  1  0  0  0  0
 23 16  1  0  0  0  0
 24 18  1  0  0  0  0
 25 31  1  0  0  0  0
 26 32  1  0  0  0  0
 26 25  2  0  0  0  0
 27 26  1  0  0  0  0
 28 27  2  0  0  0  0
 28 29  1  0  0  0  0
 29 30  2  0  0  0  0
 30 25  1  0  0  0  0
 34 33  1  0  0  0  0
 34 27  1  0  0  0  0
 35 34  2  0  0  0  0
 36 35  1  0  0  0  0
 37 38  2  0  0  0  0
 37 35  1  0  0  0  0
 38 39  1  0  0  0  0
 39 33  2  0  0  0  0
 40 38  1  0  0  0  0
 41 43  1  0  0  0  0
 41 40  1  0  0  0  0
 42 41  1  0  0  0  0
 43 37  1  0  0  0  0
M  END
>  <minimizedAffinity>
-7.05754614

$$$$

 OpenBabel03262523073D

 43 48  0  0  0  0  0  0  0  0999 V2000
   37.3400   26.1860   33.3660 C   0  0  0  0  0  0  0  0  0  0  0  0
   37.9950   26.0520   34.5680 C   0  0  0  0  0  0  0  0  0  0  0  0
   38.4020   24.8100   34.9620 C   0  0  0  0  0  0  0  0  0  0  0  0
   38.1590   23.7230   34.1700 N   0  0  0  0  0  0  0  0  0  0  0  0
   37.5230   23.8940   33.0190 C   0  0  0  0  0  0  0  0  0  0  0  0
   37.1080   25.1080   32.6010 N   0  0  0  0  0  0  0  0  0  0  0  0
   38.1730   26.9390   35.1740 H   0  0  0  0  0  0  0  0  0  0  0  0
   38.9210   24.6740   35.9030 H   0  0  0  0  0  0  0  0  0  0  0  0
   37.2650   22.7400   32.1790 C   0  0  0  0  0  0  0  0  0  0  0  0
   36.0400   22.1260   32.1650 C   0  0  0  0  0  0  0  0  0  0  0  0
   35.6420   21.0300   31.4300 C   0  0  0  0  0  0  0  0  0  0  0  0
   36.6330   20.5120   30.6120 C   0  0  0  0  0  0  0  0  0  0  0  0
   36.3160   19.4280   29.8540 N   0  0  0  0  0  0  0  0  0  0  0  0
   37.2050   18.8490   29.0270 C   0  0  0  0  0  0  0  0  0  0  0  0
   38.4900   19.3710   28.9430 C   0  0  0  0  0  0  0  0  0  0  0  0
   38.8160   20.4760   29.7150 C   0  0  0  0  0  0  0  0  0  0  0  0
   37.8990   21.0780   30.5710 C   0  0  0  0  0  0  0  0  0  0  0  0
   38.2150   22.1750   31.3400 C   0  0  0  0  0  0  0  0  0  0  0  0
   35.2850   22.5670   32.8270 H   0  0  0  0  0  0  0  0  0  0  0  0
   34.6440   20.6340   31.5040 H   0  0  0  0  0  0  0  0  0  0  0  0
   36.9610   17.9860   28.4210 H   0  0  0  0  0  0  0  0  0  0  0  0
   39.2260   18.9260   28.2850 H   0  0  0  0  0  0  0  0  0  0  0  0
   39.8100   20.9070   29.6700 H   0  0  0  0  0  0  0  0  0  0  0  0
   39.2000   22.6020   31.2970 H   0  0  0  0  0  0  0  0  0  0  0  0
   36.6360   29.1120   31.2510 C   0  0  0  0  0  0  0  0  0  0  0  0
   35.9670   29.9690   32.1460 C   0  0  0  0  0  0  0  0  0  0  0  0
   35.7680   29.5250   33.4690 C   0  0  0  0  0  0  0  0  0  0  0  0
   36.2390   28.2960   33.7820 N   0  0  0  0  0  0  0  0  0  0  0  0
   36.8820   27.4880   32.8980 C   0  0  0  0  0  0  0  0  0  0  0  0
   37.0730   27.9050   31.6440 N   0  0  0  0  0  0  0  0  0  0  0  0
   36.7780   29.4740   30.2390 H   0  0  0  0  0  0  0  0  0  0  0  0
   35.6070   30.9270   31.8790 H   0  0  0  0  0  0  0  0  0  0  0  0
   35.9080   30.9640   35.3940 C   0  0  0  0  0  3  0  0  0  0  0  0
   35.0940   30.3030   34.4970 C   0  0  0  0  0  0  0  0  0  0  0  0
   33.7240   30.3900   34.5910 C   0  0  0  0  0  0  0  0  0  0  0  0
   33.0820   29.8740   33.8920 H   0  0  0  0  0  0  0  0  0  0  0  0
   33.1120   31.1420   35.5860 C   0  0  0  0  0  0  0  0  0  0  0  0
   33.9410   31.8000   36.4780 C   0  0  0  0  0  0  0  0  0  0  0  0
   35.3330   31.7330   36.4120 C   0  0  0  0  0  3  0  0  0  0  0  0
   33.1420   32.4970   37.3960 O   0  0  0  0  0  0  0  0  0  0  0  0
   31.8160   32.5410   36.8760 C   0  0  0  0  0  3  0  0  0  0  0  0
   31.6620   33.4550   36.2550 H   0  0  0  0  0  0  0  0  0  0  0  0
   31.8170   31.4520   35.9780 O   0  0  0  0  0  0  0  0  0  0  0  0
  1  2  1  0  0  0  0
  2  3  2  0  0  0  0
  2  7  1  0  0  0  0
  3  8  1  0  0  0  0
  4  3  1  0  0  0  0
  5  4  2  0  0  0  0
  6  5  1  0  0  0  0
  6  1  2  0  0  0  0
  9  5  1  0  0  0  0
 10  9  1  0  0  0  0
 10 19  1  0  0  0  0
 11 20  1  0  0  0  0
 11 10  2  0  0  0  0
 12 11  1  0  0  0  0
 13 12  2  0  0  0  0
 14 13  1  0  0  0  0
 15 14  2  0  0  0  0
 15 16  1  0  0  0  0
 16 17  2  0  0  0  0
 17 12  1  0  0  0  0
 17 18  1  0  0  0  0
 18  9  2  0  0  0  0
 21 14  1  0  0  0  0
 22 15  1  0  0  0  0
 23 16  1  0  0  0  0
 24 18  1  0  0  0  0
 25 30  2  0  0  0  0
 25 26  1  0  0  0  0
 26 27  2  0  0  0  0
 27 28  1  0  0  0  0
 27 34  1  0  0  0  0
 29  1  1  0  0  0  0
 29 28  2  0  0  0  0
 30 29  1  0  0  0  0
 31 25  1  0  0  0  0
 32 26  1  0  0  0  0
 33 39  1  0  0  0  0
 34 35  1  0  0  0  0
 34 33  2  0  0  0  0
 35 37  2  0  0  0  0
 36 35  1  0  0  0  0
 37 43  1  0  0  0  0
 37 38  1  0  0  0  0
 38 40  1  0  0  0  0
 39 38  2  0  0  0  0
 41 40  1  0  0  0  0
 42 41  1  0  0  0  0
 43 41  1  0  0  0  0
M  END
>  <minimizedAffinity>
-6.97134829

$$$$

 OpenBabel03262523073D

 43 48  0  0  0  0  0  0  0  0999 V2000
   37.3140   27.1770   32.5630 C   0  0  0  0  0  0  0  0  0  0  0  0
   37.3800   27.5760   31.2490 C   0  0  0  0  0  0  0  0  0  0  0  0
   36.7020   28.6980   30.8660 C   0  0  0  0  0  0  0  0  0  0  0  0
   35.9740   29.4060   31.7800 N   0  0  0  0  0  0  0  0  0  0  0  0
   35.9360   28.9890   33.0370 C   0  0  0  0  0  0  0  0  0  0  0  0
   36.5940   27.8840   33.4480 N   0  0  0  0  0  0  0  0  0  0  0  0
   37.9690   26.9880   30.5470 H   0  0  0  0  0  0  0  0  0  0  0  0
   36.7350   29.0360   29.8380 H   0  0  0  0  0  0  0  0  0  0  0  0
   35.1620   29.7420   34.0060 C   0  0  0  0  0  0  0  0  0  0  0  0
   33.8560   29.4280   34.2760 C   0  0  0  0  0  0  0  0  0  0  0  0
   32.9950   30.0430   35.1610 C   0  0  0  0  0  0  0  0  0  0  0  0
   33.5580   31.1070   35.8450 C   0  0  0  0  0  0  0  0  0  0  0  0
   32.7710   31.7660   36.7380 N   0  0  0  0  0  0  0  0  0  0  0  0
   33.2210   32.8110   37.4540 C   0  0  0  0  0  0  0  0  0  0  0  0
   34.5320   33.2370   37.2780 C   0  0  0  0  0  0  0  0  0  0  0  0
   35.3380   32.5680   36.3690 C   0  0  0  0  0  0  0  0  0  0  0  0
   34.8760   31.4850   35.6270 C   0  0  0  0  0  0  0  0  0  0  0  0
   35.6690   30.8160   34.7230 C   0  0  0  0  0  0  0  0  0  0  0  0
   33.4490   28.5810   33.7120 H   0  0  0  0  0  0  0  0  0  0  0  0
   31.9810   29.7050   35.2880 H   0  0  0  0  0  0  0  0  0  0  0  0
   32.6000   33.3410   38.1660 H   0  0  0  0  0  0  0  0  0  0  0  0
   34.9220   34.0760   37.8420 H   0  0  0  0  0  0  0  0  0  0  0  0
   36.3650   32.8760   36.2110 H   0  0  0  0  0  0  0  0  0  0  0  0
   36.6870   31.1210   34.5650 H   0  0  0  0  0  0  0  0  0  0  0  0
   39.7250   24.9320   34.2000 C   0  0  0  0  0  0  0  0  0  0  0  0
   39.2460   23.6620   33.8290 C   0  0  0  0  0  0  0  0  0  0  0  0
   38.0940   23.5970   33.0170 C   0  0  0  0  0  0  0  0  0  0  0  0
   37.5330   24.7720   32.6530 N   0  0  0  0  0  0  0  0  0  0  0  0
   38.0170   25.9870   33.0260 C   0  0  0  0  0  0  0  0  0  0  0  0
   39.1060   26.0520   33.7940 N   0  0  0  0  0  0  0  0  0  0  0  0
   40.6110   24.9580   34.8240 H   0  0  0  0  0  0  0  0  0  0  0  0
   39.7010   22.7550   34.1260 H   0  0  0  0  0  0  0  0  0  0  0  0
   37.6810   22.0370   31.2300 C   0  0  0  0  0  3  0  0  0  0  0  0
   37.4890   22.3560   32.5580 C   0  0  0  0  0  0  0  0  0  0  0  0
   36.7610   21.5310   33.3840 C   0  0  0  0  0  0  0  0  0  0  0  0
   36.6070   21.7760   34.4250 H   0  0  0  0  0  0  0  0  0  0  0  0
   36.1960   20.3510   32.9150 C   0  0  0  0  0  0  0  0  0  0  0  0
   36.3980   20.0440   31.5800 C   0  0  0  0  0  0  0  0  0  0  0  0
   37.1290   20.8590   30.7150 C   0  0  0  0  0  3  0  0  0  0  0  0
   35.7560   18.8290   31.3010 O   0  0  0  0  0  0  0  0  0  0  0  0
   35.4320   18.2120   32.5440 C   0  0  0  0  0  3  0  0  0  0  0  0
   36.2570   17.5410   32.8820 H   0  0  0  0  0  0  0  0  0  0  0  0
   35.4320   19.3130   33.4270 O   0  0  0  0  0  0  0  0  0  0  0  0
  1 29  1  0  0  0  0
  1  6  1  0  0  0  0
  2  1  2  0  0  0  0
  3  2  1  0  0  0  0
  3  4  2  0  0  0  0
  4  5  1  0  0  0  0
  5  6  2  0  0  0  0
  5  9  1  0  0  0  0
  7  2  1  0  0  0  0
  8  3  1  0  0  0  0
  9 10  2  0  0  0  0
  9 18  1  0  0  0  0
 10 11  1  0  0  0  0
 11 20  1  0  0  0  0
 11 12  2  0  0  0  0
 12 13  1  0  0  0  0
 13 14  2  0  0  0  0
 14 21  1  0  0  0  0
 15 14  1  0  0  0  0
 15 22  1  0  0  0  0
 16 15  2  0  0  0  0
 17 12  1  0  0  0  0
 17 16  1  0  0  0  0
 18 17  2  0  0  0  0
 19 10  1  0  0  0  0
 23 16  1  0  0  0  0
 24 18  1  0  0  0  0
 25 31  1  0  0  0  0
 26 32  1  0  0  0  0
 26 25  1  0  0  0  0
 27 26  2  0  0  0  0
 28 27  1  0  0  0  0
 28 29  2  0  0  0  0
 29 30  1  0  0  0  0
 30 25  2  0  0  0  0
 33 34  1  0  0  0  0
 34 27  1  0  0  0  0
 34 35  2  0  0  0  0
 35 36  1  0  0  0  0
 37 35  1  0  0  0  0
 37 43  1  0  0  0  0
 38 37  2  0  0  0  0
 39 33  2  0  0  0  0
 39 38  1  0  0  0  0
 40 38  1  0  0  0  0
 40 41  1  0  0  0  0
 41 42  1  0  0  0  0
 41 43  1  0  0  0  0
M  END
>  <minimizedAffinity>
-6.92540073

$$$$

 OpenBabel03262523073D

 43 48  0  0  0  0  0  0  0  0999 V2000
   37.4740   27.9890   31.1780 C   0  0  0  0  0  0  0  0  0  0  0  0
   37.4400   28.7080   30.0060 C   0  0  0  0  0  0  0  0  0  0  0  0
   36.7340   29.8760   29.9680 C   0  0  0  0  0  0  0  0  0  0  0  0
   36.0750   30.3160   31.0810 N   0  0  0  0  0  0  0  0  0  0  0  0
   36.1320   29.5950   32.1920 C   0  0  0  0  0  0  0  0  0  0  0  0
   36.8200   28.4360   32.2620 N   0  0  0  0  0  0  0  0  0  0  0  0
   37.9770   28.3270   29.1380 H   0  0  0  0  0  0  0  0  0  0  0  0
   36.6900   30.4620   29.0590 H   0  0  0  0  0  0  0  0  0  0  0  0
   35.4320   30.0640   33.3730 C   0  0  0  0  0  0  0  0  0  0  0  0
   35.8840   31.1400   34.0900 C   0  0  0  0  0  0  0  0  0  0  0  0
   35.3350   31.7020   35.2240 C   0  0  0  0  0  0  0  0  0  0  0  0
   34.1830   31.0720   35.6630 C   0  0  0  0  0  0  0  0  0  0  0  0
   33.5820   31.5680   36.7770 N   0  0  0  0  0  0  0  0  0  0  0  0
   32.4590   31.0300   37.2850 C   0  0  0  0  0  0  0  0  0  0  0  0
   31.8910   29.9300   36.6540 C   0  0  0  0  0  0  0  0  0  0  0  0
   32.5010   29.4210   35.5170 C   0  0  0  0  0  0  0  0  0  0  0  0
   33.6630   29.9750   34.9890 C   0  0  0  0  0  0  0  0  0  0  0  0
   34.2740   29.4760   33.8610 C   0  0  0  0  0  0  0  0  0  0  0  0
   36.7990   31.6090   33.7100 H   0  0  0  0  0  0  0  0  0  0  0  0
   35.7850   32.5540   35.7040 H   0  0  0  0  0  0  0  0  0  0  0  0
   31.9760   31.4200   38.1720 H   0  0  0  0  0  0  0  0  0  0  0  0
   30.9870   29.4760   37.0410 H   0  0  0  0  0  0  0  0  0  0  0  0
   32.0810   28.5640   35.0030 H   0  0  0  0  0  0  0  0  0  0  0  0
   33.8590   28.6260   33.3510 H   0  0  0  0  0  0  0  0  0  0  0  0
   39.4110   24.9780   30.3340 C   0  0  0  0  0  0  0  0  0  0  0  0
   39.5780   24.3720   31.5940 C   0  0  0  0  0  0  0  0  0  0  0  0
   39.0190   25.0120   32.7200 C   0  0  0  0  0  0  0  0  0  0  0  0
   38.3580   26.1710   32.5010 N   0  0  0  0  0  0  0  0  0  0  0  0
   38.2110   26.7360   31.2730 C   0  0  0  0  0  0  0  0  0  0  0  0
   38.7390   26.1330   30.2050 N   0  0  0  0  0  0  0  0  0  0  0  0
   39.8500   24.4690   29.4840 H   0  0  0  0  0  0  0  0  0  0  0  0
   40.1000   23.4640   31.7410 H   0  0  0  0  0  0  0  0  0  0  0  0
   40.2670   23.8140   34.3930 C   0  0  0  0  0  3  0  0  0  0  0  0
   39.1130   24.5010   34.0780 C   0  0  0  0  0  0  0  0  0  0  0  0
   38.1210   24.6800   35.0140 C   0  0  0  0  0  0  0  0  0  0  0  0
   37.2150   25.2170   34.7720 H   0  0  0  0  0  0  0  0  0  0  0  0
   38.2420   24.1790   36.3040 C   0  0  0  0  0  0  0  0  0  0  0  0
   39.4060   23.4920   36.6060 C   0  0  0  0  0  0  0  0  0  0  0  0
   40.4310   23.2920   35.6820 C   0  0  0  0  0  3  0  0  0  0  0  0
   39.3380   23.0700   37.9420 O   0  0  0  0  0  0  0  0  0  0  0  0
   38.2750   23.7790   38.5710 C   0  0  0  0  0  3  0  0  0  0  0  0
   38.6460   24.7250   39.0320 H   0  0  0  0  0  0  0  0  0  0  0  0
   37.4840   24.1620   37.4670 O   0  0  0  0  0  0  0  0  0  0  0  0
  1 29  1  0  0  0  0
  1  6  1  0  0  0  0
  2  1  2  0  0  0  0
  3  2  1  0  0  0  0
  3  4  2  0  0  0  0
  4  5  1  0  0  0  0
  5  6  2  0  0  0  0
  5  9  1  0  0  0  0
  7  2  1  0  0  0  0
  8  3  1  0  0  0  0
  9 18  2  0  0  0  0
  9 10  1  0  0  0  0
 10 11  2  0  0  0  0
 11 12  1  0  0  0  0
 11 20  1  0  0  0  0
 12 13  1  0  0  0  0
 13 14  2  0  0  0  0
 14 21  1  0  0  0  0
 15 22  1  0  0  0  0
 15 14  1  0  0  0  0
 16 15  2  0  0  0  0
 17 16  1  0  0  0  0
 17 12  2  0  0  0  0
 18 17  1  0  0  0  0
 19 10  1  0  0  0  0
 23 16  1  0  0  0  0
 24 18  1  0  0  0  0
 25 26  1  0  0  0  0
 26 32  1  0  0  0  0
 26 27  2  0  0  0  0
 27 34  1  0  0  0  0
 28 27  1  0  0  0  0
 29 28  2  0  0  0  0
 30 25  2  0  0  0  0
 30 29  1  0  0  0  0
 31 25  1  0  0  0  0
 33 39  1  0  0  0  0
 34 33  2  0  0  0  0
 34 35  1  0  0  0  0
 35 37  2  0  0  0  0
 36 35  1  0  0  0  0
 37 38  1  0  0  0  0
 37 43  1  0  0  0  0
 38 40  1  0  0  0  0
 39 38  2  0  0  0  0
 40 41  1  0  0  0  0
 41 42  1  0  0  0  0
 43 41  1  0  0  0  0
M  END
>  <minimizedAffinity>
-6.90064144

$$$$

 OpenBabel03262523073D

 43 48  0  0  0  0  0  0  0  0999 V2000
   36.4070   28.1210   31.3560 C   0  0  0  0  0  0  0  0  0  0  0  0
   36.7710   28.6520   30.1410 C   0  0  0  0  0  0  0  0  0  0  0  0
   36.7450   30.0070   29.9790 C   0  0  0  0  0  0  0  0  0  0  0  0
   36.3640   30.8160   31.0120 N   0  0  0  0  0  0  0  0  0  0  0  0
   36.0210   30.2650   32.1680 C   0  0  0  0  0  0  0  0  0  0  0  0
   36.0340   28.9300   32.3610 N   0  0  0  0  0  0  0  0  0  0  0  0
   37.0690   27.9770   29.3390 H   0  0  0  0  0  0  0  0  0  0  0  0
   37.0260   30.4520   29.0330 H   0  0  0  0  0  0  0  0  0  0  0  0
   35.6160   31.1260   33.2640 C   0  0  0  0  0  0  0  0  0  0  0  0
   36.0580   32.4200   33.3570 C   0  0  0  0  0  0  0  0  0  0  0  0
   35.7670   33.3540   34.3290 C   0  0  0  0  0  0  0  0  0  0  0  0
   34.9170   32.8890   35.3190 C   0  0  0  0  0  0  0  0  0  0  0  0
   34.5820   33.7530   36.3140 N   0  0  0  0  0  0  0  0  0  0  0  0
   33.7640   33.4020   37.3220 C   0  0  0  0  0  0  0  0  0  0  0  0
   33.2420   32.1140   37.3510 C   0  0  0  0  0  0  0  0  0  0  0  0
   33.5810   31.2300   36.3380 C   0  0  0  0  0  0  0  0  0  0  0  0
   34.4270   31.5900   35.2930 C   0  0  0  0  0  0  0  0  0  0  0  0
   34.7680   30.7190   34.2840 C   0  0  0  0  0  0  0  0  0  0  0  0
   36.7280   32.7470   32.5540 H   0  0  0  0  0  0  0  0  0  0  0  0
   36.1770   34.3480   34.2950 H   0  0  0  0  0  0  0  0  0  0  0  0
   33.4940   34.0840   38.1180 H   0  0  0  0  0  0  0  0  0  0  0  0
   32.5800   31.8040   38.1510 H   0  0  0  0  0  0  0  0  0  0  0  0
   33.1900   30.2190   36.3340 H   0  0  0  0  0  0  0  0  0  0  0  0
   34.3810   29.7170   34.2790 H   0  0  0  0  0  0  0  0  0  0  0  0
   35.6120   24.5330   31.1970 C   0  0  0  0  0  0  0  0  0  0  0  0
   36.5370   23.9850   32.1060 C   0  0  0  0  0  0  0  0  0  0  0  0
   37.4240   24.8630   32.7620 C   0  0  0  0  0  0  0  0  0  0  0  0
   37.3180   26.1780   32.4660 N   0  0  0  0  0  0  0  0  0  0  0  0
   36.4150   26.6820   31.5840 C   0  0  0  0  0  0  0  0  0  0  0  0
   35.5730   25.8540   30.9600 N   0  0  0  0  0  0  0  0  0  0  0  0
   34.9400   23.8400   30.7040 H   0  0  0  0  0  0  0  0  0  0  0  0
   36.6020   22.9520   32.3220 H   0  0  0  0  0  0  0  0  0  0  0  0
   39.5570   25.2250   33.8180 C   0  0  0  0  0  3  0  0  0  0  0  0
   38.4290   24.4370   33.7230 C   0  0  0  0  0  0  0  0  0  0  0  0
   38.2860   23.3130   34.5050 C   0  0  0  0  0  0  0  0  0  0  0  0
   37.4060   22.6910   34.4350 H   0  0  0  0  0  0  0  0  0  0  0  0
   39.2660   22.9330   35.4150 C   0  0  0  0  0  0  0  0  0  0  0  0
   40.3920   23.7360   35.4990 C   0  0  0  0  0  0  0  0  0  0  0  0
   40.5690   24.8800   34.7220 C   0  0  0  0  0  3  0  0  0  0  0  0
   41.2540   23.1910   36.4620 O   0  0  0  0  0  0  0  0  0  0  0  0
   40.5170   22.2320   37.2150 C   0  0  0  0  0  3  0  0  0  0  0  0
   40.0420   22.7060   38.1060 H   0  0  0  0  0  0  0  0  0  0  0  0
   39.4640   21.9110   36.3320 O   0  0  0  0  0  0  0  0  0  0  0  0
  1 29  1  0  0  0  0
  1  6  1  0  0  0  0
  2  1  2  0  0  0  0
  3  2  1  0  0  0  0
  3  4  2  0  0  0  0
  4  5  1  0  0  0  0
  5  6  2  0  0  0  0
  5  9  1  0  0  0  0
  7  2  1  0  0  0  0
  8  3  1  0  0  0  0
  9 10  2  0  0  0  0
  9 18  1  0  0  0  0
 10 11  1  0  0  0  0
 11 12  2  0  0  0  0
 12 13  1  0  0  0  0
 13 14  2  0  0  0  0
 14 15  1  0  0  0  0
 14 21  1  0  0  0  0
 15 22  1  0  0  0  0
 16 15  2  0  0  0  0
 17 12  1  0  0  0  0
 17 16  1  0  0  0  0
 18 17  2  0  0  0  0
 19 10  1  0  0  0  0
 20 11  1  0  0  0  0
 23 16  1  0  0  0  0
 24 18  1  0  0  0  0
 25 26  1  0  0  0  0
 26 32  1  0  0  0  0
 26 27  2  0  0  0  0
 27 34  1  0  0  0  0
 28 27  1  0  0  0  0
 29 28  2  0  0  0  0
 30 25  2  0  0  0  0
 30 29  1  0  0  0  0
 31 25  1  0  0  0  0
 33 39  1  0  0  0  0
 34 33  2  0  0  0  0
 34 35  1  0  0  0  0
 35 37  2  0  0  0  0
 36 35  1  0  0  0  0
 37 38  1  0  0  0  0
 37 43  1  0  0  0  0
 38 40  1  0  0  0  0
 39 38  2  0  0  0  0
 40 41  1  0  0  0  0
 41 42  1  0  0  0  0
 43 41  1  0  0  0  0
M  END
>  <minimizedAffinity>
-6.82459879

$$$$
