
     RDKit          3D

 33 36  0  0  0  0  0  0  0  0999 V2000
   37.9835   33.1684   49.4315 C   0  0  0  0  0  0  0  0  0  0  0  0
   39.0156   33.1605   48.4680 C   0  0  0  0  0  0  0  0  0  0  0  0
   39.0131   32.1263   47.5395 C   0  0  0  0  0  0  0  0  0  0  0  0
   38.0276   31.1677   47.5899 N   0  0  0  0  0  0  0  0  0  0  0  0
   37.0538   31.2286   48.5473 C   0  0  0  0  0  0  0  0  0  0  0  0
   37.0406   32.2224   49.4539 N   0  0  0  0  0  0  0  0  0  0  0  0
   37.2725   29.3598   51.0537 Br  0  0  0  0  0  0  0  0  0  0  0  0
   35.9552   29.3142   49.6671 C   0  0  0  0  0  0  0  0  0  0  0  0
   36.0001   30.2205   48.6178 C   0  0  0  0  0  0  0  0  0  0  0  0
   35.0175   30.1217   47.6619 C   0  0  0  0  0  0  0  0  0  0  0  0
   33.9989   29.1811   47.6869 C   0  0  0  0  0  0  0  0  0  0  0  0
   33.9944   28.3052   48.7432 C   0  0  0  0  0  0  0  0  0  0  0  0
   34.9651   28.3746   49.7222 C   0  0  0  0  0  0  0  0  0  0  0  0
   38.0253   33.9902   50.1337 H   0  0  0  0  0  0  0  0  0  0  0  0
   39.7975   33.9069   48.4156 H   0  0  0  0  0  0  0  0  0  0  0  0
   39.7490   32.0126   46.7539 H   0  0  0  0  0  0  0  0  0  0  0  0
   35.0449   30.8278   46.8353 H   0  0  0  0  0  0  0  0  0  0  0  0
   33.2081   27.5541   48.7923 H   0  0  0  0  0  0  0  0  0  0  0  0
   34.9239   27.6548   50.5494 H   0  0  0  0  0  0  0  0  0  0  0  0
   32.6554   27.8867   46.1548 C   0  0  0  0  0  0  0  0  0  0  0  0
   32.9906   29.1318   46.6432 C   0  0  0  0  0  0  0  0  0  0  0  0
   32.3669   30.2505   46.1294 C   0  0  0  0  0  0  0  0  0  0  0  0
   32.6214   31.2173   46.5036 H   0  0  0  0  0  0  0  0  0  0  0  0
   31.4238   30.1013   45.1411 C   0  0  0  0  0  0  0  0  0  0  0  0
   31.0868   28.8408   44.6490 C   0  0  0  0  0  0  0  0  0  0  0  0
   31.7011   27.6944   45.1498 C   0  0  0  0  0  0  0  0  0  0  0  0
   30.1075   28.9227   43.6500 O   0  0  0  0  0  0  0  0  0  0  0  0
   29.5573   30.2333   43.8497 C   0  0  1  0  0  0  0  0  0  0  0  0
   29.1906   30.6519   42.9136 H   0  0  0  0  0  0  0  0  0  0  0  0
   30.6152   30.9878   44.4105 O   0  0  0  0  0  0  0  0  0  0  0  0
   33.1254   26.9729   46.5334 H   0  0  0  0  0  0  0  0  0  0  0  0
   31.4523   26.7115   44.7807 H   0  0  0  0  0  0  0  0  0  0  0  0
   28.7423   30.1904   44.5812 H   0  0  0  0  0  0  0  0  0  0  0  0
  1  6  2  0
  2  1  1  0
  3  4  1  0
  3  2  2  0
  4  5  2  0
  5  9  1  0
  5  6  1  0
  8 13  2  0
  8  7  1  0
  9  8  1  0
 10 11  1  0
 10  9  2  0
 11 12  2  0
 12 13  1  0
  1 14  1  0
  2 15  1  0
  3 16  1  0
 10 17  1  0
 12 18  1  0
 13 19  1  0
 20 21  2  0
 21 22  1  0
 22 23  1  0
 22 24  2  0
 24 25  1  0
 25 26  2  0
 25 27  1  0
 27 28  1  0
 28 29  1  6
 28 30  1  0
 26 20  1  0
 30 24  1  0
 20 31  1  0
 26 32  1  0
 28 33  1  0
 11 21  1  0
M  ISO  8  14  14  15  14  16  14  17  14  18  14  19  14  23  16  29   8
M  END
>  <DihAtoms>  (1) 
9,10,20,19

>  <DihDeg>  (1) 
-148.87759981501375

$$$$
