
 OpenBabel03272510263D

 47 52  0  0  1  0  0  0  0  0999 V2000
   38.8670   31.7570   41.4330 N   0  0  0  0  0  0  0  0  0  0  0  0
   38.9130   33.1840   41.5750 C   0  0  1  0  0  0  0  0  0  0  0  0
   37.6210   33.7840   41.2710 C   0  0  0  0  0  0  0  0  0  0  0  0
   37.3030   33.5260   39.9300 O   0  0  0  0  0  0  0  0  0  0  0  0
   37.3320   32.1970   39.5750 C   0  0  0  0  0  0  0  0  0  0  0  0
   38.5690   31.4920   40.0400 C   0  0  1  0  0  0  0  0  0  0  0  0
   38.4470   31.1810   42.1200 H   0  0  0  0  0  0  0  0  0  0  0  0
   39.6930   33.5700   40.9050 H   0  0  0  0  0  0  0  0  0  0  0  0
   37.7680   34.9080   41.2910 H   0  0  0  0  0  0  0  0  0  0  0  0
   36.7210   33.5900   41.7880 H   0  0  0  0  0  0  0  0  0  0  0  0
   36.3980   31.6750   39.9330 H   0  0  0  0  0  0  0  0  0  0  0  0
   37.2730   32.1310   38.4740 H   0  0  0  0  0  0  0  0  0  0  0  0
   38.3160   30.3910   40.0120 H   0  0  0  0  0  0  0  0  0  0  0  0
   39.9640   32.4680   38.0850 C   0  0  0  0  0  3  0  0  0  0  0  0
   39.7430   31.6590   39.1800 C   0  0  0  0  0  0  0  0  0  0  0  0
   40.7860   30.8220   39.5950 C   0  0  0  0  0  0  0  0  0  0  0  0
   40.7640   30.1260   40.4430 H   0  0  0  0  0  0  0  0  0  0  0  0
   42.0090   30.8080   38.9210 C   0  0  0  0  0  0  0  0  0  0  0  0
   42.1420   31.6480   37.8410 C   0  0  0  0  0  0  0  0  0  0  0  0
   41.1530   32.4800   37.4000 C   0  0  0  0  0  3  0  0  0  0  0  0
   43.4300   31.4710   37.3270 O   0  0  0  0  0  0  0  0  0  0  0  0
   44.0100   30.3700   37.9800 C   0  0  0  0  0  3  0  0  0  0  0  0
   45.0620   30.5610   38.2850 H   0  0  0  0  0  0  0  0  0  0  0  0
   43.2030   30.1050   39.0930 O   0  0  0  0  0  0  0  0  0  0  0  0
   39.2920   33.4550   42.9190 O   0  0  0  0  0  0  0  0  0  0  0  0
   36.1760   30.1910   46.7200 C   0  0  0  0  0  0  0  0  0  0  0  0
   37.0630   30.7560   47.6270 C   0  0  0  0  0  0  0  0  0  0  0  0
   38.0500   31.6450   47.2040 C   0  0  0  0  0  0  0  0  0  0  0  0
   38.0870   31.9230   45.8420 C   0  0  0  0  0  0  0  0  0  0  0  0
   38.9630   32.7640   45.1930 N   0  0  0  0  0  0  0  0  0  0  0  0
   38.6160   32.7170   43.8920 C   0  0  0  0  0  0  0  0  0  0  0  0
   37.5890   31.9020   43.7250 N   0  0  0  0  0  0  0  0  0  0  0  0
   37.2300   31.3880   44.9140 C   0  0  0  0  0  0  0  0  0  0  0  0
   36.2490   30.4980   45.3710 C   0  0  0  0  0  0  0  0  0  0  0  0
   35.4020   29.4980   47.0310 H   0  0  0  0  0  0  0  0  0  0  0  0
   38.7520   32.0970   47.8920 H   0  0  0  0  0  0  0  0  0  0  0  0
   39.7370   33.3200   45.6390 H   0  0  0  0  0  0  0  0  0  0  0  0
   35.5690   30.0710   44.6450 H   0  0  0  0  0  0  0  0  0  0  0  0
   37.5660   30.2820   51.3240 C   0  0  0  0  0  0  0  0  0  0  0  0
   37.8420   30.7000   50.0210 C   0  0  0  0  0  0  0  0  0  0  0  0
   36.9410   30.4030   49.0270 C   0  0  0  0  0  0  0  0  0  0  0  0
   35.8060   29.7040   49.3870 N   0  0  0  0  0  0  0  0  0  0  0  0
   35.5620   29.3120   50.6550 C   0  0  0  0  0  0  0  0  0  0  0  0
   36.4300   29.5980   51.6040 N   0  0  0  0  0  0  0  0  0  0  0  0
   38.3000   30.5350   52.0730 H   0  0  0  0  0  0  0  0  0  0  0  0
   38.7250   31.2460   49.7340 H   0  0  0  0  0  0  0  0  0  0  0  0
   34.6440   28.7740   50.8020 H   0  0  0  0  0  0  0  0  0  0  0  0
  1  2  1  0  0  0  0
  1  7  1  0  0  0  0
  2  8  1  6  0  0  0
  2 25  1  0  0  0  0
  3  9  1  0  0  0  0
  3  2  1  0  0  0  0
  3 10  1  0  0  0  0
  4  3  1  0  0  0  0
  5  4  1  0  0  0  0
  5 11  1  0  0  0  0
  5  6  1  0  0  0  0
  6 13  1  6  0  0  0
  6  1  1  0  0  0  0
 12  5  1  0  0  0  0
 14 15  1  0  0  0  0
 15 16  2  0  0  0  0
 15  6  1  0  0  0  0
 16 17  1  0  0  0  0
 18 24  1  0  0  0  0
 18 16  1  0  0  0  0
 19 18  2  0  0  0  0
 20 19  1  0  0  0  0
 20 14  2  0  0  0  0
 21 19  1  0  0  0  0
 21 22  1  0  0  0  0
 22 23  1  0  0  0  0
 22 24  1  0  0  0  0
 25 31  1  0  0  0  0
 26 35  1  0  0  0  0
 26 27  1  0  0  0  0
 27 41  1  0  0  0  0
 28 27  2  0  0  0  0
 28 36  1  0  0  0  0
 29 28  1  0  0  0  0
 30 37  1  0  0  0  0
 30 29  1  0  0  0  0
 31 30  1  0  0  0  0
 32 31  2  0  0  0  0
 32 33  1  0  0  0  0
 33 34  1  0  0  0  0
 33 29  2  0  0  0  0
 34 26  2  0  0  0  0
 38 34  1  0  0  0  0
 39 44  1  0  0  0  0
 39 45  1  0  0  0  0
 40 39  2  0  0  0  0
 41 42  2  0  0  0  0
 41 40  1  0  0  0  0
 42 43  1  0  0  0  0
 43 47  1  0  0  0  0
 43 44  2  0  0  0  0
 46 40  1  0  0  0  0
M  END
>  <minimizedAffinity>
-6.07122421

>  <minimizedRMSD>
1.11073303

$$$$
