
 OpenBabel03272505063D

 35 38  0  0  1  0  0  0  0  0999 V2000
   36.7640   29.2300   50.5400 C   0  0  0  0  0  0  0  0  0  0  0  0
   37.2420   29.6240   49.2910 C   0  0  0  0  0  0  0  0  0  0  0  0
   36.3210   30.2870   48.4650 C   0  0  0  0  0  0  0  0  0  0  0  0
   35.0690   30.4950   48.9210 N   0  0  0  0  0  0  0  0  0  0  0  0
   34.6650   30.0930   50.1320 C   0  0  0  0  0  0  0  0  0  0  0  0
   35.5150   29.4560   50.9500 N   0  0  0  0  0  0  0  0  0  0  0  0
   36.5750   30.7720   47.1420 N   0  0  0  0  0  0  0  0  0  0  0  0
   37.7360   31.5170   46.7620 C   0  0  0  0  0  0  0  0  0  0  0  0
   38.4040   31.1330   45.5020 C   0  0  0  0  0  0  0  0  0  0  0  0
   37.5170   30.6870   44.3890 C   0  0  0  0  0  0  0  0  0  0  0  0
   36.4740   29.7550   44.9440 C   0  0  0  0  0  0  0  0  0  0  0  0
   35.7180   30.5910   46.0040 C   0  0  1  0  0  0  0  0  0  0  0  0
   37.5360   28.7190   51.1290 H   0  0  0  0  0  0  0  0  0  0  0  0
   38.2150   29.4900   48.8750 H   0  0  0  0  0  0  0  0  0  0  0  0
   33.6690   30.2450   50.5270 H   0  0  0  0  0  0  0  0  0  0  0  0
   38.4660   31.4640   47.6000 H   0  0  0  0  0  0  0  0  0  0  0  0
   37.4110   32.5970   46.7270 H   0  0  0  0  0  0  0  0  0  0  0  0
   38.9850   32.0180   45.1330 H   0  0  0  0  0  0  0  0  0  0  0  0
   39.1590   30.3350   45.6910 H   0  0  0  0  0  0  0  0  0  0  0  0
   36.9560   31.5750   43.9970 H   0  0  0  0  0  0  0  0  0  0  0  0
   38.1450   30.2240   43.6050 H   0  0  0  0  0  0  0  0  0  0  0  0
   37.0350   28.9590   45.4980 H   0  0  0  0  0  0  0  0  0  0  0  0
   35.7870   29.3340   44.2040 H   0  0  0  0  0  0  0  0  0  0  0  0
   35.3530   31.5200   45.5390 H   0  0  0  0  0  0  0  0  0  0  0  0
   34.5800   28.4480   46.7750 C   0  0  0  0  0  0  0  0  0  0  0  0
   34.5100   29.7420   46.3010 C   0  0  0  0  0  0  0  0  0  0  0  0
   33.2200   30.2450   46.1010 C   0  0  0  0  0  0  0  0  0  0  0  0
   33.1480   31.2510   45.7320 H   0  0  0  0  0  0  0  0  0  0  0  0
   32.0780   29.5350   46.3470 C   0  0  0  0  0  0  0  0  0  0  0  0
   32.1890   28.2440   46.8210 C   0  0  0  0  0  0  0  0  0  0  0  0
   33.4430   27.7090   47.0320 C   0  0  0  0  0  0  0  0  0  0  0  0
   30.8840   27.7440   46.9890 O   0  0  0  0  0  0  0  0  0  0  0  0
   30.0750   28.5020   46.0830 C   0  0  0  0  0  0  0  0  0  0  0  0
   30.2910   28.1200   45.0470 H   0  0  0  0  0  0  0  0  0  0  0  0
   30.7140   29.7770   46.2430 O   0  0  0  0  0  0  0  0  0  0  0  0
  1  6  1  0  0  0  0
  1 13  1  0  0  0  0
  2  1  2  0  0  0  0
  3  4  2  0  0  0  0
  3  2  1  0  0  0  0
  4  5  1  0  0  0  0
  5 15  1  0  0  0  0
  5  6  2  0  0  0  0
  7  3  1  0  0  0  0
  8  7  1  0  0  0  0
  8 16  1  0  0  0  0
  9 19  1  0  0  0  0
  9  8  1  0  0  0  0
 10 11  1  0  0  0  0
 10  9  1  0  0  0  0
 11 22  1  0  0  0  0
 11 12  1  0  0  0  0
 12 24  1  6  0  0  0
 12 26  1  0  0  0  0
 12  7  1  0  0  0  0
 14  2  1  0  0  0  0
 17  8  1  0  0  0  0
 18  9  1  0  0  0  0
 20 10  1  0  0  0  0
 21 10  1  0  0  0  0
 23 11  1  0  0  0  0
 25 31  1  0  0  0  0
 26 25  2  0  0  0  0
 27 26  1  0  0  0  0
 27 29  2  0  0  0  0
 28 27  1  0  0  0  0
 29 30  1  0  0  0  0
 30 32  1  0  0  0  0
 30 31  2  0  0  0  0
 33 35  1  0  0  0  0
 33 32  1  0  0  0  0
 34 33  1  0  0  0  0
 35 29  1  0  0  0  0
M  END
>  <minimizedAffinity>
-4.47409868

>  <minimizedRMSD>
3.15237451

$$$$
