
 OpenBabel03272509083D

 42 46  0  0  0  0  0  0  0  0999 V2000
   33.0520   28.1740   47.8650 C   0  0  0  0  0  0  0  0  0  0  0  0
   32.3890   28.8570   47.3410 H   0  0  0  0  0  0  0  0  0  0  0  0
   32.4620   27.7410   48.7010 H   0  0  0  0  0  0  0  0  0  0  0  0
   33.4410   27.0130   47.0160 C   0  0  0  0  0  0  0  0  0  0  0  0
   33.4110   25.6820   47.4230 C   0  0  0  0  0  0  0  0  0  0  0  0
   33.7800   24.6730   46.5740 C   0  0  0  0  0  0  0  0  0  0  0  0
   34.1920   24.9430   45.2870 C   0  0  0  0  0  0  0  0  0  0  0  0
   34.2220   26.2550   44.8810 C   0  0  0  0  0  0  0  0  0  0  0  0
   33.8530   27.2910   45.7290 C   0  0  0  0  0  0  0  0  0  0  0  0
   33.0720   25.5560   48.4600 H   0  0  0  0  0  0  0  0  0  0  0  0
   33.6950   23.7150   47.0520 H   0  0  0  0  0  0  0  0  0  0  0  0
   34.4580   24.0750   44.7050 H   0  0  0  0  0  0  0  0  0  0  0  0
   34.5650   26.3320   43.8470 H   0  0  0  0  0  0  0  0  0  0  0  0
   35.0840   29.4130   44.9120 C   0  0  0  0  0  3  0  0  0  0  0  0
   34.0110   28.5620   45.0320 C   0  0  0  0  0  0  0  0  0  0  0  0
   32.8490   29.0170   44.3900 C   0  0  0  0  0  0  0  0  0  0  0  0
   31.9210   28.4350   44.4070 H   0  0  0  0  0  0  0  0  0  0  0  0
   32.7450   30.2020   43.6930 C   0  0  0  0  0  0  0  0  0  0  0  0
   33.8530   31.0170   43.6060 C   0  0  0  0  0  0  0  0  0  0  0  0
   34.9970   30.5950   44.2220 C   0  0  0  0  0  3  0  0  0  0  0  0
   33.5030   32.1350   42.8640 O   0  0  0  0  0  0  0  0  0  0  0  0
   32.3520   31.7900   42.1150 C   0  0  0  0  0  3  0  0  0  0  0  0
   32.7120   31.3090   41.1830 H   0  0  0  0  0  0  0  0  0  0  0  0
   31.7320   30.8430   42.9970 O   0  0  0  0  0  0  0  0  0  0  0  0
   34.9920   28.3960   49.4480 C   0  0  0  0  0  3  0  0  0  0  0  0
   34.1980   28.8540   48.5100 C   0  0  0  0  0  3  0  0  0  0  0  0
   37.3890   30.1520   51.5620 C   0  0  0  0  0  0  0  0  0  0  0  0
   38.0980   30.9210   50.6190 C   0  0  0  0  0  0  0  0  0  0  0  0
   37.7210   30.8110   49.2590 C   0  0  0  0  0  0  0  0  0  0  0  0
   36.6940   29.9670   48.9420 N   0  0  0  0  0  0  0  0  0  0  0  0
   36.0580   29.2580   49.9120 C   0  0  0  0  0  0  0  0  0  0  0  0
   36.3960   29.3470   51.1950 N   0  0  0  0  0  0  0  0  0  0  0  0
   37.7140   30.2690   52.6020 H   0  0  0  0  0  0  0  0  0  0  0  0
   38.9160   31.5940   50.8670 H   0  0  0  0  0  0  0  0  0  0  0  0
   38.3760   31.5690   48.1930 C   0  0  0  0  0  0  0  0  0  0  0  0
   38.5640   31.0570   46.9290 C   0  0  0  0  0  0  0  0  0  0  0  0
   39.2050   32.0430   46.1720 C   0  0  0  0  0  0  0  0  0  0  0  0
   39.3740   33.0970   47.0050 N   0  0  0  0  0  0  0  0  0  0  0  0
   38.8840   32.8250   48.2130 N   0  0  0  0  0  0  0  0  0  0  0  0
   38.2790   30.0680   46.5460 H   0  0  0  0  0  0  0  0  0  0  0  0
   39.4820   31.9250   45.1350 H   0  0  0  0  0  0  0  0  0  0  0  0
   39.8440   33.9640   46.6370 H   0  0  0  0  0  0  0  0  0  0  0  0
  1 26  1  0  0  0  0
  1  3  1  0  0  0  0
  2  1  1  0  0  0  0
  4  5  1  0  0  0  0
  4  1  1  0  0  0  0
  5 10  1  0  0  0  0
  6 11  1  0  0  0  0
  6  5  2  0  0  0  0
  7  6  1  0  0  0  0
  8  7  2  0  0  0  0
  8  9  1  0  0  0  0
  9  4  2  0  0  0  0
 12  7  1  0  0  0  0
 13  8  1  0  0  0  0
 14 15  1  0  0  0  0
 15  9  1  0  0  0  0
 16 17  1  0  0  0  0
 16 15  2  0  0  0  0
 18 16  1  0  0  0  0
 19 18  2  0  0  0  0
 19 20  1  0  0  0  0
 20 14  2  0  0  0  0
 21 19  1  0  0  0  0
 22 21  1  0  0  0  0
 22 24  1  0  0  0  0
 23 22  1  0  0  0  0
 24 18  1  0  0  0  0
 25 31  1  0  0  0  0
 26 25  2  0  0  0  0
 27 33  1  0  0  0  0
 28 34  1  0  0  0  0
 28 27  2  0  0  0  0
 29 28  1  0  0  0  0
 30 29  2  0  0  0  0
 30 31  1  0  0  0  0
 31 32  2  0  0  0  0
 32 27  1  0  0  0  0
 35 39  2  0  0  0  0
 35 29  1  0  0  0  0
 36 35  1  0  0  0  0
 37 36  2  0  0  0  0
 37 38  1  0  0  0  0
 38 39  1  0  0  0  0
 40 36  1  0  0  0  0
 41 37  1  0  0  0  0
 42 38  1  0  0  0  0
M  END
>  <minimizedAffinity>
-6.57745361

>  <minimizedRMSD>
0.808451295

$$$$
