
 OpenBabel03272510173D

 30 33  0  0  0  0  0  0  0  0999 V2000
   37.2590   29.5490   51.2500 Br  0  0  0  0  0  0  0  0  0  0  0  0
   35.9960   29.3670   49.8240 C   0  0  0  0  0  0  0  0  0  0  0  0
   36.0610   30.1930   48.7110 C   0  0  0  0  0  0  0  0  0  0  0  0
   35.1180   29.9990   47.7300 C   0  0  0  0  0  0  0  0  0  0  0  0
   34.1200   29.0380   47.7900 C   0  0  0  0  0  0  0  0  0  0  0  0
   34.0930   28.2440   48.9090 C   0  0  0  0  0  0  0  0  0  0  0  0
   35.0250   28.4110   49.9140 C   0  0  0  0  0  0  0  0  0  0  0  0
   35.1620   30.6410   46.8530 H   0  0  0  0  0  0  0  0  0  0  0  0
   33.3220   27.4810   48.9860 H   0  0  0  0  0  0  0  0  0  0  0  0
   34.9670   27.7550   50.7910 H   0  0  0  0  0  0  0  0  0  0  0  0
   33.5900   29.1580   45.4380 C   0  0  0  0  0  3  0  0  0  0  0  0
   33.1530   28.8870   46.7170 C   0  0  0  0  0  0  0  0  0  0  0  0
   31.8460   28.4910   46.9160 C   0  0  0  0  0  0  0  0  0  0  0  0
   31.5010   28.2790   47.9040 H   0  0  0  0  0  0  0  0  0  0  0  0
   31.0050   28.3760   45.8350 C   0  0  0  0  0  0  0  0  0  0  0  0
   31.4490   28.6520   44.5420 C   0  0  0  0  0  0  0  0  0  0  0  0
   32.7640   29.0520   44.3130 C   0  0  0  0  0  3  0  0  0  0  0  0
   30.4310   28.4700   43.5970 O   0  0  0  0  0  0  0  0  0  0  0  0
   29.4750   27.6680   44.3090 C   0  0  0  0  0  3  0  0  0  0  0  0
   28.4630   27.8610   43.9580 H   0  0  0  0  0  0  0  0  0  0  0  0
   29.6590   28.0110   45.6700 O   0  0  0  0  0  0  0  0  0  0  0  0
   37.9880   33.2050   49.4130 C   0  0  0  0  0  0  0  0  0  0  0  0
   39.0200   33.1820   48.4490 C   0  0  0  0  0  0  0  0  0  0  0  0
   39.0360   32.1150   47.5580 C   0  0  0  0  0  0  0  0  0  0  0  0
   38.0700   31.1410   47.6460 N   0  0  0  0  0  0  0  0  0  0  0  0
   37.0960   31.2180   48.6020 C   0  0  0  0  0  0  0  0  0  0  0  0
   37.0650   32.2430   49.4720 N   0  0  0  0  0  0  0  0  0  0  0  0
   38.0150   34.0530   50.0860 H   0  0  0  0  0  0  0  0  0  0  0  0
   39.7870   33.9420   48.3690 H   0  0  0  0  0  0  0  0  0  0  0  0
   39.7730   31.9880   46.7770 H   0  0  0  0  0  0  0  0  0  0  0  0
  2  7  1  0  0  0  0
  2  1  1  0  0  0  0
  3  2  2  0  0  0  0
  4  5  2  0  0  0  0
  4  3  1  0  0  0  0
  5  6  1  0  0  0  0
  6  9  1  0  0  0  0
  6  7  2  0  0  0  0
  7 10  1  0  0  0  0
  8  4  1  0  0  0  0
 11 12  1  0  0  0  0
 12 13  2  0  0  0  0
 12  5  1  0  0  0  0
 13 14  1  0  0  0  0
 15 13  1  0  0  0  0
 16 15  2  0  0  0  0
 17 16  1  0  0  0  0
 17 11  2  0  0  0  0
 18 19  1  0  0  0  0
 18 16  1  0  0  0  0
 19 21  1  0  0  0  0
 20 19  1  0  0  0  0
 21 15  1  0  0  0  0
 22 27  1  0  0  0  0
 22 28  1  0  0  0  0
 23 22  2  0  0  0  0
 24 25  2  0  0  0  0
 24 23  1  0  0  0  0
 25 26  1  0  0  0  0
 26  3  1  0  0  0  0
 26 27  2  0  0  0  0
 29 23  1  0  0  0  0
 30 24  1  0  0  0  0
M  END
>  <minimizedAffinity>
-6.07591629

>  <minimizedRMSD>
0.527334809

$$$$
