
 OpenBabel03272507323D

 38 42  0  0  1  0  0  0  0  0999 V2000
   33.0260   27.6790   47.7910 C   0  0  0  0  0  0  0  0  0  0  0  0
   32.4670   26.5960   48.1500 O   0  0  0  0  0  0  0  0  0  0  0  0
   35.7230   29.1260   49.6390 C   0  0  0  0  0  0  0  0  0  0  0  0
   34.6830   29.5070   50.4570 C   0  0  0  0  0  0  0  0  0  0  0  0
   33.4980   29.0200   49.8830 C   0  0  0  0  0  0  0  0  0  0  0  0
   33.9040   28.3640   48.7370 C   0  0  0  0  0  0  0  0  0  0  0  0
   35.2130   28.4540   48.6370 O   0  0  0  0  0  0  0  0  0  0  0  0
   34.6670   30.0760   51.3870 H   0  0  0  0  0  0  0  0  0  0  0  0
   32.4800   29.1110   50.2220 H   0  0  0  0  0  0  0  0  0  0  0  0
   37.1060   29.4660   49.9370 C   0  0  0  0  0  0  0  0  0  0  0  0
   37.7040   28.8440   50.8250 O   0  0  0  0  0  0  0  0  0  0  0  0
   37.6990   30.5210   49.1640 C   0  0  0  0  0  0  0  0  0  0  0  0
   38.0140   31.6910   49.8320 C   0  0  0  0  0  0  0  0  0  0  0  0
   38.5910   32.7410   49.1070 C   0  0  0  0  0  0  0  0  0  0  0  0
   38.8130   32.5500   47.7650 N   0  0  0  0  0  0  0  0  0  0  0  0
   38.4970   31.4070   47.1540 C   0  0  0  0  0  0  0  0  0  0  0  0
   37.9430   30.3970   47.8420 N   0  0  0  0  0  0  0  0  0  0  0  0
   37.8460   31.8530   50.8780 H   0  0  0  0  0  0  0  0  0  0  0  0
   38.8420   33.6610   49.6250 H   0  0  0  0  0  0  0  0  0  0  0  0
   38.6680   31.2480   46.0980 H   0  0  0  0  0  0  0  0  0  0  0  0
   32.7920   28.2280   46.4310 C   0  0  1  0  0  0  0  0  0  0  0  0
   32.3610   27.0860   45.4270 C   0  0  0  0  0  0  0  0  0  0  0  0
   31.4830   28.2000   45.7740 C   0  0  1  0  0  0  0  0  0  0  0  0
   33.6960   28.7300   46.0120 H   0  0  0  0  0  0  0  0  0  0  0  0
   32.8720   27.0850   44.4430 H   0  0  0  0  0  0  0  0  0  0  0  0
   32.2690   26.0770   45.8400 H   0  0  0  0  0  0  0  0  0  0  0  0
   31.3980   29.0310   44.9980 H   0  0  0  0  0  0  0  0  0  0  0  0
   29.5850   26.7530   46.2980 C   0  0  0  0  0  3  0  0  0  0  0  0
   30.2040   27.9880   46.4860 C   0  0  0  0  0  0  0  0  0  0  0  0
   29.5460   28.8540   47.3330 C   0  0  0  0  0  0  0  0  0  0  0  0
   30.0150   29.8050   47.4980 H   0  0  0  0  0  0  0  0  0  0  0  0
   28.3590   28.5040   47.9390 C   0  0  0  0  0  0  0  0  0  0  0  0
   27.7560   27.2910   47.7510 C   0  0  0  0  0  0  0  0  0  0  0  0
   28.3800   26.3930   46.9110 C   0  0  0  0  0  3  0  0  0  0  0  0
   26.5860   27.2430   48.4910 O   0  0  0  0  0  0  0  0  0  0  0  0
   26.6320   28.3390   49.3860 C   0  0  0  0  0  3  0  0  0  0  0  0
   25.6450   28.8060   49.4120 H   0  0  0  0  0  0  0  0  0  0  0  0
   27.5670   29.2550   48.8170 O   0  0  0  0  0  0  0  0  0  0  0  0
  1  2  2  0  0  0  0
  1  6  1  0  0  0  0
  3 10  1  0  0  0  0
  3  4  2  0  0  0  0
  4  8  1  0  0  0  0
  5  9  1  0  0  0  0
  5  4  1  0  0  0  0
  6  5  2  0  0  0  0
  7  6  1  0  0  0  0
  7  3  1  0  0  0  0
 10 11  2  0  0  0  0
 12 13  1  0  0  0  0
 12 10  1  0  0  0  0
 13 18  1  0  0  0  0
 14 19  1  0  0  0  0
 14 13  2  0  0  0  0
 15 14  1  0  0  0  0
 16 15  2  0  0  0  0
 16 17  1  0  0  0  0
 17 12  2  0  0  0  0
 20 16  1  0  0  0  0
 21 24  1  6  0  0  0
 21  1  1  0  0  0  0
 22 23  1  0  0  0  0
 22 26  1  0  0  0  0
 22 21  1  0  0  0  0
 23 27  1  6  0  0  0
 23 21  1  0  0  0  0
 23 29  1  0  0  0  0
 25 22  1  0  0  0  0
 28 29  2  0  0  0  0
 28 34  1  0  0  0  0
 29 30  1  0  0  0  0
 30 31  1  0  0  0  0
 30 32  2  0  0  0  0
 32 38  1  0  0  0  0
 33 32  1  0  0  0  0
 33 35  1  0  0  0  0
 34 33  2  0  0  0  0
 35 36  1  0  0  0  0
 36 37  1  0  0  0  0
 38 36  1  0  0  0  0
M  END
>  <minimizedAffinity>
-6.26002979

>  <minimizedRMSD>
1.90203464

$$$$
