REMARK  Name = 
REMARK  5 active torsions:
REMARK  status: ('A' for Active; 'I' for Inactive)
REMARK    1  A    between atoms: C_1  and  C_6
REMARK    2  A    between atoms: C_4  and  C_14
REMARK    3  A    between atoms: C_6  and  C_8
REMARK    4  A    between atoms: C_14  and  C_16
REMARK    5  A    between atoms: C_18  and  C_29
REMARK                            x       y       z     vdW  Elec       q    Type
REMARK                         _______ _______ _______ _____ _____    ______ ____
ROOT
ATOM      1  C   UNL     1      33.061  27.503  48.228  0.00  0.00    +0.000 C 
ATOM      2  O   UNL     1      31.844  27.406  48.580  0.00  0.00    +0.000 OA
ENDROOT
BRANCH   1   6
ATOM      3  C   UNL     1      35.821  29.140  49.804  0.00  0.00    +0.000 A 
ATOM      4  C   UNL     1      34.804  29.662  50.571  0.00  0.00    +0.000 A 
ATOM      5  C   UNL     1      33.599  29.124  50.092  0.00  0.00    +0.000 A 
ATOM      6  C   UNL     1      33.970  28.298  49.050  0.00  0.00    +0.000 A 
ATOM      7  O   UNL     1      35.279  28.340  48.919  0.00  0.00    +0.000 OA
ATOM      8  H   UNL     1      34.817  30.361  51.408  0.00  0.00    +0.000 HD
ATOM      9  H   UNL     1      32.589  29.289  50.429  0.00  0.00    +0.000 HD
BRANCH   3  10
ATOM     10  C   UNL     1      37.216  29.486  50.028  0.00  0.00    +0.000 C 
ATOM     11  O   UNL     1      37.859  28.877  50.894  0.00  0.00    +0.000 OA
BRANCH  10  12
ATOM     12  C   UNL     1      37.768  30.532  49.213  0.00  0.00    +0.000 A 
ATOM     13  C   UNL     1      38.115  31.710  49.849  0.00  0.00    +0.000 A 
ATOM     14  C   UNL     1      38.653  32.751  49.083  0.00  0.00    +0.000 A 
ATOM     15  N   UNL     1      38.807  32.543  47.734  0.00  0.00    +0.000 NA
ATOM     16  C   UNL     1      38.462  31.393  47.154  0.00  0.00    +0.000 A 
ATOM     17  N   UNL     1      37.945  30.391  47.882  0.00  0.00    +0.000 NA
ATOM     18  H   UNL     1      38.000  31.886  50.900  0.00  0.00    +0.000 HD
ATOM     19  H   UNL     1      38.928  33.678  49.576  0.00  0.00    +0.000 HD
ATOM     20  H   UNL     1      38.579  31.220  46.093  0.00  0.00    +0.000 HD
ENDBRANCH  10  12
ENDBRANCH   3  10
ENDBRANCH   1   6
BRANCH   1  21
ATOM     21  C   UNL     1      33.544  26.811  47.005  0.00  0.00    +0.000 C 
ATOM     22  C   UNL     1      33.791  25.275  47.285  0.00  0.00    +0.000 C 
ATOM     23  C   UNL     1      32.786  25.750  46.337  0.00  0.00    +0.000 C 
ATOM     24  H   UNL     1      34.495  27.246  46.617  0.00  0.00    +0.000 HD
ATOM     25  H   UNL     1      34.743  24.858  46.901  0.00  0.00    +0.000 HD
ATOM     26  H   UNL     1      33.565  24.916  48.294  0.00  0.00    +0.000 HD
ATOM     27  H   UNL     1      33.067  25.681  45.234  0.00  0.00    +0.000 HD
BRANCH  23  29
ATOM     28  C   UNL     1      30.805  24.381  45.923  0.00  0.00    +0.000 A 
ATOM     29  C   UNL     1      31.343  25.506  46.548  0.00  0.00    +0.000 A 
ATOM     30  C   UNL     1      30.454  26.243  47.300  0.00  0.00    +0.000 A 
ATOM     31  H   UNL     1      30.855  27.105  47.797  0.00  0.00    +0.000 HD
ATOM     32  C   UNL     1      29.130  25.876  47.413  0.00  0.00    +0.000 A 
ATOM     33  C   UNL     1      28.608  24.773  46.799  0.00  0.00    +0.000 A 
ATOM     34  C   UNL     1      29.462  24.005  46.035  0.00  0.00    +0.000 A 
ATOM     35  O   UNL     1      27.261  24.675  47.103  0.00  0.00    +0.000 OA
ATOM     36  C   UNL     1      27.023  25.573  48.171  0.00  0.00    +0.000 C 
ATOM     37  H   UNL     1      26.088  26.102  47.978  0.00  0.00    +0.000 HD
ATOM     38  O   UNL     1      28.104  26.505  48.129  0.00  0.00    +0.000 OA
ENDBRANCH  23  29
ENDBRANCH   1  21
TORSDOF 5
