
 OpenBabel03272510263D

 47 52  0  0  1  0  0  0  0  0999 V2000
   38.8700   31.7580   41.4390 N   0  0  0  0  0  0  0  0  0  0  0  0
   38.9210   33.1840   41.5840 C   0  0  1  0  0  0  0  0  0  0  0  0
   37.6300   33.7890   41.2830 C   0  0  0  0  0  0  0  0  0  0  0  0
   37.3100   33.5340   39.9420 O   0  0  0  0  0  0  0  0  0  0  0  0
   37.3340   32.2050   39.5840 C   0  0  0  0  0  0  0  0  0  0  0  0
   38.5700   31.4960   40.0470 C   0  0  1  0  0  0  0  0  0  0  0  0
   38.4490   31.1820   42.1260 H   0  0  0  0  0  0  0  0  0  0  0  0
   39.7010   33.5690   40.9140 H   0  0  0  0  0  0  0  0  0  0  0  0
   37.7800   34.9120   41.3050 H   0  0  0  0  0  0  0  0  0  0  0  0
   36.7300   33.5960   41.8010 H   0  0  0  0  0  0  0  0  0  0  0  0
   36.4000   31.6860   39.9420 H   0  0  0  0  0  0  0  0  0  0  0  0
   37.2740   32.1430   38.4830 H   0  0  0  0  0  0  0  0  0  0  0  0
   38.3130   30.3960   40.0170 H   0  0  0  0  0  0  0  0  0  0  0  0
   39.9650   32.4680   38.0890 C   0  0  0  0  0  3  0  0  0  0  0  0
   39.7430   31.6620   39.1850 C   0  0  0  0  0  0  0  0  0  0  0  0
   40.7860   30.8250   39.6010 C   0  0  0  0  0  0  0  0  0  0  0  0
   40.7640   30.1300   40.4500 H   0  0  0  0  0  0  0  0  0  0  0  0
   42.0090   30.8090   38.9260 C   0  0  0  0  0  0  0  0  0  0  0  0
   42.1410   31.6460   37.8430 C   0  0  0  0  0  0  0  0  0  0  0  0
   41.1530   32.4780   37.4020 C   0  0  0  0  0  3  0  0  0  0  0  0
   43.4280   31.4680   37.3280 O   0  0  0  0  0  0  0  0  0  0  0  0
   44.0080   30.3680   37.9830 C   0  0  0  0  0  3  0  0  0  0  0  0
   45.0600   30.5600   38.2860 H   0  0  0  0  0  0  0  0  0  0  0  0
   43.2020   30.1050   39.0970 O   0  0  0  0  0  0  0  0  0  0  0  0
   39.3020   33.4510   42.9280 O   0  0  0  0  0  0  0  0  0  0  0  0
   36.1770   30.1930   46.7270 C   0  0  0  0  0  0  0  0  0  0  0  0
   37.0650   30.7550   47.6350 C   0  0  0  0  0  0  0  0  0  0  0  0
   38.0540   31.6430   47.2120 C   0  0  0  0  0  0  0  0  0  0  0  0
   38.0920   31.9210   45.8500 C   0  0  0  0  0  0  0  0  0  0  0  0
   38.9700   32.7610   45.2020 N   0  0  0  0  0  0  0  0  0  0  0  0
   38.6240   32.7140   43.9010 C   0  0  0  0  0  0  0  0  0  0  0  0
   37.5960   31.9020   43.7330 N   0  0  0  0  0  0  0  0  0  0  0  0
   37.2350   31.3880   44.9220 C   0  0  0  0  0  0  0  0  0  0  0  0
   36.2510   30.5000   45.3770 C   0  0  0  0  0  0  0  0  0  0  0  0
   35.4010   29.5010   47.0370 H   0  0  0  0  0  0  0  0  0  0  0  0
   38.7560   32.0930   47.9010 H   0  0  0  0  0  0  0  0  0  0  0  0
   39.7450   33.3140   45.6490 H   0  0  0  0  0  0  0  0  0  0  0  0
   35.5710   30.0740   44.6510 H   0  0  0  0  0  0  0  0  0  0  0  0
   37.5640   30.2820   51.3320 C   0  0  0  0  0  0  0  0  0  0  0  0
   37.8410   30.7000   50.0290 C   0  0  0  0  0  0  0  0  0  0  0  0
   36.9410   30.4020   49.0340 C   0  0  0  0  0  0  0  0  0  0  0  0
   35.8060   29.7010   49.3930 N   0  0  0  0  0  0  0  0  0  0  0  0
   35.5620   29.3100   50.6600 C   0  0  0  0  0  0  0  0  0  0  0  0
   36.4280   29.5960   51.6100 N   0  0  0  0  0  0  0  0  0  0  0  0
   38.2960   30.5360   52.0820 H   0  0  0  0  0  0  0  0  0  0  0  0
   38.7230   31.2470   49.7430 H   0  0  0  0  0  0  0  0  0  0  0  0
   34.6440   28.7700   50.8060 H   0  0  0  0  0  0  0  0  0  0  0  0
  1  2  1  0  0  0  0
  1  7  1  0  0  0  0
  2  8  1  6  0  0  0
  2 25  1  0  0  0  0
  3  9  1  0  0  0  0
  3  2  1  0  0  0  0
  3 10  1  0  0  0  0
  4  3  1  0  0  0  0
  5 11  1  0  0  0  0
  5  4  1  0  0  0  0
  5  6  1  0  0  0  0
  6 13  1  6  0  0  0
  6  1  1  0  0  0  0
 12  5  1  0  0  0  0
 14 15  1  0  0  0  0
 15 16  2  0  0  0  0
 15  6  1  0  0  0  0
 16 17  1  0  0  0  0
 18 24  1  0  0  0  0
 18 16  1  0  0  0  0
 19 18  2  0  0  0  0
 20 19  1  0  0  0  0
 20 14  2  0  0  0  0
 21 19  1  0  0  0  0
 21 22  1  0  0  0  0
 22 23  1  0  0  0  0
 22 24  1  0  0  0  0
 25 31  1  0  0  0  0
 26 35  1  0  0  0  0
 26 27  1  0  0  0  0
 27 41  1  0  0  0  0
 28 27  2  0  0  0  0
 28 36  1  0  0  0  0
 29 28  1  0  0  0  0
 30 37  1  0  0  0  0
 30 29  1  0  0  0  0
 31 30  1  0  0  0  0
 32 31  2  0  0  0  0
 32 33  1  0  0  0  0
 33 34  1  0  0  0  0
 33 29  2  0  0  0  0
 34 26  2  0  0  0  0
 38 34  1  0  0  0  0
 39 44  1  0  0  0  0
 39 45  1  0  0  0  0
 40 39  2  0  0  0  0
 41 42  2  0  0  0  0
 41 40  1  0  0  0  0
 42 43  1  0  0  0  0
 43 47  1  0  0  0  0
 43 44  2  0  0  0  0
 46 40  1  0  0  0  0
M  END
>  <minimizedAffinity>
-6.07744122

>  <minimizedRMSD>
0.858663559

$$$$
