
 OpenBabel03272507333D

 38 42  0  0  1  0  0  0  0  0999 V2000
   33.0320   27.8560   48.5720 C   0  0  0  0  0  0  0  0  0  0  0  0
   31.8780   27.7290   49.0870 O   0  0  0  0  0  0  0  0  0  0  0  0
   36.0200   29.3160   49.8850 C   0  0  0  0  0  0  0  0  0  0  0  0
   35.1260   29.8000   50.8130 C   0  0  0  0  0  0  0  0  0  0  0  0
   33.8540   29.3230   50.4590 C   0  0  0  0  0  0  0  0  0  0  0  0
   34.0630   28.5700   49.3220 C   0  0  0  0  0  0  0  0  0  0  0  0
   35.3450   28.5950   49.0240 O   0  0  0  0  0  0  0  0  0  0  0  0
   35.2670   30.4350   51.6890 H   0  0  0  0  0  0  0  0  0  0  0  0
   32.9010   29.4830   50.9360 H   0  0  0  0  0  0  0  0  0  0  0  0
   37.4420   29.6170   49.9490 C   0  0  0  0  0  0  0  0  0  0  0  0
   38.1570   28.9920   50.7440 O   0  0  0  0  0  0  0  0  0  0  0  0
   37.9330   30.6380   49.0660 C   0  0  0  0  0  0  0  0  0  0  0  0
   38.2610   31.8560   49.6320 C   0  0  0  0  0  0  0  0  0  0  0  0
   38.7400   32.8740   48.7990 C   0  0  0  0  0  0  0  0  0  0  0  0
   38.8580   32.6040   47.4580 N   0  0  0  0  0  0  0  0  0  0  0  0
   38.5330   31.4170   46.9460 C   0  0  0  0  0  0  0  0  0  0  0  0
   38.0730   30.4360   47.7380 N   0  0  0  0  0  0  0  0  0  0  0  0
   38.1730   32.0800   50.6770 H   0  0  0  0  0  0  0  0  0  0  0  0
   39.0000   33.8330   49.2370 H   0  0  0  0  0  0  0  0  0  0  0  0
   38.6220   31.1950   45.8910 H   0  0  0  0  0  0  0  0  0  0  0  0
   33.3220   27.2800   47.2330 C   0  0  1  0  0  0  0  0  0  0  0  0
   32.6060   25.8830   47.0520 C   0  0  0  0  0  0  0  0  0  0  0  0
   32.2860   27.0440   46.2250 C   0  0  1  0  0  0  0  0  0  0  0  0
   34.4140   27.1300   47.0620 H   0  0  0  0  0  0  0  0  0  0  0  0
   33.2270   25.0690   46.6260 H   0  0  0  0  0  0  0  0  0  0  0  0
   31.9900   25.5330   47.8870 H   0  0  0  0  0  0  0  0  0  0  0  0
   32.7310   27.0470   45.1750 H   0  0  0  0  0  0  0  0  0  0  0  0
   30.8890   29.0230   45.9110 C   0  0  0  0  0  3  0  0  0  0  0  0
   30.9480   27.6710   46.2520 C   0  0  0  0  0  0  0  0  0  0  0  0
   29.7370   27.0890   46.5580 C   0  0  0  0  0  0  0  0  0  0  0  0
   29.7640   26.0470   46.8110 H   0  0  0  0  0  0  0  0  0  0  0  0
   28.5620   27.8090   46.5230 C   0  0  0  0  0  0  0  0  0  0  0  0
   28.5100   29.1320   46.1890 C   0  0  0  0  0  0  0  0  0  0  0  0
   29.6980   29.7580   45.8750 C   0  0  0  0  0  3  0  0  0  0  0  0
   27.1970   29.5670   46.2460 O   0  0  0  0  0  0  0  0  0  0  0  0
   26.3920   28.4050   46.3270 C   0  0  0  0  0  3  0  0  0  0  0  0
   25.6060   28.5780   47.0660 H   0  0  0  0  0  0  0  0  0  0  0  0
   27.2600   27.3750   46.8030 O   0  0  0  0  0  0  0  0  0  0  0  0
  1  2  2  0  0  0  0
  1  6  1  0  0  0  0
  3 10  1  0  0  0  0
  3  4  2  0  0  0  0
  4  8  1  0  0  0  0
  5  4  1  0  0  0  0
  5  9  1  0  0  0  0
  6  5  2  0  0  0  0
  7  6  1  0  0  0  0
  7  3  1  0  0  0  0
 10 11  2  0  0  0  0
 12 13  1  0  0  0  0
 12 10  1  0  0  0  0
 13 18  1  0  0  0  0
 14 19  1  0  0  0  0
 14 13  2  0  0  0  0
 15 14  1  0  0  0  0
 16 15  2  0  0  0  0
 16 17  1  0  0  0  0
 17 12  2  0  0  0  0
 20 16  1  0  0  0  0
 21 24  1  6  0  0  0
 21  1  1  0  0  0  0
 22 21  1  0  0  0  0
 22 26  1  0  0  0  0
 23 27  1  6  0  0  0
 23 29  1  0  0  0  0
 23 22  1  0  0  0  0
 23 21  1  0  0  0  0
 25 22  1  0  0  0  0
 28 29  1  0  0  0  0
 29 30  2  0  0  0  0
 30 31  1  0  0  0  0
 32 30  1  0  0  0  0
 32 38  1  0  0  0  0
 33 35  1  0  0  0  0
 33 32  2  0  0  0  0
 34 28  2  0  0  0  0
 34 33  1  0  0  0  0
 35 36  1  0  0  0  0
 36 38  1  0  0  0  0
 36 37  1  0  0  0  0
M  END
>  <minimizedAffinity>
-5.79466534

>  <minimizedRMSD>
2.23001218

$$$$
