
     RDKit          3D

 38 41  0  0  0  0  0  0  0  0999 V2000
   33.5973   28.7101   49.0268 N   0  0  0  0  0  0  0  0  0  0  0  0
   34.4399   29.8806   48.9372 C   0  0  2  0  0  0  0  0  0  0  0  0
   34.3611   30.3961   47.5213 C   0  0  0  0  0  0  0  0  0  0  0  0
   33.2526   29.8607   46.8286 O   0  0  0  0  0  0  0  0  0  0  0  0
   33.5396   28.5062   46.6588 C   0  0  0  0  0  0  0  0  0  0  0  0
   33.9224   27.8168   47.9529 C   0  0  2  0  0  0  0  0  0  0  0  0
   33.1871   26.6257   48.1166 O   0  0  0  0  0  0  0  0  0  0  0  0
   36.1763   29.4443   49.3216 S   0  0  0  0  0  0  0  0  0  0  0  0
   37.2878   30.7318   48.8088 C   0  0  0  0  0  0  0  0  0  0  0  0
   37.2228   31.8675   49.6486 C   0  0  0  0  0  0  0  0  0  0  0  0
   38.0399   32.9586   49.3683 C   0  0  0  0  0  0  0  0  0  0  0  0
   38.8736   32.8549   48.2685 N   0  0  0  0  0  0  0  0  0  0  0  0
   38.9076   31.7706   47.5015 C   0  0  0  0  0  0  0  0  0  0  0  0
   38.1181   30.7152   47.7715 N   0  0  0  0  0  0  0  0  0  0  0  0
   33.6551   28.2758   49.9630 H   0  0  0  0  0  0  0  0  0  0  0  0
   34.1256   30.6150   49.7037 H   0  0  0  0  0  0  0  0  0  0  0  0
   35.2989   30.2737   46.9753 H   0  0  0  0  0  0  0  0  0  0  0  0
   34.1811   31.5074   47.5938 H   0  0  0  0  0  0  0  0  0  0  0  0
   32.5882   28.0386   46.2992 H   0  0  0  0  0  0  0  0  0  0  0  0
   34.2843   28.3195   45.8577 H   0  0  0  0  0  0  0  0  0  0  0  0
   35.0132   27.6220   47.9584 H   0  0  0  0  0  0  0  0  0  0  0  0
   33.2880   26.0364   47.3213 H   0  0  0  0  0  0  0  0  0  0  0  0
   36.5771   31.9671   50.5132 H   0  0  0  0  0  0  0  0  0  0  0  0
   38.0057   33.8367   49.9977 H   0  0  0  0  0  0  0  0  0  0  0  0
   41.1581   31.8002   46.4758 C   0  0  0  0  0  0  0  0  0  0  0  0
   39.7942   31.6942   46.3545 C   0  0  0  0  0  0  0  0  0  0  0  0
   39.2576   31.5110   45.1120 C   0  0  0  0  0  0  0  0  0  0  0  0
   38.1984   31.4282   45.0140 H   0  0  0  0  0  0  0  0  0  0  0  0
   40.1121   31.4410   44.0358 C   0  0  0  0  0  0  0  0  0  0  0  0
   41.4963   31.5409   44.0950 C   0  0  0  0  0  0  0  0  0  0  0  0
   41.9919   31.7258   45.3746 C   0  0  0  0  0  0  0  0  0  0  0  0
   41.9495   31.4183   42.8028 O   0  0  0  0  0  0  0  0  0  0  0  0
   40.8773   31.7431   41.9387 C   0  0  2  0  0  0  0  0  0  0  0  0
   40.9664   31.2377   40.9486 H   0  0  0  0  0  0  0  0  0  0  0  0
   39.7694   31.2592   42.6965 O   0  0  0  0  0  0  0  0  0  0  0  0
   41.5813   31.9475   47.4779 H   0  0  0  0  0  0  0  0  0  0  0  0
   43.0778   31.8085   45.4569 H   0  0  0  0  0  0  0  0  0  0  0  0
   40.7822   32.8255   41.7455 H   0  0  0  0  0  0  0  0  0  0  0  0
  2  1  1  0
  2  8  1  0
  3  2  1  0
  4  3  1  0
  5  4  1  0
  5  6  1  0
  6  7  1  0
  6  1  1  0
  9  8  1  0
  9 10  2  0
 11 10  1  0
 12 11  2  0
 13 14  2  0
 13 12  1  0
 14  9  1  0
  1 15  1  0
  2 16  1  1
  3 17  1  0
  3 18  1  0
  5 19  1  0
  5 20  1  0
  6 21  1  6
  7 22  1  0
 10 23  1  0
 11 24  1  0
 25 26  2  0
 26 27  1  0
 27 28  1  0
 27 29  2  0
 29 30  1  0
 30 31  2  0
 30 32  1  0
 32 33  1  0
 33 34  1  6
 33 35  1  0
 31 25  1  0
 35 29  1  0
 25 36  1  0
 31 37  1  0
 33 38  1  0
 13 26  1  0
M  ISO  8  15   5  16  13  17  13  18  13  19  13  20  13  21  13  22   3
M  ISO  4  23  14  24  14  28  16  34   8
M  END
>  <DihAtoms>  (1) 
13,12,25,24

>  <DihDeg>  (1) 
0.0002478480410139709

$$$$
