
 OpenBabel03272507333D

 38 42  0  0  1  0  0  0  0  0999 V2000
   33.0280   27.6750   47.7970 C   0  0  0  0  0  0  0  0  0  0  0  0
   32.4740   26.5900   48.1550 O   0  0  0  0  0  0  0  0  0  0  0  0
   35.7250   29.1270   49.6410 C   0  0  0  0  0  0  0  0  0  0  0  0
   34.6850   29.5090   50.4580 C   0  0  0  0  0  0  0  0  0  0  0  0
   33.5000   29.0200   49.8850 C   0  0  0  0  0  0  0  0  0  0  0  0
   33.9060   28.3620   48.7410 C   0  0  0  0  0  0  0  0  0  0  0  0
   35.2150   28.4520   48.6400 O   0  0  0  0  0  0  0  0  0  0  0  0
   34.6690   30.0790   51.3880 H   0  0  0  0  0  0  0  0  0  0  0  0
   32.4820   29.1110   50.2250 H   0  0  0  0  0  0  0  0  0  0  0  0
   37.1080   29.4680   49.9370 C   0  0  0  0  0  0  0  0  0  0  0  0
   37.7070   28.8480   50.8260 O   0  0  0  0  0  0  0  0  0  0  0  0
   37.7000   30.5230   49.1630 C   0  0  0  0  0  0  0  0  0  0  0  0
   38.0130   31.6940   49.8290 C   0  0  0  0  0  0  0  0  0  0  0  0
   38.5890   32.7430   49.1030 C   0  0  0  0  0  0  0  0  0  0  0  0
   38.8120   32.5500   47.7610 N   0  0  0  0  0  0  0  0  0  0  0  0
   38.4980   31.4060   47.1520 C   0  0  0  0  0  0  0  0  0  0  0  0
   37.9450   30.3960   47.8420 N   0  0  0  0  0  0  0  0  0  0  0  0
   37.8440   31.8590   50.8740 H   0  0  0  0  0  0  0  0  0  0  0  0
   38.8370   33.6650   49.6190 H   0  0  0  0  0  0  0  0  0  0  0  0
   38.6700   31.2450   46.0960 H   0  0  0  0  0  0  0  0  0  0  0  0
   32.7890   28.2250   46.4370 C   0  0  1  0  0  0  0  0  0  0  0  0
   32.3540   27.0830   45.4340 C   0  0  0  0  0  0  0  0  0  0  0  0
   31.4770   28.1970   45.7850 C   0  0  1  0  0  0  0  0  0  0  0  0
   33.6920   28.7260   46.0150 H   0  0  0  0  0  0  0  0  0  0  0  0
   32.8610   27.0820   44.4490 H   0  0  0  0  0  0  0  0  0  0  0  0
   32.2630   26.0730   45.8480 H   0  0  0  0  0  0  0  0  0  0  0  0
   31.3900   29.0280   45.0100 H   0  0  0  0  0  0  0  0  0  0  0  0
   29.5930   26.7410   46.3330 C   0  0  0  0  0  3  0  0  0  0  0  0
   30.2020   27.9850   46.5030 C   0  0  0  0  0  0  0  0  0  0  0  0
   29.5360   28.8570   47.3360 C   0  0  0  0  0  0  0  0  0  0  0  0
   29.9970   29.8140   47.4860 H   0  0  0  0  0  0  0  0  0  0  0  0
   28.3520   28.5050   47.9490 C   0  0  0  0  0  0  0  0  0  0  0  0
   27.7600   27.2850   47.7800 C   0  0  0  0  0  0  0  0  0  0  0  0
   28.3920   26.3790   46.9540 C   0  0  0  0  0  3  0  0  0  0  0  0
   26.5920   27.2380   48.5220 O   0  0  0  0  0  0  0  0  0  0  0  0
   26.6280   28.3470   49.4000 C   0  0  0  0  0  3  0  0  0  0  0  0
   25.6370   28.8060   49.4200 H   0  0  0  0  0  0  0  0  0  0  0  0
   27.5550   29.2620   48.8160 O   0  0  0  0  0  0  0  0  0  0  0  0
  1  2  2  0  0  0  0
  1  6  1  0  0  0  0
  3 10  1  0  0  0  0
  3  4  2  0  0  0  0
  4  8  1  0  0  0  0
  5  9  1  0  0  0  0
  5  4  1  0  0  0  0
  6  5  2  0  0  0  0
  7  6  1  0  0  0  0
  7  3  1  0  0  0  0
 10 11  2  0  0  0  0
 12 13  1  0  0  0  0
 12 10  1  0  0  0  0
 13 18  1  0  0  0  0
 14 19  1  0  0  0  0
 14 13  2  0  0  0  0
 15 14  1  0  0  0  0
 16 15  2  0  0  0  0
 16 17  1  0  0  0  0
 17 12  2  0  0  0  0
 20 16  1  0  0  0  0
 21 24  1  6  0  0  0
 21  1  1  0  0  0  0
 22 23  1  0  0  0  0
 22 26  1  0  0  0  0
 22 21  1  0  0  0  0
 23 27  1  6  0  0  0
 23 21  1  0  0  0  0
 23 29  1  0  0  0  0
 25 22  1  0  0  0  0
 28 29  2  0  0  0  0
 28 34  1  0  0  0  0
 29 30  1  0  0  0  0
 30 31  1  0  0  0  0
 30 32  2  0  0  0  0
 32 38  1  0  0  0  0
 33 32  1  0  0  0  0
 33 35  1  0  0  0  0
 34 33  2  0  0  0  0
 35 36  1  0  0  0  0
 36 37  1  0  0  0  0
 38 36  1  0  0  0  0
M  END
>  <minimizedAffinity>
-6.26540661

>  <minimizedRMSD>
1.86643457

$$$$
