
 OpenBabel03262523303D

 35 39  0  0  0  0  0  0  0  0999 V2000
   35.4070   29.3950   50.5270 C   0  0  0  0  0  0  0  0  0  0  0  0
   36.2370   30.1340   49.6920 C   0  0  0  0  0  0  0  0  0  0  0  0
   36.0370   30.0210   48.3130 C   0  0  0  0  0  0  0  0  0  0  0  0
   35.0490   29.1980   47.8210 N   0  0  0  0  0  0  0  0  0  0  0  0
   34.2680   28.5000   48.6980 C   0  0  0  0  0  0  0  0  0  0  0  0
   34.4480   28.6000   50.0280 N   0  0  0  0  0  0  0  0  0  0  0  0
   35.5670   29.4930   51.5900 H   0  0  0  0  0  0  0  0  0  0  0  0
   37.0150   30.7830   50.0580 H   0  0  0  0  0  0  0  0  0  0  0  0
   36.5270   30.5360   45.9900 C   0  0  0  0  0  0  0  0  0  0  0  0
   36.8380   30.7460   47.3300 C   0  0  0  0  0  0  0  0  0  0  0  0
   37.8550   31.6050   47.6640 C   0  0  0  0  0  0  0  0  0  0  0  0
   38.5470   32.2420   46.6480 C   0  0  0  0  0  0  0  0  0  0  0  0
   39.5790   33.1250   46.7340 N   0  0  0  0  0  0  0  0  0  0  0  0
   39.9120   33.4650   45.4840 C   0  0  0  0  0  0  0  0  0  0  0  0
   39.1220   32.8240   44.6040 N   0  0  0  0  0  0  0  0  0  0  0  0
   38.2610   32.0540   45.3000 C   0  0  0  0  0  0  0  0  0  0  0  0
   37.2290   31.1810   44.9740 C   0  0  0  0  0  0  0  0  0  0  0  0
   35.7510   29.8850   45.6480 H   0  0  0  0  0  0  0  0  0  0  0  0
   38.1040   31.7730   48.7140 H   0  0  0  0  0  0  0  0  0  0  0  0
   40.0610   33.5010   47.6040 H   0  0  0  0  0  0  0  0  0  0  0  0
   40.7110   34.1610   45.2490 H   0  0  0  0  0  0  0  0  0  0  0  0
   36.9930   31.0260   43.9160 H   0  0  0  0  0  0  0  0  0  0  0  0
   33.2300   27.6610   48.1070 C   0  0  0  0  0  0  0  0  0  0  0  0
   33.5580   26.6300   47.4290 O   0  0  0  0  0  0  0  0  0  0  0  0
   31.0150   27.5670   49.3260 C   0  0  0  0  0  0  0  0  0  0  0  0
   31.7610   27.8630   48.1950 C   0  0  0  0  0  0  0  0  0  0  0  0
   31.1020   28.4170   47.1010 C   0  0  0  0  0  0  0  0  0  0  0  0
   31.6560   28.6670   46.1800 H   0  0  0  0  0  0  0  0  0  0  0  0
   29.7510   28.6690   47.1350 C   0  0  0  0  0  0  0  0  0  0  0  0
   29.0050   28.3730   48.2660 C   0  0  0  0  0  0  0  0  0  0  0  0
   29.6480   27.8240   49.3460 C   0  0  0  0  0  0  0  0  0  0  0  0
   27.6660   28.7510   47.9680 O   0  0  0  0  0  0  0  0  0  0  0  0
   27.7680   29.7920   46.9930 C   0  0  0  0  0  0  0  0  0  0  0  0
   26.8870   29.8780   46.3500 H   0  0  0  0  0  0  0  0  0  0  0  0
   28.8270   29.2190   46.1990 O   0  0  0  0  0  0  0  0  0  0  0  0
  1  7  1  0  0  0  0
  2  8  1  0  0  0  0
  2  1  2  0  0  0  0
  3  2  1  0  0  0  0
  4  3  2  0  0  0  0
  4  5  1  0  0  0  0
  5  6  2  0  0  0  0
  6  1  1  0  0  0  0
  9 10  1  0  0  0  0
 10 11  2  0  0  0  0
 10  3  1  0  0  0  0
 11 19  1  0  0  0  0
 12 13  1  0  0  0  0
 12 11  1  0  0  0  0
 13 20  1  0  0  0  0
 14 13  1  0  0  0  0
 15 16  1  0  0  0  0
 15 14  2  0  0  0  0
 16 12  2  0  0  0  0
 17 16  1  0  0  0  0
 17  9  2  0  0  0  0
 18  9  1  0  0  0  0
 21 14  1  0  0  0  0
 22 17  1  0  0  0  0
 23 26  1  0  0  0  0
 23  5  1  0  0  0  0
 24 23  2  0  0  0  0
 25 31  1  0  0  0  0
 26 25  2  0  0  0  0
 27 29  2  0  0  0  0
 27 26  1  0  0  0  0
 28 27  1  0  0  0  0
 29 30  1  0  0  0  0
 30 31  2  0  0  0  0
 32 30  1  0  0  0  0
 33 32  1  0  0  0  0
 34 33  1  0  0  0  0
 35 33  1  0  0  0  0
 35 29  1  0  0  0  0
M  END
>  <minimizedAffinity>
-6.87895298

>  <minimizedRMSD>
2.94095612

$$$$
