
 OpenBabel03272508303D

 34 37  0  0  1  0  0  0  0  0999 V2000
   36.6780   29.5450   43.3270 N   0  0  0  0  0  0  0  0  0  0  0  0
   36.5020   29.4120   41.8860 C   0  0  0  0  0  0  0  0  0  0  0  0
   37.6740   28.8150   41.2030 C   0  0  0  0  0  0  0  0  0  0  0  0
   38.4360   28.0260   42.1330 N   0  0  0  0  0  0  0  0  0  0  0  0
   39.0480   28.9610   43.0680 C   0  0  0  0  0  0  0  0  0  0  0  0
   37.9430   29.3440   44.0180 C   0  0  1  0  0  0  0  0  0  0  0  0
   35.6170   28.7550   41.7430 H   0  0  0  0  0  0  0  0  0  0  0  0
   36.1780   30.3940   41.4340 H   0  0  0  0  0  0  0  0  0  0  0  0
   37.3260   28.1280   40.3880 H   0  0  0  0  0  0  0  0  0  0  0  0
   38.3080   29.5600   40.6720 H   0  0  0  0  0  0  0  0  0  0  0  0
   39.1410   27.4470   41.6440 H   0  0  0  0  0  0  0  0  0  0  0  0
   39.8440   28.4720   43.6750 H   0  0  0  0  0  0  0  0  0  0  0  0
   39.4500   29.8110   42.4830 H   0  0  0  0  0  0  0  0  0  0  0  0
   37.7820   28.4740   44.6890 H   0  0  0  0  0  0  0  0  0  0  0  0
   38.6610   31.7530   44.3500 C   0  0  0  0  0  3  0  0  0  0  0  0
   38.3180   30.5160   44.8560 C   0  0  0  0  0  0  0  0  0  0  0  0
   38.3100   30.3080   46.2310 C   0  0  0  0  0  0  0  0  0  0  0  0
   38.0560   29.3780   46.7160 H   0  0  0  0  0  0  0  0  0  0  0  0
   38.6510   31.3650   47.0440 C   0  0  0  0  0  0  0  0  0  0  0  0
   38.9960   32.6120   46.5150 C   0  0  0  0  0  0  0  0  0  0  0  0
   39.0060   32.8270   45.1370 C   0  0  0  0  0  3  0  0  0  0  0  0
   39.2940   33.4910   47.5700 O   0  0  0  0  0  0  0  0  0  0  0  0
   38.7490   32.9120   48.7400 C   0  0  0  0  0  3  0  0  0  0  0  0
   37.7220   33.3280   48.8570 H   0  0  0  0  0  0  0  0  0  0  0  0
   38.7520   31.5290   48.4340 O   0  0  0  0  0  0  0  0  0  0  0  0
   35.4830   29.5540   45.4790 C   0  0  0  0  0  0  0  0  0  0  0  0
   35.5550   29.8910   44.1250 C   0  0  0  0  0  0  0  0  0  0  0  0
   34.4770   30.5830   43.5890 C   0  0  0  0  0  0  0  0  0  0  0  0
   33.4120   30.9000   44.3900 N   0  0  0  0  0  0  0  0  0  0  0  0
   33.4050   30.5430   45.6960 C   0  0  0  0  0  0  0  0  0  0  0  0
   34.4330   29.8670   46.2610 N   0  0  0  0  0  0  0  0  0  0  0  0
   36.3000   29.0170   45.9310 H   0  0  0  0  0  0  0  0  0  0  0  0
   34.4770   30.8700   42.5500 H   0  0  0  0  0  0  0  0  0  0  0  0
   32.5870   30.7690   46.3700 H   0  0  0  0  0  0  0  0  0  0  0  0
  1  6  1  0  0  0  0
  1 27  1  0  0  0  0
  2  1  1  0  0  0  0
  3  2  1  0  0  0  0
  3  4  1  0  0  0  0
  4  5  1  0  0  0  0
  5 12  1  0  0  0  0
  5  6  1  0  0  0  0
  6 14  1  1  0  0  0
  6 16  1  0  0  0  0
  7  2  1  0  0  0  0
  8  2  1  0  0  0  0
  9  3  1  0  0  0  0
 10  3  1  0  0  0  0
 11  4  1  0  0  0  0
 13  5  1  0  0  0  0
 15 16  2  0  0  0  0
 15 21  1  0  0  0  0
 16 17  1  0  0  0  0
 17 18  1  0  0  0  0
 17 19  2  0  0  0  0
 19 25  1  0  0  0  0
 20 19  1  0  0  0  0
 20 22  1  0  0  0  0
 21 20  2  0  0  0  0
 22 23  1  0  0  0  0
 23 24  1  0  0  0  0
 25 23  1  0  0  0  0
 26 32  1  0  0  0  0
 26 31  1  0  0  0  0
 27 26  2  0  0  0  0
 28 27  1  0  0  0  0
 28 29  2  0  0  0  0
 29 30  1  0  0  0  0
 30 31  2  0  0  0  0
 30 34  1  0  0  0  0
 33 28  1  0  0  0  0
M  END
>  <minimizedAffinity>
-3.55845475

>  <minimizedRMSD>
5.89830399

$$$$
