
 OpenBabel03272500383D

 38 41  0  0  1  0  0  0  0  0999 V2000
   38.5820   24.2800   35.4760 C   0  0  0  0  0  0  0  0  0  0  0  0
   39.7960   23.6330   35.7970 C   0  0  0  0  0  0  0  0  0  0  0  0
   40.0420   22.3820   35.2180 C   0  0  0  0  0  0  0  0  0  0  0  0
   39.0850   21.8780   34.3840 N   0  0  0  0  0  0  0  0  0  0  0  0
   37.9330   22.5340   34.1040 C   0  0  0  0  0  0  0  0  0  0  0  0
   37.7000   23.7290   34.6570 N   0  0  0  0  0  0  0  0  0  0  0  0
   37.0070   21.9050   33.2150 N   0  0  0  0  0  0  0  0  0  0  0  0
   35.9950   21.0480   33.7610 C   0  0  0  0  0  0  0  0  0  0  0  0
   35.9910   19.8110   32.8590 C   0  0  0  0  0  0  0  0  0  0  0  0
   35.4230   20.3040   31.5430 C   0  0  0  0  0  0  0  0  0  0  0  0
   36.4380   21.2010   30.9140 C   0  0  0  0  0  0  0  0  0  0  0  0
   37.1320   22.1550   31.8230 C   0  0  1  0  0  0  0  0  0  0  0  0
   40.5460   24.0500   36.4630 H   0  0  0  0  0  0  0  0  0  0  0  0
   40.9470   21.8750   35.4420 H   0  0  0  0  0  0  0  0  0  0  0  0
   34.9830   21.4960   33.7170 H   0  0  0  0  0  0  0  0  0  0  0  0
   36.1730   20.7720   34.8150 H   0  0  0  0  0  0  0  0  0  0  0  0
   37.0070   19.4070   32.7270 H   0  0  0  0  0  0  0  0  0  0  0  0
   35.2870   19.0540   33.3100 H   0  0  0  0  0  0  0  0  0  0  0  0
   34.4330   20.7340   31.6990 H   0  0  0  0  0  0  0  0  0  0  0  0
   35.2900   19.3960   30.9180 H   0  0  0  0  0  0  0  0  0  0  0  0
   35.9120   21.8020   30.1270 H   0  0  0  0  0  0  0  0  0  0  0  0
   37.1430   20.5420   30.3390 H   0  0  0  0  0  0  0  0  0  0  0  0
   38.2340   22.0690   31.5900 H   0  0  0  0  0  0  0  0  0  0  0  0
   35.4910   24.0180   31.4250 C   0  0  0  0  0  3  0  0  0  0  0  0
   36.7810   23.5680   31.5120 C   0  0  0  0  0  0  0  0  0  0  0  0
   37.7650   24.5360   31.2870 C   0  0  0  0  0  0  0  0  0  0  0  0
   38.8220   24.2320   31.3440 H   0  0  0  0  0  0  0  0  0  0  0  0
   37.4290   25.8410   30.9990 C   0  0  0  0  0  0  0  0  0  0  0  0
   36.1080   26.2480   30.9220 C   0  0  0  0  0  0  0  0  0  0  0  0
   35.1310   25.3050   31.1420 C   0  0  0  0  0  3  0  0  0  0  0  0
   36.0540   27.5970   30.6220 O   0  0  0  0  0  0  0  0  0  0  0  0
   37.3300   27.9730   30.1250 C   0  0  0  0  0  3  0  0  0  0  0  0
   37.3000   27.9080   29.0270 H   0  0  0  0  0  0  0  0  0  0  0  0
   38.1690   27.0010   30.7340 O   0  0  0  0  0  0  0  0  0  0  0  0
   38.3230   25.6140   36.0950 C   0  0  0  0  0  0  0  0  0  0  0  0
   38.1670   25.4690   37.4780 F   0  0  0  0  0  0  0  0  0  0  0  0
   39.3330   26.4560   35.7320 F   0  0  0  0  0  0  0  0  0  0  0  0
   37.0930   26.0630   35.6070 F   0  0  0  0  0  0  0  0  0  0  0  0
  1  2  1  0  0  0  0
  1 35  1  0  0  0  0
  2 13  1  0  0  0  0
  3 14  1  0  0  0  0
  3  2  2  0  0  0  0
  4  3  1  0  0  0  0
  5  4  2  0  0  0  0
  5  6  1  0  0  0  0
  6  1  2  0  0  0  0
  7  8  1  0  0  0  0
  7  5  1  0  0  0  0
  8 16  1  0  0  0  0
  9 18  1  0  0  0  0
  9  8  1  0  0  0  0
 10 19  1  0  0  0  0
 10  9  1  0  0  0  0
 11 10  1  0  0  0  0
 11 12  1  0  0  0  0
 12 23  1  6  0  0  0
 12  7  1  0  0  0  0
 15  8  1  0  0  0  0
 17  9  1  0  0  0  0
 20 10  1  0  0  0  0
 21 11  1  0  0  0  0
 22 11  1  0  0  0  0
 24 25  1  0  0  0  0
 25 12  1  0  0  0  0
 26 27  1  0  0  0  0
 26 25  2  0  0  0  0
 28 26  1  0  0  0  0
 29 28  2  0  0  0  0
 29 30  1  0  0  0  0
 30 24  2  0  0  0  0
 31 29  1  0  0  0  0
 32 31  1  0  0  0  0
 32 34  1  0  0  0  0
 33 32  1  0  0  0  0
 34 28  1  0  0  0  0
 35 36  1  0  0  0  0
 37 35  1  0  0  0  0
 38 35  1  0  0  0  0
M  END
>  <minimizedAffinity>
-6.36962605

$$$$

 OpenBabel03272500383D

 38 41  0  0  1  0  0  0  0  0999 V2000
   39.1630   23.1440   37.3670 C   0  0  0  0  0  0  0  0  0  0  0  0
   40.3640   22.4510   37.6350 C   0  0  0  0  0  0  0  0  0  0  0  0
   41.0890   21.9570   36.5440 C   0  0  0  0  0  0  0  0  0  0  0  0
   40.5780   22.1820   35.2980 N   0  0  0  0  0  0  0  0  0  0  0  0
   39.4190   22.8530   35.0870 C   0  0  0  0  0  0  0  0  0  0  0  0
   38.7290   23.3250   36.1300 N   0  0  0  0  0  0  0  0  0  0  0  0
   38.9860   23.0260   33.7360 N   0  0  0  0  0  0  0  0  0  0  0  0
   38.1290   22.0360   33.1510 C   0  0  0  0  0  0  0  0  0  0  0  0
   38.7110   21.7780   31.7580 C   0  0  0  0  0  0  0  0  0  0  0  0
   38.4260   23.0510   30.9870 C   0  0  0  0  0  0  0  0  0  0  0  0
   39.2990   24.1280   31.5450 C   0  0  0  0  0  0  0  0  0  0  0  0
   39.4260   24.1750   33.0280 C   0  0  1  0  0  0  0  0  0  0  0  0
   40.7560   22.2820   38.6340 H   0  0  0  0  0  0  0  0  0  0  0  0
   41.9960   21.4320   36.7170 H   0  0  0  0  0  0  0  0  0  0  0  0
   37.0890   22.3920   33.0170 H   0  0  0  0  0  0  0  0  0  0  0  0
   38.0700   21.1020   33.7380 H   0  0  0  0  0  0  0  0  0  0  0  0
   39.7930   21.5750   31.8070 H   0  0  0  0  0  0  0  0  0  0  0  0
   38.1380   20.9240   31.2940 H   0  0  0  0  0  0  0  0  0  0  0  0
   37.3550   23.2560   30.9820 H   0  0  0  0  0  0  0  0  0  0  0  0
   38.7230   22.8370   29.9400 H   0  0  0  0  0  0  0  0  0  0  0  0
   38.8750   25.1100   31.2090 H   0  0  0  0  0  0  0  0  0  0  0  0
   40.2870   24.0540   31.0160 H   0  0  0  0  0  0  0  0  0  0  0  0
   40.5310   24.2710   33.2480 H   0  0  0  0  0  0  0  0  0  0  0  0
   39.3050   26.0480   34.7000 C   0  0  0  0  0  3  0  0  0  0  0  0
   38.8120   25.4060   33.5970 C   0  0  0  0  0  0  0  0  0  0  0  0
   37.6760   25.9900   33.0270 C   0  0  0  0  0  0  0  0  0  0  0  0
   37.2350   25.5170   32.1360 H   0  0  0  0  0  0  0  0  0  0  0  0
   37.1160   27.1300   33.5620 C   0  0  0  0  0  0  0  0  0  0  0  0
   37.6520   27.7440   34.6820 C   0  0  0  0  0  0  0  0  0  0  0  0
   38.7700   27.1780   35.2510 C   0  0  0  0  0  3  0  0  0  0  0  0
   36.9020   28.8590   35.0050 O   0  0  0  0  0  0  0  0  0  0  0  0
   35.6590   28.7460   34.3270 C   0  0  0  0  0  3  0  0  0  0  0  0
   34.9370   28.2800   35.0150 H   0  0  0  0  0  0  0  0  0  0  0  0
   36.0120   27.9230   33.2230 O   0  0  0  0  0  0  0  0  0  0  0  0
   38.3920   23.6700   38.5330 C   0  0  0  0  0  0  0  0  0  0  0  0
   37.3060   22.8290   38.7980 F   0  0  0  0  0  0  0  0  0  0  0  0
   39.2530   23.8170   39.5820 F   0  0  0  0  0  0  0  0  0  0  0  0
   37.8520   24.9010   38.1500 F   0  0  0  0  0  0  0  0  0  0  0  0
  1  2  1  0  0  0  0
  1 35  1  0  0  0  0
  2 13  1  0  0  0  0
  3 14  1  0  0  0  0
  3  2  2  0  0  0  0
  4  3  1  0  0  0  0
  5  4  2  0  0  0  0
  5  6  1  0  0  0  0
  6  1  2  0  0  0  0
  7  5  1  0  0  0  0
  8  7  1  0  0  0  0
  8 16  1  0  0  0  0
  9 17  1  0  0  0  0
  9  8  1  0  0  0  0
 10 11  1  0  0  0  0
 10  9  1  0  0  0  0
 11 12  1  0  0  0  0
 12 23  1  1  0  0  0
 12 25  1  0  0  0  0
 12  7  1  0  0  0  0
 15  8  1  0  0  0  0
 18  9  1  0  0  0  0
 19 10  1  0  0  0  0
 20 10  1  0  0  0  0
 21 11  1  0  0  0  0
 22 11  1  0  0  0  0
 24 30  1  0  0  0  0
 25 24  2  0  0  0  0
 26 28  2  0  0  0  0
 26 25  1  0  0  0  0
 27 26  1  0  0  0  0
 28 29  1  0  0  0  0
 29 31  1  0  0  0  0
 29 30  2  0  0  0  0
 32 31  1  0  0  0  0
 32 33  1  0  0  0  0
 34 28  1  0  0  0  0
 34 32  1  0  0  0  0
 35 36  1  0  0  0  0
 35 37  1  0  0  0  0
 38 35  1  0  0  0  0
M  END
>  <minimizedAffinity>
-6.30478144

$$$$

 OpenBabel03272500383D

 38 41  0  0  1  0  0  0  0  0999 V2000
   38.4000   24.8390   35.6570 C   0  0  0  0  0  0  0  0  0  0  0  0
   38.3010   26.0050   36.4470 C   0  0  0  0  0  0  0  0  0  0  0  0
   38.5900   27.2320   35.8390 C   0  0  0  0  0  0  0  0  0  0  0  0
   38.9470   27.2100   34.5200 N   0  0  0  0  0  0  0  0  0  0  0  0
   39.0290   26.0650   33.7990 C   0  0  0  0  0  0  0  0  0  0  0  0
   38.7530   24.8940   34.3830 N   0  0  0  0  0  0  0  0  0  0  0  0
   39.4140   26.1680   32.4270 N   0  0  0  0  0  0  0  0  0  0  0  0
   40.8050   26.0860   32.0890 C   0  0  0  0  0  0  0  0  0  0  0  0
   41.0390   27.2190   31.0860 C   0  0  0  0  0  0  0  0  0  0  0  0
   40.3040   26.7770   29.8370 C   0  0  0  0  0  0  0  0  0  0  0  0
   38.8390   26.8480   30.1210 C   0  0  0  0  0  0  0  0  0  0  0  0
   38.3970   26.3500   31.4530 C   0  0  1  0  0  0  0  0  0  0  0  0
   38.0140   26.0040   37.4960 H   0  0  0  0  0  0  0  0  0  0  0  0
   38.5220   28.1250   36.4100 H   0  0  0  0  0  0  0  0  0  0  0  0
   41.0710   25.1360   31.5860 H   0  0  0  0  0  0  0  0  0  0  0  0
   41.4770   26.1810   32.9610 H   0  0  0  0  0  0  0  0  0  0  0  0
   40.6440   28.1760   31.4630 H   0  0  0  0  0  0  0  0  0  0  0  0
   42.1450   27.2700   30.8700 H   0  0  0  0  0  0  0  0  0  0  0  0
   40.6810   25.8110   29.5010 H   0  0  0  0  0  0  0  0  0  0  0  0
   40.5680   27.5200   29.0570 H   0  0  0  0  0  0  0  0  0  0  0  0
   38.3170   26.2350   29.3390 H   0  0  0  0  0  0  0  0  0  0  0  0
   38.5160   27.9030   29.9100 H   0  0  0  0  0  0  0  0  0  0  0  0
   37.7050   27.1400   31.8710 H   0  0  0  0  0  0  0  0  0  0  0  0
   36.2060   25.1220   31.5380 C   0  0  0  0  0  3  0  0  0  0  0  0
   37.5600   25.1250   31.3360 C   0  0  0  0  0  0  0  0  0  0  0  0
   38.1150   23.8850   31.0070 C   0  0  0  0  0  0  0  0  0  0  0  0
   39.2010   23.8270   30.8330 H   0  0  0  0  0  0  0  0  0  0  0  0
   37.3300   22.7570   30.9020 C   0  0  0  0  0  0  0  0  0  0  0  0
   35.9630   22.8040   31.1170 C   0  0  0  0  0  0  0  0  0  0  0  0
   35.4050   24.0190   31.4410 C   0  0  0  0  0  3  0  0  0  0  0  0
   35.4230   21.5430   30.9480 O   0  0  0  0  0  0  0  0  0  0  0  0
   36.4920   20.6110   31.0060 C   0  0  0  0  0  3  0  0  0  0  0  0
   36.5710   20.2460   32.0410 H   0  0  0  0  0  0  0  0  0  0  0  0
   37.5910   21.4150   30.5970 O   0  0  0  0  0  0  0  0  0  0  0  0
   38.0910   23.5320   36.3100 C   0  0  0  0  0  0  0  0  0  0  0  0
   37.6260   22.6240   35.3510 F   0  0  0  0  0  0  0  0  0  0  0  0
   39.2050   23.1150   36.9780 F   0  0  0  0  0  0  0  0  0  0  0  0
   37.0280   23.7510   37.1910 F   0  0  0  0  0  0  0  0  0  0  0  0
  1 35  1  0  0  0  0
  1  2  1  0  0  0  0
  2 13  1  0  0  0  0
  3 14  1  0  0  0  0
  3  2  2  0  0  0  0
  4  3  1  0  0  0  0
  5  6  1  0  0  0  0
  5  4  2  0  0  0  0
  6  1  2  0  0  0  0
  7  5  1  0  0  0  0
  8  7  1  0  0  0  0
  8 16  1  0  0  0  0
  9 17  1  0  0  0  0
  9  8  1  0  0  0  0
 10 11  1  0  0  0  0
 10  9  1  0  0  0  0
 11 12  1  0  0  0  0
 12 23  1  1  0  0  0
 12  7  1  0  0  0  0
 15  8  1  0  0  0  0
 18  9  1  0  0  0  0
 19 10  1  0  0  0  0
 20 10  1  0  0  0  0
 21 11  1  0  0  0  0
 22 11  1  0  0  0  0
 25 12  1  0  0  0  0
 25 24  2  0  0  0  0
 26 25  1  0  0  0  0
 27 26  1  0  0  0  0
 28 26  2  0  0  0  0
 28 29  1  0  0  0  0
 29 30  2  0  0  0  0
 30 24  1  0  0  0  0
 31 32  1  0  0  0  0
 31 29  1  0  0  0  0
 32 33  1  0  0  0  0
 34 28  1  0  0  0  0
 34 32  1  0  0  0  0
 35 37  1  0  0  0  0
 35 38  1  0  0  0  0
 36 35  1  0  0  0  0
M  END
>  <minimizedAffinity>
-5.804461

$$$$

 OpenBabel03272500383D

 38 41  0  0  1  0  0  0  0  0999 V2000
   36.7120   21.3090   32.5740 C   0  0  0  0  0  0  0  0  0  0  0  0
   37.3660   20.4140   31.6980 C   0  0  0  0  0  0  0  0  0  0  0  0
   38.3920   20.9220   30.8920 C   0  0  0  0  0  0  0  0  0  0  0  0
   38.6840   22.2510   31.0130 N   0  0  0  0  0  0  0  0  0  0  0  0
   38.0280   23.0750   31.8670 C   0  0  0  0  0  0  0  0  0  0  0  0
   37.0490   22.5870   32.6360 N   0  0  0  0  0  0  0  0  0  0  0  0
   38.4230   24.4470   31.9040 N   0  0  0  0  0  0  0  0  0  0  0  0
   37.7700   25.3810   31.0330 C   0  0  0  0  0  0  0  0  0  0  0  0
   38.8990   26.2260   30.4360 C   0  0  0  0  0  0  0  0  0  0  0  0
   39.4030   27.0580   31.5970 C   0  0  0  0  0  0  0  0  0  0  0  0
   40.1070   26.1410   32.5440 C   0  0  0  0  0  0  0  0  0  0  0  0
   39.4510   24.8290   32.8060 C   0  0  1  0  0  0  0  0  0  0  0  0
   37.1210   19.3580   31.6160 H   0  0  0  0  0  0  0  0  0  0  0  0
   38.9010   20.2710   30.2260 H   0  0  0  0  0  0  0  0  0  0  0  0
   37.0880   26.0670   31.5720 H   0  0  0  0  0  0  0  0  0  0  0  0
   37.1710   24.8980   30.2410 H   0  0  0  0  0  0  0  0  0  0  0  0
   39.6990   25.5910   30.0230 H   0  0  0  0  0  0  0  0  0  0  0  0
   38.4490   26.9060   29.6570 H   0  0  0  0  0  0  0  0  0  0  0  0
   38.5900   27.6500   32.0180 H   0  0  0  0  0  0  0  0  0  0  0  0
   40.1320   27.7700   31.1580 H   0  0  0  0  0  0  0  0  0  0  0  0
   40.1960   26.6780   33.5260 H   0  0  0  0  0  0  0  0  0  0  0  0
   41.1650   26.0460   32.1810 H   0  0  0  0  0  0  0  0  0  0  0  0
   40.2600   24.0460   32.7030 H   0  0  0  0  0  0  0  0  0  0  0  0
   38.0360   25.5440   34.7560 C   0  0  0  0  0  3  0  0  0  0  0  0
   38.9820   24.7160   34.2130 C   0  0  0  0  0  0  0  0  0  0  0  0
   39.4880   23.7430   35.0800 C   0  0  0  0  0  0  0  0  0  0  0  0
   40.2520   23.0480   34.6980 H   0  0  0  0  0  0  0  0  0  0  0  0
   39.0460   23.6480   36.3820 C   0  0  0  0  0  0  0  0  0  0  0  0
   38.0860   24.5090   36.8850 C   0  0  0  0  0  0  0  0  0  0  0  0
   37.5810   25.4710   36.0430 C   0  0  0  0  0  3  0  0  0  0  0  0
   37.8280   24.1960   38.2070 O   0  0  0  0  0  0  0  0  0  0  0  0
   38.8980   23.3840   38.6690 C   0  0  0  0  0  3  0  0  0  0  0  0
   39.6380   24.0390   39.1530 H   0  0  0  0  0  0  0  0  0  0  0  0
   39.3550   22.8020   37.4550 O   0  0  0  0  0  0  0  0  0  0  0  0
   35.6180   20.7620   33.4320 C   0  0  0  0  0  0  0  0  0  0  0  0
   35.8350   21.1330   34.7640 F   0  0  0  0  0  0  0  0  0  0  0  0
   34.4250   21.1850   32.9220 F   0  0  0  0  0  0  0  0  0  0  0  0
   35.7190   19.3690   33.3910 F   0  0  0  0  0  0  0  0  0  0  0  0
  1  6  1  0  0  0  0
  1 35  1  0  0  0  0
  2  1  2  0  0  0  0
  3  4  2  0  0  0  0
  3  2  1  0  0  0  0
  4  5  1  0  0  0  0
  5  7  1  0  0  0  0
  5  6  2  0  0  0  0
  7 12  1  0  0  0  0
  8 15  1  0  0  0  0
  8  7  1  0  0  0  0
  9  8  1  0  0  0  0
  9 10  1  0  0  0  0
 10 19  1  0  0  0  0
 10 11  1  0  0  0  0
 11 12  1  0  0  0  0
 11 21  1  0  0  0  0
 12 23  1  6  0  0  0
 12 25  1  0  0  0  0
 13  2  1  0  0  0  0
 14  3  1  0  0  0  0
 16  8  1  0  0  0  0
 17  9  1  0  0  0  0
 18  9  1  0  0  0  0
 20 10  1  0  0  0  0
 22 11  1  0  0  0  0
 24 30  1  0  0  0  0
 25 24  2  0  0  0  0
 25 26  1  0  0  0  0
 26 28  2  0  0  0  0
 27 26  1  0  0  0  0
 28 29  1  0  0  0  0
 28 34  1  0  0  0  0
 29 31  1  0  0  0  0
 30 29  2  0  0  0  0
 31 32  1  0  0  0  0
 32 33  1  0  0  0  0
 34 32  1  0  0  0  0
 35 36  1  0  0  0  0
 37 35  1  0  0  0  0
 38 35  1  0  0  0  0
M  END
>  <minimizedAffinity>
-5.79869461

$$$$

 OpenBabel03272500383D

 38 41  0  0  1  0  0  0  0  0999 V2000
   35.3100   31.1790   34.0620 C   0  0  0  0  0  0  0  0  0  0  0  0
   33.9620   31.4850   33.7700 C   0  0  0  0  0  0  0  0  0  0  0  0
   33.5380   31.3630   32.4410 C   0  0  0  0  0  0  0  0  0  0  0  0
   34.4630   30.9560   31.5230 N   0  0  0  0  0  0  0  0  0  0  0  0
   35.7490   30.6730   31.8470 C   0  0  0  0  0  0  0  0  0  0  0  0
   36.1510   30.7910   33.1170 N   0  0  0  0  0  0  0  0  0  0  0  0
   36.6250   30.2570   30.7990 N   0  0  0  0  0  0  0  0  0  0  0  0
   37.3750   31.2500   30.0860 C   0  0  0  0  0  0  0  0  0  0  0  0
   37.2340   30.8730   28.6090 C   0  0  0  0  0  0  0  0  0  0  0  0
   38.0370   29.5960   28.4660 C   0  0  0  0  0  0  0  0  0  0  0  0
   37.3010   28.5110   29.1830 C   0  0  0  0  0  0  0  0  0  0  0  0
   36.7140   28.8710   30.5040 C   0  0  1  0  0  0  0  0  0  0  0  0
   33.2390   31.8070   34.5150 H   0  0  0  0  0  0  0  0  0  0  0  0
   32.5290   31.5860   32.1950 H   0  0  0  0  0  0  0  0  0  0  0  0
   38.4550   31.2330   30.3340 H   0  0  0  0  0  0  0  0  0  0  0  0
   37.0250   32.2820   30.2700 H   0  0  0  0  0  0  0  0  0  0  0  0
   36.1800   30.7130   28.3350 H   0  0  0  0  0  0  0  0  0  0  0  0
   37.7160   31.6880   27.9950 H   0  0  0  0  0  0  0  0  0  0  0  0
   39.0690   29.7630   28.7790 H   0  0  0  0  0  0  0  0  0  0  0  0
   38.0560   29.3770   27.3790 H   0  0  0  0  0  0  0  0  0  0  0  0
   38.0250   27.6700   29.3510 H   0  0  0  0  0  0  0  0  0  0  0  0
   36.5500   28.0940   28.4610 H   0  0  0  0  0  0  0  0  0  0  0  0
   35.6510   28.4880   30.4910 H   0  0  0  0  0  0  0  0  0  0  0  0
   38.7010   27.8050   31.6140 C   0  0  0  0  0  3  0  0  0  0  0  0
   37.3740   28.1410   31.6200 C   0  0  0  0  0  0  0  0  0  0  0  0
   36.6660   27.7470   32.7600 C   0  0  0  0  0  0  0  0  0  0  0  0
   35.5940   27.9910   32.8210 H   0  0  0  0  0  0  0  0  0  0  0  0
   37.2880   27.0700   33.7870 C   0  0  0  0  0  0  0  0  0  0  0  0
   38.6350   26.7530   33.7340 C   0  0  0  0  0  0  0  0  0  0  0  0
   39.3410   27.1350   32.6180 C   0  0  0  0  0  3  0  0  0  0  0  0
   38.9980   26.0790   34.8860 O   0  0  0  0  0  0  0  0  0  0  0  0
   37.8060   25.6230   35.5060 C   0  0  0  0  0  3  0  0  0  0  0  0
   37.6220   24.5900   35.1730 H   0  0  0  0  0  0  0  0  0  0  0  0
   36.8560   26.5610   35.0190 O   0  0  0  0  0  0  0  0  0  0  0  0
   35.7580   31.3110   35.4800 C   0  0  0  0  0  0  0  0  0  0  0  0
   36.5990   32.4220   35.6070 F   0  0  0  0  0  0  0  0  0  0  0  0
   34.6500   31.3550   36.2750 F   0  0  0  0  0  0  0  0  0  0  0  0
   36.5420   30.1900   35.7710 F   0  0  0  0  0  0  0  0  0  0  0  0
  1 35  1  0  0  0  0
  2  1  1  0  0  0  0
  2 13  1  0  0  0  0
  3  2  2  0  0  0  0
  4  5  2  0  0  0  0
  4  3  1  0  0  0  0
  5  6  1  0  0  0  0
  6  1  2  0  0  0  0
  7  5  1  0  0  0  0
  8 16  1  0  0  0  0
  8 15  1  0  0  0  0
  8  7  1  0  0  0  0
  9  8  1  0  0  0  0
 10  9  1  0  0  0  0
 10 19  1  0  0  0  0
 10 11  1  0  0  0  0
 11 21  1  0  0  0  0
 11 12  1  0  0  0  0
 12 23  1  6  0  0  0
 12  7  1  0  0  0  0
 12 25  1  0  0  0  0
 14  3  1  0  0  0  0
 17  9  1  0  0  0  0
 18  9  1  0  0  0  0
 20 10  1  0  0  0  0
 22 11  1  0  0  0  0
 24 25  2  0  0  0  0
 24 30  1  0  0  0  0
 25 26  1  0  0  0  0
 26 27  1  0  0  0  0
 26 28  2  0  0  0  0
 28 34  1  0  0  0  0
 29 28  1  0  0  0  0
 29 31  1  0  0  0  0
 30 29  2  0  0  0  0
 31 32  1  0  0  0  0
 33 32  1  0  0  0  0
 34 32  1  0  0  0  0
 35 36  1  0  0  0  0
 35 38  1  0  0  0  0
 35 37  1  0  0  0  0
M  END
>  <minimizedAffinity>
-5.62805223

$$$$

 OpenBabel03272500383D

 38 41  0  0  1  0  0  0  0  0999 V2000
   37.0990   22.6530   32.6780 C   0  0  0  0  0  0  0  0  0  0  0  0
   36.8990   21.7750   33.7660 C   0  0  0  0  0  0  0  0  0  0  0  0
   37.7600   21.8910   34.8640 C   0  0  0  0  0  0  0  0  0  0  0  0
   38.7330   22.8470   34.8000 N   0  0  0  0  0  0  0  0  0  0  0  0
   38.8890   23.6690   33.7330 C   0  0  0  0  0  0  0  0  0  0  0  0
   38.0650   23.5570   32.6860 N   0  0  0  0  0  0  0  0  0  0  0  0
   39.9440   24.6310   33.7820 N   0  0  0  0  0  0  0  0  0  0  0  0
   41.2350   24.2720   33.2690 C   0  0  0  0  0  0  0  0  0  0  0  0
   42.2330   24.7690   34.3180 C   0  0  0  0  0  0  0  0  0  0  0  0
   42.1730   26.2790   34.2110 C   0  0  0  0  0  0  0  0  0  0  0  0
   40.8490   26.7230   34.7400 C   0  0  0  0  0  0  0  0  0  0  0  0
   39.6690   25.9070   34.3400 C   0  0  1  0  0  0  0  0  0  0  0  0
   36.1180   21.0200   33.8000 H   0  0  0  0  0  0  0  0  0  0  0  0
   37.6320   21.2430   35.6960 H   0  0  0  0  0  0  0  0  0  0  0  0
   41.4740   24.7780   32.3140 H   0  0  0  0  0  0  0  0  0  0  0  0
   41.3510   23.1880   33.0900 H   0  0  0  0  0  0  0  0  0  0  0  0
   41.9550   24.4300   35.3280 H   0  0  0  0  0  0  0  0  0  0  0  0
   43.2600   24.4140   34.0160 H   0  0  0  0  0  0  0  0  0  0  0  0
   42.4130   26.5940   33.1940 H   0  0  0  0  0  0  0  0  0  0  0  0
   42.9830   26.6570   34.8690 H   0  0  0  0  0  0  0  0  0  0  0  0
   40.6770   27.7710   34.3770 H   0  0  0  0  0  0  0  0  0  0  0  0
   40.9610   26.8280   35.8530 H   0  0  0  0  0  0  0  0  0  0  0  0
   39.0840   25.7110   35.2880 H   0  0  0  0  0  0  0  0  0  0  0  0
   37.4630   27.0010   33.8340 C   0  0  0  0  0  3  0  0  0  0  0  0
   38.7390   26.6710   33.4650 C   0  0  0  0  0  0  0  0  0  0  0  0
   39.1200   27.1060   32.1920 C   0  0  0  0  0  0  0  0  0  0  0  0
   40.1360   26.8690   31.8400 H   0  0  0  0  0  0  0  0  0  0  0  0
   38.2500   27.8120   31.3890 C   0  0  0  0  0  0  0  0  0  0  0  0
   36.9680   28.1220   31.8080 C   0  0  0  0  0  0  0  0  0  0  0  0
   36.5820   27.7000   33.0590 C   0  0  0  0  0  3  0  0  0  0  0  0
   36.3140   28.8310   30.8180 O   0  0  0  0  0  0  0  0  0  0  0  0
   37.0390   28.6440   29.6110 C   0  0  0  0  0  3  0  0  0  0  0  0
   36.5820   27.8040   29.0660 H   0  0  0  0  0  0  0  0  0  0  0  0
   38.3420   28.3650   30.1050 O   0  0  0  0  0  0  0  0  0  0  0  0
   36.1780   22.5270   31.5090 C   0  0  0  0  0  0  0  0  0  0  0  0
   36.1530   23.7320   30.7970 F   0  0  0  0  0  0  0  0  0  0  0  0
   36.5720   21.4500   30.7690 F   0  0  0  0  0  0  0  0  0  0  0  0
   34.8890   22.3450   32.0170 F   0  0  0  0  0  0  0  0  0  0  0  0
  1  6  2  0  0  0  0
  1  2  1  0  0  0  0
  2 13  1  0  0  0  0
  2  3  2  0  0  0  0
  3 14  1  0  0  0  0
  4  3  1  0  0  0  0
  5  7  1  0  0  0  0
  5  4  2  0  0  0  0
  6  5  1  0  0  0  0
  7 12  1  0  0  0  0
  8  7  1  0  0  0  0
  8  9  1  0  0  0  0
  9 17  1  0  0  0  0
 10  9  1  0  0  0  0
 10 11  1  0  0  0  0
 10 20  1  0  0  0  0
 11 22  1  0  0  0  0
 12 11  1  0  0  0  0
 12 23  1  1  0  0  0
 15  8  1  0  0  0  0
 16  8  1  0  0  0  0
 18  9  1  0  0  0  0
 19 10  1  0  0  0  0
 21 11  1  0  0  0  0
 25 24  1  0  0  0  0
 25 12  1  0  0  0  0
 26 25  2  0  0  0  0
 27 26  1  0  0  0  0
 28 29  2  0  0  0  0
 28 26  1  0  0  0  0
 29 30  1  0  0  0  0
 30 24  2  0  0  0  0
 31 29  1  0  0  0  0
 32 34  1  0  0  0  0
 32 31  1  0  0  0  0
 33 32  1  0  0  0  0
 34 28  1  0  0  0  0
 35 38  1  0  0  0  0
 35  1  1  0  0  0  0
 36 35  1  0  0  0  0
 37 35  1  0  0  0  0
M  END
>  <minimizedAffinity>
-5.62412262

$$$$

 OpenBabel03272500383D

 38 41  0  0  1  0  0  0  0  0999 V2000
   37.3320   22.2950   32.3170 C   0  0  0  0  0  0  0  0  0  0  0  0
   37.3380   22.7080   30.9650 C   0  0  0  0  0  0  0  0  0  0  0  0
   37.6150   24.0530   30.6950 C   0  0  0  0  0  0  0  0  0  0  0  0
   37.8590   24.8690   31.7630 N   0  0  0  0  0  0  0  0  0  0  0  0
   37.8420   24.4310   33.0450 C   0  0  0  0  0  0  0  0  0  0  0  0
   37.5780   23.1450   33.3010 N   0  0  0  0  0  0  0  0  0  0  0  0
   38.1130   25.3800   34.0780 N   0  0  0  0  0  0  0  0  0  0  0  0
   37.0190   26.0990   34.6630 C   0  0  0  0  0  0  0  0  0  0  0  0
   37.4910   27.5540   34.7350 C   0  0  0  0  0  0  0  0  0  0  0  0
   38.5720   27.5490   35.7970 C   0  0  0  0  0  0  0  0  0  0  0  0
   39.7520   26.8170   35.2450 C   0  0  0  0  0  0  0  0  0  0  0  0
   39.4600   25.5720   34.4810 C   0  0  1  0  0  0  0  0  0  0  0  0
   37.1420   22.0430   30.1280 H   0  0  0  0  0  0  0  0  0  0  0  0
   37.6270   24.3890   29.6880 H   0  0  0  0  0  0  0  0  0  0  0  0
   36.7910   25.7710   35.6950 H   0  0  0  0  0  0  0  0  0  0  0  0
   36.0790   26.0140   34.0890 H   0  0  0  0  0  0  0  0  0  0  0  0
   37.8870   27.8950   33.7650 H   0  0  0  0  0  0  0  0  0  0  0  0
   36.6240   28.1840   35.0870 H   0  0  0  0  0  0  0  0  0  0  0  0
   38.1720   27.1720   36.7390 H   0  0  0  0  0  0  0  0  0  0  0  0
   38.8360   28.6150   35.9570 H   0  0  0  0  0  0  0  0  0  0  0  0
   40.4080   26.5390   36.1110 H   0  0  0  0  0  0  0  0  0  0  0  0
   40.3560   27.5650   34.6640 H   0  0  0  0  0  0  0  0  0  0  0  0
   40.0630   25.6390   33.5270 H   0  0  0  0  0  0  0  0  0  0  0  0
   39.4300   23.8770   36.3370 C   0  0  0  0  0  3  0  0  0  0  0  0
   39.9750   24.3630   35.1790 C   0  0  0  0  0  0  0  0  0  0  0  0
   41.0640   23.6380   34.6860 C   0  0  0  0  0  0  0  0  0  0  0  0
   41.5440   23.9820   33.7560 H   0  0  0  0  0  0  0  0  0  0  0  0
   41.5330   22.5200   35.3410 C   0  0  0  0  0  0  0  0  0  0  0  0
   40.9470   22.0670   36.5110 C   0  0  0  0  0  0  0  0  0  0  0  0
   39.8750   22.7720   37.0060 C   0  0  0  0  0  3  0  0  0  0  0  0
   41.6080   20.9370   36.9540 O   0  0  0  0  0  0  0  0  0  0  0  0
   42.8580   20.8840   36.2840 C   0  0  0  0  0  3  0  0  0  0  0  0
   43.6110   21.3620   36.9290 H   0  0  0  0  0  0  0  0  0  0  0  0
   42.5740   21.6140   35.0970 O   0  0  0  0  0  0  0  0  0  0  0  0
   37.0360   20.8590   32.6010 C   0  0  0  0  0  0  0  0  0  0  0  0
   36.0790   20.3870   31.6950 F   0  0  0  0  0  0  0  0  0  0  0  0
   38.2130   20.1690   32.5790 F   0  0  0  0  0  0  0  0  0  0  0  0
   36.4420   20.8030   33.8650 F   0  0  0  0  0  0  0  0  0  0  0  0
  1 35  1  0  0  0  0
  1  6  1  0  0  0  0
  2  1  2  0  0  0  0
  3  2  1  0  0  0  0
  3  4  2  0  0  0  0
  4  5  1  0  0  0  0
  5  6  2  0  0  0  0
  5  7  1  0  0  0  0
  7 12  1  0  0  0  0
  7  8  1  0  0  0  0
  8  9  1  0  0  0  0
  8 15  1  0  0  0  0
  9 18  1  0  0  0  0
  9 10  1  0  0  0  0
 10 20  1  0  0  0  0
 10 19  1  0  0  0  0
 11 10  1  0  0  0  0
 11 21  1  0  0  0  0
 12 23  1  6  0  0  0
 12 25  1  0  0  0  0
 12 11  1  0  0  0  0
 13  2  1  0  0  0  0
 14  3  1  0  0  0  0
 16  8  1  0  0  0  0
 17  9  1  0  0  0  0
 22 11  1  0  0  0  0
 24 30  1  0  0  0  0
 25 24  2  0  0  0  0
 26 25  1  0  0  0  0
 26 28  2  0  0  0  0
 27 26  1  0  0  0  0
 28 29  1  0  0  0  0
 29 31  1  0  0  0  0
 29 30  2  0  0  0  0
 32 33  1  0  0  0  0
 32 31  1  0  0  0  0
 34 28  1  0  0  0  0
 34 32  1  0  0  0  0
 35 38  1  0  0  0  0
 36 35  1  0  0  0  0
 37 35  1  0  0  0  0
M  END
>  <minimizedAffinity>
-5.61331463

$$$$

 OpenBabel03272500383D

 38 41  0  0  1  0  0  0  0  0999 V2000
   36.1060   21.3200   33.0120 C   0  0  0  0  0  0  0  0  0  0  0  0
   35.4750   20.7470   34.1380 C   0  0  0  0  0  0  0  0  0  0  0  0
   36.1010   20.8920   35.3810 C   0  0  0  0  0  0  0  0  0  0  0  0
   37.2810   21.5800   35.4130 N   0  0  0  0  0  0  0  0  0  0  0  0
   37.8520   22.1140   34.3050 C   0  0  0  0  0  0  0  0  0  0  0  0
   37.2520   21.9740   33.1190 N   0  0  0  0  0  0  0  0  0  0  0  0
   39.0890   22.8120   34.4640 N   0  0  0  0  0  0  0  0  0  0  0  0
   40.3170   22.0840   34.3380 C   0  0  0  0  0  0  0  0  0  0  0  0
   41.1820   22.5540   35.5110 C   0  0  0  0  0  0  0  0  0  0  0  0
   41.5370   23.9870   35.1680 C   0  0  0  0  0  0  0  0  0  0  0  0
   40.2940   24.8070   35.2900 C   0  0  0  0  0  0  0  0  0  0  0  0
   39.0470   24.2040   34.7420 C   0  0  1  0  0  0  0  0  0  0  0  0
   34.5350   20.2030   34.0940 H   0  0  0  0  0  0  0  0  0  0  0  0
   35.6480   20.4720   36.2450 H   0  0  0  0  0  0  0  0  0  0  0  0
   40.8640   22.3200   33.4040 H   0  0  0  0  0  0  0  0  0  0  0  0
   40.1830   20.9870   34.3560 H   0  0  0  0  0  0  0  0  0  0  0  0
   40.6310   22.4970   36.4630 H   0  0  0  0  0  0  0  0  0  0  0  0
   42.1210   21.9290   35.5230 H   0  0  0  0  0  0  0  0  0  0  0  0
   42.0460   24.0280   34.2050 H   0  0  0  0  0  0  0  0  0  0  0  0
   42.2690   24.3040   35.9390 H   0  0  0  0  0  0  0  0  0  0  0  0
   40.4740   25.7700   34.7430 H   0  0  0  0  0  0  0  0  0  0  0  0
   40.2060   25.1090   36.3680 H   0  0  0  0  0  0  0  0  0  0  0  0
   38.2560   24.3370   35.5390 H   0  0  0  0  0  0  0  0  0  0  0  0
   39.1000   24.8680   32.3190 C   0  0  0  0  0  3  0  0  0  0  0  0
   38.5390   24.9580   33.5640 C   0  0  0  0  0  0  0  0  0  0  0  0
   37.4400   25.8170   33.6610 C   0  0  0  0  0  0  0  0  0  0  0  0
   36.9480   25.9300   34.6390 H   0  0  0  0  0  0  0  0  0  0  0  0
   36.9790   26.5110   32.5630 C   0  0  0  0  0  0  0  0  0  0  0  0
   37.5810   26.3870   31.3220 C   0  0  0  0  0  0  0  0  0  0  0  0
   38.6630   25.5440   31.2150 C   0  0  0  0  0  3  0  0  0  0  0  0
   36.9240   27.1870   30.4050 O   0  0  0  0  0  0  0  0  0  0  0  0
   36.1430   28.1200   31.1370 C   0  0  0  0  0  3  0  0  0  0  0  0
   36.7330   29.0420   31.2520 H   0  0  0  0  0  0  0  0  0  0  0  0
   35.9320   27.4180   32.3550 O   0  0  0  0  0  0  0  0  0  0  0  0
   35.4350   21.1630   31.6870 C   0  0  0  0  0  0  0  0  0  0  0  0
   34.1980   20.5310   31.8580 F   0  0  0  0  0  0  0  0  0  0  0  0
   35.3580   22.3920   31.0990 F   0  0  0  0  0  0  0  0  0  0  0  0
   36.2190   20.2900   30.9280 F   0  0  0  0  0  0  0  0  0  0  0  0
  1  6  2  0  0  0  0
  1  2  1  0  0  0  0
  2  3  2  0  0  0  0
  3  4  1  0  0  0  0
  3 14  1  0  0  0  0
  5  7  1  0  0  0  0
  5  4  2  0  0  0  0
  6  5  1  0  0  0  0
  7 12  1  0  0  0  0
  8 16  1  0  0  0  0
  8  7  1  0  0  0  0
  8  9  1  0  0  0  0
  9 18  1  0  0  0  0
  9 17  1  0  0  0  0
 10 11  1  0  0  0  0
 10  9  1  0  0  0  0
 10 20  1  0  0  0  0
 11 22  1  0  0  0  0
 12 11  1  0  0  0  0
 12 23  1  1  0  0  0
 13  2  1  0  0  0  0
 15  8  1  0  0  0  0
 19 10  1  0  0  0  0
 21 11  1  0  0  0  0
 24 25  1  0  0  0  0
 25 26  2  0  0  0  0
 25 12  1  0  0  0  0
 26 27  1  0  0  0  0
 28 26  1  0  0  0  0
 29 28  2  0  0  0  0
 30 29  1  0  0  0  0
 30 24  2  0  0  0  0
 31 32  1  0  0  0  0
 31 29  1  0  0  0  0
 32 33  1  0  0  0  0
 32 34  1  0  0  0  0
 34 28  1  0  0  0  0
 35 36  1  0  0  0  0
 35  1  1  0  0  0  0
 37 35  1  0  0  0  0
 38 35  1  0  0  0  0
M  END
>  <minimizedAffinity>
-5.59727573

$$$$

 OpenBabel03272500383D

 38 41  0  0  1  0  0  0  0  0999 V2000
   39.2580   23.7670   35.3640 C   0  0  0  0  0  0  0  0  0  0  0  0
   38.6670   24.2040   36.5700 C   0  0  0  0  0  0  0  0  0  0  0  0
   37.7310   25.2420   36.4990 C   0  0  0  0  0  0  0  0  0  0  0  0
   37.4580   25.7570   35.2640 N   0  0  0  0  0  0  0  0  0  0  0  0
   38.0510   25.3070   34.1310 C   0  0  0  0  0  0  0  0  0  0  0  0
   38.9450   24.3150   34.2010 N   0  0  0  0  0  0  0  0  0  0  0  0
   37.6840   25.9260   32.8960 N   0  0  0  0  0  0  0  0  0  0  0  0
   38.4340   27.0590   32.4390 C   0  0  0  0  0  0  0  0  0  0  0  0
   37.3840   28.0720   31.9760 C   0  0  0  0  0  0  0  0  0  0  0  0
   36.7930   27.4590   30.7220 C   0  0  0  0  0  0  0  0  0  0  0  0
   35.9870   26.2700   31.1320 C   0  0  0  0  0  0  0  0  0  0  0  0
   36.5860   25.3900   32.1730 C   0  0  1  0  0  0  0  0  0  0  0  0
   38.8960   23.7810   37.5450 H   0  0  0  0  0  0  0  0  0  0  0  0
   37.2700   25.5890   37.3910 H   0  0  0  0  0  0  0  0  0  0  0  0
   39.0790   26.8260   31.5690 H   0  0  0  0  0  0  0  0  0  0  0  0
   39.0920   27.4930   33.2130 H   0  0  0  0  0  0  0  0  0  0  0  0
   36.6110   28.2280   32.7450 H   0  0  0  0  0  0  0  0  0  0  0  0
   37.9170   29.0290   31.7080 H   0  0  0  0  0  0  0  0  0  0  0  0
   37.5780   27.2760   29.9880 H   0  0  0  0  0  0  0  0  0  0  0  0
   36.1230   28.2360   30.2990 H   0  0  0  0  0  0  0  0  0  0  0  0
   35.8200   25.6470   30.2140 H   0  0  0  0  0  0  0  0  0  0  0  0
   34.9640   26.6470   31.4030 H   0  0  0  0  0  0  0  0  0  0  0  0
   35.7730   25.2040   32.9360 H   0  0  0  0  0  0  0  0  0  0  0  0
   38.0230   23.8040   30.8540 C   0  0  0  0  0  3  0  0  0  0  0  0
   36.9230   24.0450   31.6320 C   0  0  0  0  0  0  0  0  0  0  0  0
   36.1220   22.9280   31.8910 C   0  0  0  0  0  0  0  0  0  0  0  0
   35.2230   23.0620   32.5120 H   0  0  0  0  0  0  0  0  0  0  0  0
   36.4430   21.6870   31.3850 C   0  0  0  0  0  0  0  0  0  0  0  0
   37.5680   21.4940   30.6020 C   0  0  0  0  0  0  0  0  0  0  0  0
   38.3640   22.5850   30.3400 C   0  0  0  0  0  3  0  0  0  0  0  0
   37.6520   20.1650   30.2300 O   0  0  0  0  0  0  0  0  0  0  0  0
   36.3770   19.5800   30.4490 C   0  0  0  0  0  3  0  0  0  0  0  0
   35.8140   19.6250   29.5050 H   0  0  0  0  0  0  0  0  0  0  0  0
   35.8530   20.4190   31.4700 O   0  0  0  0  0  0  0  0  0  0  0  0
   40.2570   22.6590   35.4440 C   0  0  0  0  0  0  0  0  0  0  0  0
   40.2840   21.9620   34.2310 F   0  0  0  0  0  0  0  0  0  0  0  0
   41.4590   23.1930   35.8080 F   0  0  0  0  0  0  0  0  0  0  0  0
   39.7950   21.7560   36.4050 F   0  0  0  0  0  0  0  0  0  0  0  0
  1 35  1  0  0  0  0
  1  2  1  0  0  0  0
  2 13  1  0  0  0  0
  3  2  2  0  0  0  0
  3 14  1  0  0  0  0
  4  3  1  0  0  0  0
  5  6  1  0  0  0  0
  5  4  2  0  0  0  0
  6  1  2  0  0  0  0
  7  5  1  0  0  0  0
  8  7  1  0  0  0  0
  8 16  1  0  0  0  0
  9  8  1  0  0  0  0
  9 17  1  0  0  0  0
 10 11  1  0  0  0  0
 10  9  1  0  0  0  0
 11 22  1  0  0  0  0
 11 12  1  0  0  0  0
 12  7  1  0  0  0  0
 12 23  1  1  0  0  0
 15  8  1  0  0  0  0
 18  9  1  0  0  0  0
 19 10  1  0  0  0  0
 20 10  1  0  0  0  0
 21 11  1  0  0  0  0
 24 25  1  0  0  0  0
 25 26  2  0  0  0  0
 25 12  1  0  0  0  0
 26 27  1  0  0  0  0
 28 34  1  0  0  0  0
 28 26  1  0  0  0  0
 29 28  2  0  0  0  0
 30 29  1  0  0  0  0
 30 24  2  0  0  0  0
 31 32  1  0  0  0  0
 31 29  1  0  0  0  0
 32 34  1  0  0  0  0
 33 32  1  0  0  0  0
 35 37  1  0  0  0  0
 35 38  1  0  0  0  0
 36 35  1  0  0  0  0
M  END
>  <minimizedAffinity>
-5.54644775

$$$$
