
     RDKit          3D

 38 41  0  0  0  0  0  0  0  0999 V2000
   37.0781   29.7993   51.6180 C   0  0  0  0  0  0  0  0  0  0  0  0
   37.7585   30.5803   50.6850 C   0  0  0  0  0  0  0  0  0  0  0  0
   37.0785   30.8267   49.4820 C   0  0  0  0  0  0  0  0  0  0  0  0
   35.8463   30.3078   49.3117 N   0  0  0  0  0  0  0  0  0  0  0  0
   35.2401   29.5633   50.2449 C   0  0  0  0  0  0  0  0  0  0  0  0
   35.8569   29.3052   51.4065 N   0  0  0  0  0  0  0  0  0  0  0  0
   37.5758   31.5873   48.3747 N   0  0  0  0  0  0  0  0  0  0  0  0
   38.2183   32.8613   48.4908 C   0  0  0  0  0  0  0  0  0  0  0  0
   39.4456   33.0751   47.6985 C   0  0  0  0  0  0  0  0  0  0  0  0
   39.4843   32.4410   46.3496 C   0  0  0  0  0  0  0  0  0  0  0  0
   38.9536   31.0372   46.4576 C   0  0  0  0  0  0  0  0  0  0  0  0
   37.5110   31.1984   46.9938 C   0  0  1  0  0  0  0  0  0  0  0  0
   37.6679   29.6484   52.5297 H   0  0  0  0  0  0  0  0  0  0  0  0
   38.7285   31.0179   50.7604 H   0  0  0  0  0  0  0  0  0  0  0  0
   34.2533   29.1327   50.1399 H   0  0  0  0  0  0  0  0  0  0  0  0
   38.4346   33.0374   49.5678 H   0  0  0  0  0  0  0  0  0  0  0  0
   37.4326   33.6257   48.2234 H   0  0  0  0  0  0  0  0  0  0  0  0
   39.5785   34.1791   47.5543 H   0  0  0  0  0  0  0  0  0  0  0  0
   40.3396   32.7373   48.2715 H   0  0  0  0  0  0  0  0  0  0  0  0
   38.7744   32.9847   45.6745 H   0  0  0  0  0  0  0  0  0  0  0  0
   40.5223   32.4878   45.9702 H   0  0  0  0  0  0  0  0  0  0  0  0
   39.5484   30.5439   47.2689 H   0  0  0  0  0  0  0  0  0  0  0  0
   38.9706   30.4611   45.5275 H   0  0  0  0  0  0  0  0  0  0  0  0
   36.9559   31.8866   46.3377 H   0  0  0  0  0  0  0  0  0  0  0  0
   36.4607   29.3614   45.5780 C   0  0  0  0  0  0  0  0  0  0  0  0
   36.9232   29.8258   46.7916 C   0  0  0  0  0  0  0  0  0  0  0  0
   36.8171   28.9322   47.8620 C   0  0  0  0  0  0  0  0  0  0  0  0
   37.1735   29.2799   48.8151 H   0  0  0  0  0  0  0  0  0  0  0  0
   36.2962   27.6735   47.7556 C   0  0  0  0  0  0  0  0  0  0  0  0
   35.8439   27.2450   46.5247 C   0  0  0  0  0  0  0  0  0  0  0  0
   35.9298   28.0950   45.4414 C   0  0  0  0  0  0  0  0  0  0  0  0
   35.3634   25.9315   46.6882 O   0  0  0  0  0  0  0  0  0  0  0  0
   35.0040   25.8347   48.0702 C   0  0  1  0  0  0  0  0  0  0  0  0
   34.0432   26.4040   48.2039 H   0  0  0  0  0  0  0  0  0  0  0  0
   36.0772   26.6115   48.6241 O   0  0  0  0  0  0  0  0  0  0  0  0
   36.5261   30.0248   44.7250 H   0  0  0  0  0  0  0  0  0  0  0  0
   35.5692   27.7349   44.4920 H   0  0  0  0  0  0  0  0  0  0  0  0
   34.9732   24.8149   48.4470 H   0  0  0  0  0  0  0  0  0  0  0  0
  2  1  2  0
  3  2  1  0
  4  3  2  0
  4  5  1  0
  5  6  2  0
  6  1  1  0
  7  8  1  0
  7  3  1  0
  9  8  1  0
 10 11  1  0
 10  9  1  0
 11 12  1  0
 12  7  1  0
  1 13  1  0
  2 14  1  0
  5 15  1  0
  8 16  1  0
  8 17  1  0
  9 18  1  0
  9 19  1  0
 10 20  1  0
 10 21  1  0
 11 22  1  0
 11 23  1  0
 12 24  1  6
 25 26  2  0
 26 27  1  0
 27 28  1  0
 27 29  2  0
 29 30  1  0
 30 31  2  0
 30 32  1  0
 32 33  1  0
 33 34  1  6
 33 35  1  0
 31 25  1  0
 35 29  1  0
 25 36  1  0
 31 37  1  0
 33 38  1  0
 12 26  1  0
M  ISO  8  13  14  14  14  15  14  16  13  17  13  18  13  19  13  20  13
M  ISO  6  21  13  22  13  23  13  24  13  28  16  34   8
M  END
>  <DihAtoms>  (1) 
10,11,25,24

>  <DihDeg>  (1) 
70.72657760189098

$$$$
