
 OpenBabel03272510163D

 30 33  0  0  0  0  0  0  0  0999 V2000
   37.2310   29.5740   51.2320 Br  0  0  0  0  0  0  0  0  0  0  0  0
   36.0220   29.3510   49.7660 C   0  0  0  0  0  0  0  0  0  0  0  0
   36.1120   30.1640   48.6450 C   0  0  0  0  0  0  0  0  0  0  0  0
   35.2060   29.9400   47.6350 C   0  0  0  0  0  0  0  0  0  0  0  0
   34.2240   28.9630   47.6730 C   0  0  0  0  0  0  0  0  0  0  0  0
   34.1720   28.1830   48.8010 C   0  0  0  0  0  0  0  0  0  0  0  0
   35.0650   28.3800   49.8360 C   0  0  0  0  0  0  0  0  0  0  0  0
   35.2700   30.5720   46.7510 H   0  0  0  0  0  0  0  0  0  0  0  0
   33.4120   27.4070   48.8620 H   0  0  0  0  0  0  0  0  0  0  0  0
   34.9890   27.7340   50.7190 H   0  0  0  0  0  0  0  0  0  0  0  0
   31.9830   28.5200   46.8910 C   0  0  0  0  0  3  0  0  0  0  0  0
   33.2980   28.7800   46.5690 C   0  0  0  0  0  0  0  0  0  0  0  0
   33.6680   28.8510   45.2420 C   0  0  0  0  0  0  0  0  0  0  0  0
   34.6850   29.0510   44.9850 H   0  0  0  0  0  0  0  0  0  0  0  0
   32.7170   28.6620   44.2670 C   0  0  0  0  0  0  0  0  0  0  0  0
   31.3880   28.4000   44.5960 C   0  0  0  0  0  0  0  0  0  0  0  0
   30.9870   28.3230   45.9290 C   0  0  0  0  0  3  0  0  0  0  0  0
   30.5950   28.2430   43.4510 O   0  0  0  0  0  0  0  0  0  0  0  0
   31.4000   28.8370   42.4210 C   0  0  0  0  0  3  0  0  0  0  0  0
   31.2110   28.3680   41.4560 H   0  0  0  0  0  0  0  0  0  0  0  0
   32.7340   28.6640   42.8620 O   0  0  0  0  0  0  0  0  0  0  0  0
   37.9930   33.1900   49.4090 C   0  0  0  0  0  0  0  0  0  0  0  0
   39.0270   33.2000   48.4470 C   0  0  0  0  0  0  0  0  0  0  0  0
   39.0600   32.1510   47.5360 C   0  0  0  0  0  0  0  0  0  0  0  0
   38.1080   31.1610   47.6030 N   0  0  0  0  0  0  0  0  0  0  0  0
   37.1310   31.2060   48.5580 C   0  0  0  0  0  0  0  0  0  0  0  0
   37.0830   32.2130   49.4470 N   0  0  0  0  0  0  0  0  0  0  0  0
   38.0060   34.0250   50.0980 H   0  0  0  0  0  0  0  0  0  0  0  0
   39.7820   33.9720   48.3830 H   0  0  0  0  0  0  0  0  0  0  0  0
   39.8010   32.0500   46.7540 H   0  0  0  0  0  0  0  0  0  0  0  0
  2  7  1  0  0  0  0
  2  1  1  0  0  0  0
  3  2  2  0  0  0  0
  4  5  2  0  0  0  0
  4  3  1  0  0  0  0
  5  6  1  0  0  0  0
  6  9  1  0  0  0  0
  6  7  2  0  0  0  0
  7 10  1  0  0  0  0
  8  4  1  0  0  0  0
 12 11  1  0  0  0  0
 12  5  1  0  0  0  0
 13 12  2  0  0  0  0
 14 13  1  0  0  0  0
 15 16  2  0  0  0  0
 15 13  1  0  0  0  0
 16 17  1  0  0  0  0
 17 11  2  0  0  0  0
 18 16  1  0  0  0  0
 19 21  1  0  0  0  0
 19 18  1  0  0  0  0
 20 19  1  0  0  0  0
 21 15  1  0  0  0  0
 22 27  1  0  0  0  0
 22 28  1  0  0  0  0
 23 22  2  0  0  0  0
 24 25  2  0  0  0  0
 24 23  1  0  0  0  0
 25 26  1  0  0  0  0
 26  3  1  0  0  0  0
 26 27  2  0  0  0  0
 29 23  1  0  0  0  0
 30 24  1  0  0  0  0
M  END
>  <minimizedAffinity>
-5.98791122

>  <minimizedRMSD>
0.566377819

$$$$
