
 OpenBabel03272509073D

 42 46  0  0  0  0  0  0  0  0999 V2000
   33.0510   28.1750   47.8660 C   0  0  0  0  0  0  0  0  0  0  0  0
   32.3880   28.8580   47.3410 H   0  0  0  0  0  0  0  0  0  0  0  0
   32.4610   27.7420   48.7020 H   0  0  0  0  0  0  0  0  0  0  0  0
   33.4400   27.0140   47.0170 C   0  0  0  0  0  0  0  0  0  0  0  0
   33.4090   25.6830   47.4230 C   0  0  0  0  0  0  0  0  0  0  0  0
   33.7770   24.6740   46.5740 C   0  0  0  0  0  0  0  0  0  0  0  0
   34.1900   24.9440   45.2880 C   0  0  0  0  0  0  0  0  0  0  0  0
   34.2210   26.2560   44.8810 C   0  0  0  0  0  0  0  0  0  0  0  0
   33.8520   27.2920   45.7290 C   0  0  0  0  0  0  0  0  0  0  0  0
   33.0700   25.5580   48.4600 H   0  0  0  0  0  0  0  0  0  0  0  0
   33.6920   23.7160   47.0520 H   0  0  0  0  0  0  0  0  0  0  0  0
   34.4550   24.0760   44.7050 H   0  0  0  0  0  0  0  0  0  0  0  0
   34.5640   26.3330   43.8480 H   0  0  0  0  0  0  0  0  0  0  0  0
   35.0840   29.4130   44.9140 C   0  0  0  0  0  3  0  0  0  0  0  0
   34.0110   28.5630   45.0320 C   0  0  0  0  0  0  0  0  0  0  0  0
   32.8500   29.0180   44.3880 C   0  0  0  0  0  0  0  0  0  0  0  0
   31.9230   28.4360   44.4040 H   0  0  0  0  0  0  0  0  0  0  0  0
   32.7480   30.2030   43.6910 C   0  0  0  0  0  0  0  0  0  0  0  0
   33.8550   31.0170   43.6050 C   0  0  0  0  0  0  0  0  0  0  0  0
   34.9980   30.5950   44.2230 C   0  0  0  0  0  3  0  0  0  0  0  0
   33.5060   32.1350   42.8620 O   0  0  0  0  0  0  0  0  0  0  0  0
   32.3560   31.7890   42.1110 C   0  0  0  0  0  3  0  0  0  0  0  0
   32.7190   31.3070   41.1810 H   0  0  0  0  0  0  0  0  0  0  0  0
   31.7350   30.8430   42.9930 O   0  0  0  0  0  0  0  0  0  0  0  0
   34.9920   28.3970   49.4480 C   0  0  0  0  0  3  0  0  0  0  0  0
   34.1980   28.8550   48.5100 C   0  0  0  0  0  3  0  0  0  0  0  0
   37.3900   30.1510   51.5620 C   0  0  0  0  0  0  0  0  0  0  0  0
   38.0990   30.9210   50.6190 C   0  0  0  0  0  0  0  0  0  0  0  0
   37.7210   30.8110   49.2590 C   0  0  0  0  0  0  0  0  0  0  0  0
   36.6940   29.9670   48.9420 N   0  0  0  0  0  0  0  0  0  0  0  0
   36.0570   29.2580   49.9120 C   0  0  0  0  0  0  0  0  0  0  0  0
   36.3970   29.3470   51.1950 N   0  0  0  0  0  0  0  0  0  0  0  0
   37.7150   30.2680   52.6020 H   0  0  0  0  0  0  0  0  0  0  0  0
   38.9170   31.5930   50.8680 H   0  0  0  0  0  0  0  0  0  0  0  0
   38.3760   31.5700   48.1940 C   0  0  0  0  0  0  0  0  0  0  0  0
   38.5650   31.0560   46.9300 C   0  0  0  0  0  0  0  0  0  0  0  0
   39.2060   32.0430   46.1730 C   0  0  0  0  0  0  0  0  0  0  0  0
   39.3730   33.0980   47.0050 N   0  0  0  0  0  0  0  0  0  0  0  0
   38.8820   32.8260   48.2120 N   0  0  0  0  0  0  0  0  0  0  0  0
   38.2830   30.0670   46.5470 H   0  0  0  0  0  0  0  0  0  0  0  0
   39.4840   31.9240   45.1360 H   0  0  0  0  0  0  0  0  0  0  0  0
   39.8420   33.9650   46.6370 H   0  0  0  0  0  0  0  0  0  0  0  0
  1 26  1  0  0  0  0
  1  3  1  0  0  0  0
  2  1  1  0  0  0  0
  4  5  1  0  0  0  0
  4  1  1  0  0  0  0
  5 10  1  0  0  0  0
  6 11  1  0  0  0  0
  6  5  2  0  0  0  0
  7  6  1  0  0  0  0
  8  7  2  0  0  0  0
  8  9  1  0  0  0  0
  9  4  2  0  0  0  0
 12  7  1  0  0  0  0
 13  8  1  0  0  0  0
 14 15  1  0  0  0  0
 15  9  1  0  0  0  0
 16 17  1  0  0  0  0
 16 15  2  0  0  0  0
 18 16  1  0  0  0  0
 19 18  2  0  0  0  0
 19 20  1  0  0  0  0
 20 14  2  0  0  0  0
 21 19  1  0  0  0  0
 22 21  1  0  0  0  0
 22 24  1  0  0  0  0
 23 22  1  0  0  0  0
 24 18  1  0  0  0  0
 25 31  1  0  0  0  0
 26 25  2  0  0  0  0
 27 33  1  0  0  0  0
 28 34  1  0  0  0  0
 28 27  2  0  0  0  0
 29 28  1  0  0  0  0
 30 29  2  0  0  0  0
 30 31  1  0  0  0  0
 31 32  2  0  0  0  0
 32 27  1  0  0  0  0
 35 39  2  0  0  0  0
 35 29  1  0  0  0  0
 36 35  1  0  0  0  0
 37 36  2  0  0  0  0
 37 38  1  0  0  0  0
 38 39  1  0  0  0  0
 40 36  1  0  0  0  0
 41 37  1  0  0  0  0
 42 38  1  0  0  0  0
M  END
>  <minimizedAffinity>
-6.577003

>  <minimizedRMSD>
0.433188647

$$$$
