
 OpenBabel03272510283D

 47 52  0  0  1  0  0  0  0  0999 V2000
   33.8390   31.1830   33.9190 N   0  0  0  0  0  0  0  0  0  0  0  0
   34.2350   30.3220   32.8410 C   0  0  1  0  0  0  0  0  0  0  0  0
   33.7770   30.8400   31.5590 C   0  0  0  0  0  0  0  0  0  0  0  0
   32.3750   30.8680   31.5550 O   0  0  0  0  0  0  0  0  0  0  0  0
   31.8070   31.5550   32.6030 C   0  0  0  0  0  0  0  0  0  0  0  0
   32.3910   31.1850   33.9310 C   0  0  1  0  0  0  0  0  0  0  0  0
   34.3120   32.0330   34.1030 H   0  0  0  0  0  0  0  0  0  0  0  0
   33.8220   29.3220   33.0320 H   0  0  0  0  0  0  0  0  0  0  0  0
   34.0230   30.0540   30.7800 H   0  0  0  0  0  0  0  0  0  0  0  0
   34.0520   31.7710   31.1430 H   0  0  0  0  0  0  0  0  0  0  0  0
   31.8640   32.6660   32.4200 H   0  0  0  0  0  0  0  0  0  0  0  0
   30.7240   31.3380   32.6130 H   0  0  0  0  0  0  0  0  0  0  0  0
   32.1190   32.0350   34.6260 H   0  0  0  0  0  0  0  0  0  0  0  0
   31.2040   28.8820   33.9860 C   0  0  0  0  0  3  0  0  0  0  0  0
   31.8390   29.9720   34.5400 C   0  0  0  0  0  0  0  0  0  0  0  0
   32.0190   29.9880   35.9290 C   0  0  0  0  0  0  0  0  0  0  0  0
   32.5030   30.7800   36.5140 H   0  0  0  0  0  0  0  0  0  0  0  0
   31.5700   28.9310   36.7240 C   0  0  0  0  0  0  0  0  0  0  0  0
   30.9480   27.8850   36.0880 C   0  0  0  0  0  0  0  0  0  0  0  0
   30.7500   27.8260   34.7380 C   0  0  0  0  0  3  0  0  0  0  0  0
   30.5840   26.9530   37.0660 O   0  0  0  0  0  0  0  0  0  0  0  0
   30.8110   27.5360   38.3240 C   0  0  0  0  0  3  0  0  0  0  0  0
   31.3080   26.8370   39.0330 H   0  0  0  0  0  0  0  0  0  0  0  0
   31.6030   28.6680   38.0950 O   0  0  0  0  0  0  0  0  0  0  0  0
   35.6550   30.2420   32.8750 O   0  0  0  0  0  0  0  0  0  0  0  0
   37.7970   24.8360   33.8790 C   0  0  0  0  0  0  0  0  0  0  0  0
   37.9290   25.3420   35.1660 C   0  0  0  0  0  0  0  0  0  0  0  0
   37.5430   26.6480   35.4640 C   0  0  0  0  0  0  0  0  0  0  0  0
   37.0280   27.3950   34.4110 C   0  0  0  0  0  0  0  0  0  0  0  0
   36.5820   28.6970   34.4610 N   0  0  0  0  0  0  0  0  0  0  0  0
   36.1770   28.9910   33.2100 C   0  0  0  0  0  0  0  0  0  0  0  0
   36.3530   27.9480   32.4180 N   0  0  0  0  0  0  0  0  0  0  0  0
   36.8800   26.9350   33.1280 C   0  0  0  0  0  0  0  0  0  0  0  0
   37.2770   25.6170   32.8590 C   0  0  0  0  0  0  0  0  0  0  0  0
   38.0910   23.8230   33.6290 H   0  0  0  0  0  0  0  0  0  0  0  0
   37.6370   27.0630   36.4590 H   0  0  0  0  0  0  0  0  0  0  0  0
   36.5690   29.3180   35.3100 H   0  0  0  0  0  0  0  0  0  0  0  0
   37.1640   25.2450   31.8490 H   0  0  0  0  0  0  0  0  0  0  0  0
   38.6250   23.4360   38.3320 C   0  0  0  0  0  0  0  0  0  0  0  0
   37.9700   24.3090   37.4610 C   0  0  0  0  0  0  0  0  0  0  0  0
   38.4760   24.4820   36.1950 C   0  0  0  0  0  0  0  0  0  0  0  0
   39.6110   23.7700   35.8620 N   0  0  0  0  0  0  0  0  0  0  0  0
   40.2250   22.9320   36.7220 C   0  0  0  0  0  0  0  0  0  0  0  0
   39.7380   22.7710   37.9350 N   0  0  0  0  0  0  0  0  0  0  0  0
   38.1960   23.3300   39.3170 H   0  0  0  0  0  0  0  0  0  0  0  0
   37.0850   24.8660   37.7160 H   0  0  0  0  0  0  0  0  0  0  0  0
   41.1000   22.4400   36.3400 H   0  0  0  0  0  0  0  0  0  0  0  0
  1  6  1  0  0  0  0
  1  7  1  0  0  0  0
  2 25  1  0  0  0  0
  2  8  1  1  0  0  0
  2  1  1  0  0  0  0
  3  2  1  0  0  0  0
  4  3  1  0  0  0  0
  4  5  1  0  0  0  0
  5 12  1  0  0  0  0
  5  6  1  0  0  0  0
  6 15  1  0  0  0  0
  6 13  1  1  0  0  0
  9  3  1  0  0  0  0
 10  3  1  0  0  0  0
 11  5  1  0  0  0  0
 14 15  2  0  0  0  0
 14 20  1  0  0  0  0
 15 16  1  0  0  0  0
 16 17  1  0  0  0  0
 16 18  2  0  0  0  0
 18 24  1  0  0  0  0
 19 18  1  0  0  0  0
 19 21  1  0  0  0  0
 20 19  2  0  0  0  0
 21 22  1  0  0  0  0
 22 23  1  0  0  0  0
 24 22  1  0  0  0  0
 25 31  1  0  0  0  0
 26 27  1  0  0  0  0
 27 28  2  0  0  0  0
 27 41  1  0  0  0  0
 28 36  1  0  0  0  0
 29 30  1  0  0  0  0
 29 28  1  0  0  0  0
 30 37  1  0  0  0  0
 31 30  1  0  0  0  0
 32 33  1  0  0  0  0
 32 31  2  0  0  0  0
 33 29  2  0  0  0  0
 34 33  1  0  0  0  0
 34 26  2  0  0  0  0
 35 26  1  0  0  0  0
 38 34  1  0  0  0  0
 39 45  1  0  0  0  0
 40 46  1  0  0  0  0
 40 39  2  0  0  0  0
 41 40  1  0  0  0  0
 42 41  2  0  0  0  0
 42 43  1  0  0  0  0
 43 44  2  0  0  0  0
 44 39  1  0  0  0  0
 47 43  1  0  0  0  0
M  END
>  <minimizedAffinity>
-6.76981544

$$$$

 OpenBabel03272510283D

 47 52  0  0  1  0  0  0  0  0999 V2000
   39.8410   23.3850   32.6470 N   0  0  0  0  0  0  0  0  0  0  0  0
   39.5700   24.7880   32.7760 C   0  0  1  0  0  0  0  0  0  0  0  0
   40.6760   25.5860   32.2640 C   0  0  0  0  0  0  0  0  0  0  0  0
   41.8180   25.3270   33.0340 O   0  0  0  0  0  0  0  0  0  0  0  0
   42.1640   23.9990   33.1290 C   0  0  0  0  0  0  0  0  0  0  0  0
   41.0030   23.1150   33.4680 C   0  0  1  0  0  0  0  0  0  0  0  0
   39.7630   22.9200   31.7760 H   0  0  0  0  0  0  0  0  0  0  0  0
   39.3860   25.0060   33.8370 H   0  0  0  0  0  0  0  0  0  0  0  0
   40.4400   26.6680   32.5060 H   0  0  0  0  0  0  0  0  0  0  0  0
   41.0300   25.5720   31.2690 H   0  0  0  0  0  0  0  0  0  0  0  0
   42.6810   23.6600   32.1850 H   0  0  0  0  0  0  0  0  0  0  0  0
   42.9360   23.8970   33.9120 H   0  0  0  0  0  0  0  0  0  0  0  0
   41.3220   22.0720   33.1680 H   0  0  0  0  0  0  0  0  0  0  0  0
   41.4150   22.6430   35.9840 C   0  0  0  0  0  3  0  0  0  0  0  0
   40.6720   23.0410   34.8930 C   0  0  0  0  0  0  0  0  0  0  0  0
   39.3550   23.4620   35.1180 C   0  0  0  0  0  0  0  0  0  0  0  0
   38.6420   23.8060   34.3580 H   0  0  0  0  0  0  0  0  0  0  0  0
   38.8150   23.4760   36.4060 C   0  0  0  0  0  0  0  0  0  0  0  0
   39.6270   23.0620   37.4340 C   0  0  0  0  0  0  0  0  0  0  0  0
   40.9150   22.6450   37.2630 C   0  0  0  0  0  3  0  0  0  0  0  0
   38.8890   23.1570   38.6190 O   0  0  0  0  0  0  0  0  0  0  0  0
   37.5560   23.4400   38.2760 C   0  0  0  0  0  3  0  0  0  0  0  0
   37.1110   24.2320   38.9180 H   0  0  0  0  0  0  0  0  0  0  0  0
   37.5710   23.8320   36.9320 O   0  0  0  0  0  0  0  0  0  0  0  0
   38.3780   25.0480   32.0450 O   0  0  0  0  0  0  0  0  0  0  0  0
   35.7500   30.2640   32.8860 C   0  0  0  0  0  0  0  0  0  0  0  0
   35.6750   29.7930   34.1900 C   0  0  0  0  0  0  0  0  0  0  0  0
   36.1830   28.5390   34.5290 C   0  0  0  0  0  0  0  0  0  0  0  0
   36.7570   27.8070   33.4960 C   0  0  0  0  0  0  0  0  0  0  0  0
   37.3230   26.5540   33.5860 N   0  0  0  0  0  0  0  0  0  0  0  0
   37.7440   26.2560   32.3420 C   0  0  0  0  0  0  0  0  0  0  0  0
   37.4660   27.2500   31.5170 N   0  0  0  0  0  0  0  0  0  0  0  0
   36.8520   28.2340   32.1970 C   0  0  0  0  0  0  0  0  0  0  0  0
   36.3330   29.4990   31.8880 C   0  0  0  0  0  0  0  0  0  0  0  0
   35.3610   31.2360   32.6040 H   0  0  0  0  0  0  0  0  0  0  0  0
   36.1350   28.1520   35.5380 H   0  0  0  0  0  0  0  0  0  0  0  0
   37.3990   25.9680   34.4560 H   0  0  0  0  0  0  0  0  0  0  0  0
   36.4030   29.8440   30.8640 H   0  0  0  0  0  0  0  0  0  0  0  0
   34.9470   32.2890   36.9080 C   0  0  0  0  0  0  0  0  0  0  0  0
   35.6980   31.5590   35.9850 C   0  0  0  0  0  0  0  0  0  0  0  0
   35.0580   30.6340   35.1950 C   0  0  0  0  0  0  0  0  0  0  0  0
   33.6950   30.4860   35.3680 N   0  0  0  0  0  0  0  0  0  0  0  0
   32.9920   31.2050   36.2670 C   0  0  0  0  0  0  0  0  0  0  0  0
   33.6110   32.0900   37.0220 N   0  0  0  0  0  0  0  0  0  0  0  0
   35.4880   33.0040   37.5080 H   0  0  0  0  0  0  0  0  0  0  0  0
   36.7600   31.6700   35.8460 H   0  0  0  0  0  0  0  0  0  0  0  0
   31.9390   30.9940   36.3030 H   0  0  0  0  0  0  0  0  0  0  0  0
  1  2  1  0  0  0  0
  1  6  1  0  0  0  0
  2  8  1  1  0  0  0
  3  9  1  0  0  0  0
  3  2  1  0  0  0  0
  3  4  1  0  0  0  0
  4  5  1  0  0  0  0
  5  6  1  0  0  0  0
  5 12  1  0  0  0  0
  6 13  1  6  0  0  0
  6 15  1  0  0  0  0
  7  1  1  0  0  0  0
 10  3  1  0  0  0  0
 11  5  1  0  0  0  0
 14 20  1  0  0  0  0
 15 16  1  0  0  0  0
 15 14  2  0  0  0  0
 16 18  2  0  0  0  0
 17 16  1  0  0  0  0
 18 24  1  0  0  0  0
 18 19  1  0  0  0  0
 19 21  1  0  0  0  0
 20 19  2  0  0  0  0
 22 21  1  0  0  0  0
 22 23  1  0  0  0  0
 24 22  1  0  0  0  0
 25 31  1  0  0  0  0
 25  2  1  0  0  0  0
 26 27  1  0  0  0  0
 27 28  2  0  0  0  0
 27 41  1  0  0  0  0
 28 36  1  0  0  0  0
 29 30  1  0  0  0  0
 29 28  1  0  0  0  0
 30 37  1  0  0  0  0
 31 30  1  0  0  0  0
 32 33  1  0  0  0  0
 32 31  2  0  0  0  0
 33 29  2  0  0  0  0
 34 33  1  0  0  0  0
 34 26  2  0  0  0  0
 35 26  1  0  0  0  0
 38 34  1  0  0  0  0
 39 44  1  0  0  0  0
 39 45  1  0  0  0  0
 40 39  2  0  0  0  0
 41 42  2  0  0  0  0
 41 40  1  0  0  0  0
 42 43  1  0  0  0  0
 43 47  1  0  0  0  0
 43 44  2  0  0  0  0
 46 40  1  0  0  0  0
M  END
>  <minimizedAffinity>
-6.71623945

$$$$

 OpenBabel03272510283D

 47 52  0  0  1  0  0  0  0  0999 V2000
   36.1380   28.2810   30.6180 N   0  0  0  0  0  0  0  0  0  0  0  0
   36.3980   29.6780   30.8220 C   0  0  1  0  0  0  0  0  0  0  0  0
   36.9660   30.2860   29.6260 C   0  0  0  0  0  0  0  0  0  0  0  0
   38.2020   29.6840   29.3530 O   0  0  0  0  0  0  0  0  0  0  0  0
   38.1680   28.3130   29.2460 C   0  0  0  0  0  0  0  0  0  0  0  0
   37.4210   27.6570   30.3670 C   0  0  1  0  0  0  0  0  0  0  0  0
   35.3550   27.9710   30.0980 H   0  0  0  0  0  0  0  0  0  0  0  0
   37.0820   29.7780   31.6760 H   0  0  0  0  0  0  0  0  0  0  0  0
   37.2500   31.3490   29.9010 H   0  0  0  0  0  0  0  0  0  0  0  0
   36.4930   30.3360   28.6830 H   0  0  0  0  0  0  0  0  0  0  0  0
   37.7580   28.0080   28.2410 H   0  0  0  0  0  0  0  0  0  0  0  0
   39.2070   27.9400   29.2390 H   0  0  0  0  0  0  0  0  0  0  0  0
   37.1600   26.6240   29.9890 H   0  0  0  0  0  0  0  0  0  0  0  0
   39.5480   27.3640   31.8180 C   0  0  0  0  0  3  0  0  0  0  0  0
   38.1910   27.4560   31.5960 C   0  0  0  0  0  0  0  0  0  0  0  0
   37.3400   27.3450   32.7020 C   0  0  0  0  0  0  0  0  0  0  0  0
   36.2430   27.3970   32.6890 H   0  0  0  0  0  0  0  0  0  0  0  0
   37.8510   27.1470   33.9870 C   0  0  0  0  0  0  0  0  0  0  0  0
   39.2170   27.0670   34.1150 C   0  0  0  0  0  0  0  0  0  0  0  0
   40.0850   27.1700   33.0670 C   0  0  0  0  0  3  0  0  0  0  0  0
   39.5020   26.8690   35.4700 O   0  0  0  0  0  0  0  0  0  0  0  0
   38.2880   26.6270   36.1370 C   0  0  0  0  0  3  0  0  0  0  0  0
   38.2100   27.1880   37.0940 H   0  0  0  0  0  0  0  0  0  0  0  0
   37.2720   27.0010   35.2500 O   0  0  0  0  0  0  0  0  0  0  0  0
   35.1570   30.2860   31.1570 O   0  0  0  0  0  0  0  0  0  0  0  0
   35.1220   32.2150   36.7330 C   0  0  0  0  0  0  0  0  0  0  0  0
   34.1120   33.0280   36.2380 C   0  0  0  0  0  0  0  0  0  0  0  0
   33.7230   32.9520   34.9010 C   0  0  0  0  0  0  0  0  0  0  0  0
   34.4010   32.0290   34.1130 C   0  0  0  0  0  0  0  0  0  0  0  0
   34.1940   31.7740   32.7750 N   0  0  0  0  0  0  0  0  0  0  0  0
   35.0750   30.8070   32.4500 C   0  0  0  0  0  0  0  0  0  0  0  0
   35.7920   30.4700   33.5070 N   0  0  0  0  0  0  0  0  0  0  0  0
   35.4030   31.2080   34.5620 C   0  0  0  0  0  0  0  0  0  0  0  0
   35.7700   31.3060   35.9110 C   0  0  0  0  0  0  0  0  0  0  0  0
   35.4380   32.2590   37.7700 H   0  0  0  0  0  0  0  0  0  0  0  0
   32.9390   33.5760   34.4930 H   0  0  0  0  0  0  0  0  0  0  0  0
   33.4900   32.2470   32.1540 H   0  0  0  0  0  0  0  0  0  0  0  0
   36.5610   30.6620   36.2740 H   0  0  0  0  0  0  0  0  0  0  0  0
   33.2880   35.4840   38.9640 C   0  0  0  0  0  0  0  0  0  0  0  0
   34.0610   34.6180   38.1900 C   0  0  0  0  0  0  0  0  0  0  0  0
   33.4660   33.9580   37.1410 C   0  0  0  0  0  0  0  0  0  0  0  0
   32.1250   34.2010   36.9170 N   0  0  0  0  0  0  0  0  0  0  0  0
   31.4000   35.0450   37.6800 C   0  0  0  0  0  0  0  0  0  0  0  0
   31.9740   35.6730   38.6850 N   0  0  0  0  0  0  0  0  0  0  0  0
   33.7940   35.9810   39.7770 H   0  0  0  0  0  0  0  0  0  0  0  0
   35.1070   34.4240   38.3590 H   0  0  0  0  0  0  0  0  0  0  0  0
   30.3670   35.1450   37.4020 H   0  0  0  0  0  0  0  0  0  0  0  0
  1  2  1  0  0  0  0
  2 25  1  0  0  0  0
  2  8  1  1  0  0  0
  3  9  1  0  0  0  0
  3  2  1  0  0  0  0
  4  3  1  0  0  0  0
  5  4  1  0  0  0  0
  5  6  1  0  0  0  0
  6 13  1  6  0  0  0
  6  1  1  0  0  0  0
  6 15  1  0  0  0  0
  7  1  1  0  0  0  0
 10  3  1  0  0  0  0
 11  5  1  0  0  0  0
 12  5  1  0  0  0  0
 14 20  1  0  0  0  0
 15 14  2  0  0  0  0
 15 16  1  0  0  0  0
 16 18  2  0  0  0  0
 17 16  1  0  0  0  0
 18 19  1  0  0  0  0
 18 24  1  0  0  0  0
 19 21  1  0  0  0  0
 20 19  2  0  0  0  0
 21 22  1  0  0  0  0
 22 23  1  0  0  0  0
 24 22  1  0  0  0  0
 25 31  1  0  0  0  0
 26 35  1  0  0  0  0
 27 26  1  0  0  0  0
 27 41  1  0  0  0  0
 28 27  2  0  0  0  0
 29 33  2  0  0  0  0
 29 28  1  0  0  0  0
 30 29  1  0  0  0  0
 31 30  1  0  0  0  0
 31 32  2  0  0  0  0
 32 33  1  0  0  0  0
 33 34  1  0  0  0  0
 34 38  1  0  0  0  0
 34 26  2  0  0  0  0
 36 28  1  0  0  0  0
 37 30  1  0  0  0  0
 39 45  1  0  0  0  0
 40 46  1  0  0  0  0
 40 39  2  0  0  0  0
 41 40  1  0  0  0  0
 42 41  2  0  0  0  0
 42 43  1  0  0  0  0
 43 44  2  0  0  0  0
 44 39  1  0  0  0  0
 47 43  1  0  0  0  0
M  END
>  <minimizedAffinity>
-6.49944019

$$$$

 OpenBabel03272510283D

 47 52  0  0  1  0  0  0  0  0999 V2000
   35.6410   28.9900   33.0160 N   0  0  0  0  0  0  0  0  0  0  0  0
   35.4670   29.8240   31.8620 C   0  0  1  0  0  0  0  0  0  0  0  0
   36.1440   31.1030   32.0320 C   0  0  0  0  0  0  0  0  0  0  0  0
   35.5650   31.7850   33.1100 O   0  0  0  0  0  0  0  0  0  0  0  0
   35.5300   31.0790   34.2910 C   0  0  0  0  0  0  0  0  0  0  0  0
   35.0150   29.6830   34.1230 C   0  0  1  0  0  0  0  0  0  0  0  0
   36.4900   28.5080   33.1840 H   0  0  0  0  0  0  0  0  0  0  0  0
   34.3900   29.9690   31.7030 H   0  0  0  0  0  0  0  0  0  0  0  0
   35.8650   31.7440   31.1390 H   0  0  0  0  0  0  0  0  0  0  0  0
   37.1830   31.2290   32.1780 H   0  0  0  0  0  0  0  0  0  0  0  0
   36.5440   31.0890   34.7840 H   0  0  0  0  0  0  0  0  0  0  0  0
   34.8790   31.6200   35.0000 H   0  0  0  0  0  0  0  0  0  0  0  0
   35.3640   29.1210   35.0400 H   0  0  0  0  0  0  0  0  0  0  0  0
   32.6930   29.0870   33.1360 C   0  0  0  0  0  3  0  0  0  0  0  0
   33.5550   29.5550   34.1030 C   0  0  0  0  0  0  0  0  0  0  0  0
   33.0020   30.0070   35.3080 C   0  0  0  0  0  0  0  0  0  0  0  0
   33.5540   30.4060   36.1690 H   0  0  0  0  0  0  0  0  0  0  0  0
   31.6210   29.9830   35.5200 C   0  0  0  0  0  0  0  0  0  0  0  0
   30.8370   29.5000   34.5010 C   0  0  0  0  0  0  0  0  0  0  0  0
   31.3310   29.0490   33.3110 C   0  0  0  0  0  3  0  0  0  0  0  0
   29.5060   29.5680   34.9250 O   0  0  0  0  0  0  0  0  0  0  0  0
   29.4730   30.2860   36.1330 C   0  0  0  0  0  3  0  0  0  0  0  0
   28.8170   29.8080   36.8930 H   0  0  0  0  0  0  0  0  0  0  0  0
   30.7970   30.3550   36.5840 O   0  0  0  0  0  0  0  0  0  0  0  0
   36.0000   29.1130   30.7520 O   0  0  0  0  0  0  0  0  0  0  0  0
   37.8260   23.6200   31.8950 C   0  0  0  0  0  0  0  0  0  0  0  0
   36.5170   23.3220   31.5380 C   0  0  0  0  0  0  0  0  0  0  0  0
   35.6300   24.3310   31.1650 C   0  0  0  0  0  0  0  0  0  0  0  0
   36.1310   25.6280   31.1740 C   0  0  0  0  0  0  0  0  0  0  0  0
   35.4510   26.7790   30.8450 N   0  0  0  0  0  0  0  0  0  0  0  0
   36.3380   27.7810   30.9990 C   0  0  0  0  0  0  0  0  0  0  0  0
   37.5020   27.3010   31.3980 N   0  0  0  0  0  0  0  0  0  0  0  0
   37.4150   25.9650   31.5190 C   0  0  0  0  0  0  0  0  0  0  0  0
   38.2830   24.9280   31.8880 C   0  0  0  0  0  0  0  0  0  0  0  0
   38.5300   22.8490   32.1870 H   0  0  0  0  0  0  0  0  0  0  0  0
   34.6060   24.1220   30.8840 H   0  0  0  0  0  0  0  0  0  0  0  0
   34.4460   26.8420   30.5400 H   0  0  0  0  0  0  0  0  0  0  0  0
   39.2980   25.1850   32.1620 H   0  0  0  0  0  0  0  0  0  0  0  0
   34.7630   20.0580   32.1800 C   0  0  0  0  0  0  0  0  0  0  0  0
   35.0370   21.4230   32.2750 C   0  0  0  0  0  0  0  0  0  0  0  0
   36.0920   21.9370   31.5600 C   0  0  0  0  0  0  0  0  0  0  0  0
   36.8200   21.0590   30.7820 N   0  0  0  0  0  0  0  0  0  0  0  0
   36.5340   19.7430   30.7060 C   0  0  0  0  0  0  0  0  0  0  0  0
   35.5230   19.2540   31.3960 N   0  0  0  0  0  0  0  0  0  0  0  0
   33.9280   19.6950   32.7580 H   0  0  0  0  0  0  0  0  0  0  0  0
   34.4730   22.1130   32.8790 H   0  0  0  0  0  0  0  0  0  0  0  0
   37.1780   19.1680   30.0670 H   0  0  0  0  0  0  0  0  0  0  0  0
  1  7  1  0  0  0  0
  1  6  1  0  0  0  0
  2  8  1  6  0  0  0
  2  3  1  0  0  0  0
  2  1  1  0  0  0  0
  3 10  1  0  0  0  0
  3  4  1  0  0  0  0
  4  5  1  0  0  0  0
  5 11  1  0  0  0  0
  5 12  1  0  0  0  0
  6  5  1  0  0  0  0
  6 13  1  1  0  0  0
  9  3  1  0  0  0  0
 14 20  2  0  0  0  0
 14 15  1  0  0  0  0
 15  6  1  0  0  0  0
 15 16  2  0  0  0  0
 16 18  1  0  0  0  0
 16 17  1  0  0  0  0
 18 24  1  0  0  0  0
 19 21  1  0  0  0  0
 19 18  2  0  0  0  0
 20 19  1  0  0  0  0
 21 22  1  0  0  0  0
 22 24  1  0  0  0  0
 22 23  1  0  0  0  0
 25 31  1  0  0  0  0
 25  2  1  0  0  0  0
 26 35  1  0  0  0  0
 27 41  1  0  0  0  0
 27 26  2  0  0  0  0
 28 29  2  0  0  0  0
 28 27  1  0  0  0  0
 29 33  1  0  0  0  0
 30 31  1  0  0  0  0
 30 29  1  0  0  0  0
 31 32  2  0  0  0  0
 32 33  1  0  0  0  0
 33 34  2  0  0  0  0
 34 26  1  0  0  0  0
 34 38  1  0  0  0  0
 36 28  1  0  0  0  0
 37 30  1  0  0  0  0
 39 40  1  0  0  0  0
 39 45  1  0  0  0  0
 40 46  1  0  0  0  0
 41 40  2  0  0  0  0
 42 41  1  0  0  0  0
 43 42  2  0  0  0  0
 43 44  1  0  0  0  0
 44 39  2  0  0  0  0
 47 43  1  0  0  0  0
M  END
>  <minimizedAffinity>
-6.47249699

$$$$

 OpenBabel03272510283D

 47 52  0  0  1  0  0  0  0  0999 V2000
   35.2190   28.7480   32.6520 N   0  0  0  0  0  0  0  0  0  0  0  0
   35.8620   30.0040   32.3900 C   0  0  1  0  0  0  0  0  0  0  0  0
   36.0710   30.1980   30.9610 C   0  0  0  0  0  0  0  0  0  0  0  0
   36.9330   29.2000   30.4870 O   0  0  0  0  0  0  0  0  0  0  0  0
   36.5340   27.9120   30.7620 C   0  0  0  0  0  0  0  0  0  0  0  0
   36.1250   27.7180   32.1900 C   0  0  1  0  0  0  0  0  0  0  0  0
   34.2480   28.6220   32.5010 H   0  0  0  0  0  0  0  0  0  0  0  0
   36.8160   30.0200   32.9320 H   0  0  0  0  0  0  0  0  0  0  0  0
   36.6810   31.1460   30.8440 H   0  0  0  0  0  0  0  0  0  0  0  0
   35.3070   30.2420   30.2320 H   0  0  0  0  0  0  0  0  0  0  0  0
   35.7190   27.5940   30.0510 H   0  0  0  0  0  0  0  0  0  0  0  0
   37.3750   27.2330   30.5320 H   0  0  0  0  0  0  0  0  0  0  0  0
   35.5040   26.7730   32.1980 H   0  0  0  0  0  0  0  0  0  0  0  0
   37.2630   27.4620   34.5050 C   0  0  0  0  0  3  0  0  0  0  0  0
   37.2270   27.4860   33.1280 C   0  0  0  0  0  0  0  0  0  0  0  0
   38.4240   27.2550   32.4390 C   0  0  0  0  0  0  0  0  0  0  0  0
   38.5570   27.2410   31.3490 H   0  0  0  0  0  0  0  0  0  0  0  0
   39.6150   27.0090   33.1270 C   0  0  0  0  0  0  0  0  0  0  0  0
   39.5580   27.0040   34.5000 C   0  0  0  0  0  0  0  0  0  0  0  0
   38.4150   27.2240   35.2140 C   0  0  0  0  0  3  0  0  0  0  0  0
   40.8480   26.7430   34.9740 O   0  0  0  0  0  0  0  0  0  0  0  0
   41.7280   26.7890   33.8790 C   0  0  0  0  0  3  0  0  0  0  0  0
   42.4580   25.9490   33.8850 H   0  0  0  0  0  0  0  0  0  0  0  0
   40.9290   26.7520   32.7310 O   0  0  0  0  0  0  0  0  0  0  0  0
   35.0190   31.0200   32.9200 O   0  0  0  0  0  0  0  0  0  0  0  0
   29.8380   29.2090   35.0850 C   0  0  0  0  0  0  0  0  0  0  0  0
   30.6140   28.9760   36.2130 C   0  0  0  0  0  0  0  0  0  0  0  0
   31.9800   29.2550   36.2110 C   0  0  0  0  0  0  0  0  0  0  0  0
   32.5030   29.7700   35.0300 C   0  0  0  0  0  0  0  0  0  0  0  0
   33.8130   30.1220   34.7900 N   0  0  0  0  0  0  0  0  0  0  0  0
   33.8410   30.5690   33.5190 C   0  0  0  0  0  0  0  0  0  0  0  0
   32.6330   30.5070   32.9880 N   0  0  0  0  0  0  0  0  0  0  0  0
   31.7720   30.0150   33.8960 C   0  0  0  0  0  0  0  0  0  0  0  0
   30.4010   29.7250   33.9290 C   0  0  0  0  0  0  0  0  0  0  0  0
   28.7740   28.9980   35.0680 H   0  0  0  0  0  0  0  0  0  0  0  0
   32.6050   29.0810   37.0770 H   0  0  0  0  0  0  0  0  0  0  0  0
   34.6110   30.0480   35.4710 H   0  0  0  0  0  0  0  0  0  0  0  0
   29.8170   29.9150   33.0380 H   0  0  0  0  0  0  0  0  0  0  0  0
   29.7730   27.1450   39.3890 C   0  0  0  0  0  0  0  0  0  0  0  0
   30.5360   27.5670   38.2970 C   0  0  0  0  0  0  0  0  0  0  0  0
   29.9740   28.4370   37.3950 C   0  0  0  0  0  0  0  0  0  0  0  0
   28.6760   28.8460   37.6310 N   0  0  0  0  0  0  0  0  0  0  0  0
   27.9600   28.4250   38.6940 C   0  0  0  0  0  0  0  0  0  0  0  0
   28.5030   27.5890   39.5560 N   0  0  0  0  0  0  0  0  0  0  0  0
   30.2520   26.4620   40.0720 H   0  0  0  0  0  0  0  0  0  0  0  0
   31.5480   27.2510   38.1080 H   0  0  0  0  0  0  0  0  0  0  0  0
   26.9620   28.8160   38.7620 H   0  0  0  0  0  0  0  0  0  0  0  0
  2  1  1  0  0  0  0
  2 25  1  0  0  0  0
  2  8  1  1  0  0  0
  3  2  1  0  0  0  0
  4  5  1  0  0  0  0
  4  3  1  0  0  0  0
  5  6  1  0  0  0  0
  6 13  1  1  0  0  0
  6  1  1  0  0  0  0
  6 15  1  0  0  0  0
  7  1  1  0  0  0  0
  9  3  1  0  0  0  0
 10  3  1  0  0  0  0
 11  5  1  0  0  0  0
 12  5  1  0  0  0  0
 14 20  1  0  0  0  0
 15 14  2  0  0  0  0
 16 18  2  0  0  0  0
 16 15  1  0  0  0  0
 17 16  1  0  0  0  0
 18 19  1  0  0  0  0
 19 21  1  0  0  0  0
 19 20  2  0  0  0  0
 22 23  1  0  0  0  0
 22 21  1  0  0  0  0
 24 18  1  0  0  0  0
 24 22  1  0  0  0  0
 25 31  1  0  0  0  0
 26 27  1  0  0  0  0
 27 41  1  0  0  0  0
 28 27  2  0  0  0  0
 28 36  1  0  0  0  0
 29 28  1  0  0  0  0
 30 29  1  0  0  0  0
 30 37  1  0  0  0  0
 31 30  1  0  0  0  0
 32 31  2  0  0  0  0
 32 33  1  0  0  0  0
 33 34  1  0  0  0  0
 33 29  2  0  0  0  0
 34 26  2  0  0  0  0
 35 26  1  0  0  0  0
 38 34  1  0  0  0  0
 39 44  1  0  0  0  0
 39 45  1  0  0  0  0
 40 39  2  0  0  0  0
 41 42  2  0  0  0  0
 41 40  1  0  0  0  0
 42 43  1  0  0  0  0
 43 47  1  0  0  0  0
 43 44  2  0  0  0  0
 46 40  1  0  0  0  0
M  END
>  <minimizedAffinity>
-6.44048166

$$$$

 OpenBabel03272510283D

 47 52  0  0  1  0  0  0  0  0999 V2000
   36.6060   29.5580   31.7220 N   0  0  0  0  0  0  0  0  0  0  0  0
   36.4170   29.2130   30.3420 C   0  0  1  0  0  0  0  0  0  0  0  0
   37.1270   30.1370   29.4680 C   0  0  0  0  0  0  0  0  0  0  0  0
   36.5950   31.4220   29.6350 O   0  0  0  0  0  0  0  0  0  0  0  0
   36.5780   31.8770   30.9340 C   0  0  0  0  0  0  0  0  0  0  0  0
   36.0270   30.8740   31.8990 C   0  0  1  0  0  0  0  0  0  0  0  0
   37.4480   29.3470   32.1980 H   0  0  0  0  0  0  0  0  0  0  0  0
   35.3390   29.2230   30.1300 H   0  0  0  0  0  0  0  0  0  0  0  0
   36.8370   29.8720   28.4040 H   0  0  0  0  0  0  0  0  0  0  0  0
   38.1720   30.2920   29.4630 H   0  0  0  0  0  0  0  0  0  0  0  0
   37.6070   32.2260   31.2400 H   0  0  0  0  0  0  0  0  0  0  0  0
   35.9600   32.7920   30.9730 H   0  0  0  0  0  0  0  0  0  0  0  0
   36.3910   31.2050   32.9170 H   0  0  0  0  0  0  0  0  0  0  0  0
   33.5880   31.4480   31.2370 C   0  0  0  0  0  3  0  0  0  0  0  0
   34.5650   30.8310   31.9860 C   0  0  0  0  0  0  0  0  0  0  0  0
   34.1560   29.9990   33.0370 C   0  0  0  0  0  0  0  0  0  0  0  0
   34.8100   29.4410   33.7190 H   0  0  0  0  0  0  0  0  0  0  0  0
   32.8000   29.8040   33.3130 C   0  0  0  0  0  0  0  0  0  0  0  0
   31.8950   30.4600   32.5150 C   0  0  0  0  0  0  0  0  0  0  0  0
   32.2460   31.2790   31.4810 C   0  0  0  0  0  3  0  0  0  0  0  0
   30.6140   30.1250   32.9670 O   0  0  0  0  0  0  0  0  0  0  0  0
   30.7530   29.4190   34.1750 C   0  0  0  0  0  3  0  0  0  0  0  0
   30.0950   28.5230   34.2220 H   0  0  0  0  0  0  0  0  0  0  0  0
   32.1020   29.0580   34.2650 O   0  0  0  0  0  0  0  0  0  0  0  0
   36.9020   27.8860   30.1760 O   0  0  0  0  0  0  0  0  0  0  0  0
   40.2570   25.8930   34.6010 C   0  0  0  0  0  0  0  0  0  0  0  0
   39.0600   25.3010   34.9810 C   0  0  0  0  0  0  0  0  0  0  0  0
   37.9020   25.4790   34.2230 C   0  0  0  0  0  0  0  0  0  0  0  0
   38.0240   26.2710   33.0870 C   0  0  0  0  0  0  0  0  0  0  0  0
   37.0290   26.5860   32.1890 N   0  0  0  0  0  0  0  0  0  0  0  0
   37.6130   27.3680   31.2600 C   0  0  0  0  0  0  0  0  0  0  0  0
   38.8910   27.5390   31.5480 N   0  0  0  0  0  0  0  0  0  0  0  0
   39.1860   26.8720   32.6770 C   0  0  0  0  0  0  0  0  0  0  0  0
   40.3330   26.6740   33.4590 C   0  0  0  0  0  0  0  0  0  0  0  0
   41.1670   25.7660   35.1770 H   0  0  0  0  0  0  0  0  0  0  0  0
   36.9580   25.0280   34.5000 H   0  0  0  0  0  0  0  0  0  0  0  0
   36.0260   26.2710   32.2360 H   0  0  0  0  0  0  0  0  0  0  0  0
   41.2540   27.1450   33.1430 H   0  0  0  0  0  0  0  0  0  0  0  0
   39.7180   22.7690   37.6830 C   0  0  0  0  0  0  0  0  0  0  0  0
   39.8790   23.4450   36.4710 C   0  0  0  0  0  0  0  0  0  0  0  0
   39.0370   24.4920   36.1820 C   0  0  0  0  0  0  0  0  0  0  0  0
   38.0770   24.8140   37.1210 N   0  0  0  0  0  0  0  0  0  0  0  0
   37.9430   24.1450   38.2850 C   0  0  0  0  0  0  0  0  0  0  0  0
   38.7510   23.1410   38.5570 N   0  0  0  0  0  0  0  0  0  0  0  0
   40.3980   21.9530   37.8700 H   0  0  0  0  0  0  0  0  0  0  0  0
   40.6250   23.1990   35.7360 H   0  0  0  0  0  0  0  0  0  0  0  0
   37.1560   24.4940   38.9280 H   0  0  0  0  0  0  0  0  0  0  0  0
  1  6  1  0  0  0  0
  1  7  1  0  0  0  0
  2  8  1  6  0  0  0
  2  1  1  0  0  0  0
  3  4  1  0  0  0  0
  3  2  1  0  0  0  0
  4  5  1  0  0  0  0
  5 12  1  0  0  0  0
  5 11  1  0  0  0  0
  5  6  1  0  0  0  0
  6 15  1  0  0  0  0
  6 13  1  1  0  0  0
  9  3  1  0  0  0  0
 10  3  1  0  0  0  0
 14 20  2  0  0  0  0
 14 15  1  0  0  0  0
 15 16  2  0  0  0  0
 16 18  1  0  0  0  0
 16 17  1  0  0  0  0
 18 24  1  0  0  0  0
 19 21  1  0  0  0  0
 19 18  2  0  0  0  0
 20 19  1  0  0  0  0
 21 22  1  0  0  0  0
 22 23  1  0  0  0  0
 22 24  1  0  0  0  0
 25  2  1  0  0  0  0
 25 31  1  0  0  0  0
 26 27  1  0  0  0  0
 26 35  1  0  0  0  0
 27 41  1  0  0  0  0
 28 36  1  0  0  0  0
 28 27  2  0  0  0  0
 29 28  1  0  0  0  0
 30 37  1  0  0  0  0
 30 29  1  0  0  0  0
 31 32  2  0  0  0  0
 31 30  1  0  0  0  0
 32 33  1  0  0  0  0
 33 29  2  0  0  0  0
 33 34  1  0  0  0  0
 34 26  2  0  0  0  0
 38 34  1  0  0  0  0
 39 45  1  0  0  0  0
 39 44  1  0  0  0  0
 40 39  2  0  0  0  0
 41 40  1  0  0  0  0
 41 42  2  0  0  0  0
 42 43  1  0  0  0  0
 43 44  2  0  0  0  0
 43 47  1  0  0  0  0
 46 40  1  0  0  0  0
M  END
>  <minimizedAffinity>
-6.26746559

$$$$

 OpenBabel03272510283D

 47 52  0  0  1  0  0  0  0  0999 V2000
   36.8830   28.1550   29.3660 N   0  0  0  0  0  0  0  0  0  0  0  0
   36.7120   28.9140   30.5710 C   0  0  1  0  0  0  0  0  0  0  0  0
   36.2520   30.2650   30.2800 C   0  0  0  0  0  0  0  0  0  0  0  0
   37.2310   30.9270   29.5270 O   0  0  0  0  0  0  0  0  0  0  0  0
   37.6180   30.2740   28.3790 C   0  0  0  0  0  0  0  0  0  0  0  0
   37.9170   28.8240   28.6030 C   0  0  1  0  0  0  0  0  0  0  0  0
   36.1090   27.7780   28.8770 H   0  0  0  0  0  0  0  0  0  0  0  0
   37.6720   28.9320   31.1040 H   0  0  0  0  0  0  0  0  0  0  0  0
   36.2530   30.8320   31.2620 H   0  0  0  0  0  0  0  0  0  0  0  0
   35.3460   30.5110   29.7940 H   0  0  0  0  0  0  0  0  0  0  0  0
   36.8470   30.4170   27.5680 H   0  0  0  0  0  0  0  0  0  0  0  0
   38.5210   30.7720   27.9850 H   0  0  0  0  0  0  0  0  0  0  0  0
   37.8650   28.3450   27.5800 H   0  0  0  0  0  0  0  0  0  0  0  0
   40.3580   29.3470   29.3030 C   0  0  0  0  0  3  0  0  0  0  0  0
   39.2590   28.5360   29.1160 C   0  0  0  0  0  0  0  0  0  0  0  0
   39.3800   27.1830   29.4570 C   0  0  0  0  0  0  0  0  0  0  0  0
   38.6000   26.4160   29.3670 H   0  0  0  0  0  0  0  0  0  0  0  0
   40.5760   26.6740   29.9690 C   0  0  0  0  0  0  0  0  0  0  0  0
   41.6200   27.5550   30.1220 C   0  0  0  0  0  0  0  0  0  0  0  0
   41.5490   28.8810   29.8040 C   0  0  0  0  0  3  0  0  0  0  0  0
   42.7030   26.8380   30.6410 O   0  0  0  0  0  0  0  0  0  0  0  0
   42.3720   25.4730   30.6130 C   0  0  0  0  0  3  0  0  0  0  0  0
   42.6480   24.9490   31.5540 H   0  0  0  0  0  0  0  0  0  0  0  0
   40.9910   25.4090   30.3880 O   0  0  0  0  0  0  0  0  0  0  0  0
   35.7610   28.2170   31.3680 O   0  0  0  0  0  0  0  0  0  0  0  0
   37.5380   22.8360   33.0100 C   0  0  0  0  0  0  0  0  0  0  0  0
   36.4720   22.4540   32.2060 C   0  0  0  0  0  0  0  0  0  0  0  0
   35.6890   23.4070   31.5550 C   0  0  0  0  0  0  0  0  0  0  0  0
   36.0390   24.7370   31.7600 C   0  0  0  0  0  0  0  0  0  0  0  0
   35.4210   25.8460   31.2270 N   0  0  0  0  0  0  0  0  0  0  0  0
   36.1050   26.9060   31.7010 C   0  0  0  0  0  0  0  0  0  0  0  0
   37.0900   26.4990   32.4820 N   0  0  0  0  0  0  0  0  0  0  0  0
   37.0830   25.1560   32.5440 C   0  0  0  0  0  0  0  0  0  0  0  0
   37.8510   24.1740   33.1850 C   0  0  0  0  0  0  0  0  0  0  0  0
   38.1580   22.1090   33.5230 H   0  0  0  0  0  0  0  0  0  0  0  0
   34.8540   23.1330   30.9240 H   0  0  0  0  0  0  0  0  0  0  0  0
   34.5880   25.8450   30.5840 H   0  0  0  0  0  0  0  0  0  0  0  0
   38.6770   24.4960   33.8060 H   0  0  0  0  0  0  0  0  0  0  0  0
   35.3920   18.8820   32.6770 C   0  0  0  0  0  0  0  0  0  0  0  0
   35.5910   20.2290   32.9880 C   0  0  0  0  0  0  0  0  0  0  0  0
   36.1890   21.0410   32.0550 C   0  0  0  0  0  0  0  0  0  0  0  0
   36.5580   20.4660   30.8550 N   0  0  0  0  0  0  0  0  0  0  0  0
   36.3540   19.1610   30.5780 C   0  0  0  0  0  0  0  0  0  0  0  0
   35.7810   18.3860   31.4770 N   0  0  0  0  0  0  0  0  0  0  0  0
   34.9200   18.2800   33.4370 H   0  0  0  0  0  0  0  0  0  0  0  0
   35.3060   20.6830   33.9210 H   0  0  0  0  0  0  0  0  0  0  0  0
   36.6880   18.8380   29.6100 H   0  0  0  0  0  0  0  0  0  0  0  0
  1  2  1  0  0  0  0
  2  8  1  1  0  0  0
  2 25  1  0  0  0  0
  3  2  1  0  0  0  0
  3  9  1  0  0  0  0
  4  3  1  0  0  0  0
  5  6  1  0  0  0  0
  5  4  1  0  0  0  0
  6 13  1  6  0  0  0
  6 15  1  0  0  0  0
  6  1  1  0  0  0  0
  7  1  1  0  0  0  0
 10  3  1  0  0  0  0
 11  5  1  0  0  0  0
 12  5  1  0  0  0  0
 14 20  1  0  0  0  0
 15 14  2  0  0  0  0
 15 16  1  0  0  0  0
 16 18  2  0  0  0  0
 17 16  1  0  0  0  0
 18 19  1  0  0  0  0
 18 24  1  0  0  0  0
 19 21  1  0  0  0  0
 20 19  2  0  0  0  0
 22 21  1  0  0  0  0
 22 23  1  0  0  0  0
 24 22  1  0  0  0  0
 25 31  1  0  0  0  0
 26 34  1  0  0  0  0
 26 35  1  0  0  0  0
 27 26  2  0  0  0  0
 28 29  2  0  0  0  0
 28 27  1  0  0  0  0
 29 33  1  0  0  0  0
 30 31  1  0  0  0  0
 30 29  1  0  0  0  0
 31 32  2  0  0  0  0
 32 33  1  0  0  0  0
 33 34  2  0  0  0  0
 34 38  1  0  0  0  0
 36 28  1  0  0  0  0
 37 30  1  0  0  0  0
 39 40  1  0  0  0  0
 39 45  1  0  0  0  0
 40 46  1  0  0  0  0
 41 27  1  0  0  0  0
 41 40  2  0  0  0  0
 42 41  1  0  0  0  0
 43 42  2  0  0  0  0
 43 44  1  0  0  0  0
 44 39  2  0  0  0  0
 47 43  1  0  0  0  0
M  END
>  <minimizedAffinity>
-6.2263031

$$$$

 OpenBabel03272510283D

 47 52  0  0  1  0  0  0  0  0999 V2000
   39.8170   24.4710   35.3340 N   0  0  0  0  0  0  0  0  0  0  0  0
   39.4180   23.6760   34.2090 C   0  0  1  0  0  0  0  0  0  0  0  0
   38.0950   23.1010   34.4160 C   0  0  0  0  0  0  0  0  0  0  0  0
   38.1410   22.2380   35.5200 O   0  0  0  0  0  0  0  0  0  0  0  0
   38.6250   22.8040   36.6770 C   0  0  0  0  0  0  0  0  0  0  0  0
   39.8940   23.5720   36.4670 C   0  0  1  0  0  0  0  0  0  0  0  0
   39.4540   25.3810   35.4810 H   0  0  0  0  0  0  0  0  0  0  0  0
   40.1700   22.8890   34.0610 H   0  0  0  0  0  0  0  0  0  0  0  0
   37.9020   22.3990   33.5460 H   0  0  0  0  0  0  0  0  0  0  0  0
   37.2050   23.6520   34.5600 H   0  0  0  0  0  0  0  0  0  0  0  0
   37.8320   23.4410   37.1630 H   0  0  0  0  0  0  0  0  0  0  0  0
   38.8100   21.9970   37.4070 H   0  0  0  0  0  0  0  0  0  0  0  0
   39.9830   24.2560   37.3630 H   0  0  0  0  0  0  0  0  0  0  0  0
   41.3450   21.4490   36.7930 C   0  0  0  0  0  3  0  0  0  0  0  0
   41.1160   22.7640   36.4530 C   0  0  0  0  0  0  0  0  0  0  0  0
   42.2060   23.5220   36.0060 C   0  0  0  0  0  0  0  0  0  0  0  0
   42.1850   24.5760   35.6990 H   0  0  0  0  0  0  0  0  0  0  0  0
   43.4820   22.9610   35.9090 C   0  0  0  0  0  0  0  0  0  0  0  0
   43.6170   21.6420   36.2700 C   0  0  0  0  0  0  0  0  0  0  0  0
   42.5850   20.8650   36.7110 C   0  0  0  0  0  3  0  0  0  0  0  0
   44.9610   21.2940   36.0980 O   0  0  0  0  0  0  0  0  0  0  0  0
   45.6800   22.4700   35.8220 C   0  0  0  0  0  3  0  0  0  0  0  0
   46.4050   22.3390   34.9880 H   0  0  0  0  0  0  0  0  0  0  0  0
   44.7280   23.4480   35.5100 O   0  0  0  0  0  0  0  0  0  0  0  0
   39.4250   24.5320   33.0730 O   0  0  0  0  0  0  0  0  0  0  0  0
   35.2860   28.7220   32.7180 C   0  0  0  0  0  0  0  0  0  0  0  0
   35.7350   28.9970   34.0030 C   0  0  0  0  0  0  0  0  0  0  0  0
   36.7580   28.2460   34.5800 C   0  0  0  0  0  0  0  0  0  0  0  0
   37.2880   27.2240   33.8000 C   0  0  0  0  0  0  0  0  0  0  0  0
   38.2980   26.3560   34.1500 N   0  0  0  0  0  0  0  0  0  0  0  0
   38.4700   25.5500   33.0840 C   0  0  0  0  0  0  0  0  0  0  0  0
   37.6270   25.8820   32.1220 N   0  0  0  0  0  0  0  0  0  0  0  0
   36.8750   26.9190   32.5290 C   0  0  0  0  0  0  0  0  0  0  0  0
   35.8450   27.6930   31.9760 C   0  0  0  0  0  0  0  0  0  0  0  0
   34.4920   29.2950   32.2530 H   0  0  0  0  0  0  0  0  0  0  0  0
   37.1240   28.4420   35.5790 H   0  0  0  0  0  0  0  0  0  0  0  0
   38.8160   26.3420   35.0660 H   0  0  0  0  0  0  0  0  0  0  0  0
   35.5110   27.4590   30.9730 H   0  0  0  0  0  0  0  0  0  0  0  0
   33.3570   31.5050   35.4860 C   0  0  0  0  0  0  0  0  0  0  0  0
   33.7850   30.4200   34.7180 C   0  0  0  0  0  0  0  0  0  0  0  0
   35.1180   30.0850   34.7330 C   0  0  0  0  0  0  0  0  0  0  0  0
   35.9570   30.8510   35.5190 N   0  0  0  0  0  0  0  0  0  0  0  0
   35.5170   31.8940   36.2530 C   0  0  0  0  0  0  0  0  0  0  0  0
   34.2390   32.2130   36.2340 N   0  0  0  0  0  0  0  0  0  0  0  0
   32.3040   31.7350   35.4450 H   0  0  0  0  0  0  0  0  0  0  0  0
   33.1360   29.8200   34.1040 H   0  0  0  0  0  0  0  0  0  0  0  0
   36.2710   32.4090   36.8200 H   0  0  0  0  0  0  0  0  0  0  0  0
  1  7  1  0  0  0  0
  1  6  1  0  0  0  0
  2  8  1  6  0  0  0
  2  3  1  0  0  0  0
  2  1  1  0  0  0  0
  3 10  1  0  0  0  0
  3  4  1  0  0  0  0
  4  5  1  0  0  0  0
  5 11  1  0  0  0  0
  5 12  1  0  0  0  0
  6  5  1  0  0  0  0
  6 13  1  1  0  0  0
  9  3  1  0  0  0  0
 15  6  1  0  0  0  0
 15 14  2  0  0  0  0
 16 15  1  0  0  0  0
 17 16  1  0  0  0  0
 18 16  2  0  0  0  0
 18 19  1  0  0  0  0
 19 20  2  0  0  0  0
 20 14  1  0  0  0  0
 21 19  1  0  0  0  0
 22 21  1  0  0  0  0
 23 22  1  0  0  0  0
 24 22  1  0  0  0  0
 24 18  1  0  0  0  0
 25 31  1  0  0  0  0
 25  2  1  0  0  0  0
 26 27  1  0  0  0  0
 27 28  2  0  0  0  0
 27 41  1  0  0  0  0
 28 36  1  0  0  0  0
 29 30  1  0  0  0  0
 29 28  1  0  0  0  0
 30 37  1  0  0  0  0
 31 30  1  0  0  0  0
 32 33  1  0  0  0  0
 32 31  2  0  0  0  0
 33 29  2  0  0  0  0
 34 33  1  0  0  0  0
 34 26  2  0  0  0  0
 35 26  1  0  0  0  0
 38 34  1  0  0  0  0
 39 44  1  0  0  0  0
 40 41  1  0  0  0  0
 40 39  2  0  0  0  0
 41 42  2  0  0  0  0
 42 43  1  0  0  0  0
 43 47  1  0  0  0  0
 44 43  2  0  0  0  0
 45 39  1  0  0  0  0
 46 40  1  0  0  0  0
M  END
>  <minimizedAffinity>
-6.21959305

$$$$

 OpenBabel03272510283D

 47 52  0  0  1  0  0  0  0  0999 V2000
   37.0970   22.2940   31.8690 N   0  0  0  0  0  0  0  0  0  0  0  0
   38.1020   22.9750   31.1050 C   0  0  1  0  0  0  0  0  0  0  0  0
   38.7080   22.0850   30.1230 C   0  0  0  0  0  0  0  0  0  0  0  0
   39.3560   21.0400   30.7950 O   0  0  0  0  0  0  0  0  0  0  0  0
   38.5650   20.3430   31.6800 C   0  0  0  0  0  0  0  0  0  0  0  0
   37.7740   21.2340   32.5860 C   0  0  1  0  0  0  0  0  0  0  0  0
   36.1980   22.1090   31.4950 H   0  0  0  0  0  0  0  0  0  0  0  0
   38.8570   23.3640   31.8010 H   0  0  0  0  0  0  0  0  0  0  0  0
   39.5630   22.6560   29.6450 H   0  0  0  0  0  0  0  0  0  0  0  0
   38.1930   21.6020   29.3370 H   0  0  0  0  0  0  0  0  0  0  0  0
   37.9000   19.6200   31.1250 H   0  0  0  0  0  0  0  0  0  0  0  0
   39.2180   19.6950   32.2910 H   0  0  0  0  0  0  0  0  0  0  0  0
   36.9370   20.5880   32.9880 H   0  0  0  0  0  0  0  0  0  0  0  0
   39.8460   21.8760   34.0060 C   0  0  0  0  0  3  0  0  0  0  0  0
   38.4980   21.7310   33.7590 C   0  0  0  0  0  0  0  0  0  0  0  0
   37.6050   22.1090   34.7700 C   0  0  0  0  0  0  0  0  0  0  0  0
   36.5090   22.0550   34.7250 H   0  0  0  0  0  0  0  0  0  0  0  0
   38.0680   22.6140   35.9870 C   0  0  0  0  0  0  0  0  0  0  0  0
   39.4280   22.7230   36.1460 C   0  0  0  0  0  0  0  0  0  0  0  0
   40.3360   22.3690   35.1900 C   0  0  0  0  0  3  0  0  0  0  0  0
   39.6620   23.2440   37.4230 O   0  0  0  0  0  0  0  0  0  0  0  0
   38.4390   23.2600   38.1150 C   0  0  0  0  0  3  0  0  0  0  0  0
   38.2760   24.2120   38.6680 H   0  0  0  0  0  0  0  0  0  0  0  0
   37.4420   23.0620   37.1520 O   0  0  0  0  0  0  0  0  0  0  0  0
   37.4630   24.0730   30.4650 O   0  0  0  0  0  0  0  0  0  0  0  0
   36.3370   28.4200   34.2920 C   0  0  0  0  0  0  0  0  0  0  0  0
   35.6790   28.9530   33.1910 C   0  0  0  0  0  0  0  0  0  0  0  0
   35.6530   28.2710   31.9750 C   0  0  0  0  0  0  0  0  0  0  0  0
   36.3160   27.0490   31.9380 C   0  0  0  0  0  0  0  0  0  0  0  0
   36.4250   26.2000   30.8590 N   0  0  0  0  0  0  0  0  0  0  0  0
   37.1470   25.1500   31.2950 C   0  0  0  0  0  0  0  0  0  0  0  0
   37.4750   25.3180   32.5640 N   0  0  0  0  0  0  0  0  0  0  0  0
   36.9760   26.4880   33.0010 C   0  0  0  0  0  0  0  0  0  0  0  0
   36.9840   27.1970   34.2100 C   0  0  0  0  0  0  0  0  0  0  0  0
   36.3680   28.9350   35.2460 H   0  0  0  0  0  0  0  0  0  0  0  0
   35.1480   28.6670   31.1040 H   0  0  0  0  0  0  0  0  0  0  0  0
   36.0210   26.3580   29.9010 H   0  0  0  0  0  0  0  0  0  0  0  0
   37.5030   26.7620   35.0540 H   0  0  0  0  0  0  0  0  0  0  0  0
   34.8200   32.6080   33.3910 C   0  0  0  0  0  0  0  0  0  0  0  0
   35.6100   31.4690   33.2260 C   0  0  0  0  0  0  0  0  0  0  0  0
   35.0180   30.2330   33.3330 C   0  0  0  0  0  0  0  0  0  0  0  0
   33.6630   30.1990   33.5970 N   0  0  0  0  0  0  0  0  0  0  0  0
   32.9210   31.3150   33.7510 C   0  0  0  0  0  0  0  0  0  0  0  0
   33.4930   32.4970   33.6500 N   0  0  0  0  0  0  0  0  0  0  0  0
   35.3240   33.5580   33.3010 H   0  0  0  0  0  0  0  0  0  0  0  0
   36.6660   31.4900   33.0210 H   0  0  0  0  0  0  0  0  0  0  0  0
   31.8790   31.1510   33.9540 H   0  0  0  0  0  0  0  0  0  0  0  0
  1  6  1  0  0  0  0
  2  8  1  1  0  0  0
  2  1  1  0  0  0  0
  3  4  1  0  0  0  0
  3  2  1  0  0  0  0
  4  5  1  0  0  0  0
  5 12  1  0  0  0  0
  5  6  1  0  0  0  0
  6 13  1  1  0  0  0
  6 15  1  0  0  0  0
  7  1  1  0  0  0  0
  9  3  1  0  0  0  0
 10  3  1  0  0  0  0
 11  5  1  0  0  0  0
 14 20  1  0  0  0  0
 15 14  2  0  0  0  0
 15 16  1  0  0  0  0
 16 18  2  0  0  0  0
 17 16  1  0  0  0  0
 18 19  1  0  0  0  0
 18 24  1  0  0  0  0
 19 21  1  0  0  0  0
 20 19  2  0  0  0  0
 21 22  1  0  0  0  0
 22 23  1  0  0  0  0
 24 22  1  0  0  0  0
 25  2  1  0  0  0  0
 25 31  1  0  0  0  0
 26 35  1  0  0  0  0
 27 41  1  0  0  0  0
 27 26  2  0  0  0  0
 28 27  1  0  0  0  0
 29 28  2  0  0  0  0
 29 33  1  0  0  0  0
 30 31  1  0  0  0  0
 30 29  1  0  0  0  0
 31 32  2  0  0  0  0
 32 33  1  0  0  0  0
 33 34  2  0  0  0  0
 34 26  1  0  0  0  0
 34 38  1  0  0  0  0
 36 28  1  0  0  0  0
 37 30  1  0  0  0  0
 39 44  1  0  0  0  0
 40 41  1  0  0  0  0
 40 39  2  0  0  0  0
 41 42  2  0  0  0  0
 42 43  1  0  0  0  0
 43 47  1  0  0  0  0
 44 43  2  0  0  0  0
 45 39  1  0  0  0  0
 46 40  1  0  0  0  0
M  END
>  <minimizedAffinity>
-6.20783329

$$$$
