
 OpenBabel03272510163D

 30 33  0  0  0  0  0  0  0  0999 V2000
   37.4870   29.2240   50.8830 Br  0  0  0  0  0  0  0  0  0  0  0  0
   36.0520   29.2920   49.6180 C   0  0  0  0  0  0  0  0  0  0  0  0
   36.0170   30.2760   48.6400 C   0  0  0  0  0  0  0  0  0  0  0  0
   34.9530   30.2560   47.7700 C   0  0  0  0  0  0  0  0  0  0  0  0
   33.9280   29.3220   47.8140 C   0  0  0  0  0  0  0  0  0  0  0  0
   34.0040   28.3690   48.7970 C   0  0  0  0  0  0  0  0  0  0  0  0
   35.0580   28.3580   49.6890 C   0  0  0  0  0  0  0  0  0  0  0  0
   34.9170   31.0230   46.9990 H   0  0  0  0  0  0  0  0  0  0  0  0
   33.2160   27.6210   48.8590 H   0  0  0  0  0  0  0  0  0  0  0  0
   35.0800   27.5770   50.4600 H   0  0  0  0  0  0  0  0  0  0  0  0
   32.0120   28.2520   46.8080 C   0  0  0  0  0  3  0  0  0  0  0  0
   32.8320   29.3590   46.8620 C   0  0  0  0  0  0  0  0  0  0  0  0
   32.5790   30.4290   46.0270 C   0  0  0  0  0  0  0  0  0  0  0  0
   33.2100   31.2890   46.0640 H   0  0  0  0  0  0  0  0  0  0  0  0
   31.5170   30.3680   45.1590 C   0  0  0  0  0  0  0  0  0  0  0  0
   30.6890   29.2470   45.1070 C   0  0  0  0  0  0  0  0  0  0  0  0
   30.9210   28.1530   45.9390 C   0  0  0  0  0  3  0  0  0  0  0  0
   29.6730   29.4000   44.1550 O   0  0  0  0  0  0  0  0  0  0  0  0
   29.6560   30.8180   43.9320 C   0  0  0  0  0  3  0  0  0  0  0  0
   29.3350   31.0530   42.9180 H   0  0  0  0  0  0  0  0  0  0  0  0
   30.9800   31.2410   44.1970 O   0  0  0  0  0  0  0  0  0  0  0  0
   38.0320   33.2070   49.4290 C   0  0  0  0  0  0  0  0  0  0  0  0
   39.0420   33.2020   48.4420 C   0  0  0  0  0  0  0  0  0  0  0  0
   39.0130   32.1750   47.5060 C   0  0  0  0  0  0  0  0  0  0  0  0
   38.0240   31.2220   47.5720 N   0  0  0  0  0  0  0  0  0  0  0  0
   37.0740   31.2790   48.5520 C   0  0  0  0  0  0  0  0  0  0  0  0
   37.0870   32.2650   49.4670 N   0  0  0  0  0  0  0  0  0  0  0  0
   38.0950   34.0230   50.1380 H   0  0  0  0  0  0  0  0  0  0  0  0
   39.8250   33.9460   48.3780 H   0  0  0  0  0  0  0  0  0  0  0  0
   39.7290   32.0650   46.7030 H   0  0  0  0  0  0  0  0  0  0  0  0
  2  7  1  0  0  0  0
  2  1  1  0  0  0  0
  3  2  2  0  0  0  0
  4  5  2  0  0  0  0
  4  3  1  0  0  0  0
  5  6  1  0  0  0  0
  6  9  1  0  0  0  0
  6  7  2  0  0  0  0
  7 10  1  0  0  0  0
  8  4  1  0  0  0  0
 11 12  1  0  0  0  0
 12  5  1  0  0  0  0
 13 14  1  0  0  0  0
 13 12  2  0  0  0  0
 15 13  1  0  0  0  0
 16 15  2  0  0  0  0
 16 17  1  0  0  0  0
 17 11  2  0  0  0  0
 18 16  1  0  0  0  0
 19 18  1  0  0  0  0
 19 21  1  0  0  0  0
 20 19  1  0  0  0  0
 21 15  1  0  0  0  0
 22 27  1  0  0  0  0
 22 28  1  0  0  0  0
 23 22  2  0  0  0  0
 24 25  2  0  0  0  0
 24 23  1  0  0  0  0
 25 26  1  0  0  0  0
 26  3  1  0  0  0  0
 26 27  2  0  0  0  0
 29 23  1  0  0  0  0
 30 24  1  0  0  0  0
M  END
>  <minimizedAffinity>
-6.16014719

>  <minimizedRMSD>
0.797974467

$$$$
