
 OpenBabel03272500583D

 37 40  0  0  0  0  0  0  0  0999 V2000
   38.0410   31.8560   47.4470 C   0  0  0  0  0  0  0  0  0  0  0  0
   38.5780   32.7560   48.3200 C   0  0  0  0  0  0  0  0  0  0  0  0
   38.1520   32.8650   49.6470 C   0  0  0  0  0  0  0  0  0  0  0  0
   37.0950   31.9740   50.0810 C   0  0  0  0  0  0  0  0  0  0  0  0
   36.6020   31.1020   49.1640 C   0  0  0  0  0  0  0  0  0  0  0  0
   37.0190   31.0080   47.8950 C   0  0  0  0  0  0  0  0  0  0  0  0
   39.3840   33.4470   48.0210 H   0  0  0  0  0  0  0  0  0  0  0  0
   38.6220   33.6020   50.2850 H   0  0  0  0  0  0  0  0  0  0  0  0
   36.8710   32.1660   51.1080 H   0  0  0  0  0  0  0  0  0  0  0  0
   35.8620   30.5300   49.7020 H   0  0  0  0  0  0  0  0  0  0  0  0
   39.8370   31.1650   45.9360 C   0  0  0  0  0  0  0  0  0  0  0  0
   38.6090   31.8490   46.1190 C   0  0  0  0  0  0  0  0  0  0  0  0
   38.1060   32.4220   44.9770 C   0  0  0  0  0  0  0  0  0  0  0  0
   38.7510   32.3210   43.8090 N   0  0  0  0  0  0  0  0  0  0  0  0
   39.8930   31.6810   43.6580 C   0  0  0  0  0  0  0  0  0  0  0  0
   40.4250   31.1080   44.7250 N   0  0  0  0  0  0  0  0  0  0  0  0
   40.3150   30.6760   46.7900 H   0  0  0  0  0  0  0  0  0  0  0  0
   37.1720   32.9450   45.1070 H   0  0  0  0  0  0  0  0  0  0  0  0
   40.4240   31.5920   42.7170 H   0  0  0  0  0  0  0  0  0  0  0  0
   35.0250   29.9800   47.1850 C   0  0  0  0  0  0  0  0  0  0  0  0
   34.4600   30.6530   48.1330 O   0  0  0  0  0  0  0  0  0  0  0  0
   36.4590   30.1190   47.0140 N   0  0  0  0  0  0  0  0  0  0  0  0
   36.9870   29.5860   46.2890 H   0  0  0  0  0  0  0  0  0  0  0  0
   34.2510   29.1770   46.4000 O   0  0  0  0  0  0  0  0  0  0  0  0
   32.9140   29.3810   46.1100 C   0  0  0  0  0  0  0  0  0  0  0  0
   32.5170   30.1740   45.1370 O   0  0  0  0  0  0  0  0  0  0  0  0
   32.1170   27.7970   47.8840 C   0  0  0  0  0  3  0  0  0  0  0  0
   31.8570   28.6850   46.8800 C   0  0  0  0  0  0  0  0  0  0  0  0
   30.5270   28.9170   46.6010 C   0  0  0  0  0  0  0  0  0  0  0  0
   30.2710   29.6210   45.8030 H   0  0  0  0  0  0  0  0  0  0  0  0
   29.4880   28.3250   47.2540 C   0  0  0  0  0  0  0  0  0  0  0  0
   29.7980   27.4260   48.2720 C   0  0  0  0  0  0  0  0  0  0  0  0
   31.1160   27.1630   48.5860 C   0  0  0  0  0  3  0  0  0  0  0  0
   28.5860   26.9430   48.8000 O   0  0  0  0  0  0  0  0  0  0  0  0
   27.5590   27.8250   48.3930 C   0  0  0  0  0  3  0  0  0  0  0  0
   26.6070   27.3280   48.1460 H   0  0  0  0  0  0  0  0  0  0  0  0
   28.0900   28.3670   47.1880 O   0  0  0  0  0  0  0  0  0  0  0  0
  1  6  2  0  0  0  0
  1  2  1  0  0  0  0
  2  3  2  0  0  0  0
  3  4  1  0  0  0  0
  3  8  1  0  0  0  0
  4  9  1  0  0  0  0
  5 10  1  0  0  0  0
  5  4  2  0  0  0  0
  6  5  1  0  0  0  0
  7  2  1  0  0  0  0
 11 12  1  0  0  0  0
 11 17  1  0  0  0  0
 12  1  1  0  0  0  0
 13 18  1  0  0  0  0
 13 12  2  0  0  0  0
 14 13  1  0  0  0  0
 15 14  2  0  0  0  0
 15 16  1  0  0  0  0
 16 11  2  0  0  0  0
 19 15  1  0  0  0  0
 20 21  2  0  0  0  0
 22 20  1  0  0  0  0
 22  6  1  0  0  0  0
 23 22  1  0  0  0  0
 24 20  1  0  0  0  0
 25 24  1  0  0  0  0
 25 28  1  0  0  0  0
 26 25  2  0  0  0  0
 27 33  1  0  0  0  0
 28 27  2  0  0  0  0
 29 28  1  0  0  0  0
 29 31  2  0  0  0  0
 30 29  1  0  0  0  0
 31 32  1  0  0  0  0
 32 33  2  0  0  0  0
 32 34  1  0  0  0  0
 35 34  1  0  0  0  0
 36 35  1  0  0  0  0
 37 31  1  0  0  0  0
 37 35  1  0  0  0  0
M  END
>  <minimizedAffinity>
-6.42105103

>  <minimizedRMSD>
2.04319453

$$$$
