
 OpenBabel03272510263D

 47 52  0  0  1  0  0  0  0  0999 V2000
   38.9600   31.6690   41.8340 N   0  0  0  0  0  0  0  0  0  0  0  0
   39.2610   33.0710   41.8100 C   0  0  1  0  0  0  0  0  0  0  0  0
   38.1880   33.8280   41.1780 C   0  0  0  0  0  0  0  0  0  0  0  0
   38.0690   33.4200   39.8420 O   0  0  0  0  0  0  0  0  0  0  0  0
   37.8970   32.0670   39.6630 C   0  0  0  0  0  0  0  0  0  0  0  0
   38.8680   31.2440   40.4530 C   0  0  1  0  0  0  0  0  0  0  0  0
   38.3190   31.2880   42.4860 H   0  0  0  0  0  0  0  0  0  0  0  0
   40.2080   33.2090   41.2710 H   0  0  0  0  0  0  0  0  0  0  0  0
   38.5480   34.8990   41.0920 H   0  0  0  0  0  0  0  0  0  0  0  0
   37.1900   33.8740   41.5210 H   0  0  0  0  0  0  0  0  0  0  0  0
   36.8310   31.7750   39.8840 H   0  0  0  0  0  0  0  0  0  0  0  0
   38.0230   31.8410   38.5900 H   0  0  0  0  0  0  0  0  0  0  0  0
   38.4110   30.2110   40.5070 H   0  0  0  0  0  0  0  0  0  0  0  0
   41.3320   30.4570   40.2900 C   0  0  0  0  0  3  0  0  0  0  0  0
   40.1850   31.0710   39.8360 C   0  0  0  0  0  0  0  0  0  0  0  0
   40.2180   31.6570   38.5650 C   0  0  0  0  0  0  0  0  0  0  0  0
   39.3910   32.1800   38.0670 H   0  0  0  0  0  0  0  0  0  0  0  0
   41.3750   31.6190   37.7830 C   0  0  0  0  0  0  0  0  0  0  0  0
   42.4730   30.9850   38.3160 C   0  0  0  0  0  0  0  0  0  0  0  0
   42.4870   30.4000   39.5500 C   0  0  0  0  0  3  0  0  0  0  0  0
   43.5040   31.0660   37.3750 O   0  0  0  0  0  0  0  0  0  0  0  0
   43.0860   31.9310   36.3490 C   0  0  0  0  0  3  0  0  0  0  0  0
   43.3220   31.5360   35.3370 H   0  0  0  0  0  0  0  0  0  0  0  0
   41.7060   32.0990   36.5140 O   0  0  0  0  0  0  0  0  0  0  0  0
   39.4410   33.4800   43.1600 O   0  0  0  0  0  0  0  0  0  0  0  0
   36.1580   30.2540   46.8520 C   0  0  0  0  0  0  0  0  0  0  0  0
   37.0670   30.7500   47.7790 C   0  0  0  0  0  0  0  0  0  0  0  0
   38.0960   31.6050   47.3850 C   0  0  0  0  0  0  0  0  0  0  0  0
   38.1520   31.9210   46.0320 C   0  0  0  0  0  0  0  0  0  0  0  0
   39.0700   32.7390   45.4120 N   0  0  0  0  0  0  0  0  0  0  0  0
   38.7270   32.7470   44.1090 C   0  0  0  0  0  0  0  0  0  0  0  0
   37.6640   31.9860   43.9140 N   0  0  0  0  0  0  0  0  0  0  0  0
   37.2760   31.4540   45.0860 C   0  0  0  0  0  0  0  0  0  0  0  0
   36.2520   30.5980   45.5130 C   0  0  0  0  0  0  0  0  0  0  0  0
   35.3520   29.5890   47.1400 H   0  0  0  0  0  0  0  0  0  0  0  0
   38.8150   32.0020   48.0890 H   0  0  0  0  0  0  0  0  0  0  0  0
   39.8660   33.2440   45.8770 H   0  0  0  0  0  0  0  0  0  0  0  0
   35.5560   30.2240   44.7720 H   0  0  0  0  0  0  0  0  0  0  0  0
   37.5100   30.1830   51.4700 C   0  0  0  0  0  0  0  0  0  0  0  0
   37.8070   30.6330   50.1820 C   0  0  0  0  0  0  0  0  0  0  0  0
   36.9220   30.3620   49.1670 C   0  0  0  0  0  0  0  0  0  0  0  0
   35.7810   29.6540   49.4900 N   0  0  0  0  0  0  0  0  0  0  0  0
   35.5170   29.2310   50.7440 C   0  0  0  0  0  0  0  0  0  0  0  0
   36.3690   29.4920   51.7140 N   0  0  0  0  0  0  0  0  0  0  0  0
   38.2310   30.4160   52.2370 H   0  0  0  0  0  0  0  0  0  0  0  0
   38.6940   31.1850   49.9240 H   0  0  0  0  0  0  0  0  0  0  0  0
   34.5960   28.6890   50.8620 H   0  0  0  0  0  0  0  0  0  0  0  0
  1  7  1  0  0  0  0
  2  8  1  6  0  0  0
  2  1  1  0  0  0  0
  2 25  1  0  0  0  0
  3 10  1  0  0  0  0
  3  2  1  0  0  0  0
  4  3  1  0  0  0  0
  5  4  1  0  0  0  0
  5 11  1  0  0  0  0
  5  6  1  0  0  0  0
  6 13  1  1  0  0  0
  6  1  1  0  0  0  0
  9  3  1  0  0  0  0
 12  5  1  0  0  0  0
 15 14  1  0  0  0  0
 15  6  1  0  0  0  0
 16 15  2  0  0  0  0
 17 16  1  0  0  0  0
 18 19  2  0  0  0  0
 18 16  1  0  0  0  0
 19 20  1  0  0  0  0
 20 14  2  0  0  0  0
 21 19  1  0  0  0  0
 22 24  1  0  0  0  0
 22 21  1  0  0  0  0
 23 22  1  0  0  0  0
 24 18  1  0  0  0  0
 25 31  1  0  0  0  0
 26 35  1  0  0  0  0
 26 27  1  0  0  0  0
 27 41  1  0  0  0  0
 28 27  2  0  0  0  0
 28 36  1  0  0  0  0
 29 28  1  0  0  0  0
 30 37  1  0  0  0  0
 30 29  1  0  0  0  0
 31 30  1  0  0  0  0
 32 31  2  0  0  0  0
 32 33  1  0  0  0  0
 33 34  1  0  0  0  0
 33 29  2  0  0  0  0
 34 26  2  0  0  0  0
 38 34  1  0  0  0  0
 39 44  1  0  0  0  0
 39 45  1  0  0  0  0
 40 39  2  0  0  0  0
 41 42  2  0  0  0  0
 41 40  1  0  0  0  0
 42 43  1  0  0  0  0
 43 47  1  0  0  0  0
 43 44  2  0  0  0  0
 46 40  1  0  0  0  0
M  END
>  <minimizedAffinity>
-6.1225481

>  <minimizedRMSD>
1.50134826

$$$$
