
 OpenBabel03272507123D

 42 47  0  0  0  0  0  0  0  0999 V2000
   35.7280   29.1430   49.9770 C   0  0  0  0  0  0  0  0  0  0  0  0
   34.6540   29.6450   50.6580 C   0  0  0  0  0  0  0  0  0  0  0  0
   33.5170   29.0470   50.1060 C   0  0  0  0  0  0  0  0  0  0  0  0
   33.9850   28.1950   49.0940 C   0  0  0  0  0  0  0  0  0  0  0  0
   35.2780   28.3060   49.0810 O   0  0  0  0  0  0  0  0  0  0  0  0
   34.6560   30.3710   51.4790 H   0  0  0  0  0  0  0  0  0  0  0  0
   32.5280   29.2670   50.4600 H   0  0  0  0  0  0  0  0  0  0  0  0
   33.5310   26.4360   47.4010 C   0  0  0  0  0  0  0  0  0  0  0  0
   33.0800   27.3970   48.2910 C   0  0  0  0  0  0  0  0  0  0  0  0
   31.7380   27.6320   48.4480 C   0  0  0  0  0  0  0  0  0  0  0  0
   30.8330   26.8890   47.7000 C   0  0  0  0  0  0  0  0  0  0  0  0
   29.4940   26.9060   47.6520 N   0  0  0  0  0  0  0  0  0  0  0  0
   29.1170   25.9860   46.7620 N   0  0  0  0  0  0  0  0  0  0  0  0
   30.2070   25.3900   46.2490 C   0  0  0  0  0  0  0  0  0  0  0  0
   31.3380   25.9440   46.8270 C   0  0  0  0  0  0  0  0  0  0  0  0
   32.6770   25.6880   46.6500 C   0  0  0  0  0  0  0  0  0  0  0  0
   34.6070   26.2630   47.2880 H   0  0  0  0  0  0  0  0  0  0  0  0
   31.2900   28.3730   49.1290 H   0  0  0  0  0  0  0  0  0  0  0  0
   28.8290   27.5220   48.2040 H   0  0  0  0  0  0  0  0  0  0  0  0
   30.2610   24.5930   45.4950 H   0  0  0  0  0  0  0  0  0  0  0  0
   33.0600   24.9490   45.9660 H   0  0  0  0  0  0  0  0  0  0  0  0
   37.0850   29.5460   50.2880 C   0  0  0  0  0  0  0  0  0  0  0  0
   37.6480   29.0540   51.3030 O   0  0  0  0  0  0  0  0  0  0  0  0
   37.7190   30.4970   49.4040 C   0  0  0  0  0  0  0  0  0  0  0  0
   38.2020   31.6710   49.9740 C   0  0  0  0  0  0  0  0  0  0  0  0
   38.8200   32.6090   49.1450 C   0  0  0  0  0  0  0  0  0  0  0  0
   38.9060   32.3050   47.8200 N   0  0  0  0  0  0  0  0  0  0  0  0
   38.4360   31.1780   47.3010 C   0  0  0  0  0  0  0  0  0  0  0  0
   37.8430   30.2780   48.0980 N   0  0  0  0  0  0  0  0  0  0  0  0
   38.0950   31.8340   51.0350 H   0  0  0  0  0  0  0  0  0  0  0  0
   39.1860   33.5110   49.6150 H   0  0  0  0  0  0  0  0  0  0  0  0
   37.4260   30.7360   45.0930 C   0  0  0  0  0  3  0  0  0  0  0  0
   38.5530   30.9000   45.8740 C   0  0  0  0  0  0  0  0  0  0  0  0
   39.7740   30.7930   45.2530 C   0  0  0  0  0  0  0  0  0  0  0  0
   40.6800   30.9130   45.8200 H   0  0  0  0  0  0  0  0  0  0  0  0
   39.8660   30.5280   43.8910 C   0  0  0  0  0  0  0  0  0  0  0  0
   38.7400   30.3630   43.1090 C   0  0  0  0  0  0  0  0  0  0  0  0
   37.5190   30.4730   43.7400 C   0  0  0  0  0  3  0  0  0  0  0  0
   39.1540   30.1110   41.7960 O   0  0  0  0  0  0  0  0  0  0  0  0
   40.5350   30.4220   41.7390 C   0  0  0  0  0  3  0  0  0  0  0  0
   40.6840   31.4660   41.3790 H   0  0  0  0  0  0  0  0  0  0  0  0
   40.9900   30.3840   43.0920 O   0  0  0  0  0  0  0  0  0  0  0  0
  1 22  1  0  0  0  0
  1  2  2  0  0  0  0
  2  6  1  0  0  0  0
  3  7  1  0  0  0  0
  3  2  1  0  0  0  0
  4  3  2  0  0  0  0
  5  4  1  0  0  0  0
  5  1  1  0  0  0  0
  8  9  1  0  0  0  0
  9 10  2  0  0  0  0
  9  4  1  0  0  0  0
 10 18  1  0  0  0  0
 11 10  1  0  0  0  0
 12 11  1  0  0  0  0
 12 19  1  0  0  0  0
 13 12  1  0  0  0  0
 14 13  2  0  0  0  0
 14 15  1  0  0  0  0
 15 11  2  0  0  0  0
 16 15  1  0  0  0  0
 16  8  2  0  0  0  0
 17  8  1  0  0  0  0
 20 14  1  0  0  0  0
 21 16  1  0  0  0  0
 22 23  2  0  0  0  0
 24 25  1  0  0  0  0
 24 22  1  0  0  0  0
 25 30  1  0  0  0  0
 26 31  1  0  0  0  0
 26 25  2  0  0  0  0
 27 26  1  0  0  0  0
 28 27  2  0  0  0  0
 28 29  1  0  0  0  0
 29 24  2  0  0  0  0
 32 33  1  0  0  0  0
 33 28  1  0  0  0  0
 34 35  1  0  0  0  0
 34 33  2  0  0  0  0
 36 34  1  0  0  0  0
 37 38  1  0  0  0  0
 37 36  2  0  0  0  0
 38 32  2  0  0  0  0
 39 37  1  0  0  0  0
 40 39  1  0  0  0  0
 40 42  1  0  0  0  0
 41 40  1  0  0  0  0
 42 36  1  0  0  0  0
M  END
>  <minimizedAffinity>
-7.36768007

>  <minimizedRMSD>
0.556444108

$$$$
