
 OpenBabel03272502183D

 35 38  0  0  1  0  0  0  0  0999 V2000
   37.1140   30.5290   49.1500 C   0  0  0  0  0  0  0  0  0  0  0  0
   37.2360   31.6940   49.9400 C   0  0  0  0  0  0  0  0  0  0  0  0
   38.0300   32.7400   49.4770 C   0  0  0  0  0  0  0  0  0  0  0  0
   38.6570   32.5630   48.2570 N   0  0  0  0  0  0  0  0  0  0  0  0
   38.5190   31.4520   47.5420 C   0  0  0  0  0  0  0  0  0  0  0  0
   37.7510   30.4400   47.9880 N   0  0  0  0  0  0  0  0  0  0  0  0
   36.7530   31.8520   50.8970 H   0  0  0  0  0  0  0  0  0  0  0  0
   38.1360   33.6410   50.0660 H   0  0  0  0  0  0  0  0  0  0  0  0
   40.1600   32.1710   45.8360 C   0  0  0  0  0  3  0  0  0  0  0  0
   39.1900   31.2970   46.2640 C   0  0  0  0  0  0  0  0  0  0  0  0
   38.8480   30.2500   45.4570 C   0  0  0  0  0  0  0  0  0  0  0  0
   38.0950   29.5690   45.7850 H   0  0  0  0  0  0  0  0  0  0  0  0
   39.4940   30.1190   44.2480 C   0  0  0  0  0  0  0  0  0  0  0  0
   40.4800   30.9670   43.7630 C   0  0  0  0  0  0  0  0  0  0  0  0
   40.7910   32.0130   44.6160 C   0  0  0  0  0  3  0  0  0  0  0  0
   40.8470   30.4730   42.5340 O   0  0  0  0  0  0  0  0  0  0  0  0
   39.7850   29.6660   42.0610 C   0  0  0  0  0  3  0  0  0  0  0  0
   40.1380   28.8720   41.3620 H   0  0  0  0  0  0  0  0  0  0  0  0
   39.2940   29.1280   43.2870 O   0  0  0  0  0  0  0  0  0  0  0  0
   36.0630   29.3070   49.9000 S   0  0  0  0  0  0  0  0  0  0  0  0
   33.6940   28.2440   49.1670 N   0  0  0  0  0  0  0  0  0  0  0  0
   34.3210   29.5300   49.3810 C   0  0  2  0  0  0  0  0  0  0  0  0
   34.2860   30.2800   48.0720 C   0  0  0  0  0  0  0  0  0  0  0  0
   33.3610   29.7160   47.1680 O   0  0  0  0  0  0  0  0  0  0  0  0
   33.8980   28.4790   46.8100 C   0  0  0  0  0  0  0  0  0  0  0  0
   34.2720   27.6300   48.0080 C   0  0  2  0  0  0  0  0  0  0  0  0
   33.7400   27.6580   50.0170 H   0  0  0  0  0  0  0  0  0  0  0  0
   33.8110   30.0490   50.2150 H   0  0  0  0  0  0  0  0  0  0  0  0
   35.2780   30.4110   47.6350 H   0  0  0  0  0  0  0  0  0  0  0  0
   33.9060   31.3160   48.3070 H   0  0  0  0  0  0  0  0  0  0  0  0
   33.0820   27.9430   46.2610 H   0  0  0  0  0  0  0  0  0  0  0  0
   34.7350   28.5650   46.0880 H   0  0  0  0  0  0  0  0  0  0  0  0
   35.3750   27.6110   48.1160 H   0  0  0  0  0  0  0  0  0  0  0  0
   33.7480   26.3280   47.8770 O   0  0  0  0  0  0  0  0  0  0  0  0
   34.0260   25.9200   47.0120 H   0  0  0  0  0  0  0  0  0  0  0  0
  1 20  1  0  0  0  0
  1  2  1  0  0  0  0
  2  7  1  0  0  0  0
  3  2  2  0  0  0  0
  3  8  1  0  0  0  0
  4  3  1  0  0  0  0
  5  6  1  0  0  0  0
  5  4  2  0  0  0  0
  6  1  2  0  0  0  0
  9 10  1  0  0  0  0
 10  5  1  0  0  0  0
 11 12  1  0  0  0  0
 11 10  2  0  0  0  0
 13 11  1  0  0  0  0
 14 13  2  0  0  0  0
 14 15  1  0  0  0  0
 15  9  2  0  0  0  0
 16 14  1  0  0  0  0
 17 16  1  0  0  0  0
 17 19  1  0  0  0  0
 18 17  1  0  0  0  0
 19 13  1  0  0  0  0
 21 22  1  0  0  0  0
 21 27  1  0  0  0  0
 22 20  1  0  0  0  0
 22 28  1  1  0  0  0
 23 30  1  0  0  0  0
 23 22  1  0  0  0  0
 24 23  1  0  0  0  0
 25 24  1  0  0  0  0
 25 26  1  0  0  0  0
 26 33  1  1  0  0  0
 26 21  1  0  0  0  0
 29 23  1  0  0  0  0
 31 25  1  0  0  0  0
 32 25  1  0  0  0  0
 34 26  1  0  0  0  0
 35 34  1  0  0  0  0
M  END
>  <minimizedAffinity>
-6.41989517

>  <minimizedRMSD>
0.809286714

$$$$
