
     RDKit          3D

 45 50  0  0  0  0  0  0  0  0999 V2000
   35.8577   29.1288   49.8063 C   0  0  0  0  0  0  0  0  0  0  0  0
   34.8223   29.6185   50.5507 C   0  0  0  0  0  0  0  0  0  0  0  0
   33.6571   29.0292   50.0507 C   0  0  0  0  0  0  0  0  0  0  0  0
   34.0711   28.1933   49.0024 C   0  0  0  0  0  0  0  0  0  0  0  0
   35.3609   28.3052   48.9219 O   0  0  0  0  0  0  0  0  0  0  0  0
   33.5257   26.4226   47.3476 C   0  0  0  0  0  0  0  0  0  0  0  0
   33.1240   27.4069   48.2357 C   0  0  0  0  0  0  0  0  0  0  0  0
   31.7930   27.6770   48.4269 C   0  0  0  0  0  0  0  0  0  0  0  0
   30.8497   26.9467   47.7149 C   0  0  0  0  0  0  0  0  0  0  0  0
   29.5105   26.9960   47.7037 N   0  0  0  0  0  0  0  0  0  0  0  0
   29.0862   26.0738   46.8378 N   0  0  0  0  0  0  0  0  0  0  0  0
   30.1474   25.4443   46.3039 C   0  0  0  0  0  0  0  0  0  0  0  0
   31.3071   25.9775   46.8432 C   0  0  0  0  0  0  0  0  0  0  0  0
   32.6342   25.6865   46.6324 C   0  0  0  0  0  0  0  0  0  0  0  0
   37.2300   29.5282   50.0497 C   0  0  0  0  0  0  0  0  0  0  0  0
   37.8752   28.9565   50.9697 O   0  0  0  0  0  0  0  0  0  0  0  0
   37.7819   30.5691   49.2143 C   0  0  0  0  0  0  0  0  0  0  0  0
   38.1214   31.7691   49.8319 C   0  0  0  0  0  0  0  0  0  0  0  0
   38.6570   32.7930   49.0489 C   0  0  0  0  0  0  0  0  0  0  0  0
   38.8115   32.5425   47.7202 N   0  0  0  0  0  0  0  0  0  0  0  0
   38.4798   31.3880   47.1539 C   0  0  0  0  0  0  0  0  0  0  0  0
   37.9654   30.4053   47.9065 N   0  0  0  0  0  0  0  0  0  0  0  0
   34.8667   30.3329   51.3812 H   0  0  0  0  0  0  0  0  0  0  0  0
   32.6885   29.2427   50.4600 H   0  0  0  0  0  0  0  0  0  0  0  0
   34.5940   26.2211   47.2081 H   0  0  0  0  0  0  0  0  0  0  0  0
   31.3828   28.4386   49.1094 H   0  0  0  0  0  0  0  0  0  0  0  0
   28.8765   27.6357   48.2650 H   0  0  0  0  0  0  0  0  0  0  0  0
   30.1595   24.6354   45.5606 H   0  0  0  0  0  0  0  0  0  0  0  0
   32.9794   24.9279   45.9494 H   0  0  0  0  0  0  0  0  0  0  0  0
   37.9665   31.8860   50.8927 H   0  0  0  0  0  0  0  0  0  0  0  0
   38.9110   33.7132   49.5560 H   0  0  0  0  0  0  0  0  0  0  0  0
   39.9247   30.9483   45.2022 C   0  0  0  0  0  0  0  0  0  0  0  0
   38.6656   31.1702   45.7245 C   0  0  0  0  0  0  0  0  0  0  0  0
   37.6102   31.1761   44.8456 C   0  0  0  0  0  0  0  0  0  0  0  0
   36.6098   31.3446   45.2038 H   0  0  0  0  0  0  0  0  0  0  0  0
   37.8069   30.9663   43.4841 C   0  0  0  0  0  0  0  0  0  0  0  0
   39.0655   30.7446   42.9624 C   0  0  0  0  0  0  0  0  0  0  0  0
   40.1196   30.7403   43.8520 C   0  0  0  0  0  0  0  0  0  0  0  0
   38.9390   30.5705   41.5796 O   0  0  0  0  0  0  0  0  0  0  0  0
   37.5581   30.3936   41.3171 C   0  0  2  0  0  0  0  0  0  0  0  0
   37.3053   29.3083   41.2807 H   0  0  0  0  0  0  0  0  0  0  0  0
   36.8823   30.9356   42.4525 O   0  0  0  0  0  0  0  0  0  0  0  0
   40.7537   30.9458   45.9074 H   0  0  0  0  0  0  0  0  0  0  0  0
   41.1178   30.5729   43.5004 H   0  0  0  0  0  0  0  0  0  0  0  0
   37.2528   30.8649   40.3792 H   0  0  0  0  0  0  0  0  0  0  0  0
  1 15  1  0
  1  2  2  0
  3  2  1  0
  4  3  2  0
  5  4  1  0
  5  1  1  0
  6  7  2  0
  7  8  1  0
  7  4  1  0
  9  8  2  0
 10  9  1  0
 11 10  1  0
 12 13  1  0
 12 11  2  0
 13  9  1  0
 14 13  2  0
 14  6  1  0
 15 16  2  0
 17 18  2  0
 17 15  1  0
 19 18  1  0
 20 19  2  0
 21 20  1  0
 21 22  2  0
 22 17  1  0
  2 23  1  0
  3 24  1  0
  6 25  1  0
  8 26  1  0
 10 27  1  0
 12 28  1  0
 14 29  1  0
 18 30  1  0
 19 31  1  0
 32 33  2  0
 33 34  1  0
 34 35  1  0
 34 36  2  0
 36 37  1  0
 37 38  2  0
 37 39  1  0
 39 40  1  0
 40 41  1  6
 40 42  1  0
 38 32  1  0
 42 36  1  0
 32 43  1  0
 38 44  1  0
 40 45  1  0
 21 33  1  0
M  ISO  8  23  14  24  14  25  14  26  14  27   9  28  14  29  14  30  14
M  ISO  3  31  14  35  16  41   8
M  END
>  <DihAtoms>  (1) 
19,20,32,31

>  <DihDeg>  (1) 
179.9999371602646

$$$$
