
     RDKit          3D

 46 51  0  0  0  0  0  0  0  0999 V2000
   37.5069   31.1344   49.5898 C   0  0  0  0  0  0  0  0  0  0  0  0
   37.7532   30.6674   50.8599 C   0  0  0  0  0  0  0  0  0  0  0  0
   36.9354   29.7048   51.3790 C   0  0  0  0  0  0  0  0  0  0  0  0
   35.8922   29.2191   50.6421 N   0  0  0  0  0  0  0  0  0  0  0  0
   35.6880   29.6951   49.4216 C   0  0  0  0  0  0  0  0  0  0  0  0
   36.4774   30.6458   48.8801 N   0  0  0  0  0  0  0  0  0  0  0  0
   34.5800   29.1782   48.6412 C   0  0  0  0  0  0  0  0  0  0  0  0
   34.5166   29.3594   47.2844 C   0  0  0  0  0  0  0  0  0  0  0  0
   33.5388   28.9330   46.4099 C   0  0  0  0  0  0  0  0  0  0  0  0
   32.5066   28.2371   47.0167 C   0  0  0  0  0  0  0  0  0  0  0  0
   31.5033   27.7834   46.2201 N   0  0  0  0  0  0  0  0  0  0  0  0
   30.4550   27.0972   46.7086 C   0  0  0  0  0  0  0  0  0  0  0  0
   30.3924   26.8416   48.0740 C   0  0  0  0  0  0  0  0  0  0  0  0
   31.4143   27.3028   48.8902 C   0  0  0  0  0  0  0  0  0  0  0  0
   32.5003   28.0133   48.3870 C   0  0  0  0  0  0  0  0  0  0  0  0
   33.5183   28.4744   49.1904 C   0  0  0  0  0  0  0  0  0  0  0  0
   39.5067   34.1763   49.0640 C   0  0  0  0  0  0  0  0  0  0  0  0
   39.9338   34.0217   47.7310 C   0  0  0  0  0  0  0  0  0  0  0  0
   39.5252   32.8679   47.0313 C   0  0  0  0  0  0  0  0  0  0  0  0
   38.7464   31.9884   47.6998 N   0  0  0  0  0  0  0  0  0  0  0  0
   38.3474   32.1608   48.9878 C   0  0  0  0  0  0  0  0  0  0  0  0
   38.7320   33.2518   49.6540 N   0  0  0  0  0  0  0  0  0  0  0  0
   38.5934   31.0770   51.4188 H   0  0  0  0  0  0  0  0  0  0  0  0
   37.1055   29.3186   52.3764 H   0  0  0  0  0  0  0  0  0  0  0  0
   35.3530   29.9152   46.8437 H   0  0  0  0  0  0  0  0  0  0  0  0
   33.5992   29.1375   45.3549 H   0  0  0  0  0  0  0  0  0  0  0  0
   29.6521   26.7326   46.0809 H   0  0  0  0  0  0  0  0  0  0  0  0
   29.5602   26.2912   48.4961 H   0  0  0  0  0  0  0  0  0  0  0  0
   31.3934   27.1192   49.9579 H   0  0  0  0  0  0  0  0  0  0  0  0
   33.4984   28.2928   50.2491 H   0  0  0  0  0  0  0  0  0  0  0  0
   39.8326   35.0704   49.5827 H   0  0  0  0  0  0  0  0  0  0  0  0
   40.5439   34.7244   47.2277 H   0  0  0  0  0  0  0  0  0  0  0  0
   40.3033   31.2903   45.3880 C   0  0  0  0  0  0  0  0  0  0  0  0
   39.8904   32.5787   45.6529 C   0  0  0  0  0  0  0  0  0  0  0  0
   39.8348   33.5222   44.6522 C   0  0  0  0  0  0  0  0  0  0  0  0
   39.5119   34.5335   44.8541 H   0  0  0  0  0  0  0  0  0  0  0  0
   40.1906   33.2138   43.3451 C   0  0  0  0  0  0  0  0  0  0  0  0
   40.6033   31.9157   43.0946 C   0  0  0  0  0  0  0  0  0  0  0  0
   40.6712   30.9356   44.0845 C   0  0  0  0  0  0  0  0  0  0  0  0
   40.9158   31.8041   41.7320 O   0  0  0  0  0  0  0  0  0  0  0  0
   40.3822   32.9459   41.0665 C   0  0  2  0  0  0  0  0  0  0  0  0
   39.3460   32.7470   40.7052 H   0  0  0  0  0  0  0  0  0  0  0  0
   40.2599   33.8710   42.1257 O   0  0  0  0  0  0  0  0  0  0  0  0
   40.3673   30.4990   46.1434 H   0  0  0  0  0  0  0  0  0  0  0  0
   41.0018   29.9460   43.8166 H   0  0  0  0  0  0  0  0  0  0  0  0
   41.0229   33.3209   40.2638 H   0  0  0  0  0  0  0  0  0  0  0  0
  1  2  2  0
  2  3  1  0
  4  3  2  0
  5  4  1  0
  6  5  2  0
  6  1  1  0
  7 16  1  0
  7  5  1  0
  8  7  2  0
  9 10  2  0
  9  8  1  0
 10 15  1  0
 11 12  2  0
 11 10  1  0
 12 13  1  0
 13 14  2  0
 15 14  1  0
 15 16  2  0
 17 22  2  0
 18 17  1  0
 19 20  1  0
 19 18  2  0
 20 21  2  0
 21  1  1  0
 21 22  1  0
  2 23  1  0
  3 24  1  0
  8 25  1  0
  9 26  1  0
 12 27  1  0
 13 28  1  0
 14 29  1  0
 16 30  1  0
 17 31  1  0
 18 32  1  0
 33 34  2  0
 34 35  1  0
 35 36  1  0
 35 37  2  0
 37 38  1  0
 38 39  2  0
 38 40  1  0
 40 41  1  0
 41 42  1  6
 41 43  1  0
 39 33  1  0
 43 37  1  0
 33 44  1  0
 39 45  1  0
 41 46  1  0
 19 34  1  0
M  ISO  8  23  14  24  14  25  14  26  14  27  14  28  14  29  14  30  14
M  ISO  4  31  14  32  14  36  16  42   8
M  END
>  <DihAtoms>  (1) 
19,18,33,32

>  <DihDeg>  (1) 
0.0001600097753333484

$$$$
