
 OpenBabel03262522033D

 41 45  0  0  1  0  0  0  0  0999 V2000
   34.4650   29.1790   48.8480 C   0  0  2  0  0  0  0  0  0  0  0  0
   35.1560   28.4250   49.9350 C   0  0  0  0  0  0  0  0  0  0  0  0
   36.3400   29.1690   50.3420 N   0  0  0  0  0  0  0  0  0  0  0  0
   37.3440   29.8710   51.0910 C   0  0  0  0  0  0  0  0  0  0  0  0
   37.6380   30.0460   52.2900 O   0  0  0  0  0  0  0  0  0  0  0  0
   38.0110   30.3910   49.9000 C   0  0  1  0  0  0  0  0  0  0  0  0
   37.1340   29.4120   49.1640 C   0  0  2  0  0  0  0  0  0  0  0  0
   35.8380   30.1640   48.1280 S   0  0  0  0  0  0  0  0  0  0  0  0
   34.4970   28.3220   50.8260 H   0  0  0  0  0  0  0  0  0  0  0  0
   35.4730   27.4420   49.5580 H   0  0  0  0  0  0  0  0  0  0  0  0
   39.0730   30.1240   49.7540 H   0  0  0  0  0  0  0  0  0  0  0  0
   37.6340   28.5430   48.7240 H   0  0  0  0  0  0  0  0  0  0  0  0
   33.3000   30.0130   49.2710 C   0  0  0  0  0  0  0  0  0  0  0  0
   32.8430   30.4470   48.3830 H   0  0  0  0  0  0  0  0  0  0  0  0
   33.7150   30.7980   49.9620 H   0  0  0  0  0  0  0  0  0  0  0  0
   32.6630   29.3880   49.9030 H   0  0  0  0  0  0  0  0  0  0  0  0
   34.0790   28.1980   47.7300 C   0  0  0  0  0  0  0  0  0  0  0  0
   34.5630   28.5380   46.7930 H   0  0  0  0  0  0  0  0  0  0  0  0
   34.5540   27.2170   47.9660 H   0  0  0  0  0  0  0  0  0  0  0  0
   31.9680   27.1420   48.3880 C   0  0  0  0  0  3  0  0  0  0  0  0
   32.6100   28.0810   47.5810 C   0  0  0  0  0  0  0  0  0  0  0  0
   31.8440   28.8280   46.7080 C   0  0  0  0  0  0  0  0  0  0  0  0
   32.3480   29.5390   46.0990 H   0  0  0  0  0  0  0  0  0  0  0  0
   30.4820   28.6090   46.6800 C   0  0  0  0  0  0  0  0  0  0  0  0
   29.8150   27.6900   47.4630 C   0  0  0  0  0  0  0  0  0  0  0  0
   30.5910   26.9550   48.3270 C   0  0  0  0  0  3  0  0  0  0  0  0
   28.4670   27.7980   47.1160 O   0  0  0  0  0  0  0  0  0  0  0  0
   28.2340   29.0510   46.4600 C   0  0  0  0  0  3  0  0  0  0  0  0
   28.1450   29.8910   47.2010 H   0  0  0  0  0  0  0  0  0  0  0  0
   29.5290   29.2500   45.8780 O   0  0  0  0  0  0  0  0  0  0  0  0
   37.7970   31.8210   49.6130 C   0  0  0  0  0  0  0  0  0  0  0  0
   36.8210   32.3310   50.2340 O   0  0  0  0  0  0  0  0  0  0  0  0
   38.6290   32.5730   48.7090 C   0  0  0  0  0  0  0  0  0  0  0  0
   39.1490   33.7750   49.1620 C   0  0  0  0  0  0  0  0  0  0  0  0
   39.9620   34.5190   48.2790 C   0  0  0  0  0  0  0  0  0  0  0  0
   40.1860   34.0070   47.0330 N   0  0  0  0  0  0  0  0  0  0  0  0
   39.6690   32.8480   46.6330 C   0  0  0  0  0  0  0  0  0  0  0  0
   38.8910   32.1280   47.4680 N   0  0  0  0  0  0  0  0  0  0  0  0
   39.0000   34.2150   50.1280 H   0  0  0  0  0  0  0  0  0  0  0  0
   40.3880   35.4510   48.5750 H   0  0  0  0  0  0  0  0  0  0  0  0
   39.8320   32.4190   45.6470 H   0  0  0  0  0  0  0  0  0  0  0  0
  1 17  1  6  0  0  0
  1 13  1  0  0  0  0
  1  2  1  0  0  0  0
  2  3  1  0  0  0  0
  2  9  1  0  0  0  0
  3  4  1  0  0  0  0
  4  5  2  0  0  0  0
  6 11  1  6  0  0  0
  6  4  1  0  0  0  0
  7 12  1  6  0  0  0
  7  6  1  0  0  0  0
  7  3  1  0  0  0  0
  8  1  1  0  0  0  0
  8  7  1  0  0  0  0
 10  2  1  0  0  0  0
 13 16  1  0  0  0  0
 13 15  1  0  0  0  0
 14 13  1  0  0  0  0
 17 19  1  0  0  0  0
 18 17  1  0  0  0  0
 21 17  1  0  0  0  0
 21 20  2  0  0  0  0
 22 21  1  0  0  0  0
 23 22  1  0  0  0  0
 24 22  2  0  0  0  0
 24 25  1  0  0  0  0
 25 26  2  0  0  0  0
 26 20  1  0  0  0  0
 27 25  1  0  0  0  0
 28 27  1  0  0  0  0
 28 29  1  0  0  0  0
 30 28  1  0  0  0  0
 30 24  1  0  0  0  0
 31  6  1  0  0  0  0
 31 32  2  0  0  0  0
 33 34  1  0  0  0  0
 33 31  1  0  0  0  0
 34 39  1  0  0  0  0
 35 40  1  0  0  0  0
 35 34  2  0  0  0  0
 36 35  1  0  0  0  0
 37 36  2  0  0  0  0
 37 38  1  0  0  0  0
 38 33  2  0  0  0  0
 41 37  1  0  0  0  0
M  END
>  <minimizedAffinity>
-5.74829149

>  <minimizedRMSD>
2.39489079

$$$$
