
 OpenBabel03262522033D

 41 45  0  0  1  0  0  0  0  0999 V2000
   34.3950   29.1460   48.9820 C   0  0  2  0  0  0  0  0  0  0  0  0
   35.1170   28.4000   50.0530 C   0  0  0  0  0  0  0  0  0  0  0  0
   36.3160   29.1430   50.4150 N   0  0  0  0  0  0  0  0  0  0  0  0
   37.3460   29.8490   51.1240 C   0  0  0  0  0  0  0  0  0  0  0  0
   37.6800   30.0340   52.3110 O   0  0  0  0  0  0  0  0  0  0  0  0
   37.9770   30.3550   49.9070 C   0  0  1  0  0  0  0  0  0  0  0  0
   37.0730   29.3720   49.2090 C   0  0  2  0  0  0  0  0  0  0  0  0
   35.7470   30.1180   48.2080 S   0  0  0  0  0  0  0  0  0  0  0  0
   34.4870   28.3090   50.9660 H   0  0  0  0  0  0  0  0  0  0  0  0
   35.4190   27.4120   49.6770 H   0  0  0  0  0  0  0  0  0  0  0  0
   39.0320   30.0820   49.7300 H   0  0  0  0  0  0  0  0  0  0  0  0
   37.5550   28.4960   48.7620 H   0  0  0  0  0  0  0  0  0  0  0  0
   33.2470   29.9880   49.4330 C   0  0  0  0  0  0  0  0  0  0  0  0
   32.7630   30.4150   48.5560 H   0  0  0  0  0  0  0  0  0  0  0  0
   33.6870   30.7790   50.1030 H   0  0  0  0  0  0  0  0  0  0  0  0
   32.6280   29.3720   50.0920 H   0  0  0  0  0  0  0  0  0  0  0  0
   33.9700   28.1560   47.8870 C   0  0  0  0  0  0  0  0  0  0  0  0
   34.4940   28.4320   46.9510 H   0  0  0  0  0  0  0  0  0  0  0  0
   34.3740   27.1550   48.1640 H   0  0  0  0  0  0  0  0  0  0  0  0
   31.9870   28.8230   46.6110 C   0  0  0  0  0  3  0  0  0  0  0  0
   32.4990   28.1280   47.7070 C   0  0  0  0  0  0  0  0  0  0  0  0
   31.6150   27.4720   48.5380 C   0  0  0  0  0  0  0  0  0  0  0  0
   32.0210   26.9480   49.3700 H   0  0  0  0  0  0  0  0  0  0  0  0
   30.2680   27.5370   48.2430 C   0  0  0  0  0  0  0  0  0  0  0  0
   29.7260   28.2130   47.1700 C   0  0  0  0  0  0  0  0  0  0  0  0
   30.6190   28.8610   46.3510 C   0  0  0  0  0  3  0  0  0  0  0  0
   28.3470   28.0170   47.2520 O   0  0  0  0  0  0  0  0  0  0  0  0
   28.0640   26.8880   48.0870 C   0  0  0  0  0  3  0  0  0  0  0  0
   28.2030   25.9210   47.5320 H   0  0  0  0  0  0  0  0  0  0  0  0
   29.2090   26.9500   48.9490 O   0  0  0  0  0  0  0  0  0  0  0  0
   37.7590   31.7820   49.6130 C   0  0  0  0  0  0  0  0  0  0  0  0
   36.7770   32.2920   50.2260 O   0  0  0  0  0  0  0  0  0  0  0  0
   38.5920   32.5340   48.7100 C   0  0  0  0  0  0  0  0  0  0  0  0
   39.1170   33.7330   49.1650 C   0  0  0  0  0  0  0  0  0  0  0  0
   39.9310   34.4770   48.2830 C   0  0  0  0  0  0  0  0  0  0  0  0
   40.1530   33.9660   47.0350 N   0  0  0  0  0  0  0  0  0  0  0  0
   39.6320   32.8100   46.6330 C   0  0  0  0  0  0  0  0  0  0  0  0
   38.8510   32.0910   47.4670 N   0  0  0  0  0  0  0  0  0  0  0  0
   38.9700   34.1710   50.1320 H   0  0  0  0  0  0  0  0  0  0  0  0
   40.3610   35.4060   48.5800 H   0  0  0  0  0  0  0  0  0  0  0  0
   39.7920   32.3830   45.6460 H   0  0  0  0  0  0  0  0  0  0  0  0
  1 17  1  6  0  0  0
  1 13  1  0  0  0  0
  1  2  1  0  0  0  0
  2  3  1  0  0  0  0
  2  9  1  0  0  0  0
  3  4  1  0  0  0  0
  4  5  2  0  0  0  0
  6 11  1  6  0  0  0
  6  4  1  0  0  0  0
  7 12  1  6  0  0  0
  7  6  1  0  0  0  0
  7  3  1  0  0  0  0
  8  1  1  0  0  0  0
  8  7  1  0  0  0  0
 10  2  1  0  0  0  0
 13 16  1  0  0  0  0
 13 15  1  0  0  0  0
 14 13  1  0  0  0  0
 17 19  1  0  0  0  0
 18 17  1  0  0  0  0
 20 21  1  0  0  0  0
 21 17  1  0  0  0  0
 21 22  2  0  0  0  0
 22 23  1  0  0  0  0
 24 22  1  0  0  0  0
 24 30  1  0  0  0  0
 25 27  1  0  0  0  0
 25 24  2  0  0  0  0
 26 20  2  0  0  0  0
 26 25  1  0  0  0  0
 27 28  1  0  0  0  0
 28 30  1  0  0  0  0
 29 28  1  0  0  0  0
 31  6  1  0  0  0  0
 31 32  2  0  0  0  0
 33 34  1  0  0  0  0
 33 31  1  0  0  0  0
 34 39  1  0  0  0  0
 35 40  1  0  0  0  0
 35 34  2  0  0  0  0
 36 35  1  0  0  0  0
 37 36  2  0  0  0  0
 37 38  1  0  0  0  0
 38 33  2  0  0  0  0
 41 37  1  0  0  0  0
M  END
>  <minimizedAffinity>
-5.85931969

>  <minimizedRMSD>
2.49326301

$$$$
