
 OpenBabel03262522033D

 41 45  0  0  1  0  0  0  0  0999 V2000
   34.5170   29.2810   48.6670 C   0  0  2  0  0  0  0  0  0  0  0  0
   35.1670   28.4760   49.7410 C   0  0  0  0  0  0  0  0  0  0  0  0
   36.3450   29.1910   50.2140 N   0  0  0  0  0  0  0  0  0  0  0  0
   37.3320   29.8510   51.0210 C   0  0  0  0  0  0  0  0  0  0  0  0
   37.5910   29.9740   52.2350 O   0  0  0  0  0  0  0  0  0  0  0  0
   38.0390   30.4140   49.8740 C   0  0  1  0  0  0  0  0  0  0  0  0
   37.1770   29.4740   49.0720 C   0  0  2  0  0  0  0  0  0  0  0  0
   35.9190   30.2810   48.0290 S   0  0  0  0  0  0  0  0  0  0  0  0
   34.4810   28.3430   50.6080 H   0  0  0  0  0  0  0  0  0  0  0  0
   35.4870   27.5060   49.3350 H   0  0  0  0  0  0  0  0  0  0  0  0
   39.1030   30.1420   49.7490 H   0  0  0  0  0  0  0  0  0  0  0  0
   37.6810   28.6180   48.6110 H   0  0  0  0  0  0  0  0  0  0  0  0
   33.3460   30.1080   49.0890 C   0  0  0  0  0  0  0  0  0  0  0  0
   32.9200   30.5830   48.2060 H   0  0  0  0  0  0  0  0  0  0  0  0
   33.7470   30.8600   49.8240 H   0  0  0  0  0  0  0  0  0  0  0  0
   32.6850   29.4640   49.6750 H   0  0  0  0  0  0  0  0  0  0  0  0
   34.1560   28.3510   47.4980 C   0  0  0  0  0  0  0  0  0  0  0  0
   35.0100   27.6670   47.3270 H   0  0  0  0  0  0  0  0  0  0  0  0
   33.3200   27.6950   47.8360 H   0  0  0  0  0  0  0  0  0  0  0  0
   34.5760   28.8660   45.1390 C   0  0  0  0  0  3  0  0  0  0  0  0
   33.8050   29.1100   46.2750 C   0  0  0  0  0  0  0  0  0  0  0  0
   32.7800   30.0290   46.1870 C   0  0  0  0  0  0  0  0  0  0  0  0
   32.1990   30.2040   47.0610 H   0  0  0  0  0  0  0  0  0  0  0  0
   32.5690   30.6610   44.9780 C   0  0  0  0  0  0  0  0  0  0  0  0
   33.3110   30.4450   43.8350 C   0  0  0  0  0  0  0  0  0  0  0  0
   34.3290   29.5270   43.9400 C   0  0  0  0  0  3  0  0  0  0  0  0
   32.7640   31.2800   42.8600 O   0  0  0  0  0  0  0  0  0  0  0  0
   31.4420   31.6780   43.2460 C   0  0  0  0  0  3  0  0  0  0  0  0
   30.6910   30.8710   43.0260 H   0  0  0  0  0  0  0  0  0  0  0  0
   31.5930   31.6180   44.6700 O   0  0  0  0  0  0  0  0  0  0  0  0
   37.8470   31.8560   49.6390 C   0  0  0  0  0  0  0  0  0  0  0  0
   36.8960   32.3630   50.3020 O   0  0  0  0  0  0  0  0  0  0  0  0
   38.6700   32.6220   48.7400 C   0  0  0  0  0  0  0  0  0  0  0  0
   39.1740   33.8290   49.1990 C   0  0  0  0  0  0  0  0  0  0  0  0
   39.9790   34.5870   48.3190 C   0  0  0  0  0  0  0  0  0  0  0  0
   40.2120   34.0820   47.0720 N   0  0  0  0  0  0  0  0  0  0  0  0
   39.7110   32.9170   46.6670 C   0  0  0  0  0  0  0  0  0  0  0  0
   38.9400   32.1850   47.4980 N   0  0  0  0  0  0  0  0  0  0  0  0
   39.0180   34.2630   50.1650 H   0  0  0  0  0  0  0  0  0  0  0  0
   40.3930   35.5220   48.6200 H   0  0  0  0  0  0  0  0  0  0  0  0
   39.8810   32.4950   45.6800 H   0  0  0  0  0  0  0  0  0  0  0  0
  1 17  1  6  0  0  0
  1 13  1  0  0  0  0
  1  2  1  0  0  0  0
  2  3  1  0  0  0  0
  2  9  1  0  0  0  0
  3  4  1  0  0  0  0
  4  5  2  0  0  0  0
  6 11  1  6  0  0  0
  6  4  1  0  0  0  0
  7 12  1  6  0  0  0
  7  6  1  0  0  0  0
  7  3  1  0  0  0  0
  8  1  1  0  0  0  0
  8  7  1  0  0  0  0
 10  2  1  0  0  0  0
 13 16  1  0  0  0  0
 13 15  1  0  0  0  0
 14 13  1  0  0  0  0
 17 19  1  0  0  0  0
 18 17  1  0  0  0  0
 20 21  1  0  0  0  0
 21 17  1  0  0  0  0
 22 21  2  0  0  0  0
 22 23  1  0  0  0  0
 24 22  1  0  0  0  0
 25 26  1  0  0  0  0
 25 24  2  0  0  0  0
 26 20  2  0  0  0  0
 27 28  1  0  0  0  0
 27 25  1  0  0  0  0
 28 30  1  0  0  0  0
 29 28  1  0  0  0  0
 30 24  1  0  0  0  0
 31  6  1  0  0  0  0
 31 32  2  0  0  0  0
 33 34  1  0  0  0  0
 33 31  1  0  0  0  0
 34 39  1  0  0  0  0
 35 40  1  0  0  0  0
 35 34  2  0  0  0  0
 36 35  1  0  0  0  0
 37 36  2  0  0  0  0
 37 38  1  0  0  0  0
 38 33  2  0  0  0  0
 41 37  1  0  0  0  0
M  END
>  <minimizedAffinity>
-5.29897738

>  <minimizedRMSD>
0.677252173

$$$$
