
     RDKit          3D

 34 37  0  0  0  0  0  0  0  0999 V2000
   36.3690   30.4719   46.3934 Cl  0  0  0  0  0  0  0  0  0  0  0  0
   36.7982   30.5366   48.0794 C   0  0  0  0  0  0  0  0  0  0  0  0
   38.0245   31.0811   48.3849 C   0  0  0  0  0  0  0  0  0  0  0  0
   38.3833   31.1405   49.7272 C   0  0  0  0  0  0  0  0  0  0  0  0
   37.5247   30.6656   50.6878 C   0  0  0  0  0  0  0  0  0  0  0  0
   36.3167   30.1357   50.3041 C   0  0  0  0  0  0  0  0  0  0  0  0
   35.8952   30.0447   48.9930 C   0  0  0  0  0  0  0  0  0  0  0  0
   40.0019   33.4258   46.4042 C   0  0  0  0  0  0  0  0  0  0  0  0
   40.5685   32.6265   45.3881 C   0  0  0  0  0  0  0  0  0  0  0  0
   40.2474   31.2672   45.4114 C   0  0  0  0  0  0  0  0  0  0  0  0
   39.4243   30.7966   46.3900 N   0  0  0  0  0  0  0  0  0  0  0  0
   38.9105   31.5765   47.3281 C   0  0  0  0  0  0  0  0  0  0  0  0
   39.2123   32.8888   47.3167 N   0  0  0  0  0  0  0  0  0  0  0  0
   34.3405   29.3633   48.4936 S   0  0  0  0  0  0  0  0  0  0  0  0
   39.3452   31.5651   49.9993 H   0  0  0  0  0  0  0  0  0  0  0  0
   37.8078   30.7138   51.7312 H   0  0  0  0  0  0  0  0  0  0  0  0
   35.6510   29.7644   51.0872 H   0  0  0  0  0  0  0  0  0  0  0  0
   40.2237   34.4842   46.4244 H   0  0  0  0  0  0  0  0  0  0  0  0
   41.2064   33.0917   44.6603 H   0  0  0  0  0  0  0  0  0  0  0  0
   40.6670   30.6314   44.6456 H   0  0  0  0  0  0  0  0  0  0  0  0
   35.5274   27.2550   47.4180 C   0  0  0  0  0  0  0  0  0  0  0  0
   34.4080   27.6126   48.1768 C   0  0  0  0  0  0  0  0  0  0  0  0
   33.5295   26.6258   48.5738 C   0  0  0  0  0  0  0  0  0  0  0  0
   32.7152   27.0033   49.1441 H   0  0  0  0  0  0  0  0  0  0  0  0
   33.7870   25.3204   48.2074 C   0  0  0  0  0  0  0  0  0  0  0  0
   34.8812   24.9450   47.4617 C   0  0  0  0  0  0  0  0  0  0  0  0
   35.7583   25.9344   47.0661 C   0  0  0  0  0  0  0  0  0  0  0  0
   34.7968   23.5689   47.2990 O   0  0  0  0  0  0  0  0  0  0  0  0
   33.5046   23.1366   47.6545 C   0  0  1  0  0  0  0  0  0  0  0  0
   32.8825   23.0701   46.7405 H   0  0  0  0  0  0  0  0  0  0  0  0
   33.0539   24.1879   48.4903 O   0  0  0  0  0  0  0  0  0  0  0  0
   36.3037   27.9090   47.0331 H   0  0  0  0  0  0  0  0  0  0  0  0
   36.5994   25.5901   46.4840 H   0  0  0  0  0  0  0  0  0  0  0  0
   33.5271   22.1609   48.1790 H   0  0  0  0  0  0  0  0  0  0  0  0
  1  2  1  0
  2  3  2  0
  2  7  1  0
  3  4  1  0
  4  5  2  0
  6  5  1  0
  7  6  2  0
  8 13  2  0
  9 10  2  0
  9  8  1  0
 10 11  1  0
 11 12  2  0
 12  3  1  0
 13 12  1  0
 14  7  1  0
  4 15  1  0
  5 16  1  0
  6 17  1  0
  8 18  1  0
  9 19  1  0
 10 20  1  0
 21 22  2  0
 22 23  1  0
 23 24  1  0
 23 25  2  0
 25 26  1  0
 26 27  2  0
 26 28  1  0
 28 29  1  0
 29 30  1  6
 29 31  1  0
 27 21  1  0
 31 25  1  0
 21 32  1  0
 27 33  1  0
 29 34  1  0
 14 22  1  0
M  ISO  8  15  14  16  14  17  14  18  14  19  14  20  14  24  16  30   8
M  END
>  <DihAtoms>  (1) 
6,13,21,20

>  <DihDeg>  (1) 
90.00264859870619

$$$$
