
 OpenBabel03272508023D

 30 33  0  0  0  0  0  0  0  0999 V2000
   38.8180   30.7990   45.7070 C   0  0  0  0  0  0  0  0  0  0  0  0
   40.0110   31.4450   45.8750 C   0  0  0  0  0  0  0  0  0  0  0  0
   40.7950   31.2970   44.7200 C   0  0  0  0  0  0  0  0  0  0  0  0
   40.0100   30.5420   43.8850 N   0  0  0  0  0  0  0  0  0  0  0  0
   38.8700   30.2640   44.4740 N   0  0  0  0  0  0  0  0  0  0  0  0
   40.2790   31.9880   46.7890 H   0  0  0  0  0  0  0  0  0  0  0  0
   41.7640   31.7230   44.6420 H   0  0  0  0  0  0  0  0  0  0  0  0
   41.3510   29.1240   42.3210 C   0  0  0  0  0  0  0  0  0  0  0  0
   40.5330   30.2120   42.6020 C   0  0  0  0  0  0  0  0  0  0  0  0
   40.1550   31.0940   41.5860 C   0  0  0  0  0  0  0  0  0  0  0  0
   39.5220   31.9550   41.7510 H   0  0  0  0  0  0  0  0  0  0  0  0
   40.6120   30.8630   40.2950 C   0  0  0  0  0  0  0  0  0  0  0  0
   41.4340   29.7650   40.0260 C   0  0  0  0  0  0  0  0  0  0  0  0
   41.8020   28.8990   41.0350 C   0  0  0  0  0  0  0  0  0  0  0  0
   41.6920   29.8480   38.6510 O   0  0  0  0  0  0  0  0  0  0  0  0
   41.5130   31.2100   38.2380 C   0  0  0  0  0  0  0  0  0  0  0  0
   41.2890   31.2980   37.1760 H   0  0  0  0  0  0  0  0  0  0  0  0
   40.4100   31.5540   39.0900 O   0  0  0  0  0  0  0  0  0  0  0  0
   37.7050   30.7000   46.6590 C   0  0  0  0  0  0  0  0  0  0  0  0
   37.9870   30.9560   48.0200 C   0  0  0  0  0  0  0  0  0  0  0  0
   36.9270   30.8630   48.9340 C   0  0  0  0  0  0  0  0  0  0  0  0
   35.7060   30.5300   48.4450 N   0  0  0  0  0  0  0  0  0  0  0  0
   35.4720   30.2930   47.1440 C   0  0  0  0  0  0  0  0  0  0  0  0
   36.4840   30.3820   46.2660 N   0  0  0  0  0  0  0  0  0  0  0  0
   38.9780   31.2190   48.3700 H   0  0  0  0  0  0  0  0  0  0  0  0
   34.4540   30.0340   46.8630 H   0  0  0  0  0  0  0  0  0  0  0  0
   37.1990   31.1280   50.3650 C   0  0  0  0  0  0  0  0  0  0  0  0
   36.6920   32.3810   50.6250 F   0  0  0  0  0  0  0  0  0  0  0  0
   36.5650   30.2140   51.2000 F   0  0  0  0  0  0  0  0  0  0  0  0
   38.5500   31.1510   50.6460 F   0  0  0  0  0  0  0  0  0  0  0  0
  1  2  1  0  0  0  0
  1 19  1  0  0  0  0
  2  6  1  0  0  0  0
  3  2  2  0  0  0  0
  4  5  1  0  0  0  0
  4  3  1  0  0  0  0
  5  1  2  0  0  0  0
  7  3  1  0  0  0  0
  8  9  1  0  0  0  0
  9  4  1  0  0  0  0
 10 11  1  0  0  0  0
 10  9  2  0  0  0  0
 12 10  1  0  0  0  0
 13 12  2  0  0  0  0
 13 14  1  0  0  0  0
 14  8  2  0  0  0  0
 15 13  1  0  0  0  0
 16 15  1  0  0  0  0
 16 18  1  0  0  0  0
 17 16  1  0  0  0  0
 18 12  1  0  0  0  0
 19 20  1  0  0  0  0
 20 25  1  0  0  0  0
 20 21  2  0  0  0  0
 21 27  1  0  0  0  0
 22 21  1  0  0  0  0
 23 22  2  0  0  0  0
 24 19  2  0  0  0  0
 24 23  1  0  0  0  0
 26 23  1  0  0  0  0
 27 28  1  0  0  0  0
 27 30  1  0  0  0  0
 27 29  1  0  0  0  0
M  END
>  <minimizedAffinity>
-6.48779202

>  <minimizedRMSD>
1.24603713

$$$$
