
 OpenBabel03272508023D

 30 33  0  0  0  0  0  0  0  0999 V2000
   36.7080   30.7440   44.1300 C   0  0  0  0  0  0  0  0  0  0  0  0
   35.8130   31.2870   43.2520 C   0  0  0  0  0  0  0  0  0  0  0  0
   34.5050   30.9690   43.6520 C   0  0  0  0  0  0  0  0  0  0  0  0
   34.6830   30.2220   44.7890 N   0  0  0  0  0  0  0  0  0  0  0  0
   35.9640   30.1030   45.0500 N   0  0  0  0  0  0  0  0  0  0  0  0
   36.1100   31.8790   42.3770 H   0  0  0  0  0  0  0  0  0  0  0  0
   33.6570   31.2960   43.1040 H   0  0  0  0  0  0  0  0  0  0  0  0
   32.2140   30.1240   45.1750 C   0  0  0  0  0  3  0  0  0  0  0  0
   33.5190   29.7370   45.4510 C   0  0  0  0  0  0  0  0  0  0  0  0
   33.7810   28.7960   46.4510 C   0  0  0  0  0  0  0  0  0  0  0  0
   34.7770   28.4600   46.7060 H   0  0  0  0  0  0  0  0  0  0  0  0
   32.7160   28.2580   47.1600 C   0  0  0  0  0  0  0  0  0  0  0  0
   31.4070   28.6550   46.8710 C   0  0  0  0  0  0  0  0  0  0  0  0
   31.1560   29.5860   45.8830 C   0  0  0  0  0  3  0  0  0  0  0  0
   30.6110   27.9230   47.7620 O   0  0  0  0  0  0  0  0  0  0  0  0
   31.4200   27.5460   48.8860 C   0  0  0  0  0  3  0  0  0  0  0  0
   31.0350   26.6680   49.4020 H   0  0  0  0  0  0  0  0  0  0  0  0
   32.6560   27.3140   48.1970 O   0  0  0  0  0  0  0  0  0  0  0  0
   38.1720   30.8290   44.0930 C   0  0  0  0  0  0  0  0  0  0  0  0
   38.8370   30.1740   43.0310 C   0  0  0  0  0  0  0  0  0  0  0  0
   40.2370   30.2530   42.9910 C   0  0  0  0  0  0  0  0  0  0  0  0
   40.8530   30.9510   43.9770 N   0  0  0  0  0  0  0  0  0  0  0  0
   40.1910   31.5620   44.9730 C   0  0  0  0  0  0  0  0  0  0  0  0
   38.8520   31.4890   45.0140 N   0  0  0  0  0  0  0  0  0  0  0  0
   38.3060   29.6260   42.2620 H   0  0  0  0  0  0  0  0  0  0  0  0
   40.7870   32.0940   45.7100 H   0  0  0  0  0  0  0  0  0  0  0  0
   40.9540   29.5750   41.8870 C   0  0  0  0  0  0  0  0  0  0  0  0
   41.3100   30.5630   40.9970 F   0  0  0  0  0  0  0  0  0  0  0  0
   42.1100   28.9370   42.3230 F   0  0  0  0  0  0  0  0  0  0  0  0
   40.1520   28.6720   41.2170 F   0  0  0  0  0  0  0  0  0  0  0  0
  1  5  2  0  0  0  0
  2  3  2  0  0  0  0
  2  1  1  0  0  0  0
  3  4  1  0  0  0  0
  4  5  1  0  0  0  0
  4  9  1  0  0  0  0
  6  2  1  0  0  0  0
  7  3  1  0  0  0  0
  8  9  2  0  0  0  0
  8 14  1  0  0  0  0
  9 10  1  0  0  0  0
 10 11  1  0  0  0  0
 10 12  2  0  0  0  0
 12 18  1  0  0  0  0
 13 12  1  0  0  0  0
 13 15  1  0  0  0  0
 14 13  2  0  0  0  0
 15 16  1  0  0  0  0
 16 17  1  0  0  0  0
 18 16  1  0  0  0  0
 19  1  1  0  0  0  0
 19 24  1  0  0  0  0
 20 19  2  0  0  0  0
 21 20  1  0  0  0  0
 21 22  2  0  0  0  0
 22 23  1  0  0  0  0
 23 24  2  0  0  0  0
 23 26  1  0  0  0  0
 25 20  1  0  0  0  0
 27 29  1  0  0  0  0
 27 21  1  0  0  0  0
 28 27  1  0  0  0  0
 30 27  1  0  0  0  0
M  END
>  <minimizedAffinity>
-4.36701441

>  <minimizedRMSD>
9.3739357

$$$$
