
 OpenBabel03272501563D

 33 36  0  0  0  0  0  0  0  0999 V2000
   32.8940   28.3770   47.9540 C   0  0  0  0  0  0  0  0  0  0  0  0
   32.2090   27.7540   48.9820 C   0  0  0  0  0  0  0  0  0  0  0  0
   30.8760   27.6060   48.6190 C   0  0  0  0  0  0  0  0  0  0  0  0
   30.7930   28.1510   47.3680 N   0  0  0  0  0  0  0  0  0  0  0  0
   31.9870   28.5970   46.9980 N   0  0  0  0  0  0  0  0  0  0  0  0
   32.6490   27.4360   49.9150 H   0  0  0  0  0  0  0  0  0  0  0  0
   30.1270   27.1470   49.2490 H   0  0  0  0  0  0  0  0  0  0  0  0
   28.6240   29.1030   47.1520 C   0  0  0  0  0  0  0  0  0  0  0  0
   29.5180   28.1390   46.7340 C   0  0  0  0  0  0  0  0  0  0  0  0
   29.1540   27.2340   45.7560 C   0  0  0  0  0  0  0  0  0  0  0  0
   29.8800   26.4900   45.4520 H   0  0  0  0  0  0  0  0  0  0  0  0
   27.8940   27.2820   45.1830 C   0  0  0  0  0  0  0  0  0  0  0  0
   26.9640   28.2450   45.5810 C   0  0  0  0  0  0  0  0  0  0  0  0
   27.3640   29.1440   46.5730 C   0  0  0  0  0  0  0  0  0  0  0  0
   25.7790   28.0840   44.8590 O   0  0  0  0  0  0  0  0  0  0  0  0
   26.1580   27.2670   43.7430 C   0  0  0  0  0  0  0  0  0  0  0  0
   25.2910   26.6450   43.4620 H   0  0  0  0  0  0  0  0  0  0  0  0
   27.2680   26.5190   44.2020 O   0  0  0  0  0  0  0  0  0  0  0  0
   34.3440   28.7370   47.9110 C   0  0  0  0  0  0  0  0  0  0  0  0
   34.8430   28.2880   47.0290 H   0  0  0  0  0  0  0  0  0  0  0  0
   34.3950   29.8390   47.9050 H   0  0  0  0  0  0  0  0  0  0  0  0
   34.9320   28.2510   49.2120 C   0  0  0  0  0  0  0  0  0  0  0  0
   35.3320   27.2280   49.1020 H   0  0  0  0  0  0  0  0  0  0  0  0
   34.1720   28.3190   50.0200 H   0  0  0  0  0  0  0  0  0  0  0  0
   37.3020   30.2140   51.2840 C   0  0  0  0  0  0  0  0  0  0  0  0
   38.0940   30.8450   50.3000 C   0  0  0  0  0  0  0  0  0  0  0  0
   37.8030   30.5870   48.9580 C   0  0  0  0  0  0  0  0  0  0  0  0
   36.7830   29.7510   48.6560 N   0  0  0  0  0  0  0  0  0  0  0  0
   36.0470   29.1660   49.6320 C   0  0  0  0  0  0  0  0  0  0  0  0
   36.3090   29.4000   50.9070 N   0  0  0  0  0  0  0  0  0  0  0  0
   37.4290   30.3350   52.3520 H   0  0  0  0  0  0  0  0  0  0  0  0
   38.8850   31.4940   50.6520 H   0  0  0  0  0  0  0  0  0  0  0  0
   38.4160   31.0740   48.2110 H   0  0  0  0  0  0  0  0  0  0  0  0
  1  2  1  0  0  0  0
  2  6  1  0  0  0  0
  3  2  2  0  0  0  0
  3  7  1  0  0  0  0
  4  3  1  0  0  0  0
  5  4  1  0  0  0  0
  5  1  2  0  0  0  0
  9  8  1  0  0  0  0
  9  4  1  0  0  0  0
 10  9  2  0  0  0  0
 11 10  1  0  0  0  0
 12 13  2  0  0  0  0
 12 10  1  0  0  0  0
 13 14  1  0  0  0  0
 14  8  2  0  0  0  0
 15 13  1  0  0  0  0
 16 18  1  0  0  0  0
 16 15  1  0  0  0  0
 17 16  1  0  0  0  0
 18 12  1  0  0  0  0
 19  1  1  0  0  0  0
 19 22  1  0  0  0  0
 20 19  1  0  0  0  0
 21 19  1  0  0  0  0
 22 29  1  0  0  0  0
 22 24  1  0  0  0  0
 23 22  1  0  0  0  0
 25 31  1  0  0  0  0
 26 32  1  0  0  0  0
 26 25  2  0  0  0  0
 27 26  1  0  0  0  0
 28 27  2  0  0  0  0
 28 29  1  0  0  0  0
 29 30  2  0  0  0  0
 30 25  1  0  0  0  0
 33 27  1  0  0  0  0
M  END
>  <minimizedAffinity>
-5.30121565

>  <minimizedRMSD>
1.23164058

$$$$
