
     RDKit          3D

 36 39  0  0  0  0  0  0  0  0999 V2000
   34.6681   28.2926   49.5699 C   0  0  0  0  0  0  0  0  0  0  0  0
   37.2886   30.1815   51.3937 C   0  0  0  0  0  0  0  0  0  0  0  0
   38.0704   30.6911   50.3352 C   0  0  0  0  0  0  0  0  0  0  0  0
   37.6871   30.3798   49.0280 C   0  0  0  0  0  0  0  0  0  0  0  0
   36.5920   29.6095   48.8295 N   0  0  0  0  0  0  0  0  0  0  0  0
   35.8696   29.1408   49.8758 C   0  0  0  0  0  0  0  0  0  0  0  0
   36.2185   29.4260   51.1193 N   0  0  0  0  0  0  0  0  0  0  0  0
   34.4344   28.2680   48.0800 C   0  0  0  0  0  0  0  0  0  0  0  0
   32.9514   28.2614   47.8964 C   0  0  0  0  0  0  0  0  0  0  0  0
   32.0094   27.5905   48.6550 C   0  0  0  0  0  0  0  0  0  0  0  0
   30.7424   27.8517   48.1476 C   0  0  0  0  0  0  0  0  0  0  0  0
   30.9576   28.6831   47.0840 N   0  0  0  0  0  0  0  0  0  0  0  0
   32.2586   28.9101   46.9546 N   0  0  0  0  0  0  0  0  0  0  0  0
   34.8441   27.2734   49.9544 H   0  0  0  0  0  0  0  0  0  0  0  0
   33.8162   28.7908   50.0790 H   0  0  0  0  0  0  0  0  0  0  0  0
   37.4833   30.3527   52.4447 H   0  0  0  0  0  0  0  0  0  0  0  0
   38.9248   31.2962   50.6057 H   0  0  0  0  0  0  0  0  0  0  0  0
   38.2921   30.7747   48.2223 H   0  0  0  0  0  0  0  0  0  0  0  0
   34.9039   27.3896   47.5943 H   0  0  0  0  0  0  0  0  0  0  0  0
   34.7983   29.2218   47.6633 H   0  0  0  0  0  0  0  0  0  0  0  0
   32.2316   26.9641   49.5063 H   0  0  0  0  0  0  0  0  0  0  0  0
   29.8311   27.4454   48.5629 H   0  0  0  0  0  0  0  0  0  0  0  0
   29.0990   30.1582   46.9237 C   0  0  0  0  0  0  0  0  0  0  0  0
   29.8147   29.1232   46.3578 C   0  0  0  0  0  0  0  0  0  0  0  0
   29.4099   28.5769   45.1567 C   0  0  0  0  0  0  0  0  0  0  0  0
   29.9952   27.7653   44.7405 H   0  0  0  0  0  0  0  0  0  0  0  0
   28.2858   29.0560   44.5046 C   0  0  0  0  0  0  0  0  0  0  0  0
   27.5373   30.1025   45.0480 C   0  0  0  0  0  0  0  0  0  0  0  0
   27.9740   30.6330   46.2648 C   0  0  0  0  0  0  0  0  0  0  0  0
   26.4616   30.4001   44.2078 O   0  0  0  0  0  0  0  0  0  0  0  0
   26.8130   29.7853   42.9602 C   0  0  1  0  0  0  0  0  0  0  0  0
   25.8822   29.4718   42.4575 H   0  0  0  0  0  0  0  0  0  0  0  0
   27.6584   28.7080   43.3133 O   0  0  0  0  0  0  0  0  0  0  0  0
   29.3945   30.6074   47.8682 H   0  0  0  0  0  0  0  0  0  0  0  0
   27.4074   31.4506   46.7104 H   0  0  0  0  0  0  0  0  0  0  0  0
   27.4223   30.4724   42.3385 H   0  0  0  0  0  0  0  0  0  0  0  0
  1  6  1  0
  3  2  2  0
  4  3  1  0
  5  4  2  0
  5  6  1  0
  6  7  2  0
  7  2  1  0
  8  1  1  0
  9  8  1  0
  9 10  1  0
 11 10  2  0
 12 11  1  0
 13 12  1  0
 13  9  2  0
  1 14  1  0
  1 15  1  0
  2 16  1  0
  3 17  1  0
  4 18  1  0
  8 19  1  0
  8 20  1  0
 10 21  1  0
 11 22  1  0
 23 24  2  0
 24 25  1  0
 25 26  1  0
 25 27  2  0
 27 28  1  0
 28 29  2  0
 28 30  1  0
 30 31  1  0
 31 32  1  6
 31 33  1  0
 29 23  1  0
 33 27  1  0
 23 34  1  0
 29 35  1  0
 31 36  1  0
 12 24  1  0
M  ISO  8  14   8  15   8  16  14  17  14  18  14  19   8  20   8  21  14
M  ISO  3  22  14  26  16  32   8
M  END
>  <DihAtoms>  (1) 
10,11,23,22

>  <DihDeg>  (1) 
-100.52247960229347

$$$$
