
 OpenBabel03272501563D

 33 36  0  0  0  0  0  0  0  0999 V2000
   32.9240   28.2000   47.8540 C   0  0  0  0  0  0  0  0  0  0  0  0
   31.9970   27.4420   48.5460 C   0  0  0  0  0  0  0  0  0  0  0  0
   30.7250   27.7210   48.0620 C   0  0  0  0  0  0  0  0  0  0  0  0
   30.9220   28.6490   47.0780 N   0  0  0  0  0  0  0  0  0  0  0  0
   32.2180   28.9160   46.9740 N   0  0  0  0  0  0  0  0  0  0  0  0
   32.2330   26.7460   49.3380 H   0  0  0  0  0  0  0  0  0  0  0  0
   29.8230   27.2580   48.4360 H   0  0  0  0  0  0  0  0  0  0  0  0
   28.6140   29.2190   47.1400 C   0  0  0  0  0  3  0  0  0  0  0  0
   29.7700   29.1280   46.3930 C   0  0  0  0  0  0  0  0  0  0  0  0
   29.7640   29.4910   45.0610 C   0  0  0  0  0  0  0  0  0  0  0  0
   30.6890   29.4080   44.5030 H   0  0  0  0  0  0  0  0  0  0  0  0
   28.6040   29.9490   44.4570 C   0  0  0  0  0  0  0  0  0  0  0  0
   27.4160   30.0540   45.1830 C   0  0  0  0  0  0  0  0  0  0  0  0
   27.4560   29.6790   46.5290 C   0  0  0  0  0  3  0  0  0  0  0  0
   26.3980   30.5370   44.3570 O   0  0  0  0  0  0  0  0  0  0  0  0
   27.0950   31.0980   43.2360 C   0  0  0  0  0  3  0  0  0  0  0  0
   26.4590   30.9820   42.3430 H   0  0  0  0  0  0  0  0  0  0  0  0
   28.3080   30.3750   43.1670 O   0  0  0  0  0  0  0  0  0  0  0  0
   34.4060   28.2230   48.0410 C   0  0  0  0  0  0  0  0  0  0  0  0
   34.8860   27.3430   47.5680 H   0  0  0  0  0  0  0  0  0  0  0  0
   34.7630   29.1750   47.6120 H   0  0  0  0  0  0  0  0  0  0  0  0
   34.6360   28.2690   49.5310 C   0  0  0  0  0  0  0  0  0  0  0  0
   34.8100   27.2550   49.9300 H   0  0  0  0  0  0  0  0  0  0  0  0
   33.7840   28.7760   50.0300 H   0  0  0  0  0  0  0  0  0  0  0  0
   37.2580   30.1760   51.3350 C   0  0  0  0  0  0  0  0  0  0  0  0
   38.0380   30.6760   50.2700 C   0  0  0  0  0  0  0  0  0  0  0  0
   37.6540   30.3520   48.9660 C   0  0  0  0  0  0  0  0  0  0  0  0
   36.5590   29.5800   48.7770 N   0  0  0  0  0  0  0  0  0  0  0  0
   35.8380   29.1210   49.8280 C   0  0  0  0  0  0  0  0  0  0  0  0
   36.1870   29.4180   51.0680 N   0  0  0  0  0  0  0  0  0  0  0  0
   37.4530   30.3580   52.3840 H   0  0  0  0  0  0  0  0  0  0  0  0
   38.8930   31.2830   50.5350 H   0  0  0  0  0  0  0  0  0  0  0  0
   38.2590   30.7390   48.1560 H   0  0  0  0  0  0  0  0  0  0  0  0
  1 19  1  0  0  0  0
  1  2  1  0  0  0  0
  2  6  1  0  0  0  0
  3  7  1  0  0  0  0
  3  2  2  0  0  0  0
  4  3  1  0  0  0  0
  5  4  1  0  0  0  0
  5  1  2  0  0  0  0
  9  4  1  0  0  0  0
  9  8  2  0  0  0  0
 10  9  1  0  0  0  0
 11 10  1  0  0  0  0
 12 10  2  0  0  0  0
 12 13  1  0  0  0  0
 13 14  2  0  0  0  0
 14  8  1  0  0  0  0
 15 13  1  0  0  0  0
 16 15  1  0  0  0  0
 17 16  1  0  0  0  0
 18 16  1  0  0  0  0
 18 12  1  0  0  0  0
 19 22  1  0  0  0  0
 20 19  1  0  0  0  0
 21 19  1  0  0  0  0
 22 29  1  0  0  0  0
 22 23  1  0  0  0  0
 22 24  1  0  0  0  0
 25 31  1  0  0  0  0
 26 32  1  0  0  0  0
 26 25  2  0  0  0  0
 27 26  1  0  0  0  0
 28 27  2  0  0  0  0
 28 29  1  0  0  0  0
 29 30  2  0  0  0  0
 30 25  1  0  0  0  0
 33 27  1  0  0  0  0
M  END
>  <minimizedAffinity>
-5.22875404

>  <minimizedRMSD>
0.141950294

$$$$
