
 OpenBabel03272501563D

 33 36  0  0  0  0  0  0  0  0999 V2000
   32.9360   28.2300   47.8500 C   0  0  0  0  0  0  0  0  0  0  0  0
   32.0290   27.5000   48.5960 C   0  0  0  0  0  0  0  0  0  0  0  0
   30.7480   27.7260   48.1090 C   0  0  0  0  0  0  0  0  0  0  0  0
   30.9200   28.5970   47.0690 N   0  0  0  0  0  0  0  0  0  0  0  0
   32.2100   28.8800   46.9360 N   0  0  0  0  0  0  0  0  0  0  0  0
   32.2860   26.8570   49.4260 H   0  0  0  0  0  0  0  0  0  0  0  0
   29.8580   27.2710   48.5190 H   0  0  0  0  0  0  0  0  0  0  0  0
   28.6340   29.2500   47.1390 C   0  0  0  0  0  3  0  0  0  0  0  0
   29.7540   29.0130   46.3670 C   0  0  0  0  0  0  0  0  0  0  0  0
   29.6990   29.1840   44.9980 C   0  0  0  0  0  0  0  0  0  0  0  0
   30.5970   28.9900   44.4230 H   0  0  0  0  0  0  0  0  0  0  0  0
   28.5280   29.5920   44.3820 C   0  0  0  0  0  0  0  0  0  0  0  0
   27.3760   29.8390   45.1310 C   0  0  0  0  0  0  0  0  0  0  0  0
   27.4640   29.6570   46.5130 C   0  0  0  0  0  3  0  0  0  0  0  0
   26.3380   30.2350   44.2840 O   0  0  0  0  0  0  0  0  0  0  0  0
   27.0020   30.6070   43.0680 C   0  0  0  0  0  3  0  0  0  0  0  0
   26.3240   30.3870   42.2250 H   0  0  0  0  0  0  0  0  0  0  0  0
   28.1900   29.8400   43.0560 O   0  0  0  0  0  0  0  0  0  0  0  0
   34.4200   28.2910   48.0210 C   0  0  0  0  0  0  0  0  0  0  0  0
   34.9200   27.4500   47.5010 H   0  0  0  0  0  0  0  0  0  0  0  0
   34.7410   29.2720   47.6340 H   0  0  0  0  0  0  0  0  0  0  0  0
   34.6680   28.2750   49.5090 C   0  0  0  0  0  0  0  0  0  0  0  0
   34.8600   27.2460   49.8610 H   0  0  0  0  0  0  0  0  0  0  0  0
   33.8150   28.7470   50.0400 H   0  0  0  0  0  0  0  0  0  0  0  0
   37.2600   30.1720   51.3630 C   0  0  0  0  0  0  0  0  0  0  0  0
   38.0500   30.6880   50.3130 C   0  0  0  0  0  0  0  0  0  0  0  0
   37.6820   30.3770   49.0020 C   0  0  0  0  0  0  0  0  0  0  0  0
   36.5930   29.6020   48.7910 N   0  0  0  0  0  0  0  0  0  0  0  0
   35.8620   29.1280   49.8290 C   0  0  0  0  0  0  0  0  0  0  0  0
   36.1960   29.4120   51.0760 N   0  0  0  0  0  0  0  0  0  0  0  0
   37.4430   30.3430   52.4170 H   0  0  0  0  0  0  0  0  0  0  0  0
   38.8990   31.2960   50.5940 H   0  0  0  0  0  0  0  0  0  0  0  0
   38.2940   30.7760   48.2030 H   0  0  0  0  0  0  0  0  0  0  0  0
  1 19  1  0  0  0  0
  1  2  1  0  0  0  0
  2  6  1  0  0  0  0
  3  7  1  0  0  0  0
  3  2  2  0  0  0  0
  4  3  1  0  0  0  0
  5  4  1  0  0  0  0
  5  1  2  0  0  0  0
  9  4  1  0  0  0  0
  9  8  2  0  0  0  0
 10  9  1  0  0  0  0
 11 10  1  0  0  0  0
 12 10  2  0  0  0  0
 12 13  1  0  0  0  0
 13 14  2  0  0  0  0
 14  8  1  0  0  0  0
 15 13  1  0  0  0  0
 16 15  1  0  0  0  0
 17 16  1  0  0  0  0
 18 16  1  0  0  0  0
 18 12  1  0  0  0  0
 19 22  1  0  0  0  0
 20 19  1  0  0  0  0
 21 19  1  0  0  0  0
 22 29  1  0  0  0  0
 22 23  1  0  0  0  0
 22 24  1  0  0  0  0
 25 31  1  0  0  0  0
 26 32  1  0  0  0  0
 26 25  2  0  0  0  0
 27 26  1  0  0  0  0
 28 27  2  0  0  0  0
 28 29  1  0  0  0  0
 29 30  2  0  0  0  0
 30 25  1  0  0  0  0
 33 27  1  0  0  0  0
M  END
>  <minimizedAffinity>
-5.23312759

>  <minimizedRMSD>
0.143035814

$$$$
