
 OpenBabel03272501593D

 33 36  0  0  0  0  0  0  0  0999 V2000
   37.8230   27.0190   33.9740 C   0  0  0  0  0  0  0  0  0  0  0  0
   37.2370   27.3440   32.7640 C   0  0  0  0  0  0  0  0  0  0  0  0
   36.3170   28.3660   32.9620 C   0  0  0  0  0  0  0  0  0  0  0  0
   36.3750   28.6330   34.3020 N   0  0  0  0  0  0  0  0  0  0  0  0
   37.2630   27.8310   34.8750 N   0  0  0  0  0  0  0  0  0  0  0  0
   37.4650   26.8720   31.8200 H   0  0  0  0  0  0  0  0  0  0  0  0
   35.7240   28.8040   32.1720 H   0  0  0  0  0  0  0  0  0  0  0  0
   34.1910   29.5600   34.4540 C   0  0  0  0  0  3  0  0  0  0  0  0
   35.5220   29.6580   34.8000 C   0  0  0  0  0  0  0  0  0  0  0  0
   35.9580   30.7070   35.5850 C   0  0  0  0  0  0  0  0  0  0  0  0
   37.0110   30.7540   35.8380 H   0  0  0  0  0  0  0  0  0  0  0  0
   35.0710   31.6700   36.0350 C   0  0  0  0  0  0  0  0  0  0  0  0
   33.7160   31.6020   35.7050 C   0  0  0  0  0  0  0  0  0  0  0  0
   33.3070   30.5290   34.9090 C   0  0  0  0  0  3  0  0  0  0  0  0
   33.0350   32.6810   36.2760 O   0  0  0  0  0  0  0  0  0  0  0  0
   33.9340   33.1680   37.2810 C   0  0  0  0  0  3  0  0  0  0  0  0
   33.7870   34.2570   37.3770 H   0  0  0  0  0  0  0  0  0  0  0  0
   35.2230   32.8080   36.8200 O   0  0  0  0  0  0  0  0  0  0  0  0
   38.8640   25.9780   34.2330 C   0  0  0  0  0  0  0  0  0  0  0  0
   39.5730   25.8980   33.3860 H   0  0  0  0  0  0  0  0  0  0  0  0
   39.3660   26.2620   35.1740 H   0  0  0  0  0  0  0  0  0  0  0  0
   38.1140   24.6920   34.4780 C   0  0  0  0  0  0  0  0  0  0  0  0
   38.3930   23.9300   33.7300 H   0  0  0  0  0  0  0  0  0  0  0  0
   37.0210   24.8870   34.4890 H   0  0  0  0  0  0  0  0  0  0  0  0
   39.7500   22.8780   37.2690 C   0  0  0  0  0  0  0  0  0  0  0  0
   38.9660   23.2740   38.3730 C   0  0  0  0  0  0  0  0  0  0  0  0
   37.9010   24.1490   38.1420 C   0  0  0  0  0  0  0  0  0  0  0  0
   37.6650   24.5770   36.8800 N   0  0  0  0  0  0  0  0  0  0  0  0
   38.4440   24.1700   35.8480 C   0  0  0  0  0  0  0  0  0  0  0  0
   39.4550   23.3430   36.0490 N   0  0  0  0  0  0  0  0  0  0  0  0
   40.5970   22.2060   37.3210 H   0  0  0  0  0  0  0  0  0  0  0  0
   39.2420   22.8720   39.3390 H   0  0  0  0  0  0  0  0  0  0  0  0
   37.3050   24.4480   38.9940 H   0  0  0  0  0  0  0  0  0  0  0  0
  1 19  1  0  0  0  0
  1  5  2  0  0  0  0
  2  3  2  0  0  0  0
  2  1  1  0  0  0  0
  3  4  1  0  0  0  0
  4  9  1  0  0  0  0
  4  5  1  0  0  0  0
  6  2  1  0  0  0  0
  7  3  1  0  0  0  0
  8  9  2  0  0  0  0
  8 14  1  0  0  0  0
  9 10  1  0  0  0  0
 10 11  1  0  0  0  0
 10 12  2  0  0  0  0
 12 18  1  0  0  0  0
 13 12  1  0  0  0  0
 13 15  1  0  0  0  0
 14 13  2  0  0  0  0
 15 16  1  0  0  0  0
 16 17  1  0  0  0  0
 18 16  1  0  0  0  0
 19 22  1  0  0  0  0
 19 21  1  0  0  0  0
 20 19  1  0  0  0  0
 22 24  1  0  0  0  0
 22 29  1  0  0  0  0
 23 22  1  0  0  0  0
 25 31  1  0  0  0  0
 25 26  1  0  0  0  0
 26 32  1  0  0  0  0
 27 26  2  0  0  0  0
 27 33  1  0  0  0  0
 28 27  1  0  0  0  0
 29 30  1  0  0  0  0
 29 28  2  0  0  0  0
 30 25  2  0  0  0  0
M  END
>  <minimizedAffinity>
-5.30892992

$$$$

 OpenBabel03272501593D

 33 36  0  0  0  0  0  0  0  0999 V2000
   37.0880   27.2150   34.0840 C   0  0  0  0  0  0  0  0  0  0  0  0
   37.5420   27.9150   35.1870 C   0  0  0  0  0  0  0  0  0  0  0  0
   38.2850   27.0640   35.9950 C   0  0  0  0  0  0  0  0  0  0  0  0
   38.2590   25.8590   35.3490 N   0  0  0  0  0  0  0  0  0  0  0  0
   37.5520   25.9710   34.2310 N   0  0  0  0  0  0  0  0  0  0  0  0
   37.3440   28.9590   35.3820 H   0  0  0  0  0  0  0  0  0  0  0  0
   38.7530   27.3670   36.9210 H   0  0  0  0  0  0  0  0  0  0  0  0
   38.3710   24.2430   37.0900 C   0  0  0  0  0  3  0  0  0  0  0  0
   38.9530   24.7770   35.9590 C   0  0  0  0  0  0  0  0  0  0  0  0
   40.1420   24.2580   35.4820 C   0  0  0  0  0  0  0  0  0  0  0  0
   40.5720   24.7010   34.5920 H   0  0  0  0  0  0  0  0  0  0  0  0
   40.7620   23.2020   36.1280 C   0  0  0  0  0  0  0  0  0  0  0  0
   40.2000   22.6380   37.2750 C   0  0  0  0  0  0  0  0  0  0  0  0
   38.9980   23.1850   37.7320 C   0  0  0  0  0  3  0  0  0  0  0  0
   41.0100   21.5960   37.7350 O   0  0  0  0  0  0  0  0  0  0  0  0
   41.8510   21.2880   36.6140 C   0  0  0  0  0  3  0  0  0  0  0  0
   42.8230   20.9370   37.0000 H   0  0  0  0  0  0  0  0  0  0  0  0
   41.9340   22.4950   35.8810 O   0  0  0  0  0  0  0  0  0  0  0  0
   36.2520   27.7300   32.9570 C   0  0  0  0  0  0  0  0  0  0  0  0
   36.7620   27.5920   31.9820 H   0  0  0  0  0  0  0  0  0  0  0  0
   35.2910   27.1920   33.0070 H   0  0  0  0  0  0  0  0  0  0  0  0
   35.9880   29.1830   33.2650 C   0  0  0  0  0  0  0  0  0  0  0  0
   36.2100   29.8140   32.3870 H   0  0  0  0  0  0  0  0  0  0  0  0
   36.5680   29.4920   34.1600 H   0  0  0  0  0  0  0  0  0  0  0  0
   32.9030   29.9480   35.1770 C   0  0  0  0  0  0  0  0  0  0  0  0
   31.8960   29.6590   34.2310 C   0  0  0  0  0  0  0  0  0  0  0  0
   32.2910   29.2130   32.9670 C   0  0  0  0  0  0  0  0  0  0  0  0
   33.6100   29.0750   32.7020 N   0  0  0  0  0  0  0  0  0  0  0  0
   34.5450   29.3630   33.6400 C   0  0  0  0  0  0  0  0  0  0  0  0
   34.1890   29.7860   34.8410 N   0  0  0  0  0  0  0  0  0  0  0  0
   32.7230   30.2980   36.1850 H   0  0  0  0  0  0  0  0  0  0  0  0
   30.8720   29.8050   34.5480 H   0  0  0  0  0  0  0  0  0  0  0  0
   31.5120   28.9940   32.2480 H   0  0  0  0  0  0  0  0  0  0  0  0
  1  5  2  0  0  0  0
  1  2  1  0  0  0  0
  2  6  1  0  0  0  0
  2  3  2  0  0  0  0
  3  7  1  0  0  0  0
  4  9  1  0  0  0  0
  4  3  1  0  0  0  0
  5  4  1  0  0  0  0
  8 14  1  0  0  0  0
  9  8  2  0  0  0  0
 10  9  1  0  0  0  0
 10 12  2  0  0  0  0
 11 10  1  0  0  0  0
 12 13  1  0  0  0  0
 13 14  2  0  0  0  0
 13 15  1  0  0  0  0
 16 17  1  0  0  0  0
 16 15  1  0  0  0  0
 18 12  1  0  0  0  0
 18 16  1  0  0  0  0
 19 21  1  0  0  0  0
 19 22  1  0  0  0  0
 19  1  1  0  0  0  0
 20 19  1  0  0  0  0
 22 29  1  0  0  0  0
 22 24  1  0  0  0  0
 23 22  1  0  0  0  0
 25 31  1  0  0  0  0
 26 32  1  0  0  0  0
 26 25  2  0  0  0  0
 27 26  1  0  0  0  0
 28 27  2  0  0  0  0
 28 29  1  0  0  0  0
 29 30  2  0  0  0  0
 30 25  1  0  0  0  0
 33 27  1  0  0  0  0
M  END
>  <minimizedAffinity>
-5.30549955

$$$$

 OpenBabel03272501593D

 33 36  0  0  0  0  0  0  0  0999 V2000
   38.0730   25.3630   35.8530 C   0  0  0  0  0  0  0  0  0  0  0  0
   38.3290   26.6620   36.2540 C   0  0  0  0  0  0  0  0  0  0  0  0
   38.2030   27.5120   35.1620 C   0  0  0  0  0  0  0  0  0  0  0  0
   37.8690   26.6920   34.1200 N   0  0  0  0  0  0  0  0  0  0  0  0
   37.7990   25.4370   34.5480 N   0  0  0  0  0  0  0  0  0  0  0  0
   38.5860   26.9600   37.2600 H   0  0  0  0  0  0  0  0  0  0  0  0
   38.3510   28.5810   35.2100 H   0  0  0  0  0  0  0  0  0  0  0  0
   36.6350   28.2080   32.7660 C   0  0  0  0  0  3  0  0  0  0  0  0
   37.6710   27.3010   32.8490 C   0  0  0  0  0  0  0  0  0  0  0  0
   38.4450   27.0300   31.7380 C   0  0  0  0  0  0  0  0  0  0  0  0
   39.2510   26.3120   31.8380 H   0  0  0  0  0  0  0  0  0  0  0  0
   38.1950   27.6620   30.5310 C   0  0  0  0  0  0  0  0  0  0  0  0
   37.1550   28.5860   30.4110 C   0  0  0  0  0  0  0  0  0  0  0  0
   36.3910   28.8370   31.5530 C   0  0  0  0  0  3  0  0  0  0  0  0
   37.1100   29.0790   29.1040 O   0  0  0  0  0  0  0  0  0  0  0  0
   38.3900   28.7340   28.5560 C   0  0  0  0  0  3  0  0  0  0  0  0
   38.2650   28.5550   27.4750 H   0  0  0  0  0  0  0  0  0  0  0  0
   38.7960   27.5880   29.2780 O   0  0  0  0  0  0  0  0  0  0  0  0
   38.0950   24.1280   36.6940 C   0  0  0  0  0  0  0  0  0  0  0  0
   38.6530   24.2930   37.6370 H   0  0  0  0  0  0  0  0  0  0  0  0
   37.0430   23.8500   36.8720 H   0  0  0  0  0  0  0  0  0  0  0  0
   38.7200   23.0540   35.8380 C   0  0  0  0  0  0  0  0  0  0  0  0
   39.4100   22.4320   36.4350 H   0  0  0  0  0  0  0  0  0  0  0  0
   39.2230   23.5140   34.9610 H   0  0  0  0  0  0  0  0  0  0  0  0
   36.6160   21.1320   33.4640 C   0  0  0  0  0  0  0  0  0  0  0  0
   35.6500   20.5660   34.3240 C   0  0  0  0  0  0  0  0  0  0  0  0
   35.7380   20.8520   35.6890 C   0  0  0  0  0  0  0  0  0  0  0  0
   36.7370   21.6530   36.1290 N   0  0  0  0  0  0  0  0  0  0  0  0
   37.6430   22.1750   35.2680 C   0  0  0  0  0  0  0  0  0  0  0  0
   37.5740   21.9150   33.9740 N   0  0  0  0  0  0  0  0  0  0  0  0
   36.6520   20.9850   32.3920 H   0  0  0  0  0  0  0  0  0  0  0  0
   34.8950   19.9410   33.8670 H   0  0  0  0  0  0  0  0  0  0  0  0
   34.9940   20.4140   36.3410 H   0  0  0  0  0  0  0  0  0  0  0  0
  1  2  1  0  0  0  0
  1 19  1  0  0  0  0
  2  6  1  0  0  0  0
  3  7  1  0  0  0  0
  3  2  2  0  0  0  0
  4  5  1  0  0  0  0
  4  3  1  0  0  0  0
  5  1  2  0  0  0  0
  8  9  1  0  0  0  0
  9  4  1  0  0  0  0
 10 11  1  0  0  0  0
 10  9  2  0  0  0  0
 12 10  1  0  0  0  0
 13 12  2  0  0  0  0
 13 14  1  0  0  0  0
 14  8  2  0  0  0  0
 15 13  1  0  0  0  0
 16 15  1  0  0  0  0
 16 18  1  0  0  0  0
 17 16  1  0  0  0  0
 18 12  1  0  0  0  0
 19 21  1  0  0  0  0
 19 20  1  0  0  0  0
 22 23  1  0  0  0  0
 22 19  1  0  0  0  0
 24 22  1  0  0  0  0
 25 30  2  0  0  0  0
 25 26  1  0  0  0  0
 26 27  2  0  0  0  0
 27 28  1  0  0  0  0
 27 33  1  0  0  0  0
 29 22  1  0  0  0  0
 29 28  2  0  0  0  0
 30 29  1  0  0  0  0
 31 25  1  0  0  0  0
 32 26  1  0  0  0  0
M  END
>  <minimizedAffinity>
-5.29824495

$$$$

 OpenBabel03272501593D

 33 36  0  0  0  0  0  0  0  0999 V2000
   36.6940   26.9380   32.9870 C   0  0  0  0  0  0  0  0  0  0  0  0
   36.8140   27.7680   34.0870 C   0  0  0  0  0  0  0  0  0  0  0  0
   37.4710   27.0870   35.1040 C   0  0  0  0  0  0  0  0  0  0  0  0
   37.7330   25.8510   34.5830 N   0  0  0  0  0  0  0  0  0  0  0  0
   37.2690   25.7850   33.3410 N   0  0  0  0  0  0  0  0  0  0  0  0
   36.4510   28.7830   34.1380 H   0  0  0  0  0  0  0  0  0  0  0  0
   37.6910   27.5150   36.0720 H   0  0  0  0  0  0  0  0  0  0  0  0
   37.8110   24.6390   36.6280 C   0  0  0  0  0  3  0  0  0  0  0  0
   38.4140   24.9210   35.4190 C   0  0  0  0  0  0  0  0  0  0  0  0
   39.6080   24.3140   35.0820 C   0  0  0  0  0  0  0  0  0  0  0  0
   40.0530   24.5580   34.1250 H   0  0  0  0  0  0  0  0  0  0  0  0
   40.2130   23.4180   35.9470 C   0  0  0  0  0  0  0  0  0  0  0  0
   39.6320   23.1090   37.1780 C   0  0  0  0  0  0  0  0  0  0  0  0
   38.4250   23.7410   37.4890 C   0  0  0  0  0  3  0  0  0  0  0  0
   40.4310   22.1870   37.8600 O   0  0  0  0  0  0  0  0  0  0  0  0
   41.2880   21.6490   36.8440 C   0  0  0  0  0  3  0  0  0  0  0  0
   42.2530   21.3870   37.3110 H   0  0  0  0  0  0  0  0  0  0  0  0
   41.3870   22.6740   35.8740 O   0  0  0  0  0  0  0  0  0  0  0  0
   36.0570   27.2520   31.6720 C   0  0  0  0  0  0  0  0  0  0  0  0
   36.6900   26.9150   30.8270 H   0  0  0  0  0  0  0  0  0  0  0  0
   35.0690   26.7620   31.6760 H   0  0  0  0  0  0  0  0  0  0  0  0
   35.8350   28.7440   31.6640 C   0  0  0  0  0  0  0  0  0  0  0  0
   36.2480   29.2050   32.5780 H   0  0  0  0  0  0  0  0  0  0  0  0
   34.7540   28.9660   31.5340 H   0  0  0  0  0  0  0  0  0  0  0  0
   37.1240   31.1920   29.1920 C   0  0  0  0  0  0  0  0  0  0  0  0
   37.7740   30.3520   28.2630 C   0  0  0  0  0  0  0  0  0  0  0  0
   37.7580   28.9750   28.4990 C   0  0  0  0  0  0  0  0  0  0  0  0
   37.1250   28.5050   29.6000 N   0  0  0  0  0  0  0  0  0  0  0  0
   36.5140   29.3470   30.4670 C   0  0  0  0  0  0  0  0  0  0  0  0
   36.5190   30.6520   30.2580 N   0  0  0  0  0  0  0  0  0  0  0  0
   37.0680   32.2700   29.1180 H   0  0  0  0  0  0  0  0  0  0  0  0
   38.2480   30.8330   27.4180 H   0  0  0  0  0  0  0  0  0  0  0  0
   38.2590   28.3380   27.7820 H   0  0  0  0  0  0  0  0  0  0  0  0
  1  5  2  0  0  0  0
  1  2  1  0  0  0  0
  2  6  1  0  0  0  0
  2  3  2  0  0  0  0
  3  7  1  0  0  0  0
  4  3  1  0  0  0  0
  4  9  1  0  0  0  0
  5  4  1  0  0  0  0
  8 14  1  0  0  0  0
  9  8  2  0  0  0  0
 10  9  1  0  0  0  0
 10 12  2  0  0  0  0
 11 10  1  0  0  0  0
 12 13  1  0  0  0  0
 13 14  2  0  0  0  0
 13 15  1  0  0  0  0
 16 17  1  0  0  0  0
 16 15  1  0  0  0  0
 18 12  1  0  0  0  0
 18 16  1  0  0  0  0
 19 21  1  0  0  0  0
 19  1  1  0  0  0  0
 20 19  1  0  0  0  0
 22 19  1  0  0  0  0
 22 23  1  0  0  0  0
 24 22  1  0  0  0  0
 25 30  1  0  0  0  0
 26 27  1  0  0  0  0
 26 25  2  0  0  0  0
 27 28  2  0  0  0  0
 28 29  1  0  0  0  0
 29 22  1  0  0  0  0
 30 29  2  0  0  0  0
 31 25  1  0  0  0  0
 32 26  1  0  0  0  0
 33 27  1  0  0  0  0
M  END
>  <minimizedAffinity>
-5.29038954

$$$$

 OpenBabel03272501593D

 33 36  0  0  0  0  0  0  0  0999 V2000
   36.2730   28.7000   33.1830 C   0  0  0  0  0  0  0  0  0  0  0  0
   36.8590   28.0890   32.0890 C   0  0  0  0  0  0  0  0  0  0  0  0
   37.4560   26.9010   32.4920 C   0  0  0  0  0  0  0  0  0  0  0  0
   37.2090   26.8270   33.8350 N   0  0  0  0  0  0  0  0  0  0  0  0
   36.5150   27.8910   34.2180 N   0  0  0  0  0  0  0  0  0  0  0  0
   36.8510   28.4820   31.0830 H   0  0  0  0  0  0  0  0  0  0  0  0
   37.9830   26.2340   31.8250 H   0  0  0  0  0  0  0  0  0  0  0  0
   38.1510   24.6450   33.7410 C   0  0  0  0  0  3  0  0  0  0  0  0
   37.7130   25.6900   34.5280 C   0  0  0  0  0  0  0  0  0  0  0  0
   37.7780   25.5950   35.9050 C   0  0  0  0  0  0  0  0  0  0  0  0
   37.4250   26.4340   36.4920 H   0  0  0  0  0  0  0  0  0  0  0  0
   38.2820   24.4560   36.5110 C   0  0  0  0  0  0  0  0  0  0  0  0
   38.7340   23.3800   35.7460 C   0  0  0  0  0  0  0  0  0  0  0  0
   38.6540   23.5080   34.3570 C   0  0  0  0  0  3  0  0  0  0  0  0
   39.1900   22.3610   36.5860 O   0  0  0  0  0  0  0  0  0  0  0  0
   39.3750   23.0090   37.8520 C   0  0  0  0  0  3  0  0  0  0  0  0
   39.1770   22.2720   38.6490 H   0  0  0  0  0  0  0  0  0  0  0  0
   38.4630   24.0910   37.8410 O   0  0  0  0  0  0  0  0  0  0  0  0
   35.5240   29.9920   33.2140 C   0  0  0  0  0  0  0  0  0  0  0  0
   36.0900   30.7730   33.7600 H   0  0  0  0  0  0  0  0  0  0  0  0
   35.3340   30.2710   32.1640 H   0  0  0  0  0  0  0  0  0  0  0  0
   34.1960   29.6880   33.8610 C   0  0  0  0  0  0  0  0  0  0  0  0
   34.1300   28.6200   34.1320 H   0  0  0  0  0  0  0  0  0  0  0  0
   33.3670   30.0010   33.1910 H   0  0  0  0  0  0  0  0  0  0  0  0
   32.7760   31.2560   36.9080 C   0  0  0  0  0  0  0  0  0  0  0  0
   33.8520   32.0520   37.3540 C   0  0  0  0  0  0  0  0  0  0  0  0
   35.0340   32.0360   36.6080 C   0  0  0  0  0  0  0  0  0  0  0  0
   35.0990   31.2650   35.4980 N   0  0  0  0  0  0  0  0  0  0  0  0
   34.0410   30.5160   35.1050 C   0  0  0  0  0  0  0  0  0  0  0  0
   32.9160   30.5200   35.7980 N   0  0  0  0  0  0  0  0  0  0  0  0
   31.8130   31.1870   37.3980 H   0  0  0  0  0  0  0  0  0  0  0  0
   33.6930   32.6300   38.2540 H   0  0  0  0  0  0  0  0  0  0  0  0
   35.8550   32.6490   36.9580 H   0  0  0  0  0  0  0  0  0  0  0  0
  1 19  1  0  0  0  0
  1  5  2  0  0  0  0
  2  3  2  0  0  0  0
  2  1  1  0  0  0  0
  3  4  1  0  0  0  0
  4  5  1  0  0  0  0
  4  9  1  0  0  0  0
  6  2  1  0  0  0  0
  7  3  1  0  0  0  0
  8 14  2  0  0  0  0
  8  9  1  0  0  0  0
  9 10  2  0  0  0  0
 10 11  1  0  0  0  0
 10 12  1  0  0  0  0
 12 18  1  0  0  0  0
 13 12  2  0  0  0  0
 13 15  1  0  0  0  0
 14 13  1  0  0  0  0
 15 16  1  0  0  0  0
 16 17  1  0  0  0  0
 18 16  1  0  0  0  0
 19 20  1  0  0  0  0
 19 22  1  0  0  0  0
 21 19  1  0  0  0  0
 22 23  1  0  0  0  0
 22 29  1  0  0  0  0
 24 22  1  0  0  0  0
 25 26  1  0  0  0  0
 25 31  1  0  0  0  0
 26 32  1  0  0  0  0
 27 33  1  0  0  0  0
 27 26  2  0  0  0  0
 28 27  1  0  0  0  0
 29 28  2  0  0  0  0
 29 30  1  0  0  0  0
 30 25  2  0  0  0  0
M  END
>  <minimizedAffinity>
-5.26887226

$$$$

 OpenBabel03272501593D

 33 36  0  0  0  0  0  0  0  0999 V2000
   37.0660   27.6730   33.3630 C   0  0  0  0  0  0  0  0  0  0  0  0
   36.5230   28.4060   32.3230 C   0  0  0  0  0  0  0  0  0  0  0  0
   35.7480   29.4350   32.8450 C   0  0  0  0  0  0  0  0  0  0  0  0
   35.8480   29.2930   34.2010 N   0  0  0  0  0  0  0  0  0  0  0  0
   36.6240   28.2540   34.4820 N   0  0  0  0  0  0  0  0  0  0  0  0
   36.6810   28.2030   31.2750 H   0  0  0  0  0  0  0  0  0  0  0  0
   35.2150   30.1540   32.2390 H   0  0  0  0  0  0  0  0  0  0  0  0
   35.9130   31.1640   35.6680 C   0  0  0  0  0  3  0  0  0  0  0  0
   35.1420   30.2300   35.0080 C   0  0  0  0  0  0  0  0  0  0  0  0
   33.7680   30.2410   35.1510 C   0  0  0  0  0  0  0  0  0  0  0  0
   33.1930   29.4930   34.6180 H   0  0  0  0  0  0  0  0  0  0  0  0
   33.1480   31.1830   35.9540 C   0  0  0  0  0  0  0  0  0  0  0  0
   33.8980   32.1430   36.6370 C   0  0  0  0  0  0  0  0  0  0  0  0
   35.2850   32.1050   36.4710 C   0  0  0  0  0  3  0  0  0  0  0  0
   33.0470   32.9730   37.3720 O   0  0  0  0  0  0  0  0  0  0  0  0
   31.7530   32.7410   36.7980 C   0  0  0  0  0  3  0  0  0  0  0  0
   30.9970   32.8650   37.5920 H   0  0  0  0  0  0  0  0  0  0  0  0
   31.8170   31.4280   36.2760 O   0  0  0  0  0  0  0  0  0  0  0  0
   37.9600   26.4790   33.2690 C   0  0  0  0  0  0  0  0  0  0  0  0
   37.3780   25.5540   33.0880 H   0  0  0  0  0  0  0  0  0  0  0  0
   38.6780   26.6880   32.4580 H   0  0  0  0  0  0  0  0  0  0  0  0
   38.7270   26.4300   34.5670 C   0  0  0  0  0  0  0  0  0  0  0  0
   38.4720   27.2960   35.2030 H   0  0  0  0  0  0  0  0  0  0  0  0
   39.8160   26.3680   34.3610 H   0  0  0  0  0  0  0  0  0  0  0  0
   38.0330   22.8710   35.3500 C   0  0  0  0  0  0  0  0  0  0  0  0
   37.7510   22.9270   36.7320 C   0  0  0  0  0  0  0  0  0  0  0  0
   37.8050   24.1720   37.3630 C   0  0  0  0  0  0  0  0  0  0  0  0
   38.1210   25.2660   36.6310 N   0  0  0  0  0  0  0  0  0  0  0  0
   38.3840   25.1680   35.3060 C   0  0  0  0  0  0  0  0  0  0  0  0
   38.3380   23.9980   34.6930 N   0  0  0  0  0  0  0  0  0  0  0  0
   38.0220   21.9690   34.7520 H   0  0  0  0  0  0  0  0  0  0  0  0
   37.5100   21.9920   37.2190 H   0  0  0  0  0  0  0  0  0  0  0  0
   37.5880   24.2060   38.4230 H   0  0  0  0  0  0  0  0  0  0  0  0
  1  5  2  0  0  0  0
  2  3  2  0  0  0  0
  2  1  1  0  0  0  0
  3  4  1  0  0  0  0
  4  5  1  0  0  0  0
  4  9  1  0  0  0  0
  6  2  1  0  0  0  0
  7  3  1  0  0  0  0
  8 14  1  0  0  0  0
  9 10  1  0  0  0  0
  9  8  2  0  0  0  0
 10 12  2  0  0  0  0
 11 10  1  0  0  0  0
 12 18  1  0  0  0  0
 12 13  1  0  0  0  0
 13 15  1  0  0  0  0
 14 13  2  0  0  0  0
 16 15  1  0  0  0  0
 16 17  1  0  0  0  0
 18 16  1  0  0  0  0
 19  1  1  0  0  0  0
 19 22  1  0  0  0  0
 20 19  1  0  0  0  0
 21 19  1  0  0  0  0
 22 23  1  0  0  0  0
 22 29  1  0  0  0  0
 24 22  1  0  0  0  0
 25 26  1  0  0  0  0
 26 32  1  0  0  0  0
 26 27  2  0  0  0  0
 27 33  1  0  0  0  0
 28 27  1  0  0  0  0
 29 28  2  0  0  0  0
 30 29  1  0  0  0  0
 30 25  2  0  0  0  0
 31 25  1  0  0  0  0
M  END
>  <minimizedAffinity>
-5.21788931

$$$$

 OpenBabel03272501593D

 33 36  0  0  0  0  0  0  0  0999 V2000
   36.8840   28.1380   32.4310 C   0  0  0  0  0  0  0  0  0  0  0  0
   38.0690   27.7800   31.8130 C   0  0  0  0  0  0  0  0  0  0  0  0
   38.7080   26.8110   32.5770 C   0  0  0  0  0  0  0  0  0  0  0  0
   37.8810   26.6100   33.6470 N   0  0  0  0  0  0  0  0  0  0  0  0
   36.8190   27.3980   33.5410 N   0  0  0  0  0  0  0  0  0  0  0  0
   38.4320   28.1930   30.8840 H   0  0  0  0  0  0  0  0  0  0  0  0
   39.6550   26.3620   32.3120 H   0  0  0  0  0  0  0  0  0  0  0  0
   39.3790   24.8740   34.2770 C   0  0  0  0  0  3  0  0  0  0  0  0
   38.2900   25.6500   34.6160 C   0  0  0  0  0  0  0  0  0  0  0  0
   37.6640   25.4710   35.8340 C   0  0  0  0  0  0  0  0  0  0  0  0
   36.8120   26.0980   36.0670 H   0  0  0  0  0  0  0  0  0  0  0  0
   38.1180   24.5170   36.7280 C   0  0  0  0  0  0  0  0  0  0  0  0
   39.2170   23.7140   36.4190 C   0  0  0  0  0  0  0  0  0  0  0  0
   39.8270   23.9190   35.1790 C   0  0  0  0  0  3  0  0  0  0  0  0
   39.4750   22.8370   37.4770 O   0  0  0  0  0  0  0  0  0  0  0  0
   38.7620   23.4070   38.5830 C   0  0  0  0  0  3  0  0  0  0  0  0
   38.4320   22.5840   39.2400 H   0  0  0  0  0  0  0  0  0  0  0  0
   37.6950   24.1260   37.9950 O   0  0  0  0  0  0  0  0  0  0  0  0
   35.8800   29.1430   31.9650 C   0  0  0  0  0  0  0  0  0  0  0  0
   36.3740   30.0510   31.5660 H   0  0  0  0  0  0  0  0  0  0  0  0
   35.2580   28.6370   31.2070 H   0  0  0  0  0  0  0  0  0  0  0  0
   35.0070   29.4410   33.1580 C   0  0  0  0  0  0  0  0  0  0  0  0
   35.0310   28.6050   33.8780 H   0  0  0  0  0  0  0  0  0  0  0  0
   33.9750   29.6760   32.8230 H   0  0  0  0  0  0  0  0  0  0  0  0
   36.2540   32.8810   33.7690 C   0  0  0  0  0  0  0  0  0  0  0  0
   36.3870   32.8970   35.1740 C   0  0  0  0  0  0  0  0  0  0  0  0
   36.0490   31.7390   35.8780 C   0  0  0  0  0  0  0  0  0  0  0  0
   35.6120   30.6570   35.1930 N   0  0  0  0  0  0  0  0  0  0  0  0
   35.4990   30.6850   33.8430 C   0  0  0  0  0  0  0  0  0  0  0  0
   35.8150   31.7720   33.1610 N   0  0  0  0  0  0  0  0  0  0  0  0
   36.4840   33.7130   33.1160 H   0  0  0  0  0  0  0  0  0  0  0  0
   36.7450   33.8150   35.6200 H   0  0  0  0  0  0  0  0  0  0  0  0
   36.1530   31.7600   36.9560 H   0  0  0  0  0  0  0  0  0  0  0  0
  1  5  2  0  0  0  0
  2  1  1  0  0  0  0
  2  3  2  0  0  0  0
  3  4  1  0  0  0  0
  4  9  1  0  0  0  0
  5  4  1  0  0  0  0
  6  2  1  0  0  0  0
  7  3  1  0  0  0  0
  8  9  2  0  0  0  0
  8 14  1  0  0  0  0
  9 10  1  0  0  0  0
 10 11  1  0  0  0  0
 10 12  2  0  0  0  0
 12 18  1  0  0  0  0
 13 12  1  0  0  0  0
 13 15  1  0  0  0  0
 14 13  2  0  0  0  0
 15 16  1  0  0  0  0
 16 17  1  0  0  0  0
 18 16  1  0  0  0  0
 19  1  1  0  0  0  0
 19 22  1  0  0  0  0
 20 19  1  0  0  0  0
 21 19  1  0  0  0  0
 22 29  1  0  0  0  0
 22 23  1  0  0  0  0
 24 22  1  0  0  0  0
 25 26  1  0  0  0  0
 26 32  1  0  0  0  0
 26 27  2  0  0  0  0
 27 33  1  0  0  0  0
 28 27  1  0  0  0  0
 29 28  2  0  0  0  0
 30 25  2  0  0  0  0
 30 29  1  0  0  0  0
 31 25  1  0  0  0  0
M  END
>  <minimizedAffinity>
-5.21718311

$$$$

 OpenBabel03272501593D

 33 36  0  0  0  0  0  0  0  0999 V2000
   36.7110   27.8080   34.1920 C   0  0  0  0  0  0  0  0  0  0  0  0
   36.8780   26.9390   33.1280 C   0  0  0  0  0  0  0  0  0  0  0  0
   37.5560   25.8070   33.5640 C   0  0  0  0  0  0  0  0  0  0  0  0
   37.7790   26.0260   34.8950 N   0  0  0  0  0  0  0  0  0  0  0  0
   37.2770   27.2050   35.2410 N   0  0  0  0  0  0  0  0  0  0  0  0
   36.5350   27.1210   32.1210 H   0  0  0  0  0  0  0  0  0  0  0  0
   37.8110   24.9740   32.9240 H   0  0  0  0  0  0  0  0  0  0  0  0
   37.8760   24.5920   36.7890 C   0  0  0  0  0  3  0  0  0  0  0  0
   38.4690   25.0110   35.6160 C   0  0  0  0  0  0  0  0  0  0  0  0
   39.6620   24.4500   35.2040 C   0  0  0  0  0  0  0  0  0  0  0  0
   40.0990   24.8020   34.2770 H   0  0  0  0  0  0  0  0  0  0  0  0
   40.2760   23.4640   35.9570 C   0  0  0  0  0  0  0  0  0  0  0  0
   39.7050   23.0160   37.1500 C   0  0  0  0  0  0  0  0  0  0  0  0
   38.4990   23.6040   37.5390 C   0  0  0  0  0  3  0  0  0  0  0  0
   40.5110   22.0250   37.7180 O   0  0  0  0  0  0  0  0  0  0  0  0
   41.3630   21.6090   36.6410 C   0  0  0  0  0  3  0  0  0  0  0  0
   42.3310   21.2990   37.0680 H   0  0  0  0  0  0  0  0  0  0  0  0
   41.4510   22.7370   35.7920 O   0  0  0  0  0  0  0  0  0  0  0  0
   36.0400   29.1430   34.1820 C   0  0  0  0  0  0  0  0  0  0  0  0
   35.5590   29.3590   35.1570 H   0  0  0  0  0  0  0  0  0  0  0  0
   36.8170   29.8830   33.9260 H   0  0  0  0  0  0  0  0  0  0  0  0
   35.0460   29.1010   33.0480 C   0  0  0  0  0  0  0  0  0  0  0  0
   35.0780   28.1230   32.5380 H   0  0  0  0  0  0  0  0  0  0  0  0
   35.2320   29.9440   32.3500 H   0  0  0  0  0  0  0  0  0  0  0  0
   31.3580   29.4250   33.2890 C   0  0  0  0  0  0  0  0  0  0  0  0
   31.1830   29.7460   34.6520 C   0  0  0  0  0  0  0  0  0  0  0  0
   32.3220   29.8440   35.4550 C   0  0  0  0  0  0  0  0  0  0  0  0
   33.5370   29.6300   34.9000 N   0  0  0  0  0  0  0  0  0  0  0  0
   33.6610   29.3240   33.5860 C   0  0  0  0  0  0  0  0  0  0  0  0
   32.5940   29.2280   32.8110 N   0  0  0  0  0  0  0  0  0  0  0  0
   30.5570   29.3230   32.5680 H   0  0  0  0  0  0  0  0  0  0  0  0
   30.1670   29.8970   34.9910 H   0  0  0  0  0  0  0  0  0  0  0  0
   32.1780   30.0900   36.4990 H   0  0  0  0  0  0  0  0  0  0  0  0
  1  5  2  0  0  0  0
  2  3  2  0  0  0  0
  2  1  1  0  0  0  0
  3  4  1  0  0  0  0
  4  5  1  0  0  0  0
  4  9  1  0  0  0  0
  6  2  1  0  0  0  0
  7  3  1  0  0  0  0
  8 14  1  0  0  0  0
  9  8  2  0  0  0  0
 10  9  1  0  0  0  0
 10 12  2  0  0  0  0
 11 10  1  0  0  0  0
 12 13  1  0  0  0  0
 13 14  2  0  0  0  0
 13 15  1  0  0  0  0
 16 17  1  0  0  0  0
 16 15  1  0  0  0  0
 18 12  1  0  0  0  0
 18 16  1  0  0  0  0
 19  1  1  0  0  0  0
 19 20  1  0  0  0  0
 21 19  1  0  0  0  0
 22 29  1  0  0  0  0
 22 19  1  0  0  0  0
 23 22  1  0  0  0  0
 24 22  1  0  0  0  0
 25 26  1  0  0  0  0
 26 32  1  0  0  0  0
 26 27  2  0  0  0  0
 27 33  1  0  0  0  0
 28 27  1  0  0  0  0
 29 28  2  0  0  0  0
 30 25  2  0  0  0  0
 30 29  1  0  0  0  0
 31 25  1  0  0  0  0
M  END
>  <minimizedAffinity>
-5.19189024

$$$$

 OpenBabel03272501593D

 33 36  0  0  0  0  0  0  0  0999 V2000
   37.9420   23.9450   33.0790 C   0  0  0  0  0  0  0  0  0  0  0  0
   37.1160   23.9040   31.9710 C   0  0  0  0  0  0  0  0  0  0  0  0
   36.5010   25.1400   31.8120 C   0  0  0  0  0  0  0  0  0  0  0  0
   36.9800   25.9010   32.8420 N   0  0  0  0  0  0  0  0  0  0  0  0
   37.8220   25.1810   33.5720 N   0  0  0  0  0  0  0  0  0  0  0  0
   36.9760   23.0420   31.3350 H   0  0  0  0  0  0  0  0  0  0  0  0
   35.8060   25.3690   31.0170 H   0  0  0  0  0  0  0  0  0  0  0  0
   36.5270   27.8060   34.1920 C   0  0  0  0  0  3  0  0  0  0  0  0
   36.5140   27.2430   32.9320 C   0  0  0  0  0  0  0  0  0  0  0  0
   36.0660   27.9760   31.8510 C   0  0  0  0  0  0  0  0  0  0  0  0
   36.0690   27.5030   30.8760 H   0  0  0  0  0  0  0  0  0  0  0  0
   35.6260   29.2790   32.0140 C   0  0  0  0  0  0  0  0  0  0  0  0
   35.6250   29.8810   33.2740 C   0  0  0  0  0  0  0  0  0  0  0  0
   36.0840   29.1120   34.3470 C   0  0  0  0  0  3  0  0  0  0  0  0
   35.1400   31.1870   33.1740 O   0  0  0  0  0  0  0  0  0  0  0  0
   35.2300   31.4870   31.7740 C   0  0  0  0  0  3  0  0  0  0  0  0
   34.4130   32.1810   31.5180 H   0  0  0  0  0  0  0  0  0  0  0  0
   35.1330   30.2320   31.1280 O   0  0  0  0  0  0  0  0  0  0  0  0
   38.7940   22.8440   33.6230 C   0  0  0  0  0  0  0  0  0  0  0  0
   39.1510   22.1750   32.8160 H   0  0  0  0  0  0  0  0  0  0  0  0
   39.6250   23.3280   34.1650 H   0  0  0  0  0  0  0  0  0  0  0  0
   37.9410   22.1190   34.6340 C   0  0  0  0  0  0  0  0  0  0  0  0
   38.0810   21.0270   34.5510 H   0  0  0  0  0  0  0  0  0  0  0  0
   36.8770   22.4150   34.5140 H   0  0  0  0  0  0  0  0  0  0  0  0
   37.7980   23.5260   38.0640 C   0  0  0  0  0  0  0  0  0  0  0  0
   39.1150   23.3090   38.5220 C   0  0  0  0  0  0  0  0  0  0  0  0
   40.0180   22.6890   37.6550 C   0  0  0  0  0  0  0  0  0  0  0  0
   39.5990   22.3250   36.4210 N   0  0  0  0  0  0  0  0  0  0  0  0
   38.3250   22.5530   36.0200 C   0  0  0  0  0  0  0  0  0  0  0  0
   37.4580   23.1380   36.8280 N   0  0  0  0  0  0  0  0  0  0  0  0
   37.0110   23.9950   38.6400 H   0  0  0  0  0  0  0  0  0  0  0  0
   39.3430   23.6390   39.5270 H   0  0  0  0  0  0  0  0  0  0  0  0
   41.0260   22.5260   38.0150 H   0  0  0  0  0  0  0  0  0  0  0  0
  1  5  2  0  0  0  0
  1 19  1  0  0  0  0
  2  1  1  0  0  0  0
  3  2  2  0  0  0  0
  3  4  1  0  0  0  0
  4  9  1  0  0  0  0
  4  5  1  0  0  0  0
  6  2  1  0  0  0  0
  7  3  1  0  0  0  0
  8 14  1  0  0  0  0
  9  8  2  0  0  0  0
 10 12  2  0  0  0  0
 10  9  1  0  0  0  0
 11 10  1  0  0  0  0
 12 13  1  0  0  0  0
 13 14  2  0  0  0  0
 15 13  1  0  0  0  0
 16 15  1  0  0  0  0
 17 16  1  0  0  0  0
 18 16  1  0  0  0  0
 18 12  1  0  0  0  0
 19 21  1  0  0  0  0
 19 22  1  0  0  0  0
 20 19  1  0  0  0  0
 22 29  1  0  0  0  0
 23 22  1  0  0  0  0
 24 22  1  0  0  0  0
 25 26  1  0  0  0  0
 25 31  1  0  0  0  0
 26 32  1  0  0  0  0
 27 33  1  0  0  0  0
 27 26  2  0  0  0  0
 28 27  1  0  0  0  0
 29 28  2  0  0  0  0
 29 30  1  0  0  0  0
 30 25  2  0  0  0  0
M  END
>  <minimizedAffinity>
-5.17430401

$$$$
