
 OpenBabel03272508023D

 30 33  0  0  0  0  0  0  0  0999 V2000
   39.8660   31.4020   44.0560 C   0  0  0  0  0  0  0  0  0  0  0  0
   40.3400   32.6250   44.4400 C   0  0  0  0  0  0  0  0  0  0  0  0
   39.9640   32.8830   45.7680 C   0  0  0  0  0  0  0  0  0  0  0  0
   39.2550   31.7650   46.1310 N   0  0  0  0  0  0  0  0  0  0  0  0
   39.2090   30.9200   45.1270 N   0  0  0  0  0  0  0  0  0  0  0  0
   40.9250   33.2780   43.7820 H   0  0  0  0  0  0  0  0  0  0  0  0
   40.2320   33.7830   46.2620 H   0  0  0  0  0  0  0  0  0  0  0  0
   38.8050   32.7350   48.3910 C   0  0  0  0  0  3  0  0  0  0  0  0
   38.7250   31.7160   47.4520 C   0  0  0  0  0  0  0  0  0  0  0  0
   38.0810   30.5150   47.7650 C   0  0  0  0  0  0  0  0  0  0  0  0
   37.9900   29.6900   47.0700 H   0  0  0  0  0  0  0  0  0  0  0  0
   37.5270   30.3610   49.0280 C   0  0  0  0  0  0  0  0  0  0  0  0
   37.6150   31.3950   49.9650 C   0  0  0  0  0  0  0  0  0  0  0  0
   38.2520   32.5790   49.6480 C   0  0  0  0  0  3  0  0  0  0  0  0
   36.9620   30.8990   51.1000 O   0  0  0  0  0  0  0  0  0  0  0  0
   36.9840   29.4650   51.0450 C   0  0  0  0  0  3  0  0  0  0  0  0
   36.1840   29.0130   51.6270 H   0  0  0  0  0  0  0  0  0  0  0  0
   36.8340   29.2990   49.6280 O   0  0  0  0  0  0  0  0  0  0  0  0
   40.0270   30.7400   42.7570 C   0  0  0  0  0  0  0  0  0  0  0  0
   39.8340   29.3400   42.7110 C   0  0  0  0  0  0  0  0  0  0  0  0
   39.9870   28.7020   41.4710 C   0  0  0  0  0  0  0  0  0  0  0  0
   40.3100   29.4760   40.4040 N   0  0  0  0  0  0  0  0  0  0  0  0
   40.4860   30.8050   40.4830 C   0  0  0  0  0  0  0  0  0  0  0  0
   40.3400   31.4190   41.6670 N   0  0  0  0  0  0  0  0  0  0  0  0
   39.5770   28.7590   43.5870 H   0  0  0  0  0  0  0  0  0  0  0  0
   40.7430   31.3260   39.5630 H   0  0  0  0  0  0  0  0  0  0  0  0
   39.7900   27.2360   41.3980 C   0  0  0  0  0  0  0  0  0  0  0  0
   38.4990   27.0450   40.9600 F   0  0  0  0  0  0  0  0  0  0  0  0
   40.6560   26.6320   40.4930 F   0  0  0  0  0  0  0  0  0  0  0  0
   39.9120   26.6300   42.6320 F   0  0  0  0  0  0  0  0  0  0  0  0
  1  2  1  0  0  0  0
  1  5  2  0  0  0  0
  2  3  2  0  0  0  0
  3  4  1  0  0  0  0
  3  7  1  0  0  0  0
  4  9  1  0  0  0  0
  5  4  1  0  0  0  0
  6  2  1  0  0  0  0
  8 14  1  0  0  0  0
  9 10  1  0  0  0  0
  9  8  2  0  0  0  0
 10 12  2  0  0  0  0
 11 10  1  0  0  0  0
 12 18  1  0  0  0  0
 12 13  1  0  0  0  0
 13 15  1  0  0  0  0
 14 13  2  0  0  0  0
 16 15  1  0  0  0  0
 16 17  1  0  0  0  0
 18 16  1  0  0  0  0
 19  1  1  0  0  0  0
 20 19  1  0  0  0  0
 20 25  1  0  0  0  0
 21 20  2  0  0  0  0
 22 23  2  0  0  0  0
 22 21  1  0  0  0  0
 23 24  1  0  0  0  0
 24 19  2  0  0  0  0
 26 23  1  0  0  0  0
 27 21  1  0  0  0  0
 27 30  1  0  0  0  0
 28 27  1  0  0  0  0
 29 27  1  0  0  0  0
M  END
>  <minimizedAffinity>
-6.44559002

>  <minimizedRMSD>
8.12839699

$$$$
