
 OpenBabel03262520543D

 28 31  0  0  1  0  0  0  0  0999 V2000
   34.8910   28.2400   49.5280 C   0  0  2  0  0  0  0  0  0  0  0  0
   34.8280   29.5270   50.2180 C   0  0  0  0  0  0  0  0  0  0  0  0
   35.6570   29.3950   48.9720 C   0  0  2  0  0  0  0  0  0  0  0  0
   35.4980   27.4140   49.9880 H   0  0  0  0  0  0  0  0  0  0  0  0
   33.8840   30.1300   50.1060 H   0  0  0  0  0  0  0  0  0  0  0  0
   35.3050   29.6800   51.1990 H   0  0  0  0  0  0  0  0  0  0  0  0
   36.7580   29.3950   49.1030 H   0  0  0  0  0  0  0  0  0  0  0  0
   31.4590   27.6150   48.1940 C   0  0  0  0  0  0  0  0  0  0  0  0
   31.7360   26.7170   47.1450 C   0  0  0  0  0  0  0  0  0  0  0  0
   33.0900   26.3410   46.9050 C   0  0  0  0  0  0  0  0  0  0  0  0
   34.0490   26.8690   47.7070 N   0  0  0  0  0  0  0  0  0  0  0  0
   33.7570   27.7220   48.6990 C   0  0  0  0  0  0  0  0  0  0  0  0
   32.4770   28.1030   48.9550 N   0  0  0  0  0  0  0  0  0  0  0  0
   30.4410   27.9190   48.3990 H   0  0  0  0  0  0  0  0  0  0  0  0
   30.9500   26.3240   46.5350 H   0  0  0  0  0  0  0  0  0  0  0  0
   33.3300   25.6480   46.1000 H   0  0  0  0  0  0  0  0  0  0  0  0
   35.0410   30.1110   47.4200 S   0  0  0  0  0  0  0  0  0  0  0  0
   36.2380   30.4330   45.0080 C   0  0  0  0  0  0  0  0  0  0  0  0
   36.4570   30.4740   46.3800 C   0  0  0  0  0  0  0  0  0  0  0  0
   37.6880   30.7740   46.9300 C   0  0  0  0  0  0  0  0  0  0  0  0
   37.7950   30.7910   48.0100 H   0  0  0  0  0  0  0  0  0  0  0  0
   38.7290   31.0420   46.0720 C   0  0  0  0  0  0  0  0  0  0  0  0
   38.5140   31.0020   44.7100 C   0  0  0  0  0  0  0  0  0  0  0  0
   37.2860   30.7010   44.1560 C   0  0  0  0  0  0  0  0  0  0  0  0
   39.7110   31.3050   44.1080 O   0  0  0  0  0  0  0  0  0  0  0  0
   40.7440   31.4220   45.0520 C   0  0  0  0  0  0  0  0  0  0  0  0
   41.2580   32.4040   44.9120 H   0  0  0  0  0  0  0  0  0  0  0  0
   40.0590   31.3700   46.2800 O   0  0  0  0  0  0  0  0  0  0  0  0
  1  4  1  1  0  0  0
  1  2  1  0  0  0  0
  2  6  1  0  0  0  0
  3  7  1  1  0  0  0
  3  1  1  0  0  0  0
  3  2  1  0  0  0  0
  5  2  1  0  0  0  0
  8 14  1  0  0  0  0
  8 13  1  0  0  0  0
  9  8  2  0  0  0  0
 10  9  1  0  0  0  0
 10 11  2  0  0  0  0
 11 12  1  0  0  0  0
 12 13  2  0  0  0  0
 12  1  1  0  0  0  0
 15  9  1  0  0  0  0
 16 10  1  0  0  0  0
 17  3  1  0  0  0  0
 18 19  1  0  0  0  0
 19 20  2  0  0  0  0
 19 17  1  0  0  0  0
 20 21  1  0  0  0  0
 22 28  1  0  0  0  0
 22 20  1  0  0  0  0
 23 22  2  0  0  0  0
 24 23  1  0  0  0  0
 24 18  2  0  0  0  0
 25 23  1  0  0  0  0
 25 26  1  0  0  0  0
 26 28  1  0  0  0  0
 27 26  1  0  0  0  0
M  END
>  <minimizedAffinity>
-4.76458168

>  <minimizedRMSD>
8.07283688

$$$$
