
 OpenBabel03262522143D

 47 51  0  0  1  0  0  0  0  0999 V2000
   39.5040   32.9330   43.7930 C   0  0  0  0  0  0  0  0  0  0  0  0
   38.4290   32.8640   44.0450 H   0  0  0  0  0  0  0  0  0  0  0  0
   39.5820   33.7910   43.0830 H   0  0  0  0  0  0  0  0  0  0  0  0
   39.0220   29.6470   42.5390 C   0  0  1  0  0  0  0  0  0  0  0  0
   38.9610   31.1260   42.1760 C   0  0  0  0  0  0  0  0  0  0  0  0
   40.0140   31.7000   43.0770 C   0  0  2  0  0  0  0  0  0  0  0  0
   40.4200   30.7200   43.9440 O   0  0  0  0  0  0  0  0  0  0  0  0
   39.4360   29.7510   44.0020 C   0  0  0  0  0  0  0  0  0  0  0  0
   39.7840   29.1650   41.9240 H   0  0  0  0  0  0  0  0  0  0  0  0
   39.2900   31.3040   41.1250 H   0  0  0  0  0  0  0  0  0  0  0  0
   37.9600   31.5490   42.3490 H   0  0  0  0  0  0  0  0  0  0  0  0
   40.9170   32.0390   42.5150 H   0  0  0  0  0  0  0  0  0  0  0  0
   38.5280   30.0530   44.5550 H   0  0  0  0  0  0  0  0  0  0  0  0
   39.8560   28.7820   44.3530 H   0  0  0  0  0  0  0  0  0  0  0  0
   37.8020   29.0340   42.3820 O   0  0  0  0  0  0  0  0  0  0  0  0
   36.1330   27.3600   42.9720 C   0  0  0  0  0  3  0  0  0  0  0  0
   37.4190   27.7540   42.6600 C   0  0  0  0  0  0  0  0  0  0  0  0
   38.3760   26.7560   42.6340 C   0  0  0  0  0  0  0  0  0  0  0  0
   39.4120   26.9180   42.4080 H   0  0  0  0  0  0  0  0  0  0  0  0
   38.0170   25.4370   42.9150 C   0  0  0  0  0  0  0  0  0  0  0  0
   36.7120   25.0570   43.2280 C   0  0  0  0  0  0  0  0  0  0  0  0
   35.7650   26.0590   43.2510 C   0  0  0  0  0  3  0  0  0  0  0  0
   36.6880   23.6870   43.4510 O   0  0  0  0  0  0  0  0  0  0  0  0
   37.8270   23.1670   42.7910 C   0  0  0  0  0  3  0  0  0  0  0  0
   38.1860   22.2240   43.2260 H   0  0  0  0  0  0  0  0  0  0  0  0
   38.7400   24.2340   42.9660 O   0  0  0  0  0  0  0  0  0  0  0  0
   40.5800   33.2350   45.2100 S   0  0  0  0  0  0  0  0  0  0  0  0
   37.7990   31.8120   47.6580 C   0  0  0  0  0  0  0  0  0  0  0  0
   37.9760   32.5480   48.8410 C   0  0  0  0  0  0  0  0  0  0  0  0
   38.9500   33.5080   48.9360 C   0  0  0  0  0  0  0  0  0  0  0  0
   39.7300   33.7000   47.8190 C   0  0  0  0  0  0  0  0  0  0  0  0
   39.5450   32.9750   46.6800 C   0  0  0  0  0  0  0  0  0  0  0  0
   38.5830   32.0240   46.5800 N   0  0  0  0  0  0  0  0  0  0  0  0
   37.3430   32.3720   49.7030 H   0  0  0  0  0  0  0  0  0  0  0  0
   39.1360   34.1080   49.8160 H   0  0  0  0  0  0  0  0  0  0  0  0
   40.5330   34.4330   47.7760 H   0  0  0  0  0  0  0  0  0  0  0  0
   36.7570   30.8240   47.6360 C   0  0  0  0  0  0  0  0  0  0  0  0
   36.2910   30.3990   46.5750 O   0  0  0  0  0  0  0  0  0  0  0  0
   37.0540   29.6490   49.7910 C   0  0  0  0  0  0  0  0  0  0  0  0
   36.1770   30.2530   48.8720 C   0  0  0  0  0  0  0  0  0  0  0  0
   34.8070   30.2960   49.1480 C   0  0  0  0  0  0  0  0  0  0  0  0
   34.3630   29.7420   50.3190 N   0  0  0  0  0  0  0  0  0  0  0  0
   35.2280   29.1660   51.1870 C   0  0  0  0  0  0  0  0  0  0  0  0
   36.5480   29.1230   50.9240 N   0  0  0  0  0  0  0  0  0  0  0  0
   38.1170   29.5970   49.6150 H   0  0  0  0  0  0  0  0  0  0  0  0
   34.1720   30.7600   48.4330 H   0  0  0  0  0  0  0  0  0  0  0  0
   34.9590   28.7160   52.1140 H   0  0  0  0  0  0  0  0  0  0  0  0
  1  2  1  0  0  0  0
  1 27  1  0  0  0  0
  3  1  1  0  0  0  0
  4  9  1  6  0  0  0
  4  8  1  0  0  0  0
  5 11  1  0  0  0  0
  5  4  1  0  0  0  0
  5  6  1  0  0  0  0
  6 12  1  6  0  0  0
  6  1  1  0  0  0  0
  6  7  1  0  0  0  0
  7  8  1  0  0  0  0
  8 14  1  0  0  0  0
  8 13  1  0  0  0  0
 10  5  1  0  0  0  0
 15  4  1  0  0  0  0
 15 17  1  0  0  0  0
 16 22  1  0  0  0  0
 17 16  2  0  0  0  0
 18 17  1  0  0  0  0
 18 20  2  0  0  0  0
 19 18  1  0  0  0  0
 20 26  1  0  0  0  0
 20 21  1  0  0  0  0
 21 22  2  0  0  0  0
 21 23  1  0  0  0  0
 24 26  1  0  0  0  0
 24 25  1  0  0  0  0
 24 23  1  0  0  0  0
 27 32  1  0  0  0  0
 28 29  1  0  0  0  0
 29 30  2  0  0  0  0
 29 34  1  0  0  0  0
 30 35  1  0  0  0  0
 31 30  1  0  0  0  0
 32 31  2  0  0  0  0
 33 32  1  0  0  0  0
 33 28  2  0  0  0  0
 36 31  1  0  0  0  0
 37 28  1  0  0  0  0
 37 40  1  0  0  0  0
 38 37  2  0  0  0  0
 39 44  1  0  0  0  0
 40 41  1  0  0  0  0
 40 39  2  0  0  0  0
 41 42  2  0  0  0  0
 42 43  1  0  0  0  0
 43 47  1  0  0  0  0
 44 43  2  0  0  0  0
 45 39  1  0  0  0  0
 46 41  1  0  0  0  0
M  END
>  <minimizedAffinity>
-5.53776073

>  <minimizedRMSD>
2.29543447

$$$$
