
 OpenBabel03262522143D

 47 51  0  0  1  0  0  0  0  0999 V2000
   39.4460   32.9430   43.7680 C   0  0  0  0  0  0  0  0  0  0  0  0
   38.3830   32.8060   44.0400 H   0  0  0  0  0  0  0  0  0  0  0  0
   39.4660   33.8560   43.1250 H   0  0  0  0  0  0  0  0  0  0  0  0
   39.0820   29.7330   42.2980 C   0  0  1  0  0  0  0  0  0  0  0  0
   38.9290   31.2280   42.0460 C   0  0  0  0  0  0  0  0  0  0  0  0
   39.9890   31.7930   42.9450 C   0  0  2  0  0  0  0  0  0  0  0  0
   40.4810   30.7780   43.7220 O   0  0  0  0  0  0  0  0  0  0  0  0
   39.5510   29.7560   43.7470 C   0  0  0  0  0  0  0  0  0  0  0  0
   39.8410   29.3380   41.6200 H   0  0  0  0  0  0  0  0  0  0  0  0
   39.2040   31.4970   40.9980 H   0  0  0  0  0  0  0  0  0  0  0  0
   37.9160   31.5820   42.2870 H   0  0  0  0  0  0  0  0  0  0  0  0
   40.8480   32.2200   42.3740 H   0  0  0  0  0  0  0  0  0  0  0  0
   38.6540   29.9680   44.3550 H   0  0  0  0  0  0  0  0  0  0  0  0
   40.0360   28.7880   44.0110 H   0  0  0  0  0  0  0  0  0  0  0  0
   37.8900   29.0670   42.1440 O   0  0  0  0  0  0  0  0  0  0  0  0
   36.4240   27.2670   42.8870 C   0  0  0  0  0  3  0  0  0  0  0  0
   37.5900   27.7470   42.3240 C   0  0  0  0  0  0  0  0  0  0  0  0
   38.5100   26.7970   41.9200 C   0  0  0  0  0  0  0  0  0  0  0  0
   39.4560   27.0270   41.4680 H   0  0  0  0  0  0  0  0  0  0  0  0
   38.2340   25.4400   42.0910 C   0  0  0  0  0  0  0  0  0  0  0  0
   37.0510   24.9740   42.6620 C   0  0  0  0  0  0  0  0  0  0  0  0
   36.1400   25.9280   43.0620 C   0  0  0  0  0  3  0  0  0  0  0  0
   37.0840   23.5860   42.6880 O   0  0  0  0  0  0  0  0  0  0  0  0
   38.0220   23.2030   41.6980 C   0  0  0  0  0  3  0  0  0  0  0  0
   38.4790   22.2230   41.8930 H   0  0  0  0  0  0  0  0  0  0  0  0
   38.9490   24.2700   41.7900 O   0  0  0  0  0  0  0  0  0  0  0  0
   40.5480   33.1840   45.1770 S   0  0  0  0  0  0  0  0  0  0  0  0
   37.7770   31.7830   47.6490 C   0  0  0  0  0  0  0  0  0  0  0  0
   37.9660   32.5220   48.8270 C   0  0  0  0  0  0  0  0  0  0  0  0
   38.9460   33.4770   48.9120 C   0  0  0  0  0  0  0  0  0  0  0  0
   39.7190   33.6620   47.7900 C   0  0  0  0  0  0  0  0  0  0  0  0
   39.5220   32.9340   46.6550 C   0  0  0  0  0  0  0  0  0  0  0  0
   38.5540   31.9880   46.5640 N   0  0  0  0  0  0  0  0  0  0  0  0
   37.3380   32.3530   49.6950 H   0  0  0  0  0  0  0  0  0  0  0  0
   39.1410   34.0790   49.7900 H   0  0  0  0  0  0  0  0  0  0  0  0
   40.5260   34.3900   47.7390 H   0  0  0  0  0  0  0  0  0  0  0  0
   36.7300   30.8010   47.6370 C   0  0  0  0  0  0  0  0  0  0  0  0
   36.2540   30.3760   46.5800 O   0  0  0  0  0  0  0  0  0  0  0  0
   37.0360   29.6240   49.7900 C   0  0  0  0  0  0  0  0  0  0  0  0
   36.1560   30.2370   48.8790 C   0  0  0  0  0  0  0  0  0  0  0  0
   34.7890   30.2930   49.1680 C   0  0  0  0  0  0  0  0  0  0  0  0
   34.3510   29.7440   50.3430 N   0  0  0  0  0  0  0  0  0  0  0  0
   35.2190   29.1600   51.2040 C   0  0  0  0  0  0  0  0  0  0  0  0
   36.5350   29.1040   50.9280 N   0  0  0  0  0  0  0  0  0  0  0  0
   38.0960   29.5620   49.6030 H   0  0  0  0  0  0  0  0  0  0  0  0
   34.1520   30.7630   48.4590 H   0  0  0  0  0  0  0  0  0  0  0  0
   34.9530   28.7130   52.1330 H   0  0  0  0  0  0  0  0  0  0  0  0
  1  2  1  0  0  0  0
  1 27  1  0  0  0  0
  3  1  1  0  0  0  0
  4  9  1  6  0  0  0
  4  8  1  0  0  0  0
  5 11  1  0  0  0  0
  5  4  1  0  0  0  0
  5  6  1  0  0  0  0
  6 12  1  6  0  0  0
  6  7  1  0  0  0  0
  6  1  1  0  0  0  0
  7  8  1  0  0  0  0
  8 14  1  0  0  0  0
  8 13  1  0  0  0  0
 10  5  1  0  0  0  0
 15  4  1  0  0  0  0
 15 17  1  0  0  0  0
 16 22  1  0  0  0  0
 17 16  2  0  0  0  0
 18 20  2  0  0  0  0
 18 17  1  0  0  0  0
 19 18  1  0  0  0  0
 20 21  1  0  0  0  0
 21 23  1  0  0  0  0
 21 22  2  0  0  0  0
 24 26  1  0  0  0  0
 24 25  1  0  0  0  0
 24 23  1  0  0  0  0
 26 20  1  0  0  0  0
 27 32  1  0  0  0  0
 28 29  1  0  0  0  0
 29 30  2  0  0  0  0
 29 34  1  0  0  0  0
 30 35  1  0  0  0  0
 31 30  1  0  0  0  0
 32 31  2  0  0  0  0
 33 32  1  0  0  0  0
 33 28  2  0  0  0  0
 36 31  1  0  0  0  0
 37 28  1  0  0  0  0
 37 40  1  0  0  0  0
 38 37  2  0  0  0  0
 39 44  1  0  0  0  0
 40 41  1  0  0  0  0
 40 39  2  0  0  0  0
 41 42  2  0  0  0  0
 42 43  1  0  0  0  0
 43 47  1  0  0  0  0
 44 43  2  0  0  0  0
 45 39  1  0  0  0  0
 46 41  1  0  0  0  0
M  END
>  <minimizedAffinity>
-5.47774363

>  <minimizedRMSD>
2.08791065

$$$$
