
 OpenBabel03262522143D

 47 51  0  0  1  0  0  0  0  0999 V2000
   39.6570   32.8620   43.8030 C   0  0  0  0  0  0  0  0  0  0  0  0
   38.5750   32.9110   44.0250 H   0  0  0  0  0  0  0  0  0  0  0  0
   39.8570   33.7330   43.1330 H   0  0  0  0  0  0  0  0  0  0  0  0
   38.8140   29.7390   42.3400 C   0  0  1  0  0  0  0  0  0  0  0  0
   38.9740   31.2280   42.0590 C   0  0  0  0  0  0  0  0  0  0  0  0
   40.0390   31.6070   43.0450 C   0  0  2  0  0  0  0  0  0  0  0  0
   40.2580   30.5400   43.8760 O   0  0  0  0  0  0  0  0  0  0  0  0
   39.1510   29.7130   43.8260 C   0  0  0  0  0  0  0  0  0  0  0  0
   39.5410   29.1880   41.7400 H   0  0  0  0  0  0  0  0  0  0  0  0
   39.3860   31.4110   41.0390 H   0  0  0  0  0  0  0  0  0  0  0  0
   38.0310   31.7760   42.2030 H   0  0  0  0  0  0  0  0  0  0  0  0
   41.0120   31.8470   42.5520 H   0  0  0  0  0  0  0  0  0  0  0  0
   38.2600   30.1090   44.3470 H   0  0  0  0  0  0  0  0  0  0  0  0
   39.4150   28.6790   44.1430 H   0  0  0  0  0  0  0  0  0  0  0  0
   37.5350   29.3080   42.0850 O   0  0  0  0  0  0  0  0  0  0  0  0
   37.2870   26.9070   42.4240 C   0  0  0  0  0  3  0  0  0  0  0  0
   36.8650   28.2150   42.5560 C   0  0  0  0  0  0  0  0  0  0  0  0
   35.6680   28.4090   43.2200 C   0  0  0  0  0  0  0  0  0  0  0  0
   35.2210   29.3690   43.3950 H   0  0  0  0  0  0  0  0  0  0  0  0
   34.9580   27.3130   43.7140 C   0  0  0  0  0  0  0  0  0  0  0  0
   35.4000   25.9980   43.5710 C   0  0  0  0  0  0  0  0  0  0  0  0
   36.5950   25.8150   42.9080 C   0  0  0  0  0  3  0  0  0  0  0  0
   34.4770   25.1500   44.1660 O   0  0  0  0  0  0  0  0  0  0  0  0
   33.7590   25.9470   45.0920 C   0  0  0  0  0  3  0  0  0  0  0  0
   32.7510   25.5650   45.3010 H   0  0  0  0  0  0  0  0  0  0  0  0
   33.7470   27.1880   44.4130 O   0  0  0  0  0  0  0  0  0  0  0  0
   40.7190   32.9760   45.2570 S   0  0  0  0  0  0  0  0  0  0  0  0
   37.7940   31.7630   47.6510 C   0  0  0  0  0  0  0  0  0  0  0  0
   37.9360   32.5630   48.7960 C   0  0  0  0  0  0  0  0  0  0  0  0
   38.9310   33.5030   48.8810 C   0  0  0  0  0  0  0  0  0  0  0  0
   39.7650   33.6120   47.7930 C   0  0  0  0  0  0  0  0  0  0  0  0
   39.6120   32.8260   46.6900 C   0  0  0  0  0  0  0  0  0  0  0  0
   38.6310   31.8940   46.5990 N   0  0  0  0  0  0  0  0  0  0  0  0
   37.2610   32.4530   49.6370 H   0  0  0  0  0  0  0  0  0  0  0  0
   39.0920   34.1500   49.7340 H   0  0  0  0  0  0  0  0  0  0  0  0
   40.5880   34.3220   47.7460 H   0  0  0  0  0  0  0  0  0  0  0  0
   36.7290   30.8010   47.6370 C   0  0  0  0  0  0  0  0  0  0  0  0
   36.2380   30.3940   46.5790 O   0  0  0  0  0  0  0  0  0  0  0  0
   37.0340   29.6400   49.7980 C   0  0  0  0  0  0  0  0  0  0  0  0
   36.1530   30.2350   48.8770 C   0  0  0  0  0  0  0  0  0  0  0  0
   34.7830   30.2730   49.1540 C   0  0  0  0  0  0  0  0  0  0  0  0
   34.3430   29.7250   50.3290 N   0  0  0  0  0  0  0  0  0  0  0  0
   35.2120   29.1580   51.2000 C   0  0  0  0  0  0  0  0  0  0  0  0
   36.5310   29.1200   50.9350 N   0  0  0  0  0  0  0  0  0  0  0  0
   38.0970   29.5920   49.6210 H   0  0  0  0  0  0  0  0  0  0  0  0
   34.1450   30.7300   48.4370 H   0  0  0  0  0  0  0  0  0  0  0  0
   34.9450   28.7120   52.1290 H   0  0  0  0  0  0  0  0  0  0  0  0
  1  2  1  0  0  0  0
  1 27  1  0  0  0  0
  3  1  1  0  0  0  0
  4  9  1  6  0  0  0
  4  8  1  0  0  0  0
  5 11  1  0  0  0  0
  5  4  1  0  0  0  0
  5  6  1  0  0  0  0
  6 12  1  6  0  0  0
  6  1  1  0  0  0  0
  6  7  1  0  0  0  0
  8  7  1  0  0  0  0
  8 14  1  0  0  0  0
  8 13  1  0  0  0  0
 10  5  1  0  0  0  0
 15  4  1  0  0  0  0
 15 17  1  0  0  0  0
 16 17  2  0  0  0  0
 16 22  1  0  0  0  0
 17 18  1  0  0  0  0
 18 19  1  0  0  0  0
 18 20  2  0  0  0  0
 20 26  1  0  0  0  0
 21 20  1  0  0  0  0
 21 23  1  0  0  0  0
 22 21  2  0  0  0  0
 23 24  1  0  0  0  0
 24 25  1  0  0  0  0
 26 24  1  0  0  0  0
 27 32  1  0  0  0  0
 28 29  1  0  0  0  0
 29 30  2  0  0  0  0
 29 34  1  0  0  0  0
 30 35  1  0  0  0  0
 31 30  1  0  0  0  0
 32 31  2  0  0  0  0
 33 32  1  0  0  0  0
 33 28  2  0  0  0  0
 36 31  1  0  0  0  0
 37 28  1  0  0  0  0
 37 40  1  0  0  0  0
 38 37  2  0  0  0  0
 39 44  1  0  0  0  0
 40 41  1  0  0  0  0
 40 39  2  0  0  0  0
 41 42  2  0  0  0  0
 42 43  1  0  0  0  0
 43 47  1  0  0  0  0
 44 43  2  0  0  0  0
 45 39  1  0  0  0  0
 46 41  1  0  0  0  0
M  END
>  <minimizedAffinity>
-5.48392677

>  <minimizedRMSD>
1.92653239

$$$$
