
 OpenBabel03262522143D

 47 51  0  0  1  0  0  0  0  0999 V2000
   39.5200   32.9590   43.7870 C   0  0  0  0  0  0  0  0  0  0  0  0
   38.4430   32.9670   44.0410 H   0  0  0  0  0  0  0  0  0  0  0  0
   39.6690   33.8480   43.1280 H   0  0  0  0  0  0  0  0  0  0  0  0
   38.8480   29.6960   42.5610 C   0  0  1  0  0  0  0  0  0  0  0  0
   38.7570   31.1800   42.2280 C   0  0  0  0  0  0  0  0  0  0  0  0
   39.9220   31.7320   42.9950 C   0  0  2  0  0  0  0  0  0  0  0  0
   40.4250   30.7360   43.7910 O   0  0  0  0  0  0  0  0  0  0  0  0
   39.4460   29.7750   43.9600 C   0  0  0  0  0  0  0  0  0  0  0  0
   39.5210   29.2170   41.8480 H   0  0  0  0  0  0  0  0  0  0  0  0
   38.9510   31.3700   41.1460 H   0  0  0  0  0  0  0  0  0  0  0  0
   37.7910   31.6090   42.5330 H   0  0  0  0  0  0  0  0  0  0  0  0
   40.7500   32.0710   42.3270 H   0  0  0  0  0  0  0  0  0  0  0  0
   38.6190   30.0770   44.6290 H   0  0  0  0  0  0  0  0  0  0  0  0
   39.8970   28.7970   44.2430 H   0  0  0  0  0  0  0  0  0  0  0  0
   37.6120   29.0960   42.5530 O   0  0  0  0  0  0  0  0  0  0  0  0
   36.3930   27.6380   41.0270 C   0  0  0  0  0  3  0  0  0  0  0  0
   37.2350   27.8650   42.0970 C   0  0  0  0  0  0  0  0  0  0  0  0
   37.7220   26.7430   42.7420 C   0  0  0  0  0  0  0  0  0  0  0  0
   38.3840   26.7690   43.5850 H   0  0  0  0  0  0  0  0  0  0  0  0
   37.3560   25.4700   42.3000 C   0  0  0  0  0  0  0  0  0  0  0  0
   36.5030   25.2610   41.2170 C   0  0  0  0  0  0  0  0  0  0  0  0
   36.0230   26.3860   40.5810 C   0  0  0  0  0  3  0  0  0  0  0  0
   36.3390   23.8950   41.0370 O   0  0  0  0  0  0  0  0  0  0  0  0
   37.4580   23.2840   41.6550 C   0  0  0  0  0  3  0  0  0  0  0  0
   37.2630   22.2540   41.9840 H   0  0  0  0  0  0  0  0  0  0  0  0
   37.6750   24.1740   42.7340 O   0  0  0  0  0  0  0  0  0  0  0  0
   40.6190   33.0840   45.2120 S   0  0  0  0  0  0  0  0  0  0  0  0
   37.7780   31.7780   47.6570 C   0  0  0  0  0  0  0  0  0  0  0  0
   37.9520   32.5430   48.8220 C   0  0  0  0  0  0  0  0  0  0  0  0
   38.9420   33.4870   48.9050 C   0  0  0  0  0  0  0  0  0  0  0  0
   39.7410   33.6350   47.7950 C   0  0  0  0  0  0  0  0  0  0  0  0
   39.5590   32.8830   46.6730 C   0  0  0  0  0  0  0  0  0  0  0  0
   38.5810   31.9470   46.5840 N   0  0  0  0  0  0  0  0  0  0  0  0
   37.3030   32.4030   49.6790 H   0  0  0  0  0  0  0  0  0  0  0  0
   39.1270   34.1080   49.7710 H   0  0  0  0  0  0  0  0  0  0  0  0
   40.5590   34.3520   47.7440 H   0  0  0  0  0  0  0  0  0  0  0  0
   36.7190   30.8090   47.6460 C   0  0  0  0  0  0  0  0  0  0  0  0
   36.2270   30.4000   46.5900 O   0  0  0  0  0  0  0  0  0  0  0  0
   37.0370   29.6330   49.7980 C   0  0  0  0  0  0  0  0  0  0  0  0
   36.1510   30.2400   48.8880 C   0  0  0  0  0  0  0  0  0  0  0  0
   34.7840   30.2850   49.1790 C   0  0  0  0  0  0  0  0  0  0  0  0
   34.3520   29.7320   50.3550 N   0  0  0  0  0  0  0  0  0  0  0  0
   35.2240   29.1540   51.2130 C   0  0  0  0  0  0  0  0  0  0  0  0
   36.5410   29.1090   50.9360 N   0  0  0  0  0  0  0  0  0  0  0  0
   38.0970   29.5790   49.6100 H   0  0  0  0  0  0  0  0  0  0  0  0
   34.1420   30.7500   48.4710 H   0  0  0  0  0  0  0  0  0  0  0  0
   34.9640   28.7040   52.1430 H   0  0  0  0  0  0  0  0  0  0  0  0
  1  2  1  0  0  0  0
  1 27  1  0  0  0  0
  3  1  1  0  0  0  0
  4  9  1  6  0  0  0
  4  8  1  0  0  0  0
  5 11  1  0  0  0  0
  5  4  1  0  0  0  0
  5  6  1  0  0  0  0
  6 12  1  6  0  0  0
  6  1  1  0  0  0  0
  6  7  1  0  0  0  0
  7  8  1  0  0  0  0
  8 14  1  0  0  0  0
  8 13  1  0  0  0  0
 10  5  1  0  0  0  0
 15  4  1  0  0  0  0
 16 17  1  0  0  0  0
 17 15  1  0  0  0  0
 17 18  2  0  0  0  0
 18 19  1  0  0  0  0
 20 26  1  0  0  0  0
 20 18  1  0  0  0  0
 21 20  2  0  0  0  0
 22 16  2  0  0  0  0
 22 21  1  0  0  0  0
 23 21  1  0  0  0  0
 23 24  1  0  0  0  0
 24 25  1  0  0  0  0
 24 26  1  0  0  0  0
 27 32  1  0  0  0  0
 28 29  1  0  0  0  0
 29 30  2  0  0  0  0
 29 34  1  0  0  0  0
 30 35  1  0  0  0  0
 31 30  1  0  0  0  0
 32 31  2  0  0  0  0
 33 32  1  0  0  0  0
 33 28  2  0  0  0  0
 36 31  1  0  0  0  0
 37 28  1  0  0  0  0
 37 40  1  0  0  0  0
 38 37  2  0  0  0  0
 39 44  1  0  0  0  0
 40 41  1  0  0  0  0
 40 39  2  0  0  0  0
 41 42  2  0  0  0  0
 42 43  1  0  0  0  0
 43 47  1  0  0  0  0
 44 43  2  0  0  0  0
 45 39  1  0  0  0  0
 46 41  1  0  0  0  0
M  END
>  <minimizedAffinity>
-5.29677105

>  <minimizedRMSD>
0.947419047

$$$$
