
 OpenBabel03272508263D

 40 44  0  0  1  0  0  0  0  0999 V2000
   33.8530   28.9690   47.2680 C   0  0  2  0  0  0  0  0  0  0  0  0
   34.5840   28.1730   48.3370 C   0  0  2  0  0  0  0  0  0  0  0  0
   33.6910   27.9950   49.3470 O   0  0  0  0  0  0  0  0  0  0  0  0
   32.4100   28.0890   48.8800 C   0  0  0  0  0  0  0  0  0  0  0  0
   32.4720   28.3150   47.3820 C   0  0  1  0  0  0  0  0  0  0  0  0
   33.7810   30.0300   47.5160 H   0  0  0  0  0  0  0  0  0  0  0  0
   34.8540   27.1960   47.8900 H   0  0  0  0  0  0  0  0  0  0  0  0
   31.7970   27.1800   49.1110 H   0  0  0  0  0  0  0  0  0  0  0  0
   31.8840   28.9480   49.3330 H   0  0  0  0  0  0  0  0  0  0  0  0
   32.5790   27.3130   46.8970 H   0  0  0  0  0  0  0  0  0  0  0  0
   35.6830   30.4040   49.0450 C   0  0  1  0  0  0  0  0  0  0  0  0
   35.7600   28.9880   48.7680 C   0  0  1  0  0  0  0  0  0  0  0  0
   35.9400   29.4110   50.1900 C   0  0  0  0  0  0  0  0  0  0  0  0
   34.7660   30.9990   49.2770 H   0  0  0  0  0  0  0  0  0  0  0  0
   36.6900   28.6770   48.2050 H   0  0  0  0  0  0  0  0  0  0  0  0
   35.1280   29.1850   50.8960 H   0  0  0  0  0  0  0  0  0  0  0  0
   36.9800   29.3300   50.5920 H   0  0  0  0  0  0  0  0  0  0  0  0
   36.8750   31.3190   48.8150 C   0  0  0  0  0  0  0  0  0  0  0  0
   37.0710   32.3590   49.7230 C   0  0  0  0  0  0  0  0  0  0  0  0
   38.1590   33.1780   49.4460 C   0  0  0  0  0  0  0  0  0  0  0  0
   38.9580   32.9560   48.3610 N   0  0  0  0  0  0  0  0  0  0  0  0
   38.7270   31.9260   47.5020 C   0  0  0  0  0  0  0  0  0  0  0  0
   37.6690   31.0970   47.7350 N   0  0  0  0  0  0  0  0  0  0  0  0
   36.4410   32.5230   50.5640 H   0  0  0  0  0  0  0  0  0  0  0  0
   38.4140   34.0090   50.0670 H   0  0  0  0  0  0  0  0  0  0  0  0
   39.3840   31.7890   46.6560 H   0  0  0  0  0  0  0  0  0  0  0  0
   34.3840   28.8130   46.0030 O   0  0  0  0  0  0  0  0  0  0  0  0
   34.3090   29.6140   45.4450 H   0  0  0  0  0  0  0  0  0  0  0  0
   31.4830   29.1130   46.8780 O   0  0  0  0  0  0  0  0  0  0  0  0
   30.1720   29.4700   44.7880 C   0  0  0  0  0  3  0  0  0  0  0  0
   30.5510   28.7630   45.9100 C   0  0  0  0  0  0  0  0  0  0  0  0
   29.9670   27.5250   46.1770 C   0  0  0  0  0  0  0  0  0  0  0  0
   30.2050   26.8920   47.0400 H   0  0  0  0  0  0  0  0  0  0  0  0
   29.0170   26.9930   45.3400 C   0  0  0  0  0  0  0  0  0  0  0  0
   28.6500   27.7200   44.2180 C   0  0  0  0  0  0  0  0  0  0  0  0
   29.2200   28.9580   43.9340 C   0  0  0  0  0  3  0  0  0  0  0  0
   27.6870   26.9800   43.5410 O   0  0  0  0  0  0  0  0  0  0  0  0
   27.6600   25.6540   44.0480 C   0  0  0  0  0  3  0  0  0  0  0  0
   26.6040   25.2800   44.1900 H   0  0  0  0  0  0  0  0  0  0  0  0
   28.2720   25.8210   45.3290 O   0  0  0  0  0  0  0  0  0  0  0  0
  1  5  1  0  0  0  0
  1  6  1  1  0  0  0
  1  2  1  0  0  0  0
  2  7  1  6  0  0  0
  2 12  1  0  0  0  0
  2  3  1  0  0  0  0
  4  8  1  0  0  0  0
  4  9  1  0  0  0  0
  4  3  1  0  0  0  0
  5 10  1  6  0  0  0
  5  4  1  0  0  0  0
 11 14  1  6  0  0  0
 11 13  1  0  0  0  0
 12 15  1  6  0  0  0
 12 11  1  0  0  0  0
 12 13  1  0  0  0  0
 13 17  1  0  0  0  0
 13 16  1  0  0  0  0
 18 11  1  0  0  0  0
 18 19  1  0  0  0  0
 19 24  1  0  0  0  0
 20 19  2  0  0  0  0
 20 25  1  0  0  0  0
 21 20  1  0  0  0  0
 22 23  1  0  0  0  0
 22 21  2  0  0  0  0
 23 18  2  0  0  0  0
 26 22  1  0  0  0  0
 27  1  1  0  0  0  0
 28 27  1  0  0  0  0
 29  5  1  0  0  0  0
 30 31  1  0  0  0  0
 31 32  2  0  0  0  0
 31 29  1  0  0  0  0
 32 33  1  0  0  0  0
 34 32  1  0  0  0  0
 35 34  2  0  0  0  0
 36 35  1  0  0  0  0
 36 30  2  0  0  0  0
 37 38  1  0  0  0  0
 37 35  1  0  0  0  0
 38 39  1  0  0  0  0
 38 40  1  0  0  0  0
 40 34  1  0  0  0  0
M  END
>  <minimizedAffinity>
-5.16745329

>  <minimizedRMSD>
0.27191931

$$$$
