
 OpenBabel03272508263D

 40 44  0  0  1  0  0  0  0  0999 V2000
   33.9830   29.0560   47.3480 C   0  0  2  0  0  0  0  0  0  0  0  0
   34.7470   28.2650   48.3990 C   0  0  2  0  0  0  0  0  0  0  0  0
   33.8710   28.0520   49.4170 O   0  0  0  0  0  0  0  0  0  0  0  0
   32.5820   28.1200   48.9650 C   0  0  0  0  0  0  0  0  0  0  0  0
   32.6200   28.3660   47.4700 C   0  0  1  0  0  0  0  0  0  0  0  0
   33.8870   30.1120   47.6110 H   0  0  0  0  0  0  0  0  0  0  0  0
   35.0360   27.3010   47.9360 H   0  0  0  0  0  0  0  0  0  0  0  0
   31.9950   27.1930   49.1920 H   0  0  0  0  0  0  0  0  0  0  0  0
   32.0410   28.9590   49.4360 H   0  0  0  0  0  0  0  0  0  0  0  0
   32.7470   27.3730   46.9710 H   0  0  0  0  0  0  0  0  0  0  0  0
   35.8130   30.5290   49.0510 C   0  0  1  0  0  0  0  0  0  0  0  0
   35.9070   29.1050   48.8260 C   0  0  1  0  0  0  0  0  0  0  0  0
   36.0530   29.5790   50.2360 C   0  0  0  0  0  0  0  0  0  0  0  0
   34.8870   31.1250   49.2420 H   0  0  0  0  0  0  0  0  0  0  0  0
   36.8520   28.7820   48.2940 H   0  0  0  0  0  0  0  0  0  0  0  0
   35.2270   29.3710   50.9310 H   0  0  0  0  0  0  0  0  0  0  0  0
   37.0830   29.5200   50.6630 H   0  0  0  0  0  0  0  0  0  0  0  0
   37.0040   31.4450   48.8150 C   0  0  0  0  0  0  0  0  0  0  0  0
   37.1840   32.5040   49.7040 C   0  0  0  0  0  0  0  0  0  0  0  0
   38.2720   33.3220   49.4220 C   0  0  0  0  0  0  0  0  0  0  0  0
   39.0830   33.0830   48.3500 N   0  0  0  0  0  0  0  0  0  0  0  0
   38.8660   32.0350   47.5090 C   0  0  0  0  0  0  0  0  0  0  0  0
   37.8090   31.2050   47.7480 N   0  0  0  0  0  0  0  0  0  0  0  0
   36.5460   32.6810   50.5350 H   0  0  0  0  0  0  0  0  0  0  0  0
   38.5170   34.1670   50.0290 H   0  0  0  0  0  0  0  0  0  0  0  0
   39.5330   31.8850   46.6730 H   0  0  0  0  0  0  0  0  0  0  0  0
   34.5030   28.9300   46.0750 O   0  0  0  0  0  0  0  0  0  0  0  0
   34.4000   29.7350   45.5280 H   0  0  0  0  0  0  0  0  0  0  0  0
   31.6060   29.1450   46.9880 O   0  0  0  0  0  0  0  0  0  0  0  0
   30.0570   29.6610   45.1040 C   0  0  0  0  0  3  0  0  0  0  0  0
   30.7260   28.8170   45.9650 C   0  0  0  0  0  0  0  0  0  0  0  0
   30.5480   27.4370   45.8580 C   0  0  0  0  0  0  0  0  0  0  0  0
   31.0360   26.6910   46.4950 H   0  0  0  0  0  0  0  0  0  0  0  0
   29.7150   26.9010   44.9070 C   0  0  0  0  0  0  0  0  0  0  0  0
   29.0520   27.7670   44.0520 C   0  0  0  0  0  0  0  0  0  0  0  0
   29.2150   29.1480   44.1420 C   0  0  0  0  0  3  0  0  0  0  0  0
   28.2800   26.9920   43.1910 O   0  0  0  0  0  0  0  0  0  0  0  0
   28.6800   25.6340   43.2850 C   0  0  0  0  0  3  0  0  0  0  0  0
   27.7940   24.9360   43.3170 H   0  0  0  0  0  0  0  0  0  0  0  0
   29.3370   25.6110   44.5550 O   0  0  0  0  0  0  0  0  0  0  0  0
  1  5  1  0  0  0  0
  1  6  1  1  0  0  0
  1  2  1  0  0  0  0
  2  7  1  6  0  0  0
  2 12  1  0  0  0  0
  2  3  1  0  0  0  0
  4  8  1  0  0  0  0
  4  3  1  0  0  0  0
  4  9  1  0  0  0  0
  5 10  1  6  0  0  0
  5  4  1  0  0  0  0
 11 14  1  6  0  0  0
 11 13  1  0  0  0  0
 12 15  1  6  0  0  0
 12 11  1  0  0  0  0
 12 13  1  0  0  0  0
 13 17  1  0  0  0  0
 13 16  1  0  0  0  0
 18 11  1  0  0  0  0
 18 19  1  0  0  0  0
 19 24  1  0  0  0  0
 20 19  2  0  0  0  0
 20 25  1  0  0  0  0
 21 20  1  0  0  0  0
 22 23  1  0  0  0  0
 22 21  2  0  0  0  0
 23 18  2  0  0  0  0
 26 22  1  0  0  0  0
 27  1  1  0  0  0  0
 28 27  1  0  0  0  0
 29  5  1  0  0  0  0
 30 31  1  0  0  0  0
 31 29  1  0  0  0  0
 32 31  2  0  0  0  0
 32 33  1  0  0  0  0
 34 32  1  0  0  0  0
 35 36  1  0  0  0  0
 35 34  2  0  0  0  0
 36 30  2  0  0  0  0
 37 38  1  0  0  0  0
 37 35  1  0  0  0  0
 38 39  1  0  0  0  0
 38 40  1  0  0  0  0
 40 34  1  0  0  0  0
M  END
>  <minimizedAffinity>
-4.9643302

>  <minimizedRMSD>
0.0703442693

$$$$
