
 OpenBabel03272508263D

 40 44  0  0  1  0  0  0  0  0999 V2000
   33.6470   28.9520   47.1460 C   0  0  2  0  0  0  0  0  0  0  0  0
   34.3380   28.0970   48.1980 C   0  0  2  0  0  0  0  0  0  0  0  0
   33.4270   27.9160   49.1900 O   0  0  0  0  0  0  0  0  0  0  0  0
   32.1550   28.0670   48.7100 C   0  0  0  0  0  0  0  0  0  0  0  0
   32.2440   28.3400   47.2220 C   0  0  1  0  0  0  0  0  0  0  0  0
   33.6060   30.0060   47.4290 H   0  0  0  0  0  0  0  0  0  0  0  0
   34.5820   27.1270   47.7220 H   0  0  0  0  0  0  0  0  0  0  0  0
   31.5100   27.1710   48.9040 H   0  0  0  0  0  0  0  0  0  0  0  0
   31.6520   28.9270   49.1850 H   0  0  0  0  0  0  0  0  0  0  0  0
   32.3260   27.3510   46.7050 H   0  0  0  0  0  0  0  0  0  0  0  0
   35.5030   30.2720   48.9720 C   0  0  1  0  0  0  0  0  0  0  0  0
   35.5340   28.8600   48.6700 C   0  0  1  0  0  0  0  0  0  0  0  0
   35.6980   29.2480   50.1030 C   0  0  0  0  0  0  0  0  0  0  0  0
   34.6050   30.8970   49.1960 H   0  0  0  0  0  0  0  0  0  0  0  0
   36.4640   28.5230   48.1210 H   0  0  0  0  0  0  0  0  0  0  0  0
   34.8620   29.0400   50.7870 H   0  0  0  0  0  0  0  0  0  0  0  0
   36.7240   29.1200   50.5260 H   0  0  0  0  0  0  0  0  0  0  0  0
   36.7350   31.1450   48.7860 C   0  0  0  0  0  0  0  0  0  0  0  0
   36.9570   32.1500   49.7270 C   0  0  0  0  0  0  0  0  0  0  0  0
   38.0810   32.9320   49.4900 C   0  0  0  0  0  0  0  0  0  0  0  0
   38.8860   32.7110   48.4090 N   0  0  0  0  0  0  0  0  0  0  0  0
   38.6280   31.7160   47.5170 C   0  0  0  0  0  0  0  0  0  0  0  0
   37.5350   30.9230   47.7110 N   0  0  0  0  0  0  0  0  0  0  0  0
   36.3220   32.3130   50.5640 H   0  0  0  0  0  0  0  0  0  0  0  0
   38.3590   33.7340   50.1380 H   0  0  0  0  0  0  0  0  0  0  0  0
   39.2920   31.5780   46.6770 H   0  0  0  0  0  0  0  0  0  0  0  0
   34.1900   28.8200   45.8830 O   0  0  0  0  0  0  0  0  0  0  0  0
   34.1480   29.6400   45.3510 H   0  0  0  0  0  0  0  0  0  0  0  0
   31.2890   29.1860   46.7330 O   0  0  0  0  0  0  0  0  0  0  0  0
   28.9820   28.9710   47.6540 C   0  0  0  0  0  0  0  0  0  0  0  0
   29.9250   28.9340   46.6490 C   0  0  0  0  0  0  0  0  0  0  0  0
   29.5370   28.6080   45.3490 C   0  0  0  0  0  0  0  0  0  0  0  0
   30.2140   28.5540   44.4880 H   0  0  0  0  0  0  0  0  0  0  0  0
   28.2280   28.3220   45.0490 C   0  0  0  0  0  0  0  0  0  0  0  0
   27.2970   28.3660   46.0740 C   0  0  0  0  0  0  0  0  0  0  0  0
   27.6620   28.6890   47.3790 C   0  0  0  0  0  0  0  0  0  0  0  0
   26.0600   28.0430   45.5260 O   0  0  0  0  0  0  0  0  0  0  0  0
   26.1380   28.0970   44.1110 C   0  0  0  0  0  0  0  0  0  0  0  0
   25.6130   27.2220   43.6270 H   0  0  0  0  0  0  0  0  0  0  0  0
   27.5450   27.9740   43.8920 O   0  0  0  0  0  0  0  0  0  0  0  0
  1  5  1  0  0  0  0
  1  6  1  1  0  0  0
  1  2  1  0  0  0  0
  2  7  1  6  0  0  0
  2 12  1  0  0  0  0
  2  3  1  0  0  0  0
  4  8  1  0  0  0  0
  4  9  1  0  0  0  0
  4  3  1  0  0  0  0
  5 10  1  6  0  0  0
  5  4  1  0  0  0  0
 11 14  1  6  0  0  0
 11 13  1  0  0  0  0
 12 15  1  6  0  0  0
 12 11  1  0  0  0  0
 12 13  1  0  0  0  0
 13 17  1  0  0  0  0
 13 16  1  0  0  0  0
 18 11  1  0  0  0  0
 18 19  1  0  0  0  0
 19 24  1  0  0  0  0
 20 19  2  0  0  0  0
 20 25  1  0  0  0  0
 21 20  1  0  0  0  0
 22 23  1  0  0  0  0
 22 21  2  0  0  0  0
 23 18  2  0  0  0  0
 26 22  1  0  0  0  0
 27  1  1  0  0  0  0
 28 27  1  0  0  0  0
 29  5  1  0  0  0  0
 31 29  1  0  0  0  0
 31 30  2  0  0  0  0
 32 31  1  0  0  0  0
 33 32  1  0  0  0  0
 34 32  2  0  0  0  0
 34 35  1  0  0  0  0
 35 36  2  0  0  0  0
 36 30  1  0  0  0  0
 37 35  1  0  0  0  0
 38 37  1  0  0  0  0
 39 38  1  0  0  0  0
 40 38  1  0  0  0  0
 40 34  1  0  0  0  0
M  END
>  <minimizedAffinity>
-5.74552298

>  <minimizedRMSD>
1.82136846

$$$$
