
 OpenBabel03272508263D

 40 44  0  0  1  0  0  0  0  0999 V2000
   33.9600   29.0250   47.3290 C   0  0  2  0  0  0  0  0  0  0  0  0
   34.7140   28.2420   48.3930 C   0  0  2  0  0  0  0  0  0  0  0  0
   33.8310   28.0430   49.4070 O   0  0  0  0  0  0  0  0  0  0  0  0
   32.5450   28.1110   48.9480 C   0  0  0  0  0  0  0  0  0  0  0  0
   32.5930   28.3410   47.4510 C   0  0  1  0  0  0  0  0  0  0  0  0
   33.8660   30.0830   47.5810 H   0  0  0  0  0  0  0  0  0  0  0  0
   35.0020   27.2720   47.9420 H   0  0  0  0  0  0  0  0  0  0  0  0
   31.9530   27.1880   49.1810 H   0  0  0  0  0  0  0  0  0  0  0  0
   32.0040   28.9570   49.4060 H   0  0  0  0  0  0  0  0  0  0  0  0
   32.7190   27.3430   46.9630 H   0  0  0  0  0  0  0  0  0  0  0  0
   35.7820   30.5060   49.0380 C   0  0  1  0  0  0  0  0  0  0  0  0
   35.8750   29.0820   48.8180 C   0  0  1  0  0  0  0  0  0  0  0  0
   36.0190   29.5600   50.2260 C   0  0  0  0  0  0  0  0  0  0  0  0
   34.8570   31.1040   49.2250 H   0  0  0  0  0  0  0  0  0  0  0  0
   36.8190   28.7550   48.2890 H   0  0  0  0  0  0  0  0  0  0  0  0
   35.1920   29.3560   50.9220 H   0  0  0  0  0  0  0  0  0  0  0  0
   37.0500   29.5020   50.6550 H   0  0  0  0  0  0  0  0  0  0  0  0
   36.9750   31.4200   48.8000 C   0  0  0  0  0  0  0  0  0  0  0  0
   37.1660   32.4720   49.6950 C   0  0  0  0  0  0  0  0  0  0  0  0
   38.2540   33.2880   49.4110 C   0  0  0  0  0  0  0  0  0  0  0  0
   39.0570   33.0540   48.3310 N   0  0  0  0  0  0  0  0  0  0  0  0
   38.8300   32.0120   47.4850 C   0  0  0  0  0  0  0  0  0  0  0  0
   37.7720   31.1850   47.7250 N   0  0  0  0  0  0  0  0  0  0  0  0
   36.5340   32.6460   50.5320 H   0  0  0  0  0  0  0  0  0  0  0  0
   38.5060   34.1280   50.0220 H   0  0  0  0  0  0  0  0  0  0  0  0
   39.4900   31.8660   46.6430 H   0  0  0  0  0  0  0  0  0  0  0  0
   34.4870   28.8830   46.0610 O   0  0  0  0  0  0  0  0  0  0  0  0
   34.3910   29.6820   45.5050 H   0  0  0  0  0  0  0  0  0  0  0  0
   31.5850   29.1190   46.9540 O   0  0  0  0  0  0  0  0  0  0  0  0
   30.7730   28.1180   44.8190 C   0  0  0  0  0  3  0  0  0  0  0  0
   30.6090   28.7280   46.0460 C   0  0  0  0  0  0  0  0  0  0  0  0
   29.3260   29.0220   46.5060 C   0  0  0  0  0  0  0  0  0  0  0  0
   29.0980   29.5040   47.4650 H   0  0  0  0  0  0  0  0  0  0  0  0
   28.2150   28.7150   45.7570 C   0  0  0  0  0  0  0  0  0  0  0  0
   28.4030   28.1040   44.5280 C   0  0  0  0  0  0  0  0  0  0  0  0
   29.6760   27.8010   44.0490 C   0  0  0  0  0  3  0  0  0  0  0  0
   27.1450   27.8990   43.9690 O   0  0  0  0  0  0  0  0  0  0  0  0
   26.1480   28.0900   44.9610 C   0  0  0  0  0  3  0  0  0  0  0  0
   25.2730   28.6860   44.5680 H   0  0  0  0  0  0  0  0  0  0  0  0
   26.8470   28.8740   45.9300 O   0  0  0  0  0  0  0  0  0  0  0  0
  1  5  1  0  0  0  0
  1  6  1  1  0  0  0
  1  2  1  0  0  0  0
  2  7  1  6  0  0  0
  2 12  1  0  0  0  0
  2  3  1  0  0  0  0
  4  8  1  0  0  0  0
  4  9  1  0  0  0  0
  4  3  1  0  0  0  0
  5 10  1  6  0  0  0
  5  4  1  0  0  0  0
 11 14  1  6  0  0  0
 11 13  1  0  0  0  0
 12 15  1  6  0  0  0
 12 11  1  0  0  0  0
 12 13  1  0  0  0  0
 13 17  1  0  0  0  0
 13 16  1  0  0  0  0
 18 11  1  0  0  0  0
 18 19  1  0  0  0  0
 19 24  1  0  0  0  0
 20 19  2  0  0  0  0
 20 25  1  0  0  0  0
 21 20  1  0  0  0  0
 22 23  1  0  0  0  0
 22 21  2  0  0  0  0
 23 18  2  0  0  0  0
 26 22  1  0  0  0  0
 27  1  1  0  0  0  0
 28 27  1  0  0  0  0
 29  5  1  0  0  0  0
 30 31  1  0  0  0  0
 31 32  2  0  0  0  0
 31 29  1  0  0  0  0
 32 33  1  0  0  0  0
 34 40  1  0  0  0  0
 34 32  1  0  0  0  0
 35 34  2  0  0  0  0
 36 35  1  0  0  0  0
 36 30  2  0  0  0  0
 37 35  1  0  0  0  0
 37 38  1  0  0  0  0
 38 40  1  0  0  0  0
 39 38  1  0  0  0  0
M  END
>  <minimizedAffinity>
-5.43911171

>  <minimizedRMSD>
0.447838008

$$$$
