
     RDKit          3D

 41 44  0  0  0  0  0  0  0  0999 V2000
   38.0570   31.7512   48.9884 Br  0  0  0  0  0  0  0  0  0  0  0  0
   36.8570   31.0065   47.7027 C   0  0  0  0  0  0  0  0  0  0  0  0
   37.2044   30.9491   46.3770 C   0  0  0  0  0  0  0  0  0  0  0  0
   36.3091   30.4072   45.4895 C   0  0  0  0  0  0  0  0  0  0  0  0
   35.0736   29.9201   45.8895 C   0  0  0  0  0  0  0  0  0  0  0  0
   34.7594   29.9949   47.2311 C   0  0  0  0  0  0  0  0  0  0  0  0
   35.6517   30.5366   48.1274 C   0  0  0  0  0  0  0  0  0  0  0  0
   39.7275   33.1956   44.9785 C   0  0  0  0  0  0  0  0  0  0  0  0
   40.9174   32.4495   45.0188 C   0  0  0  0  0  0  0  0  0  0  0  0
   40.8384   31.1667   45.5326 C   0  0  0  0  0  0  0  0  0  0  0  0
   39.6314   30.6901   45.9697 N   0  0  0  0  0  0  0  0  0  0  0  0
   38.5058   31.4549   45.9088 C   0  0  0  0  0  0  0  0  0  0  0  0
   38.5655   32.7087   45.4102 N   0  0  0  0  0  0  0  0  0  0  0  0
   35.2025   30.5600   49.5604 C   0  0  0  0  0  0  0  0  0  0  0  0
   34.3044   29.4105   49.9027 C   0  0  0  0  0  0  0  0  0  0  0  0
   35.0700   28.2004   50.0115 N   0  0  0  0  0  0  0  0  0  0  0  0
   36.6226   30.3811   44.4543 H   0  0  0  0  0  0  0  0  0  0  0  0
   34.4455   29.5168   45.1221 H   0  0  0  0  0  0  0  0  0  0  0  0
   33.7772   29.5886   47.4184 H   0  0  0  0  0  0  0  0  0  0  0  0
   39.6796   34.1964   44.6006 H   0  0  0  0  0  0  0  0  0  0  0  0
   41.8226   32.8775   44.6636 H   0  0  0  0  0  0  0  0  0  0  0  0
   41.7226   30.5769   45.5762 H   0  0  0  0  0  0  0  0  0  0  0  0
   34.7327   31.5182   49.8113 H   0  0  0  0  0  0  0  0  0  0  0  0
   36.1372   30.4607   50.1448 H   0  0  0  0  0  0  0  0  0  0  0  0
   33.9786   29.6300   50.9765 H   0  0  0  0  0  0  0  0  0  0  0  0
   33.3763   29.3279   49.3535 H   0  0  0  0  0  0  0  0  0  0  0  0
   34.8457   27.5440   49.2347 H   0  0  0  0  0  0  0  0  0  0  0  0
   36.1975   28.3916   52.2112 C   0  0  0  0  0  0  0  0  0  0  0  0
   36.0257   27.8144   50.9742 C   0  0  0  0  0  0  0  0  0  0  0  0
   36.8907   26.7847   50.6954 C   0  0  0  0  0  0  0  0  0  0  0  0
   36.8196   26.2779   49.7413 H   0  0  0  0  0  0  0  0  0  0  0  0
   37.8515   26.3702   51.5904 C   0  0  0  0  0  0  0  0  0  0  0  0
   37.9905   26.9743   52.8170 C   0  0  0  0  0  0  0  0  0  0  0  0
   37.1408   28.0121   53.1347 C   0  0  0  0  0  0  0  0  0  0  0  0
   39.0317   26.3457   53.4896 O   0  0  0  0  0  0  0  0  0  0  0  0
   39.8031   25.6240   52.5310 C   0  0  2  0  0  0  0  0  0  0  0  0
   40.1855   24.6648   52.9389 H   0  0  0  0  0  0  0  0  0  0  0  0
   38.8171   25.3698   51.5251 O   0  0  0  0  0  0  0  0  0  0  0  0
   35.5634   29.1946   52.5204 H   0  0  0  0  0  0  0  0  0  0  0  0
   37.2388   28.5004   54.1026 H   0  0  0  0  0  0  0  0  0  0  0  0
   40.6141   26.2326   52.0843 H   0  0  0  0  0  0  0  0  0  0  0  0
  2  7  2  0
  2  1  1  0
  3  2  1  0
  4  5  1  0
  4  3  2  0
  5  6  2  0
  6  7  1  0
  7 14  1  0
  8  9  2  0
  8 13  1  0
  9 10  1  0
 10 11  2  0
 12 11  1  0
 12  3  1  0
 13 12  2  0
 14 15  1  0
 15 16  1  0
  4 17  1  0
  5 18  1  0
  6 19  1  0
  8 20  1  0
  9 21  1  0
 10 22  1  0
 14 23  1  0
 14 24  1  0
 15 25  1  0
 15 26  1  0
 16 27  1  0
 28 29  2  0
 29 30  1  0
 30 31  1  0
 30 32  2  0
 32 33  1  0
 33 34  2  0
 33 35  1  0
 35 36  1  0
 36 37  1  1
 36 38  1  0
 34 28  1  0
 38 32  1  0
 28 39  1  0
 34 40  1  0
 36 41  1  0
 16 29  1  0
M  ISO  8  17  14  18  14  19  14  20  14  21  14  22  14  23   8  24   8
M  ISO  5  25   8  26   8  27   5  31  16  37   8
M  END
>  <DihAtoms>  (1) 
14,15,28,27

>  <DihDeg>  (1) 
2.0096428072887056

$$$$
