REMARK  Name = 
REMARK  6 active torsions:
REMARK  status: ('A' for Active; 'I' for Inactive)
REMARK    1  A    between atoms: C_1  and  C_15
REMARK    2  A    between atoms: C_4  and  C_7
REMARK    3  A    between atoms: C_15  and  C_17
REMARK    4  A    between atoms: C_21  and  C_32
REMARK    5  A    between atoms: C_32  and  C_33
REMARK    6  A    between atoms: C_33  and  C_34
REMARK                            x       y       z     vdW  Elec       q    Type
REMARK                         _______ _______ _______ _____ _____    ______ ____
ROOT
ATOM      1  C   UNL     1      37.233  29.527  50.050  0.00  0.00    +0.000 C 
ATOM      2  O   UNL     1      37.880  28.948  50.963  0.00  0.00    +0.000 OA
ENDROOT
BRANCH   1   3
ATOM      3  C   UNL     1      37.781  30.564  49.216  0.00  0.00    +0.000 A 
ATOM      4  C   UNL     1      38.125  31.760  49.825  0.00  0.00    +0.000 A 
ATOM      5  C   UNL     1      38.659  32.791  49.058  0.00  0.00    +0.000 A 
ATOM      6  N   UNL     1      38.810  32.545  47.722  0.00  0.00    +0.000 NA
ATOM      7  C   UNL     1      38.475  31.389  47.146  0.00  0.00    +0.000 A 
ATOM      8  N   UNL     1      37.962  30.408  47.906  0.00  0.00    +0.000 NA
ATOM      9  H   UNL     1      37.989  31.916  50.892  0.00  0.00    +0.000 HD
ATOM     10  H   UNL     1      38.950  33.750  49.461  0.00  0.00    +0.000 HD
BRANCH   7  11
ATOM     11  C   UNL     1      38.651  31.154  45.699  0.00  0.00    +0.000 C 
BRANCH  11  12
ATOM     12  C   UNL     1      37.567  31.908  44.961  0.00  0.00    +0.000 C 
ATOM     13  C   UNL     1      36.249  31.279  45.284  0.00  0.00    +0.000 C 
ATOM     14  N   UNL     1      35.403  31.415  44.117  0.00  0.00    +0.000 N 
ATOM     15  C   UNL     1      34.297  31.731  43.245  0.00  0.00    +0.000 C 
ATOM     16  O   UNL     1      33.054  31.934  43.432  0.00  0.00    +0.000 OA
ATOM     17  C   UNL     1      35.197  31.724  42.041  0.00  0.00    +0.000 C 
ATOM     18  H   UNL     1      35.641  32.708  41.782  0.00  0.00    +0.000 HD
ATOM     19  C   UNL     1      36.053  30.871  42.938  0.00  0.00    +0.000 C 
ATOM     20  S   UNL     1      37.735  31.510  43.197  0.00  0.00    +0.000 S 
BRANCH  12  21
ATOM     21  C   UNL     1      37.632  33.374  45.223  0.00  0.00    +0.000 C 
ATOM     22  H   UNL     1      36.809  33.903  44.742  0.00  0.00    +0.000 HD
ENDBRANCH  12  21
ENDBRANCH  11  12
ENDBRANCH   7  11
ENDBRANCH   1   3
BRANCH   1  23
ATOM     23  C   UNL     1      35.851  29.135  49.814  0.00  0.00    +0.000 A 
ATOM     24  C   UNL     1      34.825  29.621  50.546  0.00  0.00    +0.000 A 
ATOM     25  C   UNL     1      33.658  29.037  50.051  0.00  0.00    +0.000 A 
ATOM     26  C   UNL     1      34.069  28.199  49.007  0.00  0.00    +0.000 A 
ATOM     27  O   UNL     1      35.361  28.306  48.925  0.00  0.00    +0.000 OA
ATOM     28  H   UNL     1      34.863  30.330  51.368  0.00  0.00    +0.000 HD
ATOM     29  H   UNL     1      32.687  29.254  50.461  0.00  0.00    +0.000 HD
BRANCH  26  31
ATOM     30  C   UNL     1      33.529  26.425  47.352  0.00  0.00    +0.000 A 
ATOM     31  C   UNL     1      33.114  27.411  48.239  0.00  0.00    +0.000 A 
ATOM     32  C   UNL     1      31.774  27.678  48.427  0.00  0.00    +0.000 A 
ATOM     33  C   UNL     1      30.863  26.939  47.708  0.00  0.00    +0.000 A 
ATOM     34  N   UNL     1      29.516  26.994  47.701  0.00  0.00    +0.000 N 
ATOM     35  N   UNL     1      29.078  26.077  46.840  0.00  0.00    +0.000 NA
ATOM     36  C   UNL     1      30.153  25.448  46.308  0.00  0.00    +0.000 A 
ATOM     37  C   UNL     1      31.309  25.968  46.835  0.00  0.00    +0.000 A 
ATOM     38  C   UNL     1      32.643  25.688  46.636  0.00  0.00    +0.000 A 
ATOM     39  H   UNL     1      34.602  26.238  47.227  0.00  0.00    +0.000 HD
ATOM     40  H   UNL     1      31.384  28.442  49.111  0.00  0.00    +0.000 HD
ATOM     41  H   UNL     1      28.857  27.607  48.236  0.00  0.00    +0.000 HD
ATOM     42  H   UNL     1      30.074  24.655  45.577  0.00  0.00    +0.000 HD
ATOM     43  H   UNL     1      32.937  24.922  45.945  0.00  0.00    +0.000 HD
ENDBRANCH  26  31
ENDBRANCH   1  23
TORSDOF 6
