
 OpenBabel03272507333D

 39 43  0  0  1  0  0  0  0  0999 V2000
   33.0350   27.4820   48.1170 C   0  0  0  0  0  0  0  0  0  0  0  0
   31.7920   27.4540   48.4070 O   0  0  0  0  0  0  0  0  0  0  0  0
   35.7660   29.1000   49.7640 C   0  0  0  0  0  0  0  0  0  0  0  0
   34.7360   29.5940   50.5310 C   0  0  0  0  0  0  0  0  0  0  0  0
   33.5430   29.0600   50.0250 C   0  0  0  0  0  0  0  0  0  0  0  0
   33.9290   28.2630   48.9680 C   0  0  0  0  0  0  0  0  0  0  0  0
   35.2380   28.3170   48.8540 O   0  0  0  0  0  0  0  0  0  0  0  0
   34.7460   30.2720   51.3820 H   0  0  0  0  0  0  0  0  0  0  0  0
   32.5240   29.1900   50.3290 H   0  0  0  0  0  0  0  0  0  0  0  0
   37.1560   29.4490   50.0110 C   0  0  0  0  0  0  0  0  0  0  0  0
   37.7880   28.8410   50.8870 O   0  0  0  0  0  0  0  0  0  0  0  0
   37.7180   30.4970   49.2050 C   0  0  0  0  0  0  0  0  0  0  0  0
   38.0580   31.6730   49.8500 C   0  0  0  0  0  0  0  0  0  0  0  0
   38.6050   32.7140   49.0960 C   0  0  0  0  0  0  0  0  0  0  0  0
   38.7770   32.5140   47.7430 N   0  0  0  0  0  0  0  0  0  0  0  0
   38.4360   31.3620   47.1560 C   0  0  0  0  0  0  0  0  0  0  0  0
   37.9100   30.3580   47.8730 N   0  0  0  0  0  0  0  0  0  0  0  0
   37.9010   31.7790   50.9190 H   0  0  0  0  0  0  0  0  0  0  0  0
   38.8610   33.6170   49.6250 H   0  0  0  0  0  0  0  0  0  0  0  0
   38.6130   31.3140   46.0940 H   0  0  0  0  0  0  0  0  0  0  0  0
   33.5700   26.7280   46.9370 C   0  0  1  0  0  0  0  0  0  0  0  0
   33.8090   25.2170   47.3270 C   0  0  0  0  0  0  0  0  0  0  0  0
   32.8130   25.6480   46.3150 C   0  0  1  0  0  0  0  0  0  0  0  0
   34.5420   27.1180   46.5730 H   0  0  0  0  0  0  0  0  0  0  0  0
   34.7320   24.7490   47.0010 H   0  0  0  0  0  0  0  0  0  0  0  0
   33.4220   24.8800   48.2860 H   0  0  0  0  0  0  0  0  0  0  0  0
   33.1050   25.4260   45.2470 H   0  0  0  0  0  0  0  0  0  0  0  0
   31.3780   25.3900   46.5970 C   0  0  0  0  0  2  0  0  0  0  0  0
   30.6740   24.7930   45.3920 C   0  0  2  0  0  0  0  0  0  0  0  0
   29.2630   24.4840   45.8030 C   0  0  0  0  0  2  0  0  0  0  0  0
   28.8940   23.1920   45.3110 N   0  0  0  0  0  0  0  0  0  0  0  0
   28.2470   22.0980   44.6650 C   0  0  0  0  0  0  0  0  0  0  0  0
   27.1490   21.8970   44.0810 O   0  0  0  0  0  0  0  0  0  0  0  0
   29.3680   21.1550   44.9060 C   0  0  0  0  0  3  0  0  0  0  0  0
   30.0350   20.9520   44.0570 H   0  0  0  0  0  0  0  0  0  0  0  0
   29.8790   22.2190   45.8100 C   0  0  1  0  0  3  0  0  0  0  0  0
   31.3770   23.1050   45.2170 S   0  0  0  0  0  0  0  0  0  0  0  0
   30.8140   25.5900   44.1470 C   0  0  0  0  0  2  0  0  0  0  0  0
   31.7590   25.3780   43.6200 H   0  0  0  0  0  0  0  0  0  0  0  0
  1  2  2  0  0  0  0
  1  6  1  0  0  0  0
  3 10  1  0  0  0  0
  3  4  2  0  0  0  0
  4  8  1  0  0  0  0
  5  9  1  0  0  0  0
  5  4  1  0  0  0  0
  6  5  2  0  0  0  0
  7  6  1  0  0  0  0
  7  3  1  0  0  0  0
 10 11  2  0  0  0  0
 12 13  1  0  0  0  0
 12 10  1  0  0  0  0
 13 18  1  0  0  0  0
 14 19  1  0  0  0  0
 14 13  2  0  0  0  0
 15 14  1  0  0  0  0
 16 15  2  0  0  0  0
 16 17  1  0  0  0  0
 17 12  2  0  0  0  0
 20 16  1  0  0  0  0
 21 24  1  6  0  0  0
 21 22  1  0  0  0  0
 21  1  1  0  0  0  0
 22 26  1  0  0  0  0
 23 27  1  6  0  0  0
 23 28  1  0  0  0  0
 23 21  1  0  0  0  0
 23 22  1  0  0  0  0
 25 22  1  0  0  0  0
 29 38  1  6  0  0  0
 29 30  1  0  0  0  0
 29 28  1  0  0  0  0
 31 30  1  0  0  0  0
 31 36  1  0  0  0  0
 32 34  1  0  0  0  0
 32 31  1  0  0  0  0
 33 32  2  0  0  0  0
 35 34  1  0  0  0  0
 36 34  1  6  0  0  0
 37 29  1  0  0  0  0
 37 36  1  0  0  0  0
 39 38  1  0  0  0  0
M  END
>  <minimizedAffinity>
-5.44158077

>  <minimizedRMSD>
0.402427912

$$$$
