
     RDKit          3D

 46 49  0  0  0  0  0  0  0  0999 V2000
   38.1131   31.8876   47.4142 C   0  0  0  0  0  0  0  0  0  0  0  0
   38.5822   32.7859   48.3271 C   0  0  0  0  0  0  0  0  0  0  0  0
   38.0830   32.8621   49.6324 C   0  0  0  0  0  0  0  0  0  0  0  0
   37.0288   31.9366   49.9957 C   0  0  0  0  0  0  0  0  0  0  0  0
   36.6078   31.0690   49.0422 C   0  0  0  0  0  0  0  0  0  0  0  0
   37.0944   31.0065   47.7886 C   0  0  0  0  0  0  0  0  0  0  0  0
   40.0031   31.2606   45.9864 C   0  0  0  0  0  0  0  0  0  0  0  0
   38.7465   31.9154   46.1158 C   0  0  0  0  0  0  0  0  0  0  0  0
   38.2860   32.4942   44.9604 C   0  0  0  0  0  0  0  0  0  0  0  0
   38.9962   32.4236   43.8229 N   0  0  0  0  0  0  0  0  0  0  0  0
   40.1551   31.8147   43.7208 C   0  0  0  0  0  0  0  0  0  0  0  0
   40.6513   31.2369   44.8035 N   0  0  0  0  0  0  0  0  0  0  0  0
   35.1570   29.9735   46.9435 C   0  0  0  0  0  0  0  0  0  0  0  0
   34.5204   30.6391   47.8526 O   0  0  0  0  0  0  0  0  0  0  0  0
   36.5975   30.1161   46.8715 N   0  0  0  0  0  0  0  0  0  0  0  0
   34.4502   29.1658   46.0943 O   0  0  0  0  0  0  0  0  0  0  0  0
   33.3656   29.5718   45.3268 C   0  0  0  0  0  0  0  0  0  0  0  0
   33.3706   30.7116   44.6693 O   0  0  0  0  0  0  0  0  0  0  0  0
   39.3836   33.5015   48.0799 H   0  0  0  0  0  0  0  0  0  0  0  0
   38.5068   33.6080   50.3100 H   0  0  0  0  0  0  0  0  0  0  0  0
   36.7518   32.1097   51.0093 H   0  0  0  0  0  0  0  0  0  0  0  0
   35.8560   30.4724   49.5344 H   0  0  0  0  0  0  0  0  0  0  0  0
   40.4540   30.7692   46.8513 H   0  0  0  0  0  0  0  0  0  0  0  0
   37.3374   32.9890   45.0576 H   0  0  0  0  0  0  0  0  0  0  0  0
   40.6779   31.7931   42.7751 H   0  0  0  0  0  0  0  0  0  0  0  0
   37.1720   29.5968   46.2001 H   0  0  0  0  0  0  0  0  0  0  0  0
   31.5715   32.6109   42.6963 C   0  0  0  0  0  0  0  0  0  0  0  0
   32.6800   32.5257   42.8837 H   0  0  0  0  0  0  0  0  0  0  0  0
   31.0862   31.2698   42.2725 C   0  0  0  0  0  0  0  0  0  0  0  0
   30.6250   31.2035   40.8330 C   0  0  0  0  0  0  0  0  0  0  0  0
   29.8360   31.9577   40.6826 H   0  0  0  0  0  0  0  0  0  0  0  0
   29.9637   30.7140   43.1209 C   0  0  0  0  0  0  0  0  0  0  0  0
   30.5574   30.0645   44.2683 N   0  0  0  0  0  0  0  0  0  0  0  0
   30.9482   29.6551   45.5733 C   0  0  0  0  0  0  0  0  0  0  0  0
   30.5413   29.8582   46.7349 O   0  0  0  0  0  0  0  0  0  0  0  0
   32.0936   28.8354   45.0987 C   0  0  1  0  0  0  0  0  0  0  0  0
   31.4546   29.0106   43.7762 C   0  0  2  0  0  0  0  0  0  0  0  0
   32.3623   29.9732   42.5330 S   0  0  0  0  0  0  0  0  0  0  0  0
   31.4408   33.3033   41.8143 H   0  0  0  0  0  0  0  0  0  0  0  0
   31.1282   33.0171   43.6177 H   0  0  0  0  0  0  0  0  0  0  0  0
   30.1451   30.1933   40.7162 H   0  0  0  0  0  0  0  0  0  0  0  0
   31.4470   31.2575   40.0980 H   0  0  0  0  0  0  0  0  0  0  0  0
   29.3604   31.5693   43.4832 H   0  0  0  0  0  0  0  0  0  0  0  0
   29.2960   30.0365   42.5567 H   0  0  0  0  0  0  0  0  0  0  0  0
   32.0953   27.7895   45.4627 H   0  0  0  0  0  0  0  0  0  0  0  0
   30.9244   28.1275   43.3738 H   0  0  0  0  0  0  0  0  0  0  0  0
  1  6  1  0
  1  2  2  0
  2  3  1  0
  3  4  2  0
  5  4  1  0
  6  5  2  0
  7  8  2  0
  8  1  1  0
  9  8  1  0
 10  9  2  0
 11 10  1  0
 11 12  2  0
 12  7  1  0
 13 14  2  0
 15 13  1  0
 15  6  1  0
 16 13  1  0
 17 16  1  0
 18 17  2  0
  2 19  1  0
  3 20  1  0
  4 21  1  0
  5 22  1  0
  7 23  1  0
  9 24  1  0
 11 25  1  0
 15 26  1  0
 27 28  1  0
 27 29  1  0
 29 30  1  0
 30 31  1  0
 29 32  1  0
 32 33  1  0
 33 34  1  0
 34 35  2  0
 34 36  1  0
 36 37  1  0
 37 38  1  0
 38 29  1  0
 37 33  1  0
 27 39  1  0
 27 40  1  0
 30 41  1  0
 30 42  1  0
 32 43  1  0
 32 44  1  0
 36 45  1  1
 37 46  1  6
 17 36  1  0
M  ISO  8  19  14  20  14  21  14  22  14  23  14  24  14  25  14  28   8
M  ISO  1  31   8
M  END
>  <DihAtoms>  (1) 
15,16,35,33

>  <DihDeg>  (1) 
60.68440680902279

$$$$
