
     RDKit          3D

 46 49  0  0  0  0  0  0  0  0999 V2000
   38.1131   31.8876   47.4142 C   0  0  0  0  0  0  0  0  0  0  0  0
   38.5822   32.7859   48.3271 C   0  0  0  0  0  0  0  0  0  0  0  0
   38.0830   32.8621   49.6324 C   0  0  0  0  0  0  0  0  0  0  0  0
   37.0288   31.9366   49.9957 C   0  0  0  0  0  0  0  0  0  0  0  0
   36.6078   31.0690   49.0422 C   0  0  0  0  0  0  0  0  0  0  0  0
   37.0944   31.0065   47.7886 C   0  0  0  0  0  0  0  0  0  0  0  0
   40.0031   31.2606   45.9864 C   0  0  0  0  0  0  0  0  0  0  0  0
   38.7465   31.9154   46.1158 C   0  0  0  0  0  0  0  0  0  0  0  0
   38.2860   32.4942   44.9604 C   0  0  0  0  0  0  0  0  0  0  0  0
   38.9962   32.4236   43.8229 N   0  0  0  0  0  0  0  0  0  0  0  0
   40.1551   31.8147   43.7208 C   0  0  0  0  0  0  0  0  0  0  0  0
   40.6513   31.2369   44.8035 N   0  0  0  0  0  0  0  0  0  0  0  0
   35.1570   29.9735   46.9435 C   0  0  0  0  0  0  0  0  0  0  0  0
   34.5204   30.6391   47.8526 O   0  0  0  0  0  0  0  0  0  0  0  0
   36.5975   30.1161   46.8715 N   0  0  0  0  0  0  0  0  0  0  0  0
   34.4502   29.1658   46.0943 O   0  0  0  0  0  0  0  0  0  0  0  0
   33.3656   29.5718   45.3268 C   0  0  0  0  0  0  0  0  0  0  0  0
   33.3706   30.7116   44.6693 O   0  0  0  0  0  0  0  0  0  0  0  0
   39.3836   33.5015   48.0799 H   0  0  0  0  0  0  0  0  0  0  0  0
   38.5068   33.6080   50.3100 H   0  0  0  0  0  0  0  0  0  0  0  0
   36.7518   32.1097   51.0093 H   0  0  0  0  0  0  0  0  0  0  0  0
   35.8560   30.4724   49.5344 H   0  0  0  0  0  0  0  0  0  0  0  0
   40.4540   30.7692   46.8513 H   0  0  0  0  0  0  0  0  0  0  0  0
   37.3374   32.9890   45.0576 H   0  0  0  0  0  0  0  0  0  0  0  0
   40.6779   31.7931   42.7751 H   0  0  0  0  0  0  0  0  0  0  0  0
   37.1720   29.5968   46.2001 H   0  0  0  0  0  0  0  0  0  0  0  0
   32.0777   31.9890   41.8810 C   0  0  0  0  0  0  0  0  0  0  0  0
   33.1483   31.9200   42.2279 H   0  0  0  0  0  0  0  0  0  0  0  0
   31.5767   30.5997   41.7004 C   0  0  0  0  0  0  0  0  0  0  0  0
   31.2941   30.2245   40.2621 C   0  0  0  0  0  0  0  0  0  0  0  0
   30.5718   30.9456   39.8471 H   0  0  0  0  0  0  0  0  0  0  0  0
   30.3294   30.2766   42.4933 C   0  0  0  0  0  0  0  0  0  0  0  0
   30.7407   29.8858   43.8234 N   0  0  0  0  0  0  0  0  0  0  0  0
   30.9443   29.7693   45.2263 C   0  0  0  0  0  0  0  0  0  0  0  0
   30.4085   30.2376   46.2509 O   0  0  0  0  0  0  0  0  0  0  0  0
   32.0936   28.8354   45.0987 C   0  0  1  0  0  0  0  0  0  0  0  0
   31.6335   28.7261   43.6971 C   0  0  2  0  0  0  0  0  0  0  0  0
   32.7387   29.3627   42.4051 S   0  0  0  0  0  0  0  0  0  0  0  0
   32.0948   32.4694   40.8596 H   0  0  0  0  0  0  0  0  0  0  0  0
   31.5465   32.6023   42.6242 H   0  0  0  0  0  0  0  0  0  0  0  0
   30.7784   29.2262   40.3066 H   0  0  0  0  0  0  0  0  0  0  0  0
   32.2024   30.0918   39.6488 H   0  0  0  0  0  0  0  0  0  0  0  0
   29.7332   31.2063   42.5765 H   0  0  0  0  0  0  0  0  0  0  0  0
   29.7010   29.5070   42.0075 H   0  0  0  0  0  0  0  0  0  0  0  0
   31.9936   27.8979   45.6796 H   0  0  0  0  0  0  0  0  0  0  0  0
   31.1101   27.7890   43.4310 H   0  0  0  0  0  0  0  0  0  0  0  0
  1  6  1  0
  1  2  2  0
  2  3  1  0
  3  4  2  0
  5  4  1  0
  6  5  2  0
  7  8  2  0
  8  1  1  0
  9  8  1  0
 10  9  2  0
 11 10  1  0
 11 12  2  0
 12  7  1  0
 13 14  2  0
 15 13  1  0
 15  6  1  0
 16 13  1  0
 17 16  1  0
 18 17  2  0
  2 19  1  0
  3 20  1  0
  4 21  1  0
  5 22  1  0
  7 23  1  0
  9 24  1  0
 11 25  1  0
 15 26  1  0
 27 28  1  0
 27 29  1  0
 29 30  1  0
 30 31  1  0
 29 32  1  0
 32 33  1  0
 33 34  1  0
 34 35  2  0
 34 36  1  0
 36 37  1  0
 37 38  1  0
 38 29  1  0
 37 33  1  0
 27 39  1  0
 27 40  1  0
 30 41  1  0
 30 42  1  0
 32 43  1  0
 32 44  1  0
 36 45  1  1
 37 46  1  6
 17 36  1  0
M  ISO  8  19  14  20  14  21  14  22  14  23  14  24  14  25  14  28   8
M  ISO  1  31   8
M  END
>  <DihAtoms>  (1) 
15,16,35,33

>  <DihDeg>  (1) 
60.68440680902279

$$$$
