REMARK  Name = 
REMARK  6 active torsions:
REMARK  status: ('A' for Active; 'I' for Inactive)
REMARK    1  A    between atoms: C_1  and  C_2
REMARK    2  A    between atoms: C_1  and  C_13
REMARK    3  A    between atoms: C_13  and  C_18
REMARK    4  A    between atoms: C_16  and  C_36
REMARK    5  A    between atoms: C_36  and  C_37
REMARK    6  A    between atoms: C_37  and  C_38
REMARK                            x       y       z     vdW  Elec       q    Type
REMARK                         _______ _______ _______ _____ _____    ______ ____
ROOT
ATOM      1  C   UNL     1      34.826  28.373  49.416  0.00  0.00    +0.000 C 
ATOM      2  H   UNL     1      34.798  27.507  50.139  0.00  0.00    +0.000 HD
ATOM      3  H   UNL     1      35.727  28.176  48.796  0.00  0.00    +0.000 HD
ENDROOT
BRANCH   1   4
ATOM      4  C   UNL     1      33.590  28.319  48.556  0.00  0.00    +0.000 A 
ATOM      5  C   UNL     1      33.672  28.714  47.177  0.00  0.00    +0.000 A 
ATOM      6  S   UNL     1      32.000  28.469  46.646  0.00  0.00    +0.000 S 
ATOM      7  C   UNL     1      31.398  27.871  48.326  0.00  0.00    +0.000 A 
ATOM      8  N   UNL     1      32.410  27.937  48.948  0.00  0.00    +0.000 NA
ATOM      9  N   UNL     1      30.085  27.442  48.775  0.00  0.00    +0.000 N 
ATOM     10  C   UNL     1      29.255  26.811  47.803  0.00  0.00    +0.000 C 
ATOM     11  C   UNL     1      27.796  26.808  48.153  0.00  0.00    +0.000 C 
ATOM     12  N   UNL     1      27.482  27.538  49.366  0.00  0.00    +0.000 NA
ATOM     13  C   UNL     1      28.376  27.045  50.398  0.00  0.00    +0.000 C 
ATOM     14  C   UNL     1      29.715  27.681  50.157  0.00  0.00    +0.000 C 
ATOM     15  H   UNL     1      34.530  29.053  46.667  0.00  0.00    +0.000 HD
ATOM     16  H   UNL     1      29.455  27.247  46.784  0.00  0.00    +0.000 HD
ATOM     17  H   UNL     1      29.583  25.754  47.711  0.00  0.00    +0.000 HD
ATOM     18  H   UNL     1      27.164  27.251  47.341  0.00  0.00    +0.000 HD
ATOM     19  H   UNL     1      27.392  25.781  48.277  0.00  0.00    +0.000 HD
ATOM     20  H   UNL     1      26.505  27.259  49.629  0.00  0.00    +0.000 HD
ATOM     21  H   UNL     1      28.476  25.942  50.337  0.00  0.00    +0.000 HD
ATOM     22  H   UNL     1      27.982  27.384  51.388  0.00  0.00    +0.000 HD
ATOM     23  H   UNL     1      30.525  27.257  50.810  0.00  0.00    +0.000 HD
ATOM     24  H   UNL     1      29.636  28.783  50.359  0.00  0.00    +0.000 HD
ENDBRANCH   1   4
BRANCH   1  25
ATOM     25  C   UNL     1      34.956  29.666  50.123  0.00  0.00    +0.000 C 
ATOM     26  H   UNL     1      35.274  29.453  51.184  0.00  0.00    +0.000 HD
ATOM     27  H   UNL     1      34.049  30.305  50.122  0.00  0.00    +0.000 HD
BRANCH  25  32
ATOM     28  C   UNL     1      37.513  32.293  49.549  0.00  0.00    +0.000 A 
ATOM     29  C   UNL     1      38.286  31.748  48.524  0.00  0.00    +0.000 A 
ATOM     30  C   UNL     1      37.929  30.478  48.029  0.00  0.00    +0.000 A 
ATOM     31  N   UNL     1      36.852  29.869  48.587  0.00  0.00    +0.000 NA
ATOM     32  C   UNL     1      36.138  30.441  49.578  0.00  0.00    +0.000 A 
ATOM     33  N   UNL     1      36.462  31.634  50.053  0.00  0.00    +0.000 NA
ATOM     34  H   UNL     1      37.806  33.270  49.914  0.00  0.00    +0.000 HD
ATOM     35  H   UNL     1      39.145  32.214  48.066  0.00  0.00    +0.000 HD
BRANCH  30  36
ATOM     36  C   UNL     1      38.620  29.755  46.963  0.00  0.00    +0.000 C 
BRANCH  36  37
ATOM     37  C   UNL     1      39.800  30.442  46.363  0.00  0.00    +0.000 C 
ATOM     38  C   UNL     1      39.524  31.808  45.816  0.00  0.00    +0.000 C 
ATOM     39  N   UNL     1      39.824  32.778  46.834  0.00  0.00    +0.000 N 
ATOM     40  C   UNL     1      39.781  33.840  47.793  0.00  0.00    +0.000 C 
ATOM     41  O   UNL     1      38.885  34.720  47.940  0.00  0.00    +0.000 OA
ATOM     42  C   UNL     1      41.075  33.464  48.418  0.00  0.00    +0.000 C 
ATOM     43  H   UNL     1      41.759  34.356  48.317  0.00  0.00    +0.000 HD
ATOM     44  C   UNL     1      41.224  32.575  47.239  0.00  0.00    +0.000 C 
ATOM     45  S   UNL     1      41.109  30.773  47.581  0.00  0.00    +0.000 S 
BRANCH  37  46
ATOM     46  C   UNL     1      40.403  29.572  45.281  0.00  0.00    +0.000 C 
ATOM     47  H   UNL     1      40.818  30.235  44.495  0.00  0.00    +0.000 HD
ENDBRANCH  37  46
ENDBRANCH  36  37
ENDBRANCH  30  36
ENDBRANCH  25  32
ENDBRANCH   1  25
TORSDOF 6
