
     RDKit          3D

 55 59  0  0  0  0  0  0  0  0999 V2000
   37.6823   31.0380   47.9341 C   0  0  0  0  0  0  0  0  0  0  0  0
   36.9928   30.8010   46.7601 C   0  0  0  0  0  0  0  0  0  0  0  0
   37.6792   31.4667   45.7335 C   0  0  0  0  0  0  0  0  0  0  0  0
   38.7218   32.0605   46.3116 N   0  0  0  0  0  0  0  0  0  0  0  0
   38.7194   31.8013   47.6250 N   0  0  0  0  0  0  0  0  0  0  0  0
   37.4116   30.1238   51.5701 C   0  0  0  0  0  0  0  0  0  0  0  0
   37.9290   30.6930   50.4033 C   0  0  0  0  0  0  0  0  0  0  0  0
   37.2647   30.5059   49.2036 C   0  0  0  0  0  0  0  0  0  0  0  0
   36.1265   29.7564   49.2752 N   0  0  0  0  0  0  0  0  0  0  0  0
   35.6441   29.2161   50.4113 C   0  0  0  0  0  0  0  0  0  0  0  0
   36.3004   29.4105   51.5493 N   0  0  0  0  0  0  0  0  0  0  0  0
   39.6854   32.8709   45.5893 C   0  0  0  0  0  0  0  0  0  0  0  0
   40.6178   32.0239   44.8547 C   0  0  0  0  0  0  0  0  0  0  0  0
   40.3845   31.7828   43.4903 N   0  0  0  0  0  0  0  0  0  0  0  0
   39.5324   32.6856   42.8255 C   0  0  0  0  0  0  0  0  0  0  0  0
   38.2594   32.1407   42.2880 C   0  0  0  0  0  0  0  0  0  0  0  0
   38.4175   30.8771   41.7068 O   0  0  0  0  0  0  0  0  0  0  0  0
   38.9840   30.0203   42.5844 C   0  0  0  0  0  0  0  0  0  0  0  0
   40.3620   30.4805   43.0050 C   0  0  1  0  0  0  0  0  0  0  0  0
   36.0703   30.1951   46.6641 H   0  0  0  0  0  0  0  0  0  0  0  0
   37.2729   31.3727   44.7947 H   0  0  0  0  0  0  0  0  0  0  0  0
   38.0099   30.3312   52.4577 H   0  0  0  0  0  0  0  0  0  0  0  0
   38.8294   31.2885   50.3323 H   0  0  0  0  0  0  0  0  0  0  0  0
   34.7284   28.6482   50.2950 H   0  0  0  0  0  0  0  0  0  0  0  0
   39.1015   33.6528   45.1242 H   0  0  0  0  0  0  0  0  0  0  0  0
   40.2773   33.4347   46.3778 H   0  0  0  0  0  0  0  0  0  0  0  0
   41.6629   32.3658   45.0039 H   0  0  0  0  0  0  0  0  0  0  0  0
   40.6206   31.0019   45.3476 H   0  0  0  0  0  0  0  0  0  0  0  0
   40.1872   32.8478   41.8989 H   0  0  0  0  0  0  0  0  0  0  0  0
   39.4392   33.7034   43.1454 H   0  0  0  0  0  0  0  0  0  0  0  0
   38.0972   32.7442   41.3110 H   0  0  0  0  0  0  0  0  0  0  0  0
   37.3239   32.3734   42.7458 H   0  0  0  0  0  0  0  0  0  0  0  0
   38.3685   29.5821   43.3638 H   0  0  0  0  0  0  0  0  0  0  0  0
   39.2214   29.1209   41.9637 H   0  0  0  0  0  0  0  0  0  0  0  0
   40.5773   29.8231   43.8844 H   0  0  0  0  0  0  0  0  0  0  0  0
   41.3642   30.1737   41.9193 C   0  0  0  0  0  0  0  0  0  0  0  0
   41.0969   28.9291   41.1872 C   0  0  1  0  0  0  0  0  0  0  0  0
   41.1015   27.6494   41.9379 C   0  0  0  0  0  0  0  0  0  0  0  0
   41.3677   27.7391   42.9945 H   0  0  0  0  0  0  0  0  0  0  0  0
   39.7379   29.0620   40.4638 C   0  0  0  0  0  0  0  0  0  0  0  0
   39.7208   27.9785   39.4984 N   0  0  0  0  0  0  0  0  0  0  0  0
   39.5038   26.7923   38.7111 C   0  0  0  0  0  0  0  0  0  0  0  0
   38.6009   25.9167   38.7331 O   0  0  0  0  0  0  0  0  0  0  0  0
   40.7493   27.0540   37.9123 C   0  0  1  0  0  0  0  0  0  0  0  0
   41.5688   26.3805   38.1558 H   0  0  0  0  0  0  0  0  0  0  0  0
   40.7287   28.4150   38.5256 C   0  0  2  0  0  0  0  0  0  0  0  0
   42.1064   28.8028   39.6542 S   0  0  0  0  0  0  0  0  0  0  0  0
   41.3180   31.0152   41.1712 H   0  0  0  0  0  0  0  0  0  0  0  0
   42.4088   30.1547   42.3286 H   0  0  0  0  0  0  0  0  0  0  0  0
   40.1025   27.1549   41.8536 H   0  0  0  0  0  0  0  0  0  0  0  0
   41.8060   26.9023   41.4565 H   0  0  0  0  0  0  0  0  0  0  0  0
   39.7903   30.0008   39.9018 H   0  0  0  0  0  0  0  0  0  0  0  0
   38.8912   28.9813   41.1557 H   0  0  0  0  0  0  0  0  0  0  0  0
   40.5143   27.0249   36.8088 H   0  0  0  0  0  0  0  0  0  0  0  0
   40.3960   29.2436   37.8779 H   0  0  0  0  0  0  0  0  0  0  0  0
  1  8  1  0
  2  1  1  0
  3  4  1  0
  3  2  2  0
  4  5  1  0
  5  1  2  0
  7  6  2  0
  8  9  2  0
  8  7  1  0
  9 10  1  0
 10 11  2  0
 11  6  1  0
 12  4  1  0
 13 12  1  0
 14 13  1  0
 15 14  1  0
 16 15  1  0
 17 16  1  0
 17 18  1  0
 18 19  1  0
 19 14  1  0
  2 20  1  0
  3 21  1  0
  6 22  1  0
  7 23  1  0
 10 24  1  0
 12 25  1  0
 12 26  1  0
 13 27  1  0
 13 28  1  0
 15 29  1  0
 15 30  1  0
 16 31  1  0
 16 32  1  0
 18 33  1  0
 18 34  1  0
 19 35  1  1
 37 36  1  1
 37 38  1  0
 38 39  1  0
 37 40  1  0
 40 41  1  0
 41 42  1  0
 42 43  2  0
 42 44  1  0
 44 45  1  6
 44 46  1  0
 46 47  1  0
 47 37  1  0
 46 41  1  0
 36 48  1  0
 36 49  1  0
 38 50  1  0
 38 51  1  0
 40 52  1  0
 40 53  1  0
 44 54  1  0
 46 55  1  6
 19 36  1  0
M  ISO  8  20  14  21  14  22  14  23  14  24  14  25   8  26   8  27   8
M  ISO  8  28   8  29  13  30  13  31  13  32  13  33  13  34  13  35  13
M  ISO  2  39   8  45  15
M  END
>  <DihAtoms>  (1) 
17,18,35,36

>  <DihDeg>  (1) 
-169.8419988726837

$$$$
