
 OpenBabel03272507323D

 39 43  0  0  1  0  0  0  0  0999 V2000
   33.0010   27.6960   48.1940 C   0  0  0  0  0  0  0  0  0  0  0  0
   31.7590   27.7860   48.4720 O   0  0  0  0  0  0  0  0  0  0  0  0
   35.8490   29.1520   49.7930 C   0  0  0  0  0  0  0  0  0  0  0  0
   34.8750   29.5840   50.6650 C   0  0  0  0  0  0  0  0  0  0  0  0
   33.6470   29.1010   50.1930 C   0  0  0  0  0  0  0  0  0  0  0  0
   33.9570   28.3960   49.0490 C   0  0  0  0  0  0  0  0  0  0  0  0
   35.2560   28.4540   48.8560 O   0  0  0  0  0  0  0  0  0  0  0  0
   34.9470   30.1860   51.5690 H   0  0  0  0  0  0  0  0  0  0  0  0
   32.6510   29.2090   50.5720 H   0  0  0  0  0  0  0  0  0  0  0  0
   37.2560   29.4720   49.9790 C   0  0  0  0  0  0  0  0  0  0  0  0
   37.9200   28.8300   50.8030 O   0  0  0  0  0  0  0  0  0  0  0  0
   37.7940   30.5340   49.1750 C   0  0  0  0  0  0  0  0  0  0  0  0
   38.1280   31.7090   49.8260 C   0  0  0  0  0  0  0  0  0  0  0  0
   38.6520   32.7640   49.0740 C   0  0  0  0  0  0  0  0  0  0  0  0
   38.8100   32.5770   47.7180 N   0  0  0  0  0  0  0  0  0  0  0  0
   38.4750   31.4270   47.1250 C   0  0  0  0  0  0  0  0  0  0  0  0
   37.9710   30.4100   47.8400 N   0  0  0  0  0  0  0  0  0  0  0  0
   37.9840   31.8040   50.8980 H   0  0  0  0  0  0  0  0  0  0  0  0
   38.9040   33.6650   49.6080 H   0  0  0  0  0  0  0  0  0  0  0  0
   38.6390   31.3900   46.0600 H   0  0  0  0  0  0  0  0  0  0  0  0
   33.4760   26.8870   47.0240 C   0  0  1  0  0  0  0  0  0  0  0  0
   33.6910   25.3860   47.4610 C   0  0  0  0  0  0  0  0  0  0  0  0
   32.6700   25.8050   46.4690 C   0  0  1  0  0  0  0  0  0  0  0  0
   34.4420   27.2380   46.6130 H   0  0  0  0  0  0  0  0  0  0  0  0
   34.5900   24.8830   47.1200 H   0  0  0  0  0  0  0  0  0  0  0  0
   33.3310   25.0930   48.4440 H   0  0  0  0  0  0  0  0  0  0  0  0
   32.9180   25.5370   45.4000 H   0  0  0  0  0  0  0  0  0  0  0  0
   31.2400   25.5940   46.8110 C   0  0  0  0  0  2  0  0  0  0  0  0
   30.3410   25.8350   45.6110 C   0  0  2  0  0  0  0  0  0  0  0  0
   28.9950   25.2510   45.9340 C   0  0  0  0  0  2  0  0  0  0  0  0
   28.5050   24.5270   44.8000 N   0  0  0  0  0  0  0  0  0  0  0  0
   27.7270   24.0370   43.7120 C   0  0  0  0  0  0  0  0  0  0  0  0
   26.5470   24.1750   43.2920 O   0  0  0  0  0  0  0  0  0  0  0  0
   28.8320   23.2200   43.1490 C   0  0  0  0  0  3  0  0  0  0  0  0
   29.3570   23.6330   42.2770 H   0  0  0  0  0  0  0  0  0  0  0  0
   29.5140   23.5180   44.4370 C   0  0  1  0  0  3  0  0  0  0  0  0
   30.9410   24.6720   44.3240 S   0  0  0  0  0  0  0  0  0  0  0  0
   30.3260   27.2410   45.1350 C   0  0  0  0  0  2  0  0  0  0  0  0
   31.1730   27.4630   44.4640 H   0  0  0  0  0  0  0  0  0  0  0  0
  1  2  2  0  0  0  0
  1  6  1  0  0  0  0
  3 10  1  0  0  0  0
  3  4  2  0  0  0  0
  4  8  1  0  0  0  0
  5  9  1  0  0  0  0
  5  4  1  0  0  0  0
  6  5  2  0  0  0  0
  7  6  1  0  0  0  0
  7  3  1  0  0  0  0
 10 11  2  0  0  0  0
 12 13  1  0  0  0  0
 12 10  1  0  0  0  0
 13 18  1  0  0  0  0
 14 19  1  0  0  0  0
 14 13  2  0  0  0  0
 15 14  1  0  0  0  0
 16 15  2  0  0  0  0
 16 17  1  0  0  0  0
 17 12  2  0  0  0  0
 20 16  1  0  0  0  0
 21 24  1  6  0  0  0
 21 22  1  0  0  0  0
 21  1  1  0  0  0  0
 22 26  1  0  0  0  0
 23 27  1  6  0  0  0
 23 28  1  0  0  0  0
 23 21  1  0  0  0  0
 23 22  1  0  0  0  0
 25 22  1  0  0  0  0
 29 38  1  6  0  0  0
 29 30  1  0  0  0  0
 29 28  1  0  0  0  0
 31 30  1  0  0  0  0
 32 31  1  0  0  0  0
 33 32  2  0  0  0  0
 34 32  1  0  0  0  0
 35 34  1  0  0  0  0
 36 34  1  6  0  0  0
 36 31  1  0  0  0  0
 37 36  1  0  0  0  0
 37 29  1  0  0  0  0
 39 38  1  0  0  0  0
M  END
>  <minimizedAffinity>
-5.35458708

>  <minimizedRMSD>
0.400639951

$$$$
