
 OpenBabel03272508373D

 47 51  0  0  1  0  0  0  0  0999 V2000
   39.9990   32.0350   42.9400 N   0  0  0  0  0  0  0  0  0  0  0  0
   39.3040   33.2390   42.7120 C   0  0  0  0  0  0  0  0  0  0  0  0
   37.8950   33.1280   42.2550 C   0  0  0  0  0  0  0  0  0  0  0  0
   37.7120   32.1060   41.3160 O   0  0  0  0  0  0  0  0  0  0  0  0
   38.1610   30.9290   41.8040 C   0  0  0  0  0  0  0  0  0  0  0  0
   39.6420   30.9780   42.1100 C   0  0  1  0  0  0  0  0  0  0  0  0
   39.8820   33.5650   41.7780 H   0  0  0  0  0  0  0  0  0  0  0  0
   39.4690   34.1020   43.3220 H   0  0  0  0  0  0  0  0  0  0  0  0
   37.7730   34.0280   41.5330 H   0  0  0  0  0  0  0  0  0  0  0  0
   37.0840   33.3670   42.9060 H   0  0  0  0  0  0  0  0  0  0  0  0
   37.5450   30.3850   42.5140 H   0  0  0  0  0  0  0  0  0  0  0  0
   38.1320   30.2450   40.9210 H   0  0  0  0  0  0  0  0  0  0  0  0
   39.7940   30.0500   42.7150 H   0  0  0  0  0  0  0  0  0  0  0  0
   40.4150   31.7870   44.2600 C   0  0  0  0  0  0  0  0  0  0  0  0
   41.5230   31.7360   44.3020 H   0  0  0  0  0  0  0  0  0  0  0  0
   40.1100   30.7160   44.4780 H   0  0  0  0  0  0  0  0  0  0  0  0
   39.8930   32.6270   45.3310 C   0  0  0  0  0  0  0  0  0  0  0  0
   39.4890   33.6160   45.1670 H   0  0  0  0  0  0  0  0  0  0  0  0
   40.7400   32.8210   46.0630 H   0  0  0  0  0  0  0  0  0  0  0  0
   37.7640   31.0190   47.7290 C   0  0  0  0  0  0  0  0  0  0  0  0
   37.0340   30.8400   46.5700 C   0  0  0  0  0  0  0  0  0  0  0  0
   37.7630   31.4270   45.5240 C   0  0  0  0  0  0  0  0  0  0  0  0
   38.8690   31.9200   46.0790 N   0  0  0  0  0  0  0  0  0  0  0  0
   38.8650   31.6740   47.3950 N   0  0  0  0  0  0  0  0  0  0  0  0
   36.0550   30.3260   46.4960 H   0  0  0  0  0  0  0  0  0  0  0  0
   37.3320   31.3650   44.5950 H   0  0  0  0  0  0  0  0  0  0  0  0
   37.3960   30.2910   51.3990 C   0  0  0  0  0  0  0  0  0  0  0  0
   37.9350   30.8150   50.2200 C   0  0  0  0  0  0  0  0  0  0  0  0
   37.3200   30.5410   49.0120 C   0  0  0  0  0  0  0  0  0  0  0  0
   36.2070   29.7560   49.0850 N   0  0  0  0  0  0  0  0  0  0  0  0
   35.7020   29.2600   50.2320 C   0  0  0  0  0  0  0  0  0  0  0  0
   36.3100   29.5380   51.3790 N   0  0  0  0  0  0  0  0  0  0  0  0
   37.9550   30.5670   52.2940 H   0  0  0  0  0  0  0  0  0  0  0  0
   38.8160   31.4370   50.1470 H   0  0  0  0  0  0  0  0  0  0  0  0
   34.8110   28.6550   50.1170 H   0  0  0  0  0  0  0  0  0  0  0  0
   40.4380   30.8570   40.8340 C   0  0  0  0  0  2  0  0  0  0  0  0
   40.8910   29.4920   40.5350 C   0  0  1  0  0  0  0  0  0  0  0  0
   39.8990   28.8490   39.5410 C   0  0  0  0  0  2  0  0  0  0  0  0
   40.5910   27.6810   39.0250 N   0  0  0  0  0  0  0  0  0  0  0  0
   41.0860   26.3770   38.6660 C   0  0  0  0  0  0  0  0  0  0  0  0
   40.6000   25.2240   38.7960 O   0  0  0  0  0  0  0  0  0  0  0  0
   42.3470   26.9730   38.1070 C   0  0  0  0  0  3  0  0  0  0  0  0
   43.2200   26.8010   38.7340 H   0  0  0  0  0  0  0  0  0  0  0  0
   41.6410   28.2850   38.1970 C   0  0  2  0  0  3  0  0  0  0  0  0
   42.3290   29.4820   39.3880 S   0  0  0  0  0  0  0  0  0  0  0  0
   41.0990   28.5510   41.6630 C   0  0  0  0  0  2  0  0  0  0  0  0
   40.9460   28.9830   42.6540 H   0  0  0  0  0  0  0  0  0  0  0  0
  1 14  1  0  0  0  0
  2  1  1  0  0  0  0
  2  8  1  0  0  0  0
  3  2  1  0  0  0  0
  3 10  1  0  0  0  0
  4  5  1  0  0  0  0
  4  3  1  0  0  0  0
  5  6  1  0  0  0  0
  5 11  1  0  0  0  0
  6 13  1  1  0  0  0
  6  1  1  0  0  0  0
  7  2  1  0  0  0  0
  9  3  1  0  0  0  0
 12  5  1  0  0  0  0
 14 15  1  0  0  0  0
 14 16  1  0  0  0  0
 14 17  1  0  0  0  0
 17 19  1  0  0  0  0
 17 23  1  0  0  0  0
 18 17  1  0  0  0  0
 20 29  1  0  0  0  0
 21 20  1  0  0  0  0
 22 23  1  0  0  0  0
 22 21  2  0  0  0  0
 23 24  1  0  0  0  0
 24 20  2  0  0  0  0
 25 21  1  0  0  0  0
 26 22  1  0  0  0  0
 27 33  1  0  0  0  0
 28 27  2  0  0  0  0
 29 30  2  0  0  0  0
 29 28  1  0  0  0  0
 30 31  1  0  0  0  0
 31 32  2  0  0  0  0
 32 27  1  0  0  0  0
 34 28  1  0  0  0  0
 35 31  1  0  0  0  0
 36  6  1  0  0  0  0
 37 36  1  1  0  0  0
 37 46  1  0  0  0  0
 38 37  1  0  0  0  0
 39 38  1  0  0  0  0
 40 41  2  0  0  0  0
 40 39  1  0  0  0  0
 42 40  1  0  0  0  0
 42 43  1  0  0  0  0
 44 42  1  1  0  0  0
 44 39  1  0  0  0  0
 44 45  1  0  0  0  0
 45 37  1  0  0  0  0
 46 47  1  0  0  0  0
M  END
>  <minimizedAffinity>
-5.6697216

>  <minimizedRMSD>
1.17202425

$$$$
