
 OpenBabel03272508363D

 47 51  0  0  1  0  0  0  0  0999 V2000
   39.9970   32.0420   42.9780 N   0  0  0  0  0  0  0  0  0  0  0  0
   39.2530   33.2260   42.8070 C   0  0  0  0  0  0  0  0  0  0  0  0
   37.8490   33.0790   42.3460 C   0  0  0  0  0  0  0  0  0  0  0  0
   37.7050   32.0950   41.3600 O   0  0  0  0  0  0  0  0  0  0  0  0
   38.2030   30.9160   41.7920 C   0  0  0  0  0  0  0  0  0  0  0  0
   39.6810   31.0110   42.0990 C   0  0  1  0  0  0  0  0  0  0  0  0
   39.8160   33.6190   41.8890 H   0  0  0  0  0  0  0  0  0  0  0  0
   39.3850   34.0650   43.4570 H   0  0  0  0  0  0  0  0  0  0  0  0
   37.6880   34.0060   41.6680 H   0  0  0  0  0  0  0  0  0  0  0  0
   37.0310   33.2540   43.0080 H   0  0  0  0  0  0  0  0  0  0  0  0
   37.6110   30.3140   42.4760 H   0  0  0  0  0  0  0  0  0  0  0  0
   38.1990   30.2730   40.8780 H   0  0  0  0  0  0  0  0  0  0  0  0
   39.8720   30.0630   42.6590 H   0  0  0  0  0  0  0  0  0  0  0  0
   40.4260   31.7490   44.2840 C   0  0  0  0  0  0  0  0  0  0  0  0
   41.5330   31.6810   44.3110 H   0  0  0  0  0  0  0  0  0  0  0  0
   40.1100   30.6760   44.4740 H   0  0  0  0  0  0  0  0  0  0  0  0
   39.9290   32.5630   45.3860 C   0  0  0  0  0  0  0  0  0  0  0  0
   39.5320   33.5600   45.2560 H   0  0  0  0  0  0  0  0  0  0  0  0
   40.7890   32.7290   46.1100 H   0  0  0  0  0  0  0  0  0  0  0  0
   37.8090   30.9310   47.7770 C   0  0  0  0  0  0  0  0  0  0  0  0
   37.0850   30.7450   46.6150 C   0  0  0  0  0  0  0  0  0  0  0  0
   37.8110   31.3400   45.5720 C   0  0  0  0  0  0  0  0  0  0  0  0
   38.9100   31.8450   46.1310 N   0  0  0  0  0  0  0  0  0  0  0  0
   38.9030   31.5980   47.4460 N   0  0  0  0  0  0  0  0  0  0  0  0
   36.1110   30.2210   46.5370 H   0  0  0  0  0  0  0  0  0  0  0  0
   37.3840   31.2740   44.6400 H   0  0  0  0  0  0  0  0  0  0  0  0
   37.4350   30.1990   51.4450 C   0  0  0  0  0  0  0  0  0  0  0  0
   37.9720   30.7300   50.2680 C   0  0  0  0  0  0  0  0  0  0  0  0
   37.3660   30.4480   49.0570 C   0  0  0  0  0  0  0  0  0  0  0  0
   36.2610   29.6500   49.1270 N   0  0  0  0  0  0  0  0  0  0  0  0
   35.7580   29.1480   50.2720 C   0  0  0  0  0  0  0  0  0  0  0  0
   36.3590   29.4330   51.4210 N   0  0  0  0  0  0  0  0  0  0  0  0
   37.9870   30.4810   52.3420 H   0  0  0  0  0  0  0  0  0  0  0  0
   38.8460   31.3620   50.1990 H   0  0  0  0  0  0  0  0  0  0  0  0
   34.8740   28.5320   50.1530 H   0  0  0  0  0  0  0  0  0  0  0  0
   40.4790   30.9830   40.8180 C   0  0  0  0  0  2  0  0  0  0  0  0
   41.0900   29.6820   40.5190 C   0  0  1  0  0  0  0  0  0  0  0  0
   40.1190   28.8700   39.6330 C   0  0  0  0  0  2  0  0  0  0  0  0
   40.9220   27.7880   39.0930 N   0  0  0  0  0  0  0  0  0  0  0  0
   41.5620   26.5500   38.7280 C   0  0  0  0  0  0  0  0  0  0  0  0
   41.2530   25.3470   38.9320 O   0  0  0  0  0  0  0  0  0  0  0  0
   42.6790   27.2880   38.0470 C   0  0  0  0  0  3  0  0  0  0  0  0
   43.6150   27.2630   38.6010 H   0  0  0  0  0  0  0  0  0  0  0  0
   41.8070   28.4960   38.1610 C   0  0  2  0  0  3  0  0  0  0  0  0
   42.4180   29.8210   39.2530 S   0  0  0  0  0  0  0  0  0  0  0  0
   41.5180   28.8210   41.6510 C   0  0  0  0  0  2  0  0  0  0  0  0
   41.3880   29.2680   42.6400 H   0  0  0  0  0  0  0  0  0  0  0  0
  1 14  1  0  0  0  0
  2  1  1  0  0  0  0
  2  8  1  0  0  0  0
  3  2  1  0  0  0  0
  3 10  1  0  0  0  0
  4  5  1  0  0  0  0
  4  3  1  0  0  0  0
  5  6  1  0  0  0  0
  5 11  1  0  0  0  0
  6 13  1  1  0  0  0
  6  1  1  0  0  0  0
  7  2  1  0  0  0  0
  9  3  1  0  0  0  0
 12  5  1  0  0  0  0
 14 15  1  0  0  0  0
 14 16  1  0  0  0  0
 14 17  1  0  0  0  0
 17 19  1  0  0  0  0
 17 23  1  0  0  0  0
 18 17  1  0  0  0  0
 20 29  1  0  0  0  0
 21 20  1  0  0  0  0
 22 23  1  0  0  0  0
 22 21  2  0  0  0  0
 23 24  1  0  0  0  0
 24 20  2  0  0  0  0
 25 21  1  0  0  0  0
 26 22  1  0  0  0  0
 27 33  1  0  0  0  0
 28 27  2  0  0  0  0
 29 30  2  0  0  0  0
 29 28  1  0  0  0  0
 30 31  1  0  0  0  0
 31 32  2  0  0  0  0
 32 27  1  0  0  0  0
 34 28  1  0  0  0  0
 35 31  1  0  0  0  0
 36  6  1  0  0  0  0
 37 36  1  1  0  0  0
 37 46  1  0  0  0  0
 38 37  1  0  0  0  0
 39 38  1  0  0  0  0
 40 41  2  0  0  0  0
 40 39  1  0  0  0  0
 42 43  1  0  0  0  0
 42 40  1  0  0  0  0
 44 42  1  1  0  0  0
 44 39  1  0  0  0  0
 44 45  1  0  0  0  0
 45 37  1  0  0  0  0
 46 47  1  0  0  0  0
M  END
>  <minimizedAffinity>
-5.85911512

>  <minimizedRMSD>
1.0611378

$$$$
