
 OpenBabel03272500223D

 40 44  0  0  1  0  0  0  0  0999 V2000
   35.3550   29.3830   50.3020 C   0  0  0  0  0  0  0  0  0  0  0  0
   36.3530   30.2030   49.6990 C   0  0  0  0  0  0  0  0  0  0  0  0
   36.4020   30.3010   48.3060 C   0  0  0  0  0  0  0  0  0  0  0  0
   35.4630   29.5860   47.6150 N   0  0  0  0  0  0  0  0  0  0  0  0
   34.5500   28.8360   48.1690 C   0  0  0  0  0  0  0  0  0  0  0  0
   34.4780   28.7200   49.5080 N   0  0  0  0  0  0  0  0  0  0  0  0
   35.3040   29.2960   51.3790 H   0  0  0  0  0  0  0  0  0  0  0  0
   32.8520   30.5550   46.3390 Cl  0  0  0  0  0  0  0  0  0  0  0  0
   32.7640   28.7960   46.4300 C   0  0  0  0  0  0  0  0  0  0  0  0
   33.5950   28.1120   47.3080 C   0  0  0  0  0  0  0  0  0  0  0  0
   33.5690   26.7140   47.4220 C   0  0  0  0  0  0  0  0  0  0  0  0
   32.6560   26.0590   46.5970 C   0  0  0  0  0  0  0  0  0  0  0  0
   31.8280   26.7130   45.7240 C   0  0  0  0  0  0  0  0  0  0  0  0
   30.7320   25.7620   44.7500 Cl  0  0  0  0  0  0  0  0  0  0  0  0
   31.8870   28.0990   45.6430 C   0  0  0  0  0  0  0  0  0  0  0  0
   34.2190   26.1850   48.1080 H   0  0  0  0  0  0  0  0  0  0  0  0
   32.6250   24.9810   46.6740 H   0  0  0  0  0  0  0  0  0  0  0  0
   31.0000   28.8260   44.7070 C   0  0  0  0  0  0  0  0  0  0  0  0
   30.1420   27.9210   44.0610 F   0  0  0  0  0  0  0  0  0  0  0  0
   31.6980   29.5400   43.7860 F   0  0  0  0  0  0  0  0  0  0  0  0
   30.1950   29.6910   45.4080 F   0  0  0  0  0  0  0  0  0  0  0  0
   37.3100   30.9240   50.5990 C   0  0  0  0  0  0  0  0  0  0  0  0
   38.6170   30.7970   50.1460 F   0  0  0  0  0  0  0  0  0  0  0  0
   36.9910   32.2690   50.5540 F   0  0  0  0  0  0  0  0  0  0  0  0
   37.2250   30.5190   51.9080 F   0  0  0  0  0  0  0  0  0  0  0  0
   37.4150   31.1420   47.6780 C   0  0  0  0  0  0  0  0  0  0  0  0
   36.9820   32.1630   47.5570 H   0  0  0  0  0  0  0  0  0  0  0  0
   38.3850   31.1700   48.2190 H   0  0  0  0  0  0  0  0  0  0  0  0
   37.2460   31.1010   42.5900 C   0  0  0  0  0  0  0  0  0  0  0  0
   38.5350   30.7140   43.1870 C   0  0  0  0  0  2  0  0  0  0  0  0
   38.5890   30.9620   44.5680 N   0  0  2  0  0  0  0  0  0  0  0  0
   39.1040   31.0690   45.8870 C   0  0  2  0  0  0  0  0  0  0  0  0
   40.2480   31.4490   46.3070 O   0  0  0  0  0  1  0  0  0  0  0  0
   37.7460   30.5650   46.3210 C   0  0  2  0  0  3  0  0  0  0  0  0
   37.3500   31.4170   45.1820 C   0  0  2  0  0  0  0  0  0  0  0  0
   36.1210   30.7830   44.0160 S   0  0  0  0  0  0  0  0  0  0  0  0
   36.8420   30.2570   41.4090 C   0  0  0  0  0  2  0  0  0  0  0  0
   37.0590   29.2070   41.6740 H   0  0  0  0  0  0  0  0  0  0  0  0
   37.2560   32.5840   42.2990 C   0  0  0  0  0  2  0  0  0  0  0  0
   37.1630   33.0940   43.3000 H   0  0  0  0  0  0  0  0  0  0  0  0
  1  7  1  0  0  0  0
  2  1  1  0  0  0  0
  2 22  1  0  0  0  0
  3  2  2  0  0  0  0
  4  5  2  0  0  0  0
  4  3  1  0  0  0  0
  5  6  1  0  0  0  0
  6  1  2  0  0  0  0
  8  9  1  0  0  0  0
  9 10  1  0  0  0  0
 10 11  2  0  0  0  0
 10  5  1  0  0  0  0
 11 16  1  0  0  0  0
 12 17  1  0  0  0  0
 12 11  1  0  0  0  0
 13 12  2  0  0  0  0
 14 13  1  0  0  0  0
 15 13  1  0  0  0  0
 15  9  2  0  0  0  0
 18 21  1  0  0  0  0
 18 15  1  0  0  0  0
 19 18  1  0  0  0  0
 20 18  1  0  0  0  0
 22 25  1  0  0  0  0
 23 22  1  0  0  0  0
 24 22  1  0  0  0  0
 26 28  1  0  0  0  0
 26  3  1  0  0  0  0
 27 26  1  0  0  0  0
 29 30  1  0  0  0  0
 29 36  1  0  0  0  0
 31 30  1  1  0  0  0
 31 35  1  0  0  0  0
 31 32  1  0  0  0  0
 32 33  1  1  0  0  0
 32 34  1  0  0  0  0
 34 26  1  1  0  0  0
 35 36  1  6  0  0  0
 35 32  1  0  0  0  0
 35 34  1  0  0  0  0
 37 38  1  0  0  0  0
 37 29  1  0  0  0  0
 39 29  1  0  0  0  0
 39 40  1  0  0  0  0
M  END
>  <minimizedAffinity>
-6.57065725

>  <minimizedRMSD>
1.61863554

$$$$
