
 OpenBabel03262522003D

 23 25  0  0  1  0  0  0  0  0999 V2000
   34.5380   29.0640   48.7240 C   0  0  0  0  0  0  0  0  0  0  0  0
   35.1840   28.3630   49.8720 C   0  0  0  0  0  2  0  0  0  0  0  0
   36.3310   29.1390   50.3040 N   0  0  0  0  0  0  0  0  0  0  0  0
   37.2630   29.8740   51.0920 C   0  0  0  0  0  0  0  0  0  0  0  0
   37.4940   30.0920   52.3090 O   0  0  0  0  0  0  0  0  0  0  0  0
   37.9920   30.3870   49.9010 C   0  0  1  0  0  3  0  0  0  0  0  0
   37.1980   29.3740   49.1620 C   0  0  2  0  0  3  0  0  0  0  0  0
   35.9110   30.0750   48.0540 S   0  0  0  0  0  0  0  0  0  0  0  0
   37.7370   31.8180   49.6030 C   0  0  0  0  0  0  0  0  0  0  0  0
   36.7470   32.3120   50.1930 O   0  0  0  0  0  0  0  0  0  0  0  0
   38.5860   32.5630   48.6910 C   0  0  0  0  0  0  0  0  0  0  0  0
   39.1150   33.7610   49.1750 C   0  0  0  0  0  0  0  0  0  0  0  0
   39.9470   34.5110   48.3130 C   0  0  0  0  0  0  0  0  0  0  0  0
   40.1770   34.0090   47.0630 N   0  0  0  0  0  0  0  0  0  0  0  0
   39.6500   32.8570   46.6420 C   0  0  0  0  0  0  0  0  0  0  0  0
   38.8540   32.1330   47.4580 N   0  0  0  0  0  0  0  0  0  0  0  0
   38.9570   34.1900   50.1560 H   0  0  0  0  0  0  0  0  0  0  0  0
   40.4010   35.4580   48.6110 H   0  0  0  0  0  0  0  0  0  0  0  0
   39.8910   32.5440   45.6350 H   0  0  0  0  0  0  0  0  0  0  0  0
   33.3290   29.8710   49.0630 C   0  0  0  0  0  2  0  0  0  0  0  0
   32.6660   29.8430   48.1490 H   0  0  0  0  0  0  0  0  0  0  0  0
   34.2290   28.0510   47.6120 C   0  0  0  0  0  2  0  0  0  0  0  0
   35.1150   27.3970   47.5370 H   0  0  0  0  0  0  0  0  0  0  0  0
  1 20  1  0  0  0  0
  1  2  1  0  0  0  0
  2  3  1  0  0  0  0
  3  4  1  0  0  0  0
  4  5  2  0  0  0  0
  6  9  1  6  0  0  0
  6  4  1  0  0  0  0
  7  8  1  6  0  0  0
  7  6  1  0  0  0  0
  7  3  1  0  0  0  0
  8  1  1  0  0  0  0
  9 10  2  0  0  0  0
 11 12  1  0  0  0  0
 11  9  1  0  0  0  0
 12 17  1  0  0  0  0
 13 18  1  0  0  0  0
 13 12  2  0  0  0  0
 14 13  1  0  0  0  0
 15 14  2  0  0  0  0
 15 16  1  0  0  0  0
 16 11  2  0  0  0  0
 19 15  1  0  0  0  0
 21 20  1  0  0  0  0
 22  1  1  0  0  0  0
 23 22  1  0  0  0  0
M  END
>  <minimizedAffinity>
-4.67639923

>  <minimizedRMSD>
2.43853879

$$$$
