REMARK  Name = 
REMARK  7 active torsions:
REMARK  status: ('A' for Active; 'I' for Inactive)
REMARK    1  A    between atoms: C_1  and  C_6
REMARK    2  A    between atoms: C_4  and  C_14
REMARK    3  A    between atoms: C_6  and  C_8
REMARK    4  A    between atoms: C_14  and  C_16
REMARK    5  A    between atoms: C_18  and  C_28
REMARK    6  A    between atoms: C_28  and  C_29
REMARK    7  A    between atoms: C_29  and  C_30
REMARK                            x       y       z     vdW  Elec       q    Type
REMARK                         _______ _______ _______ _____ _____    ______ ____
ROOT
ATOM      1  C   UNL     1      33.063  27.500  48.226  0.00  0.00    +0.000 C 
ATOM      2  O   UNL     1      31.842  27.408  48.586  0.00  0.00    +0.000 OA
ENDROOT
BRANCH   1   6
ATOM      3  C   UNL     1      35.821  29.140  49.805  0.00  0.00    +0.000 A 
ATOM      4  C   UNL     1      34.802  29.660  50.570  0.00  0.00    +0.000 A 
ATOM      5  C   UNL     1      33.601  29.121  50.089  0.00  0.00    +0.000 A 
ATOM      6  C   UNL     1      33.971  28.296  49.049  0.00  0.00    +0.000 A 
ATOM      7  O   UNL     1      35.279  28.339  48.920  0.00  0.00    +0.000 OA
ATOM      8  H   UNL     1      34.825  30.359  51.404  0.00  0.00    +0.000 HD
ATOM      9  H   UNL     1      32.586  29.265  50.400  0.00  0.00    +0.000 HD
BRANCH   3  10
ATOM     10  C   UNL     1      37.216  29.486  50.029  0.00  0.00    +0.000 C 
ATOM     11  O   UNL     1      37.860  28.878  50.895  0.00  0.00    +0.000 OA
BRANCH  10  12
ATOM     12  C   UNL     1      37.767  30.532  49.213  0.00  0.00    +0.000 A 
ATOM     13  C   UNL     1      38.111  31.712  49.849  0.00  0.00    +0.000 A 
ATOM     14  C   UNL     1      38.648  32.751  49.085  0.00  0.00    +0.000 A 
ATOM     15  N   UNL     1      38.807  32.545  47.732  0.00  0.00    +0.000 NA
ATOM     16  C   UNL     1      38.462  31.390  47.153  0.00  0.00    +0.000 A 
ATOM     17  N   UNL     1      37.946  30.388  47.880  0.00  0.00    +0.000 NA
ATOM     18  H   UNL     1      37.965  31.822  50.919  0.00  0.00    +0.000 HD
ATOM     19  H   UNL     1      38.907  33.657  49.608  0.00  0.00    +0.000 HD
ATOM     20  H   UNL     1      38.629  31.338  46.089  0.00  0.00    +0.000 HD
ENDBRANCH  10  12
ENDBRANCH   3  10
ENDBRANCH   1   6
BRANCH   1  21
ATOM     21  C   UNL     1      33.561  26.804  46.995  0.00  0.00    +0.000 C 
ATOM     22  C   UNL     1      33.788  25.272  47.298  0.00  0.00    +0.000 C 
ATOM     23  C   UNL     1      32.775  25.769  46.334  0.00  0.00    +0.000 C 
ATOM     24  H   UNL     1      34.529  27.201  46.630  0.00  0.00    +0.000 HD
ATOM     25  H   UNL     1      34.697  24.811  46.925  0.00  0.00    +0.000 HD
ATOM     26  H   UNL     1      33.419  24.888  48.246  0.00  0.00    +0.000 HD
ATOM     27  H   UNL     1      33.039  25.601  45.249  0.00  0.00    +0.000 HD
BRANCH  23  28
ATOM     28  C   UNL     1      31.343  25.514  46.636  0.00  0.00    +0.000 C 
BRANCH  28  29
ATOM     29  C   UNL     1      30.531  25.337  45.366  0.00  0.00    +0.000 C 
ATOM     30  C   UNL     1      29.164  24.862  45.769  0.00  0.00    +0.000 C 
ATOM     31  N   UNL     1      28.752  23.801  44.901  0.00  0.00    +0.000 N 
ATOM     32  C   UNL     1      28.050  22.970  43.980  0.00  0.00    +0.000 C 
ATOM     33  O   UNL     1      26.903  22.942  43.460  0.00  0.00    +0.000 OA
ATOM     34  C   UNL     1      29.189  22.037  43.787  0.00  0.00    +0.000 C 
ATOM     35  H   UNL     1      29.775  22.156  42.866  0.00  0.00    +0.000 HD
ATOM     36  C   UNL     1      29.780  22.749  44.952  0.00  0.00    +0.000 C 
ATOM     37  S   UNL     1      31.216  23.831  44.567  0.00  0.00    +0.000 S 
BRANCH  29  38
ATOM     38  C   UNL     1      30.553  26.512  44.460  0.00  0.00    +0.000 C 
ATOM     39  H   UNL     1      31.447  26.522  43.812  0.00  0.00    +0.000 HD
ENDBRANCH  29  38
ENDBRANCH  28  29
ENDBRANCH  23  28
ENDBRANCH   1  21
TORSDOF 7
