
 OpenBabel03272500223D

 40 44  0  0  1  0  0  0  0  0999 V2000
   36.2830   30.9050   49.8550 C   0  0  0  0  0  0  0  0  0  0  0  0
   37.1590   31.4290   48.8600 C   0  0  0  0  0  0  0  0  0  0  0  0
   36.9720   31.0560   47.5270 C   0  0  0  0  0  0  0  0  0  0  0  0
   35.9360   30.1990   47.2760 N   0  0  0  0  0  0  0  0  0  0  0  0
   35.1360   29.7210   48.1890 C   0  0  0  0  0  0  0  0  0  0  0  0
   35.2910   30.0600   49.4820 N   0  0  0  0  0  0  0  0  0  0  0  0
   36.4140   31.1840   50.8930 H   0  0  0  0  0  0  0  0  0  0  0  0
   32.9310   30.9270   46.4940 Cl  0  0  0  0  0  0  0  0  0  0  0  0
   32.9920   29.2420   47.0100 C   0  0  0  0  0  0  0  0  0  0  0  0
   34.0550   28.8000   47.7860 C   0  0  0  0  0  0  0  0  0  0  0  0
   34.1560   27.4710   48.2250 C   0  0  0  0  0  0  0  0  0  0  0  0
   33.1200   26.6260   47.8300 C   0  0  0  0  0  0  0  0  0  0  0  0
   32.0620   27.0400   47.0640 C   0  0  0  0  0  0  0  0  0  0  0  0
   30.8350   25.8690   46.6440 Cl  0  0  0  0  0  0  0  0  0  0  0  0
   32.0030   28.3650   46.6520 C   0  0  0  0  0  0  0  0  0  0  0  0
   34.9870   27.1310   48.8300 H   0  0  0  0  0  0  0  0  0  0  0  0
   33.1850   25.5980   48.1600 H   0  0  0  0  0  0  0  0  0  0  0  0
   30.8680   28.8340   45.8240 C   0  0  0  0  0  0  0  0  0  0  0  0
   29.9800   27.7730   45.5850 F   0  0  0  0  0  0  0  0  0  0  0  0
   31.2770   29.3700   44.6460 F   0  0  0  0  0  0  0  0  0  0  0  0
   30.1560   29.7880   46.5110 F   0  0  0  0  0  0  0  0  0  0  0  0
   38.2470   32.3600   49.3000 C   0  0  0  0  0  0  0  0  0  0  0  0
   39.1330   32.6210   48.2610 F   0  0  0  0  0  0  0  0  0  0  0  0
   37.6540   33.5620   49.6410 F   0  0  0  0  0  0  0  0  0  0  0  0
   38.9320   31.9050   50.3980 F   0  0  0  0  0  0  0  0  0  0  0  0
   37.8580   31.5900   46.4980 C   0  0  0  0  0  0  0  0  0  0  0  0
   37.2640   32.2940   45.8690 H   0  0  0  0  0  0  0  0  0  0  0  0
   38.7780   32.0720   46.8930 H   0  0  0  0  0  0  0  0  0  0  0  0
   38.3960   29.0950   42.0930 C   0  0  0  0  0  0  0  0  0  0  0  0
   39.5770   29.0960   42.9720 C   0  0  0  0  0  0  0  0  0  0  0  0
   39.4460   29.9810   44.0550 N   0  0  2  0  0  0  0  0  0  0  0  0
   39.7770   30.7300   45.2140 C   0  0  2  0  0  0  0  0  0  0  0  0
   40.8620   31.3110   45.5500 O   0  0  0  0  0  0  0  0  0  0  0  0
   38.3560   30.4430   45.6480 C   0  0  2  0  0  0  0  0  0  0  0  0
   38.1480   30.6250   44.1980 C   0  0  2  0  0  0  0  0  0  0  0  0
   37.0740   29.4590   43.3270 S   0  0  0  0  0  0  0  0  0  0  0  0
   38.1310   27.7710   41.4240 C   0  0  0  0  0  0  0  0  0  0  0  0
   38.2760   26.9890   42.1890 H   0  0  0  0  0  0  0  0  0  0  0  0
   38.4910   30.2530   41.1270 C   0  0  0  0  0  0  0  0  0  0  0  0
   38.2760   31.1790   41.7330 H   0  0  0  0  0  0  0  0  0  0  0  0
  1  7  1  0  0  0  0
  2 22  1  0  0  0  0
  2  1  2  0  0  0  0
  3  2  1  0  0  0  0
  4  3  2  0  0  0  0
  4  5  1  0  0  0  0
  5  6  2  0  0  0  0
  6  1  1  0  0  0  0
  8  9  1  0  0  0  0
  9 10  1  0  0  0  0
 10  5  1  0  0  0  0
 10 11  2  0  0  0  0
 11 16  1  0  0  0  0
 12 17  1  0  0  0  0
 12 11  1  0  0  0  0
 13 12  2  0  0  0  0
 14 13  1  0  0  0  0
 15  9  2  0  0  0  0
 15 13  1  0  0  0  0
 18 21  1  0  0  0  0
 18 15  1  0  0  0  0
 19 18  1  0  0  0  0
 20 18  1  0  0  0  0
 22 24  1  0  0  0  0
 22 25  1  0  0  0  0
 23 22  1  0  0  0  0
 26 28  1  0  0  0  0
 26  3  1  0  0  0  0
 27 26  1  0  0  0  0
 29 30  1  0  0  0  0
 29 36  1  0  0  0  0
 31 30  1  1  0  0  0
 31 35  1  0  0  0  0
 31 32  1  0  0  0  0
 32 33  1  1  0  0  0
 32 34  1  0  0  0  0
 34 26  1  1  0  0  0
 35 36  1  6  0  0  0
 35 32  1  0  0  0  0
 35 34  1  0  0  0  0
 37 29  1  0  0  0  0
 37 38  1  0  0  0  0
 39 40  1  0  0  0  0
 39 29  1  0  0  0  0
M  END
>  <minimizedAffinity>
-7.04264975

>  <minimizedRMSD>
2.14782953

$$$$
