
 OpenBabel03272507133D

 43 48  0  0  1  0  0  0  0  0999 V2000
   37.0580   29.7820   50.2770 C   0  0  0  0  0  0  0  0  0  0  0  0
   37.6250   29.3000   51.2940 O   0  0  0  0  0  0  0  0  0  0  0  0
   37.6540   30.7790   49.4270 C   0  0  0  0  0  0  0  0  0  0  0  0
   37.6050   32.0960   49.8550 C   0  0  0  0  0  0  0  0  0  0  0  0
   38.1680   33.0940   49.0660 C   0  0  0  0  0  0  0  0  0  0  0  0
   38.7460   32.6950   47.8930 N   0  0  0  0  0  0  0  0  0  0  0  0
   38.7870   31.4230   47.4910 C   0  0  0  0  0  0  0  0  0  0  0  0
   38.2370   30.4770   48.2690 N   0  0  0  0  0  0  0  0  0  0  0  0
   37.1360   32.3730   50.7950 H   0  0  0  0  0  0  0  0  0  0  0  0
   38.1690   34.1410   49.3320 H   0  0  0  0  0  0  0  0  0  0  0  0
   39.4190   31.0240   46.2180 C   0  0  0  0  0  2  0  0  0  0  0  0
   38.4740   31.3760   45.0890 C   0  0  2  0  0  0  0  0  0  0  0  0
   37.0750   31.0990   45.5390 C   0  0  0  0  0  2  0  0  0  0  0  0
   36.3180   30.6850   44.3770 N   0  0  0  0  0  0  0  0  0  0  0  0
   35.3070   30.5950   43.3500 C   0  0  0  0  0  0  0  0  0  0  0  0
   34.0890   30.9570   43.2740 O   0  0  0  0  0  0  0  0  0  0  0  0
   36.2650   29.9090   42.4160 C   0  0  0  0  0  3  0  0  0  0  0  0
   36.8370   30.5870   41.7490 H   0  0  0  0  0  0  0  0  0  0  0  0
   36.9630   29.5700   43.7060 C   0  0  1  0  0  3  0  0  0  0  0  0
   38.6920   30.1240   43.7910 S   0  0  0  0  0  0  0  0  0  0  0  0
   38.6990   32.7610   44.5880 C   0  0  0  0  0  2  0  0  0  0  0  0
   37.9740   33.0310   43.8210 H   0  0  0  0  0  0  0  0  0  0  0  0
   35.7250   29.3120   49.9290 C   0  0  0  0  0  0  0  0  0  0  0  0
   34.6090   29.8070   50.5070 C   0  0  0  0  0  0  0  0  0  0  0  0
   33.5240   29.1360   49.9410 C   0  0  0  0  0  0  0  0  0  0  0  0
   34.0760   28.2390   49.0170 C   0  0  0  0  0  0  0  0  0  0  0  0
   35.3640   28.3970   49.0630 O   0  0  0  0  0  0  0  0  0  0  0  0
   34.5320   30.5770   51.2690 H   0  0  0  0  0  0  0  0  0  0  0  0
   32.5070   29.3400   50.2280 H   0  0  0  0  0  0  0  0  0  0  0  0
   33.7810   26.3140   47.4730 C   0  0  0  0  0  0  0  0  0  0  0  0
   33.2380   27.3540   48.2190 C   0  0  0  0  0  0  0  0  0  0  0  0
   31.8780   27.5830   48.2320 C   0  0  0  0  0  0  0  0  0  0  0  0
   31.0780   26.7520   47.4830 C   0  0  0  0  0  0  0  0  0  0  0  0
   29.7390   26.7540   47.3200 N   0  0  0  0  0  0  0  0  0  0  0  0
   29.4300   25.7520   46.4990 N   0  0  0  0  0  0  0  0  0  0  0  0
   30.5770   25.1230   46.1480 C   0  0  0  0  0  0  0  0  0  0  0  0
   31.6490   25.7300   46.7530 C   0  0  0  0  0  0  0  0  0  0  0  0
   33.0050   25.4860   46.7300 C   0  0  0  0  0  0  0  0  0  0  0  0
   34.8660   26.1590   47.4860 H   0  0  0  0  0  0  0  0  0  0  0  0
   31.3900   28.3860   48.7990 H   0  0  0  0  0  0  0  0  0  0  0  0
   29.0060   27.3840   47.7230 H   0  0  0  0  0  0  0  0  0  0  0  0
   30.6050   24.2690   45.4840 H   0  0  0  0  0  0  0  0  0  0  0  0
   33.3980   24.6770   46.1460 H   0  0  0  0  0  0  0  0  0  0  0  0
  1  2  2  0  0  0  0
  3  4  1  0  0  0  0
  3  1  1  0  0  0  0
  4  9  1  0  0  0  0
  5 10  1  0  0  0  0
  5  4  2  0  0  0  0
  6  5  1  0  0  0  0
  7  6  2  0  0  0  0
  7  8  1  0  0  0  0
  8  3  2  0  0  0  0
 11  7  1  0  0  0  0
 12 21  1  6  0  0  0
 12 13  1  0  0  0  0
 12 11  1  0  0  0  0
 14 13  1  0  0  0  0
 15 14  1  0  0  0  0
 16 15  2  0  0  0  0
 17 15  1  0  0  0  0
 18 17  1  0  0  0  0
 19 17  1  6  0  0  0
 19 20  1  0  0  0  0
 19 14  1  0  0  0  0
 20 12  1  0  0  0  0
 22 21  1  0  0  0  0
 23  1  1  0  0  0  0
 23 24  2  0  0  0  0
 24 28  1  0  0  0  0
 25 29  1  0  0  0  0
 25 24  1  0  0  0  0
 26 27  1  0  0  0  0
 26 25  2  0  0  0  0
 27 23  1  0  0  0  0
 30 39  1  0  0  0  0
 30 31  1  0  0  0  0
 31 32  2  0  0  0  0
 31 26  1  0  0  0  0
 32 40  1  0  0  0  0
 33 32  1  0  0  0  0
 34 33  1  0  0  0  0
 34 41  1  0  0  0  0
 35 34  1  0  0  0  0
 36 35  2  0  0  0  0
 36 37  1  0  0  0  0
 37 33  2  0  0  0  0
 38 37  1  0  0  0  0
 38 30  2  0  0  0  0
 42 36  1  0  0  0  0
 43 38  1  0  0  0  0
M  END
>  <minimizedAffinity>
-6.75184536

>  <minimizedRMSD>
1.12537122

$$$$
