
     RDKit          3D

 40 42  0  0  0  0  0  0  0  0999 V2000
   37.1788   31.1194   47.8337 C   0  0  0  0  0  0  0  0  0  0  0  0
   37.8306   30.3590   48.7299 C   0  0  0  0  0  0  0  0  0  0  0  0
   38.1056   30.9446   50.0750 C   0  0  0  0  0  0  0  0  0  0  0  0
   37.2878   30.0475   51.3980 S   0  0  0  0  0  0  0  0  0  0  0  0
   38.1293   32.1004   47.6410 O   0  0  0  0  0  0  0  0  0  0  0  0
   38.4988   32.3652   46.3306 C   0  0  0  0  0  0  0  0  0  0  0  0
   39.8233   32.8100   46.2372 C   0  0  0  0  0  0  0  0  0  0  0  0
   40.3383   33.1167   44.9810 C   0  0  0  0  0  0  0  0  0  0  0  0
   39.5145   32.9650   43.8992 N   0  0  0  0  0  0  0  0  0  0  0  0
   38.2264   32.5280   44.0302 C   0  0  0  0  0  0  0  0  0  0  0  0
   37.7526   32.2413   45.2282 N   0  0  0  0  0  0  0  0  0  0  0  0
   36.2503   31.6319   48.2152 H   0  0  0  0  0  0  0  0  0  0  0  0
   36.8410   30.6039   46.9091 H   0  0  0  0  0  0  0  0  0  0  0  0
   37.2761   29.3889   48.9066 H   0  0  0  0  0  0  0  0  0  0  0  0
   38.8160   29.9489   48.3749 H   0  0  0  0  0  0  0  0  0  0  0  0
   37.6946   31.9785   50.0846 H   0  0  0  0  0  0  0  0  0  0  0  0
   39.1836   31.0607   50.3048 H   0  0  0  0  0  0  0  0  0  0  0  0
   37.0250   30.8404   52.5331 H   0  0  0  0  0  0  0  0  0  0  0  0
   40.5158   32.9476   47.0545 H   0  0  0  0  0  0  0  0  0  0  0  0
   41.3567   33.4645   44.8559 H   0  0  0  0  0  0  0  0  0  0  0  0
   37.3481   32.3703   42.8405 C   0  0  0  0  0  0  0  0  0  0  0  0
   36.0166   31.8792   43.3351 C   0  0  2  0  0  0  0  0  0  0  0  0
   36.2074   30.5635   44.0356 C   0  0  0  0  0  0  0  0  0  0  0  0
   35.5676   29.7402   43.6201 H   0  0  0  0  0  0  0  0  0  0  0  0
   34.9558   31.8070   42.2672 C   0  0  0  0  0  0  0  0  0  0  0  0
   34.4310   33.1153   42.0452 N   0  0  0  0  0  0  0  0  0  0  0  0
   34.0281   34.3132   41.3841 C   0  0  0  0  0  0  0  0  0  0  0  0
   33.6503   34.6688   40.2327 O   0  0  0  0  0  0  0  0  0  0  0  0
   34.2419   35.0289   42.6695 C   0  0  1  0  0  0  0  0  0  0  0  0
   35.3043   35.3302   42.7583 H   0  0  0  0  0  0  0  0  0  0  0  0
   33.9745   33.6916   43.2745 C   0  0  2  0  0  0  0  0  0  0  0  0
   35.2804   33.1263   44.4335 S   0  0  0  0  0  0  0  0  0  0  0  0
   37.2756   33.3895   42.3928 H   0  0  0  0  0  0  0  0  0  0  0  0
   37.7737   31.6542   42.1080 H   0  0  0  0  0  0  0  0  0  0  0  0
   35.8985   30.6743   45.0982 H   0  0  0  0  0  0  0  0  0  0  0  0
   37.2449   30.2059   43.9206 H   0  0  0  0  0  0  0  0  0  0  0  0
   35.4312   31.4035   41.3751 H   0  0  0  0  0  0  0  0  0  0  0  0
   34.1843   31.0603   42.5679 H   0  0  0  0  0  0  0  0  0  0  0  0
   33.4997   35.8258   42.8750 H   0  0  0  0  0  0  0  0  0  0  0  0
   32.9574   33.4599   43.6083 H   0  0  0  0  0  0  0  0  0  0  0  0
  1  2  1  0
  2  3  1  0
  3  4  1  0
  5  1  1  0
  6  5  1  0
  7  6  2  0
  8  7  1  0
  9 10  1  0
  9  8  2  0
 10 11  2  0
 11  6  1  0
  1 12  1  0
  1 13  1  0
  2 14  1  0
  2 15  1  0
  3 16  1  0
  3 17  1  0
  4 18  1  0
  7 19  1  0
  8 20  1  0
 22 21  1  6
 22 23  1  0
 23 24  1  0
 22 25  1  0
 25 26  1  0
 26 27  1  0
 27 28  2  0
 27 29  1  0
 29 30  1  6
 29 31  1  0
 31 32  1  0
 32 22  1  0
 31 26  1  0
 21 33  1  0
 21 34  1  0
 23 35  1  0
 23 36  1  0
 25 37  1  0
 25 38  1  0
 29 39  1  0
 31 40  1  1
 10 21  1  0
M  ISO  8  12   8  13   8  14   8  15   8  16   8  17   8  18  11  19  14
M  ISO  3  20  14  24   8  30  15
M  END
>  <DihAtoms>  (1) 
8,9,20,21

>  <DihDeg>  (1) 
-0.0009301237408000945

$$$$
