
 OpenBabel03272503243D

 35 38  0  0  1  0  0  0  0  0999 V2000
   36.4370   29.9510   49.1880 N   0  0  0  0  0  0  0  0  0  0  0  0
   36.9810   31.2580   49.0590 C   0  0  1  0  0  0  0  0  0  0  0  0
   37.6290   31.5560   50.3820 C   0  0  0  0  0  0  0  0  0  0  0  0
   37.3640   30.2800   51.2230 C   0  0  0  0  0  0  0  0  0  0  0  0
   37.2730   29.2570   50.1330 C   0  0  0  0  0  0  0  0  0  0  0  0
   36.0740   32.0060   49.0280 H   0  0  0  0  0  0  0  0  0  0  0  0
   37.2160   32.4340   50.9100 H   0  0  0  0  0  0  0  0  0  0  0  0
   38.7380   31.6060   50.2850 H   0  0  0  0  0  0  0  0  0  0  0  0
   36.4040   30.3610   51.7450 H   0  0  0  0  0  0  0  0  0  0  0  0
   38.2280   30.1020   51.9090 H   0  0  0  0  0  0  0  0  0  0  0  0
   36.7250   28.3810   50.5660 H   0  0  0  0  0  0  0  0  0  0  0  0
   38.2660   28.9640   49.7460 H   0  0  0  0  0  0  0  0  0  0  0  0
   35.2890   29.4510   48.5220 C   0  0  0  0  0  0  0  0  0  0  0  0
   34.5890   30.3120   47.6610 C   0  0  0  0  0  0  0  0  0  0  0  0
   33.4530   29.8360   46.9950 C   0  0  0  0  0  0  0  0  0  0  0  0
   33.0970   28.5340   47.2380 N   0  0  0  0  0  0  0  0  0  0  0  0
   33.7930   27.7310   48.0730 C   0  0  0  0  0  0  0  0  0  0  0  0
   34.9080   28.1820   48.7330 N   0  0  0  0  0  0  0  0  0  0  0  0
   34.8740   31.3380   47.4740 H   0  0  0  0  0  0  0  0  0  0  0  0
   32.8990   30.4790   46.3270 H   0  0  0  0  0  0  0  0  0  0  0  0
   33.4960   26.7180   48.2450 H   0  0  0  0  0  0  0  0  0  0  0  0
   37.7820   31.5450   47.8820 C   0  0  0  0  0  0  0  0  0  0  0  0
   38.3880   32.5720   47.7630 O   0  0  0  0  0  0  0  0  0  0  0  0
   37.5250   30.5420   42.8400 C   0  0  0  0  0  0  0  0  0  0  0  0
   38.2620   31.7550   43.4240 C   0  0  0  0  0  2  0  0  0  0  0  0
   38.6780   31.3430   44.7810 N   0  0  0  0  0  0  0  0  0  0  0  0
   39.2710   30.9390   46.0420 C   0  0  0  0  0  0  0  0  0  0  0  0
   40.5510   30.9810   46.0700 O   0  0  0  0  0  0  0  0  0  0  0  0
   37.9730   30.6730   46.6740 C   0  0  2  0  0  3  0  0  0  0  0  0
   37.3960   31.2850   45.4590 C   0  0  2  0  0  3  0  0  0  0  0  0
   36.5410   30.1060   44.3350 S   0  0  0  0  0  0  0  0  0  0  0  0
   36.6470   30.9810   41.7120 C   0  0  0  0  0  2  0  0  0  0  0  0
   37.1430   31.8100   41.1860 H   0  0  0  0  0  0  0  0  0  0  0  0
   38.4620   29.4320   42.4810 C   0  0  0  0  0  2  0  0  0  0  0  0
   37.8540   28.4920   42.4550 H   0  0  0  0  0  0  0  0  0  0  0  0
  1  5  1  0  0  0  0
  2  6  1  6  0  0  0
  2  1  1  0  0  0  0
  2  3  1  0  0  0  0
  3  7  1  0  0  0  0
  3  4  1  0  0  0  0
  4  9  1  0  0  0  0
  4 10  1  0  0  0  0
  5 11  1  0  0  0  0
  5  4  1  0  0  0  0
  8  3  1  0  0  0  0
 12  5  1  0  0  0  0
 13 18  1  0  0  0  0
 13  1  1  0  0  0  0
 14 13  2  0  0  0  0
 15 16  2  0  0  0  0
 15 14  1  0  0  0  0
 16 17  1  0  0  0  0
 17 21  1  0  0  0  0
 17 18  2  0  0  0  0
 19 14  1  0  0  0  0
 20 15  1  0  0  0  0
 22  2  1  0  0  0  0
 23 22  2  0  0  0  0
 24 25  1  0  0  0  0
 24 31  1  0  0  0  0
 25 26  1  0  0  0  0
 26 30  1  0  0  0  0
 26 27  1  0  0  0  0
 27 28  2  0  0  0  0
 27 29  1  0  0  0  0
 29 22  1  1  0  0  0
 30 31  1  6  0  0  0
 30 29  1  0  0  0  0
 32 24  1  0  0  0  0
 33 32  1  0  0  0  0
 34 24  1  0  0  0  0
 35 34  1  0  0  0  0
M  END
>  <minimizedAffinity>
-5.83051968

>  <minimizedRMSD>
1.05761981

$$$$
