
     RDKit          3D

 46 49  0  0  0  0  0  0  0  0999 V2000
   38.1131   31.8876   47.4142 C   0  0  0  0  0  0  0  0  0  0  0  0
   38.5822   32.7859   48.3271 C   0  0  0  0  0  0  0  0  0  0  0  0
   38.0830   32.8621   49.6324 C   0  0  0  0  0  0  0  0  0  0  0  0
   37.0288   31.9366   49.9957 C   0  0  0  0  0  0  0  0  0  0  0  0
   36.6078   31.0690   49.0422 C   0  0  0  0  0  0  0  0  0  0  0  0
   37.0944   31.0065   47.7886 C   0  0  0  0  0  0  0  0  0  0  0  0
   40.0031   31.2606   45.9864 C   0  0  0  0  0  0  0  0  0  0  0  0
   38.7465   31.9154   46.1158 C   0  0  0  0  0  0  0  0  0  0  0  0
   38.2860   32.4942   44.9604 C   0  0  0  0  0  0  0  0  0  0  0  0
   38.9962   32.4236   43.8229 N   0  0  0  0  0  0  0  0  0  0  0  0
   40.1551   31.8147   43.7208 C   0  0  0  0  0  0  0  0  0  0  0  0
   40.6513   31.2369   44.8035 N   0  0  0  0  0  0  0  0  0  0  0  0
   35.1570   29.9735   46.9435 C   0  0  0  0  0  0  0  0  0  0  0  0
   34.5204   30.6391   47.8526 O   0  0  0  0  0  0  0  0  0  0  0  0
   36.5975   30.1161   46.8715 N   0  0  0  0  0  0  0  0  0  0  0  0
   34.4502   29.1658   46.0943 O   0  0  0  0  0  0  0  0  0  0  0  0
   33.3656   29.5718   45.3268 C   0  0  0  0  0  0  0  0  0  0  0  0
   33.3706   30.7116   44.6693 O   0  0  0  0  0  0  0  0  0  0  0  0
   39.3836   33.5015   48.0799 H   0  0  0  0  0  0  0  0  0  0  0  0
   38.5068   33.6080   50.3100 H   0  0  0  0  0  0  0  0  0  0  0  0
   36.7518   32.1097   51.0093 H   0  0  0  0  0  0  0  0  0  0  0  0
   35.8560   30.4724   49.5344 H   0  0  0  0  0  0  0  0  0  0  0  0
   40.4540   30.7692   46.8513 H   0  0  0  0  0  0  0  0  0  0  0  0
   37.3374   32.9890   45.0576 H   0  0  0  0  0  0  0  0  0  0  0  0
   40.6779   31.7931   42.7751 H   0  0  0  0  0  0  0  0  0  0  0  0
   37.1720   29.5968   46.2001 H   0  0  0  0  0  0  0  0  0  0  0  0
   30.7380   33.0542   45.9132 C   0  0  0  0  0  0  0  0  0  0  0  0
   31.8308   33.1363   45.6480 H   0  0  0  0  0  0  0  0  0  0  0  0
   30.1054   32.1436   44.9210 C   0  0  0  0  0  0  0  0  0  0  0  0
   29.1202   32.8232   43.9954 C   0  0  0  0  0  0  0  0  0  0  0  0
   28.3466   33.3149   44.6068 H   0  0  0  0  0  0  0  0  0  0  0  0
   29.3921   30.9556   45.5282 C   0  0  0  0  0  0  0  0  0  0  0  0
   30.3749   29.9193   45.7552 N   0  0  0  0  0  0  0  0  0  0  0  0
   31.2354   28.9312   46.3085 C   0  0  0  0  0  0  0  0  0  0  0  0
   31.3151   28.3182   47.3920 O   0  0  0  0  0  0  0  0  0  0  0  0
   32.0936   28.8354   45.0987 C   0  0  1  0  0  0  0  0  0  0  0  0
   30.9938   29.5937   44.4634 C   0  0  2  0  0  0  0  0  0  0  0  0
   31.3621   31.2786   43.8964 S   0  0  0  0  0  0  0  0  0  0  0  0
   30.2858   34.0768   45.7582 H   0  0  0  0  0  0  0  0  0  0  0  0
   30.6939   32.7308   46.9639 H   0  0  0  0  0  0  0  0  0  0  0  0
   28.6170   31.9928   43.4282 H   0  0  0  0  0  0  0  0  0  0  0  0
   29.5928   33.4844   43.2484 H   0  0  0  0  0  0  0  0  0  0  0  0
   28.9904   31.2705   46.5111 H   0  0  0  0  0  0  0  0  0  0  0  0
   28.5473   30.6013   44.9086 H   0  0  0  0  0  0  0  0  0  0  0  0
   32.2203   27.8091   44.7024 H   0  0  0  0  0  0  0  0  0  0  0  0
   30.3352   29.0169   43.7878 H   0  0  0  0  0  0  0  0  0  0  0  0
  1  6  1  0
  1  2  2  0
  2  3  1  0
  3  4  2  0
  5  4  1  0
  6  5  2  0
  7  8  2  0
  8  1  1  0
  9  8  1  0
 10  9  2  0
 11 10  1  0
 11 12  2  0
 12  7  1  0
 13 14  2  0
 15 13  1  0
 15  6  1  0
 16 13  1  0
 17 16  1  0
 18 17  2  0
  2 19  1  0
  3 20  1  0
  4 21  1  0
  5 22  1  0
  7 23  1  0
  9 24  1  0
 11 25  1  0
 15 26  1  0
 27 28  1  0
 27 29  1  0
 29 30  1  0
 30 31  1  0
 29 32  1  0
 32 33  1  0
 33 34  1  0
 34 35  2  0
 34 36  1  0
 36 37  1  0
 37 38  1  0
 38 29  1  0
 37 33  1  0
 27 39  1  0
 27 40  1  0
 30 41  1  0
 30 42  1  0
 32 43  1  0
 32 44  1  0
 36 45  1  6
 37 46  1  6
 17 36  1  0
M  ISO  8  19  14  20  14  21  14  22  14  23  14  24  14  25  14  28   8
M  ISO  1  31   8
M  END
>  <DihAtoms>  (1) 
15,16,35,33

>  <DihDeg>  (1) 
60.68440680902279

$$$$
