
 OpenBabel03272507333D

 39 43  0  0  1  0  0  0  0  0999 V2000
   32.9720   27.6550   48.1670 C   0  0  0  0  0  0  0  0  0  0  0  0
   31.7280   27.7250   48.4440 O   0  0  0  0  0  0  0  0  0  0  0  0
   35.7960   29.1410   49.7810 C   0  0  0  0  0  0  0  0  0  0  0  0
   34.8080   29.6060   50.6190 C   0  0  0  0  0  0  0  0  0  0  0  0
   33.5870   29.1170   50.1360 C   0  0  0  0  0  0  0  0  0  0  0  0
   33.9140   28.3750   49.0210 C   0  0  0  0  0  0  0  0  0  0  0  0
   35.2180   28.4180   48.8530 O   0  0  0  0  0  0  0  0  0  0  0  0
   34.8650   30.2350   51.5050 H   0  0  0  0  0  0  0  0  0  0  0  0
   32.5840   29.2430   50.4910 H   0  0  0  0  0  0  0  0  0  0  0  0
   37.2010   29.4580   49.9860 C   0  0  0  0  0  0  0  0  0  0  0  0
   37.8510   28.8170   50.8240 O   0  0  0  0  0  0  0  0  0  0  0  0
   37.7550   30.5140   49.1850 C   0  0  0  0  0  0  0  0  0  0  0  0
   38.0960   31.6860   49.8370 C   0  0  0  0  0  0  0  0  0  0  0  0
   38.6360   32.7340   49.0880 C   0  0  0  0  0  0  0  0  0  0  0  0
   38.8000   32.5450   47.7330 N   0  0  0  0  0  0  0  0  0  0  0  0
   38.4580   31.3970   47.1380 C   0  0  0  0  0  0  0  0  0  0  0  0
   37.9390   30.3860   47.8510 N   0  0  0  0  0  0  0  0  0  0  0  0
   37.9460   31.7830   50.9070 H   0  0  0  0  0  0  0  0  0  0  0  0
   38.8920   33.6340   49.6230 H   0  0  0  0  0  0  0  0  0  0  0  0
   38.6290   31.3580   46.0740 H   0  0  0  0  0  0  0  0  0  0  0  0
   33.4610   26.8480   47.0020 C   0  0  1  0  0  0  0  0  0  0  0  0
   33.6970   25.3520   47.4450 C   0  0  0  0  0  0  0  0  0  0  0  0
   32.6730   25.7540   46.4490 C   0  0  1  0  0  0  0  0  0  0  0  0
   34.4240   27.2120   46.5920 H   0  0  0  0  0  0  0  0  0  0  0  0
   34.6040   24.8610   47.1080 H   0  0  0  0  0  0  0  0  0  0  0  0
   33.3380   25.0570   48.4280 H   0  0  0  0  0  0  0  0  0  0  0  0
   32.9280   25.4860   45.3820 H   0  0  0  0  0  0  0  0  0  0  0  0
   31.2450   25.5240   46.7870 C   0  0  0  0  0  2  0  0  0  0  0  0
   30.3480   25.7370   45.5810 C   0  0  2  0  0  0  0  0  0  0  0  0
   29.0040   25.1560   45.9130 C   0  0  0  0  0  2  0  0  0  0  0  0
   28.5180   24.4070   44.7940 N   0  0  0  0  0  0  0  0  0  0  0  0
   27.7420   23.8910   43.7140 C   0  0  0  0  0  0  0  0  0  0  0  0
   26.5630   24.0170   43.2890 O   0  0  0  0  0  0  0  0  0  0  0  0
   28.8520   23.0670   43.1700 C   0  0  0  0  0  3  0  0  0  0  0  0
   29.3770   23.4640   42.2920 H   0  0  0  0  0  0  0  0  0  0  0  0
   29.5310   23.3940   44.4530 C   0  0  1  0  0  3  0  0  0  0  0  0
   30.9540   24.5500   44.3190 S   0  0  0  0  0  0  0  0  0  0  0  0
   30.3280   27.1330   45.0760 C   0  0  0  0  0  2  0  0  0  0  0  0
   31.1760   27.3430   44.4010 H   0  0  0  0  0  0  0  0  0  0  0  0
  1  2  2  0  0  0  0
  1  6  1  0  0  0  0
  3 10  1  0  0  0  0
  3  4  2  0  0  0  0
  4  8  1  0  0  0  0
  5  9  1  0  0  0  0
  5  4  1  0  0  0  0
  6  5  2  0  0  0  0
  7  6  1  0  0  0  0
  7  3  1  0  0  0  0
 10 11  2  0  0  0  0
 12 13  1  0  0  0  0
 12 10  1  0  0  0  0
 13 18  1  0  0  0  0
 14 19  1  0  0  0  0
 14 13  2  0  0  0  0
 15 14  1  0  0  0  0
 16 15  2  0  0  0  0
 16 17  1  0  0  0  0
 17 12  2  0  0  0  0
 20 16  1  0  0  0  0
 21 24  1  6  0  0  0
 21 22  1  0  0  0  0
 21  1  1  0  0  0  0
 22 26  1  0  0  0  0
 23 27  1  6  0  0  0
 23 28  1  0  0  0  0
 23 21  1  0  0  0  0
 23 22  1  0  0  0  0
 25 22  1  0  0  0  0
 29 38  1  6  0  0  0
 29 30  1  0  0  0  0
 29 28  1  0  0  0  0
 31 30  1  0  0  0  0
 32 31  1  0  0  0  0
 33 32  2  0  0  0  0
 34 32  1  0  0  0  0
 35 34  1  0  0  0  0
 36 34  1  6  0  0  0
 36 31  1  0  0  0  0
 37 36  1  0  0  0  0
 37 29  1  0  0  0  0
 39 38  1  0  0  0  0
M  END
>  <minimizedAffinity>
-5.34630966

>  <minimizedRMSD>
1.33148134

$$$$
