
     RDKit          3D

 43 46  0  0  0  0  0  0  0  0999 V2000
   36.5324   29.7768   49.1883 N   0  0  0  0  0  0  0  0  0  0  0  0
   37.2728   30.9191   48.7795 C   0  0  1  0  0  0  0  0  0  0  0  0
   37.9726   31.4077   50.0147 C   0  0  0  0  0  0  0  0  0  0  0  0
   37.5197   30.4162   51.1184 C   0  0  0  0  0  0  0  0  0  0  0  0
   37.2580   29.1972   50.2867 C   0  0  0  0  0  0  0  0  0  0  0  0
   35.3131   29.3232   48.6231 C   0  0  0  0  0  0  0  0  0  0  0  0
   34.7222   30.0891   47.6054 C   0  0  0  0  0  0  0  0  0  0  0  0
   33.5178   29.6558   47.0356 C   0  0  0  0  0  0  0  0  0  0  0  0
   32.9914   28.4879   47.5246 N   0  0  0  0  0  0  0  0  0  0  0  0
   33.5853   27.7733   48.5058 C   0  0  0  0  0  0  0  0  0  0  0  0
   34.7647   28.1845   49.0738 N   0  0  0  0  0  0  0  0  0  0  0  0
   38.0984   30.8010   47.5893 C   0  0  0  0  0  0  0  0  0  0  0  0
   39.0587   31.4952   47.4119 O   0  0  0  0  0  0  0  0  0  0  0  0
   36.4949   31.7721   48.5543 H   0  0  0  0  0  0  0  0  0  0  0  0
   37.7091   32.4366   50.3180 H   0  0  0  0  0  0  0  0  0  0  0  0
   39.0753   31.2624   49.9393 H   0  0  0  0  0  0  0  0  0  0  0  0
   36.5901   30.7615   51.5820 H   0  0  0  0  0  0  0  0  0  0  0  0
   38.3522   30.2681   51.8487 H   0  0  0  0  0  0  0  0  0  0  0  0
   36.5843   28.5397   50.8943 H   0  0  0  0  0  0  0  0  0  0  0  0
   38.1889   28.6731   50.0041 H   0  0  0  0  0  0  0  0  0  0  0  0
   35.1421   31.0089   47.2242 H   0  0  0  0  0  0  0  0  0  0  0  0
   33.0449   30.2277   46.2523 H   0  0  0  0  0  0  0  0  0  0  0  0
   33.1546   26.8645   48.8705 H   0  0  0  0  0  0  0  0  0  0  0  0
   34.9290   29.8285   42.2325 C   0  0  0  0  0  0  0  0  0  0  0  0
   35.1723   30.6372   41.5280 H   0  0  0  0  0  0  0  0  0  0  0  0
   36.1632   29.4838   43.0043 C   0  0  0  0  0  0  0  0  0  0  0  0
   36.9708   28.3817   42.3953 C   0  0  0  0  0  0  0  0  0  0  0  0
   36.4365   27.4248   42.6257 H   0  0  0  0  0  0  0  0  0  0  0  0
   36.9969   30.7518   43.2371 C   0  0  0  0  0  0  0  0  0  0  0  0
   37.8747   30.4356   44.3835 N   0  0  0  0  0  0  0  0  0  0  0  0
   38.8869   30.1272   45.3775 C   0  0  0  0  0  0  0  0  0  0  0  0
   40.0937   30.2079   44.9560 O   0  0  0  0  0  0  0  0  0  0  0  0
   37.9007   29.8630   46.4327 C   0  0  2  0  0  0  0  0  0  0  0  0
   36.9109   30.3820   45.4663 C   0  0  2  0  0  0  0  0  0  0  0  0
   35.7791   29.1122   44.7667 S   0  0  0  0  0  0  0  0  0  0  0  0
   34.1578   30.1962   42.9340 H   0  0  0  0  0  0  0  0  0  0  0  0
   34.5666   28.9491   41.6622 H   0  0  0  0  0  0  0  0  0  0  0  0
   37.0093   28.5521   41.3066 H   0  0  0  0  0  0  0  0  0  0  0  0
   37.9798   28.3835   42.8430 H   0  0  0  0  0  0  0  0  0  0  0  0
   36.3038   31.5361   43.5930 H   0  0  0  0  0  0  0  0  0  0  0  0
   37.5864   31.0315   42.3685 H   0  0  0  0  0  0  0  0  0  0  0  0
   37.7945   28.8008   46.7387 H   0  0  0  0  0  0  0  0  0  0  0  0
   36.4010   31.3363   45.6992 H   0  0  0  0  0  0  0  0  0  0  0  0
  1  5  1  0
  2  1  1  0
  2  3  1  0
  3  4  1  0
  5  4  1  0
  6 11  1  0
  6  1  1  0
  7  6  2  0
  8  9  2  0
  8  7  1  0
  9 10  1  0
 10 11  2  0
 12  2  1  0
 13 12  2  0
  2 14  1  6
  3 15  1  0
  3 16  1  0
  4 17  1  0
  4 18  1  0
  5 19  1  0
  5 20  1  0
  7 21  1  0
  8 22  1  0
 10 23  1  0
 24 25  1  0
 24 26  1  0
 26 27  1  0
 27 28  1  0
 26 29  1  0
 29 30  1  0
 30 31  1  0
 31 32  2  0
 31 33  1  0
 33 34  1  0
 34 35  1  0
 35 26  1  0
 34 30  1  0
 24 36  1  0
 24 37  1  0
 27 38  1  0
 27 39  1  0
 29 40  1  0
 29 41  1  0
 33 42  1  1
 34 43  1  1
 12 33  1  0
M  ISO  8  14  13  15  13  16  13  17  13  18  13  19  13  20  13  21  14
M  ISO  4  22  14  23  14  25   8  28   8
M  END
>  <DihAtoms>  (1) 
1,11,32,30

>  <DihDeg>  (1) 
-64.56758371746096

$$$$
