REMARK  Name = 
REMARK  7 active torsions:
REMARK  status: ('A' for Active; 'I' for Inactive)
REMARK    1  A    between atoms: C_3  and  C_13
REMARK    2  A    between atoms: C_8  and  C_20
REMARK    3  A    between atoms: C_10  and  C_15
REMARK    4  A    between atoms: C_11  and  C_19
REMARK    5  A    between atoms: C_19  and  C_38
REMARK    6  A    between atoms: C_29  and  C_31
REMARK    7  A    between atoms: C_31  and  C_32
REMARK                            x       y       z     vdW  Elec       q    Type
REMARK                         _______ _______ _______ _____ _____    ______ ____
ROOT
ATOM      1  C   UNL     1      35.394  29.281  50.458  0.00  0.00    +0.000 A 
ATOM      2  C   UNL     1      36.331  30.119  49.787  0.00  0.00    +0.000 A 
ATOM      3  C   UNL     1      36.300  30.192  48.392  0.00  0.00    +0.000 A 
ATOM      4  N   UNL     1      35.348  29.435  47.766  0.00  0.00    +0.000 NA
ATOM      5  C   UNL     1      34.491  28.668  48.383  0.00  0.00    +0.000 A 
ATOM      6  N   UNL     1      34.496  28.576  49.726  0.00  0.00    +0.000 NA
ATOM      7  H   UNL     1      35.404  29.213  51.538  0.00  0.00    +0.000 HD
ENDROOT
BRANCH   5  10
ATOM      8 CL   UNL     1      32.675  30.296  46.583  0.00  0.00    +0.000 Cl
ATOM      9  C   UNL     1      32.629  28.539  46.730  0.00  0.00    +0.000 A 
ATOM     10  C   UNL     1      33.513  27.899  47.589  0.00  0.00    +0.000 A 
ATOM     11  C   UNL     1      33.522  26.505  47.746  0.00  0.00    +0.000 A 
ATOM     12  C   UNL     1      32.587  25.807  46.984  0.00  0.00    +0.000 A 
ATOM     13  C   UNL     1      31.706  26.417  46.131  0.00  0.00    +0.000 A 
ATOM     14 CL   UNL     1      30.588  25.414  45.238  0.00  0.00    +0.000 Cl
ATOM     15  C   UNL     1      31.732  27.800  46.006  0.00  0.00    +0.000 A 
ATOM     16  H   UNL     1      34.214  26.011  48.417  0.00  0.00    +0.000 HD
ATOM     17  H   UNL     1      32.583  24.731  47.095  0.00  0.00    +0.000 HD
BRANCH  15  18
ATOM     18  C   UNL     1      30.788  28.480  45.090  0.00  0.00    +0.000 C 
ATOM     19  F   UNL     1      29.837  27.562  44.616  0.00  0.00    +0.000 F 
ATOM     20  F   UNL     1      31.421  29.072  44.045  0.00  0.00    +0.000 F 
ATOM     21  F   UNL     1      30.089  29.444  45.776  0.00  0.00    +0.000 F 
ENDBRANCH  15  18
ENDBRANCH   5  10
BRANCH   2  22
ATOM     22  C   UNL     1      37.312  30.886  50.620  0.00  0.00    +0.000 C 
ATOM     23  F   UNL     1      38.603  30.753  50.123  0.00  0.00    +0.000 F 
ATOM     24  F   UNL     1      36.977  32.225  50.531  0.00  0.00    +0.000 F 
ATOM     25  F   UNL     1      37.281  30.535  51.946  0.00  0.00    +0.000 F 
ENDBRANCH   2  22
BRANCH   3  26
ATOM     26  C   UNL     1      37.250  31.051  47.694  0.00  0.00    +0.000 C 
ATOM     27  H   UNL     1      37.050  32.103  48.006  0.00  0.00    +0.000 HD
ATOM     28  H   UNL     1      38.315  30.774  47.848  0.00  0.00    +0.000 HD
BRANCH  26  34
ATOM     29  C   UNL     1      34.915  32.198  43.318  0.00  0.00    +0.000 C 
ATOM     30  C   UNL     1      36.369  31.985  43.226  0.00  0.00    +0.000 C 
ATOM     31  N   UNL     1      36.985  31.898  44.485  0.00  0.00    +0.000 N 
ATOM     32  C   UNL     1      38.002  31.800  45.470  0.00  0.00    +0.000 C 
ATOM     33  O   UNL     1      39.166  32.318  45.521  0.00  0.00    +0.000 OA
ATOM     34  C   UNL     1      37.025  30.909  46.206  0.00  0.00    +0.000 C 
ATOM     35  C   UNL     1      36.089  31.896  45.633  0.00  0.00    +0.000 C 
ATOM     36  S   UNL     1      34.554  31.298  44.885  0.00  0.00    +0.000 S 
BRANCH  29  37
ATOM     37  C   UNL     1      34.135  31.594  42.179  0.00  0.00    +0.000 C 
ATOM     38  H   UNL     1      34.557  30.589  41.998  0.00  0.00    +0.000 HD
ENDBRANCH  29  37
BRANCH  29  39
ATOM     39  C   UNL     1      34.638  33.670  43.527  0.00  0.00    +0.000 C 
ATOM     40  H   UNL     1      34.931  33.889  44.593  0.00  0.00    +0.000 HD
ENDBRANCH  29  39
ENDBRANCH  26  34
ENDBRANCH   3  26
TORSDOF 7
