REMARK  Name = 
REMARK  7 active torsions:
REMARK  status: ('A' for Active; 'I' for Inactive)
REMARK    1  A    between atoms: C_1  and  C_8
REMARK    2  A    between atoms: N_4  and  C_12
REMARK    3  A    between atoms: C_12  and  C_13
REMARK    4  A    between atoms: C_13  and  N_14
REMARK    5  A    between atoms: C_19  and  C_36
REMARK    6  A    between atoms: C_36  and  C_37
REMARK    7  A    between atoms: C_37  and  C_38
REMARK                            x       y       z     vdW  Elec       q    Type
REMARK                         _______ _______ _______ _____ _____    ______ ____
ROOT
ATOM      1  N   UNL     1      40.385  31.783  43.490  0.00  0.00    +0.000 NA
ATOM      2  C   UNL     1      39.532  32.686  42.825  0.00  0.00    +0.000 C 
ATOM      3  C   UNL     1      38.259  32.141  42.288  0.00  0.00    +0.000 C 
ATOM      4  O   UNL     1      38.417  30.877  41.707  0.00  0.00    +0.000 OA
ATOM      5  C   UNL     1      38.984  30.020  42.584  0.00  0.00    +0.000 C 
ATOM      6  C   UNL     1      40.362  30.480  43.005  0.00  0.00    +0.000 C 
ATOM      7  H   UNL     1      40.187  32.848  41.899  0.00  0.00    +0.000 HD
ATOM      8  H   UNL     1      39.439  33.703  43.145  0.00  0.00    +0.000 HD
ATOM      9  H   UNL     1      38.097  32.744  41.311  0.00  0.00    +0.000 HD
ATOM     10  H   UNL     1      37.324  32.373  42.746  0.00  0.00    +0.000 HD
ATOM     11  H   UNL     1      38.368  29.582  43.364  0.00  0.00    +0.000 HD
ATOM     12  H   UNL     1      39.221  29.121  41.964  0.00  0.00    +0.000 HD
ATOM     13  H   UNL     1      40.577  29.823  43.884  0.00  0.00    +0.000 HD
ENDROOT
BRANCH   1  14
ATOM     14  C   UNL     1      40.618  32.024  44.855  0.00  0.00    +0.000 C 
ATOM     15  H   UNL     1      41.663  32.366  45.004  0.00  0.00    +0.000 HD
ATOM     16  H   UNL     1      40.621  31.002  45.348  0.00  0.00    +0.000 HD
BRANCH  14  17
ATOM     17  C   UNL     1      39.685  32.871  45.589  0.00  0.00    +0.000 C 
ATOM     18  H   UNL     1      39.102  33.653  45.124  0.00  0.00    +0.000 HD
ATOM     19  H   UNL     1      40.277  33.435  46.378  0.00  0.00    +0.000 HD
BRANCH  17  23
ATOM     20  C   UNL     1      37.682  31.038  47.934  0.00  0.00    +0.000 A 
ATOM     21  C   UNL     1      36.993  30.801  46.760  0.00  0.00    +0.000 A 
ATOM     22  C   UNL     1      37.679  31.467  45.733  0.00  0.00    +0.000 A 
ATOM     23  N   UNL     1      38.722  32.060  46.312  0.00  0.00    +0.000 N 
ATOM     24  N   UNL     1      38.719  31.801  47.625  0.00  0.00    +0.000 NA
ATOM     25  H   UNL     1      36.070  30.195  46.664  0.00  0.00    +0.000 HD
ATOM     26  H   UNL     1      37.273  31.373  44.795  0.00  0.00    +0.000 HD
BRANCH  20  29
ATOM     27  C   UNL     1      37.412  30.124  51.570  0.00  0.00    +0.000 A 
ATOM     28  C   UNL     1      37.929  30.693  50.403  0.00  0.00    +0.000 A 
ATOM     29  C   UNL     1      37.265  30.506  49.204  0.00  0.00    +0.000 A 
ATOM     30  N   UNL     1      36.127  29.756  49.275  0.00  0.00    +0.000 NA
ATOM     31  C   UNL     1      35.644  29.216  50.411  0.00  0.00    +0.000 A 
ATOM     32  N   UNL     1      36.300  29.410  51.549  0.00  0.00    +0.000 NA
ATOM     33  H   UNL     1      38.010  30.331  52.458  0.00  0.00    +0.000 HD
ATOM     34  H   UNL     1      38.829  31.288  50.332  0.00  0.00    +0.000 HD
ATOM     35  H   UNL     1      34.728  28.648  50.295  0.00  0.00    +0.000 HD
ENDBRANCH  20  29
ENDBRANCH  17  23
ENDBRANCH  14  17
ENDBRANCH   1  14
BRANCH   6  36
ATOM     36  C   UNL     1      41.364  30.174  41.919  0.00  0.00    +0.000 C 
BRANCH  36  37
ATOM     37  C   UNL     1      41.097  28.929  41.187  0.00  0.00    +0.000 C 
ATOM     38  C   UNL     1      39.738  29.062  40.464  0.00  0.00    +0.000 C 
ATOM     39  N   UNL     1      39.721  27.979  39.498  0.00  0.00    +0.000 N 
ATOM     40  C   UNL     1      39.504  26.792  38.711  0.00  0.00    +0.000 C 
ATOM     41  O   UNL     1      38.601  25.917  38.733  0.00  0.00    +0.000 OA
ATOM     42  C   UNL     1      40.749  27.054  37.912  0.00  0.00    +0.000 C 
ATOM     43  H   UNL     1      41.569  26.381  38.156  0.00  0.00    +0.000 HD
ATOM     44  C   UNL     1      40.729  28.415  38.526  0.00  0.00    +0.000 C 
ATOM     45  S   UNL     1      42.106  28.803  39.654  0.00  0.00    +0.000 S 
BRANCH  37  46
ATOM     46  C   UNL     1      41.102  27.649  41.938  0.00  0.00    +0.000 C 
ATOM     47  H   UNL     1      41.368  27.739  42.995  0.00  0.00    +0.000 HD
ENDBRANCH  37  46
ENDBRANCH  36  37
ENDBRANCH   6  36
TORSDOF 7
