
 OpenBabel03262521183D

 32 34  0  0  1  0  0  0  0  0999 V2000
   38.5930   32.1570   46.4150 C   0  0  0  0  0  0  0  0  0  0  0  0
   39.8000   32.8650   46.3770 C   0  0  0  0  0  0  0  0  0  0  0  0
   40.1900   33.4590   45.1800 C   0  0  0  0  0  0  0  0  0  0  0  0
   39.3640   33.3160   44.0980 N   0  0  0  0  0  0  0  0  0  0  0  0
   38.1920   32.6170   44.1740 C   0  0  0  0  0  0  0  0  0  0  0  0
   37.8370   32.0600   45.3160 N   0  0  0  0  0  0  0  0  0  0  0  0
   40.4890   33.0100   47.1960 H   0  0  0  0  0  0  0  0  0  0  0  0
   41.1160   34.0170   45.0990 H   0  0  0  0  0  0  0  0  0  0  0  0
   38.3400   31.6250   47.6700 O   0  0  0  0  0  0  0  0  0  0  0  0
   37.1010   31.0510   47.8650 C   0  0  0  0  0  0  0  0  0  0  0  0
   36.4030   31.8780   48.1850 H   0  0  0  0  0  0  0  0  0  0  0  0
   36.6250   30.6380   46.9500 H   0  0  0  0  0  0  0  0  0  0  0  0
   37.4220   30.1610   48.8190 C   0  0  0  0  0  0  0  0  0  0  0  0
   36.5190   29.5400   49.1030 H   0  0  0  0  0  0  0  0  0  0  0  0
   38.1160   29.3410   48.4870 H   0  0  0  0  0  0  0  0  0  0  0  0
   38.0000   30.6800   50.0940 C   0  0  0  0  0  0  0  0  0  0  0  0
   37.7860   31.7710   50.1440 H   0  0  0  0  0  0  0  0  0  0  0  0
   39.1040   30.6000   50.1540 H   0  0  0  0  0  0  0  0  0  0  0  0
   37.2500   29.9340   51.5450 S   0  0  0  0  0  0  0  0  0  0  0  0
   37.3100   30.7540   52.6900 H   0  0  0  0  0  0  0  0  0  0  0  0
   37.3100   32.4740   42.9850 C   0  0  0  0  0  2  0  0  0  0  0  0
   38.1460   31.8930   41.8800 C   0  0  2  0  0  0  0  0  0  0  0  0
   37.4010   30.9310   40.9910 C   0  0  0  0  0  2  0  0  0  0  0  0
   37.3200   29.6650   41.6420 N   0  0  0  0  0  0  0  0  0  0  0  0
   36.7820   28.4700   42.2070 C   0  0  0  0  0  0  0  0  0  0  0  0
   35.7720   27.7290   42.0500 O   0  0  0  0  0  0  0  0  0  0  0  0
   37.9590   28.4360   43.1150 C   0  0  0  0  0  3  0  0  0  0  0  0
   37.7580   29.0560   44.0120 H   0  0  0  0  0  0  0  0  0  0  0  0
   38.6220   29.2080   42.0250 C   0  0  2  0  0  3  0  0  0  0  0  0
   39.3930   30.7760   42.5870 S   0  0  0  0  0  0  0  0  0  0  0  0
   38.7790   33.0130   41.1020 C   0  0  0  0  0  2  0  0  0  0  0  0
   38.5560   32.9740   40.0030 H   0  0  0  0  0  0  0  0  0  0  0  0
  1  9  1  0  0  0  0
  2  1  1  0  0  0  0
  2  7  1  0  0  0  0
  3  2  2  0  0  0  0
  4  5  2  0  0  0  0
  4  3  1  0  0  0  0
  5  6  1  0  0  0  0
  6  1  2  0  0  0  0
  8  3  1  0  0  0  0
  9 10  1  0  0  0  0
 10 11  1  0  0  0  0
 10 13  1  0  0  0  0
 12 10  1  0  0  0  0
 13 14  1  0  0  0  0
 13 16  1  0  0  0  0
 15 13  1  0  0  0  0
 16 17  1  0  0  0  0
 16 18  1  0  0  0  0
 16 19  1  0  0  0  0
 19 20  1  0  0  0  0
 21  5  1  0  0  0  0
 22 31  1  6  0  0  0
 22 30  1  0  0  0  0
 22 21  1  0  0  0  0
 23 24  1  0  0  0  0
 23 22  1  0  0  0  0
 24 29  1  0  0  0  0
 24 25  1  0  0  0  0
 25 27  1  0  0  0  0
 26 25  2  0  0  0  0
 27 28  1  0  0  0  0
 29 30  1  1  0  0  0
 29 27  1  0  0  0  0
 32 31  1  0  0  0  0
M  END
>  <minimizedAffinity>
-4.29160166

>  <minimizedRMSD>
0.987320185

$$$$
