
     RDKit          3D

 31 33  0  0  0  0  0  0  0  0999 V2000
   37.6245   30.3946   49.7008 C   0  0  0  0  0  0  0  0  0  0  0  0
   38.3247   31.5841   49.9087 C   0  0  0  0  0  0  0  0  0  0  0  0
   38.5712   32.4088   48.7890 C   0  0  0  0  0  0  0  0  0  0  0  0
   38.1064   31.9843   47.5770 N   0  0  0  0  0  0  0  0  0  0  0  0
   37.4398   30.8366   47.4242 C   0  0  0  0  0  0  0  0  0  0  0  0
   37.1989   30.0411   48.4883 N   0  0  0  0  0  0  0  0  0  0  0  0
   37.3888   29.5711   50.8743 C   0  0  0  0  0  0  0  0  0  0  0  0
   37.3997   30.0114   52.0478 O   0  0  0  0  0  0  0  0  0  0  0  0
   38.7087   31.9544   50.8517 H   0  0  0  0  0  0  0  0  0  0  0  0
   39.1110   33.3551   48.8631 H   0  0  0  0  0  0  0  0  0  0  0  0
   37.1118   30.5866   46.4239 H   0  0  0  0  0  0  0  0  0  0  0  0
   32.5770   29.5034   50.2799 C   0  0  0  0  0  0  0  0  0  0  0  0
   31.9509   29.9674   49.4630 H   0  0  0  0  0  0  0  0  0  0  0  0
   33.4159   28.4607   49.6194 C   0  0  0  0  0  0  0  0  0  0  0  0
   32.7657   27.9767   48.3153 C   0  0  0  0  0  0  0  0  0  0  0  0
   33.3585   27.1075   47.9802 H   0  0  0  0  0  0  0  0  0  0  0  0
   33.7648   27.2842   50.4694 C   0  0  0  0  0  0  0  0  0  0  0  0
   35.1131   27.4602   50.9740 N   0  0  0  0  0  0  0  0  0  0  0  0
   36.2446   27.5723   51.8316 C   0  0  0  0  0  0  0  0  0  0  0  0
   36.5374   27.3414   53.0338 O   0  0  0  0  0  0  0  0  0  0  0  0
   37.1129   28.1184   50.7541 C   0  0  1  0  0  0  0  0  0  0  0  0
   36.0086   27.6963   49.8547 C   0  0  2  0  0  0  0  0  0  0  0  0
   35.0616   29.0823   49.1083 S   0  0  0  0  0  0  0  0  0  0  0  0
   33.1069   30.2930   50.8058 H   0  0  0  0  0  0  0  0  0  0  0  0
   31.8147   28.9590   50.9040 H   0  0  0  0  0  0  0  0  0  0  0  0
   32.9395   28.7679   47.5292 H   0  0  0  0  0  0  0  0  0  0  0  0
   31.6938   27.7802   48.4502 H   0  0  0  0  0  0  0  0  0  0  0  0
   33.7831   26.3722   49.8167 H   0  0  0  0  0  0  0  0  0  0  0  0
   33.0801   27.1136   51.3075 H   0  0  0  0  0  0  0  0  0  0  0  0
   38.0190   27.4910   50.5716 H   0  0  0  0  0  0  0  0  0  0  0  0
   36.1858   26.8631   49.1785 H   0  0  0  0  0  0  0  0  0  0  0  0
  1  2  2  0
  1  7  1  0
  3  2  1  0
  4  3  2  0
  5  4  1  0
  5  6  2  0
  6  1  1  0
  7  8  2  0
  2  9  1  0
  3 10  1  0
  5 11  1  0
 12 13  1  0
 12 14  1  0
 14 15  1  0
 15 16  1  0
 14 17  1  0
 17 18  1  0
 18 19  1  0
 19 20  2  0
 19 21  1  0
 21 22  1  0
 22 23  1  0
 23 14  1  0
 22 18  1  0
 12 24  1  0
 12 25  1  0
 15 26  1  0
 15 27  1  0
 17 28  1  0
 17 29  1  0
 21 30  1  6
 22 31  1  6
  7 21  1  0
M  ISO  5   9  14  10  14  11  14  13   8  16   8
M  END
>  <DihAtoms>  (1) 
0,6,20,18

>  <DihDeg>  (1) 
60.001502800982806

$$$$
