
 OpenBabel03272500583D

 38 41  0  0  1  0  0  0  0  0999 V2000
   38.2560   31.9580   47.3720 C   0  0  0  0  0  0  0  0  0  0  0  0
   38.8390   32.8010   48.2710 C   0  0  0  0  0  0  0  0  0  0  0  0
   38.4100   32.8980   49.5990 C   0  0  0  0  0  0  0  0  0  0  0  0
   37.3010   32.0570   50.0030 C   0  0  0  0  0  0  0  0  0  0  0  0
   36.7670   31.2400   49.0600 C   0  0  0  0  0  0  0  0  0  0  0  0
   37.1870   31.1560   47.7850 C   0  0  0  0  0  0  0  0  0  0  0  0
   39.6850   33.4530   47.9940 H   0  0  0  0  0  0  0  0  0  0  0  0
   38.9240   33.5970   50.2650 H   0  0  0  0  0  0  0  0  0  0  0  0
   37.0870   32.2370   51.0300 H   0  0  0  0  0  0  0  0  0  0  0  0
   35.9920   30.6990   49.5810 H   0  0  0  0  0  0  0  0  0  0  0  0
   40.0490   31.2450   45.8610 C   0  0  0  0  0  0  0  0  0  0  0  0
   38.8280   31.9530   46.0460 C   0  0  0  0  0  0  0  0  0  0  0  0
   38.3400   32.5460   44.9090 C   0  0  0  0  0  0  0  0  0  0  0  0
   38.9920   32.4410   43.7400 N   0  0  0  0  0  0  0  0  0  0  0  0
   40.1180   31.7830   43.5880 C   0  0  0  0  0  0  0  0  0  0  0  0
   40.6390   31.1890   44.6490 N   0  0  0  0  0  0  0  0  0  0  0  0
   40.5190   30.7380   46.7070 H   0  0  0  0  0  0  0  0  0  0  0  0
   37.4180   33.0810   45.0480 H   0  0  0  0  0  0  0  0  0  0  0  0
   40.5950   31.7350   42.6190 H   0  0  0  0  0  0  0  0  0  0  0  0
   35.1910   30.0550   47.2080 C   0  0  0  0  0  0  0  0  0  0  0  0
   34.7040   30.5700   48.2910 O   0  0  0  0  0  0  0  0  0  0  0  0
   36.5770   30.3240   46.8820 N   0  0  0  0  0  0  0  0  0  0  0  0
   37.0400   29.9240   46.0600 H   0  0  0  0  0  0  0  0  0  0  0  0
   34.3830   29.2790   46.4210 O   0  0  0  0  0  0  0  0  0  0  0  0
   33.0530   29.5520   46.1320 C   0  0  0  0  0  0  0  0  0  0  0  0
   32.5690   30.7750   46.1870 O   0  0  0  0  0  0  0  0  0  0  0  0
   31.5820   30.3880   42.3170 C   0  0  0  0  0  0  0  0  0  0  0  0
   30.3360   29.7780   42.9200 C   0  0  0  0  0  2  0  0  0  0  0  0
   30.6410   29.4070   44.2840 N   0  0  0  0  0  0  0  0  0  0  0  0
   30.6780   29.2600   45.6980 C   0  0  0  0  0  0  0  0  0  0  0  0
   29.9260   29.5550   46.6490 O   0  0  0  0  0  0  0  0  0  0  0  0
   32.0030   28.5860   45.7090 C   0  0  1  0  0  3  0  0  0  0  0  0
   31.7640   28.4610   44.2550 C   0  0  2  0  0  3  0  0  0  0  0  0
   32.8730   29.3770   43.1470 S   0  0  0  0  0  0  0  0  0  0  0  0
   31.7560   31.8390   42.6010 C   0  0  0  0  0  2  0  0  0  0  0  0
   32.7620   31.9700   43.0920 H   0  0  0  0  0  0  0  0  0  0  0  0
   31.5760   30.0410   40.8450 C   0  0  0  0  0  2  0  0  0  0  0  0
   30.7800   30.6220   40.3510 H   0  0  0  0  0  0  0  0  0  0  0  0
  1  6  2  0  0  0  0
  1  2  1  0  0  0  0
  2  3  2  0  0  0  0
  3  4  1  0  0  0  0
  3  8  1  0  0  0  0
  4  9  1  0  0  0  0
  5 10  1  0  0  0  0
  5  4  2  0  0  0  0
  6  5  1  0  0  0  0
  7  2  1  0  0  0  0
 11 12  1  0  0  0  0
 11 17  1  0  0  0  0
 12  1  1  0  0  0  0
 13 18  1  0  0  0  0
 13 12  2  0  0  0  0
 14 13  1  0  0  0  0
 15 14  2  0  0  0  0
 15 16  1  0  0  0  0
 16 11  2  0  0  0  0
 19 15  1  0  0  0  0
 20 21  2  0  0  0  0
 22 20  1  0  0  0  0
 22  6  1  0  0  0  0
 23 22  1  0  0  0  0
 24 20  1  0  0  0  0
 25 26  2  0  0  0  0
 25 24  1  0  0  0  0
 27 35  1  0  0  0  0
 27 28  1  0  0  0  0
 27 34  1  0  0  0  0
 28 29  1  0  0  0  0
 29 30  1  0  0  0  0
 30 32  1  0  0  0  0
 30 31  2  0  0  0  0
 32 25  1  6  0  0  0
 33 34  1  6  0  0  0
 33 29  1  0  0  0  0
 33 32  1  0  0  0  0
 35 36  1  0  0  0  0
 37 27  1  0  0  0  0
 38 37  1  0  0  0  0
M  END
>  <minimizedAffinity>
-5.80874538

>  <minimizedRMSD>
0.787327528

$$$$
