
 OpenBabel03272508383D

 47 51  0  0  1  0  0  0  0  0999 V2000
   36.7380   28.1930   33.1620 N   0  0  0  0  0  0  0  0  0  0  0  0
   36.8380   28.9420   31.9730 C   0  0  0  0  0  0  0  0  0  0  0  0
   36.3720   28.2890   30.7230 C   0  0  0  0  0  0  0  0  0  0  0  0
   36.7370   26.9400   30.6520 O   0  0  0  0  0  0  0  0  0  0  0  0
   36.3020   26.2730   31.7430 C   0  0  0  0  0  0  0  0  0  0  0  0
   36.9110   26.8210   33.0150 C   0  0  1  0  0  0  0  0  0  0  0  0
   37.9810   28.9320   31.8920 H   0  0  0  0  0  0  0  0  0  0  0  0
   36.6790   30.0000   31.9660 H   0  0  0  0  0  0  0  0  0  0  0  0
   37.1030   28.6930   29.9180 H   0  0  0  0  0  0  0  0  0  0  0  0
   35.4670   28.5940   30.2480 H   0  0  0  0  0  0  0  0  0  0  0  0
   35.2560   25.9850   31.8010 H   0  0  0  0  0  0  0  0  0  0  0  0
   36.7980   25.2750   31.6620 H   0  0  0  0  0  0  0  0  0  0  0  0
   36.2810   26.3470   33.8070 H   0  0  0  0  0  0  0  0  0  0  0  0
   35.8750   28.6930   34.1520 C   0  0  0  0  0  0  0  0  0  0  0  0
   36.4600   28.9980   35.0440 H   0  0  0  0  0  0  0  0  0  0  0  0
   35.2960   27.7950   34.5330 H   0  0  0  0  0  0  0  0  0  0  0  0
   34.9090   29.7240   33.7880 C   0  0  0  0  0  0  0  0  0  0  0  0
   33.8780   29.5110   33.5430 H   0  0  0  0  0  0  0  0  0  0  0  0
   35.2890   30.2370   32.8480 H   0  0  0  0  0  0  0  0  0  0  0  0
   34.0990   32.3190   36.1290 C   0  0  0  0  0  0  0  0  0  0  0  0
   35.4240   32.0880   36.4430 C   0  0  0  0  0  0  0  0  0  0  0  0
   35.8850   31.0780   35.5850 C   0  0  0  0  0  0  0  0  0  0  0  0
   34.8510   30.7510   34.8120 N   0  0  0  0  0  0  0  0  0  0  0  0
   33.7870   31.4940   35.1410 N   0  0  0  0  0  0  0  0  0  0  0  0
   36.0020   32.6120   37.2310 H   0  0  0  0  0  0  0  0  0  0  0  0
   36.8670   30.8050   35.7090 H   0  0  0  0  0  0  0  0  0  0  0  0
   32.8840   35.1450   38.2890 C   0  0  0  0  0  0  0  0  0  0  0  0
   33.7740   34.2450   37.6970 C   0  0  0  0  0  0  0  0  0  0  0  0
   33.2950   33.2980   36.8110 C   0  0  0  0  0  0  0  0  0  0  0  0
   31.9480   33.3310   36.5890 N   0  0  0  0  0  0  0  0  0  0  0  0
   31.1060   34.2080   37.1690 C   0  0  0  0  0  0  0  0  0  0  0  0
   31.5910   35.1070   38.0170 N   0  0  0  0  0  0  0  0  0  0  0  0
   33.3630   35.8490   38.9700 H   0  0  0  0  0  0  0  0  0  0  0  0
   34.8420   34.2070   37.8640 H   0  0  0  0  0  0  0  0  0  0  0  0
   30.0650   34.1000   36.8850 H   0  0  0  0  0  0  0  0  0  0  0  0
   38.3280   26.3250   33.1650 C   0  0  0  0  0  2  0  0  0  0  0  0
   38.6900   25.9450   34.5360 C   0  0  1  0  0  0  0  0  0  0  0  0
   37.4110   25.5010   35.2810 C   0  0  0  0  0  2  0  0  0  0  0  0
   37.8890   24.8120   36.4660 N   0  0  0  0  0  0  0  0  0  0  0  0
   38.2600   24.3560   37.7800 C   0  0  0  0  0  0  0  0  0  0  0  0
   37.9390   24.7460   38.9330 O   0  0  0  0  0  0  0  0  0  0  0  0
   39.1360   23.2830   37.1980 C   0  0  0  0  0  3  0  0  0  0  0  0
   40.1990   23.4930   37.2960 H   0  0  0  0  0  0  0  0  0  0  0  0
   38.4600   23.5840   35.9010 C   0  0  2  0  0  3  0  0  0  0  0  0
   39.5140   24.3010   34.5980 S   0  0  0  0  0  0  0  0  0  0  0  0
   39.4030   26.9330   35.3830 C   0  0  0  0  0  2  0  0  0  0  0  0
   39.6560   27.8690   34.8790 H   0  0  0  0  0  0  0  0  0  0  0  0
  1 14  1  0  0  0  0
  2  1  1  0  0  0  0
  3  2  1  0  0  0  0
  4  3  1  0  0  0  0
  4  5  1  0  0  0  0
  5 11  1  0  0  0  0
  5  6  1  0  0  0  0
  6  1  1  0  0  0  0
  6 36  1  0  0  0  0
  6 13  1  1  0  0  0
  7  2  1  0  0  0  0
  8  2  1  0  0  0  0
  9  3  1  0  0  0  0
 10  3  1  0  0  0  0
 12  5  1  0  0  0  0
 14 16  1  0  0  0  0
 14 15  1  0  0  0  0
 17 14  1  0  0  0  0
 17 23  1  0  0  0  0
 18 17  1  0  0  0  0
 19 17  1  0  0  0  0
 20 21  1  0  0  0  0
 20 29  1  0  0  0  0
 21 25  1  0  0  0  0
 22 26  1  0  0  0  0
 22 21  2  0  0  0  0
 23 24  1  0  0  0  0
 23 22  1  0  0  0  0
 24 20  2  0  0  0  0
 27 33  1  0  0  0  0
 28 34  1  0  0  0  0
 28 27  2  0  0  0  0
 29 28  1  0  0  0  0
 30 29  2  0  0  0  0
 30 31  1  0  0  0  0
 31 32  2  0  0  0  0
 32 27  1  0  0  0  0
 35 31  1  0  0  0  0
 37 36  1  6  0  0  0
 37 45  1  0  0  0  0
 37 38  1  0  0  0  0
 37 46  1  0  0  0  0
 38 39  1  0  0  0  0
 39 40  1  0  0  0  0
 40 41  2  0  0  0  0
 42 43  1  0  0  0  0
 42 40  1  0  0  0  0
 44 45  1  6  0  0  0
 44 39  1  0  0  0  0
 44 42  1  0  0  0  0
 47 46  1  0  0  0  0
M  END
>  <minimizedAffinity>
-5.87107849

$$$$

 OpenBabel03272508383D

 47 51  0  0  1  0  0  0  0  0999 V2000
   39.0610   26.1110   31.6550 N   0  0  0  0  0  0  0  0  0  0  0  0
   39.5880   26.0850   30.3480 C   0  0  0  0  0  0  0  0  0  0  0  0
   39.1630   24.9650   29.4710 C   0  0  0  0  0  0  0  0  0  0  0  0
   39.1000   23.7430   30.1500 O   0  0  0  0  0  0  0  0  0  0  0  0
   38.3010   23.8440   31.2340 C   0  0  0  0  0  0  0  0  0  0  0  0
   38.8240   24.8630   32.2220 C   0  0  1  0  0  0  0  0  0  0  0  0
   40.6680   25.8310   30.6340 H   0  0  0  0  0  0  0  0  0  0  0  0
   39.7670   26.9880   29.8020 H   0  0  0  0  0  0  0  0  0  0  0  0
   40.1080   24.7440   28.8360 H   0  0  0  0  0  0  0  0  0  0  0  0
   38.4910   25.1270   28.6580 H   0  0  0  0  0  0  0  0  0  0  0  0
   37.2240   23.8210   31.0980 H   0  0  0  0  0  0  0  0  0  0  0  0
   38.4710   22.8850   31.7820 H   0  0  0  0  0  0  0  0  0  0  0  0
   37.9530   25.0010   32.9100 H   0  0  0  0  0  0  0  0  0  0  0  0
   38.2390   27.2030   31.9820 C   0  0  0  0  0  0  0  0  0  0  0  0
   37.9990   27.7810   31.0660 H   0  0  0  0  0  0  0  0  0  0  0  0
   38.9020   27.9200   32.5590 H   0  0  0  0  0  0  0  0  0  0  0  0
   37.0390   26.9660   32.7770 C   0  0  0  0  0  0  0  0  0  0  0  0
   37.0400   26.4020   33.6990 H   0  0  0  0  0  0  0  0  0  0  0  0
   36.3040   26.3890   32.1300 H   0  0  0  0  0  0  0  0  0  0  0  0
   35.4560   29.8370   34.2340 C   0  0  0  0  0  0  0  0  0  0  0  0
   35.5000   30.2100   32.9050 C   0  0  0  0  0  0  0  0  0  0  0  0
   36.1030   29.1580   32.1970 C   0  0  0  0  0  0  0  0  0  0  0  0
   36.3880   28.2230   33.1020 N   0  0  0  0  0  0  0  0  0  0  0  0
   36.0010   28.6330   34.3160 N   0  0  0  0  0  0  0  0  0  0  0  0
   35.1250   31.1660   32.4890 H   0  0  0  0  0  0  0  0  0  0  0  0
   36.1980   29.3020   31.1860 H   0  0  0  0  0  0  0  0  0  0  0  0
   34.9390   32.3750   36.9580 C   0  0  0  0  0  0  0  0  0  0  0  0
   35.6040   31.6190   35.9890 C   0  0  0  0  0  0  0  0  0  0  0  0
   34.9000   30.6770   35.2620 C   0  0  0  0  0  0  0  0  0  0  0  0
   33.5740   30.5690   35.5690 N   0  0  0  0  0  0  0  0  0  0  0  0
   32.9510   31.3090   36.5070 C   0  0  0  0  0  0  0  0  0  0  0  0
   33.6490   32.2060   37.1920 N   0  0  0  0  0  0  0  0  0  0  0  0
   35.5840   33.0880   37.4730 H   0  0  0  0  0  0  0  0  0  0  0  0
   36.6520   31.6930   35.7360 H   0  0  0  0  0  0  0  0  0  0  0  0
   31.8940   31.1000   36.6280 H   0  0  0  0  0  0  0  0  0  0  0  0
   39.9710   24.2800   33.0090 C   0  0  0  0  0  2  0  0  0  0  0  0
   39.8370   24.4210   34.4640 C   0  0  1  0  0  0  0  0  0  0  0  0
   38.4820   23.8160   34.8970 C   0  0  0  0  0  2  0  0  0  0  0  0
   38.5850   23.6620   36.3370 N   0  0  0  0  0  0  0  0  0  0  0  0
   38.4950   23.7230   37.7730 C   0  0  0  0  0  0  0  0  0  0  0  0
   37.6810   24.2900   38.5460 O   0  0  0  0  0  0  0  0  0  0  0  0
   39.7200   22.8660   37.9190 C   0  0  0  0  0  3  0  0  0  0  0  0
   40.5980   23.4190   38.2490 H   0  0  0  0  0  0  0  0  0  0  0  0
   39.5590   22.5740   36.4640 C   0  0  2  0  0  3  0  0  0  0  0  0
   40.8760   23.2040   35.3720 S   0  0  0  0  0  0  0  0  0  0  0  0
   39.9540   25.7750   35.0600 C   0  0  0  0  0  2  0  0  0  0  0  0
   40.1950   26.5690   34.3480 H   0  0  0  0  0  0  0  0  0  0  0  0
  1 14  1  0  0  0  0
  1  6  1  0  0  0  0
  2  7  1  0  0  0  0
  2  1  1  0  0  0  0
  3  4  1  0  0  0  0
  3  2  1  0  0  0  0
  4  5  1  0  0  0  0
  5 12  1  0  0  0  0
  5  6  1  0  0  0  0
  6 13  1  1  0  0  0
  6 36  1  0  0  0  0
  8  2  1  0  0  0  0
  9  3  1  0  0  0  0
 10  3  1  0  0  0  0
 11  5  1  0  0  0  0
 14 16  1  0  0  0  0
 14 17  1  0  0  0  0
 15 14  1  0  0  0  0
 17 23  1  0  0  0  0
 17 18  1  0  0  0  0
 19 17  1  0  0  0  0
 20 24  2  0  0  0  0
 20 29  1  0  0  0  0
 21 20  1  0  0  0  0
 22 21  2  0  0  0  0
 22 23  1  0  0  0  0
 23 24  1  0  0  0  0
 25 21  1  0  0  0  0
 26 22  1  0  0  0  0
 27 32  1  0  0  0  0
 27 33  1  0  0  0  0
 28 27  2  0  0  0  0
 29 30  2  0  0  0  0
 29 28  1  0  0  0  0
 30 31  1  0  0  0  0
 31 35  1  0  0  0  0
 31 32  2  0  0  0  0
 34 28  1  0  0  0  0
 37 36  1  6  0  0  0
 37 38  1  0  0  0  0
 37 46  1  0  0  0  0
 37 45  1  0  0  0  0
 38 39  1  0  0  0  0
 39 44  1  0  0  0  0
 39 40  1  0  0  0  0
 40 42  1  0  0  0  0
 40 41  2  0  0  0  0
 42 43  1  0  0  0  0
 44 45  1  6  0  0  0
 44 42  1  0  0  0  0
 47 46  1  0  0  0  0
M  END
>  <minimizedAffinity>
-5.67401695

$$$$

 OpenBabel03272508383D

 47 51  0  0  1  0  0  0  0  0999 V2000
   36.4700   29.1240   31.2370 N   0  0  0  0  0  0  0  0  0  0  0  0
   36.7780   29.2940   29.8730 C   0  0  0  0  0  0  0  0  0  0  0  0
   37.2340   30.6410   29.4470 C   0  0  0  0  0  0  0  0  0  0  0  0
   36.5180   31.6730   30.0660 O   0  0  0  0  0  0  0  0  0  0  0  0
   36.5670   31.5430   31.4090 C   0  0  0  0  0  0  0  0  0  0  0  0
   35.9430   30.2440   31.8690 C   0  0  1  0  0  0  0  0  0  0  0  0
   35.7080   29.2140   29.4720 H   0  0  0  0  0  0  0  0  0  0  0  0
   37.2300   28.5090   29.3020 H   0  0  0  0  0  0  0  0  0  0  0  0
   36.7870   30.7550   28.3830 H   0  0  0  0  0  0  0  0  0  0  0  0
   38.2530   30.8200   29.1840 H   0  0  0  0  0  0  0  0  0  0  0  0
   37.4650   31.8540   31.9360 H   0  0  0  0  0  0  0  0  0  0  0  0
   35.8280   32.2960   31.7770 H   0  0  0  0  0  0  0  0  0  0  0  0
   36.2770   30.1800   32.9340 H   0  0  0  0  0  0  0  0  0  0  0  0
   37.2700   28.2190   31.9560 C   0  0  0  0  0  0  0  0  0  0  0  0
   37.8660   28.7650   32.7170 H   0  0  0  0  0  0  0  0  0  0  0  0
   38.0650   27.8690   31.2260 H   0  0  0  0  0  0  0  0  0  0  0  0
   36.6460   27.0360   32.5370 C   0  0  0  0  0  0  0  0  0  0  0  0
   36.5900   26.0850   32.0280 H   0  0  0  0  0  0  0  0  0  0  0  0
   35.5530   27.2810   32.7310 H   0  0  0  0  0  0  0  0  0  0  0  0
   38.1000   25.6460   35.5080 C   0  0  0  0  0  0  0  0  0  0  0  0
   38.0510   26.9850   35.8430 C   0  0  0  0  0  0  0  0  0  0  0  0
   37.4880   27.6670   34.7530 C   0  0  0  0  0  0  0  0  0  0  0  0
   37.2270   26.7380   33.8340 N   0  0  0  0  0  0  0  0  0  0  0  0
   37.5940   25.5340   34.2890 N   0  0  0  0  0  0  0  0  0  0  0  0
   38.3970   27.4250   36.7990 H   0  0  0  0  0  0  0  0  0  0  0  0
   37.3890   28.6820   34.8680 H   0  0  0  0  0  0  0  0  0  0  0  0
   38.7140   23.3290   38.4030 C   0  0  0  0  0  0  0  0  0  0  0  0
   38.1150   24.3380   37.6440 C   0  0  0  0  0  0  0  0  0  0  0  0
   38.6210   24.6390   36.3930 C   0  0  0  0  0  0  0  0  0  0  0  0
   39.6980   23.8970   36.0030 N   0  0  0  0  0  0  0  0  0  0  0  0
   40.2620   22.9270   36.7490 C   0  0  0  0  0  0  0  0  0  0  0  0
   39.7570   22.6570   37.9470 N   0  0  0  0  0  0  0  0  0  0  0  0
   38.2390   23.1710   39.3720 H   0  0  0  0  0  0  0  0  0  0  0  0
   37.2620   24.9340   37.9410 H   0  0  0  0  0  0  0  0  0  0  0  0
   41.1110   22.4320   36.2920 H   0  0  0  0  0  0  0  0  0  0  0  0
   34.4380   30.3560   31.8430 C   0  0  0  0  0  2  0  0  0  0  0  0
   33.8030   30.2490   33.1620 C   0  0  1  0  0  0  0  0  0  0  0  0
   33.1090   31.5910   33.4880 C   0  0  0  0  0  2  0  0  0  0  0  0
   32.2230   31.2930   34.5980 N   0  0  0  0  0  0  0  0  0  0  0  0
   31.5270   31.1560   35.8520 C   0  0  0  0  0  0  0  0  0  0  0  0
   31.6350   31.7620   36.9490 O   0  0  0  0  0  0  0  0  0  0  0  0
   30.6780   30.0480   35.2980 C   0  0  0  0  0  3  0  0  0  0  0  0
   30.9460   29.0650   35.6810 H   0  0  0  0  0  0  0  0  0  0  0  0
   31.1950   30.4640   33.9600 C   0  0  2  0  0  3  0  0  0  0  0  0
   32.2560   29.2550   33.1020 S   0  0  0  0  0  0  0  0  0  0  0  0
   34.6410   29.8640   34.3250 C   0  0  0  0  0  2  0  0  0  0  0  0
   35.6810   29.6300   34.0820 H   0  0  0  0  0  0  0  0  0  0  0  0
  1  6  1  0  0  0  0
  1 14  1  0  0  0  0
  2  1  1  0  0  0  0
  3  2  1  0  0  0  0
  3  4  1  0  0  0  0
  4  5  1  0  0  0  0
  5 12  1  0  0  0  0
  5  6  1  0  0  0  0
  5 11  1  0  0  0  0
  6 13  1  1  0  0  0
  7  2  1  0  0  0  0
  8  2  1  0  0  0  0
  9  3  1  0  0  0  0
 10  3  1  0  0  0  0
 14 17  1  0  0  0  0
 14 15  1  0  0  0  0
 16 14  1  0  0  0  0
 17 19  1  0  0  0  0
 17 23  1  0  0  0  0
 18 17  1  0  0  0  0
 20 21  1  0  0  0  0
 20 29  1  0  0  0  0
 21 25  1  0  0  0  0
 22 26  1  0  0  0  0
 22 21  2  0  0  0  0
 23 24  1  0  0  0  0
 23 22  1  0  0  0  0
 24 20  2  0  0  0  0
 27 33  1  0  0  0  0
 28 34  1  0  0  0  0
 28 27  2  0  0  0  0
 29 28  1  0  0  0  0
 30 29  2  0  0  0  0
 30 31  1  0  0  0  0
 31 32  2  0  0  0  0
 32 27  1  0  0  0  0
 35 31  1  0  0  0  0
 36  6  1  0  0  0  0
 37 36  1  6  0  0  0
 37 38  1  0  0  0  0
 37 46  1  0  0  0  0
 38 39  1  0  0  0  0
 39 40  1  0  0  0  0
 40 41  2  0  0  0  0
 42 43  1  0  0  0  0
 42 40  1  0  0  0  0
 44 45  1  1  0  0  0
 44 39  1  0  0  0  0
 44 42  1  0  0  0  0
 45 37  1  0  0  0  0
 47 46  1  0  0  0  0
M  END
>  <minimizedAffinity>
-5.61985922

$$$$

 OpenBabel03272508383D

 47 51  0  0  1  0  0  0  0  0999 V2000
   37.9880   25.9180   33.6010 N   0  0  0  0  0  0  0  0  0  0  0  0
   36.9160   26.8320   33.5820 C   0  0  0  0  0  0  0  0  0  0  0  0
   37.0430   28.0400   34.4380 C   0  0  0  0  0  0  0  0  0  0  0  0
   37.6100   27.7580   35.6860 O   0  0  0  0  0  0  0  0  0  0  0  0
   38.8010   27.1380   35.5360 C   0  0  0  0  0  0  0  0  0  0  0  0
   38.6570   25.8160   34.8160 C   0  0  1  0  0  0  0  0  0  0  0  0
   36.1550   26.1730   34.1290 H   0  0  0  0  0  0  0  0  0  0  0  0
   36.3610   27.0220   32.6870 H   0  0  0  0  0  0  0  0  0  0  0  0
   35.9580   28.2320   34.7980 H   0  0  0  0  0  0  0  0  0  0  0  0
   37.2150   29.0020   34.0100 H   0  0  0  0  0  0  0  0  0  0  0  0
   39.6730   27.7310   35.2760 H   0  0  0  0  0  0  0  0  0  0  0  0
   39.0630   26.8090   36.5710 H   0  0  0  0  0  0  0  0  0  0  0  0
   39.7160   25.5640   34.5610 H   0  0  0  0  0  0  0  0  0  0  0  0
   38.6860   25.7390   32.3940 C   0  0  0  0  0  0  0  0  0  0  0  0
   39.4650   24.9600   32.5220 H   0  0  0  0  0  0  0  0  0  0  0  0
   39.3010   26.6820   32.2550 H   0  0  0  0  0  0  0  0  0  0  0  0
   37.9260   25.5170   31.1690 C   0  0  0  0  0  0  0  0  0  0  0  0
   38.3840   25.4260   30.1950 H   0  0  0  0  0  0  0  0  0  0  0  0
   37.2220   26.3980   31.0340 H   0  0  0  0  0  0  0  0  0  0  0  0
   36.4340   22.2860   31.6240 C   0  0  0  0  0  0  0  0  0  0  0  0
   35.3140   23.0600   31.3890 C   0  0  0  0  0  0  0  0  0  0  0  0
   35.7540   24.3770   31.1840 C   0  0  0  0  0  0  0  0  0  0  0  0
   37.0810   24.3440   31.3000 N   0  0  0  0  0  0  0  0  0  0  0  0
   37.4810   23.0940   31.5630 N   0  0  0  0  0  0  0  0  0  0  0  0
   34.2680   22.6940   31.3690 H   0  0  0  0  0  0  0  0  0  0  0  0
   35.0170   25.0660   30.9940 H   0  0  0  0  0  0  0  0  0  0  0  0
   35.3940   18.8470   32.7270 C   0  0  0  0  0  0  0  0  0  0  0  0
   35.3420   20.2320   32.5540 C   0  0  0  0  0  0  0  0  0  0  0  0
   36.3650   20.8710   31.8770 C   0  0  0  0  0  0  0  0  0  0  0  0
   37.3650   20.0600   31.4260 N   0  0  0  0  0  0  0  0  0  0  0  0
   37.3970   18.7250   31.6030 C   0  0  0  0  0  0  0  0  0  0  0  0
   36.4030   18.1350   32.2560 N   0  0  0  0  0  0  0  0  0  0  0  0
   34.5410   18.4430   33.2730 H   0  0  0  0  0  0  0  0  0  0  0  0
   34.5560   20.8870   32.9070 H   0  0  0  0  0  0  0  0  0  0  0  0
   38.2640   18.2280   31.1810 H   0  0  0  0  0  0  0  0  0  0  0  0
   38.1270   24.7660   35.7620 C   0  0  0  0  0  2  0  0  0  0  0  0
   38.8980   23.5170   35.7680 C   0  0  1  0  0  0  0  0  0  0  0  0
   40.3380   23.8200   35.2950 C   0  0  0  0  0  2  0  0  0  0  0  0
   41.1090   22.6500   35.6710 N   0  0  0  0  0  0  0  0  0  0  0  0
   41.8860   21.4410   35.7630 C   0  0  0  0  0  0  0  0  0  0  0  0
   42.5050   20.7660   34.9000 O   0  0  0  0  0  0  0  0  0  0  0  0
   41.6410   21.3560   37.2430 C   0  0  0  0  0  3  0  0  0  0  0  0
   40.9390   20.5720   37.5200 H   0  0  0  0  0  0  0  0  0  0  0  0
   41.1460   22.7600   37.1330 C   0  0  2  0  0  3  0  0  0  0  0  0
   39.3720   23.0100   37.4720 S   0  0  0  0  0  0  0  0  0  0  0  0
   38.3850   22.3620   34.9890 C   0  0  0  0  0  2  0  0  0  0  0  0
   37.4180   22.5280   34.5090 H   0  0  0  0  0  0  0  0  0  0  0  0
  1  6  1  0  0  0  0
  2  1  1  0  0  0  0
  2  7  1  0  0  0  0
  2  3  1  0  0  0  0
  3  9  1  0  0  0  0
  3  4  1  0  0  0  0
  5  4  1  0  0  0  0
  5 12  1  0  0  0  0
  6 13  1  6  0  0  0
  6  5  1  0  0  0  0
  6 36  1  0  0  0  0
  8  2  1  0  0  0  0
 10  3  1  0  0  0  0
 11  5  1  0  0  0  0
 14 15  1  0  0  0  0
 14  1  1  0  0  0  0
 16 14  1  0  0  0  0
 17 23  1  0  0  0  0
 17 14  1  0  0  0  0
 18 17  1  0  0  0  0
 19 17  1  0  0  0  0
 20 29  1  0  0  0  0
 21 20  1  0  0  0  0
 22 23  1  0  0  0  0
 22 21  2  0  0  0  0
 23 24  1  0  0  0  0
 24 20  2  0  0  0  0
 25 21  1  0  0  0  0
 26 22  1  0  0  0  0
 27 33  1  0  0  0  0
 28 27  1  0  0  0  0
 28 34  1  0  0  0  0
 29 28  2  0  0  0  0
 30 31  2  0  0  0  0
 30 29  1  0  0  0  0
 31 32  1  0  0  0  0
 32 27  2  0  0  0  0
 35 31  1  0  0  0  0
 36 37  1  0  0  0  0
 37 46  1  6  0  0  0
 37 45  1  0  0  0  0
 38 39  1  0  0  0  0
 38 37  1  0  0  0  0
 39 40  1  0  0  0  0
 39 44  1  0  0  0  0
 40 42  1  0  0  0  0
 41 40  2  0  0  0  0
 42 43  1  0  0  0  0
 44 42  1  1  0  0  0
 44 45  1  0  0  0  0
 47 46  1  0  0  0  0
M  END
>  <minimizedAffinity>
-5.615026

$$$$

 OpenBabel03272508383D

 47 51  0  0  1  0  0  0  0  0999 V2000
   35.5770   29.3580   31.9380 N   0  0  0  0  0  0  0  0  0  0  0  0
   36.2520   29.1780   30.7130 C   0  0  0  0  0  0  0  0  0  0  0  0
   36.9110   30.3720   30.1250 C   0  0  0  0  0  0  0  0  0  0  0  0
   36.1400   31.5330   30.2560 O   0  0  0  0  0  0  0  0  0  0  0  0
   35.8160   31.7420   31.5510 C   0  0  0  0  0  0  0  0  0  0  0  0
   34.9900   30.6060   32.1130 C   0  0  1  0  0  0  0  0  0  0  0  0
   35.3240   29.0120   30.0610 H   0  0  0  0  0  0  0  0  0  0  0  0
   36.7760   28.2710   30.4940 H   0  0  0  0  0  0  0  0  0  0  0  0
   36.7750   30.2210   28.9830 H   0  0  0  0  0  0  0  0  0  0  0  0
   37.9730   30.4690   30.1220 H   0  0  0  0  0  0  0  0  0  0  0  0
   36.5620   32.1650   32.2170 H   0  0  0  0  0  0  0  0  0  0  0  0
   35.0680   32.5710   31.5090 H   0  0  0  0  0  0  0  0  0  0  0  0
   35.0210   30.8070   33.2120 H   0  0  0  0  0  0  0  0  0  0  0  0
   36.0810   28.6530   33.0450 C   0  0  0  0  0  0  0  0  0  0  0  0
   35.3250   28.6390   33.8570 H   0  0  0  0  0  0  0  0  0  0  0  0
   36.8960   29.3120   33.4790 H   0  0  0  0  0  0  0  0  0  0  0  0
   36.6440   27.3250   32.8360 C   0  0  0  0  0  0  0  0  0  0  0  0
   37.3170   27.0870   32.0240 H   0  0  0  0  0  0  0  0  0  0  0  0
   35.7810   26.6060   32.6640 H   0  0  0  0  0  0  0  0  0  0  0  0
   38.3680   25.5840   35.4570 C   0  0  0  0  0  0  0  0  0  0  0  0
   38.2330   26.8380   36.0200 C   0  0  0  0  0  0  0  0  0  0  0  0
   37.5570   27.6420   35.0900 C   0  0  0  0  0  0  0  0  0  0  0  0
   37.3200   26.8640   34.0350 N   0  0  0  0  0  0  0  0  0  0  0  0
   37.8060   25.6370   34.2590 N   0  0  0  0  0  0  0  0  0  0  0  0
   38.5970   27.1380   37.0230 H   0  0  0  0  0  0  0  0  0  0  0  0
   37.3850   28.6110   35.3830 H   0  0  0  0  0  0  0  0  0  0  0  0
   40.6350   22.7380   36.4000 C   0  0  0  0  0  0  0  0  0  0  0  0
   40.0930   23.7770   35.6380 C   0  0  0  0  0  0  0  0  0  0  0  0
   39.0170   24.4910   36.1310 C   0  0  0  0  0  0  0  0  0  0  0  0
   38.5680   24.1010   37.3600 N   0  0  0  0  0  0  0  0  0  0  0  0
   39.1040   23.0970   38.0800 C   0  0  0  0  0  0  0  0  0  0  0  0
   40.1370   22.4260   37.5840 N   0  0  0  0  0  0  0  0  0  0  0  0
   41.4790   22.2400   35.9210 H   0  0  0  0  0  0  0  0  0  0  0  0
   40.4380   24.0960   34.6640 H   0  0  0  0  0  0  0  0  0  0  0  0
   38.6300   22.9150   39.0370 H   0  0  0  0  0  0  0  0  0  0  0  0
   33.5610   30.7230   31.6420 C   0  0  0  0  0  2  0  0  0  0  0  0
   32.5640   30.6200   32.7140 C   0  0  1  0  0  0  0  0  0  0  0  0
   32.2710   29.1250   32.9750 C   0  0  0  0  0  2  0  0  0  0  0  0
   31.5820   29.0970   34.2520 N   0  0  0  0  0  0  0  0  0  0  0  0
   30.6710   28.9970   35.3630 C   0  0  0  0  0  0  0  0  0  0  0  0
   29.5160   28.5090   35.4680 O   0  0  0  0  0  0  0  0  0  0  0  0
   31.6500   29.6840   36.2720 C   0  0  0  0  0  3  0  0  0  0  0  0
   31.3670   30.7060   36.5180 H   0  0  0  0  0  0  0  0  0  0  0  0
   32.6520   29.4560   35.1890 C   0  0  2  0  0  3  0  0  0  0  0  0
   33.2970   30.9510   34.3690 S   0  0  0  0  0  0  0  0  0  0  0  0
   31.2700   31.3270   32.5510 C   0  0  0  0  0  2  0  0  0  0  0  0
   31.1900   31.9300   31.6430 H   0  0  0  0  0  0  0  0  0  0  0  0
  1  6  1  0  0  0  0
  1 14  1  0  0  0  0
  2  1  1  0  0  0  0
  3  4  1  0  0  0  0
  3  2  1  0  0  0  0
  4  5  1  0  0  0  0
  5  6  1  0  0  0  0
  5 11  1  0  0  0  0
  6 13  1  1  0  0  0
  7  2  1  0  0  0  0
  8  2  1  0  0  0  0
  9  3  1  0  0  0  0
 10  3  1  0  0  0  0
 12  5  1  0  0  0  0
 14 16  1  0  0  0  0
 14 15  1  0  0  0  0
 17 14  1  0  0  0  0
 17 23  1  0  0  0  0
 18 17  1  0  0  0  0
 19 17  1  0  0  0  0
 20 21  1  0  0  0  0
 20 29  1  0  0  0  0
 21 25  1  0  0  0  0
 22 26  1  0  0  0  0
 22 21  2  0  0  0  0
 23 24  1  0  0  0  0
 23 22  1  0  0  0  0
 24 20  2  0  0  0  0
 27 32  1  0  0  0  0
 28 29  1  0  0  0  0
 28 27  2  0  0  0  0
 29 30  2  0  0  0  0
 30 31  1  0  0  0  0
 31 35  1  0  0  0  0
 32 31  2  0  0  0  0
 33 27  1  0  0  0  0
 34 28  1  0  0  0  0
 36  6  1  0  0  0  0
 37 36  1  6  0  0  0
 37 38  1  0  0  0  0
 37 45  1  0  0  0  0
 38 39  1  0  0  0  0
 39 44  1  0  0  0  0
 39 40  1  0  0  0  0
 40 41  2  0  0  0  0
 40 42  1  0  0  0  0
 42 43  1  0  0  0  0
 44 45  1  6  0  0  0
 44 42  1  0  0  0  0
 46 37  1  0  0  0  0
 47 46  1  0  0  0  0
M  END
>  <minimizedAffinity>
-5.52590656

$$$$

 OpenBabel03272508383D

 47 51  0  0  1  0  0  0  0  0999 V2000
   37.4660   26.3050   32.9730 N   0  0  0  0  0  0  0  0  0  0  0  0
   37.9390   27.5060   32.4090 C   0  0  0  0  0  0  0  0  0  0  0  0
   37.0620   28.1770   31.4150 C   0  0  0  0  0  0  0  0  0  0  0  0
   36.4440   27.2710   30.5450 O   0  0  0  0  0  0  0  0  0  0  0  0
   35.7660   26.3330   31.2410 C   0  0  0  0  0  0  0  0  0  0  0  0
   36.6830   25.5230   32.1300 C   0  0  1  0  0  0  0  0  0  0  0  0
   38.7830   27.0500   31.7830 H   0  0  0  0  0  0  0  0  0  0  0  0
   38.5140   28.2030   32.9830 H   0  0  0  0  0  0  0  0  0  0  0  0
   37.8110   28.6350   30.6580 H   0  0  0  0  0  0  0  0  0  0  0  0
   36.5450   29.0780   31.6560 H   0  0  0  0  0  0  0  0  0  0  0  0
   34.7970   26.5870   31.6600 H   0  0  0  0  0  0  0  0  0  0  0  0
   35.4760   25.5820   30.4650 H   0  0  0  0  0  0  0  0  0  0  0  0
   35.9620   24.9860   32.7950 H   0  0  0  0  0  0  0  0  0  0  0  0
   37.2250   26.3100   34.3570 C   0  0  0  0  0  0  0  0  0  0  0  0
   36.6160   25.4250   34.6370 H   0  0  0  0  0  0  0  0  0  0  0  0
   36.5070   27.1700   34.5380 H   0  0  0  0  0  0  0  0  0  0  0  0
   38.3530   26.4720   35.2670 C   0  0  0  0  0  0  0  0  0  0  0  0
   38.3470   27.1570   36.1030 H   0  0  0  0  0  0  0  0  0  0  0  0
   39.2420   26.8300   34.6560 H   0  0  0  0  0  0  0  0  0  0  0  0
   39.8990   23.4040   36.2980 C   0  0  0  0  0  0  0  0  0  0  0  0
   38.7090   23.3450   36.9980 C   0  0  0  0  0  0  0  0  0  0  0  0
   37.9830   24.5030   36.6820 C   0  0  0  0  0  0  0  0  0  0  0  0
   38.7410   25.1920   35.8300 N   0  0  0  0  0  0  0  0  0  0  0  0
   39.8830   24.5320   35.6050 N   0  0  0  0  0  0  0  0  0  0  0  0
   38.4000   22.5270   37.6800 H   0  0  0  0  0  0  0  0  0  0  0  0
   37.0660   24.5900   37.1360 H   0  0  0  0  0  0  0  0  0  0  0  0
   42.2980   20.7630   37.4810 C   0  0  0  0  0  0  0  0  0  0  0  0
   41.3140   21.7540   37.5430 C   0  0  0  0  0  0  0  0  0  0  0  0
   40.9030   22.3760   36.3790 C   0  0  0  0  0  0  0  0  0  0  0  0
   41.5170   21.9490   35.2370 N   0  0  0  0  0  0  0  0  0  0  0  0
   42.4640   20.9910   35.1980 C   0  0  0  0  0  0  0  0  0  0  0  0
   42.8420   20.4090   36.3300 N   0  0  0  0  0  0  0  0  0  0  0  0
   42.5500   20.3370   38.4530 H   0  0  0  0  0  0  0  0  0  0  0  0
   40.8200   22.1020   38.4400 H   0  0  0  0  0  0  0  0  0  0  0  0
   42.8500   20.7690   34.2100 H   0  0  0  0  0  0  0  0  0  0  0  0
   37.4320   24.5030   31.3090 C   0  0  0  0  0  2  0  0  0  0  0  0
   37.3680   23.1360   31.8420 C   0  0  1  0  0  0  0  0  0  0  0  0
   35.8950   22.6680   31.8270 C   0  0  0  0  0  2  0  0  0  0  0  0
   35.9590   21.2300   32.0110 N   0  0  0  0  0  0  0  0  0  0  0  0
   35.9100   19.8590   32.4510 C   0  0  0  0  0  0  0  0  0  0  0  0
   35.3340   19.3030   33.4210 O   0  0  0  0  0  0  0  0  0  0  0  0
   36.7900   19.4280   31.3130 C   0  0  0  0  0  3  0  0  0  0  0  0
   37.8040   19.1780   31.6220 H   0  0  0  0  0  0  0  0  0  0  0  0
   36.5260   20.7790   30.7360 C   0  0  2  0  0  3  0  0  0  0  0  0
   37.9640   21.8940   30.6230 S   0  0  0  0  0  0  0  0  0  0  0  0
   37.9270   22.8730   33.1910 C   0  0  0  0  0  2  0  0  0  0  0  0
   38.4050   23.7350   33.6640 H   0  0  0  0  0  0  0  0  0  0  0  0
  1 14  1  0  0  0  0
  2  1  1  0  0  0  0
  2  8  1  0  0  0  0
  3 10  1  0  0  0  0
  3  2  1  0  0  0  0
  4  5  1  0  0  0  0
  4  3  1  0  0  0  0
  5 11  1  0  0  0  0
  5  6  1  0  0  0  0
  6 13  1  1  0  0  0
  6  1  1  0  0  0  0
  7  2  1  0  0  0  0
  9  3  1  0  0  0  0
 12  5  1  0  0  0  0
 14 16  1  0  0  0  0
 14 15  1  0  0  0  0
 14 17  1  0  0  0  0
 17 23  1  0  0  0  0
 17 18  1  0  0  0  0
 19 17  1  0  0  0  0
 20 29  1  0  0  0  0
 20 21  1  0  0  0  0
 21 25  1  0  0  0  0
 22 21  2  0  0  0  0
 22 26  1  0  0  0  0
 23 22  1  0  0  0  0
 24 23  1  0  0  0  0
 24 20  2  0  0  0  0
 27 28  1  0  0  0  0
 27 33  1  0  0  0  0
 28 34  1  0  0  0  0
 29 28  2  0  0  0  0
 30 29  1  0  0  0  0
 31 30  2  0  0  0  0
 31 32  1  0  0  0  0
 32 27  2  0  0  0  0
 35 31  1  0  0  0  0
 36  6  1  0  0  0  0
 37 36  1  6  0  0  0
 37 46  1  0  0  0  0
 38 37  1  0  0  0  0
 38 39  1  0  0  0  0
 39 40  1  0  0  0  0
 40 41  2  0  0  0  0
 42 43  1  0  0  0  0
 42 40  1  0  0  0  0
 44 45  1  1  0  0  0
 44 42  1  0  0  0  0
 44 39  1  0  0  0  0
 45 37  1  0  0  0  0
 46 47  1  0  0  0  0
M  END
>  <minimizedAffinity>
-5.52011442

$$$$

 OpenBabel03272508383D

 47 51  0  0  1  0  0  0  0  0999 V2000
   38.0140   23.9370   36.0100 N   0  0  0  0  0  0  0  0  0  0  0  0
   38.3190   23.6000   37.3430 C   0  0  0  0  0  0  0  0  0  0  0  0
   39.6310   22.9480   37.5910 C   0  0  0  0  0  0  0  0  0  0  0  0
   39.9570   22.0040   36.6110 O   0  0  0  0  0  0  0  0  0  0  0  0
   39.9140   22.5630   35.3820 C   0  0  0  0  0  0  0  0  0  0  0  0
   38.5310   23.0760   35.0480 C   0  0  1  0  0  0  0  0  0  0  0  0
   37.5540   22.7540   37.4570 H   0  0  0  0  0  0  0  0  0  0  0  0
   38.0090   24.2180   38.1590 H   0  0  0  0  0  0  0  0  0  0  0  0
   39.4070   22.2070   38.4550 H   0  0  0  0  0  0  0  0  0  0  0  0
   40.4260   23.4750   38.0690 H   0  0  0  0  0  0  0  0  0  0  0  0
   40.7440   23.1840   35.0570 H   0  0  0  0  0  0  0  0  0  0  0  0
   40.0100   21.6920   34.6880 H   0  0  0  0  0  0  0  0  0  0  0  0
   38.7190   23.7060   34.1430 H   0  0  0  0  0  0  0  0  0  0  0  0
   37.8620   25.3050   35.7240 C   0  0  0  0  0  0  0  0  0  0  0  0
   38.3310   25.9110   36.5260 H   0  0  0  0  0  0  0  0  0  0  0  0
   36.7580   25.5240   35.8640 H   0  0  0  0  0  0  0  0  0  0  0  0
   38.2510   25.7950   34.4070 C   0  0  0  0  0  0  0  0  0  0  0  0
   38.3380   25.1580   33.5380 H   0  0  0  0  0  0  0  0  0  0  0  0
   39.2920   26.2400   34.4970 H   0  0  0  0  0  0  0  0  0  0  0  0
   36.0860   28.6350   34.0610 C   0  0  0  0  0  0  0  0  0  0  0  0
   36.2370   28.2590   32.7400 C   0  0  0  0  0  0  0  0  0  0  0  0
   37.0740   27.1330   32.7210 C   0  0  0  0  0  0  0  0  0  0  0  0
   37.3830   26.8830   33.9930 N   0  0  0  0  0  0  0  0  0  0  0  0
   36.7920   27.7820   34.7880 N   0  0  0  0  0  0  0  0  0  0  0  0
   35.7770   28.7650   31.8680 H   0  0  0  0  0  0  0  0  0  0  0  0
   37.2710   26.7430   31.7920 H   0  0  0  0  0  0  0  0  0  0  0  0
   34.8330   31.8250   35.6050 C   0  0  0  0  0  0  0  0  0  0  0  0
   35.7110   30.7830   35.2950 C   0  0  0  0  0  0  0  0  0  0  0  0
   35.2870   29.7610   34.4650 C   0  0  0  0  0  0  0  0  0  0  0  0
   34.0040   29.8690   34.0110 N   0  0  0  0  0  0  0  0  0  0  0  0
   33.1720   30.8820   34.3210 C   0  0  0  0  0  0  0  0  0  0  0  0
   33.6030   31.8510   35.1200 N   0  0  0  0  0  0  0  0  0  0  0  0
   35.2650   32.5770   36.2650 H   0  0  0  0  0  0  0  0  0  0  0  0
   36.7280   30.6840   35.6480 H   0  0  0  0  0  0  0  0  0  0  0  0
   32.1860   30.8180   33.8770 H   0  0  0  0  0  0  0  0  0  0  0  0
   37.6340   21.9270   34.6560 C   0  0  0  0  0  2  0  0  0  0  0  0
   37.4600   21.7650   33.2080 C   0  0  1  0  0  0  0  0  0  0  0  0
   38.5240   20.7720   32.6890 C   0  0  0  0  0  2  0  0  0  0  0  0
   38.0670   20.3930   31.3650 N   0  0  0  0  0  0  0  0  0  0  0  0
   37.8380   20.1690   29.9610 C   0  0  0  0  0  0  0  0  0  0  0  0
   38.5550   20.3650   28.9450 O   0  0  0  0  0  0  0  0  0  0  0  0
   36.4610   19.6340   30.2360 C   0  0  0  0  0  3  0  0  0  0  0  0
   35.6660   20.3210   29.9510 H   0  0  0  0  0  0  0  0  0  0  0  0
   36.8850   19.5790   31.6670 C   0  0  2  0  0  3  0  0  0  0  0  0
   36.0120   20.7050   32.8030 S   0  0  0  0  0  0  0  0  0  0  0  0
   37.4940   22.9750   32.3490 C   0  0  0  0  0  2  0  0  0  0  0  0
   37.5910   23.9190   32.8920 H   0  0  0  0  0  0  0  0  0  0  0  0
  1  2  1  0  0  0  0
  2  7  1  0  0  0  0
  2  3  1  0  0  0  0
  2  8  1  0  0  0  0
  3 10  1  0  0  0  0
  3  9  1  0  0  0  0
  4  3  1  0  0  0  0
  5  4  1  0  0  0  0
  6 13  1  6  0  0  0
  6  5  1  0  0  0  0
  6  1  1  0  0  0  0
 11  5  1  0  0  0  0
 12  5  1  0  0  0  0
 14 16  1  0  0  0  0
 14  1  1  0  0  0  0
 14 15  1  0  0  0  0
 17 19  1  0  0  0  0
 17 14  1  0  0  0  0
 18 17  1  0  0  0  0
 20 29  1  0  0  0  0
 20 24  2  0  0  0  0
 21 20  1  0  0  0  0
 22 21  2  0  0  0  0
 22 23  1  0  0  0  0
 23 17  1  0  0  0  0
 23 24  1  0  0  0  0
 25 21  1  0  0  0  0
 26 22  1  0  0  0  0
 27 33  1  0  0  0  0
 28 27  1  0  0  0  0
 28 34  1  0  0  0  0
 29 28  2  0  0  0  0
 30 31  2  0  0  0  0
 30 29  1  0  0  0  0
 31 32  1  0  0  0  0
 32 27  2  0  0  0  0
 35 31  1  0  0  0  0
 36  6  1  0  0  0  0
 37 46  1  6  0  0  0
 37 36  1  0  0  0  0
 38 37  1  0  0  0  0
 39 44  1  0  0  0  0
 39 38  1  0  0  0  0
 40 42  1  0  0  0  0
 40 39  1  0  0  0  0
 41 40  2  0  0  0  0
 43 42  1  0  0  0  0
 44 42  1  6  0  0  0
 44 45  1  0  0  0  0
 45 37  1  0  0  0  0
 46 47  1  0  0  0  0
M  END
>  <minimizedAffinity>
-5.50031614

$$$$

 OpenBabel03272508383D

 47 51  0  0  1  0  0  0  0  0999 V2000
   34.8330   29.6750   32.1210 N   0  0  0  0  0  0  0  0  0  0  0  0
   35.3400   30.5410   31.1320 C   0  0  0  0  0  0  0  0  0  0  0  0
   36.1430   31.7010   31.5970 C   0  0  0  0  0  0  0  0  0  0  0  0
   35.6110   32.2970   32.7470 O   0  0  0  0  0  0  0  0  0  0  0  0
   35.4600   31.3810   33.7290 C   0  0  0  0  0  0  0  0  0  0  0  0
   34.5020   30.2820   33.3270 C   0  0  1  0  0  0  0  0  0  0  0  0
   34.3380   30.9970   30.8120 H   0  0  0  0  0  0  0  0  0  0  0  0
   35.6670   30.1720   30.1820 H   0  0  0  0  0  0  0  0  0  0  0  0
   35.8690   32.5390   30.8450 H   0  0  0  0  0  0  0  0  0  0  0  0
   37.1990   31.7310   31.4550 H   0  0  0  0  0  0  0  0  0  0  0  0
   36.3330   31.0700   34.2960 H   0  0  0  0  0  0  0  0  0  0  0  0
   34.8740   31.9220   34.5120 H   0  0  0  0  0  0  0  0  0  0  0  0
   34.6770   29.5090   34.1160 H   0  0  0  0  0  0  0  0  0  0  0  0
   35.3080   28.3520   32.1030 C   0  0  0  0  0  0  0  0  0  0  0  0
   34.8420   27.7960   31.2630 H   0  0  0  0  0  0  0  0  0  0  0  0
   34.8490   27.8520   33.0130 H   0  0  0  0  0  0  0  0  0  0  0  0
   36.7470   28.1200   32.1450 C   0  0  0  0  0  0  0  0  0  0  0  0
   37.4770   28.9140   32.0830 H   0  0  0  0  0  0  0  0  0  0  0  0
   37.0170   27.4620   31.2590 H   0  0  0  0  0  0  0  0  0  0  0  0
   37.7870   25.7480   34.6270 C   0  0  0  0  0  0  0  0  0  0  0  0
   37.4920   26.8420   35.4180 C   0  0  0  0  0  0  0  0  0  0  0  0
   37.0580   27.8670   34.5640 C   0  0  0  0  0  0  0  0  0  0  0  0
   37.1070   27.3650   33.3310 N   0  0  0  0  0  0  0  0  0  0  0  0
   37.5430   26.1010   33.3740 N   0  0  0  0  0  0  0  0  0  0  0  0
   37.5870   26.8850   36.5210 H   0  0  0  0  0  0  0  0  0  0  0  0
   36.8010   28.7480   35.0250 H   0  0  0  0  0  0  0  0  0  0  0  0
   39.0360   23.0160   36.8860 C   0  0  0  0  0  0  0  0  0  0  0  0
   38.5880   24.2790   36.4910 C   0  0  0  0  0  0  0  0  0  0  0  0
   38.2650   24.5020   35.1650 C   0  0  0  0  0  0  0  0  0  0  0  0
   38.4210   23.4300   34.3350 N   0  0  0  0  0  0  0  0  0  0  0  0
   38.8550   22.2180   34.7350 C   0  0  0  0  0  0  0  0  0  0  0  0
   39.1580   22.0300   36.0140 N   0  0  0  0  0  0  0  0  0  0  0  0
   39.2630   22.9460   37.9500 H   0  0  0  0  0  0  0  0  0  0  0  0
   38.4600   25.1370   37.1370 H   0  0  0  0  0  0  0  0  0  0  0  0
   38.9220   21.4740   33.9500 H   0  0  0  0  0  0  0  0  0  0  0  0
   33.0790   30.7700   33.4390 C   0  0  0  0  0  2  0  0  0  0  0  0
   32.1680   29.8240   34.0960 C   0  0  1  0  0  0  0  0  0  0  0  0
   32.9060   29.1700   35.2850 C   0  0  0  0  0  2  0  0  0  0  0  0
   31.8610   28.5510   36.0790 N   0  0  0  0  0  0  0  0  0  0  0  0
   30.9380   27.6910   36.7740 C   0  0  0  0  0  0  0  0  0  0  0  0
   30.9480   26.4550   37.0090 O   0  0  0  0  0  0  0  0  0  0  0  0
   30.0290   28.8500   37.0700 C   0  0  0  0  0  3  0  0  0  0  0  0
   29.1180   28.8480   36.4730 H   0  0  0  0  0  0  0  0  0  0  0  0
   31.1680   29.7150   36.6400 C   0  0  2  0  0  3  0  0  0  0  0  0
   30.9040   30.6850   35.1190 S   0  0  0  0  0  0  0  0  0  0  0  0
   31.5530   28.7480   33.2800 C   0  0  0  0  0  2  0  0  0  0  0  0
   31.7930   28.7870   32.2150 H   0  0  0  0  0  0  0  0  0  0  0  0
  1  6  1  0  0  0  0
  2  3  1  0  0  0  0
  2  1  1  0  0  0  0
  3  4  1  0  0  0  0
  4  5  1  0  0  0  0
  5 11  1  0  0  0  0
  5 12  1  0  0  0  0
  6 36  1  0  0  0  0
  6  5  1  0  0  0  0
  6 13  1  1  0  0  0
  7  2  1  0  0  0  0
  8  2  1  0  0  0  0
  9  3  1  0  0  0  0
 10  3  1  0  0  0  0
 14  1  1  0  0  0  0
 14 17  1  0  0  0  0
 14 16  1  0  0  0  0
 15 14  1  0  0  0  0
 17 23  1  0  0  0  0
 18 17  1  0  0  0  0
 19 17  1  0  0  0  0
 20 29  1  0  0  0  0
 20 21  1  0  0  0  0
 21 25  1  0  0  0  0
 22 26  1  0  0  0  0
 22 21  2  0  0  0  0
 23 24  1  0  0  0  0
 23 22  1  0  0  0  0
 24 20  2  0  0  0  0
 27 33  1  0  0  0  0
 28 27  1  0  0  0  0
 28 34  1  0  0  0  0
 29 28  2  0  0  0  0
 30 31  2  0  0  0  0
 30 29  1  0  0  0  0
 31 32  1  0  0  0  0
 32 27  2  0  0  0  0
 35 31  1  0  0  0  0
 36 37  1  0  0  0  0
 37 46  1  6  0  0  0
 37 45  1  0  0  0  0
 37 38  1  0  0  0  0
 38 39  1  0  0  0  0
 39 44  1  0  0  0  0
 39 40  1  0  0  0  0
 40 41  2  0  0  0  0
 40 42  1  0  0  0  0
 43 42  1  0  0  0  0
 44 45  1  6  0  0  0
 44 42  1  0  0  0  0
 47 46  1  0  0  0  0
M  END
>  <minimizedAffinity>
-5.48697948

$$$$

 OpenBabel03272508383D

 47 51  0  0  1  0  0  0  0  0999 V2000
   37.9670   24.3080   36.5800 N   0  0  0  0  0  0  0  0  0  0  0  0
   37.9950   24.0230   37.9600 C   0  0  0  0  0  0  0  0  0  0  0  0
   39.2370   23.4120   38.4980 C   0  0  0  0  0  0  0  0  0  0  0  0
   39.7740   22.4420   37.6420 O   0  0  0  0  0  0  0  0  0  0  0  0
   39.9770   22.9580   36.4100 C   0  0  0  0  0  0  0  0  0  0  0  0
   38.6840   23.4260   35.7790 C   0  0  1  0  0  0  0  0  0  0  0  0
   37.2360   23.1650   37.9460 H   0  0  0  0  0  0  0  0  0  0  0  0
   37.5130   24.6620   38.6700 H   0  0  0  0  0  0  0  0  0  0  0  0
   38.8510   22.6960   39.3240 H   0  0  0  0  0  0  0  0  0  0  0  0
   39.9070   23.9730   39.1090 H   0  0  0  0  0  0  0  0  0  0  0  0
   40.8460   23.5860   36.2400 H   0  0  0  0  0  0  0  0  0  0  0  0
   40.2280   22.0660   35.7850 H   0  0  0  0  0  0  0  0  0  0  0  0
   39.0460   24.0290   34.9090 H   0  0  0  0  0  0  0  0  0  0  0  0
   37.8560   25.6610   36.2170 C   0  0  0  0  0  0  0  0  0  0  0  0
   37.6890   26.2810   37.1220 H   0  0  0  0  0  0  0  0  0  0  0  0
   36.8640   25.7490   35.6720 H   0  0  0  0  0  0  0  0  0  0  0  0
   38.8860   26.2480   35.3680 C   0  0  0  0  0  0  0  0  0  0  0  0
   39.7350   25.6930   34.9960 H   0  0  0  0  0  0  0  0  0  0  0  0
   39.3730   27.0930   35.9500 H   0  0  0  0  0  0  0  0  0  0  0  0
   38.0090   27.5840   32.1560 C   0  0  0  0  0  0  0  0  0  0  0  0
   36.8560   27.8450   32.8710 C   0  0  0  0  0  0  0  0  0  0  0  0
   37.0590   27.3710   34.1760 C   0  0  0  0  0  0  0  0  0  0  0  0
   38.2890   26.8600   34.1940 N   0  0  0  0  0  0  0  0  0  0  0  0
   38.8510   26.9890   32.9860 N   0  0  0  0  0  0  0  0  0  0  0  0
   35.9460   28.3370   32.4730 H   0  0  0  0  0  0  0  0  0  0  0  0
   36.2740   27.5030   34.8230 H   0  0  0  0  0  0  0  0  0  0  0  0
   37.6200   29.0810   28.7300 C   0  0  0  0  0  0  0  0  0  0  0  0
   37.3570   28.8230   30.0780 C   0  0  0  0  0  0  0  0  0  0  0  0
   38.1630   27.9360   30.7690 C   0  0  0  0  0  0  0  0  0  0  0  0
   39.1740   27.3750   30.0440 N   0  0  0  0  0  0  0  0  0  0  0  0
   39.4110   27.6380   28.7440 C   0  0  0  0  0  0  0  0  0  0  0  0
   38.6240   28.4930   28.1030 N   0  0  0  0  0  0  0  0  0  0  0  0
   36.9280   29.7940   28.2800 H   0  0  0  0  0  0  0  0  0  0  0  0
   36.5600   29.2590   30.6640 H   0  0  0  0  0  0  0  0  0  0  0  0
   40.2550   27.1090   28.3170 H   0  0  0  0  0  0  0  0  0  0  0  0
   37.9060   22.2450   35.2550 C   0  0  0  0  0  2  0  0  0  0  0  0
   37.7430   22.2290   33.7960 C   0  0  1  0  0  0  0  0  0  0  0  0
   38.8860   21.3920   33.1790 C   0  0  0  0  0  2  0  0  0  0  0  0
   38.4600   21.1230   31.8190 N   0  0  0  0  0  0  0  0  0  0  0  0
   38.2470   21.0360   30.3970 C   0  0  0  0  0  0  0  0  0  0  0  0
   38.9430   21.4020   29.4140 O   0  0  0  0  0  0  0  0  0  0  0  0
   36.9200   20.3620   30.6020 C   0  0  0  0  0  3  0  0  0  0  0  0
   36.0700   21.0070   30.3890 H   0  0  0  0  0  0  0  0  0  0  0  0
   37.3500   20.1850   32.0210 C   0  0  2  0  0  3  0  0  0  0  0  0
   36.3880   21.1030   33.2680 S   0  0  0  0  0  0  0  0  0  0  0  0
   37.6740   23.5250   33.0760 C   0  0  0  0  0  2  0  0  0  0  0  0
   37.6930   24.4080   33.7200 H   0  0  0  0  0  0  0  0  0  0  0  0
  1  2  1  0  0  0  0
  2  3  1  0  0  0  0
  2  8  1  0  0  0  0
  3 10  1  0  0  0  0
  3  9  1  0  0  0  0
  4  3  1  0  0  0  0
  5  4  1  0  0  0  0
  6 13  1  6  0  0  0
  6  5  1  0  0  0  0
  6  1  1  0  0  0  0
  7  2  1  0  0  0  0
 11  5  1  0  0  0  0
 12  5  1  0  0  0  0
 14  1  1  0  0  0  0
 14 15  1  0  0  0  0
 16 14  1  0  0  0  0
 17 19  1  0  0  0  0
 17 14  1  0  0  0  0
 18 17  1  0  0  0  0
 20 21  1  0  0  0  0
 20 24  2  0  0  0  0
 21 22  2  0  0  0  0
 22 23  1  0  0  0  0
 22 26  1  0  0  0  0
 23 17  1  0  0  0  0
 24 23  1  0  0  0  0
 25 21  1  0  0  0  0
 27 28  1  0  0  0  0
 28 34  1  0  0  0  0
 28 29  2  0  0  0  0
 29 20  1  0  0  0  0
 30 29  1  0  0  0  0
 31 30  2  0  0  0  0
 32 27  2  0  0  0  0
 32 31  1  0  0  0  0
 33 27  1  0  0  0  0
 35 31  1  0  0  0  0
 36  6  1  0  0  0  0
 37 46  1  6  0  0  0
 37 36  1  0  0  0  0
 38 37  1  0  0  0  0
 39 44  1  0  0  0  0
 39 38  1  0  0  0  0
 40 42  1  0  0  0  0
 40 39  1  0  0  0  0
 41 40  2  0  0  0  0
 43 42  1  0  0  0  0
 44 42  1  6  0  0  0
 44 45  1  0  0  0  0
 45 37  1  0  0  0  0
 46 47  1  0  0  0  0
M  END
>  <minimizedAffinity>
-5.43189478

$$$$
