
 OpenBabel03272500223D

 40 44  0  0  1  0  0  0  0  0999 V2000
   35.4350   29.2930   50.4300 C   0  0  0  0  0  0  0  0  0  0  0  0
   36.3630   30.1520   49.7730 C   0  0  0  0  0  0  0  0  0  0  0  0
   36.3340   30.2450   48.3790 C   0  0  0  0  0  0  0  0  0  0  0  0
   35.3920   29.4850   47.7400 N   0  0  0  0  0  0  0  0  0  0  0  0
   34.5440   28.6990   48.3440 C   0  0  0  0  0  0  0  0  0  0  0  0
   34.5470   28.5880   49.6860 N   0  0  0  0  0  0  0  0  0  0  0  0
   35.4440   29.2090   51.5090 H   0  0  0  0  0  0  0  0  0  0  0  0
   32.8240   30.3170   46.4430 Cl  0  0  0  0  0  0  0  0  0  0  0  0
   32.7350   28.5660   46.6330 C   0  0  0  0  0  0  0  0  0  0  0  0
   33.5760   27.9300   47.5370 C   0  0  0  0  0  0  0  0  0  0  0  0
   33.5500   26.5410   47.7300 C   0  0  0  0  0  0  0  0  0  0  0  0
   32.6260   25.8430   46.9550 C   0  0  0  0  0  0  0  0  0  0  0  0
   31.7870   26.4480   46.0570 C   0  0  0  0  0  0  0  0  0  0  0  0
   30.6780   25.4450   45.1530 Cl  0  0  0  0  0  0  0  0  0  0  0  0
   31.8470   27.8270   45.8980 C   0  0  0  0  0  0  0  0  0  0  0  0
   34.2080   26.0500   48.4370 H   0  0  0  0  0  0  0  0  0  0  0  0
   32.5950   24.7700   47.0930 H   0  0  0  0  0  0  0  0  0  0  0  0
   30.9490   28.5020   44.9340 C   0  0  0  0  0  0  0  0  0  0  0  0
   30.0440   27.5740   44.3940 F   0  0  0  0  0  0  0  0  0  0  0  0
   31.6340   29.1150   43.9350 F   0  0  0  0  0  0  0  0  0  0  0  0
   30.1950   29.4470   45.5860 F   0  0  0  0  0  0  0  0  0  0  0  0
   37.3340   30.9180   50.6190 C   0  0  0  0  0  0  0  0  0  0  0  0
   38.6270   30.8110   50.1200 F   0  0  0  0  0  0  0  0  0  0  0  0
   36.9810   32.2540   50.5510 F   0  0  0  0  0  0  0  0  0  0  0  0
   37.3070   30.5460   51.9390 F   0  0  0  0  0  0  0  0  0  0  0  0
   37.2750   31.1250   47.6950 C   0  0  0  0  0  0  0  0  0  0  0  0
   36.7650   32.1020   47.5260 H   0  0  0  0  0  0  0  0  0  0  0  0
   38.2440   31.2550   48.2220 H   0  0  0  0  0  0  0  0  0  0  0  0
   37.2410   30.9210   42.6080 C   0  0  0  0  0  0  0  0  0  0  0  0
   38.5110   30.5480   43.2510 C   0  0  0  0  0  2  0  0  0  0  0  0
   38.5300   30.8390   44.6240 N   0  0  2  0  0  0  0  0  0  0  0  0
   39.0100   30.9860   45.9520 C   0  0  2  0  0  0  0  0  0  0  0  0
   40.1440   31.3740   46.3910 O   0  0  0  0  0  1  0  0  0  0  0  0
   37.6380   30.5030   46.3660 C   0  0  2  0  0  3  0  0  0  0  0  0
   37.2770   31.3210   45.1910 C   0  0  2  0  0  0  0  0  0  0  0  0
   36.0760   30.6550   44.0130 S   0  0  0  0  0  0  0  0  0  0  0  0
   36.8620   30.0440   41.4450 C   0  0  0  0  0  2  0  0  0  0  0  0
   37.0660   29.0010   41.7480 H   0  0  0  0  0  0  0  0  0  0  0  0
   37.2660   32.3960   42.2700 C   0  0  0  0  0  2  0  0  0  0  0  0
   37.1490   32.9380   43.2520 H   0  0  0  0  0  0  0  0  0  0  0  0
  1  7  1  0  0  0  0
  2  1  1  0  0  0  0
  2 22  1  0  0  0  0
  3  2  2  0  0  0  0
  4  5  2  0  0  0  0
  4  3  1  0  0  0  0
  5  6  1  0  0  0  0
  6  1  2  0  0  0  0
  8  9  1  0  0  0  0
  9 10  1  0  0  0  0
 10 11  2  0  0  0  0
 10  5  1  0  0  0  0
 11 16  1  0  0  0  0
 12 17  1  0  0  0  0
 12 11  1  0  0  0  0
 13 12  2  0  0  0  0
 14 13  1  0  0  0  0
 15 13  1  0  0  0  0
 15  9  2  0  0  0  0
 18 21  1  0  0  0  0
 18 15  1  0  0  0  0
 19 18  1  0  0  0  0
 20 18  1  0  0  0  0
 22 25  1  0  0  0  0
 23 22  1  0  0  0  0
 24 22  1  0  0  0  0
 26 28  1  0  0  0  0
 26  3  1  0  0  0  0
 27 26  1  0  0  0  0
 29 30  1  0  0  0  0
 29 36  1  0  0  0  0
 31 30  1  1  0  0  0
 31 35  1  0  0  0  0
 31 32  1  0  0  0  0
 32 34  1  0  0  0  0
 32 33  1  1  0  0  0
 34 26  1  1  0  0  0
 35 36  1  6  0  0  0
 35 32  1  0  0  0  0
 35 34  1  0  0  0  0
 37 38  1  0  0  0  0
 37 29  1  0  0  0  0
 39 29  1  0  0  0  0
 39 40  1  0  0  0  0
M  END
>  <minimizedAffinity>
-6.65450668

>  <minimizedRMSD>
1.02545536

$$$$
