
 OpenBabel03262521183D

 32 34  0  0  1  0  0  0  0  0999 V2000
   38.2540   32.1660   46.7610 C   0  0  0  0  0  0  0  0  0  0  0  0
   39.5340   32.6880   46.9810 C   0  0  0  0  0  0  0  0  0  0  0  0
   40.2570   33.1680   45.8930 C   0  0  0  0  0  0  0  0  0  0  0  0
   39.6700   33.1030   44.6580 N   0  0  0  0  0  0  0  0  0  0  0  0
   38.4170   32.5870   44.4820 C   0  0  0  0  0  0  0  0  0  0  0  0
   37.7450   32.1350   45.5240 N   0  0  0  0  0  0  0  0  0  0  0  0
   40.0450   32.7640   47.9300 H   0  0  0  0  0  0  0  0  0  0  0  0
   41.2520   33.5820   46.0110 H   0  0  0  0  0  0  0  0  0  0  0  0
   37.6600   31.7280   47.9350 O   0  0  0  0  0  0  0  0  0  0  0  0
   36.6600   30.7860   47.8130 C   0  0  0  0  0  0  0  0  0  0  0  0
   35.6850   31.3120   48.0220 H   0  0  0  0  0  0  0  0  0  0  0  0
   36.5270   30.3700   46.7910 H   0  0  0  0  0  0  0  0  0  0  0  0
   37.0640   29.9180   48.7570 C   0  0  0  0  0  0  0  0  0  0  0  0
   36.1770   29.3810   49.2090 H   0  0  0  0  0  0  0  0  0  0  0  0
   37.6410   29.0340   48.3700 H   0  0  0  0  0  0  0  0  0  0  0  0
   37.8680   30.4500   49.8970 C   0  0  0  0  0  0  0  0  0  0  0  0
   37.8010   31.5600   49.8710 H   0  0  0  0  0  0  0  0  0  0  0  0
   38.9510   30.2240   49.8290 H   0  0  0  0  0  0  0  0  0  0  0  0
   37.2300   29.9270   51.4920 S   0  0  0  0  0  0  0  0  0  0  0  0
   37.5440   30.8170   52.5390 H   0  0  0  0  0  0  0  0  0  0  0  0
   37.7990   32.5260   43.1310 C   0  0  0  0  0  2  0  0  0  0  0  0
   38.3190   31.2850   42.4620 C   0  0  2  0  0  0  0  0  0  0  0  0
   37.3660   30.6860   41.4600 C   0  0  0  0  0  2  0  0  0  0  0  0
   36.3700   29.9380   42.1550 N   0  0  0  0  0  0  0  0  0  0  0  0
   35.0970   29.4720   42.5980 C   0  0  0  0  0  0  0  0  0  0  0  0
   33.9150   29.4080   42.1580 O   0  0  0  0  0  0  0  0  0  0  0  0
   35.7500   29.0610   43.8680 C   0  0  0  0  0  3  0  0  0  0  0  0
   35.7790   29.9190   44.5690 H   0  0  0  0  0  0  0  0  0  0  0  0
   36.9770   28.9730   43.0230 C   0  0  2  0  0  3  0  0  0  0  0  0
   38.3990   29.9320   43.6730 S   0  0  0  0  0  0  0  0  0  0  0  0
   39.6650   31.5770   41.8630 C   0  0  0  0  0  2  0  0  0  0  0  0
   39.7240   31.3460   40.7660 H   0  0  0  0  0  0  0  0  0  0  0  0
  1  2  1  0  0  0  0
  1  9  1  0  0  0  0
  2  7  1  0  0  0  0
  3  8  1  0  0  0  0
  3  2  2  0  0  0  0
  4  3  1  0  0  0  0
  5  4  2  0  0  0  0
  5  6  1  0  0  0  0
  6  1  2  0  0  0  0
 10  9  1  0  0  0  0
 10 11  1  0  0  0  0
 10 13  1  0  0  0  0
 12 10  1  0  0  0  0
 13 14  1  0  0  0  0
 13 16  1  0  0  0  0
 15 13  1  0  0  0  0
 16 19  1  0  0  0  0
 17 16  1  0  0  0  0
 18 16  1  0  0  0  0
 19 20  1  0  0  0  0
 21  5  1  0  0  0  0
 22 31  1  6  0  0  0
 22 21  1  0  0  0  0
 22 30  1  0  0  0  0
 23 24  1  0  0  0  0
 23 22  1  0  0  0  0
 24 25  1  0  0  0  0
 24 29  1  0  0  0  0
 25 27  1  0  0  0  0
 26 25  2  0  0  0  0
 27 28  1  0  0  0  0
 29 30  1  1  0  0  0
 29 27  1  0  0  0  0
 32 31  1  0  0  0  0
M  END
>  <minimizedAffinity>
-4.38506126

>  <minimizedRMSD>
2.56098223

$$$$
