
     RDKit          3D

 40 42  0  0  0  0  0  0  0  0999 V2000
   37.1788   31.1194   47.8337 C   0  0  0  0  0  0  0  0  0  0  0  0
   37.8306   30.3590   48.7299 C   0  0  0  0  0  0  0  0  0  0  0  0
   38.1056   30.9446   50.0750 C   0  0  0  0  0  0  0  0  0  0  0  0
   37.2878   30.0475   51.3980 S   0  0  0  0  0  0  0  0  0  0  0  0
   38.1293   32.1004   47.6410 O   0  0  0  0  0  0  0  0  0  0  0  0
   38.4988   32.3652   46.3306 C   0  0  0  0  0  0  0  0  0  0  0  0
   39.8233   32.8100   46.2372 C   0  0  0  0  0  0  0  0  0  0  0  0
   40.3383   33.1167   44.9810 C   0  0  0  0  0  0  0  0  0  0  0  0
   39.5145   32.9650   43.8992 N   0  0  0  0  0  0  0  0  0  0  0  0
   38.2264   32.5280   44.0302 C   0  0  0  0  0  0  0  0  0  0  0  0
   37.7526   32.2413   45.2282 N   0  0  0  0  0  0  0  0  0  0  0  0
   36.2503   31.6319   48.2152 H   0  0  0  0  0  0  0  0  0  0  0  0
   36.8410   30.6039   46.9091 H   0  0  0  0  0  0  0  0  0  0  0  0
   37.2761   29.3889   48.9066 H   0  0  0  0  0  0  0  0  0  0  0  0
   38.8160   29.9489   48.3749 H   0  0  0  0  0  0  0  0  0  0  0  0
   37.6946   31.9785   50.0846 H   0  0  0  0  0  0  0  0  0  0  0  0
   39.1836   31.0607   50.3048 H   0  0  0  0  0  0  0  0  0  0  0  0
   37.0250   30.8404   52.5331 H   0  0  0  0  0  0  0  0  0  0  0  0
   40.5158   32.9476   47.0545 H   0  0  0  0  0  0  0  0  0  0  0  0
   41.3567   33.4645   44.8559 H   0  0  0  0  0  0  0  0  0  0  0  0
   37.3481   32.3703   42.8405 C   0  0  0  0  0  0  0  0  0  0  0  0
   36.1684   31.5430   43.2676 C   0  0  2  0  0  0  0  0  0  0  0  0
   36.6550   30.2066   43.7525 C   0  0  0  0  0  0  0  0  0  0  0  0
   36.1800   29.3395   43.2211 H   0  0  0  0  0  0  0  0  0  0  0  0
   35.0993   31.4115   42.2136 C   0  0  0  0  0  0  0  0  0  0  0  0
   34.3084   32.5992   42.2041 N   0  0  0  0  0  0  0  0  0  0  0  0
   33.6403   33.7717   41.7422 C   0  0  0  0  0  0  0  0  0  0  0  0
   33.1478   34.2089   40.6647 O   0  0  0  0  0  0  0  0  0  0  0  0
   33.7586   34.3152   43.1209 C   0  0  1  0  0  0  0  0  0  0  0  0
   34.7395   34.8153   43.2434 H   0  0  0  0  0  0  0  0  0  0  0  0
   33.7975   32.8763   43.5132 C   0  0  2  0  0  0  0  0  0  0  0  0
   35.2408   32.4294   44.5552 S   0  0  0  0  0  0  0  0  0  0  0  0
   37.0489   33.4072   42.5579 H   0  0  0  0  0  0  0  0  0  0  0  0
   37.8791   31.8772   42.0006 H   0  0  0  0  0  0  0  0  0  0  0  0
   36.3765   30.0896   44.8228 H   0  0  0  0  0  0  0  0  0  0  0  0
   37.7377   30.0952   43.5714 H   0  0  0  0  0  0  0  0  0  0  0  0
   35.6080   31.2548   41.2643 H   0  0  0  0  0  0  0  0  0  0  0  0
   34.5111   30.4835   42.4031 H   0  0  0  0  0  0  0  0  0  0  0  0
   32.8785   34.8991   43.4564 H   0  0  0  0  0  0  0  0  0  0  0  0
   32.8650   32.3896   43.8184 H   0  0  0  0  0  0  0  0  0  0  0  0
  1  2  1  0
  2  3  1  0
  3  4  1  0
  5  1  1  0
  6  5  1  0
  7  6  2  0
  8  7  1  0
  9 10  1  0
  9  8  2  0
 10 11  2  0
 11  6  1  0
  1 12  1  0
  1 13  1  0
  2 14  1  0
  2 15  1  0
  3 16  1  0
  3 17  1  0
  4 18  1  0
  7 19  1  0
  8 20  1  0
 22 21  1  6
 22 23  1  0
 23 24  1  0
 22 25  1  0
 25 26  1  0
 26 27  1  0
 27 28  2  0
 27 29  1  0
 29 30  1  6
 29 31  1  0
 31 32  1  0
 32 22  1  0
 31 26  1  0
 21 33  1  0
 21 34  1  0
 23 35  1  0
 23 36  1  0
 25 37  1  0
 25 38  1  0
 29 39  1  0
 31 40  1  1
 10 21  1  0
M  ISO  8  12   8  13   8  14   8  15   8  16   8  17   8  18  11  19  14
M  ISO  3  20  14  24   8  30  15
M  END
>  <DihAtoms>  (1) 
8,9,20,21

>  <DihDeg>  (1) 
-0.0009301237408000945

$$$$
