
 OpenBabel03262521173D

 32 34  0  0  1  0  0  0  0  0999 V2000
   38.5260   32.3640   46.6150 C   0  0  0  0  0  0  0  0  0  0  0  0
   39.8530   32.8060   46.5680 C   0  0  0  0  0  0  0  0  0  0  0  0
   40.4150   33.1040   45.3300 C   0  0  0  0  0  0  0  0  0  0  0  0
   39.6320   32.9460   44.2190 N   0  0  0  0  0  0  0  0  0  0  0  0
   38.3390   32.5120   44.3050 C   0  0  0  0  0  0  0  0  0  0  0  0
   37.8210   32.2330   45.4860 N   0  0  0  0  0  0  0  0  0  0  0  0
   40.5150   32.9490   47.4090 H   0  0  0  0  0  0  0  0  0  0  0  0
   41.4390   33.4500   45.2410 H   0  0  0  0  0  0  0  0  0  0  0  0
   38.1070   32.1080   47.9120 O   0  0  0  0  0  0  0  0  0  0  0  0
   37.1130   31.1650   48.0710 C   0  0  0  0  0  0  0  0  0  0  0  0
   36.2090   31.7050   48.4750 H   0  0  0  0  0  0  0  0  0  0  0  0
   36.7500   30.7010   47.1290 H   0  0  0  0  0  0  0  0  0  0  0  0
   37.7310   30.3420   48.9360 C   0  0  0  0  0  0  0  0  0  0  0  0
   37.1290   29.3960   49.0830 H   0  0  0  0  0  0  0  0  0  0  0  0
   38.6920   29.8960   48.5590 H   0  0  0  0  0  0  0  0  0  0  0  0
   38.0430   30.8660   50.2980 C   0  0  0  0  0  0  0  0  0  0  0  0
   37.6390   31.9010   50.3640 H   0  0  0  0  0  0  0  0  0  0  0  0
   39.1270   30.9660   50.5060 H   0  0  0  0  0  0  0  0  0  0  0  0
   37.2520   29.9150   51.6000 S   0  0  0  0  0  0  0  0  0  0  0  0
   37.0220   30.6580   52.7750 H   0  0  0  0  0  0  0  0  0  0  0  0
   37.5060   32.3470   43.0840 C   0  0  0  0  0  2  0  0  0  0  0  0
   37.5140   30.8850   42.7370 C   0  0  2  0  0  0  0  0  0  0  0  0
   36.9360   30.5750   41.3800 C   0  0  0  0  0  2  0  0  0  0  0  0
   35.5120   30.5830   41.4700 N   0  0  0  0  0  0  0  0  0  0  0  0
   34.1450   30.8970   41.2090 C   0  0  0  0  0  0  0  0  0  0  0  0
   33.4400   31.2880   40.2370 O   0  0  0  0  0  0  0  0  0  0  0  0
   33.8540   30.5590   42.6270 C   0  0  0  0  0  3  0  0  0  0  0  0
   34.0270   31.4460   43.2660 H   0  0  0  0  0  0  0  0  0  0  0  0
   35.0650   29.6970   42.5040 C   0  0  2  0  0  3  0  0  0  0  0  0
   36.3300   30.0030   43.7980 S   0  0  0  0  0  0  0  0  0  0  0  0
   38.9080   30.3490   42.8960 C   0  0  0  0  0  2  0  0  0  0  0  0
   39.3040   29.8530   41.9700 H   0  0  0  0  0  0  0  0  0  0  0  0
  1  9  1  0  0  0  0
  2  1  1  0  0  0  0
  2  7  1  0  0  0  0
  3  2  2  0  0  0  0
  4  5  2  0  0  0  0
  4  3  1  0  0  0  0
  5  6  1  0  0  0  0
  6  1  2  0  0  0  0
  8  3  1  0  0  0  0
  9 10  1  0  0  0  0
 10 11  1  0  0  0  0
 10 13  1  0  0  0  0
 12 10  1  0  0  0  0
 13 14  1  0  0  0  0
 13 16  1  0  0  0  0
 15 13  1  0  0  0  0
 16 17  1  0  0  0  0
 16 18  1  0  0  0  0
 16 19  1  0  0  0  0
 19 20  1  0  0  0  0
 21  5  1  0  0  0  0
 22 31  1  1  0  0  0
 22 21  1  0  0  0  0
 22 30  1  0  0  0  0
 23 24  1  0  0  0  0
 23 22  1  0  0  0  0
 24 29  1  0  0  0  0
 25 24  1  0  0  0  0
 25 27  1  0  0  0  0
 26 25  2  0  0  0  0
 27 28  1  0  0  0  0
 29 27  1  1  0  0  0
 29 30  1  0  0  0  0
 32 31  1  0  0  0  0
M  END
>  <minimizedAffinity>
-4.100811

>  <minimizedRMSD>
2.17866421

$$$$
