
 OpenBabel03272500223D

 40 44  0  0  1  0  0  0  0  0999 V2000
   35.3140   29.3840   50.3570 C   0  0  0  0  0  0  0  0  0  0  0  0
   36.3000   30.1970   49.7250 C   0  0  0  0  0  0  0  0  0  0  0  0
   36.2990   30.3060   48.3320 C   0  0  0  0  0  0  0  0  0  0  0  0
   35.3270   29.6080   47.6690 N   0  0  0  0  0  0  0  0  0  0  0  0
   34.4260   28.8640   48.2500 C   0  0  0  0  0  0  0  0  0  0  0  0
   34.4010   28.7380   49.5900 N   0  0  0  0  0  0  0  0  0  0  0  0
   35.3000   29.2890   51.4350 H   0  0  0  0  0  0  0  0  0  0  0  0
   32.8040   30.6020   46.3690 Cl  0  0  0  0  0  0  0  0  0  0  0  0
   32.6300   28.8530   46.5210 C   0  0  0  0  0  0  0  0  0  0  0  0
   33.4310   28.1590   47.4190 C   0  0  0  0  0  0  0  0  0  0  0  0
   33.3360   26.7690   47.5820 C   0  0  0  0  0  0  0  0  0  0  0  0
   32.3880   26.1320   46.7840 C   0  0  0  0  0  0  0  0  0  0  0  0
   31.5880   26.7960   45.8920 C   0  0  0  0  0  0  0  0  0  0  0  0
   30.4410   25.8670   44.9560 Cl  0  0  0  0  0  0  0  0  0  0  0  0
   31.7150   28.1730   45.7620 C   0  0  0  0  0  0  0  0  0  0  0  0
   33.9640   26.2330   48.2830 H   0  0  0  0  0  0  0  0  0  0  0  0
   32.3040   25.0600   46.8990 H   0  0  0  0  0  0  0  0  0  0  0  0
   30.8600   28.9110   44.8050 C   0  0  0  0  0  0  0  0  0  0  0  0
   29.9210   28.0380   44.2320 F   0  0  0  0  0  0  0  0  0  0  0  0
   31.5840   29.5160   43.8290 F   0  0  0  0  0  0  0  0  0  0  0  0
   30.1400   29.8730   45.4710 F   0  0  0  0  0  0  0  0  0  0  0  0
   37.2970   30.8990   50.5960 C   0  0  0  0  0  0  0  0  0  0  0  0
   38.5890   30.7340   50.1110 F   0  0  0  0  0  0  0  0  0  0  0  0
   37.0130   32.2510   50.5470 F   0  0  0  0  0  0  0  0  0  0  0  0
   37.2340   30.5060   51.9090 F   0  0  0  0  0  0  0  0  0  0  0  0
   37.2990   31.1390   47.6740 C   0  0  0  0  0  0  0  0  0  0  0  0
   36.8470   32.1450   47.5070 H   0  0  0  0  0  0  0  0  0  0  0  0
   38.2650   31.2110   48.2200 H   0  0  0  0  0  0  0  0  0  0  0  0
   37.2900   30.9540   42.5870 C   0  0  0  0  0  0  0  0  0  0  0  0
   38.5440   30.5410   43.2360 C   0  0  0  0  0  2  0  0  0  0  0  0
   38.5640   30.8280   44.6110 N   0  0  2  0  0  0  0  0  0  0  0  0
   39.0410   30.9550   45.9410 C   0  0  2  0  0  0  0  0  0  0  0  0
   40.1830   31.3070   46.3870 O   0  0  0  0  0  1  0  0  0  0  0  0
   37.6520   30.5110   46.3450 C   0  0  2  0  0  3  0  0  0  0  0  0
   37.3230   31.3430   45.1700 C   0  0  2  0  0  0  0  0  0  0  0  0
   36.1090   30.7180   43.9830 S   0  0  0  0  0  0  0  0  0  0  0  0
   36.8920   30.0910   41.4170 C   0  0  0  0  0  2  0  0  0  0  0  0
   37.0630   29.0430   41.7190 H   0  0  0  0  0  0  0  0  0  0  0  0
   37.3600   32.4280   42.2540 C   0  0  0  0  0  2  0  0  0  0  0  0
   37.2550   32.9700   43.2360 H   0  0  0  0  0  0  0  0  0  0  0  0
  1  7  1  0  0  0  0
  2  1  1  0  0  0  0
  2 22  1  0  0  0  0
  3  2  2  0  0  0  0
  4  5  2  0  0  0  0
  4  3  1  0  0  0  0
  5  6  1  0  0  0  0
  6  1  2  0  0  0  0
  8  9  1  0  0  0  0
  9 10  1  0  0  0  0
 10 11  2  0  0  0  0
 10  5  1  0  0  0  0
 11 16  1  0  0  0  0
 12 17  1  0  0  0  0
 12 11  1  0  0  0  0
 13 12  2  0  0  0  0
 14 13  1  0  0  0  0
 15 13  1  0  0  0  0
 15  9  2  0  0  0  0
 18 21  1  0  0  0  0
 18 15  1  0  0  0  0
 19 18  1  0  0  0  0
 20 18  1  0  0  0  0
 22 25  1  0  0  0  0
 23 22  1  0  0  0  0
 24 22  1  0  0  0  0
 26 28  1  0  0  0  0
 26  3  1  0  0  0  0
 27 26  1  0  0  0  0
 29 30  1  0  0  0  0
 29 36  1  0  0  0  0
 31 30  1  1  0  0  0
 31 35  1  0  0  0  0
 31 32  1  0  0  0  0
 32 34  1  0  0  0  0
 32 33  1  1  0  0  0
 34 26  1  1  0  0  0
 35 36  1  6  0  0  0
 35 32  1  0  0  0  0
 35 34  1  0  0  0  0
 37 38  1  0  0  0  0
 37 29  1  0  0  0  0
 39 29  1  0  0  0  0
 39 40  1  0  0  0  0
M  END
>  <minimizedAffinity>
-6.60625553

>  <minimizedRMSD>
1.19917381

$$$$
