
     RDKit          3D

 40 42  0  0  0  0  0  0  0  0999 V2000
   37.1788   31.1194   47.8337 C   0  0  0  0  0  0  0  0  0  0  0  0
   37.8306   30.3590   48.7299 C   0  0  0  0  0  0  0  0  0  0  0  0
   38.1056   30.9446   50.0750 C   0  0  0  0  0  0  0  0  0  0  0  0
   37.2878   30.0475   51.3980 S   0  0  0  0  0  0  0  0  0  0  0  0
   38.1293   32.1004   47.6410 O   0  0  0  0  0  0  0  0  0  0  0  0
   38.4988   32.3652   46.3306 C   0  0  0  0  0  0  0  0  0  0  0  0
   39.8233   32.8100   46.2372 C   0  0  0  0  0  0  0  0  0  0  0  0
   40.3383   33.1167   44.9810 C   0  0  0  0  0  0  0  0  0  0  0  0
   39.5145   32.9650   43.8992 N   0  0  0  0  0  0  0  0  0  0  0  0
   38.2264   32.5280   44.0302 C   0  0  0  0  0  0  0  0  0  0  0  0
   37.7526   32.2413   45.2282 N   0  0  0  0  0  0  0  0  0  0  0  0
   36.2503   31.6319   48.2152 H   0  0  0  0  0  0  0  0  0  0  0  0
   36.8410   30.6039   46.9091 H   0  0  0  0  0  0  0  0  0  0  0  0
   37.2761   29.3889   48.9066 H   0  0  0  0  0  0  0  0  0  0  0  0
   38.8160   29.9489   48.3749 H   0  0  0  0  0  0  0  0  0  0  0  0
   37.6946   31.9785   50.0846 H   0  0  0  0  0  0  0  0  0  0  0  0
   39.1836   31.0607   50.3048 H   0  0  0  0  0  0  0  0  0  0  0  0
   37.0250   30.8404   52.5331 H   0  0  0  0  0  0  0  0  0  0  0  0
   40.5158   32.9476   47.0545 H   0  0  0  0  0  0  0  0  0  0  0  0
   41.3567   33.4645   44.8559 H   0  0  0  0  0  0  0  0  0  0  0  0
   37.3481   32.3703   42.8405 C   0  0  0  0  0  0  0  0  0  0  0  0
   37.2398   30.8974   42.5622 C   0  0  2  0  0  0  0  0  0  0  0  0
   38.6112   30.3466   42.2898 C   0  0  0  0  0  0  0  0  0  0  0  0
   38.6901   29.8135   41.3053 H   0  0  0  0  0  0  0  0  0  0  0  0
   36.2601   30.5512   41.4707 C   0  0  0  0  0  0  0  0  0  0  0  0
   34.9379   30.5834   42.0066 N   0  0  0  0  0  0  0  0  0  0  0  0
   33.5602   30.9091   42.1807 C   0  0  0  0  0  0  0  0  0  0  0  0
   32.5854   31.2790   41.4682 O   0  0  0  0  0  0  0  0  0  0  0  0
   33.7328   30.6230   43.6294 C   0  0  1  0  0  0  0  0  0  0  0  0
   34.1038   31.5286   44.1485 H   0  0  0  0  0  0  0  0  0  0  0  0
   34.8395   29.7396   43.1597 C   0  0  2  0  0  0  0  0  0  0  0  0
   36.4504   30.0700   43.9749 S   0  0  0  0  0  0  0  0  0  0  0  0
   36.3677   32.8105   43.1399 H   0  0  0  0  0  0  0  0  0  0  0  0
   37.7569   32.8994   41.9554 H   0  0  0  0  0  0  0  0  0  0  0  0
   38.8518   29.5838   43.0624 H   0  0  0  0  0  0  0  0  0  0  0  0
   39.3556   31.1593   42.2360 H   0  0  0  0  0  0  0  0  0  0  0  0
   36.3954   31.2856   40.6789 H   0  0  0  0  0  0  0  0  0  0  0  0
   36.5394   29.5671   41.0272 H   0  0  0  0  0  0  0  0  0  0  0  0
   32.8631   30.1235   44.1008 H   0  0  0  0  0  0  0  0  0  0  0  0
   34.6328   28.6751   43.0057 H   0  0  0  0  0  0  0  0  0  0  0  0
  1  2  1  0
  2  3  1  0
  3  4  1  0
  5  1  1  0
  6  5  1  0
  7  6  2  0
  8  7  1  0
  9 10  1  0
  9  8  2  0
 10 11  2  0
 11  6  1  0
  1 12  1  0
  1 13  1  0
  2 14  1  0
  2 15  1  0
  3 16  1  0
  3 17  1  0
  4 18  1  0
  7 19  1  0
  8 20  1  0
 22 21  1  1
 22 23  1  0
 23 24  1  0
 22 25  1  0
 25 26  1  0
 26 27  1  0
 27 28  2  0
 27 29  1  0
 29 30  1  1
 29 31  1  0
 31 32  1  0
 32 22  1  0
 31 26  1  0
 21 33  1  0
 21 34  1  0
 23 35  1  0
 23 36  1  0
 25 37  1  0
 25 38  1  0
 29 39  1  0
 31 40  1  6
 10 21  1  0
M  ISO  8  12   8  13   8  14   8  15   8  16   8  17   8  18  11  19  14
M  ISO  3  20  14  24   8  30  15
M  END
>  <DihAtoms>  (1) 
8,9,20,21

>  <DihDeg>  (1) 
-0.0009301237408000945

$$$$
