
 OpenBabel03272506103D

 47 51  0  0  1  0  0  0  0  0999 V2000
   36.6150   27.9850   33.9400 C   0  0  0  0  0  0  0  0  0  0  0  0
   35.9760   28.1170   34.8610 H   0  0  0  0  0  0  0  0  0  0  0  0
   37.3810   28.7850   34.0280 H   0  0  0  0  0  0  0  0  0  0  0  0
   37.2750   26.6320   34.0050 C   0  0  0  0  0  0  0  0  0  0  0  0
   37.4650   25.8810   32.7950 C   0  0  0  0  0  0  0  0  0  0  0  0
   38.2550   24.4210   33.4140 S   0  0  0  0  0  0  0  0  0  0  0  0
   38.2350   24.9920   35.2070 C   0  0  0  0  0  0  0  0  0  0  0  0
   37.7080   26.0510   35.0850 N   0  0  0  0  0  0  0  0  0  0  0  0
   38.7150   24.3530   36.4200 N   0  0  0  0  0  0  0  0  0  0  0  0
   39.8470   23.4980   36.2830 C   0  0  0  0  0  0  0  0  0  0  0  0
   40.0190   22.5250   37.4130 C   0  0  0  0  0  0  0  0  0  0  0  0
   38.9460   22.5620   38.3880 N   0  0  0  0  0  0  0  0  0  0  0  0
   38.7760   23.9500   38.7750 C   0  0  0  0  0  0  0  0  0  0  0  0
   38.0220   24.6250   37.6650 C   0  0  0  0  0  0  0  0  0  0  0  0
   37.1870   26.1720   31.8210 H   0  0  0  0  0  0  0  0  0  0  0  0
   39.8290   22.9930   35.2770 H   0  0  0  0  0  0  0  0  0  0  0  0
   40.7540   24.1380   36.2460 H   0  0  0  0  0  0  0  0  0  0  0  0
   40.0890   21.4660   37.0550 H   0  0  0  0  0  0  0  0  0  0  0  0
   40.9680   22.6840   37.9680 H   0  0  0  0  0  0  0  0  0  0  0  0
   39.2960   22.0360   39.2260 H   0  0  0  0  0  0  0  0  0  0  0  0
   39.7590   24.4460   38.9060 H   0  0  0  0  0  0  0  0  0  0  0  0
   38.1570   23.9760   39.7070 H   0  0  0  0  0  0  0  0  0  0  0  0
   37.9610   25.7390   37.7910 H   0  0  0  0  0  0  0  0  0  0  0  0
   36.9770   24.2130   37.6320 H   0  0  0  0  0  0  0  0  0  0  0  0
   35.8240   28.1590   32.7020 C   0  0  0  0  0  0  0  0  0  0  0  0
   35.0660   27.3250   32.6510 H   0  0  0  0  0  0  0  0  0  0  0  0
   36.4100   28.1940   31.7600 H   0  0  0  0  0  0  0  0  0  0  0  0
   32.8890   30.4300   32.7400 C   0  0  0  0  0  0  0  0  0  0  0  0
   33.4630   31.6660   33.0370 C   0  0  0  0  0  0  0  0  0  0  0  0
   34.8590   31.7200   33.2230 C   0  0  0  0  0  0  0  0  0  0  0  0
   35.5520   30.5600   33.1010 N   0  0  0  0  0  0  0  0  0  0  0  0
   34.9470   29.3900   32.8130 C   0  0  0  0  0  0  0  0  0  0  0  0
   33.6360   29.3240   32.6350 N   0  0  0  0  0  0  0  0  0  0  0  0
   31.8150   30.4120   32.6020 H   0  0  0  0  0  0  0  0  0  0  0  0
   32.9320   32.6000   33.1380 H   0  0  0  0  0  0  0  0  0  0  0  0
   35.6300   32.9220   33.5380 C   0  0  0  0  0  2  0  0  0  0  0  0
   35.8320   33.2100   34.9870 C   0  0  1  0  0  0  0  0  0  0  0  0
   34.8180   34.1270   35.5960 C   0  0  0  0  0  2  0  0  0  0  0  0
   33.7740   33.3300   36.1830 N   0  0  0  0  0  0  0  0  0  0  0  0
   32.5270   32.7300   36.5470 C   0  0  0  0  0  0  0  0  0  0  0  0
   31.3600   33.1240   36.2590 O   0  0  0  0  0  0  0  0  0  0  0  0
   33.1650   31.6170   37.2960 C   0  0  0  0  0  3  0  0  0  0  0  0
   32.7880   31.6780   38.3580 H   0  0  0  0  0  0  0  0  0  0  0  0
   34.4050   32.4190   37.1510 C   0  0  1  0  0  3  0  0  0  0  0  0
   35.6770   31.7230   36.0220 S   0  0  0  0  0  0  0  0  0  0  0  0
   37.2220   33.7680   35.2080 C   0  0  0  0  0  2  0  0  0  0  0  0
   37.1750   34.4890   36.0490 H   0  0  0  0  0  0  0  0  0  0  0  0
  1  4  1  0  0  0  0
  1  3  1  0  0  0  0
  1  2  1  0  0  0  0
  4  8  1  0  0  0  0
  5  6  1  0  0  0  0
  5  4  2  0  0  0  0
  6  7  1  0  0  0  0
  7  9  1  0  0  0  0
  8  7  2  0  0  0  0
  9 14  1  0  0  0  0
 10  9  1  0  0  0  0
 10 11  1  0  0  0  0
 11 19  1  0  0  0  0
 11 12  1  0  0  0  0
 12 13  1  0  0  0  0
 12 20  1  0  0  0  0
 13 21  1  0  0  0  0
 13 22  1  0  0  0  0
 14 23  1  0  0  0  0
 14 13  1  0  0  0  0
 15  5  1  0  0  0  0
 16 10  1  0  0  0  0
 17 10  1  0  0  0  0
 18 11  1  0  0  0  0
 24 14  1  0  0  0  0
 25 32  1  0  0  0  0
 25  1  1  0  0  0  0
 26 25  1  0  0  0  0
 27 25  1  0  0  0  0
 28 29  1  0  0  0  0
 29 35  1  0  0  0  0
 29 30  2  0  0  0  0
 30 36  1  0  0  0  0
 31 30  1  0  0  0  0
 32 31  2  0  0  0  0
 33 28  2  0  0  0  0
 33 32  1  0  0  0  0
 34 28  1  0  0  0  0
 37 36  1  6  0  0  0
 37 46  1  0  0  0  0
 37 38  1  0  0  0  0
 37 45  1  0  0  0  0
 38 39  1  0  0  0  0
 39 40  1  0  0  0  0
 39 44  1  0  0  0  0
 40 42  1  0  0  0  0
 41 40  2  0  0  0  0
 42 43  1  0  0  0  0
 44 45  1  6  0  0  0
 44 42  1  0  0  0  0
 46 47  1  0  0  0  0
M  END
>  <minimizedAffinity>
-6.262918

$$$$

 OpenBabel03272506103D

 47 51  0  0  1  0  0  0  0  0999 V2000
   36.4980   27.8770   33.8130 C   0  0  0  0  0  0  0  0  0  0  0  0
   35.4170   27.7370   34.1070 H   0  0  0  0  0  0  0  0  0  0  0  0
   36.8960   28.5750   34.5810 H   0  0  0  0  0  0  0  0  0  0  0  0
   37.1990   26.5480   33.9170 C   0  0  0  0  0  0  0  0  0  0  0  0
   37.4510   25.7880   32.7240 C   0  0  0  0  0  0  0  0  0  0  0  0
   38.2680   24.3630   33.3860 S   0  0  0  0  0  0  0  0  0  0  0  0
   38.1730   24.9540   35.1700 C   0  0  0  0  0  0  0  0  0  0  0  0
   37.6160   25.9940   35.0180 N   0  0  0  0  0  0  0  0  0  0  0  0
   38.6350   24.3460   36.4060 N   0  0  0  0  0  0  0  0  0  0  0  0
   39.7970   23.5260   36.3160 C   0  0  0  0  0  0  0  0  0  0  0  0
   39.9650   22.5740   37.4630 C   0  0  0  0  0  0  0  0  0  0  0  0
   38.8610   22.5880   38.4030 N   0  0  0  0  0  0  0  0  0  0  0  0
   38.6340   23.9750   38.7670 C   0  0  0  0  0  0  0  0  0  0  0  0
   37.8940   24.6100   37.6250 C   0  0  0  0  0  0  0  0  0  0  0  0
   37.1950   26.0580   31.7370 H   0  0  0  0  0  0  0  0  0  0  0  0
   39.8280   23.0090   35.3160 H   0  0  0  0  0  0  0  0  0  0  0  0
   40.6840   24.1950   36.2980 H   0  0  0  0  0  0  0  0  0  0  0  0
   40.0810   21.5140   37.1210 H   0  0  0  0  0  0  0  0  0  0  0  0
   40.8910   22.7710   38.0450 H   0  0  0  0  0  0  0  0  0  0  0  0
   39.2020   22.0840   39.2590 H   0  0  0  0  0  0  0  0  0  0  0  0
   39.5970   24.5030   38.9210 H   0  0  0  0  0  0  0  0  0  0  0  0
   37.9860   23.9920   39.6780 H   0  0  0  0  0  0  0  0  0  0  0  0
   37.7940   25.7240   37.7340 H   0  0  0  0  0  0  0  0  0  0  0  0
   36.8650   24.1650   37.5650 H   0  0  0  0  0  0  0  0  0  0  0  0
   36.6210   28.4680   32.4620 C   0  0  0  0  0  0  0  0  0  0  0  0
   36.4780   27.6430   31.7070 H   0  0  0  0  0  0  0  0  0  0  0  0
   37.5700   29.0050   32.2600 H   0  0  0  0  0  0  0  0  0  0  0  0
   34.5000   31.2370   31.1960 C   0  0  0  0  0  0  0  0  0  0  0  0
   33.2500   30.9370   31.7390 C   0  0  0  0  0  0  0  0  0  0  0  0
   33.1360   29.7840   32.5410 C   0  0  0  0  0  0  0  0  0  0  0  0
   34.2550   29.0400   32.7310 N   0  0  0  0  0  0  0  0  0  0  0  0
   35.4410   29.3750   32.1810 C   0  0  0  0  0  0  0  0  0  0  0  0
   35.5630   30.4550   31.4250 N   0  0  0  0  0  0  0  0  0  0  0  0
   34.5640   32.1270   30.5830 H   0  0  0  0  0  0  0  0  0  0  0  0
   32.3490   31.5140   31.6020 H   0  0  0  0  0  0  0  0  0  0  0  0
   31.9120   29.3160   33.1890 C   0  0  0  0  0  2  0  0  0  0  0  0
   31.6360   29.8710   34.5460 C   0  0  1  0  0  0  0  0  0  0  0  0
   32.6460   29.5150   35.5920 C   0  0  0  0  0  2  0  0  0  0  0  0
   33.6230   30.5680   35.6620 N   0  0  0  0  0  0  0  0  0  0  0  0
   34.8240   31.3470   35.6640 C   0  0  0  0  0  0  0  0  0  0  0  0
   36.0190   30.9350   35.6780 O   0  0  0  0  0  0  0  0  0  0  0  0
   34.1020   32.6450   35.6450 C   0  0  0  0  0  3  0  0  0  0  0  0
   34.4170   33.2090   36.5700 H   0  0  0  0  0  0  0  0  0  0  0  0
   32.9030   31.8210   35.9380 C   0  0  1  0  0  3  0  0  0  0  0  0
   31.6750   31.6890   34.5780 S   0  0  0  0  0  0  0  0  0  0  0  0
   30.2570   29.4440   35.0020 C   0  0  0  0  0  2  0  0  0  0  0  0
   30.2810   29.3170   36.1040 H   0  0  0  0  0  0  0  0  0  0  0  0
  1  4  1  0  0  0  0
  1  2  1  0  0  0  0
  1  3  1  0  0  0  0
  4  8  1  0  0  0  0
  5  6  1  0  0  0  0
  5  4  2  0  0  0  0
  6  7  1  0  0  0  0
  7  9  1  0  0  0  0
  8  7  2  0  0  0  0
  9 14  1  0  0  0  0
 10  9  1  0  0  0  0
 10 11  1  0  0  0  0
 11 19  1  0  0  0  0
 11 12  1  0  0  0  0
 12 13  1  0  0  0  0
 12 20  1  0  0  0  0
 13 21  1  0  0  0  0
 13 22  1  0  0  0  0
 14 23  1  0  0  0  0
 14 13  1  0  0  0  0
 15  5  1  0  0  0  0
 16 10  1  0  0  0  0
 17 10  1  0  0  0  0
 18 11  1  0  0  0  0
 24 14  1  0  0  0  0
 25  1  1  0  0  0  0
 26 25  1  0  0  0  0
 27 25  1  0  0  0  0
 28 33  2  0  0  0  0
 28 29  1  0  0  0  0
 29 30  2  0  0  0  0
 30 31  1  0  0  0  0
 30 36  1  0  0  0  0
 32 25  1  0  0  0  0
 32 31  2  0  0  0  0
 33 32  1  0  0  0  0
 34 28  1  0  0  0  0
 35 29  1  0  0  0  0
 37 36  1  6  0  0  0
 37 45  1  0  0  0  0
 37 46  1  0  0  0  0
 37 38  1  0  0  0  0
 38 39  1  0  0  0  0
 39 40  1  0  0  0  0
 39 44  1  0  0  0  0
 40 41  2  0  0  0  0
 42 40  1  0  0  0  0
 42 44  1  0  0  0  0
 42 43  1  0  0  0  0
 44 45  1  6  0  0  0
 46 47  1  0  0  0  0
M  END
>  <minimizedAffinity>
-6.19778872

$$$$

 OpenBabel03272506103D

 47 51  0  0  1  0  0  0  0  0999 V2000
   36.5620   27.7330   33.8120 C   0  0  0  0  0  0  0  0  0  0  0  0
   35.4920   27.5850   34.1410 H   0  0  0  0  0  0  0  0  0  0  0  0
   36.9720   28.4550   34.5510 H   0  0  0  0  0  0  0  0  0  0  0  0
   37.2850   26.4160   33.9270 C   0  0  0  0  0  0  0  0  0  0  0  0
   37.5430   25.6470   32.7410 C   0  0  0  0  0  0  0  0  0  0  0  0
   38.3850   24.2420   33.4150 S   0  0  0  0  0  0  0  0  0  0  0  0
   38.2900   24.8530   35.1930 C   0  0  0  0  0  0  0  0  0  0  0  0
   37.7160   25.8820   35.0320 N   0  0  0  0  0  0  0  0  0  0  0  0
   38.7680   24.2660   36.4330 N   0  0  0  0  0  0  0  0  0  0  0  0
   39.9430   23.4640   36.3460 C   0  0  0  0  0  0  0  0  0  0  0  0
   40.1320   22.5280   37.5040 C   0  0  0  0  0  0  0  0  0  0  0  0
   39.0320   22.5340   38.4490 N   0  0  0  0  0  0  0  0  0  0  0  0
   38.7850   23.9220   38.7980 C   0  0  0  0  0  0  0  0  0  0  0  0
   38.0290   24.5320   37.6530 C   0  0  0  0  0  0  0  0  0  0  0  0
   37.2770   25.9010   31.7530 H   0  0  0  0  0  0  0  0  0  0  0  0
   39.9760   22.9360   35.3520 H   0  0  0  0  0  0  0  0  0  0  0  0
   40.8180   24.1470   36.3170 H   0  0  0  0  0  0  0  0  0  0  0  0
   40.2620   21.4660   37.1730 H   0  0  0  0  0  0  0  0  0  0  0  0
   41.0570   22.7460   38.0780 H   0  0  0  0  0  0  0  0  0  0  0  0
   39.3850   22.0460   39.3090 H   0  0  0  0  0  0  0  0  0  0  0  0
   39.7400   24.4670   38.9420 H   0  0  0  0  0  0  0  0  0  0  0  0
   38.1410   23.9390   39.7130 H   0  0  0  0  0  0  0  0  0  0  0  0
   37.9120   25.6460   37.7500 H   0  0  0  0  0  0  0  0  0  0  0  0
   37.0070   24.0700   37.6040 H   0  0  0  0  0  0  0  0  0  0  0  0
   36.6370   28.2920   32.4440 C   0  0  0  0  0  0  0  0  0  0  0  0
   36.0290   27.6290   31.7630 H   0  0  0  0  0  0  0  0  0  0  0  0
   37.6600   28.4170   32.0340 H   0  0  0  0  0  0  0  0  0  0  0  0
   34.7500   31.2380   31.2060 C   0  0  0  0  0  0  0  0  0  0  0  0
   34.5480   31.9810   32.3690 C   0  0  0  0  0  0  0  0  0  0  0  0
   35.0600   31.4720   33.5780 C   0  0  0  0  0  0  0  0  0  0  0  0
   35.7180   30.2850   33.5290 N   0  0  0  0  0  0  0  0  0  0  0  0
   35.8860   29.6060   32.3760 C   0  0  0  0  0  0  0  0  0  0  0  0
   35.4100   30.0730   31.2320 N   0  0  0  0  0  0  0  0  0  0  0  0
   34.3480   31.6480   30.2880 H   0  0  0  0  0  0  0  0  0  0  0  0
   34.0290   32.9250   32.4310 H   0  0  0  0  0  0  0  0  0  0  0  0
   34.9440   32.1100   34.8880 C   0  0  0  0  0  2  0  0  0  0  0  0
   33.6520   31.9070   35.6050 C   0  0  1  0  0  0  0  0  0  0  0  0
   33.7460   31.9480   37.0980 C   0  0  0  0  0  2  0  0  0  0  0  0
   33.4610   33.2880   37.5370 N   0  0  0  0  0  0  0  0  0  0  0  0
   33.5020   34.5920   38.1260 C   0  0  0  0  0  0  0  0  0  0  0  0
   34.3240   35.0350   38.9790 O   0  0  0  0  0  0  0  0  0  0  0  0
   32.3170   35.0790   37.3750 C   0  0  0  0  0  3  0  0  0  0  0  0
   31.5470   35.3870   38.1410 H   0  0  0  0  0  0  0  0  0  0  0  0
   32.1330   33.6500   37.0180 C   0  0  1  0  0  3  0  0  0  0  0  0
   32.4460   33.2230   35.2580 S   0  0  0  0  0  0  0  0  0  0  0  0
   33.0260   30.5990   35.1700 C   0  0  0  0  0  2  0  0  0  0  0  0
   32.4760   30.1740   36.0330 H   0  0  0  0  0  0  0  0  0  0  0  0
  1  4  1  0  0  0  0
  1  2  1  0  0  0  0
  1  3  1  0  0  0  0
  4  8  1  0  0  0  0
  5  6  1  0  0  0  0
  5  4  2  0  0  0  0
  6  7  1  0  0  0  0
  7  9  1  0  0  0  0
  8  7  2  0  0  0  0
  9 14  1  0  0  0  0
 10  9  1  0  0  0  0
 10 11  1  0  0  0  0
 11 19  1  0  0  0  0
 11 12  1  0  0  0  0
 12 13  1  0  0  0  0
 12 20  1  0  0  0  0
 13 21  1  0  0  0  0
 13 22  1  0  0  0  0
 14 23  1  0  0  0  0
 14 13  1  0  0  0  0
 15  5  1  0  0  0  0
 16 10  1  0  0  0  0
 17 10  1  0  0  0  0
 18 11  1  0  0  0  0
 24 14  1  0  0  0  0
 25  1  1  0  0  0  0
 26 25  1  0  0  0  0
 27 25  1  0  0  0  0
 28 33  2  0  0  0  0
 28 29  1  0  0  0  0
 29 35  1  0  0  0  0
 29 30  2  0  0  0  0
 30 36  1  0  0  0  0
 31 30  1  0  0  0  0
 32 25  1  0  0  0  0
 32 31  2  0  0  0  0
 33 32  1  0  0  0  0
 34 28  1  0  0  0  0
 37 36  1  6  0  0  0
 37 38  1  0  0  0  0
 38 39  1  0  0  0  0
 39 40  1  0  0  0  0
 40 41  2  0  0  0  0
 42 40  1  0  0  0  0
 42 43  1  0  0  0  0
 44 45  1  6  0  0  0
 44 42  1  0  0  0  0
 44 39  1  0  0  0  0
 45 37  1  0  0  0  0
 46 37  1  0  0  0  0
 46 47  1  0  0  0  0
M  END
>  <minimizedAffinity>
-6.16206884

$$$$

 OpenBabel03272506103D

 47 51  0  0  1  0  0  0  0  0999 V2000
   35.9990   23.3840   31.7870 C   0  0  0  0  0  0  0  0  0  0  0  0
   35.4030   22.5550   31.3060 H   0  0  0  0  0  0  0  0  0  0  0  0
   35.2980   23.8230   32.5300 H   0  0  0  0  0  0  0  0  0  0  0  0
   37.1810   22.7760   32.4960 C   0  0  0  0  0  0  0  0  0  0  0  0
   38.0140   21.8350   31.7990 C   0  0  0  0  0  0  0  0  0  0  0  0
   39.2120   21.4430   33.0430 S   0  0  0  0  0  0  0  0  0  0  0  0
   38.4550   22.5800   34.3390 C   0  0  0  0  0  0  0  0  0  0  0  0
   37.5400   23.0230   33.7220 N   0  0  0  0  0  0  0  0  0  0  0  0
   38.8470   22.8640   35.7080 N   0  0  0  0  0  0  0  0  0  0  0  0
   40.2400   22.7950   35.9990 C   0  0  0  0  0  0  0  0  0  0  0  0
   40.5540   22.6330   37.4580 C   0  0  0  0  0  0  0  0  0  0  0  0
   39.3820   22.4730   38.2960 N   0  0  0  0  0  0  0  0  0  0  0  0
   38.4760   23.5580   37.9650 C   0  0  0  0  0  0  0  0  0  0  0  0
   37.8110   23.1930   36.6690 C   0  0  0  0  0  0  0  0  0  0  0  0
   37.8960   21.5020   30.8060 H   0  0  0  0  0  0  0  0  0  0  0  0
   40.7290   22.0060   35.3610 H   0  0  0  0  0  0  0  0  0  0  0  0
   40.7060   23.7430   35.6560 H   0  0  0  0  0  0  0  0  0  0  0  0
   41.2110   21.7480   37.6550 H   0  0  0  0  0  0  0  0  0  0  0  0
   41.1310   23.4910   37.8650 H   0  0  0  0  0  0  0  0  0  0  0  0
   39.7080   22.6180   39.2830 H   0  0  0  0  0  0  0  0  0  0  0  0
   39.0320   24.5090   37.8390 H   0  0  0  0  0  0  0  0  0  0  0  0
   37.7020   23.6190   38.7700 H   0  0  0  0  0  0  0  0  0  0  0  0
   37.1960   24.0300   36.2410 H   0  0  0  0  0  0  0  0  0  0  0  0
   37.1380   22.3100   36.8410 H   0  0  0  0  0  0  0  0  0  0  0  0
   36.4080   24.4040   30.7970 C   0  0  0  0  0  0  0  0  0  0  0  0
   35.4850   24.9640   30.4710 H   0  0  0  0  0  0  0  0  0  0  0  0
   36.9480   24.0170   29.9080 H   0  0  0  0  0  0  0  0  0  0  0  0
   39.2220   26.5720   31.8690 C   0  0  0  0  0  0  0  0  0  0  0  0
   38.6010   27.4720   32.7360 C   0  0  0  0  0  0  0  0  0  0  0  0
   37.2160   27.3330   32.9520 C   0  0  0  0  0  0  0  0  0  0  0  0
   36.5770   26.3290   32.2990 N   0  0  0  0  0  0  0  0  0  0  0  0
   37.2260   25.4860   31.4710 C   0  0  0  0  0  0  0  0  0  0  0  0
   38.5280   25.6040   31.2580 N   0  0  0  0  0  0  0  0  0  0  0  0
   40.2870   26.6970   31.7180 H   0  0  0  0  0  0  0  0  0  0  0  0
   39.0890   28.2760   33.2650 H   0  0  0  0  0  0  0  0  0  0  0  0
   36.4020   28.1800   33.8220 C   0  0  0  0  0  2  0  0  0  0  0  0
   35.6500   29.2800   33.1500 C   0  0  1  0  0  0  0  0  0  0  0  0
   34.2400   28.9440   32.7770 C   0  0  0  0  0  2  0  0  0  0  0  0
   33.3710   29.3720   33.8400 N   0  0  0  0  0  0  0  0  0  0  0  0
   32.4070   29.4520   34.8950 C   0  0  0  0  0  0  0  0  0  0  0  0
   31.5530   28.5850   35.2370 O   0  0  0  0  0  0  0  0  0  0  0  0
   32.8320   30.8120   35.3160 C   0  0  0  0  0  3  0  0  0  0  0  0
   31.9290   31.4820   35.2180 H   0  0  0  0  0  0  0  0  0  0  0  0
   33.6010   30.8100   34.0460 C   0  0  1  0  0  3  0  0  0  0  0  0
   35.4290   30.7310   34.2230 S   0  0  0  0  0  0  0  0  0  0  0  0
   36.4060   29.7400   31.9230 C   0  0  0  0  0  2  0  0  0  0  0  0
   35.6670   30.0570   31.1590 H   0  0  0  0  0  0  0  0  0  0  0  0
  1  4  1  0  0  0  0
  1  3  1  0  0  0  0
  2  1  1  0  0  0  0
  4  8  1  0  0  0  0
  5  4  2  0  0  0  0
  5  6  1  0  0  0  0
  6  7  1  0  0  0  0
  7  9  1  0  0  0  0
  8  7  2  0  0  0  0
  9 10  1  0  0  0  0
  9 14  1  0  0  0  0
 10 11  1  0  0  0  0
 11 18  1  0  0  0  0
 11 19  1  0  0  0  0
 11 12  1  0  0  0  0
 12 20  1  0  0  0  0
 13 12  1  0  0  0  0
 13 22  1  0  0  0  0
 14 24  1  0  0  0  0
 14 13  1  0  0  0  0
 15  5  1  0  0  0  0
 16 10  1  0  0  0  0
 17 10  1  0  0  0  0
 21 13  1  0  0  0  0
 23 14  1  0  0  0  0
 25 32  1  0  0  0  0
 25  1  1  0  0  0  0
 26 25  1  0  0  0  0
 27 25  1  0  0  0  0
 28 29  1  0  0  0  0
 29 30  2  0  0  0  0
 29 35  1  0  0  0  0
 30 36  1  0  0  0  0
 31 30  1  0  0  0  0
 32 31  2  0  0  0  0
 33 32  1  0  0  0  0
 33 28  2  0  0  0  0
 34 28  1  0  0  0  0
 37 46  1  6  0  0  0
 37 36  1  0  0  0  0
 37 45  1  0  0  0  0
 38 37  1  0  0  0  0
 38 39  1  0  0  0  0
 39 44  1  0  0  0  0
 39 40  1  0  0  0  0
 40 41  2  0  0  0  0
 40 42  1  0  0  0  0
 43 42  1  0  0  0  0
 44 45  1  1  0  0  0
 44 42  1  0  0  0  0
 47 46  1  0  0  0  0
M  END
>  <minimizedAffinity>
-6.11886883

$$$$

 OpenBabel03272506103D

 47 51  0  0  1  0  0  0  0  0999 V2000
   36.7950   26.6810   32.8050 C   0  0  0  0  0  0  0  0  0  0  0  0
   37.1120   26.9920   31.7680 H   0  0  0  0  0  0  0  0  0  0  0  0
   35.7300   26.3860   32.6830 H   0  0  0  0  0  0  0  0  0  0  0  0
   37.6140   25.4860   33.2190 C   0  0  0  0  0  0  0  0  0  0  0  0
   38.1090   24.5880   32.2130 C   0  0  0  0  0  0  0  0  0  0  0  0
   38.9750   23.4020   33.2030 S   0  0  0  0  0  0  0  0  0  0  0  0
   38.5710   24.2490   34.8350 C   0  0  0  0  0  0  0  0  0  0  0  0
   37.9320   25.1720   34.4400 N   0  0  0  0  0  0  0  0  0  0  0  0
   38.9200   23.9080   36.2030 N   0  0  0  0  0  0  0  0  0  0  0  0
   40.1650   23.2410   36.3940 C   0  0  0  0  0  0  0  0  0  0  0  0
   40.2740   22.5110   37.7000 C   0  0  0  0  0  0  0  0  0  0  0  0
   39.0560   22.5290   38.4860 N   0  0  0  0  0  0  0  0  0  0  0  0
   38.6330   23.9150   38.5750 C   0  0  0  0  0  0  0  0  0  0  0  0
   37.9940   24.2620   37.2610 C   0  0  0  0  0  0  0  0  0  0  0  0
   37.9640   24.6630   31.1720 H   0  0  0  0  0  0  0  0  0  0  0  0
   40.3890   22.5810   35.5090 H   0  0  0  0  0  0  0  0  0  0  0  0
   40.9680   24.0070   36.3670 H   0  0  0  0  0  0  0  0  0  0  0  0
   40.5490   21.4340   37.5620 H   0  0  0  0  0  0  0  0  0  0  0  0
   41.0840   22.9140   38.3450 H   0  0  0  0  0  0  0  0  0  0  0  0
   39.3270   22.2150   39.4500 H   0  0  0  0  0  0  0  0  0  0  0  0
   39.5020   24.5810   38.7500 H   0  0  0  0  0  0  0  0  0  0  0  0
   37.8670   23.9910   39.3870 H   0  0  0  0  0  0  0  0  0  0  0  0
   37.7600   25.3570   37.1640 H   0  0  0  0  0  0  0  0  0  0  0  0
   37.0370   23.6830   37.1580 H   0  0  0  0  0  0  0  0  0  0  0  0
   36.9150   27.7990   33.7670 C   0  0  0  0  0  0  0  0  0  0  0  0
   37.9550   28.2270   33.6760 H   0  0  0  0  0  0  0  0  0  0  0  0
   36.7030   27.5440   34.8260 H   0  0  0  0  0  0  0  0  0  0  0  0
   34.9380   30.1670   31.7050 C   0  0  0  0  0  0  0  0  0  0  0  0
   34.4760   31.0830   32.6510 C   0  0  0  0  0  0  0  0  0  0  0  0
   34.8450   30.8880   33.9960 C   0  0  0  0  0  0  0  0  0  0  0  0
   35.6270   29.8160   34.2820 N   0  0  0  0  0  0  0  0  0  0  0  0
   36.0460   28.9590   33.3290 C   0  0  0  0  0  0  0  0  0  0  0  0
   35.7070   29.1300   32.0600 N   0  0  0  0  0  0  0  0  0  0  0  0
   34.6420   30.3360   30.6770 H   0  0  0  0  0  0  0  0  0  0  0  0
   33.8550   31.9410   32.4460 H   0  0  0  0  0  0  0  0  0  0  0  0
   34.4570   31.7420   35.1170 C   0  0  0  0  0  2  0  0  0  0  0  0
   33.1290   31.4540   35.7320 C   0  0  1  0  0  0  0  0  0  0  0  0
   32.0010   32.2950   35.2210 C   0  0  0  0  0  2  0  0  0  0  0  0
   31.3510   31.5880   34.1510 N   0  0  0  0  0  0  0  0  0  0  0  0
   30.7820   31.1810   32.9010 C   0  0  0  0  0  0  0  0  0  0  0  0
   30.5620   31.8920   31.8790 O   0  0  0  0  0  0  0  0  0  0  0  0
   30.6120   29.7670   33.3230 C   0  0  0  0  0  3  0  0  0  0  0  0
   29.5110   29.5320   33.2430 H   0  0  0  0  0  0  0  0  0  0  0  0
   30.9230   30.2830   34.6800 C   0  0  1  0  0  3  0  0  0  0  0  0
   32.5450   29.7690   35.3740 S   0  0  0  0  0  0  0  0  0  0  0  0
   33.2220   31.5860   37.2370 C   0  0  0  0  0  2  0  0  0  0  0  0
   32.2480   31.9600   37.6130 H   0  0  0  0  0  0  0  0  0  0  0  0
  1  4  1  0  0  0  0
  1 25  1  0  0  0  0
  2  1  1  0  0  0  0
  3  1  1  0  0  0  0
  4  8  1  0  0  0  0
  5  6  1  0  0  0  0
  5  4  2  0  0  0  0
  6  7  1  0  0  0  0
  7  9  1  0  0  0  0
  8  7  2  0  0  0  0
  9 10  1  0  0  0  0
  9 14  1  0  0  0  0
 10 11  1  0  0  0  0
 11 19  1  0  0  0  0
 11 12  1  0  0  0  0
 12 13  1  0  0  0  0
 12 20  1  0  0  0  0
 13 21  1  0  0  0  0
 13 22  1  0  0  0  0
 14 13  1  0  0  0  0
 15  5  1  0  0  0  0
 16 10  1  0  0  0  0
 17 10  1  0  0  0  0
 18 11  1  0  0  0  0
 23 14  1  0  0  0  0
 24 14  1  0  0  0  0
 25 27  1  0  0  0  0
 26 25  1  0  0  0  0
 28 33  2  0  0  0  0
 28 29  1  0  0  0  0
 29 30  2  0  0  0  0
 30 31  1  0  0  0  0
 30 36  1  0  0  0  0
 32 25  1  0  0  0  0
 32 31  2  0  0  0  0
 33 32  1  0  0  0  0
 34 28  1  0  0  0  0
 35 29  1  0  0  0  0
 37 36  1  6  0  0  0
 37 46  1  0  0  0  0
 38 37  1  0  0  0  0
 39 44  1  0  0  0  0
 39 38  1  0  0  0  0
 40 42  1  0  0  0  0
 40 39  1  0  0  0  0
 41 40  2  0  0  0  0
 43 42  1  0  0  0  0
 44 42  1  6  0  0  0
 44 45  1  0  0  0  0
 45 37  1  0  0  0  0
 46 47  1  0  0  0  0
M  END
>  <minimizedAffinity>
-5.97379494

$$$$

 OpenBabel03272506103D

 47 51  0  0  1  0  0  0  0  0999 V2000
   36.5230   27.7810   33.7730 C   0  0  0  0  0  0  0  0  0  0  0  0
   35.7100   27.8170   34.5550 H   0  0  0  0  0  0  0  0  0  0  0  0
   37.2010   28.6160   34.0530 H   0  0  0  0  0  0  0  0  0  0  0  0
   37.2500   26.4670   33.8990 C   0  0  0  0  0  0  0  0  0  0  0  0
   37.5410   25.7050   32.7160 C   0  0  0  0  0  0  0  0  0  0  0  0
   38.3750   24.3020   33.4030 S   0  0  0  0  0  0  0  0  0  0  0  0
   38.2340   24.9030   35.1810 C   0  0  0  0  0  0  0  0  0  0  0  0
   37.6580   25.9300   35.0110 N   0  0  0  0  0  0  0  0  0  0  0  0
   38.6850   24.3130   36.4300 N   0  0  0  0  0  0  0  0  0  0  0  0
   39.8670   23.5180   36.3670 C   0  0  0  0  0  0  0  0  0  0  0  0
   40.0330   22.5770   37.5240 C   0  0  0  0  0  0  0  0  0  0  0  0
   38.9120   22.5730   38.4430 N   0  0  0  0  0  0  0  0  0  0  0  0
   38.6480   23.9570   38.7930 C   0  0  0  0  0  0  0  0  0  0  0  0
   37.9170   24.5700   37.6330 C   0  0  0  0  0  0  0  0  0  0  0  0
   37.2970   25.9630   31.7230 H   0  0  0  0  0  0  0  0  0  0  0  0
   39.9270   22.9950   35.3710 H   0  0  0  0  0  0  0  0  0  0  0  0
   40.7390   24.2050   36.3610 H   0  0  0  0  0  0  0  0  0  0  0  0
   40.1780   21.5170   37.1920 H   0  0  0  0  0  0  0  0  0  0  0  0
   40.9440   22.7970   38.1210 H   0  0  0  0  0  0  0  0  0  0  0  0
   39.2470   22.0830   39.3090 H   0  0  0  0  0  0  0  0  0  0  0  0
   39.5970   24.5070   38.9620 H   0  0  0  0  0  0  0  0  0  0  0  0
   37.9830   23.9670   39.6920 H   0  0  0  0  0  0  0  0  0  0  0  0
   37.7910   25.6810   37.7320 H   0  0  0  0  0  0  0  0  0  0  0  0
   36.8990   24.1020   37.5570 H   0  0  0  0  0  0  0  0  0  0  0  0
   35.9790   27.9870   32.4130 C   0  0  0  0  0  0  0  0  0  0  0  0
   34.8940   27.6770   32.4210 H   0  0  0  0  0  0  0  0  0  0  0  0
   36.5160   27.4610   31.5980 H   0  0  0  0  0  0  0  0  0  0  0  0
   35.8010   31.2330   30.6240 C   0  0  0  0  0  0  0  0  0  0  0  0
   35.7320   32.1550   31.6690 C   0  0  0  0  0  0  0  0  0  0  0  0
   35.7480   31.6610   32.9890 C   0  0  0  0  0  0  0  0  0  0  0  0
   35.8280   30.3170   33.1530 N   0  0  0  0  0  0  0  0  0  0  0  0
   35.8920   29.4680   32.1070 C   0  0  0  0  0  0  0  0  0  0  0  0
   35.8780   29.9180   30.8610 N   0  0  0  0  0  0  0  0  0  0  0  0
   35.7870   31.6350   29.6180 H   0  0  0  0  0  0  0  0  0  0  0  0
   35.6680   33.2270   31.5620 H   0  0  0  0  0  0  0  0  0  0  0  0
   35.6840   32.4740   34.2020 C   0  0  0  0  0  2  0  0  0  0  0  0
   34.3280   32.6600   34.7960 C   0  0  1  0  0  0  0  0  0  0  0  0
   33.1890   32.3390   33.8800 C   0  0  0  0  0  2  0  0  0  0  0  0
   32.7960   30.9730   34.1000 N   0  0  0  0  0  0  0  0  0  0  0  0
   32.4710   29.5850   33.9660 C   0  0  0  0  0  0  0  0  0  0  0  0
   32.3130   28.9220   32.9010 O   0  0  0  0  0  0  0  0  0  0  0  0
   32.4230   29.3510   35.4320 C   0  0  0  0  0  3  0  0  0  0  0  0
   31.3840   28.9800   35.6710 H   0  0  0  0  0  0  0  0  0  0  0  0
   32.4650   30.8320   35.5270 C   0  0  1  0  0  3  0  0  0  0  0  0
   34.0220   31.5420   36.1980 S   0  0  0  0  0  0  0  0  0  0  0  0
   34.1850   34.0760   35.3120 C   0  0  0  0  0  2  0  0  0  0  0  0
   33.1270   34.3840   35.1870 H   0  0  0  0  0  0  0  0  0  0  0  0
  1  4  1  0  0  0  0
  1  3  1  0  0  0  0
  1  2  1  0  0  0  0
  4  8  1  0  0  0  0
  5  6  1  0  0  0  0
  5  4  2  0  0  0  0
  6  7  1  0  0  0  0
  7  9  1  0  0  0  0
  8  7  2  0  0  0  0
  9 14  1  0  0  0  0
 10  9  1  0  0  0  0
 10 11  1  0  0  0  0
 11 19  1  0  0  0  0
 11 12  1  0  0  0  0
 12 13  1  0  0  0  0
 12 20  1  0  0  0  0
 13 21  1  0  0  0  0
 13 22  1  0  0  0  0
 14 23  1  0  0  0  0
 14 13  1  0  0  0  0
 15  5  1  0  0  0  0
 16 10  1  0  0  0  0
 17 10  1  0  0  0  0
 18 11  1  0  0  0  0
 24 14  1  0  0  0  0
 25 26  1  0  0  0  0
 25  1  1  0  0  0  0
 27 25  1  0  0  0  0
 28 33  2  0  0  0  0
 28 29  1  0  0  0  0
 29 30  2  0  0  0  0
 30 31  1  0  0  0  0
 30 36  1  0  0  0  0
 32 25  1  0  0  0  0
 32 31  2  0  0  0  0
 33 32  1  0  0  0  0
 34 28  1  0  0  0  0
 35 29  1  0  0  0  0
 37 36  1  6  0  0  0
 37 46  1  0  0  0  0
 37 45  1  0  0  0  0
 38 39  1  0  0  0  0
 38 37  1  0  0  0  0
 39 44  1  0  0  0  0
 40 39  1  0  0  0  0
 40 42  1  0  0  0  0
 41 40  2  0  0  0  0
 42 43  1  0  0  0  0
 44 42  1  1  0  0  0
 44 45  1  0  0  0  0
 47 46  1  0  0  0  0
M  END
>  <minimizedAffinity>
-5.94670582

$$$$

 OpenBabel03272506103D

 47 51  0  0  1  0  0  0  0  0999 V2000
   36.5490   27.8530   33.8620 C   0  0  0  0  0  0  0  0  0  0  0  0
   35.5580   27.7820   34.3980 H   0  0  0  0  0  0  0  0  0  0  0  0
   37.1120   28.6180   34.4400 H   0  0  0  0  0  0  0  0  0  0  0  0
   37.2440   26.5200   33.9620 C   0  0  0  0  0  0  0  0  0  0  0  0
   37.4790   25.7550   32.7690 C   0  0  0  0  0  0  0  0  0  0  0  0
   38.2960   24.3280   33.4270 S   0  0  0  0  0  0  0  0  0  0  0  0
   38.2250   24.9260   35.2100 C   0  0  0  0  0  0  0  0  0  0  0  0
   37.6720   25.9690   35.0600 N   0  0  0  0  0  0  0  0  0  0  0  0
   38.6980   24.3200   36.4420 N   0  0  0  0  0  0  0  0  0  0  0  0
   39.8550   23.4940   36.3410 C   0  0  0  0  0  0  0  0  0  0  0  0
   40.0320   22.5460   37.4900 C   0  0  0  0  0  0  0  0  0  0  0  0
   38.9400   22.5680   38.4430 N   0  0  0  0  0  0  0  0  0  0  0  0
   38.7230   23.9570   38.8040 C   0  0  0  0  0  0  0  0  0  0  0  0
   37.9730   24.5920   37.6690 C   0  0  0  0  0  0  0  0  0  0  0  0
   37.2120   26.0220   31.7850 H   0  0  0  0  0  0  0  0  0  0  0  0
   39.8710   22.9730   35.3430 H   0  0  0  0  0  0  0  0  0  0  0  0
   40.7450   24.1580   36.3110 H   0  0  0  0  0  0  0  0  0  0  0  0
   40.1380   21.4830   37.1510 H   0  0  0  0  0  0  0  0  0  0  0  0
   40.9660   22.7390   38.0600 H   0  0  0  0  0  0  0  0  0  0  0  0
   39.2870   22.0660   39.2970 H   0  0  0  0  0  0  0  0  0  0  0  0
   39.6910   24.4810   38.9460 H   0  0  0  0  0  0  0  0  0  0  0  0
   38.0860   23.9810   39.7230 H   0  0  0  0  0  0  0  0  0  0  0  0
   37.8800   25.7070   37.7750 H   0  0  0  0  0  0  0  0  0  0  0  0
   36.9410   24.1520   37.6230 H   0  0  0  0  0  0  0  0  0  0  0  0
   36.3760   28.2870   32.4580 C   0  0  0  0  0  0  0  0  0  0  0  0
   35.6390   27.5900   31.9660 H   0  0  0  0  0  0  0  0  0  0  0  0
   37.3070   28.3380   31.8560 H   0  0  0  0  0  0  0  0  0  0  0  0
   35.3490   31.7340   31.5460 C   0  0  0  0  0  0  0  0  0  0  0  0
   34.2760   31.9700   32.4050 C   0  0  0  0  0  0  0  0  0  0  0  0
   33.9050   30.9460   33.2990 C   0  0  0  0  0  0  0  0  0  0  0  0
   34.6210   29.7930   33.2620 N   0  0  0  0  0  0  0  0  0  0  0  0
   35.6510   29.6160   32.4090 C   0  0  0  0  0  0  0  0  0  0  0  0
   36.0110   30.5700   31.5640 N   0  0  0  0  0  0  0  0  0  0  0  0
   35.6160   32.5350   30.8680 H   0  0  0  0  0  0  0  0  0  0  0  0
   33.6940   32.8770   32.4520 H   0  0  0  0  0  0  0  0  0  0  0  0
   32.8120   31.0150   34.2670 C   0  0  0  0  0  2  0  0  0  0  0  0
   31.4990   30.4710   33.8130 C   0  0  1  0  0  0  0  0  0  0  0  0
   31.4160   28.9760   33.7720 C   0  0  0  0  0  2  0  0  0  0  0  0
   30.8650   28.5150   35.0170 N   0  0  0  0  0  0  0  0  0  0  0  0
   30.6220   27.8660   36.2700 C   0  0  0  0  0  0  0  0  0  0  0  0
   31.2570   26.9010   36.7830 O   0  0  0  0  0  0  0  0  0  0  0  0
   29.4640   28.7330   36.6100 C   0  0  0  0  0  3  0  0  0  0  0  0
   28.5730   28.0530   36.7400 H   0  0  0  0  0  0  0  0  0  0  0  0
   29.5620   29.1750   35.1960 C   0  0  1  0  0  3  0  0  0  0  0  0
   30.1380   30.9010   34.9390 S   0  0  0  0  0  0  0  0  0  0  0  0
   31.1530   31.0380   32.4530 C   0  0  0  0  0  2  0  0  0  0  0  0
   30.5870   30.2670   31.8910 H   0  0  0  0  0  0  0  0  0  0  0  0
  1  4  1  0  0  0  0
  1  2  1  0  0  0  0
  1  3  1  0  0  0  0
  4  8  1  0  0  0  0
  5  6  1  0  0  0  0
  5  4  2  0  0  0  0
  6  7  1  0  0  0  0
  7  9  1  0  0  0  0
  8  7  2  0  0  0  0
  9 14  1  0  0  0  0
 10  9  1  0  0  0  0
 10 11  1  0  0  0  0
 11 19  1  0  0  0  0
 11 12  1  0  0  0  0
 12 13  1  0  0  0  0
 12 20  1  0  0  0  0
 13 21  1  0  0  0  0
 13 22  1  0  0  0  0
 14 23  1  0  0  0  0
 14 13  1  0  0  0  0
 15  5  1  0  0  0  0
 16 10  1  0  0  0  0
 17 10  1  0  0  0  0
 18 11  1  0  0  0  0
 24 14  1  0  0  0  0
 25  1  1  0  0  0  0
 26 25  1  0  0  0  0
 27 25  1  0  0  0  0
 28 33  2  0  0  0  0
 28 29  1  0  0  0  0
 29 35  1  0  0  0  0
 29 30  2  0  0  0  0
 30 36  1  0  0  0  0
 31 30  1  0  0  0  0
 32 25  1  0  0  0  0
 32 31  2  0  0  0  0
 33 32  1  0  0  0  0
 34 28  1  0  0  0  0
 37 46  1  6  0  0  0
 37 36  1  0  0  0  0
 37 45  1  0  0  0  0
 38 37  1  0  0  0  0
 38 39  1  0  0  0  0
 39 44  1  0  0  0  0
 39 40  1  0  0  0  0
 40 42  1  0  0  0  0
 40 41  2  0  0  0  0
 42 43  1  0  0  0  0
 44 45  1  1  0  0  0
 44 42  1  0  0  0  0
 47 46  1  0  0  0  0
M  END
>  <minimizedAffinity>
-5.93752623

$$$$

 OpenBabel03272506103D

 47 51  0  0  1  0  0  0  0  0999 V2000
   37.5710   26.7040   34.9180 C   0  0  0  0  0  0  0  0  0  0  0  0
   36.9260   26.2130   35.7030 H   0  0  0  0  0  0  0  0  0  0  0  0
   37.8040   25.8800   34.2090 H   0  0  0  0  0  0  0  0  0  0  0  0
   36.7550   27.7630   34.2220 C   0  0  0  0  0  0  0  0  0  0  0  0
   36.4370   27.6070   32.8300 C   0  0  0  0  0  0  0  0  0  0  0  0
   35.4990   29.0770   32.5220 S   0  0  0  0  0  0  0  0  0  0  0  0
   35.6460   29.7180   34.2860 C   0  0  0  0  0  0  0  0  0  0  0  0
   36.2920   28.8460   34.7730 N   0  0  0  0  0  0  0  0  0  0  0  0
   35.1330   30.9240   34.9120 N   0  0  0  0  0  0  0  0  0  0  0  0
   33.9030   31.4320   34.4010 C   0  0  0  0  0  0  0  0  0  0  0  0
   33.6520   32.8740   34.7310 C   0  0  0  0  0  0  0  0  0  0  0  0
   34.7530   33.5190   35.4200 N   0  0  0  0  0  0  0  0  0  0  0  0
   35.1020   32.6690   36.5440 C   0  0  0  0  0  0  0  0  0  0  0  0
   35.8940   31.5180   35.9940 C   0  0  0  0  0  0  0  0  0  0  0  0
   36.7160   26.8060   32.2040 H   0  0  0  0  0  0  0  0  0  0  0  0
   33.8270   31.2200   33.2980 H   0  0  0  0  0  0  0  0  0  0  0  0
   33.0780   30.8350   34.8460 H   0  0  0  0  0  0  0  0  0  0  0  0
   33.4440   33.4880   33.8170 H   0  0  0  0  0  0  0  0  0  0  0  0
   32.7480   33.0140   35.3600 H   0  0  0  0  0  0  0  0  0  0  0  0
   34.3700   34.4170   35.8040 H   0  0  0  0  0  0  0  0  0  0  0  0
   34.1890   32.2830   37.0430 H   0  0  0  0  0  0  0  0  0  0  0  0
   35.7490   33.2620   37.2380 H   0  0  0  0  0  0  0  0  0  0  0  0
   36.0920   30.7180   36.7570 H   0  0  0  0  0  0  0  0  0  0  0  0
   36.8800   31.9020   35.6180 H   0  0  0  0  0  0  0  0  0  0  0  0
   38.8140   27.2530   35.5020 C   0  0  0  0  0  0  0  0  0  0  0  0
   38.9340   26.8210   36.5370 H   0  0  0  0  0  0  0  0  0  0  0  0
   38.8740   28.3600   35.5460 H   0  0  0  0  0  0  0  0  0  0  0  0
   41.4440   26.6240   32.9610 C   0  0  0  0  0  0  0  0  0  0  0  0
   42.2120   25.6240   33.5580 C   0  0  0  0  0  0  0  0  0  0  0  0
   41.8270   25.1660   34.8330 C   0  0  0  0  0  0  0  0  0  0  0  0
   40.7290   25.7310   35.3960 N   0  0  0  0  0  0  0  0  0  0  0  0
   40.0210   26.6960   34.7750 C   0  0  0  0  0  0  0  0  0  0  0  0
   40.3710   27.1370   33.5770 N   0  0  0  0  0  0  0  0  0  0  0  0
   41.7590   26.9610   31.9810 H   0  0  0  0  0  0  0  0  0  0  0  0
   43.0880   25.1610   33.1290 H   0  0  0  0  0  0  0  0  0  0  0  0
   42.5090   24.1300   35.6070 C   0  0  0  0  0  2  0  0  0  0  0  0
   41.8190   22.8100   35.6880 C   0  0  1  0  0  0  0  0  0  0  0  0
   41.2290   22.4880   37.0250 C   0  0  0  0  0  2  0  0  0  0  0  0
   39.8510   22.8990   37.0290 N   0  0  0  0  0  0  0  0  0  0  0  0
   38.5840   23.5010   37.3160 C   0  0  0  0  0  0  0  0  0  0  0  0
   38.2470   24.1510   38.3470 O   0  0  0  0  0  0  0  0  0  0  0  0
   37.9720   23.0650   36.0350 C   0  0  0  0  0  3  0  0  0  0  0  0
   37.0800   22.4270   36.2980 H   0  0  0  0  0  0  0  0  0  0  0  0
   39.1830   22.2170   35.9080 C   0  0  1  0  0  3  0  0  0  0  0  0
   40.3690   22.7130   34.5940 S   0  0  0  0  0  0  0  0  0  0  0  0
   42.7700   21.7090   35.2720 C   0  0  0  0  0  2  0  0  0  0  0  0
   42.5240   20.8000   35.8570 H   0  0  0  0  0  0  0  0  0  0  0  0
  1 25  1  0  0  0  0
  1  2  1  0  0  0  0
  3  1  1  0  0  0  0
  4  8  1  0  0  0  0
  4  1  1  0  0  0  0
  5  4  2  0  0  0  0
  6  5  1  0  0  0  0
  6  7  1  0  0  0  0
  7  8  2  0  0  0  0
  7  9  1  0  0  0  0
  9 14  1  0  0  0  0
 10 11  1  0  0  0  0
 10 17  1  0  0  0  0
 10  9  1  0  0  0  0
 11 19  1  0  0  0  0
 11 12  1  0  0  0  0
 12 20  1  0  0  0  0
 12 13  1  0  0  0  0
 13 21  1  0  0  0  0
 13 22  1  0  0  0  0
 14 13  1  0  0  0  0
 14 23  1  0  0  0  0
 15  5  1  0  0  0  0
 16 10  1  0  0  0  0
 18 11  1  0  0  0  0
 24 14  1  0  0  0  0
 25 27  1  0  0  0  0
 25 26  1  0  0  0  0
 28 29  2  0  0  0  0
 28 33  1  0  0  0  0
 29 30  1  0  0  0  0
 30 31  2  0  0  0  0
 30 36  1  0  0  0  0
 32 31  1  0  0  0  0
 32 25  1  0  0  0  0
 33 32  2  0  0  0  0
 34 28  1  0  0  0  0
 35 29  1  0  0  0  0
 36 37  1  0  0  0  0
 37 46  1  6  0  0  0
 37 38  1  0  0  0  0
 38 39  1  0  0  0  0
 39 40  1  0  0  0  0
 40 41  2  0  0  0  0
 42 43  1  0  0  0  0
 42 40  1  0  0  0  0
 44 45  1  6  0  0  0
 44 42  1  0  0  0  0
 44 39  1  0  0  0  0
 45 37  1  0  0  0  0
 46 47  1  0  0  0  0
M  END
>  <minimizedAffinity>
-5.89730406

$$$$

 OpenBabel03272506103D

 47 51  0  0  1  0  0  0  0  0999 V2000
   36.6280   26.0740   31.2590 C   0  0  0  0  0  0  0  0  0  0  0  0
   36.0110   26.3880   30.3670 H   0  0  0  0  0  0  0  0  0  0  0  0
   35.8850   25.9910   32.0820 H   0  0  0  0  0  0  0  0  0  0  0  0
   37.2310   24.7240   30.9730 C   0  0  0  0  0  0  0  0  0  0  0  0
   38.4690   24.6430   30.2480 C   0  0  0  0  0  0  0  0  0  0  0  0
   38.7230   22.8910   30.1890 S   0  0  0  0  0  0  0  0  0  0  0  0
   37.1490   22.4820   31.1370 C   0  0  0  0  0  0  0  0  0  0  0  0
   36.7280   23.5780   31.3290 N   0  0  0  0  0  0  0  0  0  0  0  0
   36.5780   21.2090   31.5400 N   0  0  0  0  0  0  0  0  0  0  0  0
   37.5000   20.1580   31.8190 C   0  0  0  0  0  0  0  0  0  0  0  0
   36.8960   18.7860   31.7730 C   0  0  0  0  0  0  0  0  0  0  0  0
   35.5080   18.7690   31.3510 N   0  0  0  0  0  0  0  0  0  0  0  0
   34.8060   19.7360   32.1740 C   0  0  0  0  0  0  0  0  0  0  0  0
   35.1350   21.0960   31.6280 C   0  0  0  0  0  0  0  0  0  0  0  0
   39.0350   25.4500   29.8730 H   0  0  0  0  0  0  0  0  0  0  0  0
   38.4060   20.2550   31.1580 H   0  0  0  0  0  0  0  0  0  0  0  0
   37.8970   20.3180   32.8440 H   0  0  0  0  0  0  0  0  0  0  0  0
   37.4490   18.1020   31.0790 H   0  0  0  0  0  0  0  0  0  0  0  0
   36.9440   18.2680   32.7540 H   0  0  0  0  0  0  0  0  0  0  0  0
   35.1420   17.8160   31.5940 H   0  0  0  0  0  0  0  0  0  0  0  0
   35.1420   19.6720   33.2290 H   0  0  0  0  0  0  0  0  0  0  0  0
   33.7090   19.5520   32.0640 H   0  0  0  0  0  0  0  0  0  0  0  0
   34.7620   21.9320   32.2800 H   0  0  0  0  0  0  0  0  0  0  0  0
   34.6680   21.2030   30.6120 H   0  0  0  0  0  0  0  0  0  0  0  0
   37.6560   27.0850   31.5900 C   0  0  0  0  0  0  0  0  0  0  0  0
   37.1690   28.1020   31.5590 H   0  0  0  0  0  0  0  0  0  0  0  0
   38.5580   27.0790   30.9430 H   0  0  0  0  0  0  0  0  0  0  0  0
   37.6780   27.3050   35.2940 C   0  0  0  0  0  0  0  0  0  0  0  0
   38.8810   26.6840   35.6300 C   0  0  0  0  0  0  0  0  0  0  0  0
   39.6850   26.1890   34.5840 C   0  0  0  0  0  0  0  0  0  0  0  0
   39.2320   26.3520   33.3150 N   0  0  0  0  0  0  0  0  0  0  0  0
   38.0590   26.9610   33.0450 C   0  0  0  0  0  0  0  0  0  0  0  0
   37.2930   27.4310   34.0180 N   0  0  0  0  0  0  0  0  0  0  0  0
   37.0760   27.6780   36.1140 H   0  0  0  0  0  0  0  0  0  0  0  0
   39.2600   26.5440   36.6300 H   0  0  0  0  0  0  0  0  0  0  0  0
   40.9700   25.5120   34.7460 C   0  0  0  0  0  2  0  0  0  0  0  0
   40.9210   24.0240   34.8330 C   0  0  1  0  0  0  0  0  0  0  0  0
   40.9780   23.4720   36.2230 C   0  0  0  0  0  2  0  0  0  0  0  0
   39.6330   23.2680   36.6900 N   0  0  0  0  0  0  0  0  0  0  0  0
   38.4020   23.2820   37.4200 C   0  0  0  0  0  0  0  0  0  0  0  0
   38.1940   23.7210   38.5880 O   0  0  0  0  0  0  0  0  0  0  0  0
   37.6280   22.6430   36.3250 C   0  0  0  0  0  3  0  0  0  0  0  0
   37.1980   21.6870   36.7430 H   0  0  0  0  0  0  0  0  0  0  0  0
   38.9610   22.3810   35.7280 C   0  0  1  0  0  3  0  0  0  0  0  0
   39.3560   23.3400   34.2110 S   0  0  0  0  0  0  0  0  0  0  0  0
   42.0350   23.4260   34.0010 C   0  0  0  0  0  2  0  0  0  0  0  0
   42.3720   22.4920   34.4950 H   0  0  0  0  0  0  0  0  0  0  0  0
  1 25  1  0  0  0  0
  1  3  1  0  0  0  0
  2  1  1  0  0  0  0
  4  1  1  0  0  0  0
  4  8  1  0  0  0  0
  5  4  2  0  0  0  0
  6  5  1  0  0  0  0
  6  7  1  0  0  0  0
  7  8  2  0  0  0  0
  7  9  1  0  0  0  0
  9 14  1  0  0  0  0
  9 10  1  0  0  0  0
 10 17  1  0  0  0  0
 11 10  1  0  0  0  0
 11 19  1  0  0  0  0
 12 20  1  0  0  0  0
 12 11  1  0  0  0  0
 12 13  1  0  0  0  0
 13 21  1  0  0  0  0
 14 13  1  0  0  0  0
 14 23  1  0  0  0  0
 15  5  1  0  0  0  0
 16 10  1  0  0  0  0
 18 11  1  0  0  0  0
 22 13  1  0  0  0  0
 24 14  1  0  0  0  0
 25 32  1  0  0  0  0
 26 25  1  0  0  0  0
 27 25  1  0  0  0  0
 28 29  1  0  0  0  0
 28 34  1  0  0  0  0
 29 35  1  0  0  0  0
 30 36  1  0  0  0  0
 30 29  2  0  0  0  0
 31 30  1  0  0  0  0
 32 31  2  0  0  0  0
 32 33  1  0  0  0  0
 33 28  2  0  0  0  0
 36 37  1  0  0  0  0
 37 46  1  6  0  0  0
 37 38  1  0  0  0  0
 38 39  1  0  0  0  0
 39 40  1  0  0  0  0
 40 41  2  0  0  0  0
 42 43  1  0  0  0  0
 42 40  1  0  0  0  0
 44 45  1  6  0  0  0
 44 42  1  0  0  0  0
 44 39  1  0  0  0  0
 45 37  1  0  0  0  0
 46 47  1  0  0  0  0
M  END
>  <minimizedAffinity>
-5.85080481

$$$$
