
     RDKit          3D

 48 51  0  0  0  0  0  0  0  0999 V2000
   32.6746   30.2964   46.5833 Cl  0  0  0  0  0  0  0  0  0  0  0  0
   32.6291   28.5391   46.7296 C   0  0  0  0  0  0  0  0  0  0  0  0
   33.5132   27.8989   47.5888 C   0  0  0  0  0  0  0  0  0  0  0  0
   33.5223   26.5048   47.7463 C   0  0  0  0  0  0  0  0  0  0  0  0
   32.5867   25.8070   46.9842 C   0  0  0  0  0  0  0  0  0  0  0  0
   31.7061   26.4166   46.1314 C   0  0  0  0  0  0  0  0  0  0  0  0
   30.5877   25.4143   45.2376 Cl  0  0  0  0  0  0  0  0  0  0  0  0
   31.7320   27.8000   46.0063 C   0  0  0  0  0  0  0  0  0  0  0  0
   35.3943   29.2812   50.4582 C   0  0  0  0  0  0  0  0  0  0  0  0
   36.3305   30.1189   49.7873 C   0  0  0  0  0  0  0  0  0  0  0  0
   36.2995   30.1925   48.3917 C   0  0  0  0  0  0  0  0  0  0  0  0
   35.3484   29.4350   47.7655 N   0  0  0  0  0  0  0  0  0  0  0  0
   34.4911   28.6676   48.3825 C   0  0  0  0  0  0  0  0  0  0  0  0
   34.4963   28.5760   49.7263 N   0  0  0  0  0  0  0  0  0  0  0  0
   37.3115   30.8863   50.6201 C   0  0  0  0  0  0  0  0  0  0  0  0
   38.6033   30.7527   50.1230 F   0  0  0  0  0  0  0  0  0  0  0  0
   36.9772   32.2254   50.5314 F   0  0  0  0  0  0  0  0  0  0  0  0
   37.2814   30.5347   51.9456 F   0  0  0  0  0  0  0  0  0  0  0  0
   37.2498   31.0509   47.6938 C   0  0  0  0  0  0  0  0  0  0  0  0
   30.7880   28.4799   45.0901 C   0  0  0  0  0  0  0  0  0  0  0  0
   29.8374   27.5620   44.6157 F   0  0  0  0  0  0  0  0  0  0  0  0
   31.4213   29.0720   44.0455 F   0  0  0  0  0  0  0  0  0  0  0  0
   30.0893   29.4442   45.7758 F   0  0  0  0  0  0  0  0  0  0  0  0
   34.2136   26.0105   48.4167 H   0  0  0  0  0  0  0  0  0  0  0  0
   32.5825   24.7308   47.0954 H   0  0  0  0  0  0  0  0  0  0  0  0
   35.4044   29.2135   51.5382 H   0  0  0  0  0  0  0  0  0  0  0  0
   37.0505   32.1030   48.0059 H   0  0  0  0  0  0  0  0  0  0  0  0
   38.3154   30.7743   47.8484 H   0  0  0  0  0  0  0  0  0  0  0  0
   38.6278   29.4076   41.7098 C   0  0  0  0  0  0  0  0  0  0  0  0
   38.1436   30.3725   41.4768 H   0  0  0  0  0  0  0  0  0  0  0  0
   38.2322   29.0475   43.1183 C   0  0  0  0  0  0  0  0  0  0  0  0
   38.5994   27.6325   43.5062 C   0  0  0  0  0  0  0  0  0  0  0  0
   38.6382   27.6235   44.6325 H   0  0  0  0  0  0  0  0  0  0  0  0
   36.8104   29.2805   43.4181 C   0  0  0  0  0  0  0  0  0  0  0  0
   36.5877   29.6161   44.7637 N   0  0  0  0  0  0  0  0  0  0  0  0
   35.9013   29.9242   45.9669 C   0  0  0  0  0  0  0  0  0  0  0  0
   34.8173   29.4568   46.4519 O   0  0  0  0  0  0  0  0  0  0  0  0
   37.0250   30.9085   46.2055 C   0  0  2  0  0  0  0  0  0  0  0  0
   37.7802   29.8058   45.5777 C   0  0  2  0  0  0  0  0  0  0  0  0
   39.0114   30.2122   44.3159 S   0  0  0  0  0  0  0  0  0  0  0  0
   39.7204   29.4631   41.6322 H   0  0  0  0  0  0  0  0  0  0  0  0
   38.2455   28.6153   41.0474 H   0  0  0  0  0  0  0  0  0  0  0  0
   39.6023   27.3231   43.1452 H   0  0  0  0  0  0  0  0  0  0  0  0
   37.8103   26.8873   43.2474 H   0  0  0  0  0  0  0  0  0  0  0  0
   36.4255   30.0117   42.6699 H   0  0  0  0  0  0  0  0  0  0  0  0
   36.2377   28.3346   43.1787 H   0  0  0  0  0  0  0  0  0  0  0  0
   36.9193   31.8584   45.6526 H   0  0  0  0  0  0  0  0  0  0  0  0
   38.0277   29.0108   46.2807 H   0  0  0  0  0  0  0  0  0  0  0  0
  1  2  1  0
  2  3  2  0
  3  4  1  0
  3 13  1  0
  5  4  2  0
  6  5  1  0
  7  6  1  0
  8  6  2  0
  8  2  1  0
 10  9  2  0
 10 15  1  0
 11 10  1  0
 12 13  1  0
 12 11  2  0
 13 14  2  0
 14  9  1  0
 15 18  1  0
 16 15  1  0
 17 15  1  0
 19 11  1  0
 20 23  1  0
 20  8  1  0
 21 20  1  0
 22 20  1  0
  4 24  1  0
  5 25  1  0
  9 26  1  0
 19 27  1  0
 19 28  1  0
 29 30  1  0
 29 31  1  0
 31 32  1  0
 32 33  1  0
 31 34  1  0
 34 35  1  0
 35 36  1  0
 36 37  2  0
 36 38  1  0
 38 39  1  0
 39 40  1  0
 40 31  1  0
 39 35  1  0
 29 41  1  0
 29 42  1  0
 32 43  1  0
 32 44  1  0
 34 45  1  0
 34 46  1  0
 38 47  1  6
 39 48  1  1
 19 38  1  0
M  ISO  7  24  14  25  14  26  14  27   8  28   8  30   8  33   8
M  END
>  <DihAtoms>  (1) 
10,18,37,35

>  <DihDeg>  (1) 
-60.24930516474708

$$$$
