
     RDKit          3D

 46 49  0  0  0  0  0  0  0  0999 V2000
   38.1131   31.8876   47.4142 C   0  0  0  0  0  0  0  0  0  0  0  0
   38.5822   32.7859   48.3271 C   0  0  0  0  0  0  0  0  0  0  0  0
   38.0830   32.8621   49.6324 C   0  0  0  0  0  0  0  0  0  0  0  0
   37.0288   31.9366   49.9957 C   0  0  0  0  0  0  0  0  0  0  0  0
   36.6078   31.0690   49.0422 C   0  0  0  0  0  0  0  0  0  0  0  0
   37.0944   31.0065   47.7886 C   0  0  0  0  0  0  0  0  0  0  0  0
   40.0031   31.2606   45.9864 C   0  0  0  0  0  0  0  0  0  0  0  0
   38.7465   31.9154   46.1158 C   0  0  0  0  0  0  0  0  0  0  0  0
   38.2860   32.4942   44.9604 C   0  0  0  0  0  0  0  0  0  0  0  0
   38.9962   32.4236   43.8229 N   0  0  0  0  0  0  0  0  0  0  0  0
   40.1551   31.8147   43.7208 C   0  0  0  0  0  0  0  0  0  0  0  0
   40.6513   31.2369   44.8035 N   0  0  0  0  0  0  0  0  0  0  0  0
   35.1570   29.9735   46.9435 C   0  0  0  0  0  0  0  0  0  0  0  0
   34.5204   30.6391   47.8526 O   0  0  0  0  0  0  0  0  0  0  0  0
   36.5975   30.1161   46.8715 N   0  0  0  0  0  0  0  0  0  0  0  0
   34.4502   29.1658   46.0943 O   0  0  0  0  0  0  0  0  0  0  0  0
   33.3656   29.5718   45.3268 C   0  0  0  0  0  0  0  0  0  0  0  0
   33.3706   30.7116   44.6693 O   0  0  0  0  0  0  0  0  0  0  0  0
   39.3836   33.5015   48.0799 H   0  0  0  0  0  0  0  0  0  0  0  0
   38.5068   33.6080   50.3100 H   0  0  0  0  0  0  0  0  0  0  0  0
   36.7518   32.1097   51.0093 H   0  0  0  0  0  0  0  0  0  0  0  0
   35.8560   30.4724   49.5344 H   0  0  0  0  0  0  0  0  0  0  0  0
   40.4540   30.7692   46.8513 H   0  0  0  0  0  0  0  0  0  0  0  0
   37.3374   32.9890   45.0576 H   0  0  0  0  0  0  0  0  0  0  0  0
   40.6779   31.7931   42.7751 H   0  0  0  0  0  0  0  0  0  0  0  0
   37.1720   29.5968   46.2001 H   0  0  0  0  0  0  0  0  0  0  0  0
   31.1623   33.0111   43.6862 C   0  0  0  0  0  0  0  0  0  0  0  0
   32.2877   32.9471   43.7112 H   0  0  0  0  0  0  0  0  0  0  0  0
   30.6592   31.7709   43.0362 C   0  0  0  0  0  0  0  0  0  0  0  0
   30.0129   31.9963   41.6868 C   0  0  0  0  0  0  0  0  0  0  0  0
   29.1921   32.7213   41.8079 H   0  0  0  0  0  0  0  0  0  0  0  0
   29.6734   30.9831   43.8708 C   0  0  0  0  0  0  0  0  0  0  0  0
   30.4303   30.1314   44.7612 N   0  0  0  0  0  0  0  0  0  0  0  0
   31.0009   29.4682   45.8827 C   0  0  0  0  0  0  0  0  0  0  0  0
   30.7467   29.3900   47.1015 O   0  0  0  0  0  0  0  0  0  0  0  0
   32.0936   28.8354   45.0987 C   0  0  1  0  0  0  0  0  0  0  0  0
   31.2806   29.2608   43.9384 C   0  0  2  0  0  0  0  0  0  0  0  0
   31.9908   30.5198   42.8399 S   0  0  0  0  0  0  0  0  0  0  0  0
   30.8984   33.8715   43.0048 H   0  0  0  0  0  0  0  0  0  0  0  0
   30.8350   33.1813   44.7228 H   0  0  0  0  0  0  0  0  0  0  0  0
   29.5475   31.0116   41.4071 H   0  0  0  0  0  0  0  0  0  0  0  0
   30.7285   32.2541   40.8868 H   0  0  0  0  0  0  0  0  0  0  0  0
   29.1022   31.7044   44.4872 H   0  0  0  0  0  0  0  0  0  0  0  0
   28.9542   30.4103   43.2562 H   0  0  0  0  0  0  0  0  0  0  0  0
   32.1699   27.7369   45.2162 H   0  0  0  0  0  0  0  0  0  0  0  0
   30.7242   28.4598   43.4173 H   0  0  0  0  0  0  0  0  0  0  0  0
  1  6  1  0
  1  2  2  0
  2  3  1  0
  3  4  2  0
  5  4  1  0
  6  5  2  0
  7  8  2  0
  8  1  1  0
  9  8  1  0
 10  9  2  0
 11 10  1  0
 11 12  2  0
 12  7  1  0
 13 14  2  0
 15 13  1  0
 15  6  1  0
 16 13  1  0
 17 16  1  0
 18 17  2  0
  2 19  1  0
  3 20  1  0
  4 21  1  0
  5 22  1  0
  7 23  1  0
  9 24  1  0
 11 25  1  0
 15 26  1  0
 27 28  1  0
 27 29  1  0
 29 30  1  0
 30 31  1  0
 29 32  1  0
 32 33  1  0
 33 34  1  0
 34 35  2  0
 34 36  1  0
 36 37  1  0
 37 38  1  0
 38 29  1  0
 37 33  1  0
 27 39  1  0
 27 40  1  0
 30 41  1  0
 30 42  1  0
 32 43  1  0
 32 44  1  0
 36 45  1  1
 37 46  1  6
 17 36  1  0
M  ISO  8  19  14  20  14  21  14  22  14  23  14  24  14  25  14  28   8
M  ISO  1  31   8
M  END
>  <DihAtoms>  (1) 
15,16,35,33

>  <DihDeg>  (1) 
60.68440680902279

$$$$
