
     RDKit          3D

 55 59  0  0  0  0  0  0  0  0999 V2000
   37.6823   31.0380   47.9341 C   0  0  0  0  0  0  0  0  0  0  0  0
   36.9928   30.8010   46.7601 C   0  0  0  0  0  0  0  0  0  0  0  0
   37.6792   31.4667   45.7335 C   0  0  0  0  0  0  0  0  0  0  0  0
   38.7218   32.0605   46.3116 N   0  0  0  0  0  0  0  0  0  0  0  0
   38.7194   31.8013   47.6250 N   0  0  0  0  0  0  0  0  0  0  0  0
   37.4116   30.1238   51.5701 C   0  0  0  0  0  0  0  0  0  0  0  0
   37.9290   30.6930   50.4033 C   0  0  0  0  0  0  0  0  0  0  0  0
   37.2647   30.5059   49.2036 C   0  0  0  0  0  0  0  0  0  0  0  0
   36.1265   29.7564   49.2752 N   0  0  0  0  0  0  0  0  0  0  0  0
   35.6441   29.2161   50.4113 C   0  0  0  0  0  0  0  0  0  0  0  0
   36.3004   29.4105   51.5493 N   0  0  0  0  0  0  0  0  0  0  0  0
   39.6854   32.8709   45.5893 C   0  0  0  0  0  0  0  0  0  0  0  0
   40.6178   32.0239   44.8547 C   0  0  0  0  0  0  0  0  0  0  0  0
   40.3845   31.7828   43.4903 N   0  0  0  0  0  0  0  0  0  0  0  0
   39.5324   32.6856   42.8255 C   0  0  0  0  0  0  0  0  0  0  0  0
   38.2594   32.1407   42.2880 C   0  0  0  0  0  0  0  0  0  0  0  0
   38.4175   30.8771   41.7068 O   0  0  0  0  0  0  0  0  0  0  0  0
   38.9840   30.0203   42.5844 C   0  0  0  0  0  0  0  0  0  0  0  0
   40.3620   30.4805   43.0050 C   0  0  1  0  0  0  0  0  0  0  0  0
   36.0703   30.1951   46.6641 H   0  0  0  0  0  0  0  0  0  0  0  0
   37.2729   31.3727   44.7947 H   0  0  0  0  0  0  0  0  0  0  0  0
   38.0099   30.3312   52.4577 H   0  0  0  0  0  0  0  0  0  0  0  0
   38.8294   31.2885   50.3323 H   0  0  0  0  0  0  0  0  0  0  0  0
   34.7284   28.6482   50.2950 H   0  0  0  0  0  0  0  0  0  0  0  0
   39.1015   33.6528   45.1242 H   0  0  0  0  0  0  0  0  0  0  0  0
   40.2773   33.4347   46.3778 H   0  0  0  0  0  0  0  0  0  0  0  0
   41.6629   32.3658   45.0039 H   0  0  0  0  0  0  0  0  0  0  0  0
   40.6206   31.0019   45.3476 H   0  0  0  0  0  0  0  0  0  0  0  0
   40.1872   32.8478   41.8989 H   0  0  0  0  0  0  0  0  0  0  0  0
   39.4392   33.7034   43.1454 H   0  0  0  0  0  0  0  0  0  0  0  0
   38.0972   32.7442   41.3110 H   0  0  0  0  0  0  0  0  0  0  0  0
   37.3239   32.3734   42.7458 H   0  0  0  0  0  0  0  0  0  0  0  0
   38.3685   29.5821   43.3638 H   0  0  0  0  0  0  0  0  0  0  0  0
   39.2214   29.1209   41.9637 H   0  0  0  0  0  0  0  0  0  0  0  0
   40.5773   29.8231   43.8844 H   0  0  0  0  0  0  0  0  0  0  0  0
   41.3642   30.1737   41.9193 C   0  0  0  0  0  0  0  0  0  0  0  0
   40.8704   30.4162   40.5578 C   0  0  1  0  0  0  0  0  0  0  0  0
   39.6984   29.6419   40.0797 C   0  0  0  0  0  0  0  0  0  0  0  0
   39.3261   28.8931   40.7838 H   0  0  0  0  0  0  0  0  0  0  0  0
   40.5517   31.9207   40.4071 C   0  0  0  0  0  0  0  0  0  0  0  0
   40.4286   32.1353   38.9771 N   0  0  0  0  0  0  0  0  0  0  0  0
   40.0292   32.3842   37.6160 C   0  0  0  0  0  0  0  0  0  0  0  0
   38.9674   32.8368   37.1159 O   0  0  0  0  0  0  0  0  0  0  0  0
   41.3542   31.8956   37.1024 C   0  0  1  0  0  0  0  0  0  0  0  0
   41.2994   30.9193   36.6246 H   0  0  0  0  0  0  0  0  0  0  0  0
   41.8141   31.9790   38.5204 C   0  0  2  0  0  0  0  0  0  0  0  0
   42.2304   30.3943   39.3190 S   0  0  0  0  0  0  0  0  0  0  0  0
   42.2496   30.8528   42.0771 H   0  0  0  0  0  0  0  0  0  0  0  0
   41.7394   29.1195   42.0032 H   0  0  0  0  0  0  0  0  0  0  0  0
   38.8656   30.3380   39.8123 H   0  0  0  0  0  0  0  0  0  0  0  0
   39.9317   29.1222   39.0991 H   0  0  0  0  0  0  0  0  0  0  0  0
   41.4502   32.4504   40.7418 H   0  0  0  0  0  0  0  0  0  0  0  0
   39.6267   32.2017   40.9246 H   0  0  0  0  0  0  0  0  0  0  0  0
   41.8067   32.6622   36.4088 H   0  0  0  0  0  0  0  0  0  0  0  0
   42.4686   32.8286   38.7782 H   0  0  0  0  0  0  0  0  0  0  0  0
  1  8  1  0
  2  1  1  0
  3  4  1  0
  3  2  2  0
  4  5  1  0
  5  1  2  0
  7  6  2  0
  8  9  2  0
  8  7  1  0
  9 10  1  0
 10 11  2  0
 11  6  1  0
 12  4  1  0
 13 12  1  0
 14 13  1  0
 15 14  1  0
 16 15  1  0
 17 16  1  0
 17 18  1  0
 18 19  1  0
 19 14  1  0
  2 20  1  0
  3 21  1  0
  6 22  1  0
  7 23  1  0
 10 24  1  0
 12 25  1  0
 12 26  1  0
 13 27  1  0
 13 28  1  0
 15 29  1  0
 15 30  1  0
 16 31  1  0
 16 32  1  0
 18 33  1  0
 18 34  1  0
 19 35  1  1
 37 36  1  1
 37 38  1  0
 38 39  1  0
 37 40  1  0
 40 41  1  0
 41 42  1  0
 42 43  2  0
 42 44  1  0
 44 45  1  6
 44 46  1  0
 46 47  1  0
 47 37  1  0
 46 41  1  0
 36 48  1  0
 36 49  1  0
 38 50  1  0
 38 51  1  0
 40 52  1  0
 40 53  1  0
 44 54  1  0
 46 55  1  6
 19 36  1  0
M  ISO  8  20  14  21  14  22  14  23  14  24  14  25   8  26   8  27   8
M  ISO  8  28   8  29  13  30  13  31  13  32  13  33  13  34  13  35  13
M  ISO  2  39   8  45  15
M  END
>  <DihAtoms>  (1) 
17,18,35,36

>  <DihDeg>  (1) 
-169.8419988726837

$$$$
