
 OpenBabel03262521533D

 42 45  0  0  1  0  0  0  0  0999 V2000
   33.0590   27.0680   47.7860 C   0  0  1  0  0  0  0  0  0  0  0  0
   33.4110   28.4300   48.3480 C   0  0  2  0  0  0  0  0  0  0  0  0
   33.7050   29.3310   47.1980 C   0  0  0  0  0  0  0  0  0  0  0  0
   33.5940   28.7100   45.9710 O   0  0  0  0  0  0  0  0  0  0  0  0
   32.3160   28.1880   45.7620 C   0  0  0  0  0  0  0  0  0  0  0  0
   31.8780   27.2800   46.8590 C   0  0  2  0  0  0  0  0  0  0  0  0
   32.7320   26.3800   48.5800 H   0  0  0  0  0  0  0  0  0  0  0  0
   32.4760   28.8090   48.8390 H   0  0  0  0  0  0  0  0  0  0  0  0
   34.7200   29.7860   47.2450 H   0  0  0  0  0  0  0  0  0  0  0  0
   33.0110   30.2190   47.1510 H   0  0  0  0  0  0  0  0  0  0  0  0
   32.4100   27.5650   44.8290 H   0  0  0  0  0  0  0  0  0  0  0  0
   31.6090   28.9880   45.4970 H   0  0  0  0  0  0  0  0  0  0  0  0
   31.4760   26.3280   46.4900 H   0  0  0  0  0  0  0  0  0  0  0  0
   34.0940   26.5510   47.0160 O   0  0  0  0  0  0  0  0  0  0  0  0
   34.1670   25.5970   47.2020 H   0  0  0  0  0  0  0  0  0  0  0  0
   34.8130   28.3410   49.4950 S   0  0  0  0  0  0  0  0  0  0  0  0
   35.2140   29.9870   50.1210 C   0  0  0  0  0  0  0  0  0  0  0  0
   35.0000   30.7030   49.2780 H   0  0  0  0  0  0  0  0  0  0  0  0
   34.5070   30.2500   50.9130 H   0  0  0  0  0  0  0  0  0  0  0  0
   36.9310   30.2010   50.5590 S   0  0  0  0  0  0  0  0  0  0  0  0
   37.7720   31.0180   49.2050 C   0  0  0  0  0  0  0  0  0  0  0  0
   38.2140   32.2930   49.4930 C   0  0  0  0  0  0  0  0  0  0  0  0
   38.8850   33.0050   48.4870 C   0  0  0  0  0  0  0  0  0  0  0  0
   39.0580   32.3870   47.2800 N   0  0  0  0  0  0  0  0  0  0  0  0
   38.5990   31.1350   47.0670 C   0  0  0  0  0  0  0  0  0  0  0  0
   37.9710   30.4610   48.0010 N   0  0  0  0  0  0  0  0  0  0  0  0
   38.0760   32.7840   50.4550 H   0  0  0  0  0  0  0  0  0  0  0  0
   39.2420   34.0080   48.6890 H   0  0  0  0  0  0  0  0  0  0  0  0
   38.7410   30.6500   46.1030 H   0  0  0  0  0  0  0  0  0  0  0  0
   30.8910   27.9100   47.6460 O   0  0  0  0  0  0  0  0  0  0  0  0
   29.7560   27.1490   47.7540 C   0  0  0  0  0  2  0  0  0  0  0  0
   28.7800   27.8920   48.6740 C   0  0  1  0  0  0  0  0  0  0  0  0
   28.4250   29.1770   47.9800 C   0  0  0  0  0  2  0  0  0  0  0  0
   27.0840   29.5220   48.3310 N   0  0  0  0  0  0  0  0  0  0  0  0
   25.9250   30.2420   48.7930 C   0  0  0  0  0  0  0  0  0  0  0  0
   25.6680   31.4750   48.8970 O   0  0  0  0  0  0  0  0  0  0  0  0
   25.1930   28.9670   49.0810 C   0  0  0  0  0  3  0  0  0  0  0  0
   25.3680   28.5930   50.1090 H   0  0  0  0  0  0  0  0  0  0  0  0
   26.1680   28.4240   48.0670 C   0  0  2  0  0  3  0  0  0  0  0  0
   27.1750   27.0340   48.6740 S   0  0  0  0  0  0  0  0  0  0  0  0
   29.3500   28.0510   50.0400 C   0  0  0  0  0  2  0  0  0  0  0  0
   30.0570   27.2020   50.1990 H   0  0  0  0  0  0  0  0  0  0  0  0
  1  2  1  0  0  0  0
  1  7  1  1  0  0  0
  2  8  1  1  0  0  0
  2 16  1  0  0  0  0
  3  9  1  0  0  0  0
  3  2  1  0  0  0  0
  4  3  1  0  0  0  0
  5  4  1  0  0  0  0
  5  6  1  0  0  0  0
  6 13  1  6  0  0  0
  6 30  1  0  0  0  0
  6  1  1  0  0  0  0
 10  3  1  0  0  0  0
 11  5  1  0  0  0  0
 12  5  1  0  0  0  0
 14 15  1  0  0  0  0
 14  1  1  0  0  0  0
 16 17  1  0  0  0  0
 17 20  1  0  0  0  0
 17 19  1  0  0  0  0
 18 17  1  0  0  0  0
 21 22  1  0  0  0  0
 21 20  1  0  0  0  0
 22 27  1  0  0  0  0
 23 28  1  0  0  0  0
 23 22  2  0  0  0  0
 24 23  1  0  0  0  0
 25 24  2  0  0  0  0
 25 26  1  0  0  0  0
 26 21  2  0  0  0  0
 29 25  1  0  0  0  0
 30 31  1  0  0  0  0
 32 31  1  6  0  0  0
 32 41  1  0  0  0  0
 33 34  1  0  0  0  0
 33 32  1  0  0  0  0
 34 35  1  0  0  0  0
 35 36  2  0  0  0  0
 35 37  1  0  0  0  0
 37 38  1  0  0  0  0
 39 34  1  0  0  0  0
 39 40  1  1  0  0  0
 39 37  1  0  0  0  0
 40 32  1  0  0  0  0
 41 42  1  0  0  0  0
M  END
>  <minimizedAffinity>
-6.12988424

>  <minimizedRMSD>
1.71746051

$$$$
