REMARK  Name = 
REMARK  9 active torsions:
REMARK  status: ('A' for Active; 'I' for Inactive)
REMARK    1  A    between atoms: C_1  and  S_2
REMARK    2  A    between atoms: C_1  and  S_9
REMARK    3  A    between atoms: S_2  and  C_3
REMARK    4  A    between atoms: S_9  and  C_11
REMARK    5  A    between atoms: C_10  and  O_16
REMARK    6  A    between atoms: C_15  and  O_17
REMARK    7  A    between atoms: O_17  and  C_31
REMARK    8  A    between atoms: C_31  and  C_32
REMARK    9  A    between atoms: C_32  and  C_33
REMARK                            x       y       z     vdW  Elec       q    Type
REMARK                         _______ _______ _______ _____ _____    ______ ____
ROOT
ATOM      1  C   UNL     1      32.960  27.353  48.153  0.00  0.00    +0.000 C 
ATOM      2  C   UNL     1      33.581  28.661  48.597  0.00  0.00    +0.000 C 
ATOM      3  C   UNL     1      33.794  29.496  47.381  0.00  0.00    +0.000 C 
ATOM      4  O   UNL     1      33.395  28.879  46.214  0.00  0.00    +0.000 OA
ATOM      5  C   UNL     1      32.041  28.536  46.239  0.00  0.00    +0.000 C 
ATOM      6  C   UNL     1      31.678  27.713  47.427  0.00  0.00    +0.000 C 
ATOM      7  H   UNL     1      32.683  26.728  49.015  0.00  0.00    +0.000 HD
ATOM      8  H   UNL     1      32.802  29.173  49.222  0.00  0.00    +0.000 HD
ATOM      9  H   UNL     1      34.854  29.807  47.242  0.00  0.00    +0.000 HD
ATOM     10  H   UNL     1      33.227  30.471  47.417  0.00  0.00    +0.000 HD
ATOM     11  H   UNL     1      31.892  27.892  45.328  0.00  0.00    +0.000 HD
ATOM     12  H   UNL     1      31.413  29.422  46.065  0.00  0.00    +0.000 HD
ATOM     13  H   UNL     1      31.096  26.820  47.166  0.00  0.00    +0.000 HD
ENDROOT
BRANCH   1  14
ATOM     14  O   UNL     1      33.771  26.687  47.242  0.00  0.00    +0.000 OA
ATOM     15  H   UNL     1      33.746  25.735  47.449  0.00  0.00    +0.000 HD
ENDBRANCH   1  14
BRANCH   2  16
ATOM     16  S   UNL     1      35.132  28.396  49.498  0.00  0.00    +0.000 S 
BRANCH  16  17
ATOM     17  C   UNL     1      35.520  29.839  50.513  0.00  0.00    +0.000 C 
ATOM     18  H   UNL     1      35.122  30.731  49.953  0.00  0.00    +0.000 HD
ATOM     19  H   UNL     1      34.938  29.792  51.438  0.00  0.00    +0.000 HD
BRANCH  17  20
ATOM     20  S   UNL     1      37.268  30.114  50.750  0.00  0.00    +0.000 S 
BRANCH  20  21
ATOM     21  C   UNL     1      37.915  30.968  49.315  0.00  0.00    +0.000 A 
ATOM     22  C   UNL     1      38.342  32.257  49.562  0.00  0.00    +0.000 A 
ATOM     23  C   UNL     1      38.865  32.999  48.492  0.00  0.00    +0.000 A 
ATOM     24  N   UNL     1      38.917  32.394  47.267  0.00  0.00    +0.000 NA
ATOM     25  C   UNL     1      38.481  31.128  47.096  0.00  0.00    +0.000 A 
ATOM     26  N   UNL     1      37.991  30.426  48.091  0.00  0.00    +0.000 NA
ATOM     27  H   UNL     1      38.300  32.737  50.539  0.00  0.00    +0.000 HD
ATOM     28  H   UNL     1      39.207  34.013  48.661  0.00  0.00    +0.000 HD
ATOM     29  H   UNL     1      38.526  30.654  46.118  0.00  0.00    +0.000 HD
ENDBRANCH  20  21
ENDBRANCH  17  20
ENDBRANCH  16  17
ENDBRANCH   2  16
BRANCH   6  30
ATOM     30  O   UNL     1      30.932  28.485  48.343  0.00  0.00    +0.000 OA
BRANCH  30  31
ATOM     31  C   UNL     1      29.723  27.908  48.636  0.00  0.00    +0.000 C 
BRANCH  31  32
ATOM     32  C   UNL     1      28.999  28.822  49.633  0.00  0.00    +0.000 C 
ATOM     33  C   UNL     1      28.694  30.100  48.904  0.00  0.00    +0.000 C 
ATOM     34  N   UNL     1      27.477  30.635  49.423  0.00  0.00    +0.000 N 
ATOM     35  C   UNL     1      26.498  31.523  49.998  0.00  0.00    +0.000 C 
ATOM     36  O   UNL     1      26.410  32.783  50.046  0.00  0.00    +0.000 OA
ATOM     37  C   UNL     1      25.675  30.372  50.486  0.00  0.00    +0.000 C 
ATOM     38  H   UNL     1      25.963  30.036  51.502  0.00  0.00    +0.000 HD
ATOM     39  C   UNL     1      26.407  29.651  49.382  0.00  0.00    +0.000 C 
ATOM     40  S   UNL     1      27.324  28.179  49.936  0.00  0.00    +0.000 S 
BRANCH  32  41
ATOM     41  C   UNL     1      29.791  28.982  50.883  0.00  0.00    +0.000 C 
ATOM     42  H   UNL     1      30.408  28.059  50.998  0.00  0.00    +0.000 HD
ENDBRANCH  32  41
ENDBRANCH  31  32
ENDBRANCH  30  31
ENDBRANCH   6  30
TORSDOF 9
