
 OpenBabel03262521543D

 42 45  0  0  1  0  0  0  0  0999 V2000
   32.6370   26.9100   48.2090 C   0  0  1  0  0  0  0  0  0  0  0  0
   33.1900   28.2870   48.5090 C   0  0  2  0  0  0  0  0  0  0  0  0
   33.0560   29.1080   47.2710 C   0  0  0  0  0  0  0  0  0  0  0  0
   32.4950   28.4210   46.2150 O   0  0  0  0  0  0  0  0  0  0  0  0
   31.2210   27.9380   46.5220 C   0  0  0  0  0  0  0  0  0  0  0  0
   31.2020   27.1130   47.7630 C   0  0  2  0  0  0  0  0  0  0  0  0
   32.6130   26.2820   49.1120 H   0  0  0  0  0  0  0  0  0  0  0  0
   32.5050   28.7310   49.2790 H   0  0  0  0  0  0  0  0  0  0  0  0
   34.0240   29.5250   46.9140 H   0  0  0  0  0  0  0  0  0  0  0  0
   32.4060   30.0180   47.4200 H   0  0  0  0  0  0  0  0  0  0  0  0
   30.9590   27.2570   45.6640 H   0  0  0  0  0  0  0  0  0  0  0  0
   30.4780   28.7470   46.4780 H   0  0  0  0  0  0  0  0  0  0  0  0
   30.6790   26.1570   47.6320 H   0  0  0  0  0  0  0  0  0  0  0  0
   33.3110   26.3090   47.1520 O   0  0  0  0  0  0  0  0  0  0  0  0
   33.4330   25.3660   47.3640 H   0  0  0  0  0  0  0  0  0  0  0  0
   34.9120   28.2120   49.0700 S   0  0  0  0  0  0  0  0  0  0  0  0
   35.2380   29.5240   50.2680 C   0  0  0  0  0  0  0  0  0  0  0  0
   34.8670   30.4770   49.7960 H   0  0  0  0  0  0  0  0  0  0  0  0
   34.6070   29.3690   51.1480 H   0  0  0  0  0  0  0  0  0  0  0  0
   36.9690   29.7650   50.6310 S   0  0  0  0  0  0  0  0  0  0  0  0
   37.6970   30.7560   49.3280 C   0  0  0  0  0  0  0  0  0  0  0  0
   38.1050   32.0130   49.7270 C   0  0  0  0  0  0  0  0  0  0  0  0
   38.6880   32.8560   48.7690 C   0  0  0  0  0  0  0  0  0  0  0  0
   38.8130   32.3760   47.4950 N   0  0  0  0  0  0  0  0  0  0  0  0
   38.3910   31.1350   47.1730 C   0  0  0  0  0  0  0  0  0  0  0  0
   37.8450   30.3390   48.0630 N   0  0  0  0  0  0  0  0  0  0  0  0
   38.0050   32.3930   50.7430 H   0  0  0  0  0  0  0  0  0  0  0  0
   39.0160   33.8470   49.0580 H   0  0  0  0  0  0  0  0  0  0  0  0
   38.4940   30.7600   46.1570 H   0  0  0  0  0  0  0  0  0  0  0  0
   30.5800   27.8260   48.8100 O   0  0  0  0  0  0  0  0  0  0  0  0
   29.9570   26.9910   49.7010 C   0  0  0  0  0  2  0  0  0  0  0  0
   28.5610   27.5630   49.9810 C   0  0  1  0  0  0  0  0  0  0  0  0
   28.6010   29.0110   49.5770 C   0  0  0  0  0  2  0  0  0  0  0  0
   27.3040   29.3790   49.1060 N   0  0  0  0  0  0  0  0  0  0  0  0
   26.0490   30.0640   48.9260 C   0  0  0  0  0  0  0  0  0  0  0  0
   25.6780   31.2480   49.1660 O   0  0  0  0  0  0  0  0  0  0  0  0
   25.4080   28.8340   48.3640 C   0  0  0  0  0  3  0  0  0  0  0  0
   24.9450   28.1950   49.1410 H   0  0  0  0  0  0  0  0  0  0  0  0
   26.8420   28.4770   48.0650 C   0  0  2  0  0  3  0  0  0  0  0  0
   27.3780   26.8890   48.7740 S   0  0  0  0  0  0  0  0  0  0  0  0
   28.1560   27.3140   51.3910 C   0  0  0  0  0  2  0  0  0  0  0  0
   28.6860   26.3890   51.7250 H   0  0  0  0  0  0  0  0  0  0  0  0
  1  2  1  0  0  0  0
  1  7  1  1  0  0  0
  2 16  1  0  0  0  0
  2  8  1  1  0  0  0
  3 10  1  0  0  0  0
  3  2  1  0  0  0  0
  4  5  1  0  0  0  0
  4  3  1  0  0  0  0
  5  6  1  0  0  0  0
  6 13  1  6  0  0  0
  6  1  1  0  0  0  0
  6 30  1  0  0  0  0
  9  3  1  0  0  0  0
 11  5  1  0  0  0  0
 12  5  1  0  0  0  0
 14 15  1  0  0  0  0
 14  1  1  0  0  0  0
 16 17  1  0  0  0  0
 17 20  1  0  0  0  0
 17 19  1  0  0  0  0
 18 17  1  0  0  0  0
 21 22  1  0  0  0  0
 21 20  1  0  0  0  0
 22 27  1  0  0  0  0
 23 28  1  0  0  0  0
 23 22  2  0  0  0  0
 24 23  1  0  0  0  0
 25 24  2  0  0  0  0
 25 26  1  0  0  0  0
 26 21  2  0  0  0  0
 29 25  1  0  0  0  0
 30 31  1  0  0  0  0
 32 31  1  6  0  0  0
 32 41  1  0  0  0  0
 33 32  1  0  0  0  0
 34 33  1  0  0  0  0
 35 34  1  0  0  0  0
 35 36  2  0  0  0  0
 37 35  1  0  0  0  0
 37 38  1  0  0  0  0
 39 37  1  1  0  0  0
 39 40  1  0  0  0  0
 39 34  1  0  0  0  0
 40 32  1  0  0  0  0
 41 42  1  0  0  0  0
M  END
>  <minimizedAffinity>
-6.03624249

>  <minimizedRMSD>
3.37918663

$$$$
