
 OpenBabel03262521543D

 42 45  0  0  1  0  0  0  0  0999 V2000
   32.9540   27.5270   47.2570 C   0  0  1  0  0  0  0  0  0  0  0  0
   33.4080   28.6710   48.1400 C   0  0  2  0  0  0  0  0  0  0  0  0
   33.8530   29.7800   47.2500 C   0  0  0  0  0  0  0  0  0  0  0  0
   33.7490   29.4820   45.9070 O   0  0  0  0  0  0  0  0  0  0  0  0
   32.4390   29.1680   45.5400 C   0  0  0  0  0  0  0  0  0  0  0  0
   31.8530   28.0800   46.3730 C   0  0  2  0  0  0  0  0  0  0  0  0
   32.5170   26.7110   47.8510 H   0  0  0  0  0  0  0  0  0  0  0  0
   32.4890   29.0230   48.6800 H   0  0  0  0  0  0  0  0  0  0  0  0
   34.9040   30.0970   47.4350 H   0  0  0  0  0  0  0  0  0  0  0  0
   33.2540   30.7250   47.3970 H   0  0  0  0  0  0  0  0  0  0  0  0
   32.5230   28.7760   44.4880 H   0  0  0  0  0  0  0  0  0  0  0  0
   31.8310   30.0800   45.4540 H   0  0  0  0  0  0  0  0  0  0  0  0
   31.3800   27.2920   45.7740 H   0  0  0  0  0  0  0  0  0  0  0  0
   33.9740   27.0960   46.4170 O   0  0  0  0  0  0  0  0  0  0  0  0
   33.9410   26.1230   46.3700 H   0  0  0  0  0  0  0  0  0  0  0  0
   34.7280   28.1610   49.2730 S   0  0  0  0  0  0  0  0  0  0  0  0
   35.1520   29.5160   50.3900 C   0  0  0  0  0  0  0  0  0  0  0  0
   34.7970   30.4580   49.8860 H   0  0  0  0  0  0  0  0  0  0  0  0
   34.5530   29.4290   51.3010 H   0  0  0  0  0  0  0  0  0  0  0  0
   36.9050   29.7080   50.6700 S   0  0  0  0  0  0  0  0  0  0  0  0
   37.5960   30.6850   49.3370 C   0  0  0  0  0  0  0  0  0  0  0  0
   38.0810   31.9180   49.7250 C   0  0  0  0  0  0  0  0  0  0  0  0
   38.6410   32.7480   48.7430 C   0  0  0  0  0  0  0  0  0  0  0  0
   38.6710   32.2810   47.4580 N   0  0  0  0  0  0  0  0  0  0  0  0
   38.1780   31.0630   47.1490 C   0  0  0  0  0  0  0  0  0  0  0  0
   37.6530   30.2780   48.0610 N   0  0  0  0  0  0  0  0  0  0  0  0
   38.0560   32.2880   50.7490 H   0  0  0  0  0  0  0  0  0  0  0  0
   39.0280   33.7210   49.0230 H   0  0  0  0  0  0  0  0  0  0  0  0
   38.2060   30.6980   46.1240 H   0  0  0  0  0  0  0  0  0  0  0  0
   30.8910   28.6110   47.2590 O   0  0  0  0  0  0  0  0  0  0  0  0
   29.7150   28.9100   46.6210 C   0  0  0  0  0  2  0  0  0  0  0  0
   28.5830   28.1930   47.3670 C   0  0  1  0  0  0  0  0  0  0  0  0
   28.8280   28.4130   48.8350 C   0  0  0  0  0  2  0  0  0  0  0  0
   27.5640   28.4640   49.4980 N   0  0  0  0  0  0  0  0  0  0  0  0
   26.4770   28.2100   50.4090 C   0  0  0  0  0  0  0  0  0  0  0  0
   26.4330   27.7360   51.5790 O   0  0  0  0  0  0  0  0  0  0  0  0
   25.4740   28.7250   49.4240 C   0  0  0  0  0  3  0  0  0  0  0  0
   25.0880   27.9360   48.7480 H   0  0  0  0  0  0  0  0  0  0  0  0
   26.6840   29.4440   48.8830 C   0  0  2  0  0  3  0  0  0  0  0  0
   27.0280   29.1060   47.1270 S   0  0  0  0  0  0  0  0  0  0  0  0
   28.4880   26.7680   46.9500 C   0  0  0  0  0  2  0  0  0  0  0  0
   28.8740   26.7070   45.9050 H   0  0  0  0  0  0  0  0  0  0  0  0
  1  7  1  1  0  0  0
  1  2  1  0  0  0  0
  2  8  1  1  0  0  0
  2 16  1  0  0  0  0
  3 10  1  0  0  0  0
  3  9  1  0  0  0  0
  3  2  1  0  0  0  0
  4  3  1  0  0  0  0
  5  4  1  0  0  0  0
  5  6  1  0  0  0  0
  6 13  1  6  0  0  0
  6  1  1  0  0  0  0
  6 30  1  0  0  0  0
 11  5  1  0  0  0  0
 12  5  1  0  0  0  0
 14  1  1  0  0  0  0
 15 14  1  0  0  0  0
 16 17  1  0  0  0  0
 17 20  1  0  0  0  0
 17 19  1  0  0  0  0
 18 17  1  0  0  0  0
 21 22  1  0  0  0  0
 21 20  1  0  0  0  0
 22 27  1  0  0  0  0
 23 28  1  0  0  0  0
 23 22  2  0  0  0  0
 24 23  1  0  0  0  0
 25 24  2  0  0  0  0
 25 26  1  0  0  0  0
 26 21  2  0  0  0  0
 29 25  1  0  0  0  0
 31 30  1  0  0  0  0
 32 31  1  6  0  0  0
 32 33  1  0  0  0  0
 33 34  1  0  0  0  0
 34 35  1  0  0  0  0
 35 36  2  0  0  0  0
 37 35  1  0  0  0  0
 38 37  1  0  0  0  0
 39 40  1  6  0  0  0
 39 37  1  0  0  0  0
 39 34  1  0  0  0  0
 40 32  1  0  0  0  0
 41 32  1  0  0  0  0
 42 41  1  0  0  0  0
M  END
>  <minimizedAffinity>
-5.88071108

>  <minimizedRMSD>
2.2245574

$$$$
