
     RDKit          3D

 50 53  0  0  0  0  0  0  0  0999 V2000
   35.5196   29.8390   50.5132 C   0  0  0  0  0  0  0  0  0  0  0  0
   37.2678   30.1136   50.7498 S   0  0  0  0  0  0  0  0  0  0  0  0
   37.9153   30.9678   49.3149 C   0  0  0  0  0  0  0  0  0  0  0  0
   38.3423   32.2565   49.5625 C   0  0  0  0  0  0  0  0  0  0  0  0
   38.8651   32.9995   48.4919 C   0  0  0  0  0  0  0  0  0  0  0  0
   38.9171   32.3940   47.2675 N   0  0  0  0  0  0  0  0  0  0  0  0
   38.4810   31.1276   47.0962 C   0  0  0  0  0  0  0  0  0  0  0  0
   37.9910   30.4259   48.0910 N   0  0  0  0  0  0  0  0  0  0  0  0
   35.1319   28.3958   49.4977 S   0  0  0  0  0  0  0  0  0  0  0  0
   32.9597   27.3528   48.1531 C   0  0  1  0  0  0  0  0  0  0  0  0
   33.5805   28.6607   48.5974 C   0  0  2  0  0  0  0  0  0  0  0  0
   33.7944   29.4963   47.3812 C   0  0  0  0  0  0  0  0  0  0  0  0
   33.3950   28.8790   46.2143 O   0  0  0  0  0  0  0  0  0  0  0  0
   32.0405   28.5356   46.2389 C   0  0  0  0  0  0  0  0  0  0  0  0
   31.6777   27.7134   47.4272 C   0  0  2  0  0  0  0  0  0  0  0  0
   33.7709   26.6868   47.2421 O   0  0  0  0  0  0  0  0  0  0  0  0
   30.9323   28.4848   48.3432 O   0  0  0  0  0  0  0  0  0  0  0  0
   35.1219   30.7311   49.9529 H   0  0  0  0  0  0  0  0  0  0  0  0
   34.9379   29.7917   51.4381 H   0  0  0  0  0  0  0  0  0  0  0  0
   38.2998   32.7367   50.5394 H   0  0  0  0  0  0  0  0  0  0  0  0
   39.2066   34.0130   48.6615 H   0  0  0  0  0  0  0  0  0  0  0  0
   38.5263   30.6537   46.1177 H   0  0  0  0  0  0  0  0  0  0  0  0
   32.6829   26.7283   49.0153 H   0  0  0  0  0  0  0  0  0  0  0  0
   32.8023   29.1734   49.2223 H   0  0  0  0  0  0  0  0  0  0  0  0
   34.8538   29.8069   47.2422 H   0  0  0  0  0  0  0  0  0  0  0  0
   33.2274   30.4712   47.4170 H   0  0  0  0  0  0  0  0  0  0  0  0
   31.8918   27.8917   45.3277 H   0  0  0  0  0  0  0  0  0  0  0  0
   31.4134   29.4217   46.0647 H   0  0  0  0  0  0  0  0  0  0  0  0
   31.0960   26.8195   47.1662 H   0  0  0  0  0  0  0  0  0  0  0  0
   33.7456   25.7355   47.4493 H   0  0  0  0  0  0  0  0  0  0  0  0
   29.7226   27.9079   48.6365 C   0  0  0  0  0  0  0  0  0  0  0  0
   28.7978   28.1238   47.4319 C   0  0  1  0  0  0  0  0  0  0  0  0
   28.6062   29.5743   47.1595 C   0  0  0  0  0  0  0  0  0  0  0  0
   28.7358   30.1085   48.1307 H   0  0  0  0  0  0  0  0  0  0  0  0
   29.3808   27.3336   46.2936 C   0  0  0  0  0  0  0  0  0  0  0  0
   28.3091   26.8778   45.4680 N   0  0  0  0  0  0  0  0  0  0  0  0
   27.4664   26.6111   44.3296 C   0  0  0  0  0  0  0  0  0  0  0  0
   27.6996   26.5418   43.0896 O   0  0  0  0  0  0  0  0  0  0  0  0
   26.2598   26.4595   45.2027 C   0  0  1  0  0  0  0  0  0  0  0  0
   25.7260   27.4157   45.3711 H   0  0  0  0  0  0  0  0  0  0  0  0
   27.3093   26.1631   46.2445 C   0  0  2  0  0  0  0  0  0  0  0  0
   27.2300   27.2427   47.7084 S   0  0  0  0  0  0  0  0  0  0  0  0
   29.2639   28.5087   49.4709 H   0  0  0  0  0  0  0  0  0  0  0  0
   29.7404   26.8654   48.9498 H   0  0  0  0  0  0  0  0  0  0  0  0
   29.4215   29.9691   46.5054 H   0  0  0  0  0  0  0  0  0  0  0  0
   27.6059   29.8479   46.7936 H   0  0  0  0  0  0  0  0  0  0  0  0
   30.0327   26.5001   46.6613 H   0  0  0  0  0  0  0  0  0  0  0  0
   30.0233   28.0053   45.7274 H   0  0  0  0  0  0  0  0  0  0  0  0
   25.6338   25.5821   45.0153 H   0  0  0  0  0  0  0  0  0  0  0  0
   27.4991   25.1076   46.4508 H   0  0  0  0  0  0  0  0  0  0  0  0
  1  2  1  0
  3  4  2  0
  3  2  1  0
  5  4  1  0
  6  5  2  0
  7  6  1  0
  7  8  2  0
  8  3  1  0
  9  1  1  0
 10 16  1  0
 10 11  1  0
 11  9  1  0
 12 11  1  0
 13 14  1  0
 13 12  1  0
 14 15  1  0
 15 10  1  0
 15 17  1  0
  1 18  1  0
  1 19  1  0
  4 20  1  0
  5 21  1  0
  7 22  1  0
 10 23  1  1
 11 24  1  1
 12 25  1  0
 12 26  1  0
 14 27  1  0
 14 28  1  0
 15 29  1  6
 16 30  1  0
 32 31  1  1
 32 33  1  0
 33 34  1  0
 32 35  1  0
 35 36  1  0
 36 37  1  0
 37 38  2  0
 37 39  1  0
 39 40  1  1
 39 41  1  0
 41 42  1  0
 42 32  1  0
 41 36  1  0
 31 43  1  0
 31 44  1  0
 33 45  1  0
 33 46  1  0
 35 47  1  0
 35 48  1  0
 39 49  1  0
 41 50  1  1
 17 31  1  0
M  ISO  8  18   8  19   8  20  14  21  14  22  14  23  13  24  13  25  13
M  ISO  7  26  13  27  13  28  13  29  13  30   3  34   8  40  15
M  END
>  <DihAtoms>  (1) 
14,16,30,31

>  <DihDeg>  (1) 
-179.9998919688588

$$$$
