
     RDKit          3D

 36 38  0  0  0  0  0  0  0  0999 V2000
   37.0533   29.4007   51.1698 C   0  0  0  0  0  0  0  0  0  0  0  0
   37.6700   30.0211   50.0826 C   0  0  0  0  0  0  0  0  0  0  0  0
   36.9002   30.4976   49.0511 C   0  0  0  0  0  0  0  0  0  0  0  0
   35.5519   30.3343   49.1493 N   0  0  0  0  0  0  0  0  0  0  0  0
   34.9784   29.7334   50.2026 C   0  0  0  0  0  0  0  0  0  0  0  0
   35.7356   29.2651   51.2206 N   0  0  0  0  0  0  0  0  0  0  0  0
   37.4455   31.1554   47.8512 C   0  0  0  0  0  0  0  0  0  0  0  0
   38.7626   31.8269   48.1705 C   0  0  0  0  0  0  0  0  0  0  0  0
   38.4554   33.3685   49.0793 S   0  0  0  0  0  0  0  0  0  0  0  0
   37.7170   29.0399   51.9589 H   0  0  0  0  0  0  0  0  0  0  0  0
   38.7414   30.1195   50.0613 H   0  0  0  0  0  0  0  0  0  0  0  0
   33.9058   29.6079   50.2809 H   0  0  0  0  0  0  0  0  0  0  0  0
   36.7686   31.9797   47.5049 H   0  0  0  0  0  0  0  0  0  0  0  0
   37.6210   30.4734   47.0004 H   0  0  0  0  0  0  0  0  0  0  0  0
   39.1593   32.1408   47.1520 H   0  0  0  0  0  0  0  0  0  0  0  0
   39.5379   31.1940   48.5818 H   0  0  0  0  0  0  0  0  0  0  0  0
   39.5999   34.5986   48.4261 C   0  0  0  0  0  0  0  0  0  0  0  0
   40.3286   34.1768   47.1758 C   0  0  1  0  0  0  0  0  0  0  0  0
   41.1444   32.9305   47.4341 C   0  0  0  0  0  0  0  0  0  0  0  0
   41.5156   33.0272   48.4928 H   0  0  0  0  0  0  0  0  0  0  0  0
   39.4088   34.1252   46.0345 C   0  0  0  0  0  0  0  0  0  0  0  0
   39.9735   34.8369   44.9203 N   0  0  0  0  0  0  0  0  0  0  0  0
   40.3234   35.1250   43.5711 C   0  0  0  0  0  0  0  0  0  0  0  0
   39.9645   34.9692   42.3650 O   0  0  0  0  0  0  0  0  0  0  0  0
   41.5166   35.8316   44.0495 C   0  0  1  0  0  0  0  0  0  0  0  0
   42.3408   35.1268   44.3104 H   0  0  0  0  0  0  0  0  0  0  0  0
   40.6454   36.0498   45.2691 C   0  0  2  0  0  0  0  0  0  0  0  0
   41.4649   35.5856   46.8170 S   0  0  0  0  0  0  0  0  0  0  0  0
   39.0128   35.5425   48.1787 H   0  0  0  0  0  0  0  0  0  0  0  0
   40.3327   34.9409   49.1940 H   0  0  0  0  0  0  0  0  0  0  0  0
   42.0488   32.9238   46.7811 H   0  0  0  0  0  0  0  0  0  0  0  0
   40.5206   32.0467   47.2852 H   0  0  0  0  0  0  0  0  0  0  0  0
   38.3703   34.4734   46.2143 H   0  0  0  0  0  0  0  0  0  0  0  0
   39.2895   33.0336   45.7590 H   0  0  0  0  0  0  0  0  0  0  0  0
   41.8325   36.7239   43.5051 H   0  0  0  0  0  0  0  0  0  0  0  0
   40.0630   36.9832   45.3008 H   0  0  0  0  0  0  0  0  0  0  0  0
  1  6  2  0
  2  1  1  0
  3  4  1  0
  3  2  2  0
  4  5  2  0
  5  6  1  0
  7  8  1  0
  7  3  1  0
  8  9  1  0
  1 10  1  0
  2 11  1  0
  5 12  1  0
  7 13  1  0
  7 14  1  0
  8 15  1  0
  8 16  1  0
 18 17  1  1
 18 19  1  0
 19 20  1  0
 18 21  1  0
 21 22  1  0
 22 23  1  0
 23 24  2  0
 23 25  1  0
 25 26  1  1
 25 27  1  0
 27 28  1  0
 28 18  1  0
 27 22  1  0
 17 29  1  0
 17 30  1  0
 19 31  1  0
 19 32  1  0
 21 33  1  0
 21 34  1  0
 25 35  1  0
 27 36  1  1
  9 17  1  0
M  ISO  8  10  14  11  14  12  14  13   8  14   8  15   8  16   8  20   8
M  ISO  1  26  15
M  END
>  <DihAtoms>  (1) 
7,8,16,17

>  <DihDeg>  (1) 
175.41778342207772

$$$$
