
 OpenBabel03272509263D

 28 31  0  0  1  0  0  0  0  0999 V2000
   31.6430   30.6450   44.4280 C   0  0  0  0  0  0  0  0  0  0  0  0
   30.8250   31.3790   44.1370 H   0  0  0  0  0  0  0  0  0  0  0  0
   31.3870   29.7300   43.9100 H   0  0  0  0  0  0  0  0  0  0  0  0
   31.5670   30.6050   45.9390 C   0  0  0  0  0  0  0  0  0  0  0  0
   32.5740   30.9460   46.2950 H   0  0  0  0  0  0  0  0  0  0  0  0
   30.8180   31.3550   46.2510 H   0  0  0  0  0  0  0  0  0  0  0  0
   29.9080   27.5120   47.3270 C   0  0  0  0  0  0  0  0  0  0  0  0
   30.0680   28.8300   46.9000 C   0  0  0  0  0  0  0  0  0  0  0  0
   31.2820   29.2360   46.4030 C   0  0  0  0  0  0  0  0  0  0  0  0
   32.2800   28.3110   46.3570 N   0  0  0  0  0  0  0  0  0  0  0  0
   32.1060   27.0470   46.7740 C   0  0  0  0  0  0  0  0  0  0  0  0
   30.9090   26.6460   47.2610 N   0  0  0  0  0  0  0  0  0  0  0  0
   28.9210   27.2480   47.7140 H   0  0  0  0  0  0  0  0  0  0  0  0
   29.2430   29.5170   46.9640 H   0  0  0  0  0  0  0  0  0  0  0  0
   32.8990   26.3120   46.7320 H   0  0  0  0  0  0  0  0  0  0  0  0
   33.2060   31.4150   43.9190 S   0  0  0  0  0  0  0  0  0  0  0  0
   34.4820   30.1480   44.0520 C   0  0  0  0  0  2  0  0  0  0  0  0
   35.7880   30.6310   44.6290 C   0  0  1  0  0  0  0  0  0  0  0  0
   36.9010   29.8020   44.1540 C   0  0  0  0  0  2  0  0  0  0  0  0
   37.9590   30.6430   43.6630 N   0  0  2  0  0  0  0  0  0  0  0  0
   39.2840   31.1060   43.4300 C   0  0  2  0  0  0  0  0  0  0  0  0
   40.4890   30.7350   43.2900 O   0  0  0  0  0  1  0  0  0  0  0  0
   38.7770   32.4820   43.3790 C   0  0  0  0  0  3  0  0  0  0  0  0
   38.6090   32.9010   44.3990 H   0  0  0  0  0  0  0  0  0  0  0  0
   37.5160   31.7800   42.9170 C   0  0  1  0  0  0  0  0  0  0  0  0
   36.0450   32.2820   43.8470 S   0  0  0  0  0  0  0  0  0  0  0  0
   35.6730   30.8010   46.1270 C   0  0  0  0  0  2  0  0  0  0  0  0
   34.6220   31.1590   46.3100 H   0  0  0  0  0  0  0  0  0  0  0  0
  1  4  1  0  0  0  0
  2  1  1  0  0  0  0
  3  1  1  0  0  0  0
  4  6  1  0  0  0  0
  4  5  1  0  0  0  0
  4  9  1  0  0  0  0
  7 13  1  0  0  0  0
  8 14  1  0  0  0  0
  8  7  2  0  0  0  0
  9  8  1  0  0  0  0
 10  9  2  0  0  0  0
 10 11  1  0  0  0  0
 11 12  2  0  0  0  0
 12  7  1  0  0  0  0
 15 11  1  0  0  0  0
 16 17  1  0  0  0  0
 16  1  1  0  0  0  0
 18 17  1  6  0  0  0
 18 27  1  0  0  0  0
 19 18  1  0  0  0  0
 20 19  1  1  0  0  0
 21 22  1  6  0  0  0
 21 20  1  0  0  0  0
 23 21  1  0  0  0  0
 23 24  1  0  0  0  0
 25 23  1  6  0  0  0
 25 21  1  0  0  0  0
 25 20  1  0  0  0  0
 25 26  1  0  0  0  0
 26 18  1  0  0  0  0
 27 28  1  0  0  0  0
M  END
>  <minimizedAffinity>
-1.53919744

>  <minimizedRMSD>
8.12073898

$$$$
