
     RDKit          3D

 57 61  0  0  0  0  0  0  0  0999 V2000
   38.7405   32.8711   48.3473 C   0  0  0  0  0  0  0  0  0  0  0  0
   39.0461   32.2028   47.1478 C   0  0  0  0  0  0  0  0  0  0  0  0
   38.5396   30.9468   46.9995 C   0  0  0  0  0  0  0  0  0  0  0  0
   37.7788   30.4123   47.9987 N   0  0  0  0  0  0  0  0  0  0  0  0
   37.5169   31.0622   49.0963 C   0  0  0  0  0  0  0  0  0  0  0  0
   37.9925   32.3375   49.3226 N   0  0  0  0  0  0  0  0  0  0  0  0
   39.8116   32.8416   46.2337 O   0  0  0  0  0  0  0  0  0  0  0  0
   39.9585   32.3028   44.9681 C   0  0  0  0  0  0  0  0  0  0  0  0
   40.6580   31.1736   44.6093 C   0  0  0  0  0  0  0  0  0  0  0  0
   40.7000   30.7860   43.3256 C   0  0  0  0  0  0  0  0  0  0  0  0
   40.0423   31.5258   42.3924 C   0  0  0  0  0  0  0  0  0  0  0  0
   39.3319   32.6748   42.7657 C   0  0  0  0  0  0  0  0  0  0  0  0
   39.2989   33.0562   44.0770 N   0  0  0  0  0  0  0  0  0  0  0  0
   38.5936   33.5048   41.7159 C   0  0  0  0  0  0  0  0  0  0  0  0
   36.4881   30.1158   50.2454 S   0  0  0  0  0  0  0  0  0  0  0  0
   34.7843   30.5426   49.7948 C   0  0  0  0  0  0  0  0  0  0  0  0
   34.4646   27.8111   49.9412 F   0  0  0  0  0  0  0  0  0  0  0  0
   34.3311   28.4394   48.7294 C   0  0  0  0  0  0  0  0  0  0  0  0
   34.4711   29.8153   48.5359 C   0  0  0  0  0  0  0  0  0  0  0  0
   34.3255   30.3772   47.3031 C   0  0  0  0  0  0  0  0  0  0  0  0
   34.0294   29.5820   46.1902 C   0  0  0  0  0  0  0  0  0  0  0  0
   33.8859   28.2237   46.3514 C   0  0  0  0  0  0  0  0  0  0  0  0
   34.0386   27.6685   47.6194 C   0  0  0  0  0  0  0  0  0  0  0  0
   33.8822   26.2860   47.7242 O   0  0  0  0  0  0  0  0  0  0  0  0
   39.1037   33.8712   48.5438 H   0  0  0  0  0  0  0  0  0  0  0  0
   38.7612   30.4115   46.0837 H   0  0  0  0  0  0  0  0  0  0  0  0
   41.1392   30.6731   45.4530 H   0  0  0  0  0  0  0  0  0  0  0  0
   41.2454   29.9096   43.0623 H   0  0  0  0  0  0  0  0  0  0  0  0
   40.0335   31.2710   41.3356 H   0  0  0  0  0  0  0  0  0  0  0  0
   38.2642   32.8725   40.8916 H   0  0  0  0  0  0  0  0  0  0  0  0
   37.8153   34.0326   42.2729 H   0  0  0  0  0  0  0  0  0  0  0  0
   39.3346   34.2740   41.4017 H   0  0  0  0  0  0  0  0  0  0  0  0
   34.1037   30.1573   50.6022 H   0  0  0  0  0  0  0  0  0  0  0  0
   34.6390   31.6319   49.6969 H   0  0  0  0  0  0  0  0  0  0  0  0
   34.4457   31.4374   47.2239 H   0  0  0  0  0  0  0  0  0  0  0  0
   33.9137   30.0320   45.2084 H   0  0  0  0  0  0  0  0  0  0  0  0
   33.6569   27.6234   45.4803 H   0  0  0  0  0  0  0  0  0  0  0  0
   33.5832   25.4732   46.6080 C   0  0  0  0  0  0  0  0  0  0  0  0
   33.8724   24.0348   47.0593 C   0  0  2  0  0  0  0  0  0  0  0  0
   33.0362   23.6407   48.2247 C   0  0  0  0  0  0  0  0  0  0  0  0
   32.2113   24.4002   48.2993 H   0  0  0  0  0  0  0  0  0  0  0  0
   35.3481   23.8947   47.2397 C   0  0  0  0  0  0  0  0  0  0  0  0
   35.8015   22.7018   46.6012 N   0  0  0  0  0  0  0  0  0  0  0  0
   36.4049   21.4469   46.3019 C   0  0  0  0  0  0  0  0  0  0  0  0
   37.2720   20.7467   46.8932 O   0  0  0  0  0  0  0  0  0  0  0  0
   35.6606   21.2352   45.0422 C   0  0  1  0  0  0  0  0  0  0  0  0
   36.2854   21.0473   44.1374 H   0  0  0  0  0  0  0  0  0  0  0  0
   35.3342   22.6924   45.2096 C   0  0  1  0  0  0  0  0  0  0  0  0
   33.5594   23.0057   45.5727 S   0  0  0  0  0  0  0  0  0  0  0  0
   32.5316   25.5757   46.2591 H   0  0  0  0  0  0  0  0  0  0  0  0
   34.3208   25.7434   45.8257 H   0  0  0  0  0  0  0  0  0  0  0  0
   32.5982   22.6215   48.1493 H   0  0  0  0  0  0  0  0  0  0  0  0
   33.6431   23.7904   49.1474 H   0  0  0  0  0  0  0  0  0  0  0  0
   35.8936   24.8184   46.9504 H   0  0  0  0  0  0  0  0  0  0  0  0
   35.5175   23.7935   48.3369 H   0  0  0  0  0  0  0  0  0  0  0  0
   34.7351   20.6222   45.1305 H   0  0  0  0  0  0  0  0  0  0  0  0
   35.8036   23.4103   44.5381 H   0  0  0  0  0  0  0  0  0  0  0  0
  1  6  2  0
  2  1  1  0
  3  2  2  0
  3  4  1  0
  4  5  2  0
  5  6  1  0
  5 15  1  0
  7  2  1  0
  8  7  1  0
  9  8  2  0
 10  9  1  0
 11 12  1  0
 11 10  2  0
 12 13  2  0
 13  8  1  0
 14 12  1  0
 16 15  1  0
 18 17  1  0
 19 18  2  0
 19 16  1  0
 20 19  1  0
 21 22  1  0
 21 20  2  0
 22 23  2  0
 23 24  1  0
 23 18  1  0
  1 25  1  0
  3 26  1  0
  9 27  1  0
 10 28  1  0
 11 29  1  0
 14 30  1  0
 14 31  1  0
 14 32  1  0
 16 33  1  0
 16 34  1  0
 20 35  1  0
 21 36  1  0
 22 37  1  0
 39 38  1  6
 39 40  1  0
 40 41  1  0
 39 42  1  0
 42 43  1  0
 43 44  1  0
 44 45  2  0
 44 46  1  0
 46 47  1  6
 46 48  1  0
 48 49  1  0
 49 39  1  0
 48 43  1  0
 38 50  1  0
 38 51  1  0
 40 52  1  0
 40 53  1  0
 42 54  1  0
 42 55  1  0
 46 56  1  0
 48 57  1  6
 24 38  1  0
M  ISO  8  25  14  26  14  27  14  28  14  29  14  30   8  31   8  32   8
M  ISO  7  33   8  34   8  35  14  36  14  37  14  41   8  47  15
M  END
>  <DihAtoms>  (1) 
22,23,37,38

>  <DihDeg>  (1) 
179.99907495633818

$$$$
