
     RDKit          3D

 56 60  0  0  0  0  0  0  0  0999 V2000
   37.7711   31.7482   47.6587 C   0  0  0  0  0  0  0  0  0  0  0  0
   37.9324   32.5335   48.8071 C   0  0  0  0  0  0  0  0  0  0  0  0
   38.9332   33.4749   48.8875 C   0  0  0  0  0  0  0  0  0  0  0  0
   39.7510   33.5934   47.7867 C   0  0  0  0  0  0  0  0  0  0  0  0
   39.5742   32.8199   46.6842 C   0  0  0  0  0  0  0  0  0  0  0  0
   38.5920   31.8883   46.5917 N   0  0  0  0  0  0  0  0  0  0  0  0
   36.6996   30.7847   47.6522 C   0  0  0  0  0  0  0  0  0  0  0  0
   36.2082   30.3875   46.5995 O   0  0  0  0  0  0  0  0  0  0  0  0
   37.0257   29.6367   49.8105 C   0  0  0  0  0  0  0  0  0  0  0  0
   36.1388   30.2273   48.8980 C   0  0  0  0  0  0  0  0  0  0  0  0
   34.7775   30.2688   49.1914 C   0  0  0  0  0  0  0  0  0  0  0  0
   34.3413   29.7295   50.3674 N   0  0  0  0  0  0  0  0  0  0  0  0
   35.2170   29.1653   51.2312 C   0  0  0  0  0  0  0  0  0  0  0  0
   36.5130   29.1250   50.9535 N   0  0  0  0  0  0  0  0  0  0  0  0
   40.6582   32.9826   45.2351 S   0  0  0  0  0  0  0  0  0  0  0  0
   39.5492   32.9333   43.7892 C   0  0  0  0  0  0  0  0  0  0  0  0
   38.7776   29.7995   42.3530 C   0  0  1  0  0  0  0  0  0  0  0  0
   38.8262   31.2809   42.0801 C   0  0  0  0  0  0  0  0  0  0  0  0
   39.9466   31.7166   42.9792 C   0  0  2  0  0  0  0  0  0  0  0  0
   40.3067   30.6492   43.7518 O   0  0  0  0  0  0  0  0  0  0  0  0
   39.2422   29.7529   43.7840 C   0  0  0  0  0  0  0  0  0  0  0  0
   37.4862   29.2871   42.2051 O   0  0  0  0  0  0  0  0  0  0  0  0
   37.2804   32.4316   49.6714 H   0  0  0  0  0  0  0  0  0  0  0  0
   39.0935   34.1068   49.7628 H   0  0  0  0  0  0  0  0  0  0  0  0
   40.5598   34.3178   47.7867 H   0  0  0  0  0  0  0  0  0  0  0  0
   38.0978   29.5794   49.6275 H   0  0  0  0  0  0  0  0  0  0  0  0
   34.1133   30.7204   48.4900 H   0  0  0  0  0  0  0  0  0  0  0  0
   34.9703   28.7176   52.1759 H   0  0  0  0  0  0  0  0  0  0  0  0
   38.4916   32.8969   44.0464 H   0  0  0  0  0  0  0  0  0  0  0  0
   39.7938   33.8515   43.1978 H   0  0  0  0  0  0  0  0  0  0  0  0
   39.5118   29.2823   41.7199 H   0  0  0  0  0  0  0  0  0  0  0  0
   39.0769   31.4809   41.0214 H   0  0  0  0  0  0  0  0  0  0  0  0
   37.8657   31.7305   42.3980 H   0  0  0  0  0  0  0  0  0  0  0  0
   40.8262   32.0126   42.3529 H   0  0  0  0  0  0  0  0  0  0  0  0
   38.4253   30.0690   44.4484 H   0  0  0  0  0  0  0  0  0  0  0  0
   39.6689   28.7829   44.0934 H   0  0  0  0  0  0  0  0  0  0  0  0
   37.4277   28.2594   41.3075 C   0  0  0  0  0  0  0  0  0  0  0  0
   38.7270   28.2651   40.4916 C   0  0  1  0  0  0  0  0  0  0  0  0
   38.6410   27.1123   39.4975 C   0  0  0  0  0  0  0  0  0  0  0  0
   39.5861   27.0266   38.9366 H   0  0  0  0  0  0  0  0  0  0  0  0
   38.9893   29.5340   39.8220 C   0  0  0  0  0  0  0  0  0  0  0  0
   40.2883   29.9994   39.9999 N   0  0  0  0  0  0  0  0  0  0  0  0
   41.3575   30.9054   39.9627 C   0  0  0  0  0  0  0  0  0  0  0  0
   41.8340   31.8400   39.2732 O   0  0  0  0  0  0  0  0  0  0  0  0
   41.8209   30.2707   41.2492 C   0  0  1  0  0  0  0  0  0  0  0  0
   42.9234   30.2746   41.3688 H   0  0  0  0  0  0  0  0  0  0  0  0
   41.2309   29.0746   40.5742 C   0  0  1  0  0  0  0  0  0  0  0  0
   40.1553   28.0235   41.5818 S   0  0  0  0  0  0  0  0  0  0  0  0
   37.4686   27.3080   41.9099 H   0  0  0  0  0  0  0  0  0  0  0  0
   36.5518   28.2045   40.6650 H   0  0  0  0  0  0  0  0  0  0  0  0
   38.5143   26.1502   40.0443 H   0  0  0  0  0  0  0  0  0  0  0  0
   37.8431   27.3132   38.7652 H   0  0  0  0  0  0  0  0  0  0  0  0
   38.7830   29.4002   38.7219 H   0  0  0  0  0  0  0  0  0  0  0  0
   38.1718   30.2504   40.1316 H   0  0  0  0  0  0  0  0  0  0  0  0
   41.2600   30.6935   42.0967 H   0  0  0  0  0  0  0  0  0  0  0  0
   41.9348   28.5748   39.9087 H   0  0  0  0  0  0  0  0  0  0  0  0
  1  2  2  0
  2  3  1  0
  4  3  2  0
  5  4  1  0
  6  5  2  0
  6  1  1  0
  7  1  1  0
  7 10  1  0
  8  7  2  0
  9 14  2  0
 10 11  2  0
 10  9  1  0
 11 12  1  0
 12 13  2  0
 14 13  1  0
 15  5  1  0
 16 15  1  0
 17 22  1  0
 17 21  1  0
 18 17  1  0
 18 19  1  0
 19 20  1  0
 19 16  1  0
 20 21  1  0
  2 23  1  0
  3 24  1  0
  4 25  1  0
  9 26  1  0
 11 27  1  0
 13 28  1  0
 16 29  1  0
 16 30  1  0
 17 31  1  6
 18 32  1  0
 18 33  1  0
 19 34  1  6
 21 35  1  0
 21 36  1  0
 38 37  1  1
 38 39  1  0
 39 40  1  0
 38 41  1  0
 41 42  1  0
 42 43  1  0
 43 44  2  0
 43 45  1  0
 45 46  1  1
 45 47  1  0
 47 48  1  0
 48 38  1  0
 47 42  1  0
 37 49  1  0
 37 50  1  0
 39 51  1  0
 39 52  1  0
 41 53  1  0
 41 54  1  0
 45 55  1  0
 47 56  1  6
 22 37  1  0
M  ISO  8  23  14  24  14  25  14  26  14  27  14  28  14  29   8  30   8
M  ISO  8  31  13  32  13  33  13  34  13  35  13  36  13  40   8  46  15
M  END
>  <DihAtoms>  (1) 
16,21,36,37

>  <DihDeg>  (1) 
179.99841455190324

$$$$
