
 OpenBabel03262522273D

 49 53  0  0  1  0  0  0  0  0999 V2000
   34.7830   30.5360   49.7930 C   0  0  0  0  0  0  0  0  0  0  0  0
   34.1040   30.1520   50.6020 H   0  0  0  0  0  0  0  0  0  0  0  0
   34.6420   31.6260   49.6970 H   0  0  0  0  0  0  0  0  0  0  0  0
   34.4150   27.8100   49.9450 F   0  0  0  0  0  0  0  0  0  0  0  0
   34.2970   28.4370   48.7310 C   0  0  0  0  0  0  0  0  0  0  0  0
   34.4620   29.8100   48.5350 C   0  0  0  0  0  0  0  0  0  0  0  0
   34.3310   30.3710   47.3000 C   0  0  0  0  0  0  0  0  0  0  0  0
   34.0260   29.5790   46.1880 C   0  0  0  0  0  0  0  0  0  0  0  0
   33.8580   28.2240   46.3520 C   0  0  0  0  0  0  0  0  0  0  0  0
   33.9960   27.6700   47.6220 C   0  0  0  0  0  0  0  0  0  0  0  0
   34.4720   31.4290   47.2190 H   0  0  0  0  0  0  0  0  0  0  0  0
   33.9230   30.0280   45.2040 H   0  0  0  0  0  0  0  0  0  0  0  0
   33.6220   27.6250   45.4810 H   0  0  0  0  0  0  0  0  0  0  0  0
   33.8140   26.2900   47.7290 O   0  0  0  0  0  0  0  0  0  0  0  0
   32.6100   25.6550   47.3530 C   0  0  0  0  0  2  0  0  0  0  0  0
   33.0310   24.3440   46.6760 C   0  0  2  0  0  0  0  0  0  0  0  0
   34.4450   24.0580   47.0620 C   0  0  0  0  0  2  0  0  0  0  0  0
   35.2000   23.7110   45.9020 N   0  0  0  0  0  0  0  0  0  0  0  0
   36.0450   23.0660   44.9530 C   0  0  0  0  0  0  0  0  0  0  0  0
   36.8790   22.1240   45.0450 O   0  0  0  0  0  0  0  0  0  0  0  0
   35.6070   23.8850   43.8030 C   0  0  0  0  0  3  0  0  0  0  0  0
   36.4200   24.4030   43.2410 H   0  0  0  0  0  0  0  0  0  0  0  0
   35.0250   24.7520   44.8820 C   0  0  1  0  0  3  0  0  0  0  0  0
   33.1860   24.7650   44.8970 S   0  0  0  0  0  0  0  0  0  0  0  0
   32.0550   23.2500   46.9320 C   0  0  0  0  0  2  0  0  0  0  0  0
   31.1210   23.7380   47.3210 H   0  0  0  0  0  0  0  0  0  0  0  0
   36.4870   30.1010   50.2370 S   0  0  0  0  0  0  0  0  0  0  0  0
   38.7380   32.8570   48.3400 C   0  0  0  0  0  0  0  0  0  0  0  0
   39.0460   32.1890   47.1420 C   0  0  0  0  0  0  0  0  0  0  0  0
   38.5410   30.9330   46.9930 C   0  0  0  0  0  0  0  0  0  0  0  0
   37.7790   30.3970   47.9920 N   0  0  0  0  0  0  0  0  0  0  0  0
   37.5160   31.0480   49.0890 C   0  0  0  0  0  0  0  0  0  0  0  0
   37.9900   32.3230   49.3160 N   0  0  0  0  0  0  0  0  0  0  0  0
   39.1010   33.8580   48.5370 H   0  0  0  0  0  0  0  0  0  0  0  0
   38.7630   30.3980   46.0780 H   0  0  0  0  0  0  0  0  0  0  0  0
   39.8120   32.8290   46.2280 O   0  0  0  0  0  0  0  0  0  0  0  0
   39.9580   32.2910   44.9620 C   0  0  0  0  0  0  0  0  0  0  0  0
   40.6540   31.1610   44.6010 C   0  0  0  0  0  0  0  0  0  0  0  0
   40.6950   30.7750   43.3170 C   0  0  0  0  0  0  0  0  0  0  0  0
   40.0390   31.5180   42.3840 C   0  0  0  0  0  0  0  0  0  0  0  0
   39.3320   32.6680   42.7600 C   0  0  0  0  0  0  0  0  0  0  0  0
   39.3000   33.0470   44.0720 N   0  0  0  0  0  0  0  0  0  0  0  0
   41.1340   30.6570   45.4440 H   0  0  0  0  0  0  0  0  0  0  0  0
   41.2380   29.8980   43.0520 H   0  0  0  0  0  0  0  0  0  0  0  0
   40.0300   31.2640   41.3280 H   0  0  0  0  0  0  0  0  0  0  0  0
   38.5960   33.5010   41.7110 C   0  0  0  0  0  0  0  0  0  0  0  0
   38.2650   32.8710   40.8860 H   0  0  0  0  0  0  0  0  0  0  0  0
   37.8190   34.0300   42.2690 H   0  0  0  0  0  0  0  0  0  0  0  0
   39.3390   34.2690   41.3980 H   0  0  0  0  0  0  0  0  0  0  0  0
  1 27  1  0  0  0  0
  1  2  1  0  0  0  0
  3  1  1  0  0  0  0
  5  4  1  0  0  0  0
  6  5  1  0  0  0  0
  6  1  1  0  0  0  0
  7  6  2  0  0  0  0
  8  9  2  0  0  0  0
  8  7  1  0  0  0  0
  9 10  1  0  0  0  0
 10 14  1  0  0  0  0
 10  5  2  0  0  0  0
 11  7  1  0  0  0  0
 12  8  1  0  0  0  0
 13  9  1  0  0  0  0
 15 14  1  0  0  0  0
 16 25  1  1  0  0  0
 16 17  1  0  0  0  0
 16 15  1  0  0  0  0
 18 17  1  0  0  0  0
 19 20  2  0  0  0  0
 19 18  1  0  0  0  0
 21 19  1  0  0  0  0
 22 21  1  0  0  0  0
 23 21  1  6  0  0  0
 23 24  1  0  0  0  0
 23 18  1  0  0  0  0
 24 16  1  0  0  0  0
 25 26  1  0  0  0  0
 28 34  1  0  0  0  0
 28 33  1  0  0  0  0
 29 28  2  0  0  0  0
 30 29  1  0  0  0  0
 30 31  2  0  0  0  0
 31 32  1  0  0  0  0
 32 33  2  0  0  0  0
 32 27  1  0  0  0  0
 35 30  1  0  0  0  0
 36 29  1  0  0  0  0
 37 36  1  0  0  0  0
 38 37  1  0  0  0  0
 38 43  1  0  0  0  0
 39 38  2  0  0  0  0
 40 41  2  0  0  0  0
 40 39  1  0  0  0  0
 41 42  1  0  0  0  0
 42 37  2  0  0  0  0
 44 39  1  0  0  0  0
 45 40  1  0  0  0  0
 46 48  1  0  0  0  0
 46 41  1  0  0  0  0
 47 46  1  0  0  0  0
 49 46  1  0  0  0  0
M  END
>  <minimizedAffinity>
-5.98680687

>  <minimizedRMSD>
1.01108468

$$$$
