
     RDKit          3D

 57 61  0  0  0  0  0  0  0  0999 V2000
   38.7405   32.8711   48.3473 C   0  0  0  0  0  0  0  0  0  0  0  0
   39.0461   32.2028   47.1478 C   0  0  0  0  0  0  0  0  0  0  0  0
   38.5396   30.9468   46.9995 C   0  0  0  0  0  0  0  0  0  0  0  0
   37.7788   30.4123   47.9987 N   0  0  0  0  0  0  0  0  0  0  0  0
   37.5169   31.0622   49.0963 C   0  0  0  0  0  0  0  0  0  0  0  0
   37.9925   32.3375   49.3226 N   0  0  0  0  0  0  0  0  0  0  0  0
   39.8116   32.8416   46.2337 O   0  0  0  0  0  0  0  0  0  0  0  0
   39.9585   32.3028   44.9681 C   0  0  0  0  0  0  0  0  0  0  0  0
   40.6580   31.1736   44.6093 C   0  0  0  0  0  0  0  0  0  0  0  0
   40.7000   30.7860   43.3256 C   0  0  0  0  0  0  0  0  0  0  0  0
   40.0423   31.5258   42.3924 C   0  0  0  0  0  0  0  0  0  0  0  0
   39.3319   32.6748   42.7657 C   0  0  0  0  0  0  0  0  0  0  0  0
   39.2989   33.0562   44.0770 N   0  0  0  0  0  0  0  0  0  0  0  0
   38.5936   33.5048   41.7159 C   0  0  0  0  0  0  0  0  0  0  0  0
   36.4881   30.1158   50.2454 S   0  0  0  0  0  0  0  0  0  0  0  0
   34.7843   30.5426   49.7948 C   0  0  0  0  0  0  0  0  0  0  0  0
   34.4646   27.8111   49.9412 F   0  0  0  0  0  0  0  0  0  0  0  0
   34.3311   28.4394   48.7294 C   0  0  0  0  0  0  0  0  0  0  0  0
   34.4711   29.8153   48.5359 C   0  0  0  0  0  0  0  0  0  0  0  0
   34.3255   30.3772   47.3031 C   0  0  0  0  0  0  0  0  0  0  0  0
   34.0294   29.5820   46.1902 C   0  0  0  0  0  0  0  0  0  0  0  0
   33.8859   28.2237   46.3514 C   0  0  0  0  0  0  0  0  0  0  0  0
   34.0386   27.6685   47.6194 C   0  0  0  0  0  0  0  0  0  0  0  0
   33.8822   26.2860   47.7242 O   0  0  0  0  0  0  0  0  0  0  0  0
   39.1037   33.8712   48.5438 H   0  0  0  0  0  0  0  0  0  0  0  0
   38.7612   30.4115   46.0837 H   0  0  0  0  0  0  0  0  0  0  0  0
   41.1392   30.6731   45.4530 H   0  0  0  0  0  0  0  0  0  0  0  0
   41.2454   29.9096   43.0623 H   0  0  0  0  0  0  0  0  0  0  0  0
   40.0335   31.2710   41.3356 H   0  0  0  0  0  0  0  0  0  0  0  0
   38.2642   32.8725   40.8916 H   0  0  0  0  0  0  0  0  0  0  0  0
   37.8153   34.0326   42.2729 H   0  0  0  0  0  0  0  0  0  0  0  0
   39.3346   34.2740   41.4017 H   0  0  0  0  0  0  0  0  0  0  0  0
   34.1037   30.1573   50.6022 H   0  0  0  0  0  0  0  0  0  0  0  0
   34.6390   31.6319   49.6969 H   0  0  0  0  0  0  0  0  0  0  0  0
   34.4457   31.4374   47.2239 H   0  0  0  0  0  0  0  0  0  0  0  0
   33.9137   30.0320   45.2084 H   0  0  0  0  0  0  0  0  0  0  0  0
   33.6569   27.6234   45.4803 H   0  0  0  0  0  0  0  0  0  0  0  0
   33.5832   25.4732   46.6080 C   0  0  0  0  0  0  0  0  0  0  0  0
   34.8934   24.7513   46.2640 C   0  0  2  0  0  0  0  0  0  0  0  0
   35.3804   23.9172   47.3954 C   0  0  0  0  0  0  0  0  0  0  0  0
   34.5194   23.8113   48.1098 H   0  0  0  0  0  0  0  0  0  0  0  0
   35.8567   25.7655   45.7412 C   0  0  0  0  0  0  0  0  0  0  0  0
   36.4656   25.2814   44.5449 N   0  0  0  0  0  0  0  0  0  0  0  0
   37.3889   24.8827   43.5364 C   0  0  0  0  0  0  0  0  0  0  0  0
   38.6224   25.0888   43.3696 O   0  0  0  0  0  0  0  0  0  0  0  0
   36.3991   24.1318   42.7351 C   0  0  1  0  0  0  0  0  0  0  0  0
   36.3161   24.4325   41.6641 H   0  0  0  0  0  0  0  0  0  0  0  0
   35.4176   24.8657   43.6046 C   0  0  1  0  0  0  0  0  0  0  0  0
   34.5065   23.7679   44.7640 S   0  0  0  0  0  0  0  0  0  0  0  0
   32.7670   24.7425   46.8028 H   0  0  0  0  0  0  0  0  0  0  0  0
   33.3449   26.1682   45.7778 H   0  0  0  0  0  0  0  0  0  0  0  0
   35.7430   22.9092   47.0973 H   0  0  0  0  0  0  0  0  0  0  0  0
   36.1410   24.5097   47.9546 H   0  0  0  0  0  0  0  0  0  0  0  0
   35.3976   26.7740   45.6592 H   0  0  0  0  0  0  0  0  0  0  0  0
   36.6467   25.8727   46.5204 H   0  0  0  0  0  0  0  0  0  0  0  0
   36.3491   23.0382   42.9389 H   0  0  0  0  0  0  0  0  0  0  0  0
   34.8247   25.6637   43.1594 H   0  0  0  0  0  0  0  0  0  0  0  0
  1  6  2  0
  2  1  1  0
  3  2  2  0
  3  4  1  0
  4  5  2  0
  5  6  1  0
  5 15  1  0
  7  2  1  0
  8  7  1  0
  9  8  2  0
 10  9  1  0
 11 12  1  0
 11 10  2  0
 12 13  2  0
 13  8  1  0
 14 12  1  0
 16 15  1  0
 18 17  1  0
 19 18  2  0
 19 16  1  0
 20 19  1  0
 21 22  1  0
 21 20  2  0
 22 23  2  0
 23 24  1  0
 23 18  1  0
  1 25  1  0
  3 26  1  0
  9 27  1  0
 10 28  1  0
 11 29  1  0
 14 30  1  0
 14 31  1  0
 14 32  1  0
 16 33  1  0
 16 34  1  0
 20 35  1  0
 21 36  1  0
 22 37  1  0
 39 38  1  1
 39 40  1  0
 40 41  1  0
 39 42  1  0
 42 43  1  0
 43 44  1  0
 44 45  2  0
 44 46  1  0
 46 47  1  6
 46 48  1  0
 48 49  1  0
 49 39  1  0
 48 43  1  0
 38 50  1  0
 38 51  1  0
 40 52  1  0
 40 53  1  0
 42 54  1  0
 42 55  1  0
 46 56  1  0
 48 57  1  6
 24 38  1  0
M  ISO  8  25  14  26  14  27  14  28  14  29  14  30   8  31   8  32   8
M  ISO  7  33   8  34   8  35  14  36  14  37  14  41   8  47  15
M  END
>  <DihAtoms>  (1) 
22,23,37,38

>  <DihDeg>  (1) 
179.99907495633818

$$$$
