
 OpenBabel03262522273D

 49 53  0  0  1  0  0  0  0  0999 V2000
   34.9020   30.5540   49.7320 C   0  0  0  0  0  0  0  0  0  0  0  0
   34.2370   30.1910   50.5620 H   0  0  0  0  0  0  0  0  0  0  0  0
   34.7720   31.6430   49.6220 H   0  0  0  0  0  0  0  0  0  0  0  0
   34.5440   27.8290   49.9260 F   0  0  0  0  0  0  0  0  0  0  0  0
   34.3880   28.4420   48.7090 C   0  0  0  0  0  0  0  0  0  0  0  0
   34.5440   29.8130   48.4930 C   0  0  0  0  0  0  0  0  0  0  0  0
   34.3750   30.3600   47.2560 C   0  0  0  0  0  0  0  0  0  0  0  0
   34.0370   29.5540   46.1630 C   0  0  0  0  0  0  0  0  0  0  0  0
   33.8770   28.2010   46.3470 C   0  0  0  0  0  0  0  0  0  0  0  0
   34.0550   27.6610   47.6190 C   0  0  0  0  0  0  0  0  0  0  0  0
   34.5100   31.4160   47.1580 H   0  0  0  0  0  0  0  0  0  0  0  0
   33.9040   29.9920   45.1770 H   0  0  0  0  0  0  0  0  0  0  0  0
   33.6160   27.5910   45.4910 H   0  0  0  0  0  0  0  0  0  0  0  0
   33.8790   26.2830   47.7480 O   0  0  0  0  0  0  0  0  0  0  0  0
   33.0350   25.5450   46.8880 C   0  0  0  0  0  2  0  0  0  0  0  0
   33.8010   24.2540   46.5700 C   0  0  2  0  0  0  0  0  0  0  0  0
   34.9290   24.5970   45.6540 C   0  0  0  0  0  2  0  0  0  0  0  0
   34.9620   23.6790   44.5630 N   0  0  0  0  0  0  0  0  0  0  0  0
   35.3530   22.7240   43.5810 C   0  0  0  0  0  0  0  0  0  0  0  0
   36.4770   22.3060   43.1870 O   0  0  0  0  0  0  0  0  0  0  0  0
   33.9760   22.3790   43.1700 C   0  0  0  0  0  3  0  0  0  0  0  0
   33.7560   22.4840   42.0820 H   0  0  0  0  0  0  0  0  0  0  0  0
   33.6360   23.6270   43.9370 C   0  0  1  0  0  3  0  0  0  0  0  0
   32.6800   23.3020   45.4730 S   0  0  0  0  0  0  0  0  0  0  0  0
   34.1720   23.5120   47.8060 C   0  0  0  0  0  2  0  0  0  0  0  0
   33.5540   23.9440   48.6380 H   0  0  0  0  0  0  0  0  0  0  0  0
   36.6100   30.1050   50.1450 S   0  0  0  0  0  0  0  0  0  0  0  0
   38.8370   32.8590   48.2170 C   0  0  0  0  0  0  0  0  0  0  0  0
   39.1340   32.1880   47.0180 C   0  0  0  0  0  0  0  0  0  0  0  0
   38.6300   30.9300   46.8780 C   0  0  0  0  0  0  0  0  0  0  0  0
   37.8790   30.3960   47.8860 N   0  0  0  0  0  0  0  0  0  0  0  0
   37.6260   31.0490   48.9830 C   0  0  0  0  0  0  0  0  0  0  0  0
   38.0990   32.3260   49.2020 N   0  0  0  0  0  0  0  0  0  0  0  0
   39.2000   33.8600   48.4070 H   0  0  0  0  0  0  0  0  0  0  0  0
   38.8440   30.3920   45.9620 H   0  0  0  0  0  0  0  0  0  0  0  0
   39.8900   32.8250   46.0950 O   0  0  0  0  0  0  0  0  0  0  0  0
   39.9960   32.3030   44.8180 C   0  0  0  0  0  0  0  0  0  0  0  0
   40.6390   31.1500   44.4300 C   0  0  0  0  0  0  0  0  0  0  0  0
   40.6460   30.7830   43.1400 C   0  0  0  0  0  0  0  0  0  0  0  0
   40.0100   31.5680   42.2280 C   0  0  0  0  0  0  0  0  0  0  0  0
   39.3570   32.7410   42.6310 C   0  0  0  0  0  0  0  0  0  0  0  0
   39.3590   33.1000   43.9490 N   0  0  0  0  0  0  0  0  0  0  0  0
   41.1080   30.6140   45.2580 H   0  0  0  0  0  0  0  0  0  0  0  0
   41.1480   29.8890   42.8530 H   0  0  0  0  0  0  0  0  0  0  0  0
   39.9750   31.3330   41.1680 H   0  0  0  0  0  0  0  0  0  0  0  0
   38.6430   33.6210   41.6060 C   0  0  0  0  0  0  0  0  0  0  0  0
   38.2740   33.0190   40.7760 H   0  0  0  0  0  0  0  0  0  0  0  0
   37.8960   34.1740   42.1830 H   0  0  0  0  0  0  0  0  0  0  0  0
   39.4130   34.3620   41.2950 H   0  0  0  0  0  0  0  0  0  0  0  0
  1 27  1  0  0  0  0
  1  2  1  0  0  0  0
  3  1  1  0  0  0  0
  5  4  1  0  0  0  0
  6  5  1  0  0  0  0
  6  1  1  0  0  0  0
  7  6  2  0  0  0  0
  8  9  2  0  0  0  0
  8  7  1  0  0  0  0
  9 10  1  0  0  0  0
 10 14  1  0  0  0  0
 10  5  2  0  0  0  0
 11  7  1  0  0  0  0
 12  8  1  0  0  0  0
 13  9  1  0  0  0  0
 15 14  1  0  0  0  0
 16 15  1  1  0  0  0
 16 25  1  0  0  0  0
 17 16  1  0  0  0  0
 18 17  1  0  0  0  0
 19 18  1  0  0  0  0
 20 19  2  0  0  0  0
 21 19  1  0  0  0  0
 22 21  1  0  0  0  0
 23 21  1  6  0  0  0
 23 18  1  0  0  0  0
 23 24  1  0  0  0  0
 24 16  1  0  0  0  0
 25 26  1  0  0  0  0
 28 34  1  0  0  0  0
 28 33  1  0  0  0  0
 29 28  2  0  0  0  0
 30 29  1  0  0  0  0
 30 31  2  0  0  0  0
 31 32  1  0  0  0  0
 32 33  2  0  0  0  0
 32 27  1  0  0  0  0
 35 30  1  0  0  0  0
 36 29  1  0  0  0  0
 37 36  1  0  0  0  0
 38 37  1  0  0  0  0
 38 43  1  0  0  0  0
 39 38  2  0  0  0  0
 40 41  2  0  0  0  0
 40 39  1  0  0  0  0
 41 42  1  0  0  0  0
 42 37  2  0  0  0  0
 44 39  1  0  0  0  0
 45 40  1  0  0  0  0
 46 48  1  0  0  0  0
 46 41  1  0  0  0  0
 47 46  1  0  0  0  0
 49 46  1  0  0  0  0
M  END
>  <minimizedAffinity>
-5.84903955

>  <minimizedRMSD>
1.42357123

$$$$
