
 OpenBabel03262522273D

 49 53  0  0  1  0  0  0  0  0999 V2000
   34.8920   30.5280   49.6470 C   0  0  0  0  0  0  0  0  0  0  0  0
   34.2200   30.1860   50.4800 H   0  0  0  0  0  0  0  0  0  0  0  0
   34.7620   31.6140   49.5070 H   0  0  0  0  0  0  0  0  0  0  0  0
   34.5000   27.8150   49.9140 F   0  0  0  0  0  0  0  0  0  0  0  0
   34.3700   28.3930   48.6770 C   0  0  0  0  0  0  0  0  0  0  0  0
   34.5450   29.7550   48.4230 C   0  0  0  0  0  0  0  0  0  0  0  0
   34.4020   30.2680   47.1690 C   0  0  0  0  0  0  0  0  0  0  0  0
   34.0720   29.4340   46.0940 C   0  0  0  0  0  0  0  0  0  0  0  0
   33.8940   28.0890   46.3150 C   0  0  0  0  0  0  0  0  0  0  0  0
   34.0460   27.5850   47.6040 C   0  0  0  0  0  0  0  0  0  0  0  0
   34.5510   31.3200   47.0430 H   0  0  0  0  0  0  0  0  0  0  0  0
   33.9590   29.8440   45.0950 H   0  0  0  0  0  0  0  0  0  0  0  0
   33.6400   27.4570   45.4730 H   0  0  0  0  0  0  0  0  0  0  0  0
   33.8520   26.2120   47.7710 O   0  0  0  0  0  0  0  0  0  0  0  0
   33.0570   25.4490   46.8870 C   0  0  0  0  0  2  0  0  0  0  0  0
   33.8470   24.1590   46.6340 C   0  0  2  0  0  0  0  0  0  0  0  0
   34.9800   24.4820   45.7160 C   0  0  0  0  0  2  0  0  0  0  0  0
   35.0410   23.5190   44.6660 N   0  0  0  0  0  0  0  0  0  0  0  0
   35.4600   22.5300   43.7300 C   0  0  0  0  0  0  0  0  0  0  0  0
   36.5950   22.1150   43.3660 O   0  0  0  0  0  0  0  0  0  0  0  0
   34.0930   22.1440   43.3200 C   0  0  0  0  0  3  0  0  0  0  0  0
   33.8840   22.1970   42.2260 H   0  0  0  0  0  0  0  0  0  0  0  0
   33.7230   23.4170   44.0280 C   0  0  1  0  0  3  0  0  0  0  0  0
   32.7560   23.1410   45.5660 S   0  0  0  0  0  0  0  0  0  0  0  0
   34.2170   23.4770   47.9030 C   0  0  0  0  0  2  0  0  0  0  0  0
   33.5830   23.9350   48.7100 H   0  0  0  0  0  0  0  0  0  0  0  0
   36.5960   30.0920   50.0850 S   0  0  0  0  0  0  0  0  0  0  0  0
   38.8440   32.8410   48.1740 C   0  0  0  0  0  0  0  0  0  0  0  0
   39.1470   32.1700   46.9760 C   0  0  0  0  0  0  0  0  0  0  0  0
   38.6400   30.9140   46.8320 C   0  0  0  0  0  0  0  0  0  0  0  0
   37.8810   30.3820   47.8350 N   0  0  0  0  0  0  0  0  0  0  0  0
   37.6230   31.0340   48.9310 C   0  0  0  0  0  0  0  0  0  0  0  0
   38.0990   32.3100   49.1540 N   0  0  0  0  0  0  0  0  0  0  0  0
   39.2090   33.8410   48.3680 H   0  0  0  0  0  0  0  0  0  0  0  0
   38.8580   30.3770   45.9170 H   0  0  0  0  0  0  0  0  0  0  0  0
   39.9110   32.8060   46.0590 O   0  0  0  0  0  0  0  0  0  0  0  0
   40.0070   32.2960   44.7760 C   0  0  0  0  0  0  0  0  0  0  0  0
   40.6390   31.1420   44.3740 C   0  0  0  0  0  0  0  0  0  0  0  0
   40.6380   30.7880   43.0800 C   0  0  0  0  0  0  0  0  0  0  0  0
   40.0040   31.5870   42.1790 C   0  0  0  0  0  0  0  0  0  0  0  0
   39.3620   32.7610   42.5970 C   0  0  0  0  0  0  0  0  0  0  0  0
   39.3720   33.1070   43.9180 N   0  0  0  0  0  0  0  0  0  0  0  0
   41.1070   30.5930   45.1950 H   0  0  0  0  0  0  0  0  0  0  0  0
   41.1310   29.8920   42.7830 H   0  0  0  0  0  0  0  0  0  0  0  0
   39.9630   31.3620   41.1170 H   0  0  0  0  0  0  0  0  0  0  0  0
   38.6510   33.6570   41.5840 C   0  0  0  0  0  0  0  0  0  0  0  0
   38.2740   33.0660   40.7490 H   0  0  0  0  0  0  0  0  0  0  0  0
   37.9110   34.2100   42.1690 H   0  0  0  0  0  0  0  0  0  0  0  0
   39.4260   34.3950   41.2760 H   0  0  0  0  0  0  0  0  0  0  0  0
  1 27  1  0  0  0  0
  1  2  1  0  0  0  0
  3  1  1  0  0  0  0
  5  4  1  0  0  0  0
  6  5  1  0  0  0  0
  6  1  1  0  0  0  0
  7  6  2  0  0  0  0
  8  9  2  0  0  0  0
  8  7  1  0  0  0  0
  9 10  1  0  0  0  0
 10 14  1  0  0  0  0
 10  5  2  0  0  0  0
 11  7  1  0  0  0  0
 12  8  1  0  0  0  0
 13  9  1  0  0  0  0
 15 14  1  0  0  0  0
 16 15  1  1  0  0  0
 16 25  1  0  0  0  0
 17 16  1  0  0  0  0
 18 17  1  0  0  0  0
 19 18  1  0  0  0  0
 20 19  2  0  0  0  0
 21 19  1  0  0  0  0
 22 21  1  0  0  0  0
 23 21  1  6  0  0  0
 23 18  1  0  0  0  0
 23 24  1  0  0  0  0
 24 16  1  0  0  0  0
 25 26  1  0  0  0  0
 28 34  1  0  0  0  0
 28 33  1  0  0  0  0
 29 28  2  0  0  0  0
 30 29  1  0  0  0  0
 30 31  2  0  0  0  0
 31 32  1  0  0  0  0
 32 33  2  0  0  0  0
 32 27  1  0  0  0  0
 35 30  1  0  0  0  0
 36 29  1  0  0  0  0
 37 36  1  0  0  0  0
 38 37  1  0  0  0  0
 38 43  1  0  0  0  0
 39 38  2  0  0  0  0
 40 41  2  0  0  0  0
 40 39  1  0  0  0  0
 41 42  1  0  0  0  0
 42 37  2  0  0  0  0
 44 39  1  0  0  0  0
 45 40  1  0  0  0  0
 46 48  1  0  0  0  0
 46 41  1  0  0  0  0
 47 46  1  0  0  0  0
 49 46  1  0  0  0  0
M  END
>  <minimizedAffinity>
-5.85325098

>  <minimizedRMSD>
1.06700659

$$$$
