REMARK  Name = 
REMARK  10 active torsions:
REMARK  status: ('A' for Active; 'I' for Inactive)
REMARK    1  A    between atoms: C_2  and  O_7
REMARK    2  A    between atoms: C_5  and  S_15
REMARK    3  A    between atoms: O_7  and  C_8
REMARK    4  A    between atoms: C_12  and  C_14
REMARK    5  A    between atoms: S_15  and  C_16
REMARK    6  A    between atoms: C_16  and  C_19
REMARK    7  A    between atoms: C_23  and  O_24
REMARK    8  A    between atoms: O_24  and  C_38
REMARK    9  A    between atoms: C_38  and  C_39
REMARK   10  A    between atoms: C_39  and  C_40
REMARK                            x       y       z     vdW  Elec       q    Type
REMARK                         _______ _______ _______ _____ _____    ______ ____
ROOT
ATOM      1  C   UNL     1      34.784  30.543  49.795  0.00  0.00    +0.000 C 
ATOM      2  H   UNL     1      34.104  30.157  50.602  0.00  0.00    +0.000 HD
ATOM      3  H   UNL     1      34.639  31.632  49.697  0.00  0.00    +0.000 HD
ENDROOT
BRANCH   1   6
ATOM      4  F   UNL     1      34.465  27.811  49.941  0.00  0.00    +0.000 F 
ATOM      5  C   UNL     1      34.331  28.439  48.729  0.00  0.00    +0.000 A 
ATOM      6  C   UNL     1      34.471  29.815  48.536  0.00  0.00    +0.000 A 
ATOM      7  C   UNL     1      34.325  30.377  47.303  0.00  0.00    +0.000 A 
ATOM      8  C   UNL     1      34.029  29.582  46.190  0.00  0.00    +0.000 A 
ATOM      9  C   UNL     1      33.886  28.224  46.351  0.00  0.00    +0.000 A 
ATOM     10  C   UNL     1      34.039  27.669  47.619  0.00  0.00    +0.000 A 
ATOM     11  H   UNL     1      34.446  31.437  47.224  0.00  0.00    +0.000 HD
ATOM     12  H   UNL     1      33.914  30.032  45.208  0.00  0.00    +0.000 HD
ATOM     13  H   UNL     1      33.657  27.623  45.480  0.00  0.00    +0.000 HD
BRANCH  10  14
ATOM     14  O   UNL     1      33.882  26.286  47.724  0.00  0.00    +0.000 OA
BRANCH  14  15
ATOM     15  C   UNL     1      33.583  25.473  46.608  0.00  0.00    +0.000 C 
BRANCH  15  16
ATOM     16  C   UNL     1      32.475  24.521  47.080  0.00  0.00    +0.000 C 
ATOM     17  C   UNL     1      33.067  23.582  48.078  0.00  0.00    +0.000 C 
ATOM     18  N   UNL     1      32.680  22.243  47.771  0.00  0.00    +0.000 N 
ATOM     19  C   UNL     1      32.184  20.909  47.824  0.00  0.00    +0.000 C 
ATOM     20  O   UNL     1      31.870  20.145  48.778  0.00  0.00    +0.000 OA
ATOM     21  C   UNL     1      32.160  20.715  46.359  0.00  0.00    +0.000 C 
ATOM     22  H   UNL     1      32.721  19.829  45.979  0.00  0.00    +0.000 HD
ATOM     23  C   UNL     1      33.006  21.957  46.369  0.00  0.00    +0.000 C 
ATOM     24  S   UNL     1      32.162  23.421  45.645  0.00  0.00    +0.000 S 
BRANCH  16  25
ATOM     25  C   UNL     1      31.262  25.258  47.522  0.00  0.00    +0.000 C 
ATOM     26  H   UNL     1      31.366  26.309  47.136  0.00  0.00    +0.000 HD
ENDBRANCH  16  25
ENDBRANCH  15  16
ENDBRANCH  14  15
ENDBRANCH  10  14
ENDBRANCH   1   6
BRANCH   1  27
ATOM     27  S   UNL     1      36.488  30.116  50.245  0.00  0.00    +0.000 S 
BRANCH  27  32
ATOM     28  C   UNL     1      38.740  32.871  48.347  0.00  0.00    +0.000 A 
ATOM     29  C   UNL     1      39.046  32.203  47.148  0.00  0.00    +0.000 A 
ATOM     30  C   UNL     1      38.540  30.947  46.999  0.00  0.00    +0.000 A 
ATOM     31  N   UNL     1      37.779  30.412  47.999  0.00  0.00    +0.000 NA
ATOM     32  C   UNL     1      37.517  31.062  49.096  0.00  0.00    +0.000 A 
ATOM     33  N   UNL     1      37.992  32.337  49.323  0.00  0.00    +0.000 NA
ATOM     34  H   UNL     1      39.104  33.871  48.544  0.00  0.00    +0.000 HD
ATOM     35  H   UNL     1      38.761  30.412  46.084  0.00  0.00    +0.000 HD
BRANCH  29  36
ATOM     36  O   UNL     1      39.812  32.842  46.234  0.00  0.00    +0.000 OA
BRANCH  36  37
ATOM     37  C   UNL     1      39.959  32.303  44.968  0.00  0.00    +0.000 A 
ATOM     38  C   UNL     1      40.658  31.174  44.609  0.00  0.00    +0.000 A 
ATOM     39  C   UNL     1      40.700  30.786  43.326  0.00  0.00    +0.000 A 
ATOM     40  C   UNL     1      40.042  31.526  42.392  0.00  0.00    +0.000 A 
ATOM     41  C   UNL     1      39.332  32.675  42.766  0.00  0.00    +0.000 A 
ATOM     42  N   UNL     1      39.299  33.056  44.077  0.00  0.00    +0.000 NA
ATOM     43  H   UNL     1      41.139  30.673  45.453  0.00  0.00    +0.000 HD
ATOM     44  H   UNL     1      41.245  29.910  43.062  0.00  0.00    +0.000 HD
ATOM     45  H   UNL     1      40.033  31.271  41.336  0.00  0.00    +0.000 HD
BRANCH  41  46
ATOM     46  C   UNL     1      38.594  33.505  41.716  0.00  0.00    +0.000 C 
ATOM     47  H   UNL     1      38.264  32.873  40.892  0.00  0.00    +0.000 HD
ATOM     48  H   UNL     1      37.815  34.033  42.273  0.00  0.00    +0.000 HD
ATOM     49  H   UNL     1      39.335  34.274  41.402  0.00  0.00    +0.000 HD
ENDBRANCH  41  46
ENDBRANCH  36  37
ENDBRANCH  29  36
ENDBRANCH  27  32
ENDBRANCH   1  27
TORSDOF 10
