
 OpenBabel03262522273D

 49 53  0  0  1  0  0  0  0  0999 V2000
   34.7830   30.5130   49.7970 C   0  0  0  0  0  0  0  0  0  0  0  0
   34.1050   30.1150   50.5990 H   0  0  0  0  0  0  0  0  0  0  0  0
   34.6340   31.6030   49.7120 H   0  0  0  0  0  0  0  0  0  0  0  0
   34.4470   27.7820   49.9150 F   0  0  0  0  0  0  0  0  0  0  0  0
   34.3230   28.4230   48.7080 C   0  0  0  0  0  0  0  0  0  0  0  0
   34.4720   29.8000   48.5290 C   0  0  0  0  0  0  0  0  0  0  0  0
   34.3350   30.3740   47.3010 C   0  0  0  0  0  0  0  0  0  0  0  0
   34.0400   29.5920   46.1790 C   0  0  0  0  0  0  0  0  0  0  0  0
   33.8880   28.2330   46.3260 C   0  0  0  0  0  0  0  0  0  0  0  0
   34.0320   27.6650   47.5890 C   0  0  0  0  0  0  0  0  0  0  0  0
   34.4630   31.4340   47.2330 H   0  0  0  0  0  0  0  0  0  0  0  0
   33.9330   30.0520   45.2010 H   0  0  0  0  0  0  0  0  0  0  0  0
   33.6600   27.6420   45.4480 H   0  0  0  0  0  0  0  0  0  0  0  0
   33.8660   26.2820   47.6800 O   0  0  0  0  0  0  0  0  0  0  0  0
   33.6910   25.4660   46.5400 C   0  0  0  0  0  2  0  0  0  0  0  0
   32.4010   24.6740   46.7990 C   0  0  2  0  0  0  0  0  0  0  0  0
   32.6720   23.6960   47.8930 C   0  0  0  0  0  2  0  0  0  0  0  0
   32.1800   22.4080   47.5230 N   0  0  0  0  0  0  0  0  0  0  0  0
   31.5160   21.1480   47.4860 C   0  0  0  0  0  0  0  0  0  0  0  0
   30.9340   20.4560   48.3670 O   0  0  0  0  0  0  0  0  0  0  0  0
   31.7400   20.9190   46.0430 C   0  0  0  0  0  3  0  0  0  0  0  0
   32.2440   19.9600   45.7790 H   0  0  0  0  0  0  0  0  0  0  0  0
   32.7220   22.0450   46.2080 C   0  0  1  0  0  3  0  0  0  0  0  0
   32.2220   23.5830   45.3340 S   0  0  0  0  0  0  0  0  0  0  0  0
   31.2320   25.5690   47.0020 C   0  0  0  0  0  2  0  0  0  0  0  0
   31.5400   26.5880   46.6390 H   0  0  0  0  0  0  0  0  0  0  0  0
   36.4890   30.0870   50.2400 S   0  0  0  0  0  0  0  0  0  0  0  0
   38.7270   32.8570   48.3460 C   0  0  0  0  0  0  0  0  0  0  0  0
   39.0370   32.1920   47.1470 C   0  0  0  0  0  0  0  0  0  0  0  0
   38.5390   30.9330   46.9970 C   0  0  0  0  0  0  0  0  0  0  0  0
   37.7800   30.3930   47.9960 N   0  0  0  0  0  0  0  0  0  0  0  0
   37.5130   31.0400   49.0930 C   0  0  0  0  0  0  0  0  0  0  0  0
   37.9810   32.3180   49.3210 N   0  0  0  0  0  0  0  0  0  0  0  0
   39.0850   33.8590   48.5440 H   0  0  0  0  0  0  0  0  0  0  0  0
   38.7630   30.4000   46.0810 H   0  0  0  0  0  0  0  0  0  0  0  0
   39.8000   32.8360   46.2340 O   0  0  0  0  0  0  0  0  0  0  0  0
   39.9520   32.2980   44.9680 C   0  0  0  0  0  0  0  0  0  0  0  0
   40.6520   31.1690   44.6100 C   0  0  0  0  0  0  0  0  0  0  0  0
   40.6990   30.7830   43.3270 C   0  0  0  0  0  0  0  0  0  0  0  0
   40.0450   31.5240   42.3910 C   0  0  0  0  0  0  0  0  0  0  0  0
   39.3340   32.6730   42.7640 C   0  0  0  0  0  0  0  0  0  0  0  0
   39.2960   33.0530   44.0750 N   0  0  0  0  0  0  0  0  0  0  0  0
   41.1290   30.6670   45.4560 H   0  0  0  0  0  0  0  0  0  0  0  0
   41.2440   29.9060   43.0640 H   0  0  0  0  0  0  0  0  0  0  0  0
   40.0400   31.2700   41.3350 H   0  0  0  0  0  0  0  0  0  0  0  0
   38.6010   33.5050   41.7120 C   0  0  0  0  0  0  0  0  0  0  0  0
   38.2740   32.8740   40.8860 H   0  0  0  0  0  0  0  0  0  0  0  0
   37.8200   34.0330   42.2670 H   0  0  0  0  0  0  0  0  0  0  0  0
   39.3440   34.2740   41.4020 H   0  0  0  0  0  0  0  0  0  0  0  0
  1 27  1  0  0  0  0
  1  2  1  0  0  0  0
  3  1  1  0  0  0  0
  5  4  1  0  0  0  0
  6  5  1  0  0  0  0
  6  1  1  0  0  0  0
  7  6  2  0  0  0  0
  8  9  2  0  0  0  0
  8  7  1  0  0  0  0
  9 10  1  0  0  0  0
 10 14  1  0  0  0  0
 10  5  2  0  0  0  0
 11  7  1  0  0  0  0
 12  8  1  0  0  0  0
 13  9  1  0  0  0  0
 15 14  1  0  0  0  0
 16 15  1  6  0  0  0
 16 25  1  0  0  0  0
 16 17  1  0  0  0  0
 18 17  1  0  0  0  0
 19 18  1  0  0  0  0
 19 20  2  0  0  0  0
 21 23  1  0  0  0  0
 21 19  1  0  0  0  0
 22 21  1  0  0  0  0
 23 24  1  6  0  0  0
 23 18  1  0  0  0  0
 24 16  1  0  0  0  0
 26 25  1  0  0  0  0
 28 34  1  0  0  0  0
 28 33  1  0  0  0  0
 29 28  2  0  0  0  0
 30 29  1  0  0  0  0
 30 31  2  0  0  0  0
 31 32  1  0  0  0  0
 32 33  2  0  0  0  0
 32 27  1  0  0  0  0
 35 30  1  0  0  0  0
 36 29  1  0  0  0  0
 37 36  1  0  0  0  0
 38 37  1  0  0  0  0
 38 43  1  0  0  0  0
 39 38  2  0  0  0  0
 40 41  2  0  0  0  0
 40 39  1  0  0  0  0
 41 42  1  0  0  0  0
 42 37  2  0  0  0  0
 44 39  1  0  0  0  0
 45 40  1  0  0  0  0
 46 48  1  0  0  0  0
 46 41  1  0  0  0  0
 47 46  1  0  0  0  0
 49 46  1  0  0  0  0
M  END
>  <minimizedAffinity>
-6.21740961

>  <minimizedRMSD>
0.314543188

$$$$
