
 OpenBabel03262522173D

 48 53  0  0  1  0  0  0  0  0999 V2000
   36.3650   30.8980   31.6700 C   0  0  0  0  0  0  0  0  0  0  0  0
   36.9980   31.2350   30.8520 H   0  0  0  0  0  0  0  0  0  0  0  0
   36.9550   30.7540   32.6110 H   0  0  0  0  0  0  0  0  0  0  0  0
   36.1540   27.3790   31.8940 C   0  0  1  0  0  0  0  0  0  0  0  0
   35.6600   28.6660   32.5040 C   0  0  0  0  0  0  0  0  0  0  0  0
   35.6860   29.5900   31.3200 C   0  0  2  0  0  0  0  0  0  0  0  0
   36.2870   28.9310   30.2850 O   0  0  0  0  0  0  0  0  0  0  0  0
   37.0600   27.9000   30.8110 C   0  0  0  0  0  0  0  0  0  0  0  0
   35.3140   26.8420   31.4320 H   0  0  0  0  0  0  0  0  0  0  0  0
   34.6270   28.5530   32.8860 H   0  0  0  0  0  0  0  0  0  0  0  0
   36.3830   28.9910   33.2760 H   0  0  0  0  0  0  0  0  0  0  0  0
   34.6360   29.8350   31.0220 H   0  0  0  0  0  0  0  0  0  0  0  0
   38.0050   28.2450   31.2550 H   0  0  0  0  0  0  0  0  0  0  0  0
   37.2320   27.1930   29.9810 H   0  0  0  0  0  0  0  0  0  0  0  0
   36.8450   26.5970   32.8230 O   0  0  0  0  0  0  0  0  0  0  0  0
   37.3020   27.3250   33.8850 C   0  0  0  0  0  2  0  0  0  0  0  0
   38.3500   26.4810   34.6240 C   0  0  1  0  0  0  0  0  0  0  0  0
   38.1900   26.4910   36.0740 C   0  0  0  0  0  2  0  0  0  0  0  0
   38.2410   25.2250   36.6480 N   0  0  1  0  0  0  0  0  0  0  0  0
   38.1120   24.2470   37.6440 C   0  0  1  0  0  0  0  0  0  0  0  0
   38.2370   24.0790   38.8820 O   0  0  0  0  0  1  0  0  0  0  0  0
   37.7020   23.3070   36.5400 C   0  0  0  0  0  3  0  0  0  0  0  0
   37.9960   22.2540   36.7270 H   0  0  0  0  0  0  0  0  0  0  0  0
   38.6900   24.1510   35.8000 C   0  0  1  0  0  0  0  0  0  0  0  0
   38.1910   24.7350   34.1620 S   0  0  0  0  0  0  0  0  0  0  0  0
   39.7220   26.9980   34.2060 C   0  0  0  0  0  2  0  0  0  0  0  0
   40.5120   26.3740   34.6520 H   0  0  0  0  0  0  0  0  0  0  0  0
   35.0410   32.0720   32.1090 S   0  0  0  0  0  0  0  0  0  0  0  0
   33.4160   31.4670   35.6770 C   0  0  0  0  0  0  0  0  0  0  0  0
   34.4710   31.6830   36.5720 C   0  0  0  0  0  0  0  0  0  0  0  0
   35.7260   32.0220   36.1210 C   0  0  0  0  0  0  0  0  0  0  0  0
   35.8750   32.1340   34.7570 C   0  0  0  0  0  0  0  0  0  0  0  0
   34.8360   31.9210   33.9080 C   0  0  0  0  0  0  0  0  0  0  0  0
   33.5940   31.5850   34.3410 N   0  0  0  0  0  0  0  0  0  0  0  0
   34.3420   31.5920   37.6480 H   0  0  0  0  0  0  0  0  0  0  0  0
   36.5750   32.1980   36.7830 H   0  0  0  0  0  0  0  0  0  0  0  0
   36.8410   32.3990   34.3360 H   0  0  0  0  0  0  0  0  0  0  0  0
   32.1320   31.1160   36.2280 C   0  0  0  0  0  0  0  0  0  0  0  0
   31.3890   31.9690   36.7070 O   0  0  0  0  0  0  0  0  0  0  0  0
   31.2070   29.1640   35.0390 C   0  0  0  0  0  0  0  0  0  0  0  0
   31.6420   29.7240   36.2490 C   0  0  0  0  0  0  0  0  0  0  0  0
   31.6010   28.9610   37.4140 C   0  0  0  0  0  0  0  0  0  0  0  0
   31.1340   27.6800   37.3460 N   0  0  0  0  0  0  0  0  0  0  0  0
   30.7180   27.1630   36.1660 C   0  0  0  0  0  0  0  0  0  0  0  0
   30.7570   27.8870   35.0570 N   0  0  0  0  0  0  0  0  0  0  0  0
   31.2180   29.7190   34.1020 H   0  0  0  0  0  0  0  0  0  0  0  0
   31.9350   29.3980   38.3280 H   0  0  0  0  0  0  0  0  0  0  0  0
   30.3370   26.1700   36.0140 H   0  0  0  0  0  0  0  0  0  0  0  0
  1 28  1  0  0  0  0
  1  3  1  0  0  0  0
  2  1  1  0  0  0  0
  4  9  1  6  0  0  0
  4  5  1  0  0  0  0
  4 15  1  0  0  0  0
  5 10  1  0  0  0  0
  5 11  1  0  0  0  0
  6 12  1  6  0  0  0
  6  1  1  0  0  0  0
  6  5  1  0  0  0  0
  7  8  1  0  0  0  0
  7  6  1  0  0  0  0
  8 13  1  0  0  0  0
  8  4  1  0  0  0  0
 14  8  1  0  0  0  0
 15 16  1  0  0  0  0
 17 16  1  6  0  0  0
 17 18  1  0  0  0  0
 19 18  1  6  0  0  0
 19 20  1  0  0  0  0
 20 21  1  1  0  0  0
 22 23  1  0  0  0  0
 22 20  1  0  0  0  0
 24 25  1  6  0  0  0
 24 22  1  0  0  0  0
 24 19  1  0  0  0  0
 24 20  1  0  0  0  0
 25 17  1  0  0  0  0
 26 17  1  0  0  0  0
 26 27  1  0  0  0  0
 28 33  1  0  0  0  0
 29 38  1  0  0  0  0
 29 30  1  0  0  0  0
 30 35  1  0  0  0  0
 31 30  2  0  0  0  0
 31 36  1  0  0  0  0
 32 31  1  0  0  0  0
 33 34  1  0  0  0  0
 33 32  2  0  0  0  0
 34 29  2  0  0  0  0
 37 32  1  0  0  0  0
 38 41  1  0  0  0  0
 38 39  2  0  0  0  0
 40 45  2  0  0  0  0
 40 41  1  0  0  0  0
 41 42  2  0  0  0  0
 42 47  1  0  0  0  0
 43 42  1  0  0  0  0
 44 43  2  0  0  0  0
 45 44  1  0  0  0  0
 46 40  1  0  0  0  0
 48 44  1  0  0  0  0
M  END
>  <minimizedAffinity>
-6.11485052

$$$$

 OpenBabel03262522173D

 48 53  0  0  1  0  0  0  0  0999 V2000
   37.5340   28.2010   31.5090 C   0  0  0  0  0  0  0  0  0  0  0  0
   37.9170   28.8350   32.3060 H   0  0  0  0  0  0  0  0  0  0  0  0
   38.1740   28.2660   30.5930 H   0  0  0  0  0  0  0  0  0  0  0  0
   34.6810   30.2320   31.9730 C   0  0  1  0  0  0  0  0  0  0  0  0
   35.9530   30.0880   31.1770 C   0  0  0  0  0  0  0  0  0  0  0  0
   36.1190   28.5960   31.1400 C   0  0  2  0  0  0  0  0  0  0  0  0
   35.1750   28.0470   31.9610 O   0  0  0  0  0  0  0  0  0  0  0  0
   34.7590   29.0210   32.8640 C   0  0  0  0  0  0  0  0  0  0  0  0
   33.8130   30.1320   31.3070 H   0  0  0  0  0  0  0  0  0  0  0  0
   35.8270   30.4910   30.1540 H   0  0  0  0  0  0  0  0  0  0  0  0
   36.7780   30.5650   31.7400 H   0  0  0  0  0  0  0  0  0  0  0  0
   35.9380   28.2320   30.0980 H   0  0  0  0  0  0  0  0  0  0  0  0
   35.4810   29.2030   33.6730 H   0  0  0  0  0  0  0  0  0  0  0  0
   33.7850   28.6790   33.2540 H   0  0  0  0  0  0  0  0  0  0  0  0
   34.6610   31.4210   32.7070 O   0  0  0  0  0  0  0  0  0  0  0  0
   35.9130   31.8580   33.0340 C   0  0  0  0  0  2  0  0  0  0  0  0
   35.8240   32.5950   34.3770 C   0  0  1  0  0  0  0  0  0  0  0  0
   34.5640   33.3020   34.5730 C   0  0  0  0  0  2  0  0  0  0  0  0
   33.9800   33.0680   35.8130 N   0  0  1  0  0  0  0  0  0  0  0  0
   32.9860   33.0800   36.8010 C   0  0  1  0  0  0  0  0  0  0  0  0
   32.0400   33.7800   37.2390 O   0  0  0  0  0  1  0  0  0  0  0  0
   33.5290   31.7430   37.2360 C   0  0  0  0  0  3  0  0  0  0  0  0
   33.4230   31.5580   38.3240 H   0  0  0  0  0  0  0  0  0  0  0  0
   34.7970   32.3980   36.7930 C   0  0  1  0  0  0  0  0  0  0  0  0
   35.8990   31.4120   35.7490 S   0  0  0  0  0  0  0  0  0  0  0  0
   37.0170   33.5410   34.4520 C   0  0  0  0  0  2  0  0  0  0  0  0
   37.0420   34.0410   35.4340 H   0  0  0  0  0  0  0  0  0  0  0  0
   37.4860   26.4290   31.9350 S   0  0  0  0  0  0  0  0  0  0  0  0
   38.3410   25.0290   35.5470 C   0  0  0  0  0  0  0  0  0  0  0  0
   38.3460   26.1680   36.3600 C   0  0  0  0  0  0  0  0  0  0  0  0
   38.0880   27.4150   35.8370 C   0  0  0  0  0  0  0  0  0  0  0  0
   37.8290   27.4690   34.4860 C   0  0  0  0  0  0  0  0  0  0  0  0
   37.8290   26.3490   33.7170 C   0  0  0  0  0  0  0  0  0  0  0  0
   38.0830   25.1140   34.2210 N   0  0  0  0  0  0  0  0  0  0  0  0
   38.5520   26.1140   37.4270 H   0  0  0  0  0  0  0  0  0  0  0  0
   38.0820   28.3270   36.4360 H   0  0  0  0  0  0  0  0  0  0  0  0
   37.6180   28.4230   34.0120 H   0  0  0  0  0  0  0  0  0  0  0  0
   38.6200   23.7600   36.1690 C   0  0  0  0  0  0  0  0  0  0  0  0
   37.7180   23.0610   36.6230 O   0  0  0  0  0  0  0  0  0  0  0  0
   40.2300   22.2410   37.2580 C   0  0  0  0  0  0  0  0  0  0  0  0
   39.9930   23.2340   36.2960 C   0  0  0  0  0  0  0  0  0  0  0  0
   41.0440   23.6850   35.5010 C   0  0  0  0  0  0  0  0  0  0  0  0
   42.2850   23.1450   35.6810 N   0  0  0  0  0  0  0  0  0  0  0  0
   42.4880   22.1880   36.6180 C   0  0  0  0  0  0  0  0  0  0  0  0
   41.4880   21.7580   37.3750 N   0  0  0  0  0  0  0  0  0  0  0  0
   39.4420   21.8560   37.9040 H   0  0  0  0  0  0  0  0  0  0  0  0
   40.8530   24.4400   34.7730 H   0  0  0  0  0  0  0  0  0  0  0  0
   43.4230   21.7050   36.8320 H   0  0  0  0  0  0  0  0  0  0  0  0
  1 28  1  0  0  0  0
  1  2  1  0  0  0  0
  3  1  1  0  0  0  0
  4  9  1  6  0  0  0
  4 15  1  0  0  0  0
  4  8  1  0  0  0  0
  5 11  1  0  0  0  0
  5  4  1  0  0  0  0
  6 12  1  6  0  0  0
  6  5  1  0  0  0  0
  6  1  1  0  0  0  0
  6  7  1  0  0  0  0
  7  8  1  0  0  0  0
  8 14  1  0  0  0  0
  8 13  1  0  0  0  0
 10  5  1  0  0  0  0
 15 16  1  0  0  0  0
 17 16  1  6  0  0  0
 17 26  1  0  0  0  0
 17 18  1  0  0  0  0
 17 25  1  0  0  0  0
 19 18  1  6  0  0  0
 19 24  1  0  0  0  0
 19 20  1  0  0  0  0
 20 22  1  0  0  0  0
 20 21  1  1  0  0  0
 22 23  1  0  0  0  0
 24 25  1  1  0  0  0
 24 20  1  0  0  0  0
 24 22  1  0  0  0  0
 26 27  1  0  0  0  0
 28 33  1  0  0  0  0
 29 38  1  0  0  0  0
 29 30  1  0  0  0  0
 30 35  1  0  0  0  0
 31 30  2  0  0  0  0
 31 36  1  0  0  0  0
 32 31  1  0  0  0  0
 33 34  1  0  0  0  0
 33 32  2  0  0  0  0
 34 29  2  0  0  0  0
 37 32  1  0  0  0  0
 38 41  1  0  0  0  0
 38 39  2  0  0  0  0
 40 45  1  0  0  0  0
 40 46  1  0  0  0  0
 41 40  2  0  0  0  0
 42 43  2  0  0  0  0
 42 41  1  0  0  0  0
 43 44  1  0  0  0  0
 44 48  1  0  0  0  0
 44 45  2  0  0  0  0
 47 42  1  0  0  0  0
M  END
>  <minimizedAffinity>
-6.01728725

$$$$

 OpenBabel03262522173D

 48 53  0  0  1  0  0  0  0  0999 V2000
   38.0870   25.4190   36.4660 C   0  0  0  0  0  0  0  0  0  0  0  0
   37.9340   25.6770   37.5120 H   0  0  0  0  0  0  0  0  0  0  0  0
   37.1130   25.2450   35.9420 H   0  0  0  0  0  0  0  0  0  0  0  0
   38.8210   22.3380   34.9030 C   0  0  1  0  0  0  0  0  0  0  0  0
   39.1450   23.8100   34.8970 C   0  0  0  0  0  0  0  0  0  0  0  0
   38.9350   24.1710   36.3390 C   0  0  2  0  0  0  0  0  0  0  0  0
   38.3950   23.0860   36.9710 O   0  0  0  0  0  0  0  0  0  0  0  0
   37.8040   22.2700   36.0100 C   0  0  0  0  0  0  0  0  0  0  0  0
   39.7110   21.7640   35.1960 H   0  0  0  0  0  0  0  0  0  0  0  0
   40.1980   23.9830   34.6020 H   0  0  0  0  0  0  0  0  0  0  0  0
   38.4150   24.3300   34.2480 H   0  0  0  0  0  0  0  0  0  0  0  0
   39.9250   24.3980   36.8090 H   0  0  0  0  0  0  0  0  0  0  0  0
   36.8380   22.6490   35.6490 H   0  0  0  0  0  0  0  0  0  0  0  0
   37.7050   21.2740   36.4760 H   0  0  0  0  0  0  0  0  0  0  0  0
   38.2910   21.9190   33.6790 O   0  0  0  0  0  0  0  0  0  0  0  0
   37.7310   22.9450   32.9710 C   0  0  0  0  0  2  0  0  0  0  0  0
   36.6620   22.3530   32.0420 C   0  0  1  0  0  0  0  0  0  0  0  0
   37.2150   21.6320   30.9010 C   0  0  0  0  0  2  0  0  0  0  0  0
   36.6370   20.3840   30.6970 N   0  0  1  0  0  0  0  0  0  0  0  0
   36.4830   19.0990   30.1590 C   0  0  1  0  0  0  0  0  0  0  0  0
   36.6530   18.4470   29.1000 O   0  0  0  0  0  1  0  0  0  0  0  0
   35.9520   18.6950   31.5120 C   0  0  0  0  0  3  0  0  0  0  0  0
   35.1910   17.8900   31.4630 H   0  0  0  0  0  0  0  0  0  0  0  0
   35.4410   20.0980   31.4480 C   0  0  1  0  0  0  0  0  0  0  0  0
   35.6760   21.1150   32.9260 S   0  0  0  0  0  0  0  0  0  0  0  0
   35.7630   23.5030   31.5990 C   0  0  0  0  0  2  0  0  0  0  0  0
   34.9310   23.1170   30.9880 H   0  0  0  0  0  0  0  0  0  0  0  0
   38.9240   26.7200   35.5010 S   0  0  0  0  0  0  0  0  0  0  0  0
   35.9050   28.6740   33.8270 C   0  0  0  0  0  0  0  0  0  0  0  0
   35.8540   28.1680   32.5220 C   0  0  0  0  0  0  0  0  0  0  0  0
   36.7440   27.2060   32.0990 C   0  0  0  0  0  0  0  0  0  0  0  0
   37.6700   26.7810   33.0250 C   0  0  0  0  0  0  0  0  0  0  0  0
   37.6980   27.2870   34.2860 C   0  0  0  0  0  0  0  0  0  0  0  0
   36.8280   28.2360   34.7150 N   0  0  0  0  0  0  0  0  0  0  0  0
   35.1180   28.5100   31.7990 H   0  0  0  0  0  0  0  0  0  0  0  0
   36.7390   26.7850   31.0930 H   0  0  0  0  0  0  0  0  0  0  0  0
   38.4000   26.0230   32.7540 H   0  0  0  0  0  0  0  0  0  0  0  0
   34.9400   29.6780   34.1930 C   0  0  0  0  0  0  0  0  0  0  0  0
   33.7340   29.4420   34.1690 O   0  0  0  0  0  0  0  0  0  0  0  0
   35.2240   31.3620   35.9730 C   0  0  0  0  0  0  0  0  0  0  0  0
   35.3410   31.0350   34.6140 C   0  0  0  0  0  0  0  0  0  0  0  0
   35.8250   31.9850   33.7170 C   0  0  0  0  0  0  0  0  0  0  0  0
   36.1750   33.2170   34.1890 N   0  0  0  0  0  0  0  0  0  0  0  0
   36.0520   33.5090   35.5060 C   0  0  0  0  0  0  0  0  0  0  0  0
   35.5910   32.6050   36.3600 N   0  0  0  0  0  0  0  0  0  0  0  0
   34.8500   30.6550   36.7120 H   0  0  0  0  0  0  0  0  0  0  0  0
   35.9100   31.7250   32.6870 H   0  0  0  0  0  0  0  0  0  0  0  0
   36.3010   34.4450   35.9690 H   0  0  0  0  0  0  0  0  0  0  0  0
  1  2  1  0  0  0  0
  3  1  1  0  0  0  0
  4  9  1  1  0  0  0
  4  8  1  0  0  0  0
  5  4  1  0  0  0  0
  5  6  1  0  0  0  0
  6  1  1  0  0  0  0
  6 12  1  1  0  0  0
  6  7  1  0  0  0  0
  8 14  1  0  0  0  0
  8  7  1  0  0  0  0
 10  5  1  0  0  0  0
 11  5  1  0  0  0  0
 13  8  1  0  0  0  0
 15  4  1  0  0  0  0
 16 15  1  0  0  0  0
 17 26  1  6  0  0  0
 17 25  1  0  0  0  0
 17 16  1  0  0  0  0
 18 17  1  0  0  0  0
 19 18  1  1  0  0  0
 19 24  1  0  0  0  0
 20 21  1  6  0  0  0
 20 19  1  0  0  0  0
 20 24  1  0  0  0  0
 20 22  1  0  0  0  0
 23 22  1  0  0  0  0
 24 22  1  1  0  0  0
 24 25  1  0  0  0  0
 27 26  1  0  0  0  0
 28  1  1  0  0  0  0
 29 38  1  0  0  0  0
 29 34  1  0  0  0  0
 30 29  2  0  0  0  0
 31 30  1  0  0  0  0
 31 32  2  0  0  0  0
 32 33  1  0  0  0  0
 33 34  2  0  0  0  0
 33 28  1  0  0  0  0
 35 30  1  0  0  0  0
 36 31  1  0  0  0  0
 37 32  1  0  0  0  0
 38 41  1  0  0  0  0
 39 38  2  0  0  0  0
 40 45  1  0  0  0  0
 40 46  1  0  0  0  0
 41 40  2  0  0  0  0
 42 43  2  0  0  0  0
 42 41  1  0  0  0  0
 43 44  1  0  0  0  0
 44 48  1  0  0  0  0
 44 45  2  0  0  0  0
 47 42  1  0  0  0  0
M  END
>  <minimizedAffinity>
-5.91329145

$$$$

 OpenBabel03262522173D

 48 53  0  0  1  0  0  0  0  0999 V2000
   39.9840   25.6360   31.7110 C   0  0  0  0  0  0  0  0  0  0  0  0
   40.9230   25.5380   31.1690 H   0  0  0  0  0  0  0  0  0  0  0  0
   39.7470   24.7060   32.2880 H   0  0  0  0  0  0  0  0  0  0  0  0
   36.6740   26.7110   31.1050 C   0  0  1  0  0  0  0  0  0  0  0  0
   38.1100   27.1700   31.1590 C   0  0  0  0  0  0  0  0  0  0  0  0
   38.8410   25.9200   30.7600 C   0  0  2  0  0  0  0  0  0  0  0  0
   37.9310   24.9030   30.6930 O   0  0  0  0  0  0  0  0  0  0  0  0
   36.8230   25.2550   31.4580 C   0  0  0  0  0  0  0  0  0  0  0  0
   36.2970   26.7950   30.0770 H   0  0  0  0  0  0  0  0  0  0  0  0
   38.2950   27.9790   30.4270 H   0  0  0  0  0  0  0  0  0  0  0  0
   38.3510   27.4550   32.2010 H   0  0  0  0  0  0  0  0  0  0  0  0
   39.2870   26.0640   29.7440 H   0  0  0  0  0  0  0  0  0  0  0  0
   36.9880   25.1520   32.5400 H   0  0  0  0  0  0  0  0  0  0  0  0
   35.9940   24.6160   31.1070 H   0  0  0  0  0  0  0  0  0  0  0  0
   35.8780   27.3950   32.0280 O   0  0  0  0  0  0  0  0  0  0  0  0
   36.5280   28.4480   32.6050 C   0  0  0  0  0  2  0  0  0  0  0  0
   35.4730   29.4550   33.0830 C   0  0  1  0  0  0  0  0  0  0  0  0
   35.3970   29.5760   34.5340 C   0  0  0  0  0  2  0  0  0  0  0  0
   35.3910   30.8920   34.9840 N   0  0  1  0  0  0  0  0  0  0  0  0
   35.4640   31.9490   35.9020 C   0  0  1  0  0  0  0  0  0  0  0  0
   35.1620   32.2510   37.0820 O   0  0  0  0  0  1  0  0  0  0  0  0
   36.1430   32.7320   34.8080 C   0  0  0  0  0  3  0  0  0  0  0  0
   35.9370   33.8210   34.8540 H   0  0  0  0  0  0  0  0  0  0  0  0
   35.2010   31.9130   33.9860 C   0  0  1  0  0  0  0  0  0  0  0  0
   35.8900   31.1230   32.5100 S   0  0  0  0  0  0  0  0  0  0  0  0
   34.1380   29.0270   32.4840 C   0  0  0  0  0  2  0  0  0  0  0  0
   33.3580   29.7620   32.7360 H   0  0  0  0  0  0  0  0  0  0  0  0
   39.9830   26.9780   32.9450 S   0  0  0  0  0  0  0  0  0  0  0  0
   38.7240   24.3420   35.6280 C   0  0  0  0  0  0  0  0  0  0  0  0
   38.1840   25.1300   36.6520 C   0  0  0  0  0  0  0  0  0  0  0  0
   38.1840   26.5040   36.5650 C   0  0  0  0  0  0  0  0  0  0  0  0
   38.7380   27.0440   35.4260 C   0  0  0  0  0  0  0  0  0  0  0  0
   39.2540   26.2580   34.4460 C   0  0  0  0  0  0  0  0  0  0  0  0
   39.2610   24.9030   34.5200 N   0  0  0  0  0  0  0  0  0  0  0  0
   37.7490   24.6940   37.5480 H   0  0  0  0  0  0  0  0  0  0  0  0
   37.7740   27.1550   37.3390 H   0  0  0  0  0  0  0  0  0  0  0  0
   38.7680   28.1220   35.2950 H   0  0  0  0  0  0  0  0  0  0  0  0
   38.6860   22.9120   35.7950 C   0  0  0  0  0  0  0  0  0  0  0  0
   39.5740   22.3180   36.4020 O   0  0  0  0  0  0  0  0  0  0  0  0
   37.5470   21.8840   33.8640 C   0  0  0  0  0  0  0  0  0  0  0  0
   37.5890   22.0870   35.2510 C   0  0  0  0  0  0  0  0  0  0  0  0
   36.6120   21.5140   36.0600 C   0  0  0  0  0  0  0  0  0  0  0  0
   35.6310   20.7640   35.4760 N   0  0  0  0  0  0  0  0  0  0  0  0
   35.6120   20.5830   34.1350 C   0  0  0  0  0  0  0  0  0  0  0  0
   36.5420   21.1290   33.3640 N   0  0  0  0  0  0  0  0  0  0  0  0
   38.2880   22.3120   33.1890 H   0  0  0  0  0  0  0  0  0  0  0  0
   36.6540   21.6750   37.1130 H   0  0  0  0  0  0  0  0  0  0  0  0
   34.8850   20.0120   33.5870 H   0  0  0  0  0  0  0  0  0  0  0  0
  1  3  1  0  0  0  0
  1 28  1  0  0  0  0
  2  1  1  0  0  0  0
  4  9  1  6  0  0  0
  4  5  1  0  0  0  0
  4  8  1  0  0  0  0
  4 15  1  0  0  0  0
  5 11  1  0  0  0  0
  6 12  1  6  0  0  0
  6  5  1  0  0  0  0
  6  1  1  0  0  0  0
  7  6  1  0  0  0  0
  7  8  1  0  0  0  0
  8 13  1  0  0  0  0
 10  5  1  0  0  0  0
 14  8  1  0  0  0  0
 15 16  1  0  0  0  0
 16 17  1  0  0  0  0
 17 26  1  6  0  0  0
 17 18  1  0  0  0  0
 19 18  1  6  0  0  0
 19 20  1  0  0  0  0
 20 21  1  1  0  0  0
 22 23  1  0  0  0  0
 22 20  1  0  0  0  0
 24 25  1  6  0  0  0
 24 22  1  0  0  0  0
 24 19  1  0  0  0  0
 24 20  1  0  0  0  0
 25 17  1  0  0  0  0
 26 27  1  0  0  0  0
 28 33  1  0  0  0  0
 29 38  1  0  0  0  0
 29 30  1  0  0  0  0
 30 35  1  0  0  0  0
 31 30  2  0  0  0  0
 31 36  1  0  0  0  0
 32 31  1  0  0  0  0
 33 34  1  0  0  0  0
 33 32  2  0  0  0  0
 34 29  2  0  0  0  0
 37 32  1  0  0  0  0
 38 39  2  0  0  0  0
 40 41  1  0  0  0  0
 41 38  1  0  0  0  0
 41 42  2  0  0  0  0
 42 47  1  0  0  0  0
 43 42  1  0  0  0  0
 44 43  2  0  0  0  0
 45 40  2  0  0  0  0
 45 44  1  0  0  0  0
 46 40  1  0  0  0  0
 48 44  1  0  0  0  0
M  END
>  <minimizedAffinity>
-5.87590885

$$$$

 OpenBabel03262522173D

 48 53  0  0  1  0  0  0  0  0999 V2000
   37.8070   25.2030   36.2010 C   0  0  0  0  0  0  0  0  0  0  0  0
   37.2740   25.2040   37.1500 H   0  0  0  0  0  0  0  0  0  0  0  0
   37.1110   25.0230   35.3430 H   0  0  0  0  0  0  0  0  0  0  0  0
   39.7550   22.8140   34.4760 C   0  0  1  0  0  0  0  0  0  0  0  0
   39.7300   24.2430   34.9560 C   0  0  0  0  0  0  0  0  0  0  0  0
   38.8780   24.1330   36.1870 C   0  0  2  0  0  0  0  0  0  0  0  0
   38.3730   22.8640   36.2380 O   0  0  0  0  0  0  0  0  0  0  0  0
   38.4150   22.3250   34.9550 C   0  0  0  0  0  0  0  0  0  0  0  0
   40.5470   22.2610   34.9980 H   0  0  0  0  0  0  0  0  0  0  0  0
   40.7480   24.5900   35.2170 H   0  0  0  0  0  0  0  0  0  0  0  0
   39.2360   24.8660   34.1870 H   0  0  0  0  0  0  0  0  0  0  0  0
   39.5170   24.2960   37.0920 H   0  0  0  0  0  0  0  0  0  0  0  0
   37.6230   22.7070   34.2950 H   0  0  0  0  0  0  0  0  0  0  0  0
   38.3490   21.2300   35.0830 H   0  0  0  0  0  0  0  0  0  0  0  0
   39.8730   22.7370   33.0850 O   0  0  0  0  0  0  0  0  0  0  0  0
   39.4510   23.8750   32.4580 C   0  0  0  0  0  2  0  0  0  0  0  0
   38.3840   23.4820   31.4270 C   0  0  1  0  0  0  0  0  0  0  0  0
   38.3360   22.0510   31.1540 C   0  0  0  0  0  2  0  0  0  0  0  0
   37.0500   21.5200   31.1860 N   0  0  1  0  0  0  0  0  0  0  0  0
   36.0550   20.5330   31.2090 C   0  0  1  0  0  0  0  0  0  0  0  0
   35.7920   19.3890   30.7660 O   0  0  0  0  0  1  0  0  0  0  0  0
   35.2750   21.4700   32.0970 C   0  0  0  0  0  3  0  0  0  0  0  0
   34.1770   21.3810   31.9720 H   0  0  0  0  0  0  0  0  0  0  0  0
   35.9640   22.4660   31.2220 C   0  0  1  0  0  0  0  0  0  0  0  0
   36.7290   23.8820   32.0510 S   0  0  0  0  0  0  0  0  0  0  0  0
   38.6620   24.2870   30.1620 C   0  0  0  0  0  2  0  0  0  0  0  0
   37.8760   24.0970   29.4140 H   0  0  0  0  0  0  0  0  0  0  0  0
   38.6390   26.7800   35.8220 S   0  0  0  0  0  0  0  0  0  0  0  0
   35.9670   28.6850   33.5940 C   0  0  0  0  0  0  0  0  0  0  0  0
   36.4170   28.4900   32.2830 C   0  0  0  0  0  0  0  0  0  0  0  0
   37.5590   27.7660   32.0240 C   0  0  0  0  0  0  0  0  0  0  0  0
   38.2190   27.2550   33.1200 C   0  0  0  0  0  0  0  0  0  0  0  0
   37.7620   27.4580   34.3830 C   0  0  0  0  0  0  0  0  0  0  0  0
   36.6390   28.1700   34.6500 N   0  0  0  0  0  0  0  0  0  0  0  0
   35.8880   28.8970   31.4250 H   0  0  0  0  0  0  0  0  0  0  0  0
   37.9440   27.5900   31.0190 H   0  0  0  0  0  0  0  0  0  0  0  0
   39.1270   26.6740   32.9840 H   0  0  0  0  0  0  0  0  0  0  0  0
   34.7640   29.4540   33.7810 C   0  0  0  0  0  0  0  0  0  0  0  0
   33.8180   29.3570   33.0030 O   0  0  0  0  0  0  0  0  0  0  0  0
   35.6940   31.2010   35.2530 C   0  0  0  0  0  0  0  0  0  0  0  0
   34.6000   30.3930   34.9080 C   0  0  0  0  0  0  0  0  0  0  0  0
   33.4120   30.5000   35.6280 C   0  0  0  0  0  0  0  0  0  0  0  0
   33.3440   31.3950   36.6570 N   0  0  0  0  0  0  0  0  0  0  0  0
   34.4140   32.1630   36.9700 C   0  0  0  0  0  0  0  0  0  0  0  0
   35.5450   32.0630   36.2860 N   0  0  0  0  0  0  0  0  0  0  0  0
   36.6430   31.1550   34.7220 H   0  0  0  0  0  0  0  0  0  0  0  0
   32.5880   29.8800   35.3570 H   0  0  0  0  0  0  0  0  0  0  0  0
   34.4560   32.8920   37.7580 H   0  0  0  0  0  0  0  0  0  0  0  0
  1  2  1  0  0  0  0
  3  1  1  0  0  0  0
  4  8  1  0  0  0  0
  4  5  1  0  0  0  0
  4  9  1  1  0  0  0
  5 10  1  0  0  0  0
  5  6  1  0  0  0  0
  6  1  1  0  0  0  0
  6  7  1  0  0  0  0
  6 12  1  1  0  0  0
  8 14  1  0  0  0  0
  8  7  1  0  0  0  0
 11  5  1  0  0  0  0
 13  8  1  0  0  0  0
 15  4  1  0  0  0  0
 16 15  1  0  0  0  0
 17 26  1  6  0  0  0
 17 25  1  0  0  0  0
 17 16  1  0  0  0  0
 18 17  1  0  0  0  0
 19 18  1  1  0  0  0
 19 20  1  0  0  0  0
 19 24  1  0  0  0  0
 20 21  1  6  0  0  0
 20 24  1  0  0  0  0
 20 22  1  0  0  0  0
 23 22  1  0  0  0  0
 24 25  1  6  0  0  0
 24 22  1  0  0  0  0
 27 26  1  0  0  0  0
 28  1  1  0  0  0  0
 29 38  1  0  0  0  0
 29 34  1  0  0  0  0
 30 29  2  0  0  0  0
 31 30  1  0  0  0  0
 31 32  2  0  0  0  0
 32 33  1  0  0  0  0
 33 34  2  0  0  0  0
 33 28  1  0  0  0  0
 35 30  1  0  0  0  0
 36 31  1  0  0  0  0
 37 32  1  0  0  0  0
 38 41  1  0  0  0  0
 39 38  2  0  0  0  0
 40 45  1  0  0  0  0
 41 40  2  0  0  0  0
 41 42  1  0  0  0  0
 42 43  2  0  0  0  0
 43 44  1  0  0  0  0
 44 48  1  0  0  0  0
 45 44  2  0  0  0  0
 46 40  1  0  0  0  0
 47 42  1  0  0  0  0
M  END
>  <minimizedAffinity>
-5.83520651

$$$$

 OpenBabel03262522173D

 48 53  0  0  1  0  0  0  0  0999 V2000
   36.3800   27.8670   31.1880 C   0  0  0  0  0  0  0  0  0  0  0  0
   35.5880   27.7870   30.4460 H   0  0  0  0  0  0  0  0  0  0  0  0
   36.1980   27.1810   32.0540 H   0  0  0  0  0  0  0  0  0  0  0  0
   34.9530   30.6880   32.7630 C   0  0  1  0  0  0  0  0  0  0  0  0
   35.7540   29.4350   33.0110 C   0  0  0  0  0  0  0  0  0  0  0  0
   36.4880   29.2850   31.7090 C   0  0  2  0  0  0  0  0  0  0  0  0
   35.9970   30.2170   30.8390 O   0  0  0  0  0  0  0  0  0  0  0  0
   34.7340   30.6030   31.2770 C   0  0  0  0  0  0  0  0  0  0  0  0
   35.5680   31.5710   32.9860 H   0  0  0  0  0  0  0  0  0  0  0  0
   36.4670   29.5780   33.8450 H   0  0  0  0  0  0  0  0  0  0  0  0
   35.0530   28.5940   33.1700 H   0  0  0  0  0  0  0  0  0  0  0  0
   37.5750   29.4920   31.8740 H   0  0  0  0  0  0  0  0  0  0  0  0
   33.9510   29.8630   31.0600 H   0  0  0  0  0  0  0  0  0  0  0  0
   34.5260   31.5730   30.7910 H   0  0  0  0  0  0  0  0  0  0  0  0
   33.7480   30.6810   33.4710 O   0  0  0  0  0  0  0  0  0  0  0  0
   32.6840   30.3210   32.6940 C   0  0  0  0  0  2  0  0  0  0  0  0
   31.5060   29.9950   33.6220 C   0  0  1  0  0  0  0  0  0  0  0  0
   31.4190   28.5850   33.9820 C   0  0  0  0  0  2  0  0  0  0  0  0
   31.2400   28.3670   35.3440 N   0  0  1  0  0  0  0  0  0  0  0  0
   31.1750   27.6460   36.5450 C   0  0  1  0  0  0  0  0  0  0  0  0
   30.8400   26.5280   37.0060 O   0  0  0  0  0  1  0  0  0  0  0  0
   31.7400   28.8770   37.2080 C   0  0  0  0  0  3  0  0  0  0  0  0
   31.3920   29.0130   38.2520 H   0  0  0  0  0  0  0  0  0  0  0  0
   30.9130   29.5210   36.1430 C   0  0  1  0  0  0  0  0  0  0  0  0
   31.6960   30.8570   35.2050 S   0  0  0  0  0  0  0  0  0  0  0  0
   30.2370   30.4760   32.9260 C   0  0  0  0  0  2  0  0  0  0  0  0
   29.3670   30.3340   33.5860 H   0  0  0  0  0  0  0  0  0  0  0  0
   38.0300   27.4150   30.5570 S   0  0  0  0  0  0  0  0  0  0  0  0
   39.1990   26.6010   34.2600 C   0  0  0  0  0  0  0  0  0  0  0  0
   40.5710   26.8780   34.2510 C   0  0  0  0  0  0  0  0  0  0  0  0
   41.1980   27.3260   33.1100 C   0  0  0  0  0  0  0  0  0  0  0  0
   40.4020   27.4810   31.9970 C   0  0  0  0  0  0  0  0  0  0  0  0
   39.0720   27.2070   32.0310 C   0  0  0  0  0  0  0  0  0  0  0  0
   38.4430   26.7640   33.1490 N   0  0  0  0  0  0  0  0  0  0  0  0
   41.1910   26.7520   35.1360 H   0  0  0  0  0  0  0  0  0  0  0  0
   42.2640   27.5530   33.0600 H   0  0  0  0  0  0  0  0  0  0  0  0
   40.8360   27.8320   31.0650 H   0  0  0  0  0  0  0  0  0  0  0  0
   38.6180   26.1370   35.4930 C   0  0  0  0  0  0  0  0  0  0  0  0
   38.4240   26.9020   36.4340 O   0  0  0  0  0  0  0  0  0  0  0  0
   37.6580   24.3740   36.9260 C   0  0  0  0  0  0  0  0  0  0  0  0
   38.2260   24.7280   35.6930 C   0  0  0  0  0  0  0  0  0  0  0  0
   38.4000   23.7550   34.7120 C   0  0  0  0  0  0  0  0  0  0  0  0
   38.0100   22.4740   34.9780 N   0  0  0  0  0  0  0  0  0  0  0  0
   37.4640   22.1570   36.1760 C   0  0  0  0  0  0  0  0  0  0  0  0
   37.2980   23.0830   37.1110 N   0  0  0  0  0  0  0  0  0  0  0  0
   37.5020   25.0970   37.7250 H   0  0  0  0  0  0  0  0  0  0  0  0
   38.8330   24.0360   33.7790 H   0  0  0  0  0  0  0  0  0  0  0  0
   37.1280   21.1830   36.4770 H   0  0  0  0  0  0  0  0  0  0  0  0
  1  6  1  0  0  0  0
  1  3  1  0  0  0  0
  2  1  1  0  0  0  0
  4  9  1  1  0  0  0
  4  5  1  0  0  0  0
  4 15  1  0  0  0  0
  5 11  1  0  0  0  0
  5 10  1  0  0  0  0
  6 12  1  1  0  0  0
  6  5  1  0  0  0  0
  7  8  1  0  0  0  0
  7  6  1  0  0  0  0
  8  4  1  0  0  0  0
 13  8  1  0  0  0  0
 14  8  1  0  0  0  0
 16 15  1  0  0  0  0
 17 16  1  6  0  0  0
 17 18  1  0  0  0  0
 17 25  1  0  0  0  0
 19 18  1  1  0  0  0
 19 24  1  0  0  0  0
 19 20  1  0  0  0  0
 20 21  1  1  0  0  0
 20 22  1  0  0  0  0
 22 23  1  0  0  0  0
 24 25  1  1  0  0  0
 24 20  1  0  0  0  0
 24 22  1  0  0  0  0
 26 27  1  0  0  0  0
 26 17  1  0  0  0  0
 28  1  1  0  0  0  0
 28 33  1  0  0  0  0
 29 38  1  0  0  0  0
 30 29  1  0  0  0  0
 30 35  1  0  0  0  0
 31 30  2  0  0  0  0
 32 33  2  0  0  0  0
 32 31  1  0  0  0  0
 33 34  1  0  0  0  0
 34 29  2  0  0  0  0
 36 31  1  0  0  0  0
 37 32  1  0  0  0  0
 38 41  1  0  0  0  0
 38 39  2  0  0  0  0
 40 45  1  0  0  0  0
 40 46  1  0  0  0  0
 41 40  2  0  0  0  0
 42 43  2  0  0  0  0
 42 41  1  0  0  0  0
 43 44  1  0  0  0  0
 44 48  1  0  0  0  0
 44 45  2  0  0  0  0
 47 42  1  0  0  0  0
M  END
>  <minimizedAffinity>
-5.7754178

$$$$

 OpenBabel03262522173D

 48 53  0  0  1  0  0  0  0  0999 V2000
   35.9120   27.1440   31.7830 C   0  0  0  0  0  0  0  0  0  0  0  0
   35.0980   27.1140   31.0610 H   0  0  0  0  0  0  0  0  0  0  0  0
   35.5840   26.7660   32.7840 H   0  0  0  0  0  0  0  0  0  0  0  0
   35.4210   30.5260   32.6770 C   0  0  1  0  0  0  0  0  0  0  0  0
   35.8870   29.1880   33.1940 C   0  0  0  0  0  0  0  0  0  0  0  0
   36.4330   28.5560   31.9460 C   0  0  2  0  0  0  0  0  0  0  0  0
   36.1240   29.3700   30.8920 O   0  0  0  0  0  0  0  0  0  0  0  0
   35.0510   30.1760   31.2610 C   0  0  0  0  0  0  0  0  0  0  0  0
   36.2630   31.2320   32.6650 H   0  0  0  0  0  0  0  0  0  0  0  0
   36.6870   29.3120   33.9490 H   0  0  0  0  0  0  0  0  0  0  0  0
   35.0090   28.6290   33.5690 H   0  0  0  0  0  0  0  0  0  0  0  0
   37.5470   28.4880   32.0260 H   0  0  0  0  0  0  0  0  0  0  0  0
   34.0860   29.6500   31.2500 H   0  0  0  0  0  0  0  0  0  0  0  0
   35.0590   31.0320   30.5640 H   0  0  0  0  0  0  0  0  0  0  0  0
   34.3260   31.0070   33.4010 O   0  0  0  0  0  0  0  0  0  0  0  0
   34.3580   30.6310   34.7140 C   0  0  0  0  0  2  0  0  0  0  0  0
   34.7720   31.8510   35.5470 C   0  0  1  0  0  0  0  0  0  0  0  0
   36.2070   31.9310   35.7920 C   0  0  0  0  0  2  0  0  0  0  0  0
   36.7470   33.1870   35.5400 N   0  0  1  0  0  0  0  0  0  0  0  0
   37.7420   34.1550   35.3390 C   0  0  1  0  0  0  0  0  0  0  0  0
   38.8940   34.4770   35.7190 O   0  0  0  0  0  1  0  0  0  0  0  0
   36.8000   34.7850   34.3440 C   0  0  0  0  0  3  0  0  0  0  0  0
   36.8990   35.8870   34.2830 H   0  0  0  0  0  0  0  0  0  0  0  0
   35.8100   34.2610   35.3340 C   0  0  1  0  0  0  0  0  0  0  0  0
   34.3780   33.3830   34.6610 S   0  0  0  0  0  0  0  0  0  0  0  0
   33.9820   31.7960   36.8500 C   0  0  0  0  0  2  0  0  0  0  0  0
   34.1870   32.6940   37.4550 H   0  0  0  0  0  0  0  0  0  0  0  0
   37.3420   26.1100   31.3240 S   0  0  0  0  0  0  0  0  0  0  0  0
   39.0670   25.3710   34.8190 C   0  0  0  0  0  0  0  0  0  0  0  0
   40.1320   26.2790   34.8710 C   0  0  0  0  0  0  0  0  0  0  0  0
   40.3670   27.1570   33.8370 C   0  0  0  0  0  0  0  0  0  0  0  0
   39.5040   27.0860   32.7670 C   0  0  0  0  0  0  0  0  0  0  0  0
   38.4770   26.1960   32.7400 C   0  0  0  0  0  0  0  0  0  0  0  0
   38.2350   25.3260   33.7530 N   0  0  0  0  0  0  0  0  0  0  0  0
   40.8080   26.3270   35.7210 H   0  0  0  0  0  0  0  0  0  0  0  0
   41.1850   27.8790   33.8370 H   0  0  0  0  0  0  0  0  0  0  0  0
   39.6350   27.7510   31.9180 H   0  0  0  0  0  0  0  0  0  0  0  0
   38.8870   24.4860   35.9410 C   0  0  0  0  0  0  0  0  0  0  0  0
   37.9400   24.6200   36.7130 O   0  0  0  0  0  0  0  0  0  0  0  0
   40.5330   22.8310   35.1480 C   0  0  0  0  0  0  0  0  0  0  0  0
   39.8210   23.3790   36.2240 C   0  0  0  0  0  0  0  0  0  0  0  0
   40.0140   22.8720   37.5070 C   0  0  0  0  0  0  0  0  0  0  0  0
   40.8980   21.8460   37.6830 N   0  0  0  0  0  0  0  0  0  0  0  0
   41.5730   21.3330   36.6280 C   0  0  0  0  0  0  0  0  0  0  0  0
   41.3900   21.8150   35.4060 N   0  0  0  0  0  0  0  0  0  0  0  0
   40.4170   23.1910   34.1270 H   0  0  0  0  0  0  0  0  0  0  0  0
   39.4670   23.2970   38.3180 H   0  0  0  0  0  0  0  0  0  0  0  0
   42.2860   20.5300   36.6660 H   0  0  0  0  0  0  0  0  0  0  0  0
  1  6  1  0  0  0  0
  1  3  1  0  0  0  0
  2  1  1  0  0  0  0
  4  9  1  1  0  0  0
  4  5  1  0  0  0  0
  4 15  1  0  0  0  0
  5 11  1  0  0  0  0
  5 10  1  0  0  0  0
  6 12  1  1  0  0  0
  6  5  1  0  0  0  0
  7  8  1  0  0  0  0
  7  6  1  0  0  0  0
  8  4  1  0  0  0  0
 13  8  1  0  0  0  0
 14  8  1  0  0  0  0
 15 16  1  0  0  0  0
 17 16  1  6  0  0  0
 17 18  1  0  0  0  0
 17 26  1  0  0  0  0
 19 18  1  6  0  0  0
 20 19  1  0  0  0  0
 20 21  1  1  0  0  0
 22 20  1  0  0  0  0
 23 22  1  0  0  0  0
 24 22  1  6  0  0  0
 24 20  1  0  0  0  0
 24 19  1  0  0  0  0
 25 24  1  0  0  0  0
 25 17  1  0  0  0  0
 26 27  1  0  0  0  0
 28  1  1  0  0  0  0
 28 33  1  0  0  0  0
 29 30  1  0  0  0  0
 29 38  1  0  0  0  0
 30 35  1  0  0  0  0
 31 30  2  0  0  0  0
 32 31  1  0  0  0  0
 33 32  2  0  0  0  0
 33 34  1  0  0  0  0
 34 29  2  0  0  0  0
 36 31  1  0  0  0  0
 37 32  1  0  0  0  0
 38 41  1  0  0  0  0
 38 39  2  0  0  0  0
 40 45  2  0  0  0  0
 40 41  1  0  0  0  0
 41 42  2  0  0  0  0
 42 43  1  0  0  0  0
 42 47  1  0  0  0  0
 44 48  1  0  0  0  0
 44 43  2  0  0  0  0
 45 44  1  0  0  0  0
 46 40  1  0  0  0  0
M  END
>  <minimizedAffinity>
-5.76960707

$$$$

 OpenBabel03262522173D

 48 53  0  0  1  0  0  0  0  0999 V2000
   37.1150   27.9650   32.7100 C   0  0  0  0  0  0  0  0  0  0  0  0
   36.6690   27.1150   33.2230 H   0  0  0  0  0  0  0  0  0  0  0  0
   37.5190   28.7140   33.4380 H   0  0  0  0  0  0  0  0  0  0  0  0
   34.8240   30.5840   32.1050 C   0  0  1  0  0  0  0  0  0  0  0  0
   36.2500   30.1440   31.8900 C   0  0  0  0  0  0  0  0  0  0  0  0
   36.0980   28.6520   31.8230 C   0  0  2  0  0  0  0  0  0  0  0  0
   34.8060   28.3450   32.1470 O   0  0  0  0  0  0  0  0  0  0  0  0
   34.2700   29.4100   32.8650 C   0  0  0  0  0  0  0  0  0  0  0  0
   34.3100   30.6610   31.1370 H   0  0  0  0  0  0  0  0  0  0  0  0
   36.6460   30.5380   30.9350 H   0  0  0  0  0  0  0  0  0  0  0  0
   36.8480   30.4420   32.7720 H   0  0  0  0  0  0  0  0  0  0  0  0
   36.2920   28.3090   30.7760 H   0  0  0  0  0  0  0  0  0  0  0  0
   34.6130   29.4500   33.9090 H   0  0  0  0  0  0  0  0  0  0  0  0
   33.1730   29.3010   32.7990 H   0  0  0  0  0  0  0  0  0  0  0  0
   34.7530   31.7680   32.8450 O   0  0  0  0  0  0  0  0  0  0  0  0
   35.9840   32.2300   33.2150 C   0  0  0  0  0  2  0  0  0  0  0  0
   35.8660   32.8180   34.6280 C   0  0  1  0  0  0  0  0  0  0  0  0
   34.6430   33.5820   34.8410 C   0  0  0  0  0  2  0  0  0  0  0  0
   33.9770   33.2530   36.0170 N   0  0  1  0  0  0  0  0  0  0  0  0
   32.9320   33.2230   36.9510 C   0  0  1  0  0  0  0  0  0  0  0  0
   32.0080   33.9320   37.4190 O   0  0  0  0  0  1  0  0  0  0  0  0
   33.3670   31.8120   37.2560 C   0  0  0  0  0  3  0  0  0  0  0  0
   33.1900   31.5150   38.3100 H   0  0  0  0  0  0  0  0  0  0  0  0
   34.6960   32.4260   36.9530 C   0  0  1  0  0  0  0  0  0  0  0  0
   35.7910   31.4890   35.8590 S   0  0  0  0  0  0  0  0  0  0  0  0
   37.1090   33.6690   34.8680 C   0  0  0  0  0  2  0  0  0  0  0  0
   37.1090   34.0540   35.9000 H   0  0  0  0  0  0  0  0  0  0  0  0
   38.5260   27.5240   31.6430 S   0  0  0  0  0  0  0  0  0  0  0  0
   40.2860   24.9560   34.1020 C   0  0  0  0  0  0  0  0  0  0  0  0
   41.5190   25.5540   34.3920 C   0  0  0  0  0  0  0  0  0  0  0  0
   41.8640   26.7700   33.8460 C   0  0  0  0  0  0  0  0  0  0  0  0
   40.9350   27.3500   33.0110 C   0  0  0  0  0  0  0  0  0  0  0  0
   39.7450   26.7510   32.7460 C   0  0  0  0  0  0  0  0  0  0  0  0
   39.3940   25.5520   33.2770 N   0  0  0  0  0  0  0  0  0  0  0  0
   42.2450   25.0870   35.0530 H   0  0  0  0  0  0  0  0  0  0  0  0
   42.8130   27.2700   34.0460 H   0  0  0  0  0  0  0  0  0  0  0  0
   41.1460   28.3100   32.5480 H   0  0  0  0  0  0  0  0  0  0  0  0
   39.9990   23.6840   34.7120 C   0  0  0  0  0  0  0  0  0  0  0  0
   40.1980   22.6300   34.1130 O   0  0  0  0  0  0  0  0  0  0  0  0
   38.1940   24.1310   36.3310 C   0  0  0  0  0  0  0  0  0  0  0  0
   39.4570   23.5750   36.0810 C   0  0  0  0  0  0  0  0  0  0  0  0
   40.1490   22.9470   37.1130 C   0  0  0  0  0  0  0  0  0  0  0  0
   39.5750   22.8890   38.3510 N   0  0  0  0  0  0  0  0  0  0  0  0
   38.3540   23.4340   38.5680 C   0  0  0  0  0  0  0  0  0  0  0  0
   37.6950   24.0320   37.5850 N   0  0  0  0  0  0  0  0  0  0  0  0
   37.6130   24.6330   35.5580 H   0  0  0  0  0  0  0  0  0  0  0  0
   41.1080   22.5280   36.9110 H   0  0  0  0  0  0  0  0  0  0  0  0
   37.8240   23.4380   39.5020 H   0  0  0  0  0  0  0  0  0  0  0  0
  1  2  1  0  0  0  0
  1  3  1  0  0  0  0
  4  9  1  6  0  0  0
  4 15  1  0  0  0  0
  4  8  1  0  0  0  0
  5  4  1  0  0  0  0
  5 11  1  0  0  0  0
  6 12  1  6  0  0  0
  6  5  1  0  0  0  0
  6  7  1  0  0  0  0
  6  1  1  0  0  0  0
  7  8  1  0  0  0  0
  8 13  1  0  0  0  0
 10  5  1  0  0  0  0
 14  8  1  0  0  0  0
 15 16  1  0  0  0  0
 17 16  1  6  0  0  0
 17 18  1  0  0  0  0
 17 26  1  0  0  0  0
 17 25  1  0  0  0  0
 19 18  1  6  0  0  0
 19 20  1  0  0  0  0
 19 24  1  0  0  0  0
 20 24  1  0  0  0  0
 20 22  1  0  0  0  0
 20 21  1  1  0  0  0
 22 23  1  0  0  0  0
 24 25  1  1  0  0  0
 24 22  1  0  0  0  0
 26 27  1  0  0  0  0
 28  1  1  0  0  0  0
 28 33  1  0  0  0  0
 29 30  1  0  0  0  0
 29 38  1  0  0  0  0
 30 35  1  0  0  0  0
 31 36  1  0  0  0  0
 31 30  2  0  0  0  0
 32 31  1  0  0  0  0
 33 32  2  0  0  0  0
 33 34  1  0  0  0  0
 34 29  2  0  0  0  0
 37 32  1  0  0  0  0
 38 41  1  0  0  0  0
 39 38  2  0  0  0  0
 40 45  1  0  0  0  0
 41 40  2  0  0  0  0
 41 42  1  0  0  0  0
 42 43  2  0  0  0  0
 43 44  1  0  0  0  0
 44 48  1  0  0  0  0
 45 44  2  0  0  0  0
 46 40  1  0  0  0  0
 47 42  1  0  0  0  0
M  END
>  <minimizedAffinity>
-5.64660263

$$$$

 OpenBabel03262522173D

 48 53  0  0  1  0  0  0  0  0999 V2000
   37.6980   25.4210   36.2940 C   0  0  0  0  0  0  0  0  0  0  0  0
   37.2460   25.6660   37.2530 H   0  0  0  0  0  0  0  0  0  0  0  0
   36.9180   25.2370   35.5110 H   0  0  0  0  0  0  0  0  0  0  0  0
   38.8600   22.3400   35.0170 C   0  0  1  0  0  0  0  0  0  0  0  0
   39.1520   23.8180   35.0750 C   0  0  0  0  0  0  0  0  0  0  0  0
   38.5690   24.1880   36.4080 C   0  0  2  0  0  0  0  0  0  0  0  0
   37.9000   23.0990   36.8930 O   0  0  0  0  0  0  0  0  0  0  0  0
   37.5920   22.2630   35.8230 C   0  0  0  0  0  0  0  0  0  0  0  0
   39.6520   21.7850   35.5390 H   0  0  0  0  0  0  0  0  0  0  0  0
   40.2430   24.0070   35.0620 H   0  0  0  0  0  0  0  0  0  0  0  0
   38.6080   24.3180   34.2520 H   0  0  0  0  0  0  0  0  0  0  0  0
   39.3990   24.4370   37.1160 H   0  0  0  0  0  0  0  0  0  0  0  0
   36.7470   22.6220   35.2180 H   0  0  0  0  0  0  0  0  0  0  0  0
   37.3900   21.2700   36.2610 H   0  0  0  0  0  0  0  0  0  0  0  0
   38.6730   21.9000   33.7030 O   0  0  0  0  0  0  0  0  0  0  0  0
   37.3570   21.8900   33.3350 C   0  0  0  0  0  2  0  0  0  0  0  0
   37.2610   22.4220   31.8990 C   0  0  1  0  0  0  0  0  0  0  0  0
   37.5130   23.8540   31.7890 C   0  0  0  0  0  2  0  0  0  0  0  0
   38.4060   24.1870   30.7760 N   0  0  1  0  0  0  0  0  0  0  0  0
   39.2730   24.9930   30.0250 C   0  0  1  0  0  0  0  0  0  0  0  0
   39.4220   26.1730   29.6250 O   0  0  0  0  0  1  0  0  0  0  0  0
   40.1050   23.7520   29.8230 C   0  0  0  0  0  3  0  0  0  0  0  0
   40.6380   23.7330   28.8510 H   0  0  0  0  0  0  0  0  0  0  0  0
   38.7410   23.1410   29.8440 C   0  0  1  0  0  0  0  0  0  0  0  0
   38.5330   21.6560   30.8580 S   0  0  0  0  0  0  0  0  0  0  0  0
   35.8790   22.0520   31.3730 C   0  0  0  0  0  2  0  0  0  0  0  0
   35.7860   22.3470   30.3150 H   0  0  0  0  0  0  0  0  0  0  0  0
   38.7530   26.7450   35.6170 S   0  0  0  0  0  0  0  0  0  0  0  0
   35.9440   28.6920   33.6040 C   0  0  0  0  0  0  0  0  0  0  0  0
   36.3450   28.5810   32.2670 C   0  0  0  0  0  0  0  0  0  0  0  0
   37.4940   27.9040   31.9240 C   0  0  0  0  0  0  0  0  0  0  0  0
   38.2110   27.3540   32.9630 C   0  0  0  0  0  0  0  0  0  0  0  0
   37.8010   27.4750   34.2520 C   0  0  0  0  0  0  0  0  0  0  0  0
   36.6710   28.1400   34.6030 N   0  0  0  0  0  0  0  0  0  0  0  0
   35.7710   29.0190   31.4540 H   0  0  0  0  0  0  0  0  0  0  0  0
   37.8420   27.7940   30.8960 H   0  0  0  0  0  0  0  0  0  0  0  0
   39.1270   26.8070   32.7600 H   0  0  0  0  0  0  0  0  0  0  0  0
   34.7300   29.4160   33.8800 C   0  0  0  0  0  0  0  0  0  0  0  0
   33.7150   29.2360   33.2110 O   0  0  0  0  0  0  0  0  0  0  0  0
   35.7630   31.1970   35.2360 C   0  0  0  0  0  0  0  0  0  0  0  0
   34.6370   30.4040   34.9720 C   0  0  0  0  0  0  0  0  0  0  0  0
   33.4830   30.5700   35.7350 C   0  0  0  0  0  0  0  0  0  0  0  0
   33.4810   31.5080   36.7280 N   0  0  0  0  0  0  0  0  0  0  0  0
   34.5810   32.2610   36.9640 C   0  0  0  0  0  0  0  0  0  0  0  0
   35.6790   32.1040   36.2380 N   0  0  0  0  0  0  0  0  0  0  0  0
   36.6880   31.1050   34.6690 H   0  0  0  0  0  0  0  0  0  0  0  0
   32.6340   29.9610   35.5250 H   0  0  0  0  0  0  0  0  0  0  0  0
   34.6740   33.0200   37.7180 H   0  0  0  0  0  0  0  0  0  0  0  0
  1  6  1  0  0  0  0
  1  2  1  0  0  0  0
  3  1  1  0  0  0  0
  4  5  1  0  0  0  0
  4  9  1  1  0  0  0
  4  8  1  0  0  0  0
  5  6  1  0  0  0  0
  6  7  1  0  0  0  0
  6 12  1  1  0  0  0
  8 14  1  0  0  0  0
  8  7  1  0  0  0  0
 10  5  1  0  0  0  0
 11  5  1  0  0  0  0
 13  8  1  0  0  0  0
 15  4  1  0  0  0  0
 16 15  1  0  0  0  0
 17 26  1  6  0  0  0
 17 16  1  0  0  0  0
 18 17  1  0  0  0  0
 19 18  1  1  0  0  0
 20 21  1  6  0  0  0
 20 19  1  0  0  0  0
 22 20  1  0  0  0  0
 23 22  1  0  0  0  0
 24 22  1  1  0  0  0
 24 20  1  0  0  0  0
 24 19  1  0  0  0  0
 24 25  1  0  0  0  0
 25 17  1  0  0  0  0
 27 26  1  0  0  0  0
 28  1  1  0  0  0  0
 29 38  1  0  0  0  0
 29 34  1  0  0  0  0
 30 29  2  0  0  0  0
 31 30  1  0  0  0  0
 31 32  2  0  0  0  0
 32 33  1  0  0  0  0
 33 34  2  0  0  0  0
 33 28  1  0  0  0  0
 35 30  1  0  0  0  0
 36 31  1  0  0  0  0
 37 32  1  0  0  0  0
 38 41  1  0  0  0  0
 39 38  2  0  0  0  0
 40 45  1  0  0  0  0
 41 40  2  0  0  0  0
 41 42  1  0  0  0  0
 42 43  2  0  0  0  0
 43 44  1  0  0  0  0
 44 48  1  0  0  0  0
 45 44  2  0  0  0  0
 46 40  1  0  0  0  0
 47 42  1  0  0  0  0
M  END
>  <minimizedAffinity>
-5.58471346

$$$$
