
 OpenBabel03272507263D

 40 43  0  0  1  0  0  0  0  0999 V2000
   36.4510   20.7930   33.3920 C   0  0  0  0  0  0  0  0  0  0  0  0
   37.6100   21.5130   33.7330 C   0  0  0  0  0  0  0  0  0  0  0  0
   37.7550   21.9370   35.0530 C   0  0  0  0  0  0  0  0  0  0  0  0
   36.7750   21.6370   35.9410 N   0  0  0  0  0  0  0  0  0  0  0  0
   35.6720   20.9430   35.5800 C   0  0  0  0  0  0  0  0  0  0  0  0
   35.5140   20.5270   34.3200 N   0  0  0  0  0  0  0  0  0  0  0  0
   38.8960   22.6640   35.4630 N   0  0  0  0  0  0  0  0  0  0  0  0
   40.2140   22.5440   34.8510 C   0  0  0  0  0  0  0  0  0  0  0  0
   41.1600   23.2770   35.7510 C   0  0  0  0  0  0  0  0  0  0  0  0
   40.4140   23.3680   37.0210 C   0  0  0  0  0  0  0  0  0  0  0  0
   39.0050   23.6210   36.5050 C   0  0  2  0  0  0  0  0  0  0  0  0
   36.3560   20.4730   32.3670 H   0  0  0  0  0  0  0  0  0  0  0  0
   38.3600   21.7240   32.9850 H   0  0  0  0  0  0  0  0  0  0  0  0
   34.9020   20.7110   36.2960 H   0  0  0  0  0  0  0  0  0  0  0  0
   40.2070   22.8800   33.8090 H   0  0  0  0  0  0  0  0  0  0  0  0
   40.4060   21.4370   34.8200 H   0  0  0  0  0  0  0  0  0  0  0  0
   41.6080   24.1870   35.3480 H   0  0  0  0  0  0  0  0  0  0  0  0
   42.0130   22.5800   35.9220 H   0  0  0  0  0  0  0  0  0  0  0  0
   40.6770   24.2510   37.6340 H   0  0  0  0  0  0  0  0  0  0  0  0
   40.4720   22.4520   37.6170 H   0  0  0  0  0  0  0  0  0  0  0  0
   38.0040   23.6090   37.5980 C   0  0  0  0  0  0  0  0  0  0  0  0
   38.3900   24.5930   38.5020 F   0  0  0  0  0  0  0  0  0  0  0  0
   37.9250   22.4560   38.3040 F   0  0  0  0  0  0  0  0  0  0  0  0
   36.8130   24.0410   37.0700 F   0  0  0  0  0  0  0  0  0  0  0  0
   38.9450   24.9610   35.8620 C   0  0  0  0  0  0  0  0  0  0  0  0
   39.9790   25.2700   35.5260 H   0  0  0  0  0  0  0  0  0  0  0  0
   38.7110   25.7050   36.6570 H   0  0  0  0  0  0  0  0  0  0  0  0
   38.1540   24.8930   34.9170 O   0  0  0  0  0  0  0  0  0  0  0  0
   37.5800   26.0880   34.5220 C   0  0  0  0  0  2  0  0  0  0  0  0
   37.9110   26.3310   33.0780 C   0  0  1  0  0  0  0  0  0  0  0  0
   38.1030   25.1150   32.2480 C   0  0  0  0  0  2  0  0  0  0  0  0
   36.8570   24.7590   31.6230 N   0  0  0  0  0  0  0  0  0  0  0  0
   35.7090   24.0470   31.1750 C   0  0  0  0  0  0  0  0  0  0  0  0
   35.3940   22.8200   31.0110 O   0  0  0  0  0  0  0  0  0  0  0  0
   34.9320   25.2920   30.9430 C   0  0  0  0  0  3  0  0  0  0  0  0
   34.3490   25.3530   30.0180 H   0  0  0  0  0  0  0  0  0  0  0  0
   36.3090   25.9050   30.9120 C   0  0  1  0  0  3  0  0  0  0  0  0
   36.5630   27.1790   32.2070 S   0  0  0  0  0  0  0  0  0  0  0  0
   39.1200   27.2260   32.9740 C   0  0  0  0  0  2  0  0  0  0  0  0
   39.4300   27.1660   31.8900 H   0  0  0  0  0  0  0  0  0  0  0  0
  1  2  2  0  0  0  0
  1  6  1  0  0  0  0
  2  3  1  0  0  0  0
  3  7  1  0  0  0  0
  3  4  2  0  0  0  0
  5  4  1  0  0  0  0
  5 14  1  0  0  0  0
  6  5  2  0  0  0  0
  7 11  1  0  0  0  0
  8  7  1  0  0  0  0
  8  9  1  0  0  0  0
  9 18  1  0  0  0  0
  9 10  1  0  0  0  0
 10 20  1  0  0  0  0
 10 19  1  0  0  0  0
 11 25  1  6  0  0  0
 11 10  1  0  0  0  0
 11 21  1  0  0  0  0
 12  1  1  0  0  0  0
 13  2  1  0  0  0  0
 15  8  1  0  0  0  0
 16  8  1  0  0  0  0
 17  9  1  0  0  0  0
 21 23  1  0  0  0  0
 21 22  1  0  0  0  0
 24 21  1  0  0  0  0
 25 27  1  0  0  0  0
 26 25  1  0  0  0  0
 28 25  1  0  0  0  0
 29 28  1  0  0  0  0
 30 39  1  6  0  0  0
 30 29  1  0  0  0  0
 31 30  1  0  0  0  0
 32 31  1  0  0  0  0
 33 32  1  0  0  0  0
 34 33  2  0  0  0  0
 35 33  1  0  0  0  0
 36 35  1  0  0  0  0
 37 35  1  1  0  0  0
 37 32  1  0  0  0  0
 37 38  1  0  0  0  0
 38 30  1  0  0  0  0
 40 39  1  0  0  0  0
M  END
>  <minimizedAffinity>
-5.79625082

$$$$

 OpenBabel03272507263D

 40 43  0  0  1  0  0  0  0  0999 V2000
   39.1140   27.1320   33.7630 C   0  0  0  0  0  0  0  0  0  0  0  0
   38.6040   26.2410   34.7230 C   0  0  0  0  0  0  0  0  0  0  0  0
   39.4730   25.2980   35.2710 C   0  0  0  0  0  0  0  0  0  0  0  0
   40.7630   25.2860   34.8530 N   0  0  0  0  0  0  0  0  0  0  0  0
   41.2220   26.1590   33.9270 C   0  0  0  0  0  0  0  0  0  0  0  0
   40.4050   27.0700   33.3900 N   0  0  0  0  0  0  0  0  0  0  0  0
   39.0250   24.3730   36.2410 N   0  0  0  0  0  0  0  0  0  0  0  0
   37.9360   24.6220   37.1790 C   0  0  0  0  0  0  0  0  0  0  0  0
   37.9800   23.5050   38.1760 C   0  0  0  0  0  0  0  0  0  0  0  0
   39.3420   22.9610   38.0120 C   0  0  0  0  0  0  0  0  0  0  0  0
   39.5100   23.0650   36.5030 C   0  0  2  0  0  0  0  0  0  0  0  0
   38.4280   27.8550   33.3510 H   0  0  0  0  0  0  0  0  0  0  0  0
   37.5670   26.2950   35.0210 H   0  0  0  0  0  0  0  0  0  0  0  0
   42.2480   26.1390   33.6040 H   0  0  0  0  0  0  0  0  0  0  0  0
   36.9810   24.7490   36.6610 H   0  0  0  0  0  0  0  0  0  0  0  0
   38.1820   25.6220   37.6290 H   0  0  0  0  0  0  0  0  0  0  0  0
   37.1400   22.8090   38.1610 H   0  0  0  0  0  0  0  0  0  0  0  0
   37.9410   23.9930   39.1760 H   0  0  0  0  0  0  0  0  0  0  0  0
   39.4270   21.8850   38.2540 H   0  0  0  0  0  0  0  0  0  0  0  0
   40.1000   23.5400   38.5480 H   0  0  0  0  0  0  0  0  0  0  0  0
   40.8830   22.7090   36.0730 C   0  0  0  0  0  0  0  0  0  0  0  0
   41.1500   21.4480   36.5960 F   0  0  0  0  0  0  0  0  0  0  0  0
   41.8660   23.5240   36.5250 F   0  0  0  0  0  0  0  0  0  0  0  0
   40.8570   22.5440   34.7100 F   0  0  0  0  0  0  0  0  0  0  0  0
   38.5760   22.1210   35.8330 C   0  0  0  0  0  0  0  0  0  0  0  0
   37.6280   22.0250   36.4430 H   0  0  0  0  0  0  0  0  0  0  0  0
   39.0200   21.1020   35.9030 H   0  0  0  0  0  0  0  0  0  0  0  0
   38.3520   22.5500   34.6980 O   0  0  0  0  0  0  0  0  0  0  0  0
   37.3570   21.9010   33.9910 C   0  0  0  0  0  2  0  0  0  0  0  0
   37.7140   21.9080   32.5330 C   0  0  1  0  0  0  0  0  0  0  0  0
   36.5720   22.0290   31.5910 C   0  0  0  0  0  2  0  0  0  0  0  0
   36.3620   23.4150   31.2690 N   0  0  0  0  0  0  0  0  0  0  0  0
   35.7740   24.6960   31.0660 C   0  0  0  0  0  0  0  0  0  0  0  0
   34.5920   25.1480   30.8930 O   0  0  0  0  0  0  0  0  0  0  0  0
   37.0860   25.3930   31.1290 C   0  0  0  0  0  3  0  0  0  0  0  0
   37.2730   26.1740   30.3860 H   0  0  0  0  0  0  0  0  0  0  0  0
   37.6050   24.0160   30.8050 C   0  0  1  0  0  3  0  0  0  0  0  0
   38.7290   23.3450   32.0890 S   0  0  0  0  0  0  0  0  0  0  0  0
   38.5320   20.6850   32.2000 C   0  0  0  0  0  2  0  0  0  0  0  0
   38.5550   20.6520   31.0720 H   0  0  0  0  0  0  0  0  0  0  0  0
  1  2  1  0  0  0  0
  2 13  1  0  0  0  0
  2  3  2  0  0  0  0
  3  7  1  0  0  0  0
  4  3  1  0  0  0  0
  5  4  2  0  0  0  0
  6  1  2  0  0  0  0
  6  5  1  0  0  0  0
  7 11  1  0  0  0  0
  7  8  1  0  0  0  0
  8 16  1  0  0  0  0
  8  9  1  0  0  0  0
  9 18  1  0  0  0  0
 10  9  1  0  0  0  0
 10 19  1  0  0  0  0
 10 20  1  0  0  0  0
 11 25  1  6  0  0  0
 11 10  1  0  0  0  0
 12  1  1  0  0  0  0
 14  5  1  0  0  0  0
 15  8  1  0  0  0  0
 17  9  1  0  0  0  0
 21 11  1  0  0  0  0
 21 23  1  0  0  0  0
 21 22  1  0  0  0  0
 24 21  1  0  0  0  0
 25 27  1  0  0  0  0
 25 26  1  0  0  0  0
 28 25  1  0  0  0  0
 29 28  1  0  0  0  0
 30 39  1  6  0  0  0
 30 29  1  0  0  0  0
 31 30  1  0  0  0  0
 32 31  1  0  0  0  0
 33 35  1  0  0  0  0
 33 32  1  0  0  0  0
 34 33  2  0  0  0  0
 36 35  1  0  0  0  0
 37 35  1  1  0  0  0
 37 32  1  0  0  0  0
 37 38  1  0  0  0  0
 38 30  1  0  0  0  0
 40 39  1  0  0  0  0
M  END
>  <minimizedAffinity>
-5.66451216

$$$$

 OpenBabel03272507263D

 40 43  0  0  1  0  0  0  0  0999 V2000
   40.1180   27.0820   33.6430 C   0  0  0  0  0  0  0  0  0  0  0  0
   39.3560   26.2950   34.5250 C   0  0  0  0  0  0  0  0  0  0  0  0
   40.0040   25.2790   35.2260 C   0  0  0  0  0  0  0  0  0  0  0  0
   41.3330   25.0980   35.0230 N   0  0  0  0  0  0  0  0  0  0  0  0
   42.0370   25.8730   34.1680 C   0  0  0  0  0  0  0  0  0  0  0  0
   41.4350   26.8520   33.4860 N   0  0  0  0  0  0  0  0  0  0  0  0
   39.2970   24.4510   36.1270 N   0  0  0  0  0  0  0  0  0  0  0  0
   38.1120   24.8650   36.8700 C   0  0  0  0  0  0  0  0  0  0  0  0
   37.8590   23.7910   37.8830 C   0  0  0  0  0  0  0  0  0  0  0  0
   39.1520   23.0840   37.9540 C   0  0  0  0  0  0  0  0  0  0  0  0
   39.5700   23.1070   36.4910 C   0  0  2  0  0  0  0  0  0  0  0  0
   39.6010   27.8630   33.1110 H   0  0  0  0  0  0  0  0  0  0  0  0
   38.3000   26.4830   34.6480 H   0  0  0  0  0  0  0  0  0  0  0  0
   43.0920   25.7190   34.0170 H   0  0  0  0  0  0  0  0  0  0  0  0
   37.2740   25.0830   36.2020 H   0  0  0  0  0  0  0  0  0  0  0  0
   38.4040   25.8450   37.3350 H   0  0  0  0  0  0  0  0  0  0  0  0
   36.9520   23.1980   37.7450 H   0  0  0  0  0  0  0  0  0  0  0  0
   37.7210   24.3190   38.8540 H   0  0  0  0  0  0  0  0  0  0  0  0
   39.0650   22.0150   38.2280 H   0  0  0  0  0  0  0  0  0  0  0  0
   39.8810   23.5900   38.5950 H   0  0  0  0  0  0  0  0  0  0  0  0
   40.9400   22.5750   36.2980 C   0  0  0  0  0  0  0  0  0  0  0  0
   40.9590   21.3070   36.8700 F   0  0  0  0  0  0  0  0  0  0  0  0
   41.9300   23.2780   36.8980 F   0  0  0  0  0  0  0  0  0  0  0  0
   41.1160   22.3730   34.9500 F   0  0  0  0  0  0  0  0  0  0  0  0
   38.6460   22.2540   35.6970 C   0  0  0  0  0  0  0  0  0  0  0  0
   37.5800   22.4310   36.0320 H   0  0  0  0  0  0  0  0  0  0  0  0
   38.8260   21.1960   35.9930 H   0  0  0  0  0  0  0  0  0  0  0  0
   38.8060   22.5300   34.5040 O   0  0  0  0  0  0  0  0  0  0  0  0
   37.6630   22.8670   33.8030 C   0  0  0  0  0  2  0  0  0  0  0  0
   37.7440   22.2720   32.4270 C   0  0  1  0  0  0  0  0  0  0  0  0
   37.9360   20.8000   32.3720 C   0  0  0  0  0  2  0  0  0  0  0  0
   36.6540   20.1530   32.2830 N   0  0  0  0  0  0  0  0  0  0  0  0
   35.5320   19.3080   32.5140 C   0  0  0  0  0  0  0  0  0  0  0  0
   35.3270   18.1940   33.1040 O   0  0  0  0  0  0  0  0  0  0  0  0
   34.6020   20.2140   31.7900 C   0  0  0  0  0  3  0  0  0  0  0  0
   33.8830   19.7510   31.1070 H   0  0  0  0  0  0  0  0  0  0  0  0
   35.8870   20.7130   31.1780 C   0  0  1  0  0  3  0  0  0  0  0  0
   36.1990   22.4910   31.5010 S   0  0  0  0  0  0  0  0  0  0  0  0
   38.8230   22.9640   31.6330 C   0  0  0  0  0  2  0  0  0  0  0  0
   38.9710   22.3160   30.7210 H   0  0  0  0  0  0  0  0  0  0  0  0
  1  2  1  0  0  0  0
  2 13  1  0  0  0  0
  2  3  2  0  0  0  0
  3  7  1  0  0  0  0
  4  3  1  0  0  0  0
  5  4  2  0  0  0  0
  6  1  2  0  0  0  0
  6  5  1  0  0  0  0
  7 11  1  0  0  0  0
  7  8  1  0  0  0  0
  8 16  1  0  0  0  0
  8  9  1  0  0  0  0
  9 10  1  0  0  0  0
  9 18  1  0  0  0  0
 10 19  1  0  0  0  0
 10 20  1  0  0  0  0
 11 25  1  6  0  0  0
 11 10  1  0  0  0  0
 12  1  1  0  0  0  0
 14  5  1  0  0  0  0
 15  8  1  0  0  0  0
 17  9  1  0  0  0  0
 21 11  1  0  0  0  0
 21 22  1  0  0  0  0
 21 23  1  0  0  0  0
 24 21  1  0  0  0  0
 25 27  1  0  0  0  0
 25 26  1  0  0  0  0
 28 25  1  0  0  0  0
 29 28  1  0  0  0  0
 30 39  1  6  0  0  0
 30 29  1  0  0  0  0
 31 30  1  0  0  0  0
 32 31  1  0  0  0  0
 32 33  1  0  0  0  0
 33 34  2  0  0  0  0
 35 33  1  0  0  0  0
 36 35  1  0  0  0  0
 37 38  1  1  0  0  0
 37 35  1  0  0  0  0
 37 32  1  0  0  0  0
 38 30  1  0  0  0  0
 40 39  1  0  0  0  0
M  END
>  <minimizedAffinity>
-5.63428545

$$$$

 OpenBabel03272507263D

 40 43  0  0  1  0  0  0  0  0999 V2000
   42.0200   27.0360   31.3750 C   0  0  0  0  0  0  0  0  0  0  0  0
   40.6260   27.0820   31.5510 C   0  0  0  0  0  0  0  0  0  0  0  0
   40.1280   27.1110   32.8540 C   0  0  0  0  0  0  0  0  0  0  0  0
   41.0100   27.0920   33.8840 N   0  0  0  0  0  0  0  0  0  0  0  0
   42.3460   27.0470   33.6800 C   0  0  0  0  0  0  0  0  0  0  0  0
   42.8430   27.0190   32.4400 N   0  0  0  0  0  0  0  0  0  0  0  0
   38.7380   27.1570   33.1010 N   0  0  0  0  0  0  0  0  0  0  0  0
   37.7600   27.7590   32.2020 C   0  0  0  0  0  0  0  0  0  0  0  0
   36.4740   27.8230   32.9660 C   0  0  0  0  0  0  0  0  0  0  0  0
   36.9090   27.6810   34.3690 C   0  0  0  0  0  0  0  0  0  0  0  0
   38.0230   26.6560   34.2190 C   0  0  2  0  0  0  0  0  0  0  0  0
   42.3860   27.0150   30.3620 H   0  0  0  0  0  0  0  0  0  0  0  0
   39.9680   27.0950   30.6940 H   0  0  0  0  0  0  0  0  0  0  0  0
   43.0350   27.0340   34.5070 H   0  0  0  0  0  0  0  0  0  0  0  0
   37.7090   27.2270   31.2470 H   0  0  0  0  0  0  0  0  0  0  0  0
   38.1830   28.7740   31.9710 H   0  0  0  0  0  0  0  0  0  0  0  0
   35.6650   27.1830   32.6090 H   0  0  0  0  0  0  0  0  0  0  0  0
   36.1010   28.8650   32.8430 H   0  0  0  0  0  0  0  0  0  0  0  0
   36.1520   27.2140   35.0290 H   0  0  0  0  0  0  0  0  0  0  0  0
   37.2730   28.6190   34.8000 H   0  0  0  0  0  0  0  0  0  0  0  0
   38.7470   26.4340   35.4940 C   0  0  0  0  0  0  0  0  0  0  0  0
   37.8070   25.9800   36.4130 F   0  0  0  0  0  0  0  0  0  0  0  0
   39.3130   27.5350   36.0430 F   0  0  0  0  0  0  0  0  0  0  0  0
   39.6090   25.3830   35.2990 F   0  0  0  0  0  0  0  0  0  0  0  0
   37.4430   25.3490   33.8050 C   0  0  0  0  0  0  0  0  0  0  0  0
   36.4390   25.5170   33.3120 H   0  0  0  0  0  0  0  0  0  0  0  0
   37.1740   24.7920   34.7300 H   0  0  0  0  0  0  0  0  0  0  0  0
   38.2460   24.8030   33.0430 O   0  0  0  0  0  0  0  0  0  0  0  0
   38.1520   23.4270   32.9520 C   0  0  0  0  0  2  0  0  0  0  0  0
   37.6390   23.0640   31.5890 C   0  0  1  0  0  0  0  0  0  0  0  0
   37.9530   21.6880   31.1280 C   0  0  0  0  0  2  0  0  0  0  0  0
   36.8690   20.8070   31.4740 N   0  0  0  0  0  0  0  0  0  0  0  0
   36.1010   19.7220   31.9830 C   0  0  0  0  0  0  0  0  0  0  0  0
   36.3340   18.5170   32.3370 O   0  0  0  0  0  0  0  0  0  0  0  0
   34.8390   20.5080   31.9700 C   0  0  0  0  0  3  0  0  0  0  0  0
   33.9420   20.0070   31.5930 H   0  0  0  0  0  0  0  0  0  0  0  0
   35.6090   21.3460   30.9810 C   0  0  1  0  0  3  0  0  0  0  0  0
   35.8250   23.0860   31.5190 S   0  0  0  0  0  0  0  0  0  0  0  0
   38.1200   24.0720   30.5760 C   0  0  0  0  0  2  0  0  0  0  0  0
   37.8900   23.6060   29.5740 H   0  0  0  0  0  0  0  0  0  0  0  0
  1  2  2  0  0  0  0
  1  6  1  0  0  0  0
  2  3  1  0  0  0  0
  3  7  1  0  0  0  0
  3  4  2  0  0  0  0
  5  4  1  0  0  0  0
  5 14  1  0  0  0  0
  6  5  2  0  0  0  0
  7 11  1  0  0  0  0
  8  9  1  0  0  0  0
  8  7  1  0  0  0  0
  9 10  1  0  0  0  0
 10 20  1  0  0  0  0
 10 19  1  0  0  0  0
 11 25  1  6  0  0  0
 11 10  1  0  0  0  0
 11 21  1  0  0  0  0
 12  1  1  0  0  0  0
 13  2  1  0  0  0  0
 15  8  1  0  0  0  0
 16  8  1  0  0  0  0
 17  9  1  0  0  0  0
 18  9  1  0  0  0  0
 21 23  1  0  0  0  0
 21 22  1  0  0  0  0
 24 21  1  0  0  0  0
 25 27  1  0  0  0  0
 26 25  1  0  0  0  0
 28 25  1  0  0  0  0
 29 28  1  0  0  0  0
 30 39  1  6  0  0  0
 30 29  1  0  0  0  0
 31 32  1  0  0  0  0
 31 30  1  0  0  0  0
 32 33  1  0  0  0  0
 33 34  2  0  0  0  0
 35 33  1  0  0  0  0
 36 35  1  0  0  0  0
 37 32  1  0  0  0  0
 37 38  1  1  0  0  0
 37 35  1  0  0  0  0
 38 30  1  0  0  0  0
 40 39  1  0  0  0  0
M  END
>  <minimizedAffinity>
-5.36979818

$$$$

 OpenBabel03272507263D

 40 43  0  0  1  0  0  0  0  0999 V2000
   42.0540   21.8530   35.8890 C   0  0  0  0  0  0  0  0  0  0  0  0
   41.7480   23.0360   35.1930 C   0  0  0  0  0  0  0  0  0  0  0  0
   40.6700   23.7990   35.6390 C   0  0  0  0  0  0  0  0  0  0  0  0
   39.9700   23.3650   36.7160 N   0  0  0  0  0  0  0  0  0  0  0  0
   40.2910   22.2220   37.3630 C   0  0  0  0  0  0  0  0  0  0  0  0
   41.3210   21.4760   36.9520 N   0  0  0  0  0  0  0  0  0  0  0  0
   40.3080   24.9980   34.9850 N   0  0  0  0  0  0  0  0  0  0  0  0
   41.2400   25.8600   34.2670 C   0  0  0  0  0  0  0  0  0  0  0  0
   40.4960   27.1260   33.9710 C   0  0  0  0  0  0  0  0  0  0  0  0
   39.3660   27.0810   34.9190 C   0  0  0  0  0  0  0  0  0  0  0  0
   39.0260   25.5990   34.8870 C   0  0  2  0  0  0  0  0  0  0  0  0
   42.8920   21.2760   35.5320 H   0  0  0  0  0  0  0  0  0  0  0  0
   42.3400   23.3350   34.3410 H   0  0  0  0  0  0  0  0  0  0  0  0
   39.7270   21.8890   38.2180 H   0  0  0  0  0  0  0  0  0  0  0  0
   41.6670   25.3550   33.3960 H   0  0  0  0  0  0  0  0  0  0  0  0
   42.0900   26.0100   34.9870 H   0  0  0  0  0  0  0  0  0  0  0  0
   40.2810   27.3270   32.9200 H   0  0  0  0  0  0  0  0  0  0  0  0
   41.1660   27.9530   34.2980 H   0  0  0  0  0  0  0  0  0  0  0  0
   38.4610   27.6090   34.5640 H   0  0  0  0  0  0  0  0  0  0  0  0
   39.6400   27.4150   35.9250 H   0  0  0  0  0  0  0  0  0  0  0  0
   37.9900   25.2460   35.8870 C   0  0  0  0  0  0  0  0  0  0  0  0
   36.8660   26.0070   35.5820 F   0  0  0  0  0  0  0  0  0  0  0  0
   38.3020   25.5290   37.1750 F   0  0  0  0  0  0  0  0  0  0  0  0
   37.6250   23.9420   35.6580 F   0  0  0  0  0  0  0  0  0  0  0  0
   38.4880   25.2420   33.5460 C   0  0  0  0  0  0  0  0  0  0  0  0
   38.8200   26.0100   32.7850 H   0  0  0  0  0  0  0  0  0  0  0  0
   37.3850   25.3850   33.5770 H   0  0  0  0  0  0  0  0  0  0  0  0
   38.8910   24.1090   33.2660 O   0  0  0  0  0  0  0  0  0  0  0  0
   38.6180   23.6720   31.9830 C   0  0  0  0  0  2  0  0  0  0  0  0
   38.7920   22.1810   31.9310 C   0  0  1  0  0  0  0  0  0  0  0  0
   38.6530   21.4720   33.2290 C   0  0  0  0  0  2  0  0  0  0  0  0
   37.2920   21.0370   33.3940 N   0  0  0  0  0  0  0  0  0  0  0  0
   35.9870   20.8050   33.9120 C   0  0  0  0  0  0  0  0  0  0  0  0
   35.4400   20.8130   35.0670 O   0  0  0  0  0  0  0  0  0  0  0  0
   35.4180   20.5290   32.5660 C   0  0  0  0  0  3  0  0  0  0  0  0
   34.7370   19.6770   32.4760 H   0  0  0  0  0  0  0  0  0  0  0  0
   36.8650   20.2730   32.2300 C   0  0  1  0  0  3  0  0  0  0  0  0
   37.5120   21.3840   30.9220 S   0  0  0  0  0  0  0  0  0  0  0  0
   40.1150   21.8420   31.2940 C   0  0  0  0  0  2  0  0  0  0  0  0
   40.2630   20.7420   31.5040 H   0  0  0  0  0  0  0  0  0  0  0  0
  1  6  1  0  0  0  0
  2  3  1  0  0  0  0
  2  1  2  0  0  0  0
  3  4  2  0  0  0  0
  4  5  1  0  0  0  0
  5 14  1  0  0  0  0
  6  5  2  0  0  0  0
  7  3  1  0  0  0  0
  8  7  1  0  0  0  0
  8 16  1  0  0  0  0
  9  8  1  0  0  0  0
  9 18  1  0  0  0  0
  9 10  1  0  0  0  0
 10 20  1  0  0  0  0
 11 25  1  6  0  0  0
 11 10  1  0  0  0  0
 11  7  1  0  0  0  0
 11 21  1  0  0  0  0
 12  1  1  0  0  0  0
 13  2  1  0  0  0  0
 15  8  1  0  0  0  0
 17  9  1  0  0  0  0
 19 10  1  0  0  0  0
 21 23  1  0  0  0  0
 22 21  1  0  0  0  0
 24 21  1  0  0  0  0
 25 27  1  0  0  0  0
 26 25  1  0  0  0  0
 28 25  1  0  0  0  0
 29 28  1  0  0  0  0
 30 39  1  6  0  0  0
 30 29  1  0  0  0  0
 30 31  1  0  0  0  0
 31 32  1  0  0  0  0
 32 33  1  0  0  0  0
 33 34  2  0  0  0  0
 35 33  1  0  0  0  0
 36 35  1  0  0  0  0
 37 38  1  6  0  0  0
 37 35  1  0  0  0  0
 37 32  1  0  0  0  0
 38 30  1  0  0  0  0
 39 40  1  0  0  0  0
M  END
>  <minimizedAffinity>
-5.34112072

$$$$

 OpenBabel03272507263D

 40 43  0  0  1  0  0  0  0  0999 V2000
   36.5920   20.8300   33.2680 C   0  0  0  0  0  0  0  0  0  0  0  0
   37.7680   21.4740   33.6920 C   0  0  0  0  0  0  0  0  0  0  0  0
   37.8420   21.9010   35.0180 C   0  0  0  0  0  0  0  0  0  0  0  0
   36.7790   21.6750   35.8300 N   0  0  0  0  0  0  0  0  0  0  0  0
   35.6630   21.0530   35.3900 C   0  0  0  0  0  0  0  0  0  0  0  0
   35.5720   20.6360   34.1240 N   0  0  0  0  0  0  0  0  0  0  0  0
   38.9940   22.5550   35.5090 N   0  0  0  0  0  0  0  0  0  0  0  0
   40.3440   22.3410   34.9990 C   0  0  0  0  0  0  0  0  0  0  0  0
   41.2670   23.0180   35.9650 C   0  0  0  0  0  0  0  0  0  0  0  0
   40.4350   23.1710   37.1740 C   0  0  0  0  0  0  0  0  0  0  0  0
   39.0890   23.5120   36.5520 C   0  0  2  0  0  0  0  0  0  0  0  0
   36.5540   20.5070   32.2400 H   0  0  0  0  0  0  0  0  0  0  0  0
   38.5850   21.6280   33.0020 H   0  0  0  0  0  0  0  0  0  0  0  0
   34.8270   20.8800   36.0460 H   0  0  0  0  0  0  0  0  0  0  0  0
   40.4370   22.6660   33.9590 H   0  0  0  0  0  0  0  0  0  0  0  0
   40.4630   21.2240   34.9890 H   0  0  0  0  0  0  0  0  0  0  0  0
   41.8030   23.8920   35.5920 H   0  0  0  0  0  0  0  0  0  0  0  0
   42.0550   22.2680   36.2040 H   0  0  0  0  0  0  0  0  0  0  0  0
   40.7090   24.0420   37.8010 H   0  0  0  0  0  0  0  0  0  0  0  0
   40.3860   22.2600   37.7770 H   0  0  0  0  0  0  0  0  0  0  0  0
   38.0100   23.5780   37.5660 C   0  0  0  0  0  0  0  0  0  0  0  0
   38.4390   24.4660   38.5470 F   0  0  0  0  0  0  0  0  0  0  0  0
   37.7350   22.4140   38.2020 F   0  0  0  0  0  0  0  0  0  0  0  0
   36.9250   24.1790   36.9750 F   0  0  0  0  0  0  0  0  0  0  0  0
   39.1670   24.8480   35.9000 C   0  0  0  0  0  0  0  0  0  0  0  0
   40.2430   25.1940   35.8680 H   0  0  0  0  0  0  0  0  0  0  0  0
   38.6890   25.5840   36.5840 H   0  0  0  0  0  0  0  0  0  0  0  0
   38.6810   24.7460   34.7700 O   0  0  0  0  0  0  0  0  0  0  0  0
   38.8550   25.8370   33.9370 C   0  0  0  0  0  2  0  0  0  0  0  0
   38.2840   25.5130   32.5870 C   0  0  1  0  0  0  0  0  0  0  0  0
   36.8020   25.5210   32.4960 C   0  0  0  0  0  2  0  0  0  0  0  0
   36.3550   26.8220   32.0730 N   0  0  0  0  0  0  0  0  0  0  0  0
   35.6820   28.0730   31.9880 C   0  0  0  0  0  0  0  0  0  0  0  0
   34.5980   28.5670   32.4500 O   0  0  0  0  0  0  0  0  0  0  0  0
   36.7320   28.6670   31.1200 C   0  0  0  0  0  3  0  0  0  0  0  0
   36.3960   29.2600   30.2630 H   0  0  0  0  0  0  0  0  0  0  0  0
   37.0470   27.2170   30.8540 C   0  0  1  0  0  3  0  0  0  0  0  0
   38.7510   26.7460   31.3400 S   0  0  0  0  0  0  0  0  0  0  0  0
   38.8250   24.1900   32.1070 C   0  0  0  0  0  2  0  0  0  0  0  0
   38.1820   23.9200   31.2190 H   0  0  0  0  0  0  0  0  0  0  0  0
  1  2  2  0  0  0  0
  1  6  1  0  0  0  0
  2  3  1  0  0  0  0
  3  7  1  0  0  0  0
  3  4  2  0  0  0  0
  5  4  1  0  0  0  0
  5 14  1  0  0  0  0
  6  5  2  0  0  0  0
  7 11  1  0  0  0  0
  8  7  1  0  0  0  0
  8  9  1  0  0  0  0
  9 18  1  0  0  0  0
  9 10  1  0  0  0  0
 10 20  1  0  0  0  0
 10 19  1  0  0  0  0
 11 25  1  6  0  0  0
 11 10  1  0  0  0  0
 11 21  1  0  0  0  0
 12  1  1  0  0  0  0
 13  2  1  0  0  0  0
 15  8  1  0  0  0  0
 16  8  1  0  0  0  0
 17  9  1  0  0  0  0
 21 23  1  0  0  0  0
 21 22  1  0  0  0  0
 24 21  1  0  0  0  0
 25 27  1  0  0  0  0
 26 25  1  0  0  0  0
 28 25  1  0  0  0  0
 29 28  1  0  0  0  0
 30 39  1  6  0  0  0
 30 29  1  0  0  0  0
 31 30  1  0  0  0  0
 32 31  1  0  0  0  0
 33 32  1  0  0  0  0
 33 34  2  0  0  0  0
 35 33  1  0  0  0  0
 36 35  1  0  0  0  0
 37 35  1  1  0  0  0
 37 38  1  0  0  0  0
 37 32  1  0  0  0  0
 38 30  1  0  0  0  0
 40 39  1  0  0  0  0
M  END
>  <minimizedAffinity>
-5.30892038

$$$$

 OpenBabel03272507263D

 40 43  0  0  1  0  0  0  0  0999 V2000
   33.9060   30.5470   34.0020 C   0  0  0  0  0  0  0  0  0  0  0  0
   34.7470   29.4380   34.2030 C   0  0  0  0  0  0  0  0  0  0  0  0
   35.6790   29.1320   33.2120 C   0  0  0  0  0  0  0  0  0  0  0  0
   35.7290   29.9160   32.1060 N   0  0  0  0  0  0  0  0  0  0  0  0
   34.9060   30.9760   31.9440 C   0  0  0  0  0  0  0  0  0  0  0  0
   34.0050   31.2860   32.8820 N   0  0  0  0  0  0  0  0  0  0  0  0
   36.5540   28.0310   33.3500 N   0  0  0  0  0  0  0  0  0  0  0  0
   37.0240   27.5070   34.6280 C   0  0  0  0  0  0  0  0  0  0  0  0
   38.1170   26.5360   34.3030 C   0  0  0  0  0  0  0  0  0  0  0  0
   38.5000   26.9080   32.9280 C   0  0  0  0  0  0  0  0  0  0  0  0
   37.1390   27.2350   32.3320 C   0  0  2  0  0  0  0  0  0  0  0  0
   33.1930   30.7690   34.7790 H   0  0  0  0  0  0  0  0  0  0  0  0
   34.6650   28.8470   35.1040 H   0  0  0  0  0  0  0  0  0  0  0  0
   34.9560   31.5900   31.0610 H   0  0  0  0  0  0  0  0  0  0  0  0
   36.2010   27.1010   35.2240 H   0  0  0  0  0  0  0  0  0  0  0  0
   37.3930   28.4130   35.1810 H   0  0  0  0  0  0  0  0  0  0  0  0
   37.9120   25.4850   34.5170 H   0  0  0  0  0  0  0  0  0  0  0  0
   38.9700   26.8100   34.9660 H   0  0  0  0  0  0  0  0  0  0  0  0
   38.9000   26.0660   32.3300 H   0  0  0  0  0  0  0  0  0  0  0  0
   39.1790   27.7660   32.8910 H   0  0  0  0  0  0  0  0  0  0  0  0
   37.2530   27.7900   30.9620 C   0  0  0  0  0  0  0  0  0  0  0  0
   38.1220   26.9580   30.2650 F   0  0  0  0  0  0  0  0  0  0  0  0
   37.7740   29.0380   30.8800 F   0  0  0  0  0  0  0  0  0  0  0  0
   36.0300   27.6390   30.3550 F   0  0  0  0  0  0  0  0  0  0  0  0
   36.3250   25.9920   32.2410 C   0  0  0  0  0  0  0  0  0  0  0  0
   35.4330   26.1690   31.5690 H   0  0  0  0  0  0  0  0  0  0  0  0
   35.8560   25.8250   33.2360 H   0  0  0  0  0  0  0  0  0  0  0  0
   37.0540   25.0930   31.8140 O   0  0  0  0  0  0  0  0  0  0  0  0
   36.4080   23.9570   31.3600 C   0  0  0  0  0  2  0  0  0  0  0  0
   37.3310   22.7820   31.5090 C   0  0  1  0  0  0  0  0  0  0  0  0
   37.7140   22.4370   32.9010 C   0  0  0  0  0  2  0  0  0  0  0  0
   36.8070   21.4470   33.4170 N   0  0  0  0  0  0  0  0  0  0  0  0
   35.8760   20.7390   34.2280 C   0  0  0  0  0  0  0  0  0  0  0  0
   35.5240   20.7590   35.4560 O   0  0  0  0  0  0  0  0  0  0  0  0
   35.4060   19.9010   33.0930 C   0  0  0  0  0  3  0  0  0  0  0  0
   35.2680   18.8320   33.2840 H   0  0  0  0  0  0  0  0  0  0  0  0
   36.7310   20.3140   32.5040 C   0  0  1  0  0  3  0  0  0  0  0  0
   36.5660   21.2410   30.9300 S   0  0  0  0  0  0  0  0  0  0  0  0
   38.5660   22.9910   30.6690 C   0  0  0  0  0  2  0  0  0  0  0  0
   39.2870   22.1940   31.0140 H   0  0  0  0  0  0  0  0  0  0  0  0
  1  2  1  0  0  0  0
  1 12  1  0  0  0  0
  2 13  1  0  0  0  0
  3  7  1  0  0  0  0
  3  2  2  0  0  0  0
  4  3  1  0  0  0  0
  5  4  2  0  0  0  0
  5  6  1  0  0  0  0
  6  1  2  0  0  0  0
  7  8  1  0  0  0  0
  8 16  1  0  0  0  0
  8 15  1  0  0  0  0
  9 17  1  0  0  0  0
  9  8  1  0  0  0  0
  9 18  1  0  0  0  0
 10  9  1  0  0  0  0
 11 21  1  6  0  0  0
 11 10  1  0  0  0  0
 11  7  1  0  0  0  0
 14  5  1  0  0  0  0
 19 10  1  0  0  0  0
 20 10  1  0  0  0  0
 22 21  1  0  0  0  0
 23 21  1  0  0  0  0
 24 21  1  0  0  0  0
 25 11  1  0  0  0  0
 25 27  1  0  0  0  0
 26 25  1  0  0  0  0
 28 25  1  0  0  0  0
 29 30  1  0  0  0  0
 29 28  1  0  0  0  0
 30 39  1  6  0  0  0
 30 31  1  0  0  0  0
 31 32  1  0  0  0  0
 32 33  1  0  0  0  0
 33 34  2  0  0  0  0
 35 36  1  0  0  0  0
 35 33  1  0  0  0  0
 37 38  1  6  0  0  0
 37 35  1  0  0  0  0
 37 32  1  0  0  0  0
 38 30  1  0  0  0  0
 39 40  1  0  0  0  0
M  END
>  <minimizedAffinity>
-5.29753828

$$$$

 OpenBabel03272507263D

 40 44  0  0  1  0  0  0  0  0999 V2000
   37.0850   26.4360   31.4200 C   0  0  0  0  0  0  0  0  0  0  0  0
   37.7680   25.2070   31.4010 C   0  0  0  0  0  0  0  0  0  0  0  0
   37.0240   24.0450   31.2020 C   0  0  0  0  0  0  0  0  0  0  0  0
   35.6820   24.1560   31.0390 N   0  0  0  0  0  0  0  0  0  0  0  0
   35.0560   25.3540   31.0620 C   0  0  0  0  0  0  0  0  0  0  0  0
   35.7510   26.4790   31.2510 N   0  0  0  0  0  0  0  0  0  0  0  0
   37.6480   22.7780   31.1730 N   0  0  0  0  0  0  0  0  0  0  0  0
   39.0220   22.5440   30.7450 C   0  0  0  0  0  0  0  0  0  0  0  0
   39.1740   21.0600   30.6190 C   0  0  0  0  0  0  0  0  0  0  0  0
   37.7800   20.5840   30.5400 C   0  0  0  0  0  0  0  0  0  0  0  0
   37.1040   21.5170   31.5340 C   0  0  2  0  0  0  0  0  0  0  0  0
   37.6770   27.3240   31.5730 H   0  0  0  0  0  0  0  0  0  0  0  0
   38.8390   25.1770   31.5360 H   0  0  0  0  0  0  0  0  0  0  0  0
   33.9900   25.4270   30.9300 H   0  0  0  0  0  0  0  0  0  0  0  0
   39.7400   23.0330   31.4110 H   0  0  0  0  0  0  0  0  0  0  0  0
   39.1000   23.0770   29.7580 H   0  0  0  0  0  0  0  0  0  0  0  0
   39.8450   20.5790   31.3340 H   0  0  0  0  0  0  0  0  0  0  0  0
   39.6360   20.8880   29.6210 H   0  0  0  0  0  0  0  0  0  0  0  0
   37.6310   19.5610   30.9340 H   0  0  0  0  0  0  0  0  0  0  0  0
   37.3530   20.6790   29.5370 H   0  0  0  0  0  0  0  0  0  0  0  0
   35.6320   21.3460   31.5410 C   0  0  0  0  0  0  0  0  0  0  0  0
   35.3890   19.9840   31.6810 F   0  0  0  0  0  0  0  0  0  0  0  0
   34.9930   21.7310   30.4100 F   0  0  0  0  0  0  0  0  0  0  0  0
   35.1560   21.9250   32.6930 F   0  0  0  0  0  0  0  0  0  0  0  0
   37.5920   21.2190   32.9070 C   0  0  0  0  0  0  0  0  0  0  0  0
   38.5290   20.5870   32.8500 H   0  0  0  0  0  0  0  0  0  0  0  0
   36.8590   20.5300   33.3830 H   0  0  0  0  0  0  0  0  0  0  0  0
   37.7950   22.2930   33.4790 O   0  0  0  0  0  0  0  0  0  0  0  0
   37.8890   22.2360   34.8580 C   0  0  0  0  0  2  0  0  0  0  0  0
   38.7770   23.3510   35.3300 C   0  0  1  0  0  0  0  0  0  0  0  0
   39.3330   23.1950   36.6980 C   0  0  0  0  0  2  0  0  0  0  0  0
   40.6230   22.5620   36.6230 N   0  0  1  0  0  0  0  0  0  0  0  0
   41.7270   21.6850   36.8170 C   0  0  1  0  0  0  0  0  0  0  0  0
   42.0970   20.8590   37.7190 O   0  0  0  0  0  1  0  0  0  0  0  0
   42.3590   22.0700   35.5280 C   0  0  0  0  0  3  0  0  0  0  0  0
   43.4400   22.2450   35.5340 H   0  0  0  0  0  0  0  0  0  0  0  0
   41.4800   23.2830   35.6920 C   0  0  2  0  0  0  0  0  0  0  0  0
   40.2790   23.4960   34.3220 S   0  0  0  0  0  0  0  0  0  0  0  0
   38.0510   24.6670   35.2130 C   0  0  0  0  0  2  0  0  0  0  0  0
   38.6860   25.3990   35.7930 H   0  0  0  0  0  0  0  0  0  0  0  0
  1 12  1  0  0  0  0
  2  1  1  0  0  0  0
  2 13  1  0  0  0  0
  3  2  2  0  0  0  0
  4  5  2  0  0  0  0
  4  3  1  0  0  0  0
  5  6  1  0  0  0  0
  6  1  2  0  0  0  0
  7  3  1  0  0  0  0
  7 11  1  0  0  0  0
  8  7  1  0  0  0  0
  8 15  1  0  0  0  0
  9  8  1  0  0  0  0
  9 17  1  0  0  0  0
 10  9  1  0  0  0  0
 10 19  1  0  0  0  0
 10 11  1  0  0  0  0
 11 21  1  6  0  0  0
 11 25  1  0  0  0  0
 14  5  1  0  0  0  0
 16  8  1  0  0  0  0
 18  9  1  0  0  0  0
 20 10  1  0  0  0  0
 21 22  1  0  0  0  0
 21 24  1  0  0  0  0
 23 21  1  0  0  0  0
 25 27  1  0  0  0  0
 25 28  1  0  0  0  0
 26 25  1  0  0  0  0
 28 29  1  0  0  0  0
 30 29  1  6  0  0  0
 30 31  1  0  0  0  0
 32 31  1  6  0  0  0
 32 33  1  0  0  0  0
 33 34  1  1  0  0  0
 35 36  1  0  0  0  0
 35 37  1  0  0  0  0
 35 33  1  0  0  0  0
 37 38  1  6  0  0  0
 37 32  1  0  0  0  0
 37 33  1  0  0  0  0
 38 30  1  0  0  0  0
 39 30  1  0  0  0  0
 39 40  1  0  0  0  0
M  END
>  <minimizedAffinity>
-5.25784492

$$$$

 OpenBabel03272507263D

 40 43  0  0  1  0  0  0  0  0999 V2000
   35.7160   22.5170   31.5600 C   0  0  0  0  0  0  0  0  0  0  0  0
   35.7790   23.9220   31.5480 C   0  0  0  0  0  0  0  0  0  0  0  0
   36.9040   24.5240   30.9850 C   0  0  0  0  0  0  0  0  0  0  0  0
   37.8790   23.7290   30.4790 N   0  0  0  0  0  0  0  0  0  0  0  0
   37.7870   22.3800   30.5060 C   0  0  0  0  0  0  0  0  0  0  0  0
   36.7170   21.7840   31.0410 N   0  0  0  0  0  0  0  0  0  0  0  0
   37.0310   25.9310   30.9410 N   0  0  0  0  0  0  0  0  0  0  0  0
   35.9080   26.8590   30.8760 C   0  0  0  0  0  0  0  0  0  0  0  0
   36.4950   28.2050   30.5800 C   0  0  0  0  0  0  0  0  0  0  0  0
   37.8340   27.8790   30.0530 C   0  0  0  0  0  0  0  0  0  0  0  0
   38.2170   26.7110   30.9500 C   0  0  2  0  0  0  0  0  0  0  0  0
   34.8390   22.0700   31.9980 H   0  0  0  0  0  0  0  0  0  0  0  0
   34.9730   24.5080   31.9650 H   0  0  0  0  0  0  0  0  0  0  0  0
   38.5680   21.7610   30.1000 H   0  0  0  0  0  0  0  0  0  0  0  0
   35.2900   26.8080   31.7770 H   0  0  0  0  0  0  0  0  0  0  0  0
   35.2710   26.4650   30.0380 H   0  0  0  0  0  0  0  0  0  0  0  0
   36.4190   28.9520   31.3720 H   0  0  0  0  0  0  0  0  0  0  0  0
   35.9000   28.6130   29.7310 H   0  0  0  0  0  0  0  0  0  0  0  0
   38.5920   28.6640   30.2370 H   0  0  0  0  0  0  0  0  0  0  0  0
   37.8200   27.5940   28.9970 H   0  0  0  0  0  0  0  0  0  0  0  0
   39.4920   26.0830   30.5300 C   0  0  0  0  0  0  0  0  0  0  0  0
   40.4520   27.0900   30.5340 F   0  0  0  0  0  0  0  0  0  0  0  0
   39.5000   25.5570   29.2820 F   0  0  0  0  0  0  0  0  0  0  0  0
   39.8680   25.2110   31.5220 F   0  0  0  0  0  0  0  0  0  0  0  0
   38.3990   27.1950   32.3450 C   0  0  0  0  0  0  0  0  0  0  0  0
   37.6120   27.9710   32.5850 H   0  0  0  0  0  0  0  0  0  0  0  0
   39.3440   27.7820   32.3770 H   0  0  0  0  0  0  0  0  0  0  0  0
   38.3280   26.2190   33.0970 O   0  0  0  0  0  0  0  0  0  0  0  0
   37.5390   26.3780   34.2220 C   0  0  0  0  0  2  0  0  0  0  0  0
   38.3260   25.9620   35.4300 C   0  0  1  0  0  0  0  0  0  0  0  0
   37.6170   25.0760   36.3870 C   0  0  0  0  0  2  0  0  0  0  0  0
   37.8970   23.7020   36.0660 N   0  0  0  0  0  0  0  0  0  0  0  0
   37.7680   22.3190   35.7510 C   0  0  0  0  0  0  0  0  0  0  0  0
   36.8680   21.4240   35.8930 O   0  0  0  0  0  0  0  0  0  0  0  0
   39.1280   22.2480   35.1560 C   0  0  0  0  0  3  0  0  0  0  0  0
   39.7420   21.3800   35.4140 H   0  0  0  0  0  0  0  0  0  0  0  0
   39.3360   23.4900   35.9850 C   0  0  1  0  0  3  0  0  0  0  0  0
   39.7740   24.9630   34.9860 S   0  0  0  0  0  0  0  0  0  0  0  0
   38.8490   27.1830   36.1450 C   0  0  0  0  0  2  0  0  0  0  0  0
   39.2180   26.7970   37.1410 H   0  0  0  0  0  0  0  0  0  0  0  0
  1 12  1  0  0  0  0
  2  1  1  0  0  0  0
  2 13  1  0  0  0  0
  3  2  2  0  0  0  0
  4  5  2  0  0  0  0
  4  3  1  0  0  0  0
  5  6  1  0  0  0  0
  6  1  2  0  0  0  0
  7 11  1  0  0  0  0
  7  3  1  0  0  0  0
  8  7  1  0  0  0  0
  8 15  1  0  0  0  0
  9  8  1  0  0  0  0
  9 17  1  0  0  0  0
 10 19  1  0  0  0  0
 10  9  1  0  0  0  0
 10 11  1  0  0  0  0
 11 21  1  6  0  0  0
 11 25  1  0  0  0  0
 14  5  1  0  0  0  0
 16  8  1  0  0  0  0
 18  9  1  0  0  0  0
 20 10  1  0  0  0  0
 21 22  1  0  0  0  0
 21 24  1  0  0  0  0
 23 21  1  0  0  0  0
 25 27  1  0  0  0  0
 25 26  1  0  0  0  0
 25 28  1  0  0  0  0
 28 29  1  0  0  0  0
 30 29  1  6  0  0  0
 30 39  1  0  0  0  0
 30 31  1  0  0  0  0
 32 31  1  0  0  0  0
 33 34  2  0  0  0  0
 33 32  1  0  0  0  0
 35 36  1  0  0  0  0
 35 33  1  0  0  0  0
 35 37  1  0  0  0  0
 37 38  1  6  0  0  0
 37 32  1  0  0  0  0
 38 30  1  0  0  0  0
 39 40  1  0  0  0  0
M  END
>  <minimizedAffinity>
-5.20662642

$$$$
