
     RDKit          3D

 45 49  0  0  0  0  0  0  0  0999 V2000
   34.5395   29.1307   48.6217 C   0  0  2  0  0  0  0  0  0  0  0  0
   35.1775   28.3921   49.7481 C   0  0  0  0  0  0  0  0  0  0  0  0
   36.3121   29.1671   50.2502 N   0  0  0  0  0  0  0  0  0  0  0  0
   37.2609   29.8966   51.0436 C   0  0  0  0  0  0  0  0  0  0  0  0
   37.4692   30.0792   52.2558 O   0  0  0  0  0  0  0  0  0  0  0  0
   37.9867   30.4187   49.9194 C   0  0  1  0  0  0  0  0  0  0  0  0
   37.1590   29.4191   49.1224 C   0  0  2  0  0  0  0  0  0  0  0  0
   35.9524   30.1323   47.9820 S   0  0  0  0  0  0  0  0  0  0  0  0
   33.3345   29.9438   48.9480 C   0  0  0  0  0  0  0  0  0  0  0  0
   34.2566   28.1250   47.4883 C   0  0  0  0  0  0  0  0  0  0  0  0
   34.3191   28.8020   46.2711 O   0  0  0  0  0  0  0  0  0  0  0  0
   37.7665   31.8472   49.5864 C   0  0  0  0  0  0  0  0  0  0  0  0
   36.7501   32.3448   50.1645 O   0  0  0  0  0  0  0  0  0  0  0  0
   38.6086   32.5998   48.7086 C   0  0  0  0  0  0  0  0  0  0  0  0
   39.1373   33.7832   49.1711 C   0  0  0  0  0  0  0  0  0  0  0  0
   39.9716   34.5251   48.2937 C   0  0  0  0  0  0  0  0  0  0  0  0
   40.1961   34.0105   47.0376 N   0  0  0  0  0  0  0  0  0  0  0  0
   39.6664   32.8691   46.6372 C   0  0  0  0  0  0  0  0  0  0  0  0
   38.8739   32.1538   47.4554 N   0  0  0  0  0  0  0  0  0  0  0  0
   35.4234   27.3415   49.5550 H   0  0  0  0  0  0  0  0  0  0  0  0
   34.4262   28.3883   50.5901 H   0  0  0  0  0  0  0  0  0  0  0  0
   39.0471   30.0993   49.7971 H   0  0  0  0  0  0  0  0  0  0  0  0
   37.7080   28.5477   48.7243 H   0  0  0  0  0  0  0  0  0  0  0  0
   32.5799   29.8184   48.1275 H   0  0  0  0  0  0  0  0  0  0  0  0
   32.9214   29.6635   49.9318 H   0  0  0  0  0  0  0  0  0  0  0  0
   33.6221   31.0164   49.0212 H   0  0  0  0  0  0  0  0  0  0  0  0
   34.9535   27.2736   47.5528 H   0  0  0  0  0  0  0  0  0  0  0  0
   33.2191   27.7763   47.6249 H   0  0  0  0  0  0  0  0  0  0  0  0
   34.0630   28.1676   45.5596 H   0  0  0  0  0  0  0  0  0  0  0  0
   38.9359   34.1592   50.1756 H   0  0  0  0  0  0  0  0  0  0  0  0
   40.4137   35.4634   48.6073 H   0  0  0  0  0  0  0  0  0  0  0  0
   40.2493   31.0333   45.0696 C   0  0  0  0  0  0  0  0  0  0  0  0
   39.9296   32.3578   45.2959 C   0  0  0  0  0  0  0  0  0  0  0  0
   39.8683   33.1869   44.1929 C   0  0  0  0  0  0  0  0  0  0  0  0
   39.6130   34.2288   44.4041 H   0  0  0  0  0  0  0  0  0  0  0  0
   40.1085   32.7545   42.8997 C   0  0  0  0  0  0  0  0  0  0  0  0
   40.0952   33.4111   41.7099 N   0  0  0  0  0  0  0  0  0  0  0  0
   39.8779   34.4370   41.6122 H   0  0  0  0  0  0  0  0  0  0  0  0
   40.4023   32.5008   40.7714 N   0  0  0  0  0  0  0  0  0  0  0  0
   40.6025   31.3074   41.3564 C   0  0  0  0  0  0  0  0  0  0  0  0
   40.8677   30.3743   40.8376 H   0  0  0  0  0  0  0  0  0  0  0  0
   40.4263   31.4154   42.7208 C   0  0  0  0  0  0  0  0  0  0  0  0
   40.5026   30.5388   43.7837 C   0  0  0  0  0  0  0  0  0  0  0  0
   40.3012   30.3737   45.9195 H   0  0  0  0  0  0  0  0  0  0  0  0
   40.7528   29.4968   43.6183 H   0  0  0  0  0  0  0  0  0  0  0  0
  1 10  1  6
  1  9  1  0
  1  2  1  0
  2  3  1  0
  3  4  1  0
  4  5  2  0
  6  4  1  0
  7  6  1  0
  7  3  1  0
  8  1  1  0
  8  7  1  0
 11 10  1  0
 12  6  1  0
 12 13  2  0
 14 15  2  0
 14 12  1  0
 16 15  1  0
 17 16  2  0
 18 17  1  0
 18 19  2  0
 19 14  1  0
  2 20  1  0
  2 21  1  0
  6 22  1  1
  7 23  1  6
  9 24  1  0
  9 25  1  0
  9 26  1  0
 10 27  1  0
 10 28  1  0
 11 29  1  0
 15 30  1  0
 16 31  1  0
 32 33  2  0
 33 34  1  0
 34 35  1  0
 34 36  2  0
 36 37  1  0
 37 38  1  0
 37 39  1  0
 39 40  2  0
 40 41  1  0
 40 42  1  0
 42 43  2  0
 43 32  1  0
 42 36  1  0
 32 44  1  0
 43 45  1  0
 18 33  1  0
M  ISO  8  20  13  21  13  22  13  23  13  24   8  25   8  26   8  27   8
M  ISO  7  28   8  29   3  30  14  31  14  35  16  38   5  41  15
M  END
>  <DihAtoms>  (1) 
16,17,32,31

>  <DihDeg>  (1) 
179.99793160510455

$$$$
