
 OpenBabel03272504413D

 48 51  0  0  0  0  0  0  0  0999 V2000
   34.6920   29.3610   48.7520 C   0  0  0  0  0  0  0  0  0  0  0  0
   35.5870   29.3890   49.4140 H   0  0  0  0  0  0  0  0  0  0  0  0
   34.0440   30.1880   49.1700 H   0  0  0  0  0  0  0  0  0  0  0  0
   37.4560   30.4250   48.4870 Cl  0  0  0  0  0  0  0  0  0  0  0  0
   36.3280   30.2720   47.1410 C   0  0  0  0  0  0  0  0  0  0  0  0
   36.7190   30.6550   45.9070 C   0  0  0  0  0  0  0  0  0  0  0  0
   35.8470   30.5400   44.8440 C   0  0  0  0  0  0  0  0  0  0  0  0
   34.5720   30.0270   45.0700 C   0  0  0  0  0  0  0  0  0  0  0  0
   34.2430   29.6520   46.3870 C   0  0  0  0  0  0  0  0  0  0  0  0
   35.0820   29.7570   47.4310 C   0  0  0  0  0  0  0  0  0  0  0  0
   36.1850   30.8570   43.8500 H   0  0  0  0  0  0  0  0  0  0  0  0
   33.9770   29.9800   44.1880 H   0  0  0  0  0  0  0  0  0  0  0  0
   33.2740   29.3070   46.3500 H   0  0  0  0  0  0  0  0  0  0  0  0
   39.7070   32.8160   46.0070 C   0  0  0  0  0  0  0  0  0  0  0  0
   40.5850   32.0840   45.1290 C   0  0  0  0  0  0  0  0  0  0  0  0
   40.1120   30.9000   44.5560 C   0  0  0  0  0  0  0  0  0  0  0  0
   38.8530   30.4860   44.8440 N   0  0  0  0  0  0  0  0  0  0  0  0
   38.0480   31.1930   45.6720 C   0  0  0  0  0  0  0  0  0  0  0  0
   38.4780   32.3320   46.2350 N   0  0  0  0  0  0  0  0  0  0  0  0
   40.0740   33.7310   46.4490 H   0  0  0  0  0  0  0  0  0  0  0  0
   41.5640   32.5160   44.9780 H   0  0  0  0  0  0  0  0  0  0  0  0
   41.0000   30.2200   43.7090 N   0  0  0  0  0  0  0  0  0  0  0  0
   40.7790   30.5720   42.7500 H   0  0  0  0  0  0  0  0  0  0  0  0
   41.7580   29.5000   43.8760 H   0  0  0  0  0  0  0  0  0  0  0  0
   34.0180   28.0770   48.9630 C   0  0  0  0  0  0  0  0  0  0  0  0
   34.1100   27.4160   48.0700 H   0  0  0  0  0  0  0  0  0  0  0  0
   34.4710   27.4680   49.7950 H   0  0  0  0  0  0  0  0  0  0  0  0
   32.7000   28.2490   49.2980 O   0  0  0  0  0  0  0  0  0  0  0  0
   32.5050   26.5070   47.3420 O   0  0  0  0  0  0  0  0  0  0  0  0
   31.7120   27.4000   48.2630 P   0  0  2  0  0  0  0  0  0  0  0  0
   30.8670   28.5780   47.3140 O   0  0  0  0  0  0  0  0  0  0  0  0
   30.9920   28.4790   44.8940 C   0  0  0  0  0  3  0  0  0  0  0  0
   30.3890   28.1270   46.0840 C   0  0  0  0  0  0  0  0  0  0  0  0
   29.2860   27.3020   45.9690 C   0  0  0  0  0  0  0  0  0  0  0  0
   28.7670   26.9920   46.8800 H   0  0  0  0  0  0  0  0  0  0  0  0
   28.8140   26.8580   44.7460 C   0  0  0  0  0  0  0  0  0  0  0  0
   27.8030   26.0780   44.3250 N   0  0  0  0  0  0  0  0  0  0  0  0
   27.1080   25.6150   44.9720 H   0  0  0  0  0  0  0  0  0  0  0  0
   27.7970   25.9690   43.0050 N   0  0  0  0  0  0  0  0  0  0  0  0
   28.8190   26.6840   42.4970 C   0  0  0  0  0  0  0  0  0  0  0  0
   29.1130   26.8180   41.4430 H   0  0  0  0  0  0  0  0  0  0  0  0
   29.4570   27.2410   43.5860 C   0  0  0  0  0  0  0  0  0  0  0  0
   30.5780   28.0740   43.6420 C   0  0  0  0  0  3  0  0  0  0  0  0
   30.5440   26.5200   49.0320 O   0  0  0  0  0  0  0  0  0  0  0  0
   29.7600   27.3250   49.8270 C   0  0  0  0  0  0  0  0  0  0  0  0
   29.2960   26.6610   50.9620 F   0  0  0  0  0  0  0  0  0  0  0  0
   30.4700   28.4100   50.2980 F   0  0  0  0  0  0  0  0  0  0  0  0
   28.6610   27.7850   49.1120 F   0  0  0  0  0  0  0  0  0  0  0  0
  1 25  1  0  0  0  0
  1  3  1  0  0  0  0
  1  2  1  0  0  0  0
  5 10  1  0  0  0  0
  5  4  1  0  0  0  0
  6  5  2  0  0  0  0
  7  8  2  0  0  0  0
  7  6  1  0  0  0  0
  8  9  1  0  0  0  0
  9 10  2  0  0  0  0
 10  1  1  0  0  0  0
 11  7  1  0  0  0  0
 12  8  1  0  0  0  0
 13  9  1  0  0  0  0
 14 19  1  0  0  0  0
 14 20  1  0  0  0  0
 15 14  2  0  0  0  0
 16 17  2  0  0  0  0
 16 15  1  0  0  0  0
 17 18  1  0  0  0  0
 18  6  1  0  0  0  0
 18 19  2  0  0  0  0
 21 15  1  0  0  0  0
 22 24  1  0  0  0  0
 22 16  1  0  0  0  0
 23 22  1  0  0  0  0
 25 28  1  0  0  0  0
 25 27  1  0  0  0  0
 26 25  1  0  0  0  0
 30 29  2  6  0  0  0
 30 44  1  0  0  0  0
 30 28  1  0  0  0  0
 31 30  1  0  0  0  0
 32 33  1  0  0  0  0
 33 31  1  0  0  0  0
 34 33  2  0  0  0  0
 34 35  1  0  0  0  0
 36 34  1  0  0  0  0
 37 36  1  0  0  0  0
 37 38  1  0  0  0  0
 39 37  1  0  0  0  0
 40 39  2  0  0  0  0
 40 42  1  0  0  0  0
 41 40  1  0  0  0  0
 42 43  1  0  0  0  0
 42 36  2  0  0  0  0
 43 32  2  0  0  0  0
 44 45  1  0  0  0  0
 45 47  1  0  0  0  0
 45 46  1  0  0  0  0
 48 45  1  0  0  0  0
M  END
>  <minimizedAffinity>
-5.82311869

>  <minimizedRMSD>
0.388322651

$$$$
