
 OpenBabel03262521533D

 26 28  0  0  0  0  0  0  0  0999 V2000
   34.8130   29.2750   49.6030 C   0  0  0  0  0  0  0  0  0  0  0  0
   34.2530   28.4630   50.1300 H   0  0  0  0  0  0  0  0  0  0  0  0
   34.3990   30.2430   49.9540 H   0  0  0  0  0  0  0  0  0  0  0  0
   36.5740   29.2000   49.9820 S   0  0  0  0  0  0  0  0  0  0  0  0
   37.3780   30.6050   49.2180 C   0  0  0  0  0  0  0  0  0  0  0  0
   37.2390   31.7810   49.9340 C   0  0  0  0  0  0  0  0  0  0  0  0
   37.8460   32.9300   49.3960 C   0  0  0  0  0  0  0  0  0  0  0  0
   38.5290   32.8200   48.2120 N   0  0  0  0  0  0  0  0  0  0  0  0
   38.6240   31.6460   47.5720 C   0  0  0  0  0  0  0  0  0  0  0  0
   38.0530   30.5460   48.0690 N   0  0  0  0  0  0  0  0  0  0  0  0
   36.7110   31.9150   50.8690 H   0  0  0  0  0  0  0  0  0  0  0  0
   37.7740   33.8730   49.9020 H   0  0  0  0  0  0  0  0  0  0  0  0
   39.1760   31.6220   46.6410 H   0  0  0  0  0  0  0  0  0  0  0  0
   34.4710   29.0740   47.8350 S   0  0  0  0  0  0  0  0  0  0  0  0
   32.2510   27.7240   48.7140 C   0  0  0  0  0  3  0  0  0  0  0  0
   32.7840   28.5000   47.6880 C   0  0  0  0  0  0  0  0  0  0  0  0
   31.9620   28.7870   46.6010 C   0  0  0  0  0  0  0  0  0  0  0  0
   32.3750   29.3820   45.8180 H   0  0  0  0  0  0  0  0  0  0  0  0
   30.6630   28.3110   46.5490 C   0  0  0  0  0  0  0  0  0  0  0  0
   29.7080   28.4720   45.5950 N   0  0  0  0  0  0  0  0  0  0  0  0
   29.7480   28.9910   44.6890 H   0  0  0  0  0  0  0  0  0  0  0  0
   28.6250   27.8190   46.0130 N   0  0  0  0  0  0  0  0  0  0  0  0
   28.8950   27.2610   47.2060 C   0  0  0  0  0  0  0  0  0  0  0  0
   28.1570   26.6670   47.7600 H   0  0  0  0  0  0  0  0  0  0  0  0
   30.1920   27.5470   47.5950 C   0  0  0  0  0  0  0  0  0  0  0  0
   30.9470   27.2300   48.6930 C   0  0  0  0  0  3  0  0  0  0  0  0
  1  3  1  0  0  0  0
  1  4  1  0  0  0  0
  1  2  1  0  0  0  0
  5  6  1  0  0  0  0
  5  4  1  0  0  0  0
  6 11  1  0  0  0  0
  7 12  1  0  0  0  0
  7  6  2  0  0  0  0
  8  7  1  0  0  0  0
  9 10  1  0  0  0  0
  9  8  2  0  0  0  0
 10  5  2  0  0  0  0
 13  9  1  0  0  0  0
 14  1  1  0  0  0  0
 16 14  1  0  0  0  0
 16 15  2  0  0  0  0
 17 16  1  0  0  0  0
 18 17  1  0  0  0  0
 19 17  2  0  0  0  0
 19 25  1  0  0  0  0
 20 22  1  0  0  0  0
 20 19  1  0  0  0  0
 21 20  1  0  0  0  0
 22 23  2  0  0  0  0
 23 25  1  0  0  0  0
 23 24  1  0  0  0  0
 25 26  2  0  0  0  0
 26 15  1  0  0  0  0
M  END
>  <minimizedAffinity>
-4.41620493

>  <minimizedRMSD>
2.01251316

$$$$
