
 OpenBabel03272504433D

 48 51  0  0  0  0  0  0  0  0999 V2000
   37.6250   25.3710   34.9600 C   0  0  0  0  0  0  0  0  0  0  0  0
   38.0730   25.0060   34.0080 H   0  0  0  0  0  0  0  0  0  0  0  0
   36.5480   25.0370   34.8750 H   0  0  0  0  0  0  0  0  0  0  0  0
   40.2550   24.0980   34.4070 Cl  0  0  0  0  0  0  0  0  0  0  0  0
   39.4200   24.0000   35.9580 C   0  0  0  0  0  0  0  0  0  0  0  0
   39.9890   23.3110   36.9690 C   0  0  0  0  0  0  0  0  0  0  0  0
   39.3480   23.2260   38.1880 C   0  0  0  0  0  0  0  0  0  0  0  0
   38.1180   23.8590   38.3490 C   0  0  0  0  0  0  0  0  0  0  0  0
   37.5940   24.5570   37.2440 C   0  0  0  0  0  0  0  0  0  0  0  0
   38.2080   24.6480   36.0520 C   0  0  0  0  0  0  0  0  0  0  0  0
   39.8280   22.6610   38.9970 H   0  0  0  0  0  0  0  0  0  0  0  0
   37.7070   23.7330   39.3230 H   0  0  0  0  0  0  0  0  0  0  0  0
   36.6930   24.9450   37.5540 H   0  0  0  0  0  0  0  0  0  0  0  0
   43.5160   22.6350   36.1240 C   0  0  0  0  0  0  0  0  0  0  0  0
   43.6250   21.2610   36.5450 C   0  0  0  0  0  0  0  0  0  0  0  0
   42.4960   20.6460   37.0930 C   0  0  0  0  0  0  0  0  0  0  0  0
   41.3460   21.3570   37.2060 N   0  0  0  0  0  0  0  0  0  0  0  0
   41.2710   22.6470   36.8010 C   0  0  0  0  0  0  0  0  0  0  0  0
   42.3410   23.2620   36.2730 N   0  0  0  0  0  0  0  0  0  0  0  0
   44.3900   23.1100   35.7010 H   0  0  0  0  0  0  0  0  0  0  0  0
   44.5930   20.8030   36.4040 H   0  0  0  0  0  0  0  0  0  0  0  0
   42.6470   19.3080   37.4900 N   0  0  0  0  0  0  0  0  0  0  0  0
   42.3420   18.7460   36.6630 H   0  0  0  0  0  0  0  0  0  0  0  0
   42.9780   18.8480   38.3840 H   0  0  0  0  0  0  0  0  0  0  0  0
   37.6700   26.8360   34.9440 C   0  0  0  0  0  0  0  0  0  0  0  0
   37.9340   27.2470   35.9460 H   0  0  0  0  0  0  0  0  0  0  0  0
   38.4680   27.2500   34.2650 H   0  0  0  0  0  0  0  0  0  0  0  0
   36.4880   27.3720   34.5030 O   0  0  0  0  0  0  0  0  0  0  0  0
   38.0150   27.6700   32.3880 O   0  0  0  0  0  0  0  0  0  0  0  0
   36.6350   27.9240   32.9410 P   0  0  2  0  0  0  0  0  0  0  0  0
   36.3590   29.6350   32.9970 O   0  0  0  0  0  0  0  0  0  0  0  0
   34.0980   29.7330   33.8680 C   0  0  0  0  0  3  0  0  0  0  0  0
   35.4360   30.0620   33.9510 C   0  0  0  0  0  0  0  0  0  0  0  0
   35.7890   30.8380   35.0380 C   0  0  0  0  0  0  0  0  0  0  0  0
   36.8380   31.1290   35.1540 H   0  0  0  0  0  0  0  0  0  0  0  0
   34.8700   31.2600   35.9820 C   0  0  0  0  0  0  0  0  0  0  0  0
   34.9080   31.9950   37.1070 N   0  0  0  0  0  0  0  0  0  0  0  0
   35.7880   32.4290   37.4980 H   0  0  0  0  0  0  0  0  0  0  0  0
   33.7040   32.1000   37.6520 N   0  0  0  0  0  0  0  0  0  0  0  0
   32.8140   31.4290   36.8980 C   0  0  0  0  0  0  0  0  0  0  0  0
   31.7310   31.3050   37.0500 H   0  0  0  0  0  0  0  0  0  0  0  0
   33.5440   30.9020   35.8500 C   0  0  0  0  0  0  0  0  0  0  0  0
   33.1280   30.1170   34.7710 C   0  0  0  0  0  3  0  0  0  0  0  0
   35.4950   27.3180   31.9110 O   0  0  0  0  0  0  0  0  0  0  0  0
   35.9200   26.1410   31.3380 C   0  0  0  0  0  0  0  0  0  0  0  0
   34.9900   25.6190   30.4410 F   0  0  0  0  0  0  0  0  0  0  0  0
   37.0750   26.3260   30.6070 F   0  0  0  0  0  0  0  0  0  0  0  0
   36.1610   25.1870   32.3210 F   0  0  0  0  0  0  0  0  0  0  0  0
  1 10  1  0  0  0  0
  2  1  1  0  0  0  0
  3  1  1  0  0  0  0
  4  5  1  0  0  0  0
  5 10  2  0  0  0  0
  5  6  1  0  0  0  0
  6  7  2  0  0  0  0
  7  8  1  0  0  0  0
  7 11  1  0  0  0  0
  8 12  1  0  0  0  0
  9 13  1  0  0  0  0
  9  8  2  0  0  0  0
 10  9  1  0  0  0  0
 14 19  2  0  0  0  0
 14 15  1  0  0  0  0
 15 16  2  0  0  0  0
 16 17  1  0  0  0  0
 16 22  1  0  0  0  0
 18  6  1  0  0  0  0
 18 17  2  0  0  0  0
 19 18  1  0  0  0  0
 20 14  1  0  0  0  0
 21 15  1  0  0  0  0
 22 24  1  0  0  0  0
 23 22  1  0  0  0  0
 25  1  1  0  0  0  0
 25 26  1  0  0  0  0
 27 25  1  0  0  0  0
 28 25  1  0  0  0  0
 30 29  2  6  0  0  0
 30 31  1  0  0  0  0
 30 28  1  0  0  0  0
 31 33  1  0  0  0  0
 32 33  2  0  0  0  0
 32 43  1  0  0  0  0
 33 34  1  0  0  0  0
 34 35  1  0  0  0  0
 34 36  2  0  0  0  0
 36 37  1  0  0  0  0
 37 38  1  0  0  0  0
 37 39  1  0  0  0  0
 40 41  1  0  0  0  0
 40 39  2  0  0  0  0
 42 36  1  0  0  0  0
 42 40  1  0  0  0  0
 43 42  2  0  0  0  0
 44 30  1  0  0  0  0
 45 44  1  0  0  0  0
 45 48  1  0  0  0  0
 46 45  1  0  0  0  0
 47 45  1  0  0  0  0
M  END
>  <minimizedAffinity>
-6.78756952

$$$$

 OpenBabel03272504433D

 48 51  0  0  0  0  0  0  0  0999 V2000
   38.8250   26.6640   33.1600 C   0  0  0  0  0  0  0  0  0  0  0  0
   39.7640   26.9670   32.6420 H   0  0  0  0  0  0  0  0  0  0  0  0
   39.0310   26.9430   34.2370 H   0  0  0  0  0  0  0  0  0  0  0  0
   37.2040   27.9590   35.2900 Cl  0  0  0  0  0  0  0  0  0  0  0  0
   36.9100   28.1700   33.5640 C   0  0  0  0  0  0  0  0  0  0  0  0
   35.8940   28.9620   33.1610 C   0  0  0  0  0  0  0  0  0  0  0  0
   35.6530   29.1370   31.8140 C   0  0  0  0  0  0  0  0  0  0  0  0
   36.4710   28.4880   30.8920 C   0  0  0  0  0  0  0  0  0  0  0  0
   37.5080   27.6800   31.3950 C   0  0  0  0  0  0  0  0  0  0  0  0
   37.7550   27.5010   32.7040 C   0  0  0  0  0  0  0  0  0  0  0  0
   34.8220   29.7850   31.5080 H   0  0  0  0  0  0  0  0  0  0  0  0
   36.2020   28.6870   29.8810 H   0  0  0  0  0  0  0  0  0  0  0  0
   37.9890   27.2910   30.5740 H   0  0  0  0  0  0  0  0  0  0  0  0
   32.9540   29.9930   35.1370 C   0  0  0  0  0  0  0  0  0  0  0  0
   33.5500   30.9960   35.9840 C   0  0  0  0  0  0  0  0  0  0  0  0
   34.9140   31.2610   35.8350 C   0  0  0  0  0  0  0  0  0  0  0  0
   35.6230   30.5730   34.9060 N   0  0  0  0  0  0  0  0  0  0  0  0
   35.0380   29.6360   34.1230 C   0  0  0  0  0  0  0  0  0  0  0  0
   33.7300   29.3620   34.2450 N   0  0  0  0  0  0  0  0  0  0  0  0
   31.8990   29.7890   35.2520 H   0  0  0  0  0  0  0  0  0  0  0  0
   32.8810   31.4750   36.6850 H   0  0  0  0  0  0  0  0  0  0  0  0
   35.4530   32.2440   36.6810 N   0  0  0  0  0  0  0  0  0  0  0  0
   35.3940   33.1310   36.1320 H   0  0  0  0  0  0  0  0  0  0  0  0
   35.8550   32.2200   37.6590 H   0  0  0  0  0  0  0  0  0  0  0  0
   38.7090   25.2060   33.0610 C   0  0  0  0  0  0  0  0  0  0  0  0
   38.3880   24.8910   32.0410 H   0  0  0  0  0  0  0  0  0  0  0  0
   39.6890   24.6710   33.2110 H   0  0  0  0  0  0  0  0  0  0  0  0
   37.8570   24.7030   34.0090 O   0  0  0  0  0  0  0  0  0  0  0  0
   40.1720   24.5110   35.2350 O   0  0  0  0  0  0  0  0  0  0  0  0
   38.6910   24.2610   35.3780 P   0  0  2  0  0  0  0  0  0  0  0  0
   38.4260   22.5610   35.5870 O   0  0  0  0  0  0  0  0  0  0  0  0
   38.8690   21.5570   33.4240 C   0  0  0  0  0  3  0  0  0  0  0  0
   38.0010   21.8760   34.4500 C   0  0  0  0  0  0  0  0  0  0  0  0
   36.6940   21.4680   34.2670 C   0  0  0  0  0  0  0  0  0  0  0  0
   35.9620   21.6940   35.0490 H   0  0  0  0  0  0  0  0  0  0  0  0
   36.2770   20.7880   33.1370 C   0  0  0  0  0  0  0  0  0  0  0  0
   35.1160   20.2790   32.6890 N   0  0  0  0  0  0  0  0  0  0  0  0
   34.2040   20.3330   33.2200 H   0  0  0  0  0  0  0  0  0  0  0  0
   35.2680   19.7080   31.5030 N   0  0  0  0  0  0  0  0  0  0  0  0
   36.5530   19.8180   31.1190 C   0  0  0  0  0  0  0  0  0  0  0  0
   37.0330   19.4600   30.1950 H   0  0  0  0  0  0  0  0  0  0  0  0
   37.1870   20.4960   32.1420 C   0  0  0  0  0  0  0  0  0  0  0  0
   38.5230   20.8820   32.2710 C   0  0  0  0  0  3  0  0  0  0  0  0
   38.1300   24.9760   36.7590 O   0  0  0  0  0  0  0  0  0  0  0  0
   38.1790   24.1050   37.8230 C   0  0  0  0  0  0  0  0  0  0  0  0
   39.3850   23.4080   37.8840 F   0  0  0  0  0  0  0  0  0  0  0  0
   38.0770   24.7740   39.0250 F   0  0  0  0  0  0  0  0  0  0  0  0
   37.1450   23.1800   37.7360 F   0  0  0  0  0  0  0  0  0  0  0  0
  1  3  1  0  0  0  0
  2  1  1  0  0  0  0
  5  4  1  0  0  0  0
  6  5  1  0  0  0  0
  6 18  1  0  0  0  0
  7  6  2  0  0  0  0
  8  9  2  0  0  0  0
  8  7  1  0  0  0  0
  9 10  1  0  0  0  0
 10  1  1  0  0  0  0
 10  5  2  0  0  0  0
 11  7  1  0  0  0  0
 12  8  1  0  0  0  0
 13  9  1  0  0  0  0
 14 20  1  0  0  0  0
 14 15  1  0  0  0  0
 15 21  1  0  0  0  0
 16 15  2  0  0  0  0
 16 22  1  0  0  0  0
 17 16  1  0  0  0  0
 18 19  1  0  0  0  0
 18 17  2  0  0  0  0
 19 14  2  0  0  0  0
 22 24  1  0  0  0  0
 23 22  1  0  0  0  0
 25  1  1  0  0  0  0
 25 27  1  0  0  0  0
 25 28  1  0  0  0  0
 26 25  1  0  0  0  0
 28 30  1  0  0  0  0
 30 29  2  6  0  0  0
 30 31  1  0  0  0  0
 30 44  1  0  0  0  0
 32 33  1  0  0  0  0
 33 31  1  0  0  0  0
 34 33  2  0  0  0  0
 34 35  1  0  0  0  0
 36 34  1  0  0  0  0
 37 36  1  0  0  0  0
 37 38  1  0  0  0  0
 39 37  1  0  0  0  0
 40 39  2  0  0  0  0
 40 42  1  0  0  0  0
 41 40  1  0  0  0  0
 42 43  1  0  0  0  0
 42 36  2  0  0  0  0
 43 32  2  0  0  0  0
 44 45  1  0  0  0  0
 45 46  1  0  0  0  0
 45 47  1  0  0  0  0
 48 45  1  0  0  0  0
M  END
>  <minimizedAffinity>
-6.4634943

$$$$

 OpenBabel03272504433D

 48 51  0  0  0  0  0  0  0  0999 V2000
   37.2210   27.8390   33.4060 C   0  0  0  0  0  0  0  0  0  0  0  0
   38.1660   28.3460   33.7060 H   0  0  0  0  0  0  0  0  0  0  0  0
   37.1020   28.1480   32.3240 H   0  0  0  0  0  0  0  0  0  0  0  0
   38.9250   26.8100   35.6150 Cl  0  0  0  0  0  0  0  0  0  0  0  0
   38.1990   25.7880   34.3740 C   0  0  0  0  0  0  0  0  0  0  0  0
   38.4160   24.4570   34.4080 C   0  0  0  0  0  0  0  0  0  0  0  0
   37.8540   23.6450   33.4440 C   0  0  0  0  0  0  0  0  0  0  0  0
   37.0680   24.2230   32.4490 C   0  0  0  0  0  0  0  0  0  0  0  0
   36.8920   25.6190   32.4860 C   0  0  0  0  0  0  0  0  0  0  0  0
   37.4330   26.4220   33.4190 C   0  0  0  0  0  0  0  0  0  0  0  0
   38.0430   22.5650   33.4900 H   0  0  0  0  0  0  0  0  0  0  0  0
   36.6830   23.5130   31.7550 H   0  0  0  0  0  0  0  0  0  0  0  0
   36.2950   25.8510   31.6810 H   0  0  0  0  0  0  0  0  0  0  0  0
   41.2830   23.0170   36.2290 C   0  0  0  0  0  0  0  0  0  0  0  0
   40.6610   22.7120   37.4920 C   0  0  0  0  0  0  0  0  0  0  0  0
   39.3060   23.0130   37.6510 C   0  0  0  0  0  0  0  0  0  0  0  0
   38.6290   23.5770   36.6200 N   0  0  0  0  0  0  0  0  0  0  0  0
   39.2380   23.8530   35.4430 C   0  0  0  0  0  0  0  0  0  0  0  0
   40.5390   23.5740   35.2640 N   0  0  0  0  0  0  0  0  0  0  0  0
   42.3310   22.7830   36.1060 H   0  0  0  0  0  0  0  0  0  0  0  0
   41.3050   22.2640   38.2360 H   0  0  0  0  0  0  0  0  0  0  0  0
   38.7410   22.7000   38.8980 N   0  0  0  0  0  0  0  0  0  0  0  0
   38.3390   21.7430   38.7770 H   0  0  0  0  0  0  0  0  0  0  0  0
   38.6710   23.2200   39.8170 H   0  0  0  0  0  0  0  0  0  0  0  0
   36.1290   28.4240   34.1890 C   0  0  0  0  0  0  0  0  0  0  0  0
   35.1360   28.0460   33.8520 H   0  0  0  0  0  0  0  0  0  0  0  0
   36.1660   28.1470   35.2800 H   0  0  0  0  0  0  0  0  0  0  0  0
   36.1580   29.7940   34.1490 O   0  0  0  0  0  0  0  0  0  0  0  0
   33.5770   29.3230   34.0280 O   0  0  0  0  0  0  0  0  0  0  0  0
   34.6170   30.4150   34.0630 P   0  0  2  0  0  0  0  0  0  0  0  0
   34.5330   31.3190   32.5870 O   0  0  0  0  0  0  0  0  0  0  0  0
   36.4910   31.9270   31.2910 C   0  0  0  0  0  3  0  0  0  0  0  0
   35.5130   31.0180   31.6420 C   0  0  0  0  0  0  0  0  0  0  0  0
   35.5780   29.7980   30.9950 C   0  0  0  0  0  0  0  0  0  0  0  0
   34.8270   29.0390   31.2350 H   0  0  0  0  0  0  0  0  0  0  0  0
   36.5530   29.5040   30.0590 C   0  0  0  0  0  0  0  0  0  0  0  0
   36.8650   28.4460   29.2890 N   0  0  0  0  0  0  0  0  0  0  0  0
   36.3240   27.5390   29.2870 H   0  0  0  0  0  0  0  0  0  0  0  0
   37.9310   28.6940   28.5430 N   0  0  0  0  0  0  0  0  0  0  0  0
   38.3700   29.9420   28.7950 C   0  0  0  0  0  0  0  0  0  0  0  0
   39.2280   30.4760   28.3580 H   0  0  0  0  0  0  0  0  0  0  0  0
   37.5060   30.4500   29.7450 C   0  0  0  0  0  0  0  0  0  0  0  0
   37.4920   31.7010   30.3680 C   0  0  0  0  0  3  0  0  0  0  0  0
   34.2660   31.4890   35.2700 O   0  0  0  0  0  0  0  0  0  0  0  0
   35.4080   32.0910   35.7450 C   0  0  0  0  0  0  0  0  0  0  0  0
   35.1340   33.0890   36.6780 F   0  0  0  0  0  0  0  0  0  0  0  0
   36.2190   31.1870   36.3980 F   0  0  0  0  0  0  0  0  0  0  0  0
   36.1250   32.6590   34.6970 F   0  0  0  0  0  0  0  0  0  0  0  0
  1 10  1  0  0  0  0
  1  2  1  0  0  0  0
  1 25  1  0  0  0  0
  3  1  1  0  0  0  0
  5  6  1  0  0  0  0
  5  4  1  0  0  0  0
  6 18  1  0  0  0  0
  7 11  1  0  0  0  0
  7  6  2  0  0  0  0
  8  9  2  0  0  0  0
  8  7  1  0  0  0  0
  9 10  1  0  0  0  0
 10  5  2  0  0  0  0
 12  8  1  0  0  0  0
 13  9  1  0  0  0  0
 14 15  1  0  0  0  0
 15 16  2  0  0  0  0
 15 21  1  0  0  0  0
 16 22  1  0  0  0  0
 17 16  1  0  0  0  0
 18 17  2  0  0  0  0
 19 18  1  0  0  0  0
 19 14  2  0  0  0  0
 20 14  1  0  0  0  0
 22 24  1  0  0  0  0
 23 22  1  0  0  0  0
 25 27  1  0  0  0  0
 26 25  1  0  0  0  0
 28 25  1  0  0  0  0
 30 29  2  6  0  0  0
 30 28  1  0  0  0  0
 30 44  1  0  0  0  0
 31 30  1  0  0  0  0
 32 33  1  0  0  0  0
 33 31  1  0  0  0  0
 34 35  1  0  0  0  0
 34 33  2  0  0  0  0
 36 34  1  0  0  0  0
 37 36  1  0  0  0  0
 38 37  1  0  0  0  0
 39 40  2  0  0  0  0
 39 37  1  0  0  0  0
 40 42  1  0  0  0  0
 41 40  1  0  0  0  0
 42 36  2  0  0  0  0
 42 43  1  0  0  0  0
 43 32  2  0  0  0  0
 44 45  1  0  0  0  0
 45 47  1  0  0  0  0
 45 46  1  0  0  0  0
 48 45  1  0  0  0  0
M  END
>  <minimizedAffinity>
-6.44872808

$$$$

 OpenBabel03272504433D

 48 51  0  0  0  0  0  0  0  0999 V2000
   38.9060   26.3920   33.4210 C   0  0  0  0  0  0  0  0  0  0  0  0
   39.9740   26.5730   33.1600 H   0  0  0  0  0  0  0  0  0  0  0  0
   38.8360   26.7860   34.4790 H   0  0  0  0  0  0  0  0  0  0  0  0
   36.6500   27.7350   34.8160 Cl  0  0  0  0  0  0  0  0  0  0  0  0
   36.9940   27.9210   33.0960 C   0  0  0  0  0  0  0  0  0  0  0  0
   36.2000   28.7140   32.3480 C   0  0  0  0  0  0  0  0  0  0  0  0
   36.4580   28.8700   31.0010 C   0  0  0  0  0  0  0  0  0  0  0  0
   37.5420   28.1990   30.4400 C   0  0  0  0  0  0  0  0  0  0  0  0
   38.3200   27.3900   31.2900 C   0  0  0  0  0  0  0  0  0  0  0  0
   38.0810   27.2300   32.6030 C   0  0  0  0  0  0  0  0  0  0  0  0
   35.8000   29.5190   30.4110 H   0  0  0  0  0  0  0  0  0  0  0  0
   37.6540   28.3840   29.3970 H   0  0  0  0  0  0  0  0  0  0  0  0
   39.0570   26.9830   30.6990 H   0  0  0  0  0  0  0  0  0  0  0  0
   34.1520   31.1220   34.2500 C   0  0  0  0  0  0  0  0  0  0  0  0
   32.8310   30.6210   33.9640 C   0  0  0  0  0  0  0  0  0  0  0  0
   32.7130   29.4970   33.1410 C   0  0  0  0  0  0  0  0  0  0  0  0
   33.8370   28.9210   32.6460 N   0  0  0  0  0  0  0  0  0  0  0  0
   35.0660   29.4120   32.9320 C   0  0  0  0  0  0  0  0  0  0  0  0
   35.2070   30.4900   33.7180 N   0  0  0  0  0  0  0  0  0  0  0  0
   34.2410   31.9910   34.8860 H   0  0  0  0  0  0  0  0  0  0  0  0
   32.0150   31.1660   34.4160 H   0  0  0  0  0  0  0  0  0  0  0  0
   31.4090   29.0450   32.8880 N   0  0  0  0  0  0  0  0  0  0  0  0
   31.2310   28.3180   33.6180 H   0  0  0  0  0  0  0  0  0  0  0  0
   30.6790   29.2970   32.1650 H   0  0  0  0  0  0  0  0  0  0  0  0
   38.6890   24.9420   33.4390 C   0  0  0  0  0  0  0  0  0  0  0  0
   38.2360   24.5860   32.4840 H   0  0  0  0  0  0  0  0  0  0  0  0
   39.6440   24.3500   33.5200 H   0  0  0  0  0  0  0  0  0  0  0  0
   37.9190   24.5610   34.5050 O   0  0  0  0  0  0  0  0  0  0  0  0
   39.8400   22.7740   34.6160 O   0  0  0  0  0  0  0  0  0  0  0  0
   38.6550   23.3380   35.3590 P   0  0  2  0  0  0  0  0  0  0  0  0
   37.4670   22.0900   35.5530 O   0  0  0  0  0  0  0  0  0  0  0  0
   35.8820   20.7520   34.2970 C   0  0  0  0  0  3  0  0  0  0  0  0
   37.0680   21.4550   34.3780 C   0  0  0  0  0  0  0  0  0  0  0  0
   37.8210   21.4820   33.2200 C   0  0  0  0  0  0  0  0  0  0  0  0
   38.7710   22.0250   33.2270 H   0  0  0  0  0  0  0  0  0  0  0  0
   37.4200   20.8500   32.0560 C   0  0  0  0  0  0  0  0  0  0  0  0
   37.9170   20.7040   30.8160 N   0  0  0  0  0  0  0  0  0  0  0  0
   38.8360   21.1160   30.4960 H   0  0  0  0  0  0  0  0  0  0  0  0
   37.1080   19.9790   30.0570 N   0  0  0  0  0  0  0  0  0  0  0  0
   36.0300   19.6160   30.7770 C   0  0  0  0  0  0  0  0  0  0  0  0
   35.1610   19.0150   30.4690 H   0  0  0  0  0  0  0  0  0  0  0  0
   36.2250   20.1610   32.0310 C   0  0  0  0  0  0  0  0  0  0  0  0
   35.4200   20.1000   33.1720 C   0  0  0  0  0  3  0  0  0  0  0  0
   39.1050   23.7720   36.8890 O   0  0  0  0  0  0  0  0  0  0  0  0
   38.1450   24.5600   37.4830 C   0  0  0  0  0  0  0  0  0  0  0  0
   38.1730   25.8730   37.0160 F   0  0  0  0  0  0  0  0  0  0  0  0
   36.8750   24.0970   37.2090 F   0  0  0  0  0  0  0  0  0  0  0  0
   38.3260   24.5830   38.8610 F   0  0  0  0  0  0  0  0  0  0  0  0
  1 25  1  0  0  0  0
  1  3  1  0  0  0  0
  2  1  1  0  0  0  0
  5  4  1  0  0  0  0
  6 18  1  0  0  0  0
  6  5  2  0  0  0  0
  7  6  1  0  0  0  0
  8  7  2  0  0  0  0
  8  9  1  0  0  0  0
  9 10  2  0  0  0  0
 10  5  1  0  0  0  0
 10  1  1  0  0  0  0
 11  7  1  0  0  0  0
 12  8  1  0  0  0  0
 13  9  1  0  0  0  0
 14 20  1  0  0  0  0
 15 14  1  0  0  0  0
 15 21  1  0  0  0  0
 16 15  2  0  0  0  0
 17 18  2  0  0  0  0
 17 16  1  0  0  0  0
 18 19  1  0  0  0  0
 19 14  2  0  0  0  0
 22 16  1  0  0  0  0
 22 23  1  0  0  0  0
 24 22  1  0  0  0  0
 25 27  1  0  0  0  0
 25 28  1  0  0  0  0
 26 25  1  0  0  0  0
 28 30  1  0  0  0  0
 30 29  2  6  0  0  0
 30 31  1  0  0  0  0
 30 44  1  0  0  0  0
 32 33  1  0  0  0  0
 33 31  1  0  0  0  0
 34 35  1  0  0  0  0
 34 33  2  0  0  0  0
 36 34  1  0  0  0  0
 37 36  1  0  0  0  0
 38 37  1  0  0  0  0
 39 40  2  0  0  0  0
 39 37  1  0  0  0  0
 40 42  1  0  0  0  0
 41 40  1  0  0  0  0
 42 36  2  0  0  0  0
 42 43  1  0  0  0  0
 43 32  2  0  0  0  0
 44 45  1  0  0  0  0
 45 48  1  0  0  0  0
 46 45  1  0  0  0  0
 47 45  1  0  0  0  0
M  END
>  <minimizedAffinity>
-6.43545628

$$$$

 OpenBabel03272504433D

 48 51  0  0  0  0  0  0  0  0999 V2000
   37.2020   27.8090   33.4210 C   0  0  0  0  0  0  0  0  0  0  0  0
   38.1120   28.3160   33.8130 H   0  0  0  0  0  0  0  0  0  0  0  0
   37.1750   28.1420   32.3400 H   0  0  0  0  0  0  0  0  0  0  0  0
   38.8960   26.7710   35.6330 Cl  0  0  0  0  0  0  0  0  0  0  0  0
   38.1880   25.7570   34.3760 C   0  0  0  0  0  0  0  0  0  0  0  0
   38.4160   24.4260   34.3970 C   0  0  0  0  0  0  0  0  0  0  0  0
   37.8690   23.6200   33.4210 C   0  0  0  0  0  0  0  0  0  0  0  0
   37.0870   24.2020   32.4260 C   0  0  0  0  0  0  0  0  0  0  0  0
   36.8990   25.5970   32.4750 C   0  0  0  0  0  0  0  0  0  0  0  0
   37.4250   26.3940   33.4210 C   0  0  0  0  0  0  0  0  0  0  0  0
   38.0660   22.5420   33.4570 H   0  0  0  0  0  0  0  0  0  0  0  0
   36.7130   23.4970   31.7210 H   0  0  0  0  0  0  0  0  0  0  0  0
   36.3060   25.8330   31.6680 H   0  0  0  0  0  0  0  0  0  0  0  0
   41.2670   22.9440   36.2090 C   0  0  0  0  0  0  0  0  0  0  0  0
   40.6520   22.6740   37.4850 C   0  0  0  0  0  0  0  0  0  0  0  0
   39.3070   23.0130   37.6540 C   0  0  0  0  0  0  0  0  0  0  0  0
   38.6330   23.5780   36.6210 N   0  0  0  0  0  0  0  0  0  0  0  0
   39.2350   23.8190   35.4330 C   0  0  0  0  0  0  0  0  0  0  0  0
   40.5260   23.5040   35.2440 N   0  0  0  0  0  0  0  0  0  0  0  0
   42.3070   22.6810   36.0790 H   0  0  0  0  0  0  0  0  0  0  0  0
   41.2930   22.2220   38.2280 H   0  0  0  0  0  0  0  0  0  0  0  0
   38.7490   22.7350   38.9120 N   0  0  0  0  0  0  0  0  0  0  0  0
   38.3210   21.7860   38.8110 H   0  0  0  0  0  0  0  0  0  0  0  0
   38.7030   23.2710   39.8230 H   0  0  0  0  0  0  0  0  0  0  0  0
   36.0400   28.3690   34.1190 C   0  0  0  0  0  0  0  0  0  0  0  0
   35.4580   27.5750   34.6420 H   0  0  0  0  0  0  0  0  0  0  0  0
   36.3190   29.0840   34.9430 H   0  0  0  0  0  0  0  0  0  0  0  0
   35.2320   29.0730   33.2670 O   0  0  0  0  0  0  0  0  0  0  0  0
   35.7540   30.8810   35.1000 O   0  0  0  0  0  0  0  0  0  0  0  0
   35.0610   30.6470   33.7800 P   0  0  2  0  0  0  0  0  0  0  0  0
   33.3610   30.9150   33.9830 O   0  0  0  0  0  0  0  0  0  0  0  0
   32.6560   30.8060   36.3000 C   0  0  0  0  0  3  0  0  0  0  0  0
   32.7690   30.2380   35.0480 C   0  0  0  0  0  0  0  0  0  0  0  0
   32.2560   28.9600   34.9280 C   0  0  0  0  0  0  0  0  0  0  0  0
   32.3190   28.4600   33.9570 H   0  0  0  0  0  0  0  0  0  0  0  0
   31.6690   28.2920   35.9880 C   0  0  0  0  0  0  0  0  0  0  0  0
   31.1000   27.0880   36.1750 N   0  0  0  0  0  0  0  0  0  0  0  0
   31.0030   26.3580   35.4180 H   0  0  0  0  0  0  0  0  0  0  0  0
   30.6840   26.9430   37.4250 N   0  0  0  0  0  0  0  0  0  0  0  0
   30.9650   28.0610   38.1190 C   0  0  0  0  0  0  0  0  0  0  0  0
   30.7620   28.2890   39.1770 H   0  0  0  0  0  0  0  0  0  0  0  0
   31.5830   28.9070   37.2200 C   0  0  0  0  0  0  0  0  0  0  0  0
   32.0830   30.1990   37.4000 C   0  0  0  0  0  3  0  0  0  0  0  0
   35.5650   31.7660   32.6730 O   0  0  0  0  0  0  0  0  0  0  0  0
   35.6320   31.2190   31.4120 C   0  0  0  0  0  0  0  0  0  0  0  0
   36.6720   30.3000   31.2860 F   0  0  0  0  0  0  0  0  0  0  0  0
   34.4820   30.5210   31.1050 F   0  0  0  0  0  0  0  0  0  0  0  0
   35.8150   32.2180   30.4630 F   0  0  0  0  0  0  0  0  0  0  0  0
  1  2  1  0  0  0  0
  1 25  1  0  0  0  0
  3  1  1  0  0  0  0
  5  6  1  0  0  0  0
  5  4  1  0  0  0  0
  6 18  1  0  0  0  0
  7 11  1  0  0  0  0
  7  6  2  0  0  0  0
  8  9  2  0  0  0  0
  8  7  1  0  0  0  0
  9 10  1  0  0  0  0
 10  1  1  0  0  0  0
 10  5  2  0  0  0  0
 12  8  1  0  0  0  0
 13  9  1  0  0  0  0
 14 15  1  0  0  0  0
 15 16  2  0  0  0  0
 15 21  1  0  0  0  0
 16 22  1  0  0  0  0
 17 16  1  0  0  0  0
 18 17  2  0  0  0  0
 19 18  1  0  0  0  0
 19 14  2  0  0  0  0
 20 14  1  0  0  0  0
 22 24  1  0  0  0  0
 23 22  1  0  0  0  0
 25 26  1  0  0  0  0
 25 27  1  0  0  0  0
 28 30  1  0  0  0  0
 28 25  1  0  0  0  0
 30 31  1  0  0  0  0
 30 29  2  1  0  0  0
 31 33  1  0  0  0  0
 32 43  1  0  0  0  0
 33 32  2  0  0  0  0
 34 33  1  0  0  0  0
 34 36  2  0  0  0  0
 35 34  1  0  0  0  0
 36 37  1  0  0  0  0
 36 42  1  0  0  0  0
 37 39  1  0  0  0  0
 38 37  1  0  0  0  0
 39 40  2  0  0  0  0
 40 41  1  0  0  0  0
 42 43  2  0  0  0  0
 42 40  1  0  0  0  0
 44 30  1  0  0  0  0
 45 44  1  0  0  0  0
 46 45  1  0  0  0  0
 47 45  1  0  0  0  0
 48 45  1  0  0  0  0
M  END
>  <minimizedAffinity>
-6.42741919

$$$$

 OpenBabel03272504433D

 48 51  0  0  0  0  0  0  0  0999 V2000
   39.8130   27.0670   31.9550 C   0  0  0  0  0  0  0  0  0  0  0  0
   40.2900   27.6170   32.7980 H   0  0  0  0  0  0  0  0  0  0  0  0
   40.6630   26.9550   31.2160 H   0  0  0  0  0  0  0  0  0  0  0  0
   39.6670   26.6980   34.9020 Cl  0  0  0  0  0  0  0  0  0  0  0  0
   39.3570   25.4150   33.7320 C   0  0  0  0  0  0  0  0  0  0  0  0
   39.0330   24.1820   34.1780 C   0  0  0  0  0  0  0  0  0  0  0  0
   38.7870   23.1690   33.2750 C   0  0  0  0  0  0  0  0  0  0  0  0
   38.8790   23.4420   31.9120 C   0  0  0  0  0  0  0  0  0  0  0  0
   39.2230   24.7530   31.5310 C   0  0  0  0  0  0  0  0  0  0  0  0
   39.4650   25.7500   32.4000 C   0  0  0  0  0  0  0  0  0  0  0  0
   38.5250   22.1750   33.6580 H   0  0  0  0  0  0  0  0  0  0  0  0
   38.6720   22.5950   31.3000 H   0  0  0  0  0  0  0  0  0  0  0  0
   39.2440   24.7540   30.5030 H   0  0  0  0  0  0  0  0  0  0  0  0
   37.9610   24.2050   37.7070 C   0  0  0  0  0  0  0  0  0  0  0  0
   38.8880   23.2540   38.2660 C   0  0  0  0  0  0  0  0  0  0  0  0
   39.8220   22.6600   37.4120 C   0  0  0  0  0  0  0  0  0  0  0  0
   39.8230   22.9990   36.0980 N   0  0  0  0  0  0  0  0  0  0  0  0
   38.9400   23.8960   35.6000 C   0  0  0  0  0  0  0  0  0  0  0  0
   38.0330   24.4790   36.3980 N   0  0  0  0  0  0  0  0  0  0  0  0
   37.2390   24.6630   38.3690 H   0  0  0  0  0  0  0  0  0  0  0  0
   38.7880   23.0680   39.3260 H   0  0  0  0  0  0  0  0  0  0  0  0
   40.7050   21.7400   37.9980 N   0  0  0  0  0  0  0  0  0  0  0  0
   41.5490   22.3020   38.2520 H   0  0  0  0  0  0  0  0  0  0  0  0
   40.6490   20.7010   38.1930 H   0  0  0  0  0  0  0  0  0  0  0  0
   38.7890   27.9390   31.3720 C   0  0  0  0  0  0  0  0  0  0  0  0
   39.1900   28.9610   31.1730 H   0  0  0  0  0  0  0  0  0  0  0  0
   38.4290   27.5910   30.3640 H   0  0  0  0  0  0  0  0  0  0  0  0
   37.6750   28.0090   32.1670 O   0  0  0  0  0  0  0  0  0  0  0  0
   36.3080   29.3320   30.3560 O   0  0  0  0  0  0  0  0  0  0  0  0
   36.2960   28.1110   31.2420 P   0  0  2  0  0  0  0  0  0  0  0  0
   34.9700   28.2360   32.3510 O   0  0  0  0  0  0  0  0  0  0  0  0
   34.0930   30.4730   32.6730 C   0  0  0  0  0  3  0  0  0  0  0  0
   34.9000   29.4270   33.0720 C   0  0  0  0  0  0  0  0  0  0  0  0
   35.6250   29.6450   34.2280 C   0  0  0  0  0  0  0  0  0  0  0  0
   36.2820   28.8480   34.5900 H   0  0  0  0  0  0  0  0  0  0  0  0
   35.5520   30.8280   34.9400 C   0  0  0  0  0  0  0  0  0  0  0  0
   36.1150   31.3200   36.0580 N   0  0  0  0  0  0  0  0  0  0  0  0
   36.8070   30.7870   36.6530 H   0  0  0  0  0  0  0  0  0  0  0  0
   35.6880   32.5480   36.3100 N   0  0  0  0  0  0  0  0  0  0  0  0
   34.8140   32.9200   35.3560 C   0  0  0  0  0  0  0  0  0  0  0  0
   34.2670   33.8690   35.2490 H   0  0  0  0  0  0  0  0  0  0  0  0
   34.7290   31.8430   34.4960 C   0  0  0  0  0  0  0  0  0  0  0  0
   33.9710   31.6790   33.3340 C   0  0  0  0  0  3  0  0  0  0  0  0
   36.0000   26.7610   30.3360 O   0  0  0  0  0  0  0  0  0  0  0  0
   35.6280   25.7020   31.1330 C   0  0  0  0  0  0  0  0  0  0  0  0
   36.0600   24.4780   30.6260 F   0  0  0  0  0  0  0  0  0  0  0  0
   36.1850   25.7990   32.3910 F   0  0  0  0  0  0  0  0  0  0  0  0
   34.2440   25.6580   31.2590 F   0  0  0  0  0  0  0  0  0  0  0  0
  1 10  1  0  0  0  0
  1  2  1  0  0  0  0
  3  1  1  0  0  0  0
  5  6  1  0  0  0  0
  5  4  1  0  0  0  0
  6 18  1  0  0  0  0
  7 11  1  0  0  0  0
  7  6  2  0  0  0  0
  8  7  1  0  0  0  0
  9  8  2  0  0  0  0
  9 10  1  0  0  0  0
 10  5  2  0  0  0  0
 12  8  1  0  0  0  0
 13  9  1  0  0  0  0
 14 15  1  0  0  0  0
 14 20  1  0  0  0  0
 15 21  1  0  0  0  0
 16 22  1  0  0  0  0
 16 15  2  0  0  0  0
 17 16  1  0  0  0  0
 18 17  2  0  0  0  0
 18 19  1  0  0  0  0
 19 14  2  0  0  0  0
 22 24  1  0  0  0  0
 22 23  1  0  0  0  0
 25  1  1  0  0  0  0
 25 28  1  0  0  0  0
 26 25  1  0  0  0  0
 27 25  1  0  0  0  0
 30 29  2  6  0  0  0
 30 28  1  0  0  0  0
 30 31  1  0  0  0  0
 31 33  1  0  0  0  0
 32 33  2  0  0  0  0
 32 43  1  0  0  0  0
 33 34  1  0  0  0  0
 34 35  1  0  0  0  0
 34 36  2  0  0  0  0
 36 37  1  0  0  0  0
 37 39  1  0  0  0  0
 37 38  1  0  0  0  0
 40 39  2  0  0  0  0
 41 40  1  0  0  0  0
 42 36  1  0  0  0  0
 42 40  1  0  0  0  0
 43 42  2  0  0  0  0
 44 45  1  0  0  0  0
 44 30  1  0  0  0  0
 45 48  1  0  0  0  0
 45 47  1  0  0  0  0
 46 45  1  0  0  0  0
M  END
>  <minimizedAffinity>
-6.39773703

$$$$

 OpenBabel03272504433D

 48 51  0  0  0  0  0  0  0  0999 V2000
   36.6910   27.8940   33.9460 C   0  0  0  0  0  0  0  0  0  0  0  0
   35.9030   27.9130   34.7330 H   0  0  0  0  0  0  0  0  0  0  0  0
   37.5440   28.4560   34.4310 H   0  0  0  0  0  0  0  0  0  0  0  0
   38.3280   26.7530   36.1500 Cl  0  0  0  0  0  0  0  0  0  0  0  0
   37.8950   25.8700   34.6860 C   0  0  0  0  0  0  0  0  0  0  0  0
   38.3210   24.5980   34.5350 C   0  0  0  0  0  0  0  0  0  0  0  0
   37.9900   23.8940   33.3960 C   0  0  0  0  0  0  0  0  0  0  0  0
   37.2150   24.5160   32.4200 C   0  0  0  0  0  0  0  0  0  0  0  0
   36.8120   25.8450   32.6550 C   0  0  0  0  0  0  0  0  0  0  0  0
   37.1270   26.5420   33.7600 C   0  0  0  0  0  0  0  0  0  0  0  0
   38.3460   22.8620   33.2930 H   0  0  0  0  0  0  0  0  0  0  0  0
   37.0150   23.8900   31.5820 H   0  0  0  0  0  0  0  0  0  0  0  0
   36.2620   26.1250   31.8320 H   0  0  0  0  0  0  0  0  0  0  0  0
   41.1600   23.0490   36.3110 C   0  0  0  0  0  0  0  0  0  0  0  0
   40.5320   22.7210   37.5660 C   0  0  0  0  0  0  0  0  0  0  0  0
   39.1840   23.0450   37.7360 C   0  0  0  0  0  0  0  0  0  0  0  0
   38.5180   23.6520   36.7210 N   0  0  0  0  0  0  0  0  0  0  0  0
   39.1320   23.9490   35.5520 C   0  0  0  0  0  0  0  0  0  0  0  0
   40.4260   23.6490   35.3630 N   0  0  0  0  0  0  0  0  0  0  0  0
   42.2030   22.7980   36.1810 H   0  0  0  0  0  0  0  0  0  0  0  0
   41.1670   22.2390   38.2960 H   0  0  0  0  0  0  0  0  0  0  0  0
   38.6130   22.7080   38.9730 N   0  0  0  0  0  0  0  0  0  0  0  0
   38.1920   21.7630   38.8260 H   0  0  0  0  0  0  0  0  0  0  0  0
   38.5550   23.2030   39.9070 H   0  0  0  0  0  0  0  0  0  0  0  0
   36.2010   28.6700   32.8020 C   0  0  0  0  0  0  0  0  0  0  0  0
   36.8030   29.5950   32.6490 H   0  0  0  0  0  0  0  0  0  0  0  0
   36.2930   28.1240   31.8220 H   0  0  0  0  0  0  0  0  0  0  0  0
   34.8730   28.9800   32.9360 O   0  0  0  0  0  0  0  0  0  0  0  0
   35.1030   31.4760   32.1510 O   0  0  0  0  0  0  0  0  0  0  0  0
   34.6760   30.5920   33.2970 P   0  0  2  0  0  0  0  0  0  0  0  0
   35.6900   30.9170   34.6650 O   0  0  0  0  0  0  0  0  0  0  0  0
   35.9440   33.3280   34.7300 C   0  0  0  0  0  3  0  0  0  0  0  0
   35.4850   32.1500   35.2840 C   0  0  0  0  0  0  0  0  0  0  0  0
   34.8140   32.2810   36.4850 C   0  0  0  0  0  0  0  0  0  0  0  0
   34.4290   31.3790   36.9690 H   0  0  0  0  0  0  0  0  0  0  0  0
   34.6140   33.5060   37.0950 C   0  0  0  0  0  0  0  0  0  0  0  0
   34.0220   33.9390   38.2220 N   0  0  0  0  0  0  0  0  0  0  0  0
   33.5460   33.3040   38.9190 H   0  0  0  0  0  0  0  0  0  0  0  0
   34.1150   35.2560   38.3370 N   0  0  0  0  0  0  0  0  0  0  0  0
   34.7800   35.7490   37.2760 C   0  0  0  0  0  0  0  0  0  0  0  0
   35.0380   36.7940   37.0450 H   0  0  0  0  0  0  0  0  0  0  0  0
   35.0940   34.6540   36.4970 C   0  0  0  0  0  0  0  0  0  0  0  0
   35.7790   34.5830   35.2810 C   0  0  0  0  0  3  0  0  0  0  0  0
   33.1420   30.9860   33.7700 O   0  0  0  0  0  0  0  0  0  0  0  0
   32.5510   29.9440   34.4470 C   0  0  0  0  0  0  0  0  0  0  0  0
   33.4420   29.2850   35.2920 F   0  0  0  0  0  0  0  0  0  0  0  0
   31.5300   30.3890   35.2620 F   0  0  0  0  0  0  0  0  0  0  0  0
   32.0340   29.0170   33.5490 F   0  0  0  0  0  0  0  0  0  0  0  0
  1  3  1  0  0  0  0
  1  2  1  0  0  0  0
  5  4  1  0  0  0  0
  6  5  1  0  0  0  0
  6 18  1  0  0  0  0
  7  6  2  0  0  0  0
  8  9  2  0  0  0  0
  8  7  1  0  0  0  0
  9 10  1  0  0  0  0
 10  1  1  0  0  0  0
 10  5  2  0  0  0  0
 11  7  1  0  0  0  0
 12  8  1  0  0  0  0
 13  9  1  0  0  0  0
 14 15  1  0  0  0  0
 15 16  2  0  0  0  0
 15 21  1  0  0  0  0
 16 22  1  0  0  0  0
 17 16  1  0  0  0  0
 18 17  2  0  0  0  0
 19 18  1  0  0  0  0
 19 14  2  0  0  0  0
 20 14  1  0  0  0  0
 22 24  1  0  0  0  0
 23 22  1  0  0  0  0
 25 28  1  0  0  0  0
 25  1  1  0  0  0  0
 26 25  1  0  0  0  0
 27 25  1  0  0  0  0
 28 30  1  0  0  0  0
 30 29  2  6  0  0  0
 30 44  1  0  0  0  0
 30 31  1  0  0  0  0
 31 33  1  0  0  0  0
 32 43  2  0  0  0  0
 32 33  1  0  0  0  0
 33 34  2  0  0  0  0
 34 35  1  0  0  0  0
 34 36  1  0  0  0  0
 36 37  1  0  0  0  0
 37 39  1  0  0  0  0
 37 38  1  0  0  0  0
 40 39  2  0  0  0  0
 41 40  1  0  0  0  0
 42 36  2  0  0  0  0
 42 40  1  0  0  0  0
 43 42  1  0  0  0  0
 44 45  1  0  0  0  0
 45 47  1  0  0  0  0
 45 46  1  0  0  0  0
 48 45  1  0  0  0  0
M  END
>  <minimizedAffinity>
-6.38353109

$$$$

 OpenBabel03272504433D

 48 51  0  0  0  0  0  0  0  0999 V2000
   39.0810   25.4060   30.6950 C   0  0  0  0  0  0  0  0  0  0  0  0
   39.7780   24.5400   30.6250 H   0  0  0  0  0  0  0  0  0  0  0  0
   39.0900   25.8220   29.6430 H   0  0  0  0  0  0  0  0  0  0  0  0
   38.8870   22.5320   31.4290 Cl  0  0  0  0  0  0  0  0  0  0  0  0
   37.4970   23.6080   31.2920 C   0  0  0  0  0  0  0  0  0  0  0  0
   36.2610   23.1210   31.5280 C   0  0  0  0  0  0  0  0  0  0  0  0
   35.1640   23.9510   31.4250 C   0  0  0  0  0  0  0  0  0  0  0  0
   35.3590   25.2860   31.0760 C   0  0  0  0  0  0  0  0  0  0  0  0
   36.6800   25.7140   30.8450 C   0  0  0  0  0  0  0  0  0  0  0  0
   37.7580   24.9160   30.9430 C   0  0  0  0  0  0  0  0  0  0  0  0
   34.1690   23.5350   31.6220 H   0  0  0  0  0  0  0  0  0  0  0  0
   34.4520   25.8410   31.0230 H   0  0  0  0  0  0  0  0  0  0  0  0
   36.6170   26.7110   30.6000 H   0  0  0  0  0  0  0  0  0  0  0  0
   35.5870   20.0500   33.4580 C   0  0  0  0  0  0  0  0  0  0  0  0
   35.7000   19.0590   32.4170 C   0  0  0  0  0  0  0  0  0  0  0  0
   35.9980   19.4930   31.1220 C   0  0  0  0  0  0  0  0  0  0  0  0
   36.1690   20.8190   30.8920 N   0  0  0  0  0  0  0  0  0  0  0  0
   36.0570   21.7280   31.8890 C   0  0  0  0  0  0  0  0  0  0  0  0
   35.7710   21.3390   33.1410 N   0  0  0  0  0  0  0  0  0  0  0  0
   35.3570   19.7140   34.4590 H   0  0  0  0  0  0  0  0  0  0  0  0
   35.5420   18.0360   32.7250 H   0  0  0  0  0  0  0  0  0  0  0  0
   36.0990   18.4950   30.1400 N   0  0  0  0  0  0  0  0  0  0  0  0
   37.1140   18.2510   30.1090 H   0  0  0  0  0  0  0  0  0  0  0  0
   35.3920   18.0190   29.5110 H   0  0  0  0  0  0  0  0  0  0  0  0
   39.6800   26.3920   31.6000 C   0  0  0  0  0  0  0  0  0  0  0  0
   40.3310   27.1090   31.0480 H   0  0  0  0  0  0  0  0  0  0  0  0
   38.9200   27.0520   32.1040 H   0  0  0  0  0  0  0  0  0  0  0  0
   40.3820   25.7880   32.6090 O   0  0  0  0  0  0  0  0  0  0  0  0
   40.7270   26.4440   35.1290 O   0  0  0  0  0  0  0  0  0  0  0  0
   39.6890   26.1120   34.0870 P   0  0  2  0  0  0  0  0  0  0  0  0
   38.8540   24.6700   34.5650 O   0  0  0  0  0  0  0  0  0  0  0  0
   39.3390   23.5940   36.6830 C   0  0  0  0  0  3  0  0  0  0  0  0
   39.5940   23.7770   35.3390 C   0  0  0  0  0  0  0  0  0  0  0  0
   40.6250   23.0160   34.8220 C   0  0  0  0  0  0  0  0  0  0  0  0
   40.8710   23.1210   33.7610 H   0  0  0  0  0  0  0  0  0  0  0  0
   41.3560   22.1310   35.5940 C   0  0  0  0  0  0  0  0  0  0  0  0
   42.3790   21.2840   35.3860 N   0  0  0  0  0  0  0  0  0  0  0  0
   42.8510   21.1480   34.4510 H   0  0  0  0  0  0  0  0  0  0  0  0
   42.7120   20.6500   36.5010 N   0  0  0  0  0  0  0  0  0  0  0  0
   41.9090   21.0590   37.5010 C   0  0  0  0  0  0  0  0  0  0  0  0
   41.9020   20.7440   38.5560 H   0  0  0  0  0  0  0  0  0  0  0  0
   41.0590   21.9880   36.9340 C   0  0  0  0  0  0  0  0  0  0  0  0
   40.0260   22.7300   37.5120 C   0  0  0  0  0  3  0  0  0  0  0  0
   38.5410   27.3000   34.0370 O   0  0  0  0  0  0  0  0  0  0  0  0
   37.7810   27.3030   35.1840 C   0  0  0  0  0  0  0  0  0  0  0  0
   38.5410   27.0550   36.3260 F   0  0  0  0  0  0  0  0  0  0  0  0
   37.1890   28.5310   35.3920 F   0  0  0  0  0  0  0  0  0  0  0  0
   36.7860   26.3350   35.1040 F   0  0  0  0  0  0  0  0  0  0  0  0
  1 10  1  0  0  0  0
  1 25  1  0  0  0  0
  2  1  1  0  0  0  0
  3  1  1  0  0  0  0
  5  4  1  0  0  0  0
  5  6  1  0  0  0  0
  6 18  1  0  0  0  0
  7  6  2  0  0  0  0
  7 11  1  0  0  0  0
  8  7  1  0  0  0  0
  9 10  1  0  0  0  0
  9  8  2  0  0  0  0
 10  5  2  0  0  0  0
 12  8  1  0  0  0  0
 13  9  1  0  0  0  0
 14 20  1  0  0  0  0
 15 21  1  0  0  0  0
 15 14  2  0  0  0  0
 16 15  1  0  0  0  0
 17 16  2  0  0  0  0
 17 18  1  0  0  0  0
 18 19  2  0  0  0  0
 19 14  1  0  0  0  0
 22 16  1  0  0  0  0
 23 22  1  0  0  0  0
 24 22  1  0  0  0  0
 25 27  1  0  0  0  0
 25 28  1  0  0  0  0
 26 25  1  0  0  0  0
 28 30  1  0  0  0  0
 30 31  1  0  0  0  0
 30 29  2  1  0  0  0
 31 33  1  0  0  0  0
 32 43  1  0  0  0  0
 33 32  2  0  0  0  0
 34 33  1  0  0  0  0
 34 36  2  0  0  0  0
 35 34  1  0  0  0  0
 36 42  1  0  0  0  0
 37 36  1  0  0  0  0
 37 39  1  0  0  0  0
 38 37  1  0  0  0  0
 39 40  2  0  0  0  0
 40 41  1  0  0  0  0
 42 40  1  0  0  0  0
 42 43  2  0  0  0  0
 44 30  1  0  0  0  0
 44 45  1  0  0  0  0
 45 47  1  0  0  0  0
 45 46  1  0  0  0  0
 48 45  1  0  0  0  0
M  END
>  <minimizedAffinity>
-6.31270695

$$$$

 OpenBabel03272504433D

 48 51  0  0  0  0  0  0  0  0999 V2000
   36.8930   27.5980   32.0690 C   0  0  0  0  0  0  0  0  0  0  0  0
   36.8990   27.1230   33.0760 H   0  0  0  0  0  0  0  0  0  0  0  0
   36.2390   26.9010   31.4660 H   0  0  0  0  0  0  0  0  0  0  0  0
   36.2540   28.5360   34.8180 Cl  0  0  0  0  0  0  0  0  0  0  0  0
   35.8380   29.4250   33.3520 C   0  0  0  0  0  0  0  0  0  0  0  0
   35.1900   30.6040   33.4600 C   0  0  0  0  0  0  0  0  0  0  0  0
   34.8590   31.3110   32.3230 C   0  0  0  0  0  0  0  0  0  0  0  0
   35.2040   30.7890   31.0790 C   0  0  0  0  0  0  0  0  0  0  0  0
   35.8790   29.5530   31.0540 C   0  0  0  0  0  0  0  0  0  0  0  0
   36.2080   28.8540   32.1540 C   0  0  0  0  0  0  0  0  0  0  0  0
   34.3320   32.2670   32.4320 H   0  0  0  0  0  0  0  0  0  0  0  0
   34.9040   31.4080   30.2660 H   0  0  0  0  0  0  0  0  0  0  0  0
   36.0400   29.3370   30.0620 H   0  0  0  0  0  0  0  0  0  0  0  0
   35.2430   32.5290   36.6070 C   0  0  0  0  0  0  0  0  0  0  0  0
   34.0080   32.0850   37.2030 C   0  0  0  0  0  0  0  0  0  0  0  0
   33.2300   31.1600   36.5010 C   0  0  0  0  0  0  0  0  0  0  0  0
   33.6610   30.7150   35.2940 N   0  0  0  0  0  0  0  0  0  0  0  0
   34.8260   31.1480   34.7580 C   0  0  0  0  0  0  0  0  0  0  0  0
   35.5920   32.0370   35.4100 N   0  0  0  0  0  0  0  0  0  0  0  0
   35.8440   33.2440   37.1500 H   0  0  0  0  0  0  0  0  0  0  0  0
   33.7730   32.5120   38.1670 H   0  0  0  0  0  0  0  0  0  0  0  0
   32.0350   30.7560   37.1180 N   0  0  0  0  0  0  0  0  0  0  0  0
   32.2860   29.8890   37.6450 H   0  0  0  0  0  0  0  0  0  0  0  0
   31.0520   31.1470   37.1250 H   0  0  0  0  0  0  0  0  0  0  0  0
   38.2600   27.5430   31.5400 C   0  0  0  0  0  0  0  0  0  0  0  0
   38.3590   26.7650   30.7470 H   0  0  0  0  0  0  0  0  0  0  0  0
   38.5760   28.4930   31.0260 H   0  0  0  0  0  0  0  0  0  0  0  0
   39.1770   27.3310   32.5360 O   0  0  0  0  0  0  0  0  0  0  0  0
   40.3100   25.6450   30.8710 O   0  0  0  0  0  0  0  0  0  0  0  0
   39.9590   25.8790   32.3190 P   0  0  2  0  0  0  0  0  0  0  0  0
   38.8570   24.6450   32.8360 O   0  0  0  0  0  0  0  0  0  0  0  0
   37.8890   25.4940   34.8910 C   0  0  0  0  0  3  0  0  0  0  0  0
   38.6510   24.5640   34.2120 C   0  0  0  0  0  0  0  0  0  0  0  0
   39.1860   23.5550   34.9910 C   0  0  0  0  0  0  0  0  0  0  0  0
   39.8000   22.7900   34.5050 H   0  0  0  0  0  0  0  0  0  0  0  0
   38.9780   23.4790   36.3560 C   0  0  0  0  0  0  0  0  0  0  0  0
   39.3530   22.6490   37.3460 N   0  0  0  0  0  0  0  0  0  0  0  0
   39.9590   21.7960   37.2020 H   0  0  0  0  0  0  0  0  0  0  0  0
   38.8640   23.0420   38.5130 N   0  0  0  0  0  0  0  0  0  0  0  0
   38.1370   24.1610   38.3350 C   0  0  0  0  0  0  0  0  0  0  0  0
   37.5900   24.7570   39.0820 H   0  0  0  0  0  0  0  0  0  0  0  0
   38.2080   24.4360   36.9840 C   0  0  0  0  0  0  0  0  0  0  0  0
   37.6390   25.4790   36.2490 C   0  0  0  0  0  3  0  0  0  0  0  0
   41.3060   25.7020   33.2600 O   0  0  0  0  0  0  0  0  0  0  0  0
   41.6170   26.8780   33.9060 C   0  0  0  0  0  0  0  0  0  0  0  0
   41.6050   27.9750   33.0470 F   0  0  0  0  0  0  0  0  0  0  0  0
   40.6950   27.1690   34.8900 F   0  0  0  0  0  0  0  0  0  0  0  0
   42.8770   26.7910   34.4850 F   0  0  0  0  0  0  0  0  0  0  0  0
  1 10  1  0  0  0  0
  1  2  1  0  0  0  0
  3  1  1  0  0  0  0
  5  6  1  0  0  0  0
  5  4  1  0  0  0  0
  6 18  1  0  0  0  0
  7 11  1  0  0  0  0
  7  6  2  0  0  0  0
  8  7  1  0  0  0  0
  9  8  2  0  0  0  0
  9 10  1  0  0  0  0
 10  5  2  0  0  0  0
 12  8  1  0  0  0  0
 13  9  1  0  0  0  0
 14 20  1  0  0  0  0
 14 15  1  0  0  0  0
 15 21  1  0  0  0  0
 16 22  1  0  0  0  0
 16 15  2  0  0  0  0
 17 16  1  0  0  0  0
 18 17  2  0  0  0  0
 18 19  1  0  0  0  0
 19 14  2  0  0  0  0
 22 24  1  0  0  0  0
 22 23  1  0  0  0  0
 25  1  1  0  0  0  0
 25 28  1  0  0  0  0
 26 25  1  0  0  0  0
 27 25  1  0  0  0  0
 30 29  2  6  0  0  0
 30 28  1  0  0  0  0
 30 31  1  0  0  0  0
 30 44  1  0  0  0  0
 31 33  1  0  0  0  0
 32 43  1  0  0  0  0
 33 32  2  0  0  0  0
 33 34  1  0  0  0  0
 34 36  2  0  0  0  0
 35 34  1  0  0  0  0
 36 42  1  0  0  0  0
 36 37  1  0  0  0  0
 37 39  1  0  0  0  0
 38 37  1  0  0  0  0
 40 39  2  0  0  0  0
 40 41  1  0  0  0  0
 42 40  1  0  0  0  0
 43 42  2  0  0  0  0
 44 45  1  0  0  0  0
 45 48  1  0  0  0  0
 45 47  1  0  0  0  0
 46 45  1  0  0  0  0
M  END
>  <minimizedAffinity>
-6.23626375

$$$$
