
 OpenBabel03262522053D

 43 47  0  0  1  0  0  0  0  0999 V2000
   37.7480   31.8460   49.6600 C   0  0  0  0  0  0  0  0  0  0  0  0
   36.7480   32.3550   50.2570 O   0  0  0  0  0  0  0  0  0  0  0  0
   34.5410   29.1210   48.6520 C   0  0  2  0  0  0  0  0  0  0  0  0
   35.1640   28.3860   49.7890 C   0  0  0  0  0  0  0  0  0  0  0  0
   36.2890   29.1640   50.3070 N   0  0  0  0  0  0  0  0  0  0  0  0
   37.2240   29.8970   51.1140 C   0  0  0  0  0  0  0  0  0  0  0  0
   37.4130   30.0820   52.3280 O   0  0  0  0  0  0  0  0  0  0  0  0
   37.9660   30.4190   49.9990 C   0  0  1  0  0  0  0  0  0  0  0  0
   37.1520   29.4160   49.1910 C   0  0  2  0  0  0  0  0  0  0  0  0
   35.9610   30.1240   48.0320 S   0  0  0  0  0  0  0  0  0  0  0  0
   35.4140   27.3350   49.6010 H   0  0  0  0  0  0  0  0  0  0  0  0
   34.3990   28.3810   50.6190 H   0  0  0  0  0  0  0  0  0  0  0  0
   39.0280   30.1010   49.8940 H   0  0  0  0  0  0  0  0  0  0  0  0
   37.7090   28.5450   48.8030 H   0  0  0  0  0  0  0  0  0  0  0  0
   33.3290   29.9320   48.9580 C   0  0  0  0  0  0  0  0  0  0  0  0
   32.5880   29.8030   48.1250 H   0  0  0  0  0  0  0  0  0  0  0  0
   32.9020   29.6520   49.9360 H   0  0  0  0  0  0  0  0  0  0  0  0
   33.6140   31.0050   49.0330 H   0  0  0  0  0  0  0  0  0  0  0  0
   34.2780   28.1120   47.5150 C   0  0  0  0  0  0  0  0  0  0  0  0
   35.0210   27.3000   47.5490 H   0  0  0  0  0  0  0  0  0  0  0  0
   33.2660   27.7060   47.6800 H   0  0  0  0  0  0  0  0  0  0  0  0
   34.2650   28.8040   46.3050 O   0  0  0  0  0  0  0  0  0  0  0  0
   34.0220   28.1640   45.5950 H   0  0  0  0  0  0  0  0  0  0  0  0
   38.5750   32.5860   48.7580 C   0  0  0  0  0  0  0  0  0  0  0  0
   39.1500   33.7510   49.2110 C   0  0  0  0  0  0  0  0  0  0  0  0
   39.9700   34.4800   48.3090 C   0  0  0  0  0  0  0  0  0  0  0  0
   40.1330   33.9740   47.0410 N   0  0  0  0  0  0  0  0  0  0  0  0
   39.5590   32.8490   46.6500 C   0  0  0  0  0  0  0  0  0  0  0  0
   38.7810   32.1460   47.4910 N   0  0  0  0  0  0  0  0  0  0  0  0
   38.9970   34.1220   50.2260 H   0  0  0  0  0  0  0  0  0  0  0  0
   40.4470   35.4040   48.6140 H   0  0  0  0  0  0  0  0  0  0  0  0
   40.5050   31.2120   45.0400 C   0  0  0  0  0  3  0  0  0  0  0  0
   39.7590   32.3450   45.2950 C   0  0  0  0  0  0  0  0  0  0  0  0
   39.2030   32.9900   44.2070 C   0  0  0  0  0  0  0  0  0  0  0  0
   38.6190   33.8840   44.4410 H   0  0  0  0  0  0  0  0  0  0  0  0
   39.3600   32.5570   42.9020 C   0  0  0  0  0  0  0  0  0  0  0  0
   38.8980   33.0500   41.7220 N   0  0  0  0  0  0  0  0  0  0  0  0
   38.3010   33.9140   41.6460 H   0  0  0  0  0  0  0  0  0  0  0  0
   39.3560   32.2300   40.7630 N   0  0  0  0  0  0  0  0  0  0  0  0
   40.0840   31.2500   41.3240 C   0  0  0  0  0  0  0  0  0  0  0  0
   40.5850   30.4330   40.7850 H   0  0  0  0  0  0  0  0  0  0  0  0
   40.1190   31.4130   42.6940 C   0  0  0  0  0  0  0  0  0  0  0  0
   40.6980   30.7250   43.7410 C   0  0  0  0  0  3  0  0  0  0  0  0
  1  8  1  0  0  0  0
  1  2  2  0  0  0  0
  3 19  1  6  0  0  0
  3 15  1  0  0  0  0
  3  4  1  0  0  0  0
  4  5  1  0  0  0  0
  4 12  1  0  0  0  0
  5  6  1  0  0  0  0
  6  7  2  0  0  0  0
  8 13  1  1  0  0  0
  8  6  1  0  0  0  0
  9 14  1  6  0  0  0
  9  8  1  0  0  0  0
  9  5  1  0  0  0  0
 10  3  1  0  0  0  0
 10  9  1  0  0  0  0
 11  4  1  0  0  0  0
 15 18  1  0  0  0  0
 15 17  1  0  0  0  0
 16 15  1  0  0  0  0
 19 20  1  0  0  0  0
 19 21  1  0  0  0  0
 22 19  1  0  0  0  0
 23 22  1  0  0  0  0
 24 25  1  0  0  0  0
 24  1  1  0  0  0  0
 25 30  1  0  0  0  0
 26 31  1  0  0  0  0
 26 25  2  0  0  0  0
 27 26  1  0  0  0  0
 28 27  2  0  0  0  0
 28 29  1  0  0  0  0
 29 24  2  0  0  0  0
 32 33  1  0  0  0  0
 33 28  1  0  0  0  0
 34 35  1  0  0  0  0
 34 33  2  0  0  0  0
 36 34  1  0  0  0  0
 37 36  1  0  0  0  0
 38 37  1  0  0  0  0
 39 40  2  0  0  0  0
 39 37  1  0  0  0  0
 40 42  1  0  0  0  0
 41 40  1  0  0  0  0
 42 36  2  0  0  0  0
 42 43  1  0  0  0  0
 43 32  2  0  0  0  0
M  END
>  <minimizedAffinity>
-6.59097052

>  <minimizedRMSD>
0.766443551

$$$$
