
 OpenBabel03262523223D

 36 39  0  0  1  0  0  0  0  0999 V2000
   38.3500   32.4480   46.3600 C   0  0  0  0  0  0  0  0  0  0  0  0
   38.1450   31.4760   45.3430 C   0  0  0  0  0  0  0  0  0  0  0  0
   37.5490   30.2530   45.6980 C   0  0  0  0  0  0  0  0  0  0  0  0
   37.2010   30.0760   46.9980 N   0  0  0  0  0  0  0  0  0  0  0  0
   37.4030   31.0040   47.9370 C   0  0  0  0  0  0  0  0  0  0  0  0
   37.9760   32.1900   47.6210 N   0  0  0  0  0  0  0  0  0  0  0  0
   37.0090   30.7740   49.2920 N   0  0  0  0  0  0  0  0  0  0  0  0
   37.9110   31.1070   50.3880 C   0  0  0  0  0  0  0  0  0  0  0  0
   37.8070   30.1890   51.5710 C   0  0  0  0  0  0  0  0  0  0  0  0
   37.1540   28.9060   51.1130 C   0  0  0  0  0  0  0  0  0  0  0  0
   35.7140   29.2600   50.7460 C   0  0  0  0  0  0  0  0  0  0  0  0
   35.7230   30.2220   49.6040 C   0  0  2  0  0  0  0  0  0  0  0  0
   38.8090   33.3940   46.1040 H   0  0  0  0  0  0  0  0  0  0  0  0
   38.4540   31.7120   44.3500 H   0  0  0  0  0  0  0  0  0  0  0  0
   37.3880   29.5120   44.9490 H   0  0  0  0  0  0  0  0  0  0  0  0
   38.9440   31.1430   49.9680 H   0  0  0  0  0  0  0  0  0  0  0  0
   37.7140   32.1500   50.7660 H   0  0  0  0  0  0  0  0  0  0  0  0
   38.7940   30.0110   52.0520 H   0  0  0  0  0  0  0  0  0  0  0  0
   37.1710   30.6140   52.3810 H   0  0  0  0  0  0  0  0  0  0  0  0
   37.2090   28.1040   51.8560 H   0  0  0  0  0  0  0  0  0  0  0  0
   37.6810   28.6090   50.1690 H   0  0  0  0  0  0  0  0  0  0  0  0
   35.1040   28.3710   50.6300 H   0  0  0  0  0  0  0  0  0  0  0  0
   35.3210   29.7580   51.6880 H   0  0  0  0  0  0  0  0  0  0  0  0
   35.1300   31.1340   49.9900 H   0  0  0  0  0  0  0  0  0  0  0  0
   34.7880   28.5130   47.8920 C   0  0  0  0  0  0  0  0  0  0  0  0
   34.9420   29.7370   48.4710 C   0  0  0  0  0  0  0  0  0  0  0  0
   34.1510   30.7290   47.8690 C   0  0  0  0  0  0  0  0  0  0  0  0
   34.1440   31.7700   48.2000 H   0  0  0  0  0  0  0  0  0  0  0  0
   33.3040   30.5040   46.8070 C   0  0  0  0  0  0  0  0  0  0  0  0
   32.4670   31.2590   46.0740 N   0  0  0  0  0  0  0  0  0  0  0  0
   32.3030   32.2800   46.2140 H   0  0  0  0  0  0  0  0  0  0  0  0
   31.8870   30.5140   45.1550 N   0  0  0  0  0  0  0  0  0  0  0  0
   32.3020   29.2520   45.2300 C   0  0  0  0  0  0  0  0  0  0  0  0
   32.0530   28.3780   44.6540 H   0  0  0  0  0  0  0  0  0  0  0  0
   33.2010   29.2370   46.2740 C   0  0  0  0  0  0  0  0  0  0  0  0
   33.9600   28.2340   46.8350 C   0  0  0  0  0  0  0  0  0  0  0  0
  1  6  1  0  0  0  0
  2  3  1  0  0  0  0
  2  1  2  0  0  0  0
  3  4  2  0  0  0  0
  4  5  1  0  0  0  0
  5  7  1  0  0  0  0
  6  5  2  0  0  0  0
  7 12  1  0  0  0  0
  7  8  1  0  0  0  0
  8 17  1  0  0  0  0
  8  9  1  0  0  0  0
  9 18  1  0  0  0  0
  9 19  1  0  0  0  0
 10  9  1  0  0  0  0
 10 20  1  0  0  0  0
 11 10  1  0  0  0  0
 11 23  1  0  0  0  0
 12 24  1  1  0  0  0
 12 11  1  0  0  0  0
 13  1  1  0  0  0  0
 14  2  1  0  0  0  0
 15  3  1  0  0  0  0
 16  8  1  0  0  0  0
 21 10  1  0  0  0  0
 22 11  1  0  0  0  0
 25 26  1  0  0  0  0
 26 12  1  0  0  0  0
 27 28  1  0  0  0  0
 27 26  2  0  0  0  0
 29 27  1  0  0  0  0
 30 31  1  0  0  0  0
 30 29  1  0  0  0  0
 32 33  2  0  0  0  0
 32 30  1  0  0  0  0
 33 35  1  0  0  0  0
 34 33  1  0  0  0  0
 35 29  2  0  0  0  0
 35 36  1  0  0  0  0
 36 25  2  0  0  0  0
M  END
>  <minimizedAffinity>
-5.28216124

>  <minimizedRMSD>
2.44584537

$$$$
