
 OpenBabel03272504413D

 48 51  0  0  0  0  0  0  0  0999 V2000
   34.7220   29.3450   48.7050 C   0  0  0  0  0  0  0  0  0  0  0  0
   35.6170   29.3740   49.3660 H   0  0  0  0  0  0  0  0  0  0  0  0
   34.0690   30.1650   49.1300 H   0  0  0  0  0  0  0  0  0  0  0  0
   37.4870   30.4060   48.4410 Cl  0  0  0  0  0  0  0  0  0  0  0  0
   36.3530   30.2690   47.0970 C   0  0  0  0  0  0  0  0  0  0  0  0
   36.7400   30.6640   45.8660 C   0  0  0  0  0  0  0  0  0  0  0  0
   35.8640   30.5620   44.8050 C   0  0  0  0  0  0  0  0  0  0  0  0
   34.5880   30.0490   45.0300 C   0  0  0  0  0  0  0  0  0  0  0  0
   34.2640   29.6610   46.3450 C   0  0  0  0  0  0  0  0  0  0  0  0
   35.1070   29.7540   47.3870 C   0  0  0  0  0  0  0  0  0  0  0  0
   36.1990   30.8880   43.8130 H   0  0  0  0  0  0  0  0  0  0  0  0
   33.9900   30.0130   44.1500 H   0  0  0  0  0  0  0  0  0  0  0  0
   33.2940   29.3190   46.3080 H   0  0  0  0  0  0  0  0  0  0  0  0
   39.7260   32.8280   45.9600 C   0  0  0  0  0  0  0  0  0  0  0  0
   40.6080   32.0910   45.0900 C   0  0  0  0  0  0  0  0  0  0  0  0
   40.1370   30.9030   44.5240 C   0  0  0  0  0  0  0  0  0  0  0  0
   38.8780   30.4890   44.8100 N   0  0  0  0  0  0  0  0  0  0  0  0
   38.0700   31.2010   45.6310 C   0  0  0  0  0  0  0  0  0  0  0  0
   38.4970   32.3450   46.1880 N   0  0  0  0  0  0  0  0  0  0  0  0
   40.0910   33.7470   46.3960 H   0  0  0  0  0  0  0  0  0  0  0  0
   41.5870   32.5230   44.9390 H   0  0  0  0  0  0  0  0  0  0  0  0
   41.0290   30.2170   43.6840 N   0  0  0  0  0  0  0  0  0  0  0  0
   40.8110   30.5630   42.7220 H   0  0  0  0  0  0  0  0  0  0  0  0
   41.7870   29.5000   43.8590 H   0  0  0  0  0  0  0  0  0  0  0  0
   34.0560   28.0550   48.9070 C   0  0  0  0  0  0  0  0  0  0  0  0
   34.1310   27.4110   48.0000 H   0  0  0  0  0  0  0  0  0  0  0  0
   34.5280   27.4330   49.7180 H   0  0  0  0  0  0  0  0  0  0  0  0
   32.7450   28.2160   49.2730 O   0  0  0  0  0  0  0  0  0  0  0  0
   32.5040   26.5360   47.2690 O   0  0  0  0  0  0  0  0  0  0  0  0
   31.7350   27.4220   48.2170 P   0  0  2  0  0  0  0  0  0  0  0  0
   30.9180   28.6470   47.3020 O   0  0  0  0  0  0  0  0  0  0  0  0
   31.0190   28.5660   44.8810 C   0  0  0  0  0  3  0  0  0  0  0  0
   30.4060   28.2370   46.0720 C   0  0  0  0  0  0  0  0  0  0  0  0
   29.2580   27.4760   45.9580 C   0  0  0  0  0  0  0  0  0  0  0  0
   28.7300   27.1860   46.8710 H   0  0  0  0  0  0  0  0  0  0  0  0
   28.7540   27.0700   44.7360 C   0  0  0  0  0  0  0  0  0  0  0  0
   27.6960   26.3520   44.3150 N   0  0  0  0  0  0  0  0  0  0  0  0
   26.9820   25.9220   44.9640 H   0  0  0  0  0  0  0  0  0  0  0  0
   27.6740   26.2570   42.9950 N   0  0  0  0  0  0  0  0  0  0  0  0
   28.7300   26.9190   42.4840 C   0  0  0  0  0  0  0  0  0  0  0  0
   29.0240   27.0480   41.4300 H   0  0  0  0  0  0  0  0  0  0  0  0
   29.4070   27.4290   43.5730 C   0  0  0  0  0  0  0  0  0  0  0  0
   30.5730   28.1970   43.6290 C   0  0  0  0  0  3  0  0  0  0  0  0
   30.5460   26.5500   48.9630 O   0  0  0  0  0  0  0  0  0  0  0  0
   29.7940   27.3480   49.7950 C   0  0  0  0  0  0  0  0  0  0  0  0
   29.3200   26.6570   50.9090 F   0  0  0  0  0  0  0  0  0  0  0  0
   30.5410   28.3930   50.2980 F   0  0  0  0  0  0  0  0  0  0  0  0
   28.7030   27.8680   49.1080 F   0  0  0  0  0  0  0  0  0  0  0  0
  1 25  1  0  0  0  0
  1  3  1  0  0  0  0
  1  2  1  0  0  0  0
  5 10  1  0  0  0  0
  5  4  1  0  0  0  0
  6  5  2  0  0  0  0
  7  8  2  0  0  0  0
  7  6  1  0  0  0  0
  8  9  1  0  0  0  0
  9 10  2  0  0  0  0
 10  1  1  0  0  0  0
 11  7  1  0  0  0  0
 12  8  1  0  0  0  0
 13  9  1  0  0  0  0
 14 19  1  0  0  0  0
 14 20  1  0  0  0  0
 15 14  2  0  0  0  0
 16 17  2  0  0  0  0
 16 15  1  0  0  0  0
 17 18  1  0  0  0  0
 18  6  1  0  0  0  0
 18 19  2  0  0  0  0
 21 15  1  0  0  0  0
 22 24  1  0  0  0  0
 22 16  1  0  0  0  0
 23 22  1  0  0  0  0
 25 28  1  0  0  0  0
 25 27  1  0  0  0  0
 26 25  1  0  0  0  0
 30 29  2  6  0  0  0
 30 44  1  0  0  0  0
 30 28  1  0  0  0  0
 31 30  1  0  0  0  0
 32 33  1  0  0  0  0
 33 31  1  0  0  0  0
 34 33  2  0  0  0  0
 34 35  1  0  0  0  0
 36 34  1  0  0  0  0
 37 36  1  0  0  0  0
 37 38  1  0  0  0  0
 39 37  1  0  0  0  0
 40 39  2  0  0  0  0
 40 42  1  0  0  0  0
 41 40  1  0  0  0  0
 42 43  1  0  0  0  0
 42 36  2  0  0  0  0
 43 32  2  0  0  0  0
 44 45  1  0  0  0  0
 45 47  1  0  0  0  0
 45 46  1  0  0  0  0
 48 45  1  0  0  0  0
M  END
>  <minimizedAffinity>
-5.81908083

>  <minimizedRMSD>
0.566353977

$$$$
