
 OpenBabel03272506463D

 45 49  0  0  1  0  0  0  0  0999 V2000
   31.3530   26.8430   45.8810 O   0  0  0  0  0  0  0  0  0  0  0  0
   32.1490   28.4170   47.5400 C   0  0  2  0  0  0  0  0  0  0  0  0
   33.4080   28.3230   48.3490 C   0  0  1  0  0  0  0  0  0  0  0  0
   33.8390   27.0310   48.3100 O   0  0  0  0  0  0  0  0  0  0  0  0
   33.1460   26.3490   47.3140 C   0  0  0  0  0  0  0  0  0  0  0  0
   32.4950   27.3760   46.4270 C   0  0  1  0  0  0  0  0  0  0  0  0
   31.2270   28.1520   48.0460 H   0  0  0  0  0  0  0  0  0  0  0  0
   33.2600   28.7310   49.3680 H   0  0  0  0  0  0  0  0  0  0  0  0
   32.4950   25.6400   47.7970 H   0  0  0  0  0  0  0  0  0  0  0  0
   33.9480   25.8640   46.6950 H   0  0  0  0  0  0  0  0  0  0  0  0
   33.1790   27.9040   45.7700 H   0  0  0  0  0  0  0  0  0  0  0  0
   32.0270   29.6940   46.9550 O   0  0  0  0  0  0  0  0  0  0  0  0
   32.7780   29.7800   46.3120 H   0  0  0  0  0  0  0  0  0  0  0  0
   34.6730   29.3750   47.5260 S   0  0  0  0  0  0  0  0  0  0  0  0
   37.2160   29.3140   50.5660 C   0  0  0  0  0  0  0  0  0  0  0  0
   37.7120   30.6190   50.6410 C   0  0  0  0  0  0  0  0  0  0  0  0
   37.2490   31.5480   49.7240 C   0  0  0  0  0  0  0  0  0  0  0  0
   36.3320   31.1520   48.7930 N   0  0  0  0  0  0  0  0  0  0  0  0
   35.8750   29.8810   48.7520 C   0  0  0  0  0  0  0  0  0  0  0  0
   36.3090   28.9450   49.6350 N   0  0  0  0  0  0  0  0  0  0  0  0
   37.5190   28.5230   51.2370 H   0  0  0  0  0  0  0  0  0  0  0  0
   38.4380   30.8640   51.4050 H   0  0  0  0  0  0  0  0  0  0  0  0
   37.5970   32.5580   49.7390 H   0  0  0  0  0  0  0  0  0  0  0  0
   30.0400   28.6910   44.0030 Cl  0  0  0  0  0  0  0  0  0  0  0  0
   29.3910   27.9710   45.4570 C   0  0  0  0  0  0  0  0  0  0  0  0
   30.1040   27.1060   46.2530 C   0  0  0  0  0  0  0  0  0  0  0  0
   29.4680   26.5740   47.3780 C   0  0  0  0  0  0  0  0  0  0  0  0
   28.1640   26.9120   47.6730 C   0  0  0  0  0  0  0  0  0  0  0  0
   27.4380   27.7810   46.8770 C   0  0  0  0  0  0  0  0  0  0  0  0
   28.0680   28.3130   45.7570 C   0  0  0  0  0  0  0  0  0  0  0  0
   29.9480   25.8870   48.0530 H   0  0  0  0  0  0  0  0  0  0  0  0
   27.6790   26.5030   48.5360 H   0  0  0  0  0  0  0  0  0  0  0  0
   26.4170   28.0430   47.1120 H   0  0  0  0  0  0  0  0  0  0  0  0
   27.4860   30.5730   45.2050 C   0  0  0  0  0  3  0  0  0  0  0  0
   27.2900   29.2110   44.9480 C   0  0  0  0  0  0  0  0  0  0  0  0
   26.3800   28.9080   43.9620 C   0  0  0  0  0  0  0  0  0  0  0  0
   26.2330   27.8730   43.7730 H   0  0  0  0  0  0  0  0  0  0  0  0
   25.6950   29.8780   43.2600 C   0  0  0  0  0  0  0  0  0  0  0  0
   24.7830   29.7620   42.2780 N   0  0  0  0  0  0  0  0  0  0  0  0
   24.4530   28.8460   41.8930 H   0  0  0  0  0  0  0  0  0  0  0  0
   24.4420   30.9970   41.9530 N   0  0  0  0  0  0  0  0  0  0  0  0
   25.1010   31.8980   42.6900 C   0  0  0  0  0  0  0  0  0  0  0  0
   25.0450   32.9760   42.6660 H   0  0  0  0  0  0  0  0  0  0  0  0
   25.9260   31.2050   43.5510 C   0  0  0  0  0  0  0  0  0  0  0  0
   26.8270   31.5810   44.5310 C   0  0  0  0  0  3  0  0  0  0  0  0
  1 26  1  0  0  0  0
  1  6  1  0  0  0  0
  2  7  1  1  0  0  0
  2  3  1  0  0  0  0
  3  8  1  1  0  0  0
  4  3  1  0  0  0  0
  5  9  1  0  0  0  0
  5  4  1  0  0  0  0
  6 11  1  6  0  0  0
  6  5  1  0  0  0  0
  6  2  1  0  0  0  0
 10  5  1  0  0  0  0
 12  2  1  0  0  0  0
 13 12  1  0  0  0  0
 14  3  1  0  0  0  0
 14 19  1  0  0  0  0
 15 16  1  0  0  0  0
 15 21  1  0  0  0  0
 16 22  1  0  0  0  0
 17 23  1  0  0  0  0
 17 16  2  0  0  0  0
 18 17  1  0  0  0  0
 19 18  2  0  0  0  0
 19 20  1  0  0  0  0
 20 15  2  0  0  0  0
 24 25  1  0  0  0  0
 25 30  2  0  0  0  0
 25 26  1  0  0  0  0
 26 27  2  0  0  0  0
 27 28  1  0  0  0  0
 27 31  1  0  0  0  0
 28 32  1  0  0  0  0
 29 33  1  0  0  0  0
 29 28  2  0  0  0  0
 30 29  1  0  0  0  0
 35 34  1  0  0  0  0
 35 30  1  0  0  0  0
 36 35  2  0  0  0  0
 37 36  1  0  0  0  0
 38 44  2  0  0  0  0
 38 36  1  0  0  0  0
 39 38  1  0  0  0  0
 40 39  1  0  0  0  0
 41 39  1  0  0  0  0
 41 42  2  0  0  0  0
 42 44  1  0  0  0  0
 43 42  1  0  0  0  0
 44 45  1  0  0  0  0
 45 34  2  0  0  0  0
M  END
>  <minimizedAffinity>
-5.89334154

>  <minimizedRMSD>
0.495663285

$$$$
