
 OpenBabel03272506463D

 45 49  0  0  1  0  0  0  0  0999 V2000
   30.3540   27.1060   45.6730 O   0  0  0  0  0  0  0  0  0  0  0  0
   31.5210   28.4180   47.3410 C   0  0  2  0  0  0  0  0  0  0  0  0
   32.6850   27.9870   48.1820 C   0  0  1  0  0  0  0  0  0  0  0  0
   32.7380   26.6260   48.1630 O   0  0  0  0  0  0  0  0  0  0  0  0
   31.9050   26.1510   47.1550 C   0  0  0  0  0  0  0  0  0  0  0  0
   31.5870   27.3070   46.2440 C   0  0  1  0  0  0  0  0  0  0  0  0
   30.5500   28.4290   47.8250 H   0  0  0  0  0  0  0  0  0  0  0  0
   32.6340   28.4340   49.1940 H   0  0  0  0  0  0  0  0  0  0  0  0
   31.0700   25.6590   47.6260 H   0  0  0  0  0  0  0  0  0  0  0  0
   32.5530   25.4520   46.5590 H   0  0  0  0  0  0  0  0  0  0  0  0
   32.4060   27.6130   45.6010 H   0  0  0  0  0  0  0  0  0  0  0  0
   31.7740   29.6700   46.7440 O   0  0  0  0  0  0  0  0  0  0  0  0
   32.5330   29.5340   46.1190 H   0  0  0  0  0  0  0  0  0  0  0  0
   34.2120   28.6320   47.3840 S   0  0  0  0  0  0  0  0  0  0  0  0
   36.0740   29.3810   50.8020 C   0  0  0  0  0  0  0  0  0  0  0  0
   36.7540   30.5820   50.5810 C   0  0  0  0  0  0  0  0  0  0  0  0
   36.6360   31.1810   49.3380 C   0  0  0  0  0  0  0  0  0  0  0  0
   35.8630   30.5760   48.3880 N   0  0  0  0  0  0  0  0  0  0  0  0
   35.2210   29.4150   48.6380 C   0  0  0  0  0  0  0  0  0  0  0  0
   35.3160   28.8010   49.8460 N   0  0  0  0  0  0  0  0  0  0  0  0
   36.1080   28.8420   51.7380 H   0  0  0  0  0  0  0  0  0  0  0  0
   37.3490   31.0060   51.3790 H   0  0  0  0  0  0  0  0  0  0  0  0
   37.1350   32.0990   49.1190 H   0  0  0  0  0  0  0  0  0  0  0  0
   29.4580   29.5680   44.3300 Cl  0  0  0  0  0  0  0  0  0  0  0  0
   28.6700   28.6750   45.6090 C   0  0  0  0  0  0  0  0  0  0  0  0
   29.1850   27.5230   46.1520 C   0  0  0  0  0  0  0  0  0  0  0  0
   28.4500   26.8820   47.1540 C   0  0  0  0  0  0  0  0  0  0  0  0
   27.2450   27.3990   47.5780 C   0  0  0  0  0  0  0  0  0  0  0  0
   26.7170   28.5590   47.0370 C   0  0  0  0  0  0  0  0  0  0  0  0
   27.4460   29.1980   46.0400 C   0  0  0  0  0  0  0  0  0  0  0  0
   28.7760   25.9750   47.6310 H   0  0  0  0  0  0  0  0  0  0  0  0
   26.6830   26.9070   48.3460 H   0  0  0  0  0  0  0  0  0  0  0  0
   25.7720   28.9600   47.3730 H   0  0  0  0  0  0  0  0  0  0  0  0
   26.7240   31.4570   46.3990 C   0  0  0  0  0  3  0  0  0  0  0  0
   26.8730   30.3980   45.4950 C   0  0  0  0  0  0  0  0  0  0  0  0
   26.4510   30.6410   44.2080 C   0  0  0  0  0  0  0  0  0  0  0  0
   26.5650   29.8340   43.5260 H   0  0  0  0  0  0  0  0  0  0  0  0
   25.9130   31.8490   43.8190 C   0  0  0  0  0  0  0  0  0  0  0  0
   25.4560   32.2520   42.6190 N   0  0  0  0  0  0  0  0  0  0  0  0
   25.4510   31.6510   41.7630 H   0  0  0  0  0  0  0  0  0  0  0  0
   25.0480   33.5000   42.7900 N   0  0  0  0  0  0  0  0  0  0  0  0
   25.2280   33.9080   44.0490 C   0  0  0  0  0  0  0  0  0  0  0  0
   24.9980   34.8620   44.4990 H   0  0  0  0  0  0  0  0  0  0  0  0
   25.7880   32.8600   44.7490 C   0  0  0  0  0  0  0  0  0  0  0  0
   26.1920   32.6840   46.0600 C   0  0  0  0  0  3  0  0  0  0  0  0
  1 26  1  0  0  0  0
  1  6  1  0  0  0  0
  2  7  1  1  0  0  0
  2  3  1  0  0  0  0
  3  8  1  1  0  0  0
  4  3  1  0  0  0  0
  5  9  1  0  0  0  0
  5  4  1  0  0  0  0
  6 11  1  6  0  0  0
  6  5  1  0  0  0  0
  6  2  1  0  0  0  0
 10  5  1  0  0  0  0
 12  2  1  0  0  0  0
 13 12  1  0  0  0  0
 14  3  1  0  0  0  0
 14 19  1  0  0  0  0
 15 21  1  0  0  0  0
 16 15  1  0  0  0  0
 16 22  1  0  0  0  0
 17 16  2  0  0  0  0
 18 19  2  0  0  0  0
 18 17  1  0  0  0  0
 19 20  1  0  0  0  0
 20 15  2  0  0  0  0
 23 17  1  0  0  0  0
 24 25  1  0  0  0  0
 25 30  2  0  0  0  0
 25 26  1  0  0  0  0
 26 27  2  0  0  0  0
 27 28  1  0  0  0  0
 27 31  1  0  0  0  0
 28 32  1  0  0  0  0
 29 33  1  0  0  0  0
 29 28  2  0  0  0  0
 30 29  1  0  0  0  0
 35 30  1  0  0  0  0
 35 34  2  0  0  0  0
 36 35  1  0  0  0  0
 37 36  1  0  0  0  0
 38 36  2  0  0  0  0
 38 44  1  0  0  0  0
 39 41  1  0  0  0  0
 39 38  1  0  0  0  0
 40 39  1  0  0  0  0
 41 42  2  0  0  0  0
 42 43  1  0  0  0  0
 42 44  1  0  0  0  0
 44 45  2  0  0  0  0
 45 34  1  0  0  0  0
M  END
>  <minimizedAffinity>
-6.2242074

>  <minimizedRMSD>
1.20568442

$$$$
