
 OpenBabel03272506493D

 45 49  0  0  1  0  0  0  0  0999 V2000
   37.9930   26.6250   32.3460 O   0  0  0  0  0  0  0  0  0  0  0  0
   37.2930   24.8540   30.8500 C   0  0  2  0  0  0  0  0  0  0  0  0
   37.4050   23.3770   31.0780 C   0  0  1  0  0  0  0  0  0  0  0  0
   38.3190   23.1710   32.0670 O   0  0  0  0  0  0  0  0  0  0  0  0
   38.5870   24.3810   32.6990 C   0  0  0  0  0  0  0  0  0  0  0  0
   37.4950   25.3450   32.3190 C   0  0  1  0  0  0  0  0  0  0  0  0
   38.0270   25.3000   30.1870 H   0  0  0  0  0  0  0  0  0  0  0  0
   37.6170   22.8410   30.1330 H   0  0  0  0  0  0  0  0  0  0  0  0
   39.5950   24.6650   32.4480 H   0  0  0  0  0  0  0  0  0  0  0  0
   38.4460   24.1650   33.7930 H   0  0  0  0  0  0  0  0  0  0  0  0
   36.5390   25.1570   32.7990 H   0  0  0  0  0  0  0  0  0  0  0  0
   35.9920   25.1950   30.4250 O   0  0  0  0  0  0  0  0  0  0  0  0
   35.3860   24.9840   31.1820 H   0  0  0  0  0  0  0  0  0  0  0  0
   35.7700   22.7850   31.6770 S   0  0  0  0  0  0  0  0  0  0  0  0
   36.3710   18.9680   30.7890 C   0  0  0  0  0  0  0  0  0  0  0  0
   35.9030   18.2660   31.9040 C   0  0  0  0  0  0  0  0  0  0  0  0
   35.3860   18.9910   32.9640 C   0  0  0  0  0  0  0  0  0  0  0  0
   35.3550   20.3540   32.8750 N   0  0  0  0  0  0  0  0  0  0  0  0
   35.8160   20.9980   31.7810 C   0  0  0  0  0  0  0  0  0  0  0  0
   36.3300   20.3180   30.7250 N   0  0  0  0  0  0  0  0  0  0  0  0
   36.7910   18.4890   29.9170 H   0  0  0  0  0  0  0  0  0  0  0  0
   35.9580   17.1860   31.9070 H   0  0  0  0  0  0  0  0  0  0  0  0
   35.0150   18.5030   33.8380 H   0  0  0  0  0  0  0  0  0  0  0  0
   36.6450   27.5780   34.7840 Cl  0  0  0  0  0  0  0  0  0  0  0  0
   36.6250   28.2770   33.1830 C   0  0  0  0  0  0  0  0  0  0  0  0
   37.3090   27.7430   32.1170 C   0  0  0  0  0  0  0  0  0  0  0  0
   37.2360   28.4070   30.8900 C   0  0  0  0  0  0  0  0  0  0  0  0
   36.4980   29.5640   30.7610 C   0  0  0  0  0  0  0  0  0  0  0  0
   35.8060   30.1110   31.8280 C   0  0  0  0  0  0  0  0  0  0  0  0
   35.8760   29.4520   33.0510 C   0  0  0  0  0  0  0  0  0  0  0  0
   37.7430   28.0620   30.0050 H   0  0  0  0  0  0  0  0  0  0  0  0
   36.4430   30.0720   29.8190 H   0  0  0  0  0  0  0  0  0  0  0  0
   35.2280   31.0170   31.7220 H   0  0  0  0  0  0  0  0  0  0  0  0
   35.8720   30.9550   34.9200 C   0  0  0  0  0  3  0  0  0  0  0  0
   35.1500   30.0430   34.1420 C   0  0  0  0  0  0  0  0  0  0  0  0
   33.8440   29.8300   34.5190 C   0  0  0  0  0  0  0  0  0  0  0  0
   33.3010   29.1350   33.9260 H   0  0  0  0  0  0  0  0  0  0  0  0
   33.2690   30.4680   35.5970 C   0  0  0  0  0  0  0  0  0  0  0  0
   32.0250   30.3800   36.0990 N   0  0  0  0  0  0  0  0  0  0  0  0
   31.2770   29.7640   35.7030 H   0  0  0  0  0  0  0  0  0  0  0  0
   31.9940   31.2010   37.1360 N   0  0  0  0  0  0  0  0  0  0  0  0
   33.1700   31.8100   37.3150 C   0  0  0  0  0  0  0  0  0  0  0  0
   33.4630   32.5280   38.0650 H   0  0  0  0  0  0  0  0  0  0  0  0
   34.0250   31.3570   36.3310 C   0  0  0  0  0  0  0  0  0  0  0  0
   35.3440   31.6190   36.0070 C   0  0  0  0  0  3  0  0  0  0  0  0
  2  7  1  6  0  0  0
  2  3  1  0  0  0  0
  2  6  1  0  0  0  0
  3  8  1  6  0  0  0
  3 14  1  0  0  0  0
  3  4  1  0  0  0  0
  4  5  1  0  0  0  0
  5 10  1  0  0  0  0
  6  1  1  0  0  0  0
  6  5  1  0  0  0  0
  6 11  1  1  0  0  0
  9  5  1  0  0  0  0
 12  2  1  0  0  0  0
 12 13  1  0  0  0  0
 14 19  1  0  0  0  0
 15 16  1  0  0  0  0
 16 22  1  0  0  0  0
 16 17  2  0  0  0  0
 17 23  1  0  0  0  0
 18 17  1  0  0  0  0
 19 18  2  0  0  0  0
 20 15  2  0  0  0  0
 20 19  1  0  0  0  0
 21 15  1  0  0  0  0
 25 24  1  0  0  0  0
 26  1  1  0  0  0  0
 26 25  2  0  0  0  0
 27 26  1  0  0  0  0
 28 27  2  0  0  0  0
 28 29  1  0  0  0  0
 29 30  2  0  0  0  0
 30 25  1  0  0  0  0
 30 35  1  0  0  0  0
 31 27  1  0  0  0  0
 32 28  1  0  0  0  0
 33 29  1  0  0  0  0
 34 45  1  0  0  0  0
 35 36  1  0  0  0  0
 35 34  2  0  0  0  0
 36 38  2  0  0  0  0
 37 36  1  0  0  0  0
 38 39  1  0  0  0  0
 38 44  1  0  0  0  0
 39 41  1  0  0  0  0
 40 39  1  0  0  0  0
 41 42  2  0  0  0  0
 42 43  1  0  0  0  0
 44 42  1  0  0  0  0
 45 44  2  0  0  0  0
M  END
>  <minimizedAffinity>
-6.71623039

$$$$

 OpenBabel03272506493D

 45 49  0  0  1  0  0  0  0  0999 V2000
   37.9740   26.6660   32.4680 O   0  0  0  0  0  0  0  0  0  0  0  0
   37.9950   24.5290   31.3290 C   0  0  2  0  0  0  0  0  0  0  0  0
   37.8480   23.1720   31.9460 C   0  0  1  0  0  0  0  0  0  0  0  0
   38.1020   23.2840   33.2800 O   0  0  0  0  0  0  0  0  0  0  0  0
   38.1080   24.6310   33.6300 C   0  0  0  0  0  0  0  0  0  0  0  0
   37.4530   25.3960   32.5110 C   0  0  1  0  0  0  0  0  0  0  0  0
   39.0000   24.8310   31.0550 H   0  0  0  0  0  0  0  0  0  0  0  0
   38.4690   22.4220   31.4190 H   0  0  0  0  0  0  0  0  0  0  0  0
   39.1210   24.9000   33.8760 H   0  0  0  0  0  0  0  0  0  0  0  0
   37.4060   24.6970   34.5060 H   0  0  0  0  0  0  0  0  0  0  0  0
   36.3750   25.2810   32.4550 H   0  0  0  0  0  0  0  0  0  0  0  0
   37.1320   24.6700   30.2220 O   0  0  0  0  0  0  0  0  0  0  0  0
   36.2080   24.6260   30.5800 H   0  0  0  0  0  0  0  0  0  0  0  0
   36.0930   22.6580   31.7380 S   0  0  0  0  0  0  0  0  0  0  0  0
   36.4150   18.8590   30.6500 C   0  0  0  0  0  0  0  0  0  0  0  0
   35.9230   18.1340   31.7410 C   0  0  0  0  0  0  0  0  0  0  0  0
   35.4790   18.8390   32.8470 C   0  0  0  0  0  0  0  0  0  0  0  0
   35.5390   20.2030   32.8260 N   0  0  0  0  0  0  0  0  0  0  0  0
   36.0200   20.8690   31.7530 C   0  0  0  0  0  0  0  0  0  0  0  0
   36.4650   20.2090   30.6530 N   0  0  0  0  0  0  0  0  0  0  0  0
   36.7830   18.3970   29.7460 H   0  0  0  0  0  0  0  0  0  0  0  0
   35.9040   17.0540   31.6900 H   0  0  0  0  0  0  0  0  0  0  0  0
   35.0950   18.3320   33.7050 H   0  0  0  0  0  0  0  0  0  0  0  0
   36.6050   27.6850   34.8680 Cl  0  0  0  0  0  0  0  0  0  0  0  0
   36.6110   28.3490   33.2510 C   0  0  0  0  0  0  0  0  0  0  0  0
   37.3030   27.7850   32.2060 C   0  0  0  0  0  0  0  0  0  0  0  0
   37.2520   28.4220   30.9640 C   0  0  0  0  0  0  0  0  0  0  0  0
   36.5270   29.5830   30.8000 C   0  0  0  0  0  0  0  0  0  0  0  0
   35.8270   30.1600   31.8460 C   0  0  0  0  0  0  0  0  0  0  0  0
   35.8760   29.5270   33.0840 C   0  0  0  0  0  0  0  0  0  0  0  0
   37.7660   28.0530   30.0940 H   0  0  0  0  0  0  0  0  0  0  0  0
   36.4890   30.0700   29.8470 H   0  0  0  0  0  0  0  0  0  0  0  0
   35.2600   31.0690   31.7130 H   0  0  0  0  0  0  0  0  0  0  0  0
   33.7830   29.8170   34.2210 C   0  0  0  0  0  3  0  0  0  0  0  0
   35.1420   30.1490   34.1520 C   0  0  0  0  0  0  0  0  0  0  0  0
   35.5970   31.0250   35.1110 C   0  0  0  0  0  0  0  0  0  0  0  0
   36.6280   31.2750   35.0540 H   0  0  0  0  0  0  0  0  0  0  0  0
   34.7760   31.5510   36.0860 C   0  0  0  0  0  0  0  0  0  0  0  0
   35.0500   32.4080   37.0860 N   0  0  0  0  0  0  0  0  0  0  0  0
   35.9980   32.8150   37.2620 H   0  0  0  0  0  0  0  0  0  0  0  0
   33.9090   32.5870   37.7310 N   0  0  0  0  0  0  0  0  0  0  0  0
   32.9180   31.8770   37.1830 C   0  0  0  0  0  0  0  0  0  0  0  0
   31.8810   31.8110   37.4730 H   0  0  0  0  0  0  0  0  0  0  0  0
   33.4450   31.1910   36.1080 C   0  0  0  0  0  0  0  0  0  0  0  0
   32.9210   30.3150   35.1750 C   0  0  0  0  0  3  0  0  0  0  0  0
  1  6  1  0  0  0  0
  2  7  1  6  0  0  0
  2  3  1  0  0  0  0
  2  6  1  0  0  0  0
  3  8  1  6  0  0  0
  3  4  1  0  0  0  0
  4  5  1  0  0  0  0
  5  9  1  0  0  0  0
  5 10  1  0  0  0  0
  6 11  1  1  0  0  0
  6  5  1  0  0  0  0
 12 13  1  0  0  0  0
 12  2  1  0  0  0  0
 14 19  1  0  0  0  0
 14  3  1  0  0  0  0
 15 20  2  0  0  0  0
 15 16  1  0  0  0  0
 16 17  2  0  0  0  0
 17 23  1  0  0  0  0
 18 17  1  0  0  0  0
 19 18  2  0  0  0  0
 20 19  1  0  0  0  0
 21 15  1  0  0  0  0
 22 16  1  0  0  0  0
 25 24  1  0  0  0  0
 26  1  1  0  0  0  0
 26 25  2  0  0  0  0
 27 26  1  0  0  0  0
 28 27  2  0  0  0  0
 28 29  1  0  0  0  0
 29 30  2  0  0  0  0
 30 25  1  0  0  0  0
 30 35  1  0  0  0  0
 31 27  1  0  0  0  0
 32 28  1  0  0  0  0
 33 29  1  0  0  0  0
 34 45  1  0  0  0  0
 35 34  2  0  0  0  0
 35 36  1  0  0  0  0
 36 38  2  0  0  0  0
 37 36  1  0  0  0  0
 38 44  1  0  0  0  0
 38 39  1  0  0  0  0
 39 40  1  0  0  0  0
 39 41  1  0  0  0  0
 42 43  1  0  0  0  0
 42 41  2  0  0  0  0
 44 42  1  0  0  0  0
 45 44  2  0  0  0  0
M  END
>  <minimizedAffinity>
-6.6464715

$$$$

 OpenBabel03272506493D

 45 49  0  0  1  0  0  0  0  0999 V2000
   38.8180   26.8410   32.8200 O   0  0  0  0  0  0  0  0  0  0  0  0
   38.7000   24.4590   32.3980 C   0  0  2  0  0  0  0  0  0  0  0  0
   39.2860   23.3610   33.2330 C   0  0  1  0  0  0  0  0  0  0  0  0
   40.2340   23.9070   34.0450 O   0  0  0  0  0  0  0  0  0  0  0  0
   40.1080   25.2930   34.0240 C   0  0  0  0  0  0  0  0  0  0  0  0
   38.7580   25.6190   33.4440 C   0  0  1  0  0  0  0  0  0  0  0  0
   39.2410   24.7230   31.4950 H   0  0  0  0  0  0  0  0  0  0  0  0
   39.6440   22.5250   32.6010 H   0  0  0  0  0  0  0  0  0  0  0  0
   40.9680   25.6910   33.5110 H   0  0  0  0  0  0  0  0  0  0  0  0
   40.0630   25.5870   35.1070 H   0  0  0  0  0  0  0  0  0  0  0  0
   37.9220   25.4220   34.1080 H   0  0  0  0  0  0  0  0  0  0  0  0
   37.3520   24.1850   32.0890 O   0  0  0  0  0  0  0  0  0  0  0  0
   36.8590   24.1970   32.9500 H   0  0  0  0  0  0  0  0  0  0  0  0
   37.9380   22.6950   34.2940 S   0  0  0  0  0  0  0  0  0  0  0  0
   37.8510   24.0520   38.0180 C   0  0  0  0  0  0  0  0  0  0  0  0
   38.9760   23.4880   38.6280 C   0  0  0  0  0  0  0  0  0  0  0  0
   39.7870   22.6620   37.8680 C   0  0  0  0  0  0  0  0  0  0  0  0
   39.4560   22.4360   36.5620 N   0  0  0  0  0  0  0  0  0  0  0  0
   38.3610   22.9990   36.0070 C   0  0  0  0  0  0  0  0  0  0  0  0
   37.5440   23.8130   36.7230 N   0  0  0  0  0  0  0  0  0  0  0  0
   37.1620   24.7070   38.5300 H   0  0  0  0  0  0  0  0  0  0  0  0
   39.1790   23.7100   39.6670 H   0  0  0  0  0  0  0  0  0  0  0  0
   40.6570   22.2070   38.2870 H   0  0  0  0  0  0  0  0  0  0  0  0
   37.5480   28.1300   35.1420 Cl  0  0  0  0  0  0  0  0  0  0  0  0
   37.1000   28.2350   33.4560 C   0  0  0  0  0  0  0  0  0  0  0  0
   37.7820   27.5910   32.4530 C   0  0  0  0  0  0  0  0  0  0  0  0
   37.3440   27.7710   31.1380 C   0  0  0  0  0  0  0  0  0  0  0  0
   36.2570   28.5750   30.8650 C   0  0  0  0  0  0  0  0  0  0  0  0
   35.5630   29.2290   31.8690 C   0  0  0  0  0  0  0  0  0  0  0  0
   35.9970   29.0500   33.1780 C   0  0  0  0  0  0  0  0  0  0  0  0
   37.8210   27.3090   30.2920 H   0  0  0  0  0  0  0  0  0  0  0  0
   35.9230   28.7120   29.8570 H   0  0  0  0  0  0  0  0  0  0  0  0
   34.7120   29.8560   31.6500 H   0  0  0  0  0  0  0  0  0  0  0  0
   33.9220   29.3530   34.3420 C   0  0  0  0  0  3  0  0  0  0  0  0
   35.2590   29.7430   34.1990 C   0  0  0  0  0  0  0  0  0  0  0  0
   35.6920   30.7340   35.0490 C   0  0  0  0  0  0  0  0  0  0  0  0
   36.7070   31.0270   34.9350 H   0  0  0  0  0  0  0  0  0  0  0  0
   34.8700   31.3170   35.9900 C   0  0  0  0  0  0  0  0  0  0  0  0
   35.1250   32.2850   36.8880 N   0  0  0  0  0  0  0  0  0  0  0  0
   36.0540   32.7550   36.9930 H   0  0  0  0  0  0  0  0  0  0  0  0
   33.9930   32.4740   37.5460 N   0  0  0  0  0  0  0  0  0  0  0  0
   33.0260   31.6640   37.1030 C   0  0  0  0  0  0  0  0  0  0  0  0
   32.0020   31.5770   37.4310 H   0  0  0  0  0  0  0  0  0  0  0  0
   33.5610   30.8970   36.0890 C   0  0  0  0  0  0  0  0  0  0  0  0
   33.0590   29.9050   35.2670 C   0  0  0  0  0  3  0  0  0  0  0  0
  1  6  1  0  0  0  0
  2  7  1  6  0  0  0
  2  3  1  0  0  0  0
  2  6  1  0  0  0  0
  3  8  1  6  0  0  0
  3  4  1  0  0  0  0
  3 14  1  0  0  0  0
  5  4  1  0  0  0  0
  5 10  1  0  0  0  0
  6  5  1  0  0  0  0
  6 11  1  1  0  0  0
  9  5  1  0  0  0  0
 12  2  1  0  0  0  0
 12 13  1  0  0  0  0
 14 19  1  0  0  0  0
 15 21  1  0  0  0  0
 15 16  1  0  0  0  0
 16 22  1  0  0  0  0
 17 23  1  0  0  0  0
 17 16  2  0  0  0  0
 18 17  1  0  0  0  0
 19 18  2  0  0  0  0
 19 20  1  0  0  0  0
 20 15  2  0  0  0  0
 25 24  1  0  0  0  0
 26  1  1  0  0  0  0
 26 25  2  0  0  0  0
 27 26  1  0  0  0  0
 28 27  2  0  0  0  0
 28 29  1  0  0  0  0
 29 30  2  0  0  0  0
 30 25  1  0  0  0  0
 30 35  1  0  0  0  0
 31 27  1  0  0  0  0
 32 28  1  0  0  0  0
 33 29  1  0  0  0  0
 34 45  1  0  0  0  0
 35 34  2  0  0  0  0
 35 36  1  0  0  0  0
 36 38  2  0  0  0  0
 37 36  1  0  0  0  0
 38 44  1  0  0  0  0
 38 39  1  0  0  0  0
 39 40  1  0  0  0  0
 39 41  1  0  0  0  0
 42 43  1  0  0  0  0
 42 41  2  0  0  0  0
 44 42  1  0  0  0  0
 45 44  2  0  0  0  0
M  END
>  <minimizedAffinity>
-6.53551197

$$$$

 OpenBabel03272506493D

 45 49  0  0  1  0  0  0  0  0999 V2000
   39.1980   24.2610   33.1790 O   0  0  0  0  0  0  0  0  0  0  0  0
   38.0850   24.0180   35.3150 C   0  0  2  0  0  0  0  0  0  0  0  0
   38.1920   22.8660   36.2680 C   0  0  1  0  0  0  0  0  0  0  0  0
   38.6880   21.7970   35.5840 O   0  0  0  0  0  0  0  0  0  0  0  0
   39.1870   22.2320   34.3590 C   0  0  0  0  0  0  0  0  0  0  0  0
   39.3430   23.7270   34.4360 C   0  0  1  0  0  0  0  0  0  0  0  0
   37.1870   24.0620   34.7070 H   0  0  0  0  0  0  0  0  0  0  0  0
   37.2290   22.6800   36.7820 H   0  0  0  0  0  0  0  0  0  0  0  0
   38.5400   21.8480   33.5890 H   0  0  0  0  0  0  0  0  0  0  0  0
   40.2280   21.8110   34.3140 H   0  0  0  0  0  0  0  0  0  0  0  0
   40.1780   24.0640   35.0430 H   0  0  0  0  0  0  0  0  0  0  0  0
   38.2680   25.2420   35.9910 O   0  0  0  0  0  0  0  0  0  0  0  0
   39.2030   25.2410   36.3220 H   0  0  0  0  0  0  0  0  0  0  0  0
   39.4120   23.3330   37.5640 S   0  0  0  0  0  0  0  0  0  0  0  0
   42.4130   20.7600   37.2620 C   0  0  0  0  0  0  0  0  0  0  0  0
   43.3930   21.4400   36.5340 C   0  0  0  0  0  0  0  0  0  0  0  0
   43.1210   22.7340   36.1210 C   0  0  0  0  0  0  0  0  0  0  0  0
   41.9130   23.2860   36.4430 N   0  0  0  0  0  0  0  0  0  0  0  0
   40.9910   22.5970   37.1490 C   0  0  0  0  0  0  0  0  0  0  0  0
   41.2250   21.3270   37.5680 N   0  0  0  0  0  0  0  0  0  0  0  0
   42.5350   19.7490   37.6250 H   0  0  0  0  0  0  0  0  0  0  0  0
   44.3270   20.9420   36.3140 H   0  0  0  0  0  0  0  0  0  0  0  0
   43.8360   23.2960   35.5620 H   0  0  0  0  0  0  0  0  0  0  0  0
   38.9800   27.1880   32.9500 Cl  0  0  0  0  0  0  0  0  0  0  0  0
   37.8340   25.9670   32.4500 C   0  0  0  0  0  0  0  0  0  0  0  0
   38.0550   24.6190   32.6010 C   0  0  0  0  0  0  0  0  0  0  0  0
   37.0740   23.7370   32.1390 C   0  0  0  0  0  0  0  0  0  0  0  0
   35.9220   24.2140   31.5500 C   0  0  0  0  0  0  0  0  0  0  0  0
   35.6910   25.5700   31.3930 C   0  0  0  0  0  0  0  0  0  0  0  0
   36.6650   26.4500   31.8530 C   0  0  0  0  0  0  0  0  0  0  0  0
   37.1660   22.6670   32.2120 H   0  0  0  0  0  0  0  0  0  0  0  0
   35.1720   23.5370   31.1970 H   0  0  0  0  0  0  0  0  0  0  0  0
   34.7870   25.9390   30.9330 H   0  0  0  0  0  0  0  0  0  0  0  0
   35.8170   28.4970   32.7730 C   0  0  0  0  0  3  0  0  0  0  0  0
   36.4000   27.8520   31.6750 C   0  0  0  0  0  0  0  0  0  0  0  0
   36.6410   28.6390   30.5730 C   0  0  0  0  0  0  0  0  0  0  0  0
   37.0810   28.1450   29.7420 H   0  0  0  0  0  0  0  0  0  0  0  0
   36.3320   29.9820   30.5370 C   0  0  0  0  0  0  0  0  0  0  0  0
   36.4970   30.8870   29.5570 N   0  0  0  0  0  0  0  0  0  0  0  0
   36.9130   30.6670   28.6220 H   0  0  0  0  0  0  0  0  0  0  0  0
   36.0350   32.0300   30.0380 N   0  0  0  0  0  0  0  0  0  0  0  0
   35.5820   31.8880   31.2880 C   0  0  0  0  0  0  0  0  0  0  0  0
   35.1480   32.6250   31.9460 H   0  0  0  0  0  0  0  0  0  0  0  0
   35.7590   30.5680   31.6460 C   0  0  0  0  0  0  0  0  0  0  0  0
   35.4890   29.8360   32.7880 C   0  0  0  0  0  3  0  0  0  0  0  0
  1  6  1  0  0  0  0
  2  7  1  6  0  0  0
  2 12  1  0  0  0  0
  2  3  1  0  0  0  0
  3  8  1  1  0  0  0
  3 14  1  0  0  0  0
  4  3  1  0  0  0  0
  5  6  1  0  0  0  0
  5  4  1  0  0  0  0
  6 11  1  1  0  0  0
  6  2  1  0  0  0  0
  9  5  1  0  0  0  0
 10  5  1  0  0  0  0
 12 13  1  0  0  0  0
 15 20  1  0  0  0  0
 15 21  1  0  0  0  0
 16 15  2  0  0  0  0
 17 18  2  0  0  0  0
 17 16  1  0  0  0  0
 18 19  1  0  0  0  0
 19 14  1  0  0  0  0
 19 20  2  0  0  0  0
 22 16  1  0  0  0  0
 23 17  1  0  0  0  0
 25 26  1  0  0  0  0
 25 24  1  0  0  0  0
 26  1  1  0  0  0  0
 27 31  1  0  0  0  0
 27 26  2  0  0  0  0
 28 27  1  0  0  0  0
 29 28  2  0  0  0  0
 29 30  1  0  0  0  0
 30 25  2  0  0  0  0
 32 28  1  0  0  0  0
 33 29  1  0  0  0  0
 34 45  1  0  0  0  0
 35 30  1  0  0  0  0
 35 34  2  0  0  0  0
 36 35  1  0  0  0  0
 37 36  1  0  0  0  0
 38 36  2  0  0  0  0
 38 44  1  0  0  0  0
 39 41  1  0  0  0  0
 39 38  1  0  0  0  0
 40 39  1  0  0  0  0
 41 42  2  0  0  0  0
 42 44  1  0  0  0  0
 42 43  1  0  0  0  0
 44 45  2  0  0  0  0
M  END
>  <minimizedAffinity>
-6.03180361

$$$$

 OpenBabel03272506493D

 45 49  0  0  1  0  0  0  0  0999 V2000
   37.6580   26.9300   31.8620 O   0  0  0  0  0  0  0  0  0  0  0  0
   38.8240   25.0530   32.8520 C   0  0  2  0  0  0  0  0  0  0  0  0
   40.3050   24.8360   32.9130 C   0  0  1  0  0  0  0  0  0  0  0  0
   40.8890   25.6410   31.9820 O   0  0  0  0  0  0  0  0  0  0  0  0
   39.9550   26.5710   31.5340 C   0  0  0  0  0  0  0  0  0  0  0  0
   38.8140   26.5790   32.5160 C   0  0  1  0  0  0  0  0  0  0  0  0
   38.2810   24.4860   32.1030 H   0  0  0  0  0  0  0  0  0  0  0  0
   40.5570   23.7620   32.8180 H   0  0  0  0  0  0  0  0  0  0  0  0
   39.7160   26.3270   30.5120 H   0  0  0  0  0  0  0  0  0  0  0  0
   40.4700   27.5630   31.6450 H   0  0  0  0  0  0  0  0  0  0  0  0
   39.0350   27.0630   33.4620 H   0  0  0  0  0  0  0  0  0  0  0  0
   38.2390   24.8570   34.1210 O   0  0  0  0  0  0  0  0  0  0  0  0
   38.6010   25.5700   34.7080 H   0  0  0  0  0  0  0  0  0  0  0  0
   40.8750   25.3760   34.5770 S   0  0  0  0  0  0  0  0  0  0  0  0
   40.3320   22.2330   36.9310 C   0  0  0  0  0  0  0  0  0  0  0  0
   41.6100   21.6930   37.1040 C   0  0  0  0  0  0  0  0  0  0  0  0
   42.6740   22.3180   36.4750 C   0  0  0  0  0  0  0  0  0  0  0  0
   42.4300   23.4280   35.7170 N   0  0  0  0  0  0  0  0  0  0  0  0
   41.1810   23.9210   35.5730 C   0  0  0  0  0  0  0  0  0  0  0  0
   40.1150   23.3320   36.1750 N   0  0  0  0  0  0  0  0  0  0  0  0
   39.4430   21.8150   37.3810 H   0  0  0  0  0  0  0  0  0  0  0  0
   41.7310   20.8110   37.7180 H   0  0  0  0  0  0  0  0  0  0  0  0
   43.6700   21.9450   36.5750 H   0  0  0  0  0  0  0  0  0  0  0  0
   36.3010   27.6900   34.3620 Cl  0  0  0  0  0  0  0  0  0  0  0  0
   36.4660   28.6120   32.8870 C   0  0  0  0  0  0  0  0  0  0  0  0
   37.1380   28.1520   31.7800 C   0  0  0  0  0  0  0  0  0  0  0  0
   37.2240   28.9920   30.6660 C   0  0  0  0  0  0  0  0  0  0  0  0
   36.6490   30.2450   30.6870 C   0  0  0  0  0  0  0  0  0  0  0  0
   35.9710   30.7190   31.7970 C   0  0  0  0  0  0  0  0  0  0  0  0
   35.8830   29.8840   32.9070 C   0  0  0  0  0  0  0  0  0  0  0  0
   37.7340   28.7140   29.7600 H   0  0  0  0  0  0  0  0  0  0  0  0
   36.7170   30.8870   29.8330 H   0  0  0  0  0  0  0  0  0  0  0  0
   35.5220   31.7000   31.8080 H   0  0  0  0  0  0  0  0  0  0  0  0
   35.9560   31.1100   34.9670 C   0  0  0  0  0  3  0  0  0  0  0  0
   35.1750   30.4030   34.0450 C   0  0  0  0  0  0  0  0  0  0  0  0
   33.8370   30.2940   34.3470 C   0  0  0  0  0  0  0  0  0  0  0  0
   33.2500   29.7550   33.6450 H   0  0  0  0  0  0  0  0  0  0  0  0
   33.2860   30.8440   35.4840 C   0  0  0  0  0  0  0  0  0  0  0  0
   32.0170   30.8340   35.9290 N   0  0  0  0  0  0  0  0  0  0  0  0
   31.2250   30.3690   35.4260 H   0  0  0  0  0  0  0  0  0  0  0  0
   32.0280   31.5050   37.0690 N   0  0  0  0  0  0  0  0  0  0  0  0
   33.2540   31.9430   37.3690 C   0  0  0  0  0  0  0  0  0  0  0  0
   33.5880   32.5140   38.2220 H   0  0  0  0  0  0  0  0  0  0  0  0
   34.1000   31.5310   36.3600 C   0  0  0  0  0  0  0  0  0  0  0  0
   35.4540   31.6780   36.1190 C   0  0  0  0  0  3  0  0  0  0  0  0
  1  6  1  0  0  0  0
  2  7  1  6  0  0  0
  2  3  1  0  0  0  0
  2 12  1  0  0  0  0
  3  8  1  6  0  0  0
  3 14  1  0  0  0  0
  4  3  1  0  0  0  0
  5 10  1  0  0  0  0
  5  4  1  0  0  0  0
  5  6  1  0  0  0  0
  6  2  1  0  0  0  0
  6 11  1  1  0  0  0
  9  5  1  0  0  0  0
 12 13  1  0  0  0  0
 14 19  1  0  0  0  0
 15 16  1  0  0  0  0
 15 21  1  0  0  0  0
 16 22  1  0  0  0  0
 17 23  1  0  0  0  0
 17 16  2  0  0  0  0
 18 17  1  0  0  0  0
 19 18  2  0  0  0  0
 19 20  1  0  0  0  0
 20 15  2  0  0  0  0
 25 30  1  0  0  0  0
 25 24  1  0  0  0  0
 26  1  1  0  0  0  0
 26 25  2  0  0  0  0
 27 28  2  0  0  0  0
 27 26  1  0  0  0  0
 28 29  1  0  0  0  0
 29 33  1  0  0  0  0
 29 30  2  0  0  0  0
 30 35  1  0  0  0  0
 31 27  1  0  0  0  0
 32 28  1  0  0  0  0
 34 45  1  0  0  0  0
 35 36  1  0  0  0  0
 35 34  2  0  0  0  0
 36 38  2  0  0  0  0
 37 36  1  0  0  0  0
 38 39  1  0  0  0  0
 38 44  1  0  0  0  0
 39 41  1  0  0  0  0
 40 39  1  0  0  0  0
 41 42  2  0  0  0  0
 42 43  1  0  0  0  0
 44 42  1  0  0  0  0
 45 44  2  0  0  0  0
M  END
>  <minimizedAffinity>
-5.94110966

$$$$

 OpenBabel03272506493D

 45 49  0  0  1  0  0  0  0  0999 V2000
   35.7280   27.8620   31.6580 O   0  0  0  0  0  0  0  0  0  0  0  0
   35.5780   30.1610   30.9150 C   0  0  2  0  0  0  0  0  0  0  0  0
   34.8290   31.2800   31.5730 C   0  0  1  0  0  0  0  0  0  0  0  0
   33.9180   30.7330   32.4260 O   0  0  0  0  0  0  0  0  0  0  0  0
   34.2100   29.3840   32.6010 C   0  0  0  0  0  0  0  0  0  0  0  0
   35.6140   29.1540   32.1090 C   0  0  1  0  0  0  0  0  0  0  0  0
   35.1130   29.7140   30.0420 H   0  0  0  0  0  0  0  0  0  0  0  0
   34.4010   31.9720   30.8220 H   0  0  0  0  0  0  0  0  0  0  0  0
   33.4280   28.8160   32.1240 H   0  0  0  0  0  0  0  0  0  0  0  0
   34.2420   29.2450   33.7150 H   0  0  0  0  0  0  0  0  0  0  0  0
   36.3900   29.5400   32.7620 H   0  0  0  0  0  0  0  0  0  0  0  0
   36.8960   30.5580   30.6070 O   0  0  0  0  0  0  0  0  0  0  0  0
   37.3480   30.7230   31.4740 H   0  0  0  0  0  0  0  0  0  0  0  0
   36.0380   32.2450   32.5680 S   0  0  0  0  0  0  0  0  0  0  0  0
   35.3800   31.7280   36.4430 C   0  0  0  0  0  0  0  0  0  0  0  0
   34.4190   32.6880   36.7720 C   0  0  0  0  0  0  0  0  0  0  0  0
   33.9590   33.5230   35.7670 C   0  0  0  0  0  0  0  0  0  0  0  0
   34.4610   33.3720   34.5060 N   0  0  0  0  0  0  0  0  0  0  0  0
   35.3890   32.4320   34.2260 C   0  0  0  0  0  0  0  0  0  0  0  0
   35.8620   31.5980   35.1870 N   0  0  0  0  0  0  0  0  0  0  0  0
   35.7970   31.0340   37.1590 H   0  0  0  0  0  0  0  0  0  0  0  0
   34.0650   32.7520   37.7920 H   0  0  0  0  0  0  0  0  0  0  0  0
   33.2250   34.2730   35.9660 H   0  0  0  0  0  0  0  0  0  0  0  0
   34.9160   25.1670   30.7940 Cl  0  0  0  0  0  0  0  0  0  0  0  0
   36.2650   25.6270   31.8050 C   0  0  0  0  0  0  0  0  0  0  0  0
   36.5510   26.9310   32.1330 C   0  0  0  0  0  0  0  0  0  0  0  0
   37.6730   27.1770   32.9290 C   0  0  0  0  0  0  0  0  0  0  0  0
   38.4640   26.1360   33.3680 C   0  0  0  0  0  0  0  0  0  0  0  0
   38.1840   24.8190   33.0430 C   0  0  0  0  0  0  0  0  0  0  0  0
   37.0670   24.5720   32.2510 C   0  0  0  0  0  0  0  0  0  0  0  0
   37.9740   28.1650   33.2300 H   0  0  0  0  0  0  0  0  0  0  0  0
   39.3230   26.3260   33.9780 H   0  0  0  0  0  0  0  0  0  0  0  0
   38.8050   24.0080   33.3900 H   0  0  0  0  0  0  0  0  0  0  0  0
   37.7030   22.6050   31.0330 C   0  0  0  0  0  3  0  0  0  0  0  0
   36.8020   23.1970   31.9270 C   0  0  0  0  0  0  0  0  0  0  0  0
   35.7840   22.3890   32.3790 C   0  0  0  0  0  0  0  0  0  0  0  0
   35.1020   22.8430   33.0550 H   0  0  0  0  0  0  0  0  0  0  0  0
   35.6460   21.0760   31.9820 C   0  0  0  0  0  0  0  0  0  0  0  0
   34.7230   20.1570   32.3190 N   0  0  0  0  0  0  0  0  0  0  0  0
   33.9300   20.3400   32.9770 H   0  0  0  0  0  0  0  0  0  0  0  0
   35.0500   19.0590   31.6580 N   0  0  0  0  0  0  0  0  0  0  0  0
   36.1440   19.2400   30.9140 C   0  0  0  0  0  0  0  0  0  0  0  0
   36.6560   18.5450   30.2670 H   0  0  0  0  0  0  0  0  0  0  0  0
   36.5600   20.5430   31.0990 C   0  0  0  0  0  0  0  0  0  0  0  0
   37.6090   21.2970   30.6050 C   0  0  0  0  0  3  0  0  0  0  0  0
  1  6  1  0  0  0  0
  1 26  1  0  0  0  0
  2  7  1  6  0  0  0
  2  3  1  0  0  0  0
  2  6  1  0  0  0  0
  3  8  1  6  0  0  0
  3  4  1  0  0  0  0
  3 14  1  0  0  0  0
  4  5  1  0  0  0  0
  5 10  1  0  0  0  0
  6  5  1  0  0  0  0
  6 11  1  1  0  0  0
  9  5  1  0  0  0  0
 12  2  1  0  0  0  0
 12 13  1  0  0  0  0
 14 19  1  0  0  0  0
 15 16  1  0  0  0  0
 15 21  1  0  0  0  0
 16 22  1  0  0  0  0
 17 23  1  0  0  0  0
 17 16  2  0  0  0  0
 18 17  1  0  0  0  0
 19 18  2  0  0  0  0
 19 20  1  0  0  0  0
 20 15  2  0  0  0  0
 24 25  1  0  0  0  0
 25 26  2  0  0  0  0
 25 30  1  0  0  0  0
 26 27  1  0  0  0  0
 27 31  1  0  0  0  0
 27 28  2  0  0  0  0
 28 32  1  0  0  0  0
 29 28  1  0  0  0  0
 29 33  1  0  0  0  0
 30 29  2  0  0  0  0
 34 35  1  0  0  0  0
 35 30  1  0  0  0  0
 35 36  2  0  0  0  0
 36 37  1  0  0  0  0
 38 39  1  0  0  0  0
 38 36  1  0  0  0  0
 39 40  1  0  0  0  0
 41 39  1  0  0  0  0
 42 44  1  0  0  0  0
 42 41  2  0  0  0  0
 43 42  1  0  0  0  0
 44 38  2  0  0  0  0
 45 34  2  0  0  0  0
 45 44  1  0  0  0  0
M  END
>  <minimizedAffinity>
-5.88192368

$$$$

 OpenBabel03272506493D

 45 49  0  0  1  0  0  0  0  0999 V2000
   36.6390   27.4850   32.0870 O   0  0  0  0  0  0  0  0  0  0  0  0
   37.4780   25.5670   33.3040 C   0  0  2  0  0  0  0  0  0  0  0  0
   38.7210   24.7820   33.0140 C   0  0  1  0  0  0  0  0  0  0  0  0
   39.1010   25.0500   31.7340 O   0  0  0  0  0  0  0  0  0  0  0  0
   38.3930   26.1550   31.2700 C   0  0  0  0  0  0  0  0  0  0  0  0
   37.7950   26.8470   32.4660 C   0  0  1  0  0  0  0  0  0  0  0  0
   36.5390   25.1210   32.9920 H   0  0  0  0  0  0  0  0  0  0  0  0
   38.5780   23.7070   33.2380 H   0  0  0  0  0  0  0  0  0  0  0  0
   37.7080   25.8100   30.5140 H   0  0  0  0  0  0  0  0  0  0  0  0
   39.1830   26.8480   30.8710 H   0  0  0  0  0  0  0  0  0  0  0  0
   38.5080   27.3950   33.0740 H   0  0  0  0  0  0  0  0  0  0  0  0
   37.4140   25.9140   34.6690 O   0  0  0  0  0  0  0  0  0  0  0  0
   38.1760   26.5270   34.8370 H   0  0  0  0  0  0  0  0  0  0  0  0
   40.0380   25.3970   34.1430 S   0  0  0  0  0  0  0  0  0  0  0  0
   41.6480   22.8260   36.6950 C   0  0  0  0  0  0  0  0  0  0  0  0
   40.5840   22.4150   37.5050 C   0  0  0  0  0  0  0  0  0  0  0  0
   39.3300   22.9480   37.2570 C   0  0  0  0  0  0  0  0  0  0  0  0
   39.1870   23.8460   36.2370 N   0  0  0  0  0  0  0  0  0  0  0  0
   40.2390   24.2190   35.4760 C   0  0  0  0  0  0  0  0  0  0  0  0
   41.4810   23.7160   35.6920 N   0  0  0  0  0  0  0  0  0  0  0  0
   42.6590   22.4660   36.8140 H   0  0  0  0  0  0  0  0  0  0  0  0
   40.7690   21.7000   38.2950 H   0  0  0  0  0  0  0  0  0  0  0  0
   38.4850   22.6670   37.8460 H   0  0  0  0  0  0  0  0  0  0  0  0
   35.4150   28.5770   34.5320 Cl  0  0  0  0  0  0  0  0  0  0  0  0
   35.8800   29.4220   33.0750 C   0  0  0  0  0  0  0  0  0  0  0  0
   36.4580   28.8000   31.9940 C   0  0  0  0  0  0  0  0  0  0  0  0
   36.8100   29.5860   30.8940 C   0  0  0  0  0  0  0  0  0  0  0  0
   36.5800   30.9460   30.9010 C   0  0  0  0  0  0  0  0  0  0  0  0
   35.9980   31.5820   31.9840 C   0  0  0  0  0  0  0  0  0  0  0  0
   35.6470   30.8010   33.0810 C   0  0  0  0  0  0  0  0  0  0  0  0
   37.2710   29.1840   30.0090 H   0  0  0  0  0  0  0  0  0  0  0  0
   36.8500   31.5470   30.0570 H   0  0  0  0  0  0  0  0  0  0  0  0
   35.8190   32.6460   31.9850 H   0  0  0  0  0  0  0  0  0  0  0  0
   35.9360   31.9190   35.1830 C   0  0  0  0  0  3  0  0  0  0  0  0
   35.0470   31.4880   34.1920 C   0  0  0  0  0  0  0  0  0  0  0  0
   33.7180   31.7750   34.4080 C   0  0  0  0  0  0  0  0  0  0  0  0
   33.0470   31.4440   33.6540 H   0  0  0  0  0  0  0  0  0  0  0  0
   33.2770   32.4450   35.5280 C   0  0  0  0  0  0  0  0  0  0  0  0
   32.0330   32.8040   35.8950 N   0  0  0  0  0  0  0  0  0  0  0  0
   31.1770   32.6010   35.3300 H   0  0  0  0  0  0  0  0  0  0  0  0
   32.1640   33.4240   37.0560 N   0  0  0  0  0  0  0  0  0  0  0  0
   33.4410   33.4760   37.4450 C   0  0  0  0  0  0  0  0  0  0  0  0
   33.8690   33.9100   38.3350 H   0  0  0  0  0  0  0  0  0  0  0  0
   34.1950   32.8480   36.4750 C   0  0  0  0  0  0  0  0  0  0  0  0
   35.5460   32.5930   36.3210 C   0  0  0  0  0  3  0  0  0  0  0  0
  1  6  1  0  0  0  0
  2  7  1  6  0  0  0
  2 12  1  0  0  0  0
  3  8  1  1  0  0  0
  3  2  1  0  0  0  0
  3 14  1  0  0  0  0
  4  3  1  0  0  0  0
  5  4  1  0  0  0  0
  5  6  1  0  0  0  0
  6 11  1  1  0  0  0
  6  2  1  0  0  0  0
  9  5  1  0  0  0  0
 10  5  1  0  0  0  0
 12 13  1  0  0  0  0
 14 19  1  0  0  0  0
 15 21  1  0  0  0  0
 15 16  1  0  0  0  0
 16 22  1  0  0  0  0
 17 16  2  0  0  0  0
 17 23  1  0  0  0  0
 18 17  1  0  0  0  0
 19 20  1  0  0  0  0
 19 18  2  0  0  0  0
 20 15  2  0  0  0  0
 25 30  1  0  0  0  0
 25 24  1  0  0  0  0
 26  1  1  0  0  0  0
 26 25  2  0  0  0  0
 27 28  2  0  0  0  0
 27 26  1  0  0  0  0
 28 29  1  0  0  0  0
 29 33  1  0  0  0  0
 29 30  2  0  0  0  0
 30 35  1  0  0  0  0
 31 27  1  0  0  0  0
 32 28  1  0  0  0  0
 34 45  1  0  0  0  0
 35 36  1  0  0  0  0
 35 34  2  0  0  0  0
 36 38  2  0  0  0  0
 37 36  1  0  0  0  0
 38 39  1  0  0  0  0
 38 44  1  0  0  0  0
 39 41  1  0  0  0  0
 40 39  1  0  0  0  0
 41 42  2  0  0  0  0
 42 43  1  0  0  0  0
 44 42  1  0  0  0  0
 45 44  2  0  0  0  0
M  END
>  <minimizedAffinity>
-5.85478497

$$$$

 OpenBabel03272506493D

 45 49  0  0  1  0  0  0  0  0999 V2000
   37.9130   27.0510   31.8110 O   0  0  0  0  0  0  0  0  0  0  0  0
   39.4320   25.4710   32.8410 C   0  0  2  0  0  0  0  0  0  0  0  0
   40.9300   25.5080   32.8200 C   0  0  1  0  0  0  0  0  0  0  0  0
   41.3180   26.3290   31.8040 O   0  0  0  0  0  0  0  0  0  0  0  0
   40.2170   27.0550   31.3590 C   0  0  0  0  0  0  0  0  0  0  0  0
   39.1450   26.9450   32.4100 C   0  0  1  0  0  0  0  0  0  0  0  0
   38.9540   24.7690   32.1660 H   0  0  0  0  0  0  0  0  0  0  0  0
   41.3550   24.4870   32.7770 H   0  0  0  0  0  0  0  0  0  0  0  0
   39.9690   26.7000   30.3720 H   0  0  0  0  0  0  0  0  0  0  0  0
   40.5600   28.1240   31.3730 H   0  0  0  0  0  0  0  0  0  0  0  0
   39.3300   27.5280   33.3070 H   0  0  0  0  0  0  0  0  0  0  0  0
   38.9570   25.2750   34.1540 O   0  0  0  0  0  0  0  0  0  0  0  0
   39.2230   26.0790   34.6710 H   0  0  0  0  0  0  0  0  0  0  0  0
   41.4870   26.2570   34.4050 S   0  0  0  0  0  0  0  0  0  0  0  0
   44.8930   24.7660   35.7790 C   0  0  0  0  0  0  0  0  0  0  0  0
   44.5490   23.5170   36.3050 C   0  0  0  0  0  0  0  0  0  0  0  0
   43.2230   23.1210   36.2340 C   0  0  0  0  0  0  0  0  0  0  0  0
   42.3160   23.9630   35.6570 N   0  0  0  0  0  0  0  0  0  0  0  0
   42.6870   25.1630   35.1590 C   0  0  0  0  0  0  0  0  0  0  0  0
   43.9770   25.5820   35.2130 N   0  0  0  0  0  0  0  0  0  0  0  0
   45.9000   25.1590   35.7900 H   0  0  0  0  0  0  0  0  0  0  0  0
   45.3190   22.9010   36.7480 H   0  0  0  0  0  0  0  0  0  0  0  0
   42.9090   22.1760   36.6200 H   0  0  0  0  0  0  0  0  0  0  0  0
   36.6420   27.7910   34.3610 Cl  0  0  0  0  0  0  0  0  0  0  0  0
   36.5340   28.5970   32.8150 C   0  0  0  0  0  0  0  0  0  0  0  0
   37.1870   28.1590   31.6880 C   0  0  0  0  0  0  0  0  0  0  0  0
   37.0440   28.9030   30.5130 C   0  0  0  0  0  0  0  0  0  0  0  0
   36.2670   30.0420   30.4960 C   0  0  0  0  0  0  0  0  0  0  0  0
   35.6050   30.4920   31.6250 C   0  0  0  0  0  0  0  0  0  0  0  0
   35.7460   29.7530   32.7950 C   0  0  0  0  0  0  0  0  0  0  0  0
   37.5230   28.6360   29.5880 H   0  0  0  0  0  0  0  0  0  0  0  0
   36.1580   30.6110   29.5940 H   0  0  0  0  0  0  0  0  0  0  0  0
   34.9980   31.3840   31.6050 H   0  0  0  0  0  0  0  0  0  0  0  0
   35.7650   31.1510   34.7450 C   0  0  0  0  0  3  0  0  0  0  0  0
   35.0490   30.2450   33.9520 C   0  0  0  0  0  0  0  0  0  0  0  0
   33.7780   29.9430   34.3820 C   0  0  0  0  0  0  0  0  0  0  0  0
   33.2400   29.2540   33.7780 H   0  0  0  0  0  0  0  0  0  0  0  0
   33.2290   30.4910   35.5220 C   0  0  0  0  0  0  0  0  0  0  0  0
   32.0190   30.3090   36.0800 N   0  0  0  0  0  0  0  0  0  0  0  0
   31.2840   29.6770   35.6870 H   0  0  0  0  0  0  0  0  0  0  0  0
   32.0020   31.0700   37.1620 N   0  0  0  0  0  0  0  0  0  0  0  0
   33.1540   31.7310   37.3150 C   0  0  0  0  0  0  0  0  0  0  0  0
   33.4490   32.4220   38.0900 H   0  0  0  0  0  0  0  0  0  0  0  0
   33.9770   31.3780   36.2670 C   0  0  0  0  0  0  0  0  0  0  0  0
   35.2620   31.7260   35.8930 C   0  0  0  0  0  3  0  0  0  0  0  0
  1  6  1  0  0  0  0
  2  7  1  6  0  0  0
  2 12  1  0  0  0  0
  3  8  1  6  0  0  0
  3  2  1  0  0  0  0
  3 14  1  0  0  0  0
  4  3  1  0  0  0  0
  5 10  1  0  0  0  0
  5  4  1  0  0  0  0
  5  6  1  0  0  0  0
  6  2  1  0  0  0  0
  6 11  1  1  0  0  0
  9  5  1  0  0  0  0
 12 13  1  0  0  0  0
 14 19  1  0  0  0  0
 15 21  1  0  0  0  0
 15 16  1  0  0  0  0
 16 22  1  0  0  0  0
 17 16  2  0  0  0  0
 17 23  1  0  0  0  0
 18 17  1  0  0  0  0
 19 20  1  0  0  0  0
 19 18  2  0  0  0  0
 20 15  2  0  0  0  0
 25 24  1  0  0  0  0
 26  1  1  0  0  0  0
 26 25  2  0  0  0  0
 27 26  1  0  0  0  0
 28 27  2  0  0  0  0
 28 29  1  0  0  0  0
 29 30  2  0  0  0  0
 30 25  1  0  0  0  0
 30 35  1  0  0  0  0
 31 27  1  0  0  0  0
 32 28  1  0  0  0  0
 33 29  1  0  0  0  0
 34 45  1  0  0  0  0
 35 36  1  0  0  0  0
 35 34  2  0  0  0  0
 36 38  2  0  0  0  0
 37 36  1  0  0  0  0
 38 39  1  0  0  0  0
 38 44  1  0  0  0  0
 39 41  1  0  0  0  0
 40 39  1  0  0  0  0
 41 42  2  0  0  0  0
 42 43  1  0  0  0  0
 44 42  1  0  0  0  0
 45 44  2  0  0  0  0
M  END
>  <minimizedAffinity>
-5.84151411

$$$$

 OpenBabel03272506493D

 45 49  0  0  1  0  0  0  0  0999 V2000
   36.9570   27.9540   31.1450 O   0  0  0  0  0  0  0  0  0  0  0  0
   35.9020   30.1090   30.8220 C   0  0  2  0  0  0  0  0  0  0  0  0
   34.8920   30.7670   31.7120 C   0  0  1  0  0  0  0  0  0  0  0  0
   34.3520   29.8100   32.5170 O   0  0  0  0  0  0  0  0  0  0  0  0
   35.1260   28.6560   32.4360 C   0  0  0  0  0  0  0  0  0  0  0  0
   36.4460   29.0360   31.8190 C   0  0  1  0  0  0  0  0  0  0  0  0
   35.5230   29.6440   29.9180 H   0  0  0  0  0  0  0  0  0  0  0  0
   34.1540   31.3450   31.1230 H   0  0  0  0  0  0  0  0  0  0  0  0
   34.5460   27.9090   31.9220 H   0  0  0  0  0  0  0  0  0  0  0  0
   35.3460   28.3890   33.5050 H   0  0  0  0  0  0  0  0  0  0  0  0
   37.1080   29.5910   32.4750 H   0  0  0  0  0  0  0  0  0  0  0  0
   36.9410   31.0070   30.5000 O   0  0  0  0  0  0  0  0  0  0  0  0
   37.4100   31.2090   31.3510 H   0  0  0  0  0  0  0  0  0  0  0  0
   35.7920   31.9680   32.7760 S   0  0  0  0  0  0  0  0  0  0  0  0
   35.0490   31.8630   36.6690 C   0  0  0  0  0  0  0  0  0  0  0  0
   33.7010   32.2160   36.7830 C   0  0  0  0  0  0  0  0  0  0  0  0
   32.9970   32.4960   35.6230 C   0  0  0  0  0  0  0  0  0  0  0  0
   33.6480   32.4150   34.4250 N   0  0  0  0  0  0  0  0  0  0  0  0
   34.9520   32.0700   34.3540 C   0  0  0  0  0  0  0  0  0  0  0  0
   35.6700   31.7910   35.4710 N   0  0  0  0  0  0  0  0  0  0  0  0
   35.6760   31.6290   37.5160 H   0  0  0  0  0  0  0  0  0  0  0  0
   33.2490   32.2600   37.7650 H   0  0  0  0  0  0  0  0  0  0  0  0
   31.9660   32.7700   35.6560 H   0  0  0  0  0  0  0  0  0  0  0  0
   38.8120   27.0560   33.2480 Cl  0  0  0  0  0  0  0  0  0  0  0  0
   37.5840   26.1360   32.4110 C   0  0  0  0  0  0  0  0  0  0  0  0
   36.7650   26.6730   31.4470 C   0  0  0  0  0  0  0  0  0  0  0  0
   35.8020   25.8430   30.8660 C   0  0  0  0  0  0  0  0  0  0  0  0
   35.6840   24.5260   31.2550 C   0  0  0  0  0  0  0  0  0  0  0  0
   36.5040   23.9760   32.2260 C   0  0  0  0  0  0  0  0  0  0  0  0
   37.4630   24.7990   32.8060 C   0  0  0  0  0  0  0  0  0  0  0  0
   35.1170   26.1810   30.1080 H   0  0  0  0  0  0  0  0  0  0  0  0
   34.9450   23.8920   30.8090 H   0  0  0  0  0  0  0  0  0  0  0  0
   36.4080   22.9430   32.5270 H   0  0  0  0  0  0  0  0  0  0  0  0
   39.4500   23.5640   33.3340 C   0  0  0  0  0  3  0  0  0  0  0  0
   38.2990   24.2020   33.8110 C   0  0  0  0  0  0  0  0  0  0  0  0
   38.1160   24.1750   35.1750 C   0  0  0  0  0  0  0  0  0  0  0  0
   37.2400   24.6590   35.5310 H   0  0  0  0  0  0  0  0  0  0  0  0
   39.0040   23.5600   36.0310 C   0  0  0  0  0  0  0  0  0  0  0  0
   38.9800   23.4390   37.3700 N   0  0  0  0  0  0  0  0  0  0  0  0
   38.2230   23.8280   37.9790 H   0  0  0  0  0  0  0  0  0  0  0  0
   40.0690   22.7580   37.6910 N   0  0  0  0  0  0  0  0  0  0  0  0
   40.7850   22.4400   36.6090 C   0  0  0  0  0  0  0  0  0  0  0  0
   41.7130   21.8940   36.5380 H   0  0  0  0  0  0  0  0  0  0  0  0
   40.1220   22.9450   35.5090 C   0  0  0  0  0  0  0  0  0  0  0  0
   40.3690   22.9350   34.1480 C   0  0  0  0  0  3  0  0  0  0  0  0
  1 26  1  0  0  0  0
  1  6  1  0  0  0  0
  2  7  1  6  0  0  0
  2  3  1  0  0  0  0
  2  6  1  0  0  0  0
  3  8  1  6  0  0  0
  3  4  1  0  0  0  0
  3 14  1  0  0  0  0
  5  4  1  0  0  0  0
  5 10  1  0  0  0  0
  6  5  1  0  0  0  0
  6 11  1  1  0  0  0
  9  5  1  0  0  0  0
 12  2  1  0  0  0  0
 12 13  1  0  0  0  0
 14 19  1  0  0  0  0
 15 16  1  0  0  0  0
 15 21  1  0  0  0  0
 16 22  1  0  0  0  0
 17 23  1  0  0  0  0
 17 16  2  0  0  0  0
 18 17  1  0  0  0  0
 19 18  2  0  0  0  0
 19 20  1  0  0  0  0
 20 15  2  0  0  0  0
 25 30  1  0  0  0  0
 25 24  1  0  0  0  0
 26 25  2  0  0  0  0
 27 28  2  0  0  0  0
 27 26  1  0  0  0  0
 28 29  1  0  0  0  0
 29 33  1  0  0  0  0
 29 30  2  0  0  0  0
 30 35  1  0  0  0  0
 31 27  1  0  0  0  0
 32 28  1  0  0  0  0
 34 35  2  0  0  0  0
 34 45  1  0  0  0  0
 35 36  1  0  0  0  0
 36 37  1  0  0  0  0
 36 38  2  0  0  0  0
 38 39  1  0  0  0  0
 39 41  1  0  0  0  0
 39 40  1  0  0  0  0
 42 41  2  0  0  0  0
 43 42  1  0  0  0  0
 44 38  1  0  0  0  0
 44 42  1  0  0  0  0
 45 44  2  0  0  0  0
M  END
>  <minimizedAffinity>
-5.81794786

$$$$
