
 OpenBabel03262521533D

 26 28  0  0  0  0  0  0  0  0999 V2000
   34.9460   29.4380   50.3650 C   0  0  0  0  0  0  0  0  0  0  0  0
   34.3700   29.0820   51.2550 H   0  0  0  0  0  0  0  0  0  0  0  0
   34.4760   30.3830   50.0240 H   0  0  0  0  0  0  0  0  0  0  0  0
   36.6710   29.7430   50.7900 S   0  0  0  0  0  0  0  0  0  0  0  0
   37.4020   30.7490   49.5020 C   0  0  0  0  0  0  0  0  0  0  0  0
   37.5770   32.0730   49.8640 C   0  0  0  0  0  0  0  0  0  0  0  0
   38.1480   32.9270   48.9040 C   0  0  0  0  0  0  0  0  0  0  0  0
   38.4920   32.4060   47.6830 N   0  0  0  0  0  0  0  0  0  0  0  0
   38.2930   31.1120   47.4000 C   0  0  0  0  0  0  0  0  0  0  0  0
   37.7520   30.2880   48.3010 N   0  0  0  0  0  0  0  0  0  0  0  0
   37.3220   32.5270   50.8140 H   0  0  0  0  0  0  0  0  0  0  0  0
   38.3090   33.9650   49.1230 H   0  0  0  0  0  0  0  0  0  0  0  0
   38.5840   30.7590   46.4180 H   0  0  0  0  0  0  0  0  0  0  0  0
   34.7560   28.1690   49.0860 S   0  0  0  0  0  0  0  0  0  0  0  0
   32.3940   28.0930   47.6920 C   0  0  0  0  0  3  0  0  0  0  0  0
   33.5790   28.7950   47.8960 C   0  0  0  0  0  0  0  0  0  0  0  0
   33.7760   29.9580   47.1530 C   0  0  0  0  0  0  0  0  0  0  0  0
   34.6840   30.4920   47.3130 H   0  0  0  0  0  0  0  0  0  0  0  0
   32.8230   30.3900   46.2470 C   0  0  0  0  0  0  0  0  0  0  0  0
   32.8170   31.4800   45.4330 N   0  0  0  0  0  0  0  0  0  0  0  0
   33.5350   32.2310   45.3150 H   0  0  0  0  0  0  0  0  0  0  0  0
   31.6740   31.4520   44.7510 N   0  0  0  0  0  0  0  0  0  0  0  0
   30.9760   30.3670   45.1300 C   0  0  0  0  0  0  0  0  0  0  0  0
   29.9930   30.1210   44.7080 H   0  0  0  0  0  0  0  0  0  0  0  0
   31.6720   29.6510   46.0890 C   0  0  0  0  0  0  0  0  0  0  0  0
   31.4150   28.5000   46.7880 C   0  0  0  0  0  3  0  0  0  0  0  0
  1  4  1  0  0  0  0
  1  2  1  0  0  0  0
  3  1  1  0  0  0  0
  5  6  1  0  0  0  0
  5  4  1  0  0  0  0
  6 11  1  0  0  0  0
  7 12  1  0  0  0  0
  7  6  2  0  0  0  0
  8  7  1  0  0  0  0
  9  8  2  0  0  0  0
  9 10  1  0  0  0  0
 10  5  2  0  0  0  0
 13  9  1  0  0  0  0
 14  1  1  0  0  0  0
 15 16  1  0  0  0  0
 16 14  1  0  0  0  0
 17 18  1  0  0  0  0
 17 16  2  0  0  0  0
 19 17  1  0  0  0  0
 20 19  1  0  0  0  0
 21 20  1  0  0  0  0
 22 23  2  0  0  0  0
 22 20  1  0  0  0  0
 23 25  1  0  0  0  0
 24 23  1  0  0  0  0
 25 19  2  0  0  0  0
 25 26  1  0  0  0  0
 26 15  2  0  0  0  0
M  END
>  <minimizedAffinity>
-4.63144159

>  <minimizedRMSD>
3.00754356

$$$$
