
     RDKit          3D

 50 53  0  0  0  0  0  0  0  0999 V2000
   37.5991   30.4624   48.5179 Cl  0  0  0  0  0  0  0  0  0  0  0  0
   36.4455   30.3199   47.1905 C   0  0  0  0  0  0  0  0  0  0  0  0
   36.8197   30.7000   45.9508 C   0  0  0  0  0  0  0  0  0  0  0  0
   35.9294   30.5943   44.9027 C   0  0  0  0  0  0  0  0  0  0  0  0
   34.6534   30.0935   45.1501 C   0  0  0  0  0  0  0  0  0  0  0  0
   34.3428   29.7197   46.4721 C   0  0  0  0  0  0  0  0  0  0  0  0
   35.2010   29.8174   47.5022 C   0  0  0  0  0  0  0  0  0  0  0  0
   39.8277   32.8348   45.9975 C   0  0  0  0  0  0  0  0  0  0  0  0
   40.6859   32.0938   45.1085 C   0  0  0  0  0  0  0  0  0  0  0  0
   40.1928   30.9131   44.5460 C   0  0  0  0  0  0  0  0  0  0  0  0
   38.9351   30.5103   44.8544 N   0  0  0  0  0  0  0  0  0  0  0  0
   38.1502   31.2256   45.6925 C   0  0  0  0  0  0  0  0  0  0  0  0
   38.5991   32.3634   46.2466 N   0  0  0  0  0  0  0  0  0  0  0  0
   41.0620   30.2229   43.6861 N   0  0  0  0  0  0  0  0  0  0  0  0
   34.8295   29.4236   48.8294 C   0  0  0  0  0  0  0  0  0  0  0  0
   34.1745   28.1323   49.0553 C   0  0  0  0  0  0  0  0  0  0  0  0
   32.8570   28.2883   49.3945 O   0  0  0  0  0  0  0  0  0  0  0  0
   32.6619   26.6961   47.3152 O   0  0  0  0  0  0  0  0  0  0  0  0
   31.8691   27.5210   48.2985 P   0  0  2  0  0  0  0  0  0  0  0  0
   31.0305   28.7686   47.4358 O   0  0  0  0  0  0  0  0  0  0  0  0
   30.6959   26.5895   48.9966 O   0  0  0  0  0  0  0  0  0  0  0  0
   29.8474   27.3562   49.7626 C   0  0  0  0  0  0  0  0  0  0  0  0
   29.3199   26.6479   50.8422 F   0  0  0  0  0  0  0  0  0  0  0  0
   30.5039   28.4365   50.3147 F   0  0  0  0  0  0  0  0  0  0  0  0
   28.7898   27.8231   48.9903 F   0  0  0  0  0  0  0  0  0  0  0  0
   36.2528   30.9083   43.9034 H   0  0  0  0  0  0  0  0  0  0  0  0
   34.0428   30.0516   44.2780 H   0  0  0  0  0  0  0  0  0  0  0  0
   33.3706   29.3835   46.4524 H   0  0  0  0  0  0  0  0  0  0  0  0
   40.2100   33.7479   46.4322 H   0  0  0  0  0  0  0  0  0  0  0  0
   41.6659   32.5166   44.9411 H   0  0  0  0  0  0  0  0  0  0  0  0
   40.8292   30.5754   42.7301 H   0  0  0  0  0  0  0  0  0  0  0  0
   41.8155   29.4971   43.8428 H   0  0  0  0  0  0  0  0  0  0  0  0
   35.7311   29.4676   49.4819 H   0  0  0  0  0  0  0  0  0  0  0  0
   34.1751   30.2450   49.2491 H   0  0  0  0  0  0  0  0  0  0  0  0
   34.2718   27.4654   48.1670 H   0  0  0  0  0  0  0  0  0  0  0  0
   34.6406   27.5370   49.8899 H   0  0  0  0  0  0  0  0  0  0  0  0
   29.4312   27.6812   45.9739 C   0  0  0  0  0  0  0  0  0  0  0  0
   30.5809   28.4206   46.1634 C   0  0  0  0  0  0  0  0  0  0  0  0
   31.2464   28.7865   45.0090 C   0  0  0  0  0  0  0  0  0  0  0  0
   32.1651   29.3742   45.0993 H   0  0  0  0  0  0  0  0  0  0  0  0
   30.7963   28.4386   43.7479 C   0  0  0  0  0  0  0  0  0  0  0  0
   31.2095   28.6389   42.4838 N   0  0  0  0  0  0  0  0  0  0  0  0
   32.0804   29.1794   42.2279 H   0  0  0  0  0  0  0  0  0  0  0  0
   30.3864   28.0734   41.6138 N   0  0  0  0  0  0  0  0  0  0  0  0
   29.3834   27.4693   42.2794 C   0  0  0  0  0  0  0  0  0  0  0  0
   28.5268   26.9056   41.8782 H   0  0  0  0  0  0  0  0  0  0  0  0
   29.6390   27.6973   43.6163 C   0  0  0  0  0  0  0  0  0  0  0  0
   28.9239   27.2990   44.7489 C   0  0  0  0  0  0  0  0  0  0  0  0
   28.8386   27.3463   46.8175 H   0  0  0  0  0  0  0  0  0  0  0  0
   28.0187   26.7192   44.6497 H   0  0  0  0  0  0  0  0  0  0  0  0
  2  7  2  0
  2  1  1  0
  3  2  1  0
  4  5  1  0
  4  3  2  0
  5  6  2  0
  6  7  1  0
  7 15  1  0
  8 13  2  0
  9  8  1  0
 10 11  1  0
 10  9  2  0
 11 12  2  0
 12  3  1  0
 12 13  1  0
 14 10  1  0
 15 16  1  0
 16 17  1  0
 19 18  2  0
 19 21  1  1
 19 17  1  0
 20 19  1  0
 21 22  1  0
 22 24  1  0
 22 23  1  0
 25 22  1  0
  4 26  1  0
  5 27  1  0
  6 28  1  0
  8 29  1  0
  9 30  1  0
 14 31  1  0
 14 32  1  0
 15 33  1  0
 15 34  1  0
 16 35  1  0
 16 36  1  0
 37 38  2  0
 38 39  1  0
 39 40  1  0
 39 41  2  0
 41 42  1  0
 42 43  1  0
 42 44  1  0
 44 45  2  0
 45 46  1  0
 45 47  1  0
 47 48  2  0
 48 37  1  0
 47 41  1  0
 37 49  1  0
 48 50  1  0
 20 38  1  0
M  ISO  8  26  14  27  14  28  14  29  14  30  14  33   8  34   8  35   8
M  ISO  4  36   8  40  16  43   5  46  15
M  END
>  <DihAtoms>  (1) 
18,19,37,36

>  <DihDeg>  (1) 
49.34878620623498

$$$$
