
 OpenBabel03272509263D

 28 30  0  0  0  0  0  0  0  0999 V2000
   34.7130   28.6800   48.0460 C   0  0  0  0  0  0  0  0  0  0  0  0
   35.3480   28.2020   47.2420 H   0  0  0  0  0  0  0  0  0  0  0  0
   34.5230   27.8850   48.7590 H   0  0  0  0  0  0  0  0  0  0  0  0
   33.5170   29.2200   47.3130 C   0  0  0  0  0  0  0  0  0  0  0  0
   33.3330   30.2410   47.7500 H   0  0  0  0  0  0  0  0  0  0  0  0
   33.7520   29.3010   46.2220 H   0  0  0  0  0  0  0  0  0  0  0  0
   31.1730   26.4540   48.3930 C   0  0  0  0  0  0  0  0  0  0  0  0
   32.3310   27.2210   48.2900 C   0  0  0  0  0  0  0  0  0  0  0  0
   32.3510   28.3410   47.4940 C   0  0  0  0  0  0  0  0  0  0  0  0
   31.1900   28.6280   46.8380 N   0  0  0  0  0  0  0  0  0  0  0  0
   30.0840   27.8890   46.9410 C   0  0  0  0  0  0  0  0  0  0  0  0
   30.0640   26.7980   47.7160 N   0  0  0  0  0  0  0  0  0  0  0  0
   31.2380   25.5830   49.0420 H   0  0  0  0  0  0  0  0  0  0  0  0
   33.2050   26.9480   48.8230 H   0  0  0  0  0  0  0  0  0  0  0  0
   29.1690   28.1290   46.4160 H   0  0  0  0  0  0  0  0  0  0  0  0
   35.7380   30.0390   48.6790 S   0  0  0  0  0  0  0  0  0  0  0  0
   36.5320   30.5120   46.0000 C   0  0  0  0  0  3  0  0  0  0  0  0
   36.6920   30.7540   47.3490 C   0  0  0  0  0  0  0  0  0  0  0  0
   37.6650   31.6280   47.8050 C   0  0  0  0  0  0  0  0  0  0  0  0
   37.8650   31.8810   48.8470 H   0  0  0  0  0  0  0  0  0  0  0  0
   38.5080   32.2820   46.9130 C   0  0  0  0  0  0  0  0  0  0  0  0
   39.5340   33.1740   47.0450 N   0  0  0  0  0  0  0  0  0  0  0  0
   39.8680   33.5350   47.9770 H   0  0  0  0  0  0  0  0  0  0  0  0
   39.9880   33.4700   45.8470 N   0  0  0  0  0  0  0  0  0  0  0  0
   39.2900   32.7960   44.9070 C   0  0  0  0  0  0  0  0  0  0  0  0
   39.4640   32.8610   43.8400 H   0  0  0  0  0  0  0  0  0  0  0  0
   38.3430   32.0320   45.5500 C   0  0  0  0  0  0  0  0  0  0  0  0
   37.3770   31.1690   45.1270 C   0  0  0  0  0  3  0  0  0  0  0  0
  1 16  1  0  0  0  0
  1  3  1  0  0  0  0
  2  1  1  0  0  0  0
  4  9  1  0  0  0  0
  4  5  1  0  0  0  0
  4  1  1  0  0  0  0
  6  4  1  0  0  0  0
  7 13  1  0  0  0  0
  8  7  1  0  0  0  0
  8 14  1  0  0  0  0
  9  8  2  0  0  0  0
 10 11  2  0  0  0  0
 10  9  1  0  0  0  0
 11 12  1  0  0  0  0
 12  7  2  0  0  0  0
 15 11  1  0  0  0  0
 17 18  1  0  0  0  0
 18 19  2  0  0  0  0
 18 16  1  0  0  0  0
 19 20  1  0  0  0  0
 21 22  1  0  0  0  0
 21 19  1  0  0  0  0
 22 23  1  0  0  0  0
 24 22  1  0  0  0  0
 25 27  1  0  0  0  0
 25 24  2  0  0  0  0
 26 25  1  0  0  0  0
 27 21  2  0  0  0  0
 28 27  1  0  0  0  0
 28 17  2  0  0  0  0
M  END
>  <minimizedAffinity>
-4.36133766

>  <minimizedRMSD>
6.18318272

$$$$
