
 OpenBabel03262521533D

 26 28  0  0  0  0  0  0  0  0999 V2000
   34.5470   29.6030   49.0790 C   0  0  0  0  0  0  0  0  0  0  0  0
   33.8420   29.1040   49.7890 H   0  0  0  0  0  0  0  0  0  0  0  0
   34.3440   30.6930   49.1230 H   0  0  0  0  0  0  0  0  0  0  0  0
   36.2610   29.2890   49.5400 S   0  0  0  0  0  0  0  0  0  0  0  0
   37.2610   30.6580   48.9660 C   0  0  0  0  0  0  0  0  0  0  0  0
   37.1730   31.7840   49.7660 C   0  0  0  0  0  0  0  0  0  0  0  0
   37.9320   32.9020   49.3790 C   0  0  0  0  0  0  0  0  0  0  0  0
   38.7050   32.8130   48.2500 N   0  0  0  0  0  0  0  0  0  0  0  0
   38.7430   31.6890   47.5220 C   0  0  0  0  0  0  0  0  0  0  0  0
   38.0270   30.6190   47.8750 N   0  0  0  0  0  0  0  0  0  0  0  0
   36.5790   31.8990   50.6640 H   0  0  0  0  0  0  0  0  0  0  0  0
   37.9070   33.8060   49.9570 H   0  0  0  0  0  0  0  0  0  0  0  0
   39.3710   31.6800   46.6390 H   0  0  0  0  0  0  0  0  0  0  0  0
   34.1430   28.9760   47.4270 S   0  0  0  0  0  0  0  0  0  0  0  0
   32.1770   27.3650   48.4580 C   0  0  0  0  0  3  0  0  0  0  0  0
   32.4780   28.3320   47.5020 C   0  0  0  0  0  0  0  0  0  0  0  0
   31.4500   28.7430   46.6560 C   0  0  0  0  0  0  0  0  0  0  0  0
   31.6850   29.4840   45.9260 H   0  0  0  0  0  0  0  0  0  0  0  0
   30.1800   28.2040   46.7670 C   0  0  0  0  0  0  0  0  0  0  0  0
   29.0530   28.4610   46.0520 N   0  0  0  0  0  0  0  0  0  0  0  0
   28.9000   29.1250   45.2590 H   0  0  0  0  0  0  0  0  0  0  0  0
   28.0910   27.6840   46.5450 N   0  0  0  0  0  0  0  0  0  0  0  0
   28.6060   26.9520   47.5500 C   0  0  0  0  0  0  0  0  0  0  0  0
   28.0080   26.2300   48.1200 H   0  0  0  0  0  0  0  0  0  0  0  0
   29.9450   27.2500   47.7320 C   0  0  0  0  0  0  0  0  0  0  0  0
   30.9090   26.8020   48.5960 C   0  0  0  0  0  3  0  0  0  0  0  0
  1  3  1  0  0  0  0
  1  4  1  0  0  0  0
  1  2  1  0  0  0  0
  5  4  1  0  0  0  0
  5  6  1  0  0  0  0
  6 11  1  0  0  0  0
  7  6  2  0  0  0  0
  7 12  1  0  0  0  0
  8  7  1  0  0  0  0
  9 10  1  0  0  0  0
  9  8  2  0  0  0  0
 10  5  2  0  0  0  0
 13  9  1  0  0  0  0
 14 16  1  0  0  0  0
 14  1  1  0  0  0  0
 15 26  1  0  0  0  0
 16 15  2  0  0  0  0
 17 19  2  0  0  0  0
 17 16  1  0  0  0  0
 18 17  1  0  0  0  0
 19 25  1  0  0  0  0
 20 22  1  0  0  0  0
 20 19  1  0  0  0  0
 21 20  1  0  0  0  0
 22 23  2  0  0  0  0
 23 25  1  0  0  0  0
 23 24  1  0  0  0  0
 25 26  2  0  0  0  0
M  END
>  <minimizedAffinity>
-4.49090242

>  <minimizedRMSD>
2.17386198

$$$$
