
 OpenBabel03272507423D

 44 48  0  0  0  0  0  0  0  0999 V2000
   36.6530   31.1730   50.0950 C   0  0  0  0  0  0  0  0  0  0  0  0
   35.5790   30.3100   49.8990 C   0  0  0  0  0  0  0  0  0  0  0  0
   35.3750   29.1990   50.6870 C   0  0  0  0  0  0  0  0  0  0  0  0
   36.2800   28.9780   51.6800 N   0  0  0  0  0  0  0  0  0  0  0  0
   37.3340   29.8270   51.8690 C   0  0  0  0  0  0  0  0  0  0  0  0
   37.4970   30.8860   51.0900 N   0  0  0  0  0  0  0  0  0  0  0  0
   34.5850   28.4980   50.6020 H   0  0  0  0  0  0  0  0  0  0  0  0
   38.0350   29.6180   52.6700 H   0  0  0  0  0  0  0  0  0  0  0  0
   34.2240   29.3590   48.0690 C   0  0  0  0  0  0  0  0  0  0  0  0
   34.7290   28.1830   47.9240 O   0  0  0  0  0  0  0  0  0  0  0  0
   34.5920   30.4400   48.9010 N   0  0  0  0  0  0  0  0  0  0  0  0
   34.1960   31.3960   48.8640 H   0  0  0  0  0  0  0  0  0  0  0  0
   32.9430   30.5900   46.3210 C   0  0  0  0  0  3  0  0  0  0  0  0
   33.0710   29.5210   47.1830 C   0  0  0  0  0  0  0  0  0  0  0  0
   32.0150   28.6380   47.1210 C   0  0  0  0  0  0  0  0  0  0  0  0
   31.9990   27.7600   47.7490 H   0  0  0  0  0  0  0  0  0  0  0  0
   30.9140   28.7540   46.3020 C   0  0  0  0  0  0  0  0  0  0  0  0
   29.8050   28.0200   46.0950 N   0  0  0  0  0  0  0  0  0  0  0  0
   29.5500   27.1360   46.5690 H   0  0  0  0  0  0  0  0  0  0  0  0
   29.0740   28.6180   45.1740 N   0  0  0  0  0  0  0  0  0  0  0  0
   29.6650   29.7450   44.7480 C   0  0  0  0  0  0  0  0  0  0  0  0
   29.3470   30.4600   44.0160 H   0  0  0  0  0  0  0  0  0  0  0  0
   30.8400   29.8430   45.4610 C   0  0  0  0  0  0  0  0  0  0  0  0
   31.8560   30.7760   45.4600 C   0  0  0  0  0  3  0  0  0  0  0  0
   36.6760   32.2020   49.2210 O   0  0  0  0  0  0  0  0  0  0  0  0
   38.1750   32.1810   47.2610 C   0  0  0  0  0  0  0  0  0  0  0  0
   37.7860   32.6170   48.5200 C   0  0  0  0  0  0  0  0  0  0  0  0
   38.5470   33.5560   49.1870 C   0  0  0  0  0  0  0  0  0  0  0  0
   39.6970   34.0650   48.5990 C   0  0  0  0  0  0  0  0  0  0  0  0
   40.0770   33.6240   47.3440 C   0  0  0  0  0  0  0  0  0  0  0  0
   39.3020   32.6920   46.7080 C   0  0  0  0  0  0  0  0  0  0  0  0
   38.3060   33.9400   50.1670 H   0  0  0  0  0  0  0  0  0  0  0  0
   40.3080   34.8050   49.1110 H   0  0  0  0  0  0  0  0  0  0  0  0
   40.9680   33.9940   46.8450 H   0  0  0  0  0  0  0  0  0  0  0  0
   39.7200   32.2280   45.3620 C   0  0  0  0  0  0  0  0  0  0  0  0
   40.5770   31.2060   45.0130 C   0  0  0  0  0  0  0  0  0  0  0  0
   40.6390   31.1750   43.6230 C   0  0  0  0  0  0  0  0  0  0  0  0
   39.8030   32.1970   43.2060 C   0  0  0  0  0  0  0  0  0  0  0  0
   39.2710   32.8060   44.2540 O   0  0  0  0  0  0  0  0  0  0  0  0
   41.0820   30.5720   45.7450 H   0  0  0  0  0  0  0  0  0  0  0  0
   41.2200   30.4930   43.0440 H   0  0  0  0  0  0  0  0  0  0  0  0
   39.5990   32.4770   42.1820 H   0  0  0  0  0  0  0  0  0  0  0  0
   36.6770   30.4300   46.1060 N   0  0  0  0  0  0  0  0  0  0  0  0
   37.3410   31.2080   46.6310 C   0  0  0  0  0  0  0  0  0  0  0  0
  1  6  1  0  0  0  0
  2  1  2  0  0  0  0
  2  3  1  0  0  0  0
  3  4  2  0  0  0  0
  4  5  1  0  0  0  0
  5  8  1  0  0  0  0
  6  5  2  0  0  0  0
  7  3  1  0  0  0  0
  9 11  1  0  0  0  0
 10  9  2  0  0  0  0
 11  2  1  0  0  0  0
 12 11  1  0  0  0  0
 13 14  1  0  0  0  0
 14  9  1  0  0  0  0
 15 14  2  0  0  0  0
 15 16  1  0  0  0  0
 17 15  1  0  0  0  0
 18 17  1  0  0  0  0
 18 19  1  0  0  0  0
 20 18  1  0  0  0  0
 21 20  2  0  0  0  0
 21 23  1  0  0  0  0
 22 21  1  0  0  0  0
 23 17  2  0  0  0  0
 24 23  1  0  0  0  0
 24 13  2  0  0  0  0
 25  1  1  0  0  0  0
 26 27  1  0  0  0  0
 27 28  2  0  0  0  0
 27 25  1  0  0  0  0
 28 32  1  0  0  0  0
 29 33  1  0  0  0  0
 29 28  1  0  0  0  0
 30 29  2  0  0  0  0
 31 26  2  0  0  0  0
 31 30  1  0  0  0  0
 34 30  1  0  0  0  0
 35 31  1  0  0  0  0
 36 35  2  0  0  0  0
 36 40  1  0  0  0  0
 37 36  1  0  0  0  0
 38 37  2  0  0  0  0
 38 39  1  0  0  0  0
 39 35  1  0  0  0  0
 41 37  1  0  0  0  0
 42 38  1  0  0  0  0
 43 44  3  0  0  0  0
 44 26  1  0  0  0  0
M  END
>  <minimizedAffinity>
-6.28833103

>  <minimizedRMSD>
0.87182188

$$$$
