
 OpenBabel03272507423D

 44 48  0  0  0  0  0  0  0  0999 V2000
   36.6540   31.1740   50.0960 C   0  0  0  0  0  0  0  0  0  0  0  0
   35.5800   30.3110   49.8980 C   0  0  0  0  0  0  0  0  0  0  0  0
   35.3770   29.2000   50.6870 C   0  0  0  0  0  0  0  0  0  0  0  0
   36.2820   28.9780   51.6790 N   0  0  0  0  0  0  0  0  0  0  0  0
   37.3350   29.8280   51.8690 C   0  0  0  0  0  0  0  0  0  0  0  0
   37.4980   30.8880   51.0900 N   0  0  0  0  0  0  0  0  0  0  0  0
   34.5870   28.4980   50.6020 H   0  0  0  0  0  0  0  0  0  0  0  0
   38.0360   29.6190   52.6700 H   0  0  0  0  0  0  0  0  0  0  0  0
   34.2250   29.3590   48.0700 C   0  0  0  0  0  0  0  0  0  0  0  0
   34.7290   28.1820   47.9260 O   0  0  0  0  0  0  0  0  0  0  0  0
   34.5940   30.4410   48.9010 N   0  0  0  0  0  0  0  0  0  0  0  0
   34.1990   31.3970   48.8630 H   0  0  0  0  0  0  0  0  0  0  0  0
   32.9430   30.5900   46.3220 C   0  0  0  0  0  3  0  0  0  0  0  0
   33.0720   29.5210   47.1840 C   0  0  0  0  0  0  0  0  0  0  0  0
   32.0170   28.6380   47.1220 C   0  0  0  0  0  0  0  0  0  0  0  0
   32.0010   27.7600   47.7490 H   0  0  0  0  0  0  0  0  0  0  0  0
   30.9150   28.7540   46.3020 C   0  0  0  0  0  0  0  0  0  0  0  0
   29.8060   28.0220   46.0950 N   0  0  0  0  0  0  0  0  0  0  0  0
   29.5510   27.1360   46.5680 H   0  0  0  0  0  0  0  0  0  0  0  0
   29.0760   28.6180   45.1730 N   0  0  0  0  0  0  0  0  0  0  0  0
   29.6660   29.7460   44.7480 C   0  0  0  0  0  0  0  0  0  0  0  0
   29.3490   30.4600   44.0160 H   0  0  0  0  0  0  0  0  0  0  0  0
   30.8430   29.8440   45.4610 C   0  0  0  0  0  0  0  0  0  0  0  0
   31.8570   30.7770   45.4600 C   0  0  0  0  0  3  0  0  0  0  0  0
   36.6770   32.2030   49.2210 O   0  0  0  0  0  0  0  0  0  0  0  0
   38.1760   32.1830   47.2610 C   0  0  0  0  0  0  0  0  0  0  0  0
   37.7870   32.6180   48.5200 C   0  0  0  0  0  0  0  0  0  0  0  0
   38.5470   33.5580   49.1870 C   0  0  0  0  0  0  0  0  0  0  0  0
   39.6980   34.0670   48.5990 C   0  0  0  0  0  0  0  0  0  0  0  0
   40.0770   33.6260   47.3430 C   0  0  0  0  0  0  0  0  0  0  0  0
   39.3020   32.6930   46.7080 C   0  0  0  0  0  0  0  0  0  0  0  0
   38.3060   33.9420   50.1670 H   0  0  0  0  0  0  0  0  0  0  0  0
   40.3080   34.8080   49.1100 H   0  0  0  0  0  0  0  0  0  0  0  0
   40.9680   33.9960   46.8440 H   0  0  0  0  0  0  0  0  0  0  0  0
   39.7210   32.2290   45.3620 C   0  0  0  0  0  0  0  0  0  0  0  0
   40.5750   31.2050   45.0130 C   0  0  0  0  0  0  0  0  0  0  0  0
   40.6380   31.1760   43.6230 C   0  0  0  0  0  0  0  0  0  0  0  0
   39.8040   32.1990   43.2060 C   0  0  0  0  0  0  0  0  0  0  0  0
   39.2730   32.8090   44.2540 O   0  0  0  0  0  0  0  0  0  0  0  0
   41.0790   30.5700   45.7450 H   0  0  0  0  0  0  0  0  0  0  0  0
   41.2180   30.4920   43.0440 H   0  0  0  0  0  0  0  0  0  0  0  0
   39.6020   32.4800   42.1820 H   0  0  0  0  0  0  0  0  0  0  0  0
   36.6780   30.4310   46.1070 N   0  0  0  0  0  0  0  0  0  0  0  0
   37.3420   31.2090   46.6320 C   0  0  0  0  0  0  0  0  0  0  0  0
  1  6  1  0  0  0  0
  2  1  2  0  0  0  0
  2  3  1  0  0  0  0
  3  4  2  0  0  0  0
  4  5  1  0  0  0  0
  5  8  1  0  0  0  0
  6  5  2  0  0  0  0
  7  3  1  0  0  0  0
  9 11  1  0  0  0  0
 10  9  2  0  0  0  0
 11  2  1  0  0  0  0
 12 11  1  0  0  0  0
 13 14  1  0  0  0  0
 14  9  1  0  0  0  0
 15 14  2  0  0  0  0
 15 16  1  0  0  0  0
 17 15  1  0  0  0  0
 18 17  1  0  0  0  0
 18 19  1  0  0  0  0
 20 18  1  0  0  0  0
 21 20  2  0  0  0  0
 21 23  1  0  0  0  0
 22 21  1  0  0  0  0
 23 17  2  0  0  0  0
 24 23  1  0  0  0  0
 24 13  2  0  0  0  0
 25  1  1  0  0  0  0
 26 27  1  0  0  0  0
 27 28  2  0  0  0  0
 27 25  1  0  0  0  0
 28 32  1  0  0  0  0
 29 33  1  0  0  0  0
 29 28  1  0  0  0  0
 30 29  2  0  0  0  0
 31 26  2  0  0  0  0
 31 30  1  0  0  0  0
 34 30  1  0  0  0  0
 35 31  1  0  0  0  0
 36 35  2  0  0  0  0
 36 40  1  0  0  0  0
 37 36  1  0  0  0  0
 38 37  2  0  0  0  0
 38 39  1  0  0  0  0
 39 35  1  0  0  0  0
 41 37  1  0  0  0  0
 42 38  1  0  0  0  0
 43 44  3  0  0  0  0
 44 26  1  0  0  0  0
M  END
>  <minimizedAffinity>
-6.28830004

>  <minimizedRMSD>
0.618786156

$$$$
