
 OpenBabel03272504413D

 48 51  0  0  0  0  0  0  0  0999 V2000
   34.6920   29.3540   48.7370 C   0  0  0  0  0  0  0  0  0  0  0  0
   35.5860   29.3770   49.4000 H   0  0  0  0  0  0  0  0  0  0  0  0
   34.0440   30.1790   49.1590 H   0  0  0  0  0  0  0  0  0  0  0  0
   37.4590   30.4130   48.4810 Cl  0  0  0  0  0  0  0  0  0  0  0  0
   36.3310   30.2700   47.1330 C   0  0  0  0  0  0  0  0  0  0  0  0
   36.7240   30.6590   45.9020 C   0  0  0  0  0  0  0  0  0  0  0  0
   35.8530   30.5520   44.8370 C   0  0  0  0  0  0  0  0  0  0  0  0
   34.5770   30.0410   45.0590 C   0  0  0  0  0  0  0  0  0  0  0  0
   34.2450   29.6590   46.3730 C   0  0  0  0  0  0  0  0  0  0  0  0
   35.0840   29.7560   47.4190 C   0  0  0  0  0  0  0  0  0  0  0  0
   36.1930   30.8740   43.8450 H   0  0  0  0  0  0  0  0  0  0  0  0
   33.9830   30.0000   44.1760 H   0  0  0  0  0  0  0  0  0  0  0  0
   33.2760   29.3160   46.3340 H   0  0  0  0  0  0  0  0  0  0  0  0
   39.7160   32.8150   46.0150 C   0  0  0  0  0  0  0  0  0  0  0  0
   40.5950   32.0850   45.1360 C   0  0  0  0  0  0  0  0  0  0  0  0
   40.1200   30.9040   44.5590 C   0  0  0  0  0  0  0  0  0  0  0  0
   38.8600   30.4900   44.8420 N   0  0  0  0  0  0  0  0  0  0  0  0
   38.0550   31.1960   45.6710 C   0  0  0  0  0  0  0  0  0  0  0  0
   38.4860   32.3330   46.2390 N   0  0  0  0  0  0  0  0  0  0  0  0
   40.0840   33.7280   46.4610 H   0  0  0  0  0  0  0  0  0  0  0  0
   41.5750   32.5160   44.9890 H   0  0  0  0  0  0  0  0  0  0  0  0
   41.0090   30.2250   43.7100 N   0  0  0  0  0  0  0  0  0  0  0  0
   40.7910   30.5810   42.7520 H   0  0  0  0  0  0  0  0  0  0  0  0
   41.7650   29.5030   43.8770 H   0  0  0  0  0  0  0  0  0  0  0  0
   34.0160   28.0690   48.9400 C   0  0  0  0  0  0  0  0  0  0  0  0
   34.0940   27.4200   48.0370 H   0  0  0  0  0  0  0  0  0  0  0  0
   34.4780   27.4480   49.7580 H   0  0  0  0  0  0  0  0  0  0  0  0
   32.7030   28.2410   49.2940 O   0  0  0  0  0  0  0  0  0  0  0  0
   32.4750   26.5380   47.3080 O   0  0  0  0  0  0  0  0  0  0  0  0
   31.6980   27.4190   48.2540 P   0  0  2  0  0  0  0  0  0  0  0  0
   30.8530   28.6220   47.3350 O   0  0  0  0  0  0  0  0  0  0  0  0
   29.1890   27.4290   46.0380 C   0  0  0  0  0  3  0  0  0  0  0  0
   30.3370   28.1910   46.1140 C   0  0  0  0  0  0  0  0  0  0  0  0
   30.9300   28.4900   44.9020 C   0  0  0  0  0  0  0  0  0  0  0  0
   31.8440   29.0910   44.9030 H   0  0  0  0  0  0  0  0  0  0  0  0
   30.4130   28.0600   43.6940 C   0  0  0  0  0  0  0  0  0  0  0  0
   30.7500   28.1840   42.3980 N   0  0  0  0  0  0  0  0  0  0  0  0
   31.5980   28.7170   42.0590 H   0  0  0  0  0  0  0  0  0  0  0  0
   29.8860   27.5580   41.6140 N   0  0  0  0  0  0  0  0  0  0  0  0
   28.9320   26.9860   42.3730 C   0  0  0  0  0  0  0  0  0  0  0  0
   28.0610   26.3900   42.0570 H   0  0  0  0  0  0  0  0  0  0  0  0
   29.2610   27.3000   43.6760 C   0  0  0  0  0  0  0  0  0  0  0  0
   28.6170   26.9660   44.8710 C   0  0  0  0  0  3  0  0  0  0  0  0
   30.5310   26.5340   49.0170 O   0  0  0  0  0  0  0  0  0  0  0  0
   29.7590   27.3310   49.8320 C   0  0  0  0  0  0  0  0  0  0  0  0
   29.3110   26.6550   50.9660 F   0  0  0  0  0  0  0  0  0  0  0  0
   30.4750   28.4110   50.3040 F   0  0  0  0  0  0  0  0  0  0  0  0
   28.6490   27.7990   49.1370 F   0  0  0  0  0  0  0  0  0  0  0  0
  1 25  1  0  0  0  0
  1  3  1  0  0  0  0
  1  2  1  0  0  0  0
  5 10  1  0  0  0  0
  5  4  1  0  0  0  0
  6  5  2  0  0  0  0
  7  8  2  0  0  0  0
  7  6  1  0  0  0  0
  8  9  1  0  0  0  0
  9 10  2  0  0  0  0
 10  1  1  0  0  0  0
 11  7  1  0  0  0  0
 12  8  1  0  0  0  0
 13  9  1  0  0  0  0
 14 19  1  0  0  0  0
 14 20  1  0  0  0  0
 15 14  2  0  0  0  0
 16 17  2  0  0  0  0
 16 15  1  0  0  0  0
 17 18  1  0  0  0  0
 18  6  1  0  0  0  0
 18 19  2  0  0  0  0
 21 15  1  0  0  0  0
 22 24  1  0  0  0  0
 22 16  1  0  0  0  0
 23 22  1  0  0  0  0
 25 28  1  0  0  0  0
 25 27  1  0  0  0  0
 26 25  1  0  0  0  0
 30 29  2  6  0  0  0
 30 44  1  0  0  0  0
 30 28  1  0  0  0  0
 31 30  1  0  0  0  0
 32 33  1  0  0  0  0
 33 31  1  0  0  0  0
 34 35  1  0  0  0  0
 34 33  2  0  0  0  0
 36 34  1  0  0  0  0
 37 36  1  0  0  0  0
 38 37  1  0  0  0  0
 39 40  2  0  0  0  0
 39 37  1  0  0  0  0
 40 42  1  0  0  0  0
 41 40  1  0  0  0  0
 42 36  2  0  0  0  0
 42 43  1  0  0  0  0
 43 32  2  0  0  0  0
 44 45  1  0  0  0  0
 45 47  1  0  0  0  0
 45 46  1  0  0  0  0
 48 45  1  0  0  0  0
M  END
>  <minimizedAffinity>
-5.71508646

>  <minimizedRMSD>
0.399295241

$$$$
