
 OpenBabel03272504413D

 48 51  0  0  0  0  0  0  0  0999 V2000
   34.7060   29.3610   48.7600 C   0  0  0  0  0  0  0  0  0  0  0  0
   35.6040   29.3800   49.4190 H   0  0  0  0  0  0  0  0  0  0  0  0
   34.0660   30.1920   49.1840 H   0  0  0  0  0  0  0  0  0  0  0  0
   37.4700   30.4230   48.4920 Cl  0  0  0  0  0  0  0  0  0  0  0  0
   36.3390   30.2730   47.1480 C   0  0  0  0  0  0  0  0  0  0  0  0
   36.7280   30.6580   45.9140 C   0  0  0  0  0  0  0  0  0  0  0  0
   35.8540   30.5450   44.8520 C   0  0  0  0  0  0  0  0  0  0  0  0
   34.5780   30.0330   45.0800 C   0  0  0  0  0  0  0  0  0  0  0  0
   34.2520   29.6560   46.3960 C   0  0  0  0  0  0  0  0  0  0  0  0
   35.0930   29.7590   47.4390 C   0  0  0  0  0  0  0  0  0  0  0  0
   36.1900   30.8630   43.8580 H   0  0  0  0  0  0  0  0  0  0  0  0
   33.9820   29.9880   44.1990 H   0  0  0  0  0  0  0  0  0  0  0  0
   33.2830   29.3120   46.3620 H   0  0  0  0  0  0  0  0  0  0  0  0
   39.7170   32.8170   46.0090 C   0  0  0  0  0  0  0  0  0  0  0  0
   40.5940   32.0860   45.1300 C   0  0  0  0  0  0  0  0  0  0  0  0
   40.1190   30.9020   44.5570 C   0  0  0  0  0  0  0  0  0  0  0  0
   38.8600   30.4880   44.8460 N   0  0  0  0  0  0  0  0  0  0  0  0
   38.0570   31.1950   45.6760 C   0  0  0  0  0  0  0  0  0  0  0  0
   38.4890   32.3340   46.2400 N   0  0  0  0  0  0  0  0  0  0  0  0
   40.0860   33.7320   46.4510 H   0  0  0  0  0  0  0  0  0  0  0  0
   41.5730   32.5170   44.9780 H   0  0  0  0  0  0  0  0  0  0  0  0
   41.0050   30.2220   43.7080 N   0  0  0  0  0  0  0  0  0  0  0  0
   40.7830   30.5750   42.7500 H   0  0  0  0  0  0  0  0  0  0  0  0
   41.7630   29.5020   43.8740 H   0  0  0  0  0  0  0  0  0  0  0  0
   34.0220   28.0820   48.9700 C   0  0  0  0  0  0  0  0  0  0  0  0
   34.1130   27.4200   48.0770 H   0  0  0  0  0  0  0  0  0  0  0  0
   34.4680   27.4710   49.8040 H   0  0  0  0  0  0  0  0  0  0  0  0
   32.7040   28.2630   49.2990 O   0  0  0  0  0  0  0  0  0  0  0  0
   32.5090   26.5290   47.3360 O   0  0  0  0  0  0  0  0  0  0  0  0
   31.7150   27.4090   48.2690 P   0  0  2  0  0  0  0  0  0  0  0  0
   30.8500   28.5840   47.3330 O   0  0  0  0  0  0  0  0  0  0  0  0
   29.3610   27.2890   45.9240 C   0  0  0  0  0  3  0  0  0  0  0  0
   30.4250   28.1550   46.0770 C   0  0  0  0  0  0  0  0  0  0  0  0
   31.0300   28.5610   44.9030 C   0  0  0  0  0  0  0  0  0  0  0  0
   31.8790   29.2490   44.9650 H   0  0  0  0  0  0  0  0  0  0  0  0
   30.6050   28.1330   43.6590 C   0  0  0  0  0  0  0  0  0  0  0  0
   30.9750   28.3440   42.3840 N   0  0  0  0  0  0  0  0  0  0  0  0
   31.7790   28.9690   42.1000 H   0  0  0  0  0  0  0  0  0  0  0  0
   30.2080   27.6690   41.5410 N   0  0  0  0  0  0  0  0  0  0  0  0
   29.2870   26.9760   42.2380 C   0  0  0  0  0  0  0  0  0  0  0  0
   28.4920   26.3110   41.8640 H   0  0  0  0  0  0  0  0  0  0  0  0
   29.5340   27.2660   43.5650 C   0  0  0  0  0  0  0  0  0  0  0  0
   28.8820   26.8220   44.7180 C   0  0  0  0  0  3  0  0  0  0  0  0
   30.5630   26.5130   49.0440 O   0  0  0  0  0  0  0  0  0  0  0  0
   29.7560   27.3110   49.8220 C   0  0  0  0  0  0  0  0  0  0  0  0
   29.2910   26.6500   50.9580 F   0  0  0  0  0  0  0  0  0  0  0  0
   30.4400   28.4140   50.2900 F   0  0  0  0  0  0  0  0  0  0  0  0
   28.6570   27.7450   49.0890 F   0  0  0  0  0  0  0  0  0  0  0  0
  1 25  1  0  0  0  0
  1  3  1  0  0  0  0
  1  2  1  0  0  0  0
  5 10  1  0  0  0  0
  5  4  1  0  0  0  0
  6  5  2  0  0  0  0
  7  8  2  0  0  0  0
  7  6  1  0  0  0  0
  8  9  1  0  0  0  0
  9 10  2  0  0  0  0
 10  1  1  0  0  0  0
 11  7  1  0  0  0  0
 12  8  1  0  0  0  0
 13  9  1  0  0  0  0
 14 19  1  0  0  0  0
 14 20  1  0  0  0  0
 15 14  2  0  0  0  0
 16 17  2  0  0  0  0
 16 15  1  0  0  0  0
 17 18  1  0  0  0  0
 18  6  1  0  0  0  0
 18 19  2  0  0  0  0
 21 15  1  0  0  0  0
 22 24  1  0  0  0  0
 22 16  1  0  0  0  0
 23 22  1  0  0  0  0
 25 28  1  0  0  0  0
 25 27  1  0  0  0  0
 26 25  1  0  0  0  0
 30 29  2  6  0  0  0
 30 44  1  0  0  0  0
 30 28  1  0  0  0  0
 31 30  1  0  0  0  0
 32 33  1  0  0  0  0
 33 31  1  0  0  0  0
 34 35  1  0  0  0  0
 34 33  2  0  0  0  0
 36 34  1  0  0  0  0
 37 36  1  0  0  0  0
 38 37  1  0  0  0  0
 39 40  2  0  0  0  0
 39 37  1  0  0  0  0
 40 42  1  0  0  0  0
 41 40  1  0  0  0  0
 42 36  2  0  0  0  0
 42 43  1  0  0  0  0
 43 32  2  0  0  0  0
 44 45  1  0  0  0  0
 45 47  1  0  0  0  0
 45 46  1  0  0  0  0
 48 45  1  0  0  0  0
M  END
>  <minimizedAffinity>
-5.6824441

>  <minimizedRMSD>
0.391114652

$$$$
