
 OpenBabel03272507423D

 44 48  0  0  0  0  0  0  0  0999 V2000
   36.8170   31.1960   50.0950 C   0  0  0  0  0  0  0  0  0  0  0  0
   35.7760   30.2960   49.8870 C   0  0  0  0  0  0  0  0  0  0  0  0
   35.6050   29.1760   50.6710 C   0  0  0  0  0  0  0  0  0  0  0  0
   36.5100   28.9840   51.6700 N   0  0  0  0  0  0  0  0  0  0  0  0
   37.5310   29.8690   51.8710 C   0  0  0  0  0  0  0  0  0  0  0  0
   37.6620   30.9360   51.0960 N   0  0  0  0  0  0  0  0  0  0  0  0
   34.8420   28.4480   50.5770 H   0  0  0  0  0  0  0  0  0  0  0  0
   38.2320   29.6820   52.6760 H   0  0  0  0  0  0  0  0  0  0  0  0
   34.3370   29.2620   48.1710 C   0  0  0  0  0  0  0  0  0  0  0  0
   34.7500   28.0430   48.1510 O   0  0  0  0  0  0  0  0  0  0  0  0
   34.7930   30.3950   48.8820 N   0  0  0  0  0  0  0  0  0  0  0  0
   34.4700   31.3690   48.7430 H   0  0  0  0  0  0  0  0  0  0  0  0
   33.0680   30.4830   46.4060 C   0  0  0  0  0  3  0  0  0  0  0  0
   33.1920   29.4170   47.2730 C   0  0  0  0  0  0  0  0  0  0  0  0
   32.1420   28.5290   47.2020 C   0  0  0  0  0  0  0  0  0  0  0  0
   32.1230   27.6520   47.8320 H   0  0  0  0  0  0  0  0  0  0  0  0
   31.0480   28.6380   46.3720 C   0  0  0  0  0  0  0  0  0  0  0  0
   29.9450   27.8990   46.1570 N   0  0  0  0  0  0  0  0  0  0  0  0
   29.6890   27.0140   46.6290 H   0  0  0  0  0  0  0  0  0  0  0  0
   29.2200   28.4910   45.2250 N   0  0  0  0  0  0  0  0  0  0  0  0
   29.8100   29.6180   44.8020 C   0  0  0  0  0  0  0  0  0  0  0  0
   29.4960   30.3310   44.0660 H   0  0  0  0  0  0  0  0  0  0  0  0
   30.9780   29.7250   45.5270 C   0  0  0  0  0  0  0  0  0  0  0  0
   31.9890   30.6620   45.5340 C   0  0  0  0  0  3  0  0  0  0  0  0
   36.8100   32.2280   49.2240 O   0  0  0  0  0  0  0  0  0  0  0  0
   38.2540   32.2250   47.2230 C   0  0  0  0  0  0  0  0  0  0  0  0
   37.8990   32.6510   48.4950 C   0  0  0  0  0  0  0  0  0  0  0  0
   38.6740   33.5910   49.1450 C   0  0  0  0  0  0  0  0  0  0  0  0
   39.8050   34.1070   48.5280 C   0  0  0  0  0  0  0  0  0  0  0  0
   40.1520   33.6750   47.2600 C   0  0  0  0  0  0  0  0  0  0  0  0
   39.3620   32.7430   46.6420 C   0  0  0  0  0  0  0  0  0  0  0  0
   38.4590   33.9690   50.1340 H   0  0  0  0  0  0  0  0  0  0  0  0
   40.4270   34.8480   49.0260 H   0  0  0  0  0  0  0  0  0  0  0  0
   41.0260   34.0510   46.7390 H   0  0  0  0  0  0  0  0  0  0  0  0
   39.7450   32.2880   45.2810 C   0  0  0  0  0  0  0  0  0  0  0  0
   40.5810   31.2590   44.9030 C   0  0  0  0  0  0  0  0  0  0  0  0
   40.6120   31.2430   43.5120 C   0  0  0  0  0  0  0  0  0  0  0  0
   39.7790   32.2790   43.1240 C   0  0  0  0  0  0  0  0  0  0  0  0
   39.2780   32.8830   44.1900 O   0  0  0  0  0  0  0  0  0  0  0  0
   41.0950   30.6120   45.6170 H   0  0  0  0  0  0  0  0  0  0  0  0
   41.1710   30.5590   42.9130 H   0  0  0  0  0  0  0  0  0  0  0  0
   39.5550   32.5710   42.1070 H   0  0  0  0  0  0  0  0  0  0  0  0
   36.7320   30.4730   46.1010 N   0  0  0  0  0  0  0  0  0  0  0  0
   37.4070   31.2510   46.6120 C   0  0  0  0  0  0  0  0  0  0  0  0
  1  6  1  0  0  0  0
  2  1  2  0  0  0  0
  2  3  1  0  0  0  0
  3  4  2  0  0  0  0
  4  5  1  0  0  0  0
  5  8  1  0  0  0  0
  6  5  2  0  0  0  0
  7  3  1  0  0  0  0
  9 11  1  0  0  0  0
 10  9  2  0  0  0  0
 11  2  1  0  0  0  0
 12 11  1  0  0  0  0
 13 14  1  0  0  0  0
 14  9  1  0  0  0  0
 15 14  2  0  0  0  0
 15 16  1  0  0  0  0
 17 15  1  0  0  0  0
 18 17  1  0  0  0  0
 18 19  1  0  0  0  0
 20 18  1  0  0  0  0
 21 20  2  0  0  0  0
 21 23  1  0  0  0  0
 22 21  1  0  0  0  0
 23 24  1  0  0  0  0
 23 17  2  0  0  0  0
 24 13  2  0  0  0  0
 25  1  1  0  0  0  0
 26 27  1  0  0  0  0
 27 28  2  0  0  0  0
 27 25  1  0  0  0  0
 28 32  1  0  0  0  0
 29 33  1  0  0  0  0
 29 28  1  0  0  0  0
 30 29  2  0  0  0  0
 31 26  2  0  0  0  0
 31 30  1  0  0  0  0
 34 30  1  0  0  0  0
 35 31  1  0  0  0  0
 36 35  2  0  0  0  0
 36 40  1  0  0  0  0
 37 36  1  0  0  0  0
 38 37  2  0  0  0  0
 38 39  1  0  0  0  0
 39 35  1  0  0  0  0
 41 37  1  0  0  0  0
 42 38  1  0  0  0  0
 43 44  3  0  0  0  0
 44 26  1  0  0  0  0
M  END
>  <minimizedAffinity>
-6.35075474

>  <minimizedRMSD>
0.615716755

$$$$
