REMARK  Name = 
REMARK  6 active torsions:
REMARK  status: ('A' for Active; 'I' for Inactive)
REMARK    1  A    between atoms: C_1  and  O_6
REMARK    2  A    between atoms: C_2  and  S_7
REMARK    3  A    between atoms: C_5  and  O_14
REMARK    4  A    between atoms: S_7  and  C_12
REMARK    5  A    between atoms: O_14  and  C_17
REMARK    6  A    between atoms: C_21  and  C_35
REMARK                            x       y       z     vdW  Elec       q    Type
REMARK                         _______ _______ _______ _____ _____    ______ ____
ROOT
ATOM      1  O   UNL     1      31.364  27.040  45.687  0.00  0.00    +0.000 OA
ENDROOT
BRANCH   1   6
ATOM      2  C   UNL     1      32.169  28.525  47.422  0.00  0.00    +0.000 C 
ATOM      3  C   UNL     1      33.407  28.364  48.251  0.00  0.00    +0.000 C 
ATOM      4  O   UNL     1      33.803  27.063  48.170  0.00  0.00    +0.000 OA
ATOM      5  C   UNL     1      33.112  26.440  47.135  0.00  0.00    +0.000 C 
ATOM      6  C   UNL     1      32.509  27.519  46.276  0.00  0.00    +0.000 C 
ATOM      7  H   UNL     1      31.229  28.268  47.899  0.00  0.00    +0.000 HD
ATOM      8  H   UNL     1      33.250  28.736  49.282  0.00  0.00    +0.000 HD
ATOM      9  H   UNL     1      32.431  25.732  47.577  0.00  0.00    +0.000 HD
ATOM     10  H   UNL     1      33.913  25.956  46.513  0.00  0.00    +0.000 HD
ATOM     11  H   UNL     1      33.221  28.052  45.654  0.00  0.00    +0.000 HD
BRANCH   2  12
ATOM     12  O   UNL     1      32.095  29.827  46.885  0.00  0.00    +0.000 OA
ATOM     13  H   UNL     1      32.861  29.916  46.261  0.00  0.00    +0.000 HD
ENDBRANCH   2  12
BRANCH   3  14
ATOM     14  S   UNL     1      34.718  29.410  47.495  0.00  0.00    +0.000 S 
BRANCH  14  19
ATOM     15  C   UNL     1      37.134  29.290  50.636  0.00  0.00    +0.000 A 
ATOM     16  C   UNL     1      37.630  30.592  50.753  0.00  0.00    +0.000 A 
ATOM     17  C   UNL     1      37.207  31.538  49.834  0.00  0.00    +0.000 A 
ATOM     18  N   UNL     1      36.328  31.160  48.859  0.00  0.00    +0.000 NA
ATOM     19  C   UNL     1      35.870  29.892  48.778  0.00  0.00    +0.000 A 
ATOM     20  N   UNL     1      36.265  28.940  49.662  0.00  0.00    +0.000 NA
ATOM     21  H   UNL     1      37.407  28.487  51.305  0.00  0.00    +0.000 HD
ATOM     22  H   UNL     1      38.324  30.822  51.550  0.00  0.00    +0.000 HD
ATOM     23  H   UNL     1      37.556  32.546  49.880  0.00  0.00    +0.000 HD
ENDBRANCH  14  19
ENDBRANCH   3  14
ENDBRANCH   1   6
BRANCH   1  26
ATOM     24 CL   UNL     1      29.882  29.114  44.214  0.00  0.00    +0.000 Cl
ATOM     25  C   UNL     1      29.337  28.123  45.546  0.00  0.00    +0.000 A 
ATOM     26  C   UNL     1      30.124  27.172  46.150  0.00  0.00    +0.000 A 
ATOM     27  C   UNL     1      29.568  26.423  47.191  0.00  0.00    +0.000 A 
ATOM     28  C   UNL     1      28.267  26.639  47.593  0.00  0.00    +0.000 A 
ATOM     29  C   UNL     1      27.466  27.594  46.991  0.00  0.00    +0.000 A 
ATOM     30  C   UNL     1      28.017  28.341  45.955  0.00  0.00    +0.000 A 
ATOM     31  H   UNL     1      30.110  25.656  47.716  0.00  0.00    +0.000 HD
ATOM     32  H   UNL     1      27.843  26.064  48.391  0.00  0.00    +0.000 HD
ATOM     33  H   UNL     1      26.448  27.760  47.310  0.00  0.00    +0.000 HD
BRANCH  30  35
ATOM     34  C   UNL     1      27.629  30.643  45.402  0.00  0.00    +0.000 A 
ATOM     35  C   UNL     1      27.162  29.324  45.347  0.00  0.00    +0.000 A 
ATOM     36  C   UNL     1      25.950  29.140  44.724  0.00  0.00    +0.000 A 
ATOM     37  H   UNL     1      25.599  28.137  44.686  0.00  0.00    +0.000 HD
ATOM     38  C   UNL     1      25.227  30.181  44.181  0.00  0.00    +0.000 A 
ATOM     39  N   UNL     1      24.043  30.181  43.545  0.00  0.00    +0.000 N 
ATOM     40  H   UNL     1      23.475  29.320  43.368  0.00  0.00    +0.000 HD
ATOM     41  N   UNL     1      23.802  31.442  43.229  0.00  0.00    +0.000 NA
ATOM     42  C   UNL     1      24.787  32.248  43.638  0.00  0.00    +0.000 A 
ATOM     43  H   UNL     1      24.886  33.317  43.532  0.00  0.00    +0.000 HD
ATOM     44  C   UNL     1      25.733  31.462  44.263  0.00  0.00    +0.000 A 
ATOM     45  C   UNL     1      26.945  31.719  44.875  0.00  0.00    +0.000 A 
ENDBRANCH  30  35
ENDBRANCH   1  26
TORSDOF 6
