
 OpenBabel03272504413D

 48 51  0  0  0  0  0  0  0  0999 V2000
   34.6880   29.3670   48.7500 C   0  0  0  0  0  0  0  0  0  0  0  0
   35.5810   29.4000   49.4140 H   0  0  0  0  0  0  0  0  0  0  0  0
   34.0360   30.1930   49.1650 H   0  0  0  0  0  0  0  0  0  0  0  0
   37.4520   30.4300   48.4870 Cl  0  0  0  0  0  0  0  0  0  0  0  0
   36.3250   30.2740   47.1390 C   0  0  0  0  0  0  0  0  0  0  0  0
   36.7180   30.6550   45.9050 C   0  0  0  0  0  0  0  0  0  0  0  0
   35.8470   30.5380   44.8420 C   0  0  0  0  0  0  0  0  0  0  0  0
   34.5720   30.0260   45.0670 C   0  0  0  0  0  0  0  0  0  0  0  0
   34.2410   29.6530   46.3840 C   0  0  0  0  0  0  0  0  0  0  0  0
   35.0790   29.7610   47.4290 C   0  0  0  0  0  0  0  0  0  0  0  0
   36.1860   30.8530   43.8470 H   0  0  0  0  0  0  0  0  0  0  0  0
   33.9780   29.9780   44.1840 H   0  0  0  0  0  0  0  0  0  0  0  0
   33.2730   29.3080   46.3470 H   0  0  0  0  0  0  0  0  0  0  0  0
   39.7070   32.8150   46.0070 C   0  0  0  0  0  0  0  0  0  0  0  0
   40.5850   32.0840   45.1290 C   0  0  0  0  0  0  0  0  0  0  0  0
   40.1110   30.9000   44.5560 C   0  0  0  0  0  0  0  0  0  0  0  0
   38.8520   30.4860   44.8430 N   0  0  0  0  0  0  0  0  0  0  0  0
   38.0480   31.1930   45.6700 C   0  0  0  0  0  0  0  0  0  0  0  0
   38.4780   32.3320   46.2340 N   0  0  0  0  0  0  0  0  0  0  0  0
   40.0740   33.7300   46.4490 H   0  0  0  0  0  0  0  0  0  0  0  0
   41.5640   32.5150   44.9790 H   0  0  0  0  0  0  0  0  0  0  0  0
   41.0000   30.2200   43.7090 N   0  0  0  0  0  0  0  0  0  0  0  0
   40.7800   30.5720   42.7500 H   0  0  0  0  0  0  0  0  0  0  0  0
   41.7580   29.5000   43.8760 H   0  0  0  0  0  0  0  0  0  0  0  0
   34.0170   28.0810   48.9630 C   0  0  0  0  0  0  0  0  0  0  0  0
   34.1100   27.4200   48.0710 H   0  0  0  0  0  0  0  0  0  0  0  0
   34.4720   27.4750   49.7960 H   0  0  0  0  0  0  0  0  0  0  0  0
   32.6990   28.2500   49.2990 O   0  0  0  0  0  0  0  0  0  0  0  0
   32.5070   26.5080   47.3420 O   0  0  0  0  0  0  0  0  0  0  0  0
   31.7120   27.4010   48.2630 P   0  0  2  0  0  0  0  0  0  0  0  0
   30.8680   28.5790   47.3130 O   0  0  0  0  0  0  0  0  0  0  0  0
   30.9920   28.4780   44.8940 C   0  0  0  0  0  3  0  0  0  0  0  0
   30.3890   28.1270   46.0840 C   0  0  0  0  0  0  0  0  0  0  0  0
   29.2860   27.3020   45.9690 C   0  0  0  0  0  0  0  0  0  0  0  0
   28.7680   26.9920   46.8810 H   0  0  0  0  0  0  0  0  0  0  0  0
   28.8140   26.8570   44.7470 C   0  0  0  0  0  0  0  0  0  0  0  0
   27.8030   26.0760   44.3270 N   0  0  0  0  0  0  0  0  0  0  0  0
   27.1070   25.6140   44.9750 H   0  0  0  0  0  0  0  0  0  0  0  0
   27.7960   25.9670   43.0070 N   0  0  0  0  0  0  0  0  0  0  0  0
   28.8180   26.6820   42.4970 C   0  0  0  0  0  0  0  0  0  0  0  0
   29.1110   26.8160   41.4450 H   0  0  0  0  0  0  0  0  0  0  0  0
   29.4550   27.2400   43.5870 C   0  0  0  0  0  0  0  0  0  0  0  0
   30.5760   28.0730   43.6410 C   0  0  0  0  0  3  0  0  0  0  0  0
   30.5430   26.5200   49.0310 O   0  0  0  0  0  0  0  0  0  0  0  0
   29.7600   27.3250   49.8270 C   0  0  0  0  0  0  0  0  0  0  0  0
   29.2970   26.6610   50.9610 F   0  0  0  0  0  0  0  0  0  0  0  0
   30.4700   28.4100   50.2980 F   0  0  0  0  0  0  0  0  0  0  0  0
   28.6610   27.7860   49.1120 F   0  0  0  0  0  0  0  0  0  0  0  0
  1 25  1  0  0  0  0
  1  3  1  0  0  0  0
  1  2  1  0  0  0  0
  5 10  1  0  0  0  0
  5  4  1  0  0  0  0
  6  5  2  0  0  0  0
  7  8  2  0  0  0  0
  7  6  1  0  0  0  0
  8  9  1  0  0  0  0
  9 10  2  0  0  0  0
 10  1  1  0  0  0  0
 11  7  1  0  0  0  0
 12  8  1  0  0  0  0
 13  9  1  0  0  0  0
 14 19  1  0  0  0  0
 14 20  1  0  0  0  0
 15 14  2  0  0  0  0
 16 17  2  0  0  0  0
 16 15  1  0  0  0  0
 17 18  1  0  0  0  0
 18  6  1  0  0  0  0
 18 19  2  0  0  0  0
 21 15  1  0  0  0  0
 22 24  1  0  0  0  0
 22 16  1  0  0  0  0
 23 22  1  0  0  0  0
 25 28  1  0  0  0  0
 25 27  1  0  0  0  0
 26 25  1  0  0  0  0
 30 29  2  6  0  0  0
 30 44  1  0  0  0  0
 30 28  1  0  0  0  0
 31 30  1  0  0  0  0
 32 33  1  0  0  0  0
 33 31  1  0  0  0  0
 34 33  2  0  0  0  0
 34 35  1  0  0  0  0
 36 34  1  0  0  0  0
 37 36  1  0  0  0  0
 37 38  1  0  0  0  0
 39 37  1  0  0  0  0
 40 39  2  0  0  0  0
 40 42  1  0  0  0  0
 41 40  1  0  0  0  0
 42 43  1  0  0  0  0
 42 36  2  0  0  0  0
 43 32  2  0  0  0  0
 44 45  1  0  0  0  0
 45 47  1  0  0  0  0
 45 46  1  0  0  0  0
 48 45  1  0  0  0  0
M  END
>  <minimizedAffinity>
-5.82407713

>  <minimizedRMSD>
0.510570765

$$$$
