
 OpenBabel03262522053D

 43 47  0  0  1  0  0  0  0  0999 V2000
   37.7300   31.8190   49.6730 C   0  0  0  0  0  0  0  0  0  0  0  0
   36.7220   32.3200   50.2650 O   0  0  0  0  0  0  0  0  0  0  0  0
   34.5050   29.0860   48.7490 C   0  0  2  0  0  0  0  0  0  0  0  0
   35.1550   28.3560   49.8750 C   0  0  0  0  0  0  0  0  0  0  0  0
   36.2900   29.1380   50.3640 N   0  0  0  0  0  0  0  0  0  0  0  0
   37.2420   29.8760   51.1460 C   0  0  0  0  0  0  0  0  0  0  0  0
   37.4580   30.0660   52.3560 O   0  0  0  0  0  0  0  0  0  0  0  0
   37.9580   30.3940   50.0130 C   0  0  1  0  0  0  0  0  0  0  0  0
   37.1270   29.3860   49.2280 C   0  0  2  0  0  0  0  0  0  0  0  0
   35.9090   30.0890   48.0930 S   0  0  0  0  0  0  0  0  0  0  0  0
   35.4020   27.3050   49.6860 H   0  0  0  0  0  0  0  0  0  0  0  0
   34.4090   28.3540   50.7220 H   0  0  0  0  0  0  0  0  0  0  0  0
   39.0180   30.0770   49.8850 H   0  0  0  0  0  0  0  0  0  0  0  0
   37.6760   28.5150   48.8310 H   0  0  0  0  0  0  0  0  0  0  0  0
   33.2990   29.8970   49.0790 C   0  0  0  0  0  0  0  0  0  0  0  0
   32.5400   29.7640   48.2650 H   0  0  0  0  0  0  0  0  0  0  0  0
   32.8950   29.6200   50.0680 H   0  0  0  0  0  0  0  0  0  0  0  0
   33.5840   30.9700   49.1440 H   0  0  0  0  0  0  0  0  0  0  0  0
   34.2180   28.0730   47.6230 C   0  0  0  0  0  0  0  0  0  0  0  0
   34.9260   27.2310   47.6800 H   0  0  0  0  0  0  0  0  0  0  0  0
   33.1870   27.7110   47.7780 H   0  0  0  0  0  0  0  0  0  0  0  0
   34.2520   28.7460   46.4030 O   0  0  0  0  0  0  0  0  0  0  0  0
   33.9930   28.1060   45.6980 H   0  0  0  0  0  0  0  0  0  0  0  0
   38.5560   32.5670   48.7770 C   0  0  0  0  0  0  0  0  0  0  0  0
   39.1270   33.7310   49.2360 C   0  0  0  0  0  0  0  0  0  0  0  0
   39.9460   34.4680   48.3390 C   0  0  0  0  0  0  0  0  0  0  0  0
   40.1120   33.9680   47.0690 N   0  0  0  0  0  0  0  0  0  0  0  0
   39.5430   32.8440   46.6710 C   0  0  0  0  0  0  0  0  0  0  0  0
   38.7650   32.1340   47.5080 N   0  0  0  0  0  0  0  0  0  0  0  0
   38.9710   34.0960   50.2530 H   0  0  0  0  0  0  0  0  0  0  0  0
   40.4200   35.3910   48.6490 H   0  0  0  0  0  0  0  0  0  0  0  0
   40.4990   31.2180   45.0560 C   0  0  0  0  0  3  0  0  0  0  0  0
   39.7460   32.3470   45.3140 C   0  0  0  0  0  0  0  0  0  0  0  0
   39.1870   32.9930   44.2290 C   0  0  0  0  0  0  0  0  0  0  0  0
   38.5970   33.8820   44.4650 H   0  0  0  0  0  0  0  0  0  0  0  0
   39.3470   32.5650   42.9220 C   0  0  0  0  0  0  0  0  0  0  0  0
   38.8830   33.0600   41.7450 N   0  0  0  0  0  0  0  0  0  0  0  0
   38.2810   33.9210   41.6710 H   0  0  0  0  0  0  0  0  0  0  0  0
   39.3460   32.2460   40.7810 N   0  0  0  0  0  0  0  0  0  0  0  0
   40.0800   31.2680   41.3390 C   0  0  0  0  0  0  0  0  0  0  0  0
   40.5860   30.4550   40.7970 H   0  0  0  0  0  0  0  0  0  0  0  0
   40.1130   31.4260   42.7100 C   0  0  0  0  0  0  0  0  0  0  0  0
   40.6960   30.7390   43.7550 C   0  0  0  0  0  3  0  0  0  0  0  0
  1  8  1  0  0  0  0
  1  2  2  0  0  0  0
  3 19  1  6  0  0  0
  3 15  1  0  0  0  0
  3  4  1  0  0  0  0
  4  5  1  0  0  0  0
  4 12  1  0  0  0  0
  5  6  1  0  0  0  0
  6  7  2  0  0  0  0
  8 13  1  1  0  0  0
  8  6  1  0  0  0  0
  9 14  1  6  0  0  0
  9  8  1  0  0  0  0
  9  5  1  0  0  0  0
 10  3  1  0  0  0  0
 10  9  1  0  0  0  0
 11  4  1  0  0  0  0
 15 18  1  0  0  0  0
 15 17  1  0  0  0  0
 16 15  1  0  0  0  0
 19 20  1  0  0  0  0
 19 21  1  0  0  0  0
 22 19  1  0  0  0  0
 23 22  1  0  0  0  0
 24 25  1  0  0  0  0
 24  1  1  0  0  0  0
 25 30  1  0  0  0  0
 26 31  1  0  0  0  0
 26 25  2  0  0  0  0
 27 26  1  0  0  0  0
 28 27  2  0  0  0  0
 28 29  1  0  0  0  0
 29 24  2  0  0  0  0
 32 33  1  0  0  0  0
 33 28  1  0  0  0  0
 34 35  1  0  0  0  0
 34 33  2  0  0  0  0
 36 34  1  0  0  0  0
 37 36  1  0  0  0  0
 38 37  1  0  0  0  0
 39 40  2  0  0  0  0
 39 37  1  0  0  0  0
 40 42  1  0  0  0  0
 41 40  1  0  0  0  0
 42 36  2  0  0  0  0
 42 43  1  0  0  0  0
 43 32  2  0  0  0  0
M  END
>  <minimizedAffinity>
-6.56424427

>  <minimizedRMSD>
0.411391258

$$$$
