
 OpenBabel03262522053D

 43 47  0  0  1  0  0  0  0  0999 V2000
   37.7670   31.8670   49.5880 C   0  0  0  0  0  0  0  0  0  0  0  0
   36.7560   32.3610   50.1820 O   0  0  0  0  0  0  0  0  0  0  0  0
   34.5480   29.1410   48.6190 C   0  0  2  0  0  0  0  0  0  0  0  0
   35.1930   28.3990   49.7390 C   0  0  0  0  0  0  0  0  0  0  0  0
   36.3250   29.1770   50.2420 N   0  0  0  0  0  0  0  0  0  0  0  0
   37.2730   29.9070   51.0380 C   0  0  0  0  0  0  0  0  0  0  0  0
   37.4830   30.0840   52.2500 O   0  0  0  0  0  0  0  0  0  0  0  0
   37.9940   30.4380   49.9130 C   0  0  1  0  0  0  0  0  0  0  0  0
   37.1680   29.4380   49.1130 C   0  0  2  0  0  0  0  0  0  0  0  0
   35.9550   30.1520   47.9800 S   0  0  0  0  0  0  0  0  0  0  0  0
   35.4430   27.3500   49.5400 H   0  0  0  0  0  0  0  0  0  0  0  0
   34.4440   28.3880   50.5830 H   0  0  0  0  0  0  0  0  0  0  0  0
   39.0550   30.1230   49.7870 H   0  0  0  0  0  0  0  0  0  0  0  0
   37.7200   28.5720   48.7100 H   0  0  0  0  0  0  0  0  0  0  0  0
   33.3400   29.9470   48.9520 C   0  0  0  0  0  0  0  0  0  0  0  0
   32.5850   29.8220   48.1320 H   0  0  0  0  0  0  0  0  0  0  0  0
   32.9310   29.6590   49.9360 H   0  0  0  0  0  0  0  0  0  0  0  0
   33.6240   31.0200   49.0300 H   0  0  0  0  0  0  0  0  0  0  0  0
   34.2680   28.1400   47.4800 C   0  0  0  0  0  0  0  0  0  0  0  0
   34.9650   27.2900   47.5410 H   0  0  0  0  0  0  0  0  0  0  0  0
   33.2300   27.7890   47.6160 H   0  0  0  0  0  0  0  0  0  0  0  0
   34.3290   28.8220   46.2660 O   0  0  0  0  0  0  0  0  0  0  0  0
   34.0740   28.1910   45.5520 H   0  0  0  0  0  0  0  0  0  0  0  0
   38.5950   32.6240   48.7030 C   0  0  0  0  0  0  0  0  0  0  0  0
   39.2020   33.7580   49.1900 C   0  0  0  0  0  0  0  0  0  0  0  0
   40.0230   34.5050   48.3050 C   0  0  0  0  0  0  0  0  0  0  0  0
   40.1560   34.0450   47.0150 N   0  0  0  0  0  0  0  0  0  0  0  0
   39.5520   32.9490   46.5900 C   0  0  0  0  0  0  0  0  0  0  0  0
   38.7720   32.2300   47.4160 N   0  0  0  0  0  0  0  0  0  0  0  0
   39.0730   34.0920   50.2220 H   0  0  0  0  0  0  0  0  0  0  0  0
   40.5250   35.4060   48.6370 H   0  0  0  0  0  0  0  0  0  0  0  0
   39.2240   33.2120   44.1430 C   0  0  0  0  0  3  0  0  0  0  0  0
   39.7200   32.4950   45.2140 C   0  0  0  0  0  0  0  0  0  0  0  0
   40.3850   31.3190   44.9290 C   0  0  0  0  0  0  0  0  0  0  0  0
   40.7650   30.7730   45.7960 H   0  0  0  0  0  0  0  0  0  0  0  0
   40.5710   30.8410   43.6420 C   0  0  0  0  0  0  0  0  0  0  0  0
   41.1890   29.7250   43.1730 N   0  0  0  0  0  0  0  0  0  0  0  0
   41.6500   29.0100   43.7920 H   0  0  0  0  0  0  0  0  0  0  0  0
   41.0720   29.7610   41.8360 N   0  0  0  0  0  0  0  0  0  0  0  0
   40.4010   30.8690   41.4770 C   0  0  0  0  0  0  0  0  0  0  0  0
   40.1550   31.1650   40.4460 H   0  0  0  0  0  0  0  0  0  0  0  0
   40.0560   31.5960   42.5980 C   0  0  0  0  0  0  0  0  0  0  0  0
   39.3820   32.7790   42.8200 C   0  0  0  0  0  3  0  0  0  0  0  0
  1  8  1  0  0  0  0
  1  2  2  0  0  0  0
  3 19  1  6  0  0  0
  3 15  1  0  0  0  0
  3  4  1  0  0  0  0
  4  5  1  0  0  0  0
  4 12  1  0  0  0  0
  5  6  1  0  0  0  0
  6  7  2  0  0  0  0
  8 13  1  1  0  0  0
  8  6  1  0  0  0  0
  9 14  1  6  0  0  0
  9  8  1  0  0  0  0
  9  5  1  0  0  0  0
 10  3  1  0  0  0  0
 10  9  1  0  0  0  0
 11  4  1  0  0  0  0
 15 18  1  0  0  0  0
 15 17  1  0  0  0  0
 16 15  1  0  0  0  0
 19 20  1  0  0  0  0
 19 21  1  0  0  0  0
 22 19  1  0  0  0  0
 23 22  1  0  0  0  0
 24 25  1  0  0  0  0
 24  1  1  0  0  0  0
 25 30  1  0  0  0  0
 26 31  1  0  0  0  0
 26 25  2  0  0  0  0
 27 26  1  0  0  0  0
 28 27  2  0  0  0  0
 28 29  1  0  0  0  0
 29 24  2  0  0  0  0
 32 33  1  0  0  0  0
 33 28  1  0  0  0  0
 34 33  2  0  0  0  0
 34 35  1  0  0  0  0
 36 34  1  0  0  0  0
 37 36  1  0  0  0  0
 37 38  1  0  0  0  0
 39 37  1  0  0  0  0
 40 39  2  0  0  0  0
 40 42  1  0  0  0  0
 41 40  1  0  0  0  0
 42 43  1  0  0  0  0
 42 36  2  0  0  0  0
 43 32  2  0  0  0  0
M  END
>  <minimizedAffinity>
-6.84628534

>  <minimizedRMSD>
0.311824977

$$$$
