
 OpenBabel03262522053D

 43 47  0  0  1  0  0  0  0  0999 V2000
   37.7660   31.8640   49.6550 C   0  0  0  0  0  0  0  0  0  0  0  0
   36.7750   32.3790   50.2620 O   0  0  0  0  0  0  0  0  0  0  0  0
   34.5510   29.1610   48.6170 C   0  0  2  0  0  0  0  0  0  0  0  0
   35.1650   28.4160   49.7520 C   0  0  0  0  0  0  0  0  0  0  0  0
   36.2910   29.1860   50.2800 N   0  0  0  0  0  0  0  0  0  0  0  0
   37.2260   29.9100   51.0950 C   0  0  0  0  0  0  0  0  0  0  0  0
   37.4100   30.0870   52.3120 O   0  0  0  0  0  0  0  0  0  0  0  0
   37.9760   30.4350   49.9870 C   0  0  1  0  0  0  0  0  0  0  0  0
   37.1610   29.4400   49.1700 C   0  0  2  0  0  0  0  0  0  0  0  0
   35.9790   30.1600   48.0090 S   0  0  0  0  0  0  0  0  0  0  0  0
   35.4110   27.3650   49.5600 H   0  0  0  0  0  0  0  0  0  0  0  0
   34.3970   28.4110   50.5790 H   0  0  0  0  0  0  0  0  0  0  0  0
   39.0370   30.1120   49.8850 H   0  0  0  0  0  0  0  0  0  0  0  0
   37.7160   28.5690   48.7800 H   0  0  0  0  0  0  0  0  0  0  0  0
   33.3420   29.9760   48.9220 C   0  0  0  0  0  0  0  0  0  0  0  0
   32.6040   29.8550   48.0850 H   0  0  0  0  0  0  0  0  0  0  0  0
   32.9090   29.6920   49.8960 H   0  0  0  0  0  0  0  0  0  0  0  0
   33.6310   31.0470   49.0050 H   0  0  0  0  0  0  0  0  0  0  0  0
   34.2890   28.1600   47.4740 C   0  0  0  0  0  0  0  0  0  0  0  0
   34.9860   27.3110   47.5450 H   0  0  0  0  0  0  0  0  0  0  0  0
   33.2500   27.8070   47.5930 H   0  0  0  0  0  0  0  0  0  0  0  0
   34.3670   28.8430   46.2610 O   0  0  0  0  0  0  0  0  0  0  0  0
   34.1240   28.2120   45.5430 H   0  0  0  0  0  0  0  0  0  0  0  0
   38.5920   32.6020   48.7500 C   0  0  0  0  0  0  0  0  0  0  0  0
   39.1680   33.7680   49.1970 C   0  0  0  0  0  0  0  0  0  0  0  0
   39.9860   34.4950   48.2920 C   0  0  0  0  0  0  0  0  0  0  0  0
   40.1460   33.9840   47.0250 N   0  0  0  0  0  0  0  0  0  0  0  0
   39.5720   32.8580   46.6390 C   0  0  0  0  0  0  0  0  0  0  0  0
   38.7950   32.1580   47.4840 N   0  0  0  0  0  0  0  0  0  0  0  0
   39.0170   34.1420   50.2120 H   0  0  0  0  0  0  0  0  0  0  0  0
   40.4640   35.4190   48.5920 H   0  0  0  0  0  0  0  0  0  0  0  0
   40.5150   31.2160   45.0330 C   0  0  0  0  0  3  0  0  0  0  0  0
   39.7690   32.3500   45.2850 C   0  0  0  0  0  0  0  0  0  0  0  0
   39.2090   32.9900   44.1960 C   0  0  0  0  0  0  0  0  0  0  0  0
   38.6240   33.8840   44.4280 H   0  0  0  0  0  0  0  0  0  0  0  0
   39.3640   32.5510   42.8910 C   0  0  0  0  0  0  0  0  0  0  0  0
   38.8980   33.0400   41.7120 N   0  0  0  0  0  0  0  0  0  0  0  0
   38.2990   33.9020   41.6340 H   0  0  0  0  0  0  0  0  0  0  0  0
   39.3540   32.2160   40.7540 N   0  0  0  0  0  0  0  0  0  0  0  0
   40.0850   31.2390   41.3180 C   0  0  0  0  0  0  0  0  0  0  0  0
   40.5840   30.4200   40.7800 H   0  0  0  0  0  0  0  0  0  0  0  0
   40.1230   31.4070   42.6870 C   0  0  0  0  0  0  0  0  0  0  0  0
   40.7060   30.7240   43.7350 C   0  0  0  0  0  3  0  0  0  0  0  0
  1  8  1  0  0  0  0
  1  2  2  0  0  0  0
  3 19  1  6  0  0  0
  3 15  1  0  0  0  0
  3  4  1  0  0  0  0
  4  5  1  0  0  0  0
  4 12  1  0  0  0  0
  5  6  1  0  0  0  0
  6  7  2  0  0  0  0
  8 13  1  1  0  0  0
  8  6  1  0  0  0  0
  9 14  1  6  0  0  0
  9  8  1  0  0  0  0
  9  5  1  0  0  0  0
 10  3  1  0  0  0  0
 10  9  1  0  0  0  0
 11  4  1  0  0  0  0
 15 18  1  0  0  0  0
 15 17  1  0  0  0  0
 16 15  1  0  0  0  0
 19 20  1  0  0  0  0
 19 21  1  0  0  0  0
 22 19  1  0  0  0  0
 23 22  1  0  0  0  0
 24 25  1  0  0  0  0
 24  1  1  0  0  0  0
 25 30  1  0  0  0  0
 26 31  1  0  0  0  0
 26 25  2  0  0  0  0
 27 26  1  0  0  0  0
 28 27  2  0  0  0  0
 28 29  1  0  0  0  0
 29 24  2  0  0  0  0
 32 33  1  0  0  0  0
 33 28  1  0  0  0  0
 34 35  1  0  0  0  0
 34 33  2  0  0  0  0
 36 34  1  0  0  0  0
 37 36  1  0  0  0  0
 38 37  1  0  0  0  0
 39 40  2  0  0  0  0
 39 37  1  0  0  0  0
 40 42  1  0  0  0  0
 41 40  1  0  0  0  0
 42 36  2  0  0  0  0
 42 43  1  0  0  0  0
 43 32  2  0  0  0  0
M  END
>  <minimizedAffinity>
-6.58071518

>  <minimizedRMSD>
0.153859526

$$$$
