
 OpenBabel03262521473D

 33 35  0  0  0  0  0  0  0  0999 V2000
   34.7140   30.5430   49.1620 O   0  0  0  0  0  0  0  0  0  0  0  0
   34.4700   29.4130   50.1480 P   0  0  2  0  0  0  0  0  0  0  0  0
   33.0040   29.7460   50.8980 O   0  0  0  0  0  0  0  0  0  0  0  0
   33.0570   29.4350   51.8290 H   0  0  0  0  0  0  0  0  0  0  0  0
   35.7450   29.4010   51.2690 O   0  0  0  0  0  0  0  0  0  0  0  0
   36.9800   29.2570   50.6250 C   0  0  0  0  0  0  0  0  0  0  0  0
   36.8380   29.0710   49.5590 H   0  0  0  0  0  0  0  0  0  0  0  0
   37.5110   28.3550   51.0390 H   0  0  0  0  0  0  0  0  0  0  0  0
   37.7550   30.5150   50.8250 C   0  0  0  0  0  0  0  0  0  0  0  0
   38.6900   30.2750   51.4040 H   0  0  0  0  0  0  0  0  0  0  0  0
   37.2160   31.2560   51.4790 H   0  0  0  0  0  0  0  0  0  0  0  0
   38.1280   31.2190   49.5960 C   0  0  0  0  0  0  0  0  0  0  0  0
   38.5570   32.5420   49.5960 C   0  0  0  0  0  0  0  0  0  0  0  0
   38.8870   33.1080   48.3560 C   0  0  0  0  0  0  0  0  0  0  0  0
   38.7710   32.3420   47.2260 N   0  0  0  0  0  0  0  0  0  0  0  0
   38.3420   31.0420   47.2870 C   0  0  0  0  0  0  0  0  0  0  0  0
   38.0230   30.4900   48.4780 N   0  0  0  0  0  0  0  0  0  0  0  0
   38.6290   33.1000   50.5180 H   0  0  0  0  0  0  0  0  0  0  0  0
   39.2260   34.1330   48.2970 H   0  0  0  0  0  0  0  0  0  0  0  0
   38.2720   30.4870   46.3580 H   0  0  0  0  0  0  0  0  0  0  0  0
   34.3550   27.9410   49.3440 O   0  0  0  0  0  0  0  0  0  0  0  0
   32.1630   27.6340   48.4360 C   0  0  0  0  0  3  0  0  0  0  0  0
   33.5170   27.8490   48.2390 C   0  0  0  0  0  0  0  0  0  0  0  0
   33.9200   27.9560   46.9290 C   0  0  0  0  0  0  0  0  0  0  0  0
   34.9710   28.1250   46.7510 H   0  0  0  0  0  0  0  0  0  0  0  0
   33.0150   27.8530   45.8860 C   0  0  0  0  0  0  0  0  0  0  0  0
   33.1890   27.9250   44.5720 N   0  0  0  0  0  0  0  0  0  0  0  0
   34.0660   28.0800   44.0030 H   0  0  0  0  0  0  0  0  0  0  0  0
   32.0090   27.7640   43.9590 N   0  0  0  0  0  0  0  0  0  0  0  0
   31.0490   27.5830   44.8990 C   0  0  0  0  0  0  0  0  0  0  0  0
   29.9720   27.4220   44.7590 H   0  0  0  0  0  0  0  0  0  0  0  0
   31.6640   27.6360   46.1320 C   0  0  0  0  0  0  0  0  0  0  0  0
   31.2250   27.5240   47.4210 C   0  0  0  0  0  3  0  0  0  0  0  0
  2  1  2  6  0  0  0
  2  3  1  0  0  0  0
  2  5  1  0  0  0  0
  3  4  1  0  0  0  0
  6  9  1  0  0  0  0
  6  8  1  0  0  0  0
  6  5  1  0  0  0  0
  7  6  1  0  0  0  0
  9 10  1  0  0  0  0
  9 11  1  0  0  0  0
 12  9  1  0  0  0  0
 13 12  1  0  0  0  0
 13 18  1  0  0  0  0
 14 13  2  0  0  0  0
 15 16  2  0  0  0  0
 15 14  1  0  0  0  0
 16 17  1  0  0  0  0
 17 12  2  0  0  0  0
 19 14  1  0  0  0  0
 20 16  1  0  0  0  0
 21  2  1  0  0  0  0
 23 22  1  0  0  0  0
 23 21  1  0  0  0  0
 24 23  2  0  0  0  0
 25 24  1  0  0  0  0
 26 32  2  0  0  0  0
 26 24  1  0  0  0  0
 27 26  1  0  0  0  0
 28 27  1  0  0  0  0
 29 27  1  0  0  0  0
 29 30  2  0  0  0  0
 30 32  1  0  0  0  0
 31 30  1  0  0  0  0
 32 33  1  0  0  0  0
 33 22  2  0  0  0  0
M  END
>  <minimizedAffinity>
-5.37159634

>  <minimizedRMSD>
0.886463165

$$$$
