
 OpenBabel03272510243D

 35 39  0  0  0  0  0  0  0  0999 V2000
   36.6780   30.7690   46.5990 C   0  0  0  0  0  0  0  0  0  0  0  0
   37.7880   31.5670   46.3780 C   0  0  0  0  0  0  0  0  0  0  0  0
   38.3910   31.6100   45.1310 C   0  0  0  0  0  0  0  0  0  0  0  0
   37.8210   30.8160   44.1300 C   0  0  0  0  0  0  0  0  0  0  0  0
   38.2200   30.6840   42.8390 N   0  0  0  0  0  0  0  0  0  0  0  0
   37.3770   29.8200   42.2580 C   0  0  0  0  0  0  0  0  0  0  0  0
   36.4640   29.4040   43.1340 N   0  0  0  0  0  0  0  0  0  0  0  0
   36.7180   30.0100   44.3110 C   0  0  0  0  0  0  0  0  0  0  0  0
   36.1330   29.9880   45.5780 C   0  0  0  0  0  0  0  0  0  0  0  0
   36.2140   30.7360   47.5590 H   0  0  0  0  0  0  0  0  0  0  0  0
   39.2460   32.2250   44.9650 H   0  0  0  0  0  0  0  0  0  0  0  0
   39.0400   31.1730   42.3870 H   0  0  0  0  0  0  0  0  0  0  0  0
   35.2620   29.3610   45.7500 H   0  0  0  0  0  0  0  0  0  0  0  0
   39.7260   33.9320   48.5680 C   0  0  0  0  0  0  0  0  0  0  0  0
   39.3490   33.2520   47.4220 C   0  0  0  0  0  0  0  0  0  0  0  0
   38.2970   32.3530   47.4950 C   0  0  0  0  0  0  0  0  0  0  0  0
   37.6820   32.1830   48.7100 N   0  0  0  0  0  0  0  0  0  0  0  0
   38.0810   32.8650   49.8020 C   0  0  0  0  0  0  0  0  0  0  0  0
   39.0830   33.7230   49.7310 N   0  0  0  0  0  0  0  0  0  0  0  0
   40.5610   34.6210   48.4280 H   0  0  0  0  0  0  0  0  0  0  0  0
   39.8250   33.3730   46.4470 H   0  0  0  0  0  0  0  0  0  0  0  0
   37.5870   32.7270   50.7670 H   0  0  0  0  0  0  0  0  0  0  0  0
   37.5050   29.4570   40.9150 O   0  0  0  0  0  0  0  0  0  0  0  0
   36.0080   28.8220   39.2540 C   0  0  0  0  0  3  0  0  0  0  0  0
   36.6890   28.4590   40.4170 C   0  0  0  0  0  0  0  0  0  0  0  0
   36.4680   27.1750   40.9170 C   0  0  0  0  0  0  0  0  0  0  0  0
   37.0200   26.9690   41.8040 H   0  0  0  0  0  0  0  0  0  0  0  0
   35.6040   26.3320   40.2560 C   0  0  0  0  0  0  0  0  0  0  0  0
   35.2540   25.0710   40.5630 N   0  0  0  0  0  0  0  0  0  0  0  0
   35.5800   24.4960   41.3700 H   0  0  0  0  0  0  0  0  0  0  0  0
   34.3890   24.6170   39.6570 N   0  0  0  0  0  0  0  0  0  0  0  0
   34.1580   25.5720   38.7440 C   0  0  0  0  0  0  0  0  0  0  0  0
   33.5410   25.6300   37.8570 H   0  0  0  0  0  0  0  0  0  0  0  0
   34.9240   26.6750   39.1060 C   0  0  0  0  0  0  0  0  0  0  0  0
   35.1450   27.9620   38.6070 C   0  0  0  0  0  3  0  0  0  0  0  0
  1 10  1  0  0  0  0
  2  1  1  0  0  0  0
  2 16  1  0  0  0  0
  3  2  2  0  0  0  0
  4  8  2  0  0  0  0
  4  3  1  0  0  0  0
  5  4  1  0  0  0  0
  6  5  1  0  0  0  0
  6  7  2  0  0  0  0
  7  8  1  0  0  0  0
  8  9  1  0  0  0  0
  9 13  1  0  0  0  0
  9  1  2  0  0  0  0
 11  3  1  0  0  0  0
 12  5  1  0  0  0  0
 14 19  1  0  0  0  0
 15 16  1  0  0  0  0
 15 14  2  0  0  0  0
 16 17  2  0  0  0  0
 17 18  1  0  0  0  0
 18 22  1  0  0  0  0
 19 18  2  0  0  0  0
 20 14  1  0  0  0  0
 21 15  1  0  0  0  0
 23  6  1  0  0  0  0
 24 25  1  0  0  0  0
 25 23  1  0  0  0  0
 25 26  2  0  0  0  0
 26 27  1  0  0  0  0
 28 29  1  0  0  0  0
 28 26  1  0  0  0  0
 29 30  1  0  0  0  0
 31 29  1  0  0  0  0
 32 34  1  0  0  0  0
 32 31  2  0  0  0  0
 33 32  1  0  0  0  0
 34 28  2  0  0  0  0
 35 34  1  0  0  0  0
 35 24  2  0  0  0  0
M  END
>  <minimizedAffinity>
-3.17049289

>  <minimizedRMSD>
6.32543707

$$$$
