
 OpenBabel03262521473D

 33 35  0  0  0  0  0  0  0  0999 V2000
   34.7320   30.5780   49.1740 O   0  0  0  0  0  0  0  0  0  0  0  0
   34.4690   29.4360   50.1420 P   0  0  2  0  0  0  0  0  0  0  0  0
   33.0250   29.7980   50.9200 O   0  0  0  0  0  0  0  0  0  0  0  0
   33.0820   29.4670   51.8440 H   0  0  0  0  0  0  0  0  0  0  0  0
   35.7590   29.3650   51.2420 O   0  0  0  0  0  0  0  0  0  0  0  0
   36.9840   29.2470   50.5740 C   0  0  0  0  0  0  0  0  0  0  0  0
   36.8260   29.0920   49.5050 H   0  0  0  0  0  0  0  0  0  0  0  0
   37.5270   28.3370   50.9530 H   0  0  0  0  0  0  0  0  0  0  0  0
   37.7550   30.5040   50.7990 C   0  0  0  0  0  0  0  0  0  0  0  0
   38.6840   30.2590   51.3840 H   0  0  0  0  0  0  0  0  0  0  0  0
   37.2080   31.2360   51.4560 H   0  0  0  0  0  0  0  0  0  0  0  0
   38.1390   31.2250   49.5820 C   0  0  0  0  0  0  0  0  0  0  0  0
   38.5630   32.5490   49.6030 C   0  0  0  0  0  0  0  0  0  0  0  0
   38.9040   33.1320   48.3740 C   0  0  0  0  0  0  0  0  0  0  0  0
   38.8050   32.3790   47.2340 N   0  0  0  0  0  0  0  0  0  0  0  0
   38.3800   31.0770   47.2740 C   0  0  0  0  0  0  0  0  0  0  0  0
   38.0500   30.5080   48.4540 N   0  0  0  0  0  0  0  0  0  0  0  0
   38.6210   33.0960   50.5330 H   0  0  0  0  0  0  0  0  0  0  0  0
   39.2400   34.1590   48.3320 H   0  0  0  0  0  0  0  0  0  0  0  0
   38.3240   30.5330   46.3370 H   0  0  0  0  0  0  0  0  0  0  0  0
   34.2970   27.9840   49.3120 O   0  0  0  0  0  0  0  0  0  0  0  0
   33.5500   28.0040   47.0390 C   0  0  0  0  0  3  0  0  0  0  0  0
   33.2660   27.8630   48.3870 C   0  0  0  0  0  0  0  0  0  0  0  0
   31.9520   27.6090   48.6970 C   0  0  0  0  0  0  0  0  0  0  0  0
   31.7060   27.4960   49.7420 H   0  0  0  0  0  0  0  0  0  0  0  0
   30.9850   27.5040   47.7100 C   0  0  0  0  0  0  0  0  0  0  0  0
   29.6810   27.2680   47.7900 N   0  0  0  0  0  0  0  0  0  0  0  0
   29.0640   27.1030   48.6310 H   0  0  0  0  0  0  0  0  0  0  0  0
   29.1570   27.2580   46.5570 N   0  0  0  0  0  0  0  0  0  0  0  0
   30.1450   27.4940   45.6590 C   0  0  0  0  0  0  0  0  0  0  0  0
   30.0780   27.5550   44.5650 H   0  0  0  0  0  0  0  0  0  0  0  0
   31.3170   27.6530   46.3680 C   0  0  0  0  0  0  0  0  0  0  0  0
   32.6130   27.9060   46.0200 C   0  0  0  0  0  3  0  0  0  0  0  0
  2  1  2  6  0  0  0
  2  3  1  0  0  0  0
  2  5  1  0  0  0  0
  3  4  1  0  0  0  0
  6  9  1  0  0  0  0
  6  8  1  0  0  0  0
  6  5  1  0  0  0  0
  7  6  1  0  0  0  0
  9 10  1  0  0  0  0
  9 11  1  0  0  0  0
 12 13  1  0  0  0  0
 12  9  1  0  0  0  0
 13 18  1  0  0  0  0
 14 13  2  0  0  0  0
 15 16  2  0  0  0  0
 15 14  1  0  0  0  0
 16 17  1  0  0  0  0
 17 12  2  0  0  0  0
 19 14  1  0  0  0  0
 20 16  1  0  0  0  0
 21  2  1  0  0  0  0
 22 23  1  0  0  0  0
 23 24  2  0  0  0  0
 23 21  1  0  0  0  0
 24 25  1  0  0  0  0
 26 27  1  0  0  0  0
 26 24  1  0  0  0  0
 27 28  1  0  0  0  0
 29 27  1  0  0  0  0
 30 32  1  0  0  0  0
 30 29  2  0  0  0  0
 31 30  1  0  0  0  0
 32 26  2  0  0  0  0
 33 32  1  0  0  0  0
 33 22  2  0  0  0  0
M  END
>  <minimizedAffinity>
-5.55945349

>  <minimizedRMSD>
1.35792994

$$$$
