
 OpenBabel03262521483D

 33 35  0  0  0  0  0  0  0  0999 V2000
   36.7730   28.0620   34.6090 O   0  0  0  0  0  0  0  0  0  0  0  0
   37.9270   27.1460   34.9790 P   0  0  2  0  0  0  0  0  0  0  0  0
   38.6040   27.7770   36.3800 O   0  0  0  0  0  0  0  0  0  0  0  0
   39.5730   27.6160   36.3540 H   0  0  0  0  0  0  0  0  0  0  0  0
   39.0420   27.1550   33.6990 O   0  0  0  0  0  0  0  0  0  0  0  0
   38.3900   27.0870   32.4620 C   0  0  0  0  0  0  0  0  0  0  0  0
   38.6520   27.9460   31.8420 H   0  0  0  0  0  0  0  0  0  0  0  0
   37.2770   27.1390   32.6270 H   0  0  0  0  0  0  0  0  0  0  0  0
   38.8070   25.8240   31.7880 C   0  0  0  0  0  0  0  0  0  0  0  0
   39.6300   25.3480   32.3890 H   0  0  0  0  0  0  0  0  0  0  0  0
   39.2790   26.0060   30.7820 H   0  0  0  0  0  0  0  0  0  0  0  0
   37.7380   24.8420   31.5880 C   0  0  0  0  0  0  0  0  0  0  0  0
   37.9920   23.4830   31.4460 C   0  0  0  0  0  0  0  0  0  0  0  0
   36.8860   22.6410   31.2610 C   0  0  0  0  0  0  0  0  0  0  0  0
   35.6320   23.1910   31.2300 N   0  0  0  0  0  0  0  0  0  0  0  0
   35.4420   24.5400   31.3750 C   0  0  0  0  0  0  0  0  0  0  0  0
   36.5030   25.3580   31.5550 N   0  0  0  0  0  0  0  0  0  0  0  0
   39.0030   23.1030   31.4780 H   0  0  0  0  0  0  0  0  0  0  0  0
   37.0260   21.5750   31.1440 H   0  0  0  0  0  0  0  0  0  0  0  0
   34.4250   24.9160   31.3420 H   0  0  0  0  0  0  0  0  0  0  0  0
   37.3720   25.5900   35.2890 O   0  0  0  0  0  0  0  0  0  0  0  0
   38.0450   24.2880   37.1800 C   0  0  0  0  0  3  0  0  0  0  0  0
   38.2440   24.6740   35.8650 C   0  0  0  0  0  0  0  0  0  0  0  0
   39.3190   24.0970   35.2310 C   0  0  0  0  0  0  0  0  0  0  0  0
   39.4930   24.3820   34.2040 H   0  0  0  0  0  0  0  0  0  0  0  0
   40.1380   23.1910   35.8810 C   0  0  0  0  0  0  0  0  0  0  0  0
   41.2110   22.5280   35.4620 N   0  0  0  0  0  0  0  0  0  0  0  0
   41.6970   22.5350   34.5240 H   0  0  0  0  0  0  0  0  0  0  0  0
   41.6730   21.7600   36.4560 N   0  0  0  0  0  0  0  0  0  0  0  0
   40.8830   21.9290   37.5450 C   0  0  0  0  0  0  0  0  0  0  0  0
   40.9660   21.4580   38.5330 H   0  0  0  0  0  0  0  0  0  0  0  0
   39.9000   22.8340   37.2030 C   0  0  0  0  0  0  0  0  0  0  0  0
   38.8410   23.3860   37.8680 C   0  0  0  0  0  3  0  0  0  0  0  0
  2  1  2  6  0  0  0
  2 21  1  0  0  0  0
  2  3  1  0  0  0  0
  4  3  1  0  0  0  0
  5  2  1  0  0  0  0
  6  8  1  0  0  0  0
  6  5  1  0  0  0  0
  7  6  1  0  0  0  0
  9 10  1  0  0  0  0
  9  6  1  0  0  0  0
 11  9  1  0  0  0  0
 12  9  1  0  0  0  0
 13 18  1  0  0  0  0
 13 12  2  0  0  0  0
 14 13  1  0  0  0  0
 15 14  2  0  0  0  0
 15 16  1  0  0  0  0
 16 17  2  0  0  0  0
 17 12  1  0  0  0  0
 19 14  1  0  0  0  0
 20 16  1  0  0  0  0
 21 23  1  0  0  0  0
 22 33  1  0  0  0  0
 23 22  2  0  0  0  0
 24 23  1  0  0  0  0
 24 26  2  0  0  0  0
 25 24  1  0  0  0  0
 26 32  1  0  0  0  0
 27 26  1  0  0  0  0
 27 29  1  0  0  0  0
 28 27  1  0  0  0  0
 29 30  2  0  0  0  0
 30 31  1  0  0  0  0
 32 30  1  0  0  0  0
 32 33  2  0  0  0  0
M  END
>  <minimizedAffinity>
-5.16842461

$$$$

 OpenBabel03262521483D

 33 35  0  0  0  0  0  0  0  0999 V2000
   39.6870   27.5170   33.6640 O   0  0  0  0  0  0  0  0  0  0  0  0
   38.8100   26.7350   34.6280 P   0  0  2  0  0  0  0  0  0  0  0  0
   38.8800   27.5460   36.0970 O   0  0  0  0  0  0  0  0  0  0  0  0
   38.8340   26.8800   36.8190 H   0  0  0  0  0  0  0  0  0  0  0  0
   39.4380   25.1640   34.7620 O   0  0  0  0  0  0  0  0  0  0  0  0
   38.7630   24.2780   33.9140 C   0  0  0  0  0  0  0  0  0  0  0  0
   39.4540   23.8280   33.1990 H   0  0  0  0  0  0  0  0  0  0  0  0
   38.0040   24.8490   33.3090 H   0  0  0  0  0  0  0  0  0  0  0  0
   38.1380   23.2180   34.7560 C   0  0  0  0  0  0  0  0  0  0  0  0
   38.4910   22.2130   34.3940 H   0  0  0  0  0  0  0  0  0  0  0  0
   37.0200   23.1710   34.6330 H   0  0  0  0  0  0  0  0  0  0  0  0
   38.4060   23.3250   36.1920 C   0  0  0  0  0  0  0  0  0  0  0  0
   37.5440   23.9810   37.0650 C   0  0  0  0  0  0  0  0  0  0  0  0
   37.9090   24.0160   38.4180 C   0  0  0  0  0  0  0  0  0  0  0  0
   39.0750   23.4130   38.8070 N   0  0  0  0  0  0  0  0  0  0  0  0
   39.8860   22.7800   37.9010 C   0  0  0  0  0  0  0  0  0  0  0  0
   39.5420   22.7410   36.5950 N   0  0  0  0  0  0  0  0  0  0  0  0
   36.6360   24.4410   36.7030 H   0  0  0  0  0  0  0  0  0  0  0  0
   37.2750   24.5140   39.1400 H   0  0  0  0  0  0  0  0  0  0  0  0
   40.7960   22.3200   38.2710 H   0  0  0  0  0  0  0  0  0  0  0  0
   37.2170   26.7090   34.0900 O   0  0  0  0  0  0  0  0  0  0  0  0
   36.1300   28.8060   34.4670 C   0  0  0  0  0  3  0  0  0  0  0  0
   36.6650   27.8810   33.5870 C   0  0  0  0  0  0  0  0  0  0  0  0
   36.5970   28.2160   32.2550 C   0  0  0  0  0  0  0  0  0  0  0  0
   37.0090   27.5100   31.5500 H   0  0  0  0  0  0  0  0  0  0  0  0
   36.0280   29.4070   31.8400 C   0  0  0  0  0  0  0  0  0  0  0  0
   35.8630   29.9180   30.6250 N   0  0  0  0  0  0  0  0  0  0  0  0
   36.1300   29.5330   29.6780 H   0  0  0  0  0  0  0  0  0  0  0  0
   35.2560   31.1070   30.7220 N   0  0  0  0  0  0  0  0  0  0  0  0
   35.0210   31.3730   32.0310 C   0  0  0  0  0  0  0  0  0  0  0  0
   34.5420   32.2540   32.4770 H   0  0  0  0  0  0  0  0  0  0  0  0
   35.5030   30.3070   32.7600 C   0  0  0  0  0  0  0  0  0  0  0  0
   35.5520   30.0100   34.0940 C   0  0  0  0  0  3  0  0  0  0  0  0
  2  1  2  6  0  0  0
  2  5  1  0  0  0  0
  2  3  1  0  0  0  0
  3  4  1  0  0  0  0
  6  9  1  0  0  0  0
  6  5  1  0  0  0  0
  7  6  1  0  0  0  0
  8  6  1  0  0  0  0
  9 12  1  0  0  0  0
 10  9  1  0  0  0  0
 11  9  1  0  0  0  0
 12 17  2  0  0  0  0
 12 13  1  0  0  0  0
 13 14  2  0  0  0  0
 14 15  1  0  0  0  0
 14 19  1  0  0  0  0
 16 20  1  0  0  0  0
 16 15  2  0  0  0  0
 17 16  1  0  0  0  0
 18 13  1  0  0  0  0
 21  2  1  0  0  0  0
 23 21  1  0  0  0  0
 23 22  2  0  0  0  0
 24 23  1  0  0  0  0
 25 24  1  0  0  0  0
 26 24  2  0  0  0  0
 26 32  1  0  0  0  0
 27 29  1  0  0  0  0
 27 26  1  0  0  0  0
 28 27  1  0  0  0  0
 29 30  2  0  0  0  0
 30 31  1  0  0  0  0
 30 32  1  0  0  0  0
 32 33  2  0  0  0  0
 33 22  1  0  0  0  0
M  END
>  <minimizedAffinity>
-5.08248758

$$$$

 OpenBabel03262521483D

 33 35  0  0  0  0  0  0  0  0999 V2000
   37.1150   29.2770   30.9170 O   0  0  0  0  0  0  0  0  0  0  0  0
   36.9700   27.9450   31.6330 P   0  0  2  0  0  0  0  0  0  0  0  0
   36.6600   26.7990   30.4450 O   0  0  0  0  0  0  0  0  0  0  0  0
   36.0520   26.1230   30.8200 H   0  0  0  0  0  0  0  0  0  0  0  0
   35.6750   28.0660   32.7230 O   0  0  0  0  0  0  0  0  0  0  0  0
   35.0340   29.3050   32.6070 C   0  0  0  0  0  0  0  0  0  0  0  0
   34.5300   29.3890   31.6420 H   0  0  0  0  0  0  0  0  0  0  0  0
   35.8040   30.1260   32.6380 H   0  0  0  0  0  0  0  0  0  0  0  0
   34.0390   29.4170   33.7120 C   0  0  0  0  0  0  0  0  0  0  0  0
   33.8610   28.3940   34.1440 H   0  0  0  0  0  0  0  0  0  0  0  0
   33.0220   29.7360   33.3490 H   0  0  0  0  0  0  0  0  0  0  0  0
   34.4120   30.3300   34.7960 C   0  0  0  0  0  0  0  0  0  0  0  0
   35.7050   30.8170   34.9480 C   0  0  0  0  0  0  0  0  0  0  0  0
   35.9390   31.6850   36.0240 C   0  0  0  0  0  0  0  0  0  0  0  0
   34.9000   32.0050   36.8570 N   0  0  0  0  0  0  0  0  0  0  0  0
   33.6440   31.4940   36.6570 C   0  0  0  0  0  0  0  0  0  0  0  0
   33.4100   30.6570   35.6230 N   0  0  0  0  0  0  0  0  0  0  0  0
   36.4880   30.5300   34.2620 H   0  0  0  0  0  0  0  0  0  0  0  0
   36.9280   32.0930   36.1900 H   0  0  0  0  0  0  0  0  0  0  0  0
   32.8620   31.7850   37.3500 H   0  0  0  0  0  0  0  0  0  0  0  0
   38.3960   27.5410   32.4270 O   0  0  0  0  0  0  0  0  0  0  0  0
   38.3660   27.4500   34.8170 C   0  0  0  0  0  3  0  0  0  0  0  0
   38.3190   26.7960   33.5980 C   0  0  0  0  0  0  0  0  0  0  0  0
   38.1970   25.4280   33.6590 C   0  0  0  0  0  0  0  0  0  0  0  0
   38.1580   24.8970   32.7200 H   0  0  0  0  0  0  0  0  0  0  0  0
   38.1270   24.7640   34.8710 C   0  0  0  0  0  0  0  0  0  0  0  0
   38.0100   23.4710   35.1520 N   0  0  0  0  0  0  0  0  0  0  0  0
   37.9420   22.6350   34.5100 H   0  0  0  0  0  0  0  0  0  0  0  0
   37.9830   23.3070   36.4800 N   0  0  0  0  0  0  0  0  0  0  0  0
   38.0860   24.5210   37.0740 C   0  0  0  0  0  0  0  0  0  0  0  0
   38.0970   24.7620   38.1450 H   0  0  0  0  0  0  0  0  0  0  0  0
   38.1780   25.4630   36.0720 C   0  0  0  0  0  0  0  0  0  0  0  0
   38.2990   26.8240   36.0530 C   0  0  0  0  0  3  0  0  0  0  0  0
  2  1  2  6  0  0  0
  2 21  1  0  0  0  0
  2  5  1  0  0  0  0
  3  4  1  0  0  0  0
  3  2  1  0  0  0  0
  6  8  1  0  0  0  0
  6  5  1  0  0  0  0
  6  9  1  0  0  0  0
  7  6  1  0  0  0  0
  9 10  1  0  0  0  0
  9 12  1  0  0  0  0
 11  9  1  0  0  0  0
 12 13  2  0  0  0  0
 12 17  1  0  0  0  0
 13 14  1  0  0  0  0
 14 19  1  0  0  0  0
 14 15  2  0  0  0  0
 16 15  1  0  0  0  0
 16 20  1  0  0  0  0
 17 16  2  0  0  0  0
 18 13  1  0  0  0  0
 21 23  1  0  0  0  0
 22 33  1  0  0  0  0
 23 24  1  0  0  0  0
 23 22  2  0  0  0  0
 24 26  2  0  0  0  0
 25 24  1  0  0  0  0
 26 27  1  0  0  0  0
 26 32  1  0  0  0  0
 27 29  1  0  0  0  0
 28 27  1  0  0  0  0
 29 30  2  0  0  0  0
 30 31  1  0  0  0  0
 32 30  1  0  0  0  0
 33 32  2  0  0  0  0
M  END
>  <minimizedAffinity>
-5.04151249

$$$$

 OpenBabel03262521483D

 33 35  0  0  0  0  0  0  0  0999 V2000
   37.2770   23.1510   37.3550 O   0  0  0  0  0  0  0  0  0  0  0  0
   38.7110   23.1010   36.8540 P   0  0  2  0  0  0  0  0  0  0  0  0
   39.6350   22.5030   38.1230 O   0  0  0  0  0  0  0  0  0  0  0  0
   40.5170   22.9380   38.0930 H   0  0  0  0  0  0  0  0  0  0  0  0
   39.1830   24.6780   36.4380 O   0  0  0  0  0  0  0  0  0  0  0  0
   38.1080   25.5680   36.5390 C   0  0  0  0  0  0  0  0  0  0  0  0
   37.7660   25.6440   37.5730 H   0  0  0  0  0  0  0  0  0  0  0  0
   37.2400   25.1700   35.9430 H   0  0  0  0  0  0  0  0  0  0  0  0
   38.5660   26.9020   36.0540 C   0  0  0  0  0  0  0  0  0  0  0  0
   39.6420   27.0450   36.3490 H   0  0  0  0  0  0  0  0  0  0  0  0
   38.0320   27.7530   36.5630 H   0  0  0  0  0  0  0  0  0  0  0  0
   38.4370   27.1180   34.6110 C   0  0  0  0  0  0  0  0  0  0  0  0
   39.5060   26.9590   33.7360 C   0  0  0  0  0  0  0  0  0  0  0  0
   39.2600   27.1940   32.3750 C   0  0  0  0  0  0  0  0  0  0  0  0
   38.0000   27.5610   31.9830 N   0  0  0  0  0  0  0  0  0  0  0  0
   36.9840   27.7030   32.8920 C   0  0  0  0  0  0  0  0  0  0  0  0
   37.2130   27.4780   34.2050 N   0  0  0  0  0  0  0  0  0  0  0  0
   40.4800   26.6680   34.1000 H   0  0  0  0  0  0  0  0  0  0  0  0
   40.0560   27.0850   31.6510 H   0  0  0  0  0  0  0  0  0  0  0  0
   36.0080   27.9950   32.5200 H   0  0  0  0  0  0  0  0  0  0  0  0
   38.8430   22.0610   35.5400 O   0  0  0  0  0  0  0  0  0  0  0  0
   37.0500   21.3690   34.1150 C   0  0  0  0  0  3  0  0  0  0  0  0
   38.0390   22.2860   34.4290 C   0  0  0  0  0  0  0  0  0  0  0  0
   38.1370   23.3680   33.5870 C   0  0  0  0  0  0  0  0  0  0  0  0
   38.9000   24.0970   33.8120 H   0  0  0  0  0  0  0  0  0  0  0  0
   37.2930   23.5150   32.5000 C   0  0  0  0  0  0  0  0  0  0  0  0
   37.2180   24.4660   31.5760 N   0  0  0  0  0  0  0  0  0  0  0  0
   37.7900   25.3450   31.4500 H   0  0  0  0  0  0  0  0  0  0  0  0
   36.2340   24.1730   30.7170 N   0  0  0  0  0  0  0  0  0  0  0  0
   35.6580   23.0040   31.0920 C   0  0  0  0  0  0  0  0  0  0  0  0
   34.8250   22.4660   30.6200 H   0  0  0  0  0  0  0  0  0  0  0  0
   36.3140   22.5670   32.2230 C   0  0  0  0  0  0  0  0  0  0  0  0
   36.1850   21.4760   33.0370 C   0  0  0  0  0  3  0  0  0  0  0  0
  2  1  2  1  0  0  0
  2  3  1  0  0  0  0
  4  3  1  0  0  0  0
  5  6  1  0  0  0  0
  5  2  1  0  0  0  0
  6  7  1  0  0  0  0
  8  6  1  0  0  0  0
  9 10  1  0  0  0  0
  9  6  1  0  0  0  0
  9 11  1  0  0  0  0
 12  9  1  0  0  0  0
 13 18  1  0  0  0  0
 13 12  2  0  0  0  0
 14 13  1  0  0  0  0
 15 14  2  0  0  0  0
 15 16  1  0  0  0  0
 16 17  2  0  0  0  0
 17 12  1  0  0  0  0
 19 14  1  0  0  0  0
 20 16  1  0  0  0  0
 21  2  1  0  0  0  0
 22 23  1  0  0  0  0
 23 21  1  0  0  0  0
 24 25  1  0  0  0  0
 24 23  2  0  0  0  0
 26 24  1  0  0  0  0
 27 26  1  0  0  0  0
 28 27  1  0  0  0  0
 29 30  2  0  0  0  0
 29 27  1  0  0  0  0
 30 32  1  0  0  0  0
 31 30  1  0  0  0  0
 32 26  2  0  0  0  0
 32 33  1  0  0  0  0
 33 22  2  0  0  0  0
M  END
>  <minimizedAffinity>
-4.94719458

$$$$

 OpenBabel03262521483D

 33 35  0  0  0  0  0  0  0  0999 V2000
   40.0800   23.0620   36.6300 O   0  0  0  0  0  0  0  0  0  0  0  0
   38.6650   23.4040   37.0650 P   0  0  2  0  0  0  0  0  0  0  0  0
   38.5220   22.8910   38.6580 O   0  0  0  0  0  0  0  0  0  0  0  0
   37.6010   22.5760   38.7980 H   0  0  0  0  0  0  0  0  0  0  0  0
   37.5840   22.5760   36.0520 O   0  0  0  0  0  0  0  0  0  0  0  0
   38.2530   21.9990   34.9660 C   0  0  0  0  0  0  0  0  0  0  0  0
   38.2000   20.9100   35.0170 H   0  0  0  0  0  0  0  0  0  0  0  0
   39.3450   22.2690   35.0180 H   0  0  0  0  0  0  0  0  0  0  0  0
   37.6060   22.4830   33.7130 C   0  0  0  0  0  0  0  0  0  0  0  0
   38.3970   22.9140   33.0400 H   0  0  0  0  0  0  0  0  0  0  0  0
   36.9060   23.3470   33.8940 H   0  0  0  0  0  0  0  0  0  0  0  0
   36.8520   21.4700   32.9690 C   0  0  0  0  0  0  0  0  0  0  0  0
   35.8910   20.6660   33.5710 C   0  0  0  0  0  0  0  0  0  0  0  0
   35.2360   19.7330   32.7540 C   0  0  0  0  0  0  0  0  0  0  0  0
   35.5700   19.6620   31.4280 N   0  0  0  0  0  0  0  0  0  0  0  0
   36.5270   20.4820   30.8900 C   0  0  0  0  0  0  0  0  0  0  0  0
   37.1630   21.3840   31.6700 N   0  0  0  0  0  0  0  0  0  0  0  0
   35.6670   20.7640   34.6230 H   0  0  0  0  0  0  0  0  0  0  0  0
   34.4790   19.0810   33.1700 H   0  0  0  0  0  0  0  0  0  0  0  0
   36.7470   20.3780   29.8330 H   0  0  0  0  0  0  0  0  0  0  0  0
   38.4100   25.0650   36.9970 O   0  0  0  0  0  0  0  0  0  0  0  0
   39.6580   26.1230   35.2520 C   0  0  0  0  0  3  0  0  0  0  0  0
   38.4430   25.6940   35.7590 C   0  0  0  0  0  0  0  0  0  0  0  0
   37.3460   25.9370   34.9650 C   0  0  0  0  0  0  0  0  0  0  0  0
   36.3880   25.6100   35.3390 H   0  0  0  0  0  0  0  0  0  0  0  0
   37.4690   26.5710   33.7410 C   0  0  0  0  0  0  0  0  0  0  0  0
   36.5560   26.8990   32.8330 N   0  0  0  0  0  0  0  0  0  0  0  0
   35.5100   26.7510   32.8300 H   0  0  0  0  0  0  0  0  0  0  0  0
   37.1550   27.5050   31.8010 N   0  0  0  0  0  0  0  0  0  0  0  0
   38.4880   27.5730   32.0460 C   0  0  0  0  0  0  0  0  0  0  0  0
   39.2790   28.0020   31.4180 H   0  0  0  0  0  0  0  0  0  0  0  0
   38.7110   26.9850   33.2730 C   0  0  0  0  0  0  0  0  0  0  0  0
   39.8250   26.7620   34.0330 C   0  0  0  0  0  3  0  0  0  0  0  0
  2  1  2  6  0  0  0
  2  3  1  0  0  0  0
  3  4  1  0  0  0  0
  5  2  1  0  0  0  0
  6  7  1  0  0  0  0
  6  8  1  0  0  0  0
  6  5  1  0  0  0  0
  9 11  1  0  0  0  0
  9  6  1  0  0  0  0
 10  9  1  0  0  0  0
 12 13  1  0  0  0  0
 12  9  1  0  0  0  0
 13 18  1  0  0  0  0
 14 19  1  0  0  0  0
 14 13  2  0  0  0  0
 15 14  1  0  0  0  0
 16 15  2  0  0  0  0
 16 17  1  0  0  0  0
 17 12  2  0  0  0  0
 20 16  1  0  0  0  0
 21  2  1  0  0  0  0
 22 23  1  0  0  0  0
 23 21  1  0  0  0  0
 24 25  1  0  0  0  0
 24 23  2  0  0  0  0
 26 24  1  0  0  0  0
 27 26  1  0  0  0  0
 28 27  1  0  0  0  0
 29 30  2  0  0  0  0
 29 27  1  0  0  0  0
 30 32  1  0  0  0  0
 31 30  1  0  0  0  0
 32 26  2  0  0  0  0
 32 33  1  0  0  0  0
 33 22  2  0  0  0  0
M  END
>  <minimizedAffinity>
-4.90568686

$$$$

 OpenBabel03262521483D

 33 35  0  0  0  0  0  0  0  0999 V2000
   38.4840   27.1700   31.9290 O   0  0  0  0  0  0  0  0  0  0  0  0
   37.0330   26.8540   32.2510 P   0  0  2  0  0  0  0  0  0  0  0  0
   36.2330   28.3300   32.3270 O   0  0  0  0  0  0  0  0  0  0  0  0
   35.5340   28.2650   33.0150 H   0  0  0  0  0  0  0  0  0  0  0  0
   36.9840   26.0500   33.7450 O   0  0  0  0  0  0  0  0  0  0  0  0
   38.2690   25.9060   34.2810 C   0  0  0  0  0  0  0  0  0  0  0  0
   38.3560   26.4510   35.2230 H   0  0  0  0  0  0  0  0  0  0  0  0
   39.0190   26.3620   33.5760 H   0  0  0  0  0  0  0  0  0  0  0  0
   38.5140   24.4520   34.5080 C   0  0  0  0  0  0  0  0  0  0  0  0
   39.4480   24.1530   33.9580 H   0  0  0  0  0  0  0  0  0  0  0  0
   37.7150   23.8030   34.0550 H   0  0  0  0  0  0  0  0  0  0  0  0
   38.6440   24.0550   35.9130 C   0  0  0  0  0  0  0  0  0  0  0  0
   37.7800   24.5150   36.9000 C   0  0  0  0  0  0  0  0  0  0  0  0
   38.0050   24.0630   38.2090 C   0  0  0  0  0  0  0  0  0  0  0  0
   39.0460   23.2050   38.4440 N   0  0  0  0  0  0  0  0  0  0  0  0
   39.8660   22.7850   37.4300 C   0  0  0  0  0  0  0  0  0  0  0  0
   39.6560   23.2150   36.1660 N   0  0  0  0  0  0  0  0  0  0  0  0
   36.9740   25.1930   36.6580 H   0  0  0  0  0  0  0  0  0  0  0  0
   37.3630   24.3900   39.0160 H   0  0  0  0  0  0  0  0  0  0  0  0
   40.6730   22.1040   37.6790 H   0  0  0  0  0  0  0  0  0  0  0  0
   36.3460   25.9190   31.0340 O   0  0  0  0  0  0  0  0  0  0  0  0
   37.7560   24.0170   30.6940 C   0  0  0  0  0  3  0  0  0  0  0  0
   36.5310   24.5420   31.0680 C   0  0  0  0  0  0  0  0  0  0  0  0
   35.5810   23.6250   31.4500 C   0  0  0  0  0  0  0  0  0  0  0  0
   34.6180   24.0120   31.7470 H   0  0  0  0  0  0  0  0  0  0  0  0
   35.8500   22.2670   31.4550 C   0  0  0  0  0  0  0  0  0  0  0  0
   35.0900   21.2290   31.7820 N   0  0  0  0  0  0  0  0  0  0  0  0
   34.0890   21.1920   32.1200 H   0  0  0  0  0  0  0  0  0  0  0  0
   35.7910   20.0990   31.6250 N   0  0  0  0  0  0  0  0  0  0  0  0
   37.0350   20.4130   31.1860 C   0  0  0  0  0  0  0  0  0  0  0  0
   37.8700   19.7400   30.9530 H   0  0  0  0  0  0  0  0  0  0  0  0
   37.0960   21.7850   31.0710 C   0  0  0  0  0  0  0  0  0  0  0  0
   38.0670   22.6660   30.6840 C   0  0  0  0  0  3  0  0  0  0  0  0
  2  1  2  6  0  0  0
  2  3  1  0  0  0  0
  2  5  1  0  0  0  0
  3  4  1  0  0  0  0
  5  6  1  0  0  0  0
  6  9  1  0  0  0  0
  6  7  1  0  0  0  0
  8  6  1  0  0  0  0
  9 12  1  0  0  0  0
 10  9  1  0  0  0  0
 11  9  1  0  0  0  0
 12 17  2  0  0  0  0
 12 13  1  0  0  0  0
 13 14  2  0  0  0  0
 14 15  1  0  0  0  0
 14 19  1  0  0  0  0
 16 20  1  0  0  0  0
 16 15  2  0  0  0  0
 17 16  1  0  0  0  0
 18 13  1  0  0  0  0
 21 23  1  0  0  0  0
 21  2  1  0  0  0  0
 22 23  1  0  0  0  0
 23 24  2  0  0  0  0
 24 26  1  0  0  0  0
 24 25  1  0  0  0  0
 26 27  1  0  0  0  0
 27 28  1  0  0  0  0
 29 27  1  0  0  0  0
 30 29  2  0  0  0  0
 31 30  1  0  0  0  0
 32 30  1  0  0  0  0
 32 26  2  0  0  0  0
 33 22  2  0  0  0  0
 33 32  1  0  0  0  0
M  END
>  <minimizedAffinity>
-4.89998531

$$$$

 OpenBabel03262521483D

 33 35  0  0  0  0  0  0  0  0999 V2000
   35.4640   25.8310   31.2100 O   0  0  0  0  0  0  0  0  0  0  0  0
   36.9410   25.8000   31.5680 P   0  0  2  0  0  0  0  0  0  0  0  0
   37.7120   24.9730   30.3260 O   0  0  0  0  0  0  0  0  0  0  0  0
   38.4590   24.4640   30.7130 H   0  0  0  0  0  0  0  0  0  0  0  0
   37.1100   24.9850   33.0470 O   0  0  0  0  0  0  0  0  0  0  0  0
   38.2240   25.4530   33.7550 C   0  0  0  0  0  0  0  0  0  0  0  0
   38.5620   26.4090   33.3510 H   0  0  0  0  0  0  0  0  0  0  0  0
   39.0770   24.7300   33.6230 H   0  0  0  0  0  0  0  0  0  0  0  0
   37.8300   25.6130   35.1840 C   0  0  0  0  0  0  0  0  0  0  0  0
   36.7100   25.5430   35.2610 H   0  0  0  0  0  0  0  0  0  0  0  0
   38.0630   26.6390   35.5850 H   0  0  0  0  0  0  0  0  0  0  0  0
   38.4290   24.6460   36.1080 C   0  0  0  0  0  0  0  0  0  0  0  0
   37.9120   24.4080   37.3760 C   0  0  0  0  0  0  0  0  0  0  0  0
   38.5720   23.4580   38.1690 C   0  0  0  0  0  0  0  0  0  0  0  0
   39.6760   22.8240   37.6620 N   0  0  0  0  0  0  0  0  0  0  0  0
   40.1410   23.1000   36.4030 C   0  0  0  0  0  0  0  0  0  0  0  0
   39.5100   24.0140   35.6330 N   0  0  0  0  0  0  0  0  0  0  0  0
   37.0380   24.9380   37.7250 H   0  0  0  0  0  0  0  0  0  0  0  0
   38.2130   23.2340   39.1640 H   0  0  0  0  0  0  0  0  0  0  0  0
   41.0180   22.5640   36.0580 H   0  0  0  0  0  0  0  0  0  0  0  0
   37.5610   27.3600   31.6590 O   0  0  0  0  0  0  0  0  0  0  0  0
   36.2620   28.6420   33.2050 C   0  0  0  0  0  3  0  0  0  0  0  0
   36.6870   28.4110   31.9080 C   0  0  0  0  0  0  0  0  0  0  0  0
   36.1890   29.2690   30.9560 C   0  0  0  0  0  0  0  0  0  0  0  0
   36.5070   29.1090   29.9370 H   0  0  0  0  0  0  0  0  0  0  0  0
   35.3210   30.2930   31.2920 C   0  0  0  0  0  0  0  0  0  0  0  0
   34.7320   31.2190   30.5430 N   0  0  0  0  0  0  0  0  0  0  0  0
   34.7870   31.3950   29.5030 H   0  0  0  0  0  0  0  0  0  0  0  0
   33.9710   31.9990   31.3200 N   0  0  0  0  0  0  0  0  0  0  0  0
   34.0680   31.5700   32.6030 C   0  0  0  0  0  0  0  0  0  0  0  0
   33.5830   31.9740   33.5000 H   0  0  0  0  0  0  0  0  0  0  0  0
   34.9210   30.4870   32.6100 C   0  0  0  0  0  0  0  0  0  0  0  0
   35.3940   29.6540   33.5850 C   0  0  0  0  0  3  0  0  0  0  0  0
  2  1  2  6  0  0  0
  2 21  1  0  0  0  0
  2  5  1  0  0  0  0
  3  4  1  0  0  0  0
  3  2  1  0  0  0  0
  5  6  1  0  0  0  0
  6  9  1  0  0  0  0
  7  6  1  0  0  0  0
  8  6  1  0  0  0  0
  9 10  1  0  0  0  0
  9 11  1  0  0  0  0
  9 12  1  0  0  0  0
 12 13  1  0  0  0  0
 13 18  1  0  0  0  0
 13 14  2  0  0  0  0
 14 19  1  0  0  0  0
 15 14  1  0  0  0  0
 16 15  2  0  0  0  0
 17 12  2  0  0  0  0
 17 16  1  0  0  0  0
 20 16  1  0  0  0  0
 21 23  1  0  0  0  0
 22 33  1  0  0  0  0
 23 22  2  0  0  0  0
 24 26  2  0  0  0  0
 24 23  1  0  0  0  0
 25 24  1  0  0  0  0
 26 32  1  0  0  0  0
 27 26  1  0  0  0  0
 27 29  1  0  0  0  0
 28 27  1  0  0  0  0
 29 30  2  0  0  0  0
 30 32  1  0  0  0  0
 30 31  1  0  0  0  0
 32 33  2  0  0  0  0
M  END
>  <minimizedAffinity>
-4.8286128

$$$$

 OpenBabel03262521483D

 33 35  0  0  0  0  0  0  0  0999 V2000
   41.4920   24.8360   33.1720 O   0  0  0  0  0  0  0  0  0  0  0  0
   41.3870   25.4010   34.5790 P   0  0  2  0  0  0  0  0  0  0  0  0
   42.0950   26.9230   34.5320 O   0  0  0  0  0  0  0  0  0  0  0  0
   42.5390   27.0830   35.3950 H   0  0  0  0  0  0  0  0  0  0  0  0
   42.2260   24.3650   35.6300 O   0  0  0  0  0  0  0  0  0  0  0  0
   41.8850   23.0270   35.3960 C   0  0  0  0  0  0  0  0  0  0  0  0
   42.7590   22.4580   35.0750 H   0  0  0  0  0  0  0  0  0  0  0  0
   41.1420   22.9760   34.5520 H   0  0  0  0  0  0  0  0  0  0  0  0
   41.3440   22.4600   36.6650 C   0  0  0  0  0  0  0  0  0  0  0  0
   41.8760   22.9400   37.5320 H   0  0  0  0  0  0  0  0  0  0  0  0
   41.5740   21.3640   36.7820 H   0  0  0  0  0  0  0  0  0  0  0  0
   39.8990   22.6160   36.8510 C   0  0  0  0  0  0  0  0  0  0  0  0
   38.9780   22.2430   35.8780 C   0  0  0  0  0  0  0  0  0  0  0  0
   37.6210   22.4410   36.1730 C   0  0  0  0  0  0  0  0  0  0  0  0
   37.2780   22.9820   37.3830 N   0  0  0  0  0  0  0  0  0  0  0  0
   38.2300   23.3320   38.3030 C   0  0  0  0  0  0  0  0  0  0  0  0
   39.5400   23.1440   38.0280 N   0  0  0  0  0  0  0  0  0  0  0  0
   39.3060   21.8200   34.9400 H   0  0  0  0  0  0  0  0  0  0  0  0
   36.8620   22.1690   35.4520 H   0  0  0  0  0  0  0  0  0  0  0  0
   37.8950   23.7550   39.2440 H   0  0  0  0  0  0  0  0  0  0  0  0
   39.7770   25.5560   35.0360 O   0  0  0  0  0  0  0  0  0  0  0  0
   38.6950   27.1140   33.5790 C   0  0  0  0  0  3  0  0  0  0  0  0
   38.8290   25.8210   34.0550 C   0  0  0  0  0  0  0  0  0  0  0  0
   37.9850   24.8900   33.4970 C   0  0  0  0  0  0  0  0  0  0  0  0
   38.0720   23.8740   33.8520 H   0  0  0  0  0  0  0  0  0  0  0  0
   37.0680   25.2410   32.5220 C   0  0  0  0  0  0  0  0  0  0  0  0
   36.1750   24.5130   31.8620 N   0  0  0  0  0  0  0  0  0  0  0  0
   35.9510   23.4820   31.9250 H   0  0  0  0  0  0  0  0  0  0  0  0
   35.5050   25.2980   31.0100 N   0  0  0  0  0  0  0  0  0  0  0  0
   35.9750   26.5660   31.1190 C   0  0  0  0  0  0  0  0  0  0  0  0
   35.6580   27.4640   30.5750 H   0  0  0  0  0  0  0  0  0  0  0  0
   36.9690   26.5540   32.0750 C   0  0  0  0  0  0  0  0  0  0  0  0
   37.7900   27.5090   32.6060 C   0  0  0  0  0  3  0  0  0  0  0  0
  2  1  2  6  0  0  0
  2 21  1  0  0  0  0
  2  5  1  0  0  0  0
  3  2  1  0  0  0  0
  3  4  1  0  0  0  0
  6  5  1  0  0  0  0
  6  9  1  0  0  0  0
  7  6  1  0  0  0  0
  8  6  1  0  0  0  0
  9 11  1  0  0  0  0
  9 12  1  0  0  0  0
  9 10  1  0  0  0  0
 12 17  1  0  0  0  0
 13 14  1  0  0  0  0
 13 12  2  0  0  0  0
 14 15  2  0  0  0  0
 15 16  1  0  0  0  0
 16 20  1  0  0  0  0
 17 16  2  0  0  0  0
 18 13  1  0  0  0  0
 19 14  1  0  0  0  0
 22 23  1  0  0  0  0
 23 21  1  0  0  0  0
 24 25  1  0  0  0  0
 24 23  2  0  0  0  0
 26 24  1  0  0  0  0
 27 28  1  0  0  0  0
 27 26  1  0  0  0  0
 29 30  2  0  0  0  0
 29 27  1  0  0  0  0
 30 32  1  0  0  0  0
 31 30  1  0  0  0  0
 32 26  2  0  0  0  0
 32 33  1  0  0  0  0
 33 22  2  0  0  0  0
M  END
>  <minimizedAffinity>
-4.79508448

$$$$

 OpenBabel03262521483D

 33 35  0  0  0  0  0  0  0  0999 V2000
   38.3190   25.4130   30.4840 O   0  0  0  0  0  0  0  0  0  0  0  0
   37.9580   25.7360   31.9250 P   0  0  2  0  0  0  0  0  0  0  0  0
   36.5080   24.9480   32.2370 O   0  0  0  0  0  0  0  0  0  0  0  0
   35.9810   25.5060   32.8530 H   0  0  0  0  0  0  0  0  0  0  0  0
   37.7860   27.4190   32.0640 O   0  0  0  0  0  0  0  0  0  0  0  0
   36.4500   27.7720   32.2870 C   0  0  0  0  0  0  0  0  0  0  0  0
   35.8000   26.9000   32.1880 H   0  0  0  0  0  0  0  0  0  0  0  0
   36.1240   28.5060   31.4980 H   0  0  0  0  0  0  0  0  0  0  0  0
   36.3440   28.3330   33.6650 C   0  0  0  0  0  0  0  0  0  0  0  0
   37.3410   28.7630   33.9580 H   0  0  0  0  0  0  0  0  0  0  0  0
   36.1530   27.5400   34.4410 H   0  0  0  0  0  0  0  0  0  0  0  0
   35.3150   29.3610   33.8410 C   0  0  0  0  0  0  0  0  0  0  0  0
   35.4450   30.3960   34.7600 C   0  0  0  0  0  0  0  0  0  0  0  0
   34.3930   31.3200   34.8370 C   0  0  0  0  0  0  0  0  0  0  0  0
   33.3080   31.1600   34.0160 N   0  0  0  0  0  0  0  0  0  0  0  0
   33.2350   30.1180   33.1280 C   0  0  0  0  0  0  0  0  0  0  0  0
   34.2440   29.2240   33.0480 N   0  0  0  0  0  0  0  0  0  0  0  0
   36.3230   30.4740   35.3840 H   0  0  0  0  0  0  0  0  0  0  0  0
   34.4420   32.1450   35.5360 H   0  0  0  0  0  0  0  0  0  0  0  0
   32.3500   30.0460   32.5050 H   0  0  0  0  0  0  0  0  0  0  0  0
   39.1360   25.1560   32.9750 O   0  0  0  0  0  0  0  0  0  0  0  0
   38.6970   26.1110   35.1240 C   0  0  0  0  0  3  0  0  0  0  0  0
   38.8100   24.9920   34.3160 C   0  0  0  0  0  0  0  0  0  0  0  0
   38.5830   23.7850   34.9330 C   0  0  0  0  0  0  0  0  0  0  0  0
   38.6650   22.8990   34.3220 H   0  0  0  0  0  0  0  0  0  0  0  0
   38.2630   23.7120   36.2780 C   0  0  0  0  0  0  0  0  0  0  0  0
   38.0090   22.6680   37.0580 N   0  0  0  0  0  0  0  0  0  0  0  0
   37.9910   21.6350   36.8360 H   0  0  0  0  0  0  0  0  0  0  0  0
   37.7480   23.0950   38.2990 N   0  0  0  0  0  0  0  0  0  0  0  0
   37.8350   24.4480   38.3250 C   0  0  0  0  0  0  0  0  0  0  0  0
   37.6830   25.1300   39.1710 H   0  0  0  0  0  0  0  0  0  0  0  0
   38.1610   24.8630   37.0510 C   0  0  0  0  0  0  0  0  0  0  0  0
   38.3800   26.0820   36.4730 C   0  0  0  0  0  3  0  0  0  0  0  0
  2  1  2  6  0  0  0
  2  5  1  0  0  0  0
  2  3  1  0  0  0  0
  2 21  1  0  0  0  0
  3  4  1  0  0  0  0
  5  6  1  0  0  0  0
  6  9  1  0  0  0  0
  7  6  1  0  0  0  0
  8  6  1  0  0  0  0
  9 12  1  0  0  0  0
  9 10  1  0  0  0  0
  9 11  1  0  0  0  0
 12 13  1  0  0  0  0
 13 14  2  0  0  0  0
 13 18  1  0  0  0  0
 14 19  1  0  0  0  0
 15 14  1  0  0  0  0
 16 15  2  0  0  0  0
 17 16  1  0  0  0  0
 17 12  2  0  0  0  0
 20 16  1  0  0  0  0
 21 23  1  0  0  0  0
 22 33  1  0  0  0  0
 23 24  1  0  0  0  0
 23 22  2  0  0  0  0
 24 26  2  0  0  0  0
 25 24  1  0  0  0  0
 26 32  1  0  0  0  0
 26 27  1  0  0  0  0
 27 29  1  0  0  0  0
 28 27  1  0  0  0  0
 29 30  2  0  0  0  0
 30 31  1  0  0  0  0
 32 30  1  0  0  0  0
 33 32  2  0  0  0  0
M  END
>  <minimizedAffinity>
-4.7131176

$$$$
