
 OpenBabel03262521473D

 33 35  0  0  0  0  0  0  0  0999 V2000
   34.6950   30.5990   49.2210 O   0  0  0  0  0  0  0  0  0  0  0  0
   34.5030   29.4440   50.1910 P   0  0  2  0  0  0  0  0  0  0  0  0
   32.9780   29.6430   50.8670 O   0  0  0  0  0  0  0  0  0  0  0  0
   33.0120   29.3310   51.7990 H   0  0  0  0  0  0  0  0  0  0  0  0
   35.7170   29.5370   51.3740 O   0  0  0  0  0  0  0  0  0  0  0  0
   36.9800   29.2980   50.8190 C   0  0  0  0  0  0  0  0  0  0  0  0
   36.8900   28.9940   49.7740 H   0  0  0  0  0  0  0  0  0  0  0  0
   37.4660   28.4390   51.3610 H   0  0  0  0  0  0  0  0  0  0  0  0
   37.7740   30.5560   50.9170 C   0  0  0  0  0  0  0  0  0  0  0  0
   38.7260   30.3400   51.4770 H   0  0  0  0  0  0  0  0  0  0  0  0
   37.2660   31.3410   51.5430 H   0  0  0  0  0  0  0  0  0  0  0  0
   38.1110   31.1820   49.6360 C   0  0  0  0  0  0  0  0  0  0  0  0
   38.5660   32.4930   49.5430 C   0  0  0  0  0  0  0  0  0  0  0  0
   38.8570   32.9800   48.2610 C   0  0  0  0  0  0  0  0  0  0  0  0
   38.6810   32.1550   47.1820 N   0  0  0  0  0  0  0  0  0  0  0  0
   38.2290   30.8700   47.3340 C   0  0  0  0  0  0  0  0  0  0  0  0
   37.9470   30.3930   48.5660 N   0  0  0  0  0  0  0  0  0  0  0  0
   38.6860   33.1000   50.4290 H   0  0  0  0  0  0  0  0  0  0  0  0
   39.2130   33.9930   48.1310 H   0  0  0  0  0  0  0  0  0  0  0  0
   38.1110   30.2660   46.4420 H   0  0  0  0  0  0  0  0  0  0  0  0
   34.5570   27.9730   49.3790 O   0  0  0  0  0  0  0  0  0  0  0  0
   33.6640   26.7980   47.4970 C   0  0  0  0  0  3  0  0  0  0  0  0
   34.2260   27.9450   48.0290 C   0  0  0  0  0  0  0  0  0  0  0  0
   34.4120   28.9830   47.1480 C   0  0  0  0  0  0  0  0  0  0  0  0
   34.8490   29.8890   47.5400 H   0  0  0  0  0  0  0  0  0  0  0  0
   34.0530   28.8700   45.8150 C   0  0  0  0  0  0  0  0  0  0  0  0
   34.1430   29.7350   44.8120 N   0  0  0  0  0  0  0  0  0  0  0  0
   34.5140   30.7240   44.7900 H   0  0  0  0  0  0  0  0  0  0  0  0
   33.6630   29.1710   43.6960 N   0  0  0  0  0  0  0  0  0  0  0  0
   33.2530   27.9120   43.9840 C   0  0  0  0  0  0  0  0  0  0  0  0
   32.8090   27.1640   43.3130 H   0  0  0  0  0  0  0  0  0  0  0  0
   33.4900   27.6970   45.3250 C   0  0  0  0  0  0  0  0  0  0  0  0
   33.2900   26.6430   46.1700 C   0  0  0  0  0  3  0  0  0  0  0  0
  2  1  2  6  0  0  0
  2  3  1  0  0  0  0
  2  5  1  0  0  0  0
  3  4  1  0  0  0  0
  6  9  1  0  0  0  0
  6  8  1  0  0  0  0
  6  5  1  0  0  0  0
  7  6  1  0  0  0  0
  9 10  1  0  0  0  0
  9 11  1  0  0  0  0
 12  9  1  0  0  0  0
 13 12  1  0  0  0  0
 13 18  1  0  0  0  0
 14 13  2  0  0  0  0
 15 16  2  0  0  0  0
 15 14  1  0  0  0  0
 16 17  1  0  0  0  0
 17 12  2  0  0  0  0
 19 14  1  0  0  0  0
 20 16  1  0  0  0  0
 21  2  1  0  0  0  0
 22 23  1  0  0  0  0
 23 21  1  0  0  0  0
 24 25  1  0  0  0  0
 24 23  2  0  0  0  0
 26 24  1  0  0  0  0
 27 26  1  0  0  0  0
 28 27  1  0  0  0  0
 29 30  2  0  0  0  0
 29 27  1  0  0  0  0
 30 32  1  0  0  0  0
 31 30  1  0  0  0  0
 32 26  2  0  0  0  0
 32 33  1  0  0  0  0
 33 22  2  0  0  0  0
M  END
>  <minimizedAffinity>
-5.43496037

>  <minimizedRMSD>
0.363187373

$$$$
