REMARK  Name = 
REMARK  7 active torsions:
REMARK  status: ('A' for Active; 'I' for Inactive)
REMARK    1  A    between atoms: C_1  and  C_2
REMARK    2  A    between atoms: C_1  and  C_8
REMARK    3  A    between atoms: C_8  and  O_9
REMARK    4  A    between atoms: O_9  and  P_11
REMARK    5  A    between atoms: P_11  and  O_12
REMARK    6  A    between atoms: P_11  and  O_13
REMARK    7  A    between atoms: O_13  and  C_23
REMARK                            x       y       z     vdW  Elec       q    Type
REMARK                         _______ _______ _______ _____ _____    ______ ____
ROOT
ATOM      1  O   UNL     1      34.690  30.541  49.134  0.00  0.00    +0.000 OA
ATOM      2  P   UNL     1      34.455  29.389  50.097  0.00  0.00    +0.000 P 
ENDROOT
BRANCH   2   3
ATOM      3  O   UNL     1      32.968  29.675  50.824  0.00  0.00    +0.000 OA
ATOM      4  H   UNL     1      33.011  29.350  51.751  0.00  0.00    +0.000 HD
ENDBRANCH   2   3
BRANCH   2   5
ATOM      5  O   UNL     1      35.709  29.390  51.241  0.00  0.00    +0.000 OA
BRANCH   5   6
ATOM      6  C   UNL     1      36.956  29.247  50.621  0.00  0.00    +0.000 C 
ATOM      7  H   UNL     1      36.835  29.057  49.553  0.00  0.00    +0.000 HD
ATOM      8  H   UNL     1      37.482  28.348  51.049  0.00  0.00    +0.000 HD
BRANCH   6   9
ATOM      9  C   UNL     1      37.724  30.508  50.831  0.00  0.00    +0.000 C 
ATOM     10  H   UNL     1      38.651  30.273  51.423  0.00  0.00    +0.000 HD
ATOM     11  H   UNL     1      37.173  31.248  51.476  0.00  0.00    +0.000 HD
BRANCH   9  12
ATOM     12  C   UNL     1      38.111  31.213  49.606  0.00  0.00    +0.000 A 
ATOM     13  C   UNL     1      38.539  32.536  49.611  0.00  0.00    +0.000 A 
ATOM     14  C   UNL     1      38.883  33.102  48.375  0.00  0.00    +0.000 A 
ATOM     15  N   UNL     1      38.782  32.336  47.244  0.00  0.00    +0.000 NA
ATOM     16  C   UNL     1      38.353  31.036  47.300  0.00  0.00    +0.000 A 
ATOM     17  N   UNL     1      38.020  30.483  48.487  0.00  0.00    +0.000 NA
ATOM     18  H   UNL     1      38.599  33.094  50.534  0.00  0.00    +0.000 HD
ATOM     19  H   UNL     1      39.222  34.128  48.321  0.00  0.00    +0.000 HD
ATOM     20  H   UNL     1      38.295  30.481  46.370  0.00  0.00    +0.000 HD
ENDBRANCH   9  12
ENDBRANCH   6   9
ENDBRANCH   5   6
ENDBRANCH   2   5
BRANCH   2  21
ATOM     21  O   UNL     1      34.390  27.928  49.268  0.00  0.00    +0.000 OA
BRANCH  21  23
ATOM     22  C   UNL     1      34.569  28.714  47.016  0.00  0.00    +0.000 A 
ATOM     23  C   UNL     1      33.929  27.926  47.957  0.00  0.00    +0.000 A 
ATOM     24  C   UNL     1      32.863  27.191  47.494  0.00  0.00    +0.000 A 
ATOM     25  H   UNL     1      32.349  26.568  48.210  0.00  0.00    +0.000 HD
ATOM     26  C   UNL     1      32.470  27.248  46.168  0.00  0.00    +0.000 A 
ATOM     27  N   UNL     1      31.486  26.632  45.523  0.00  0.00    +0.000 N 
ATOM     28  H   UNL     1      30.763  25.945  45.872  0.00  0.00    +0.000 HD
ATOM     29  N   UNL     1      31.496  27.006  44.238  0.00  0.00    +0.000 NA
ATOM     30  C   UNL     1      32.510  27.886  44.045  0.00  0.00    +0.000 A 
ATOM     31  H   UNL     1      32.811  28.394  43.120  0.00  0.00    +0.000 HD
ATOM     32  C   UNL     1      33.143  28.055  45.258  0.00  0.00    +0.000 A 
ATOM     33  C   UNL     1      34.208  28.801  45.680  0.00  0.00    +0.000 A 
ENDBRANCH  21  23
ENDBRANCH   2  21
TORSDOF 7
