REMARK  Name = 
REMARK  3 active torsions:
REMARK  status: ('A' for Active; 'I' for Inactive)
REMARK    1  A    between atoms: C_2  and  C_12
REMARK    2  A    between atoms: C_6  and  O_16
REMARK    3  A    between atoms: O_16  and  C_25
REMARK                            x       y       z     vdW  Elec       q    Type
REMARK                         _______ _______ _______ _____ _____    ______ ____
ROOT
ATOM      1  C   UNL     1      36.859  30.548  46.909  0.00  0.00    +0.000 A 
ATOM      2  C   UNL     1      37.517  31.032  48.027  0.00  0.00    +0.000 A 
ATOM      3  C   UNL     1      38.510  31.992  47.904  0.00  0.00    +0.000 A 
ATOM      4  C   UNL     1      38.799  32.432  46.608  0.00  0.00    +0.000 A 
ATOM      5  N   UNL     1      39.718  33.355  46.225  0.00  0.00    +0.000 N 
ATOM      6  C   UNL     1      39.640  33.451  44.891  0.00  0.00    +0.000 A 
ATOM      7  N   UNL     1      38.708  32.624  44.421  0.00  0.00    +0.000 NA
ATOM      8  C   UNL     1      38.167  31.975  45.472  0.00  0.00    +0.000 A 
ATOM      9  C   UNL     1      37.172  31.009  45.629  0.00  0.00    +0.000 A 
ATOM     10  H   UNL     1      36.095  29.810  47.005  0.00  0.00    +0.000 HD
ATOM     11  H   UNL     1      39.014  32.361  48.767  0.00  0.00    +0.000 HD
ATOM     12  H   UNL     1      40.367  33.891  46.863  0.00  0.00    +0.000 HD
ATOM     13  H   UNL     1      36.656  30.630  44.750  0.00  0.00    +0.000 HD
ENDROOT
BRANCH   2  16
ATOM     14  C   UNL     1      37.384  30.073  51.661  0.00  0.00    +0.000 A 
ATOM     15  C   UNL     1      37.874  30.631  50.492  0.00  0.00    +0.000 A 
ATOM     16  C   UNL     1      37.133  30.501  49.329  0.00  0.00    +0.000 A 
ATOM     17  N   UNL     1      35.944  29.819  49.399  0.00  0.00    +0.000 NA
ATOM     18  C   UNL     1      35.503  29.291  50.558  0.00  0.00    +0.000 A 
ATOM     19  N   UNL     1      36.210  29.416  51.667  0.00  0.00    +0.000 NA
ATOM     20  H   UNL     1      38.025  30.219  52.533  0.00  0.00    +0.000 HD
ATOM     21  H   UNL     1      38.817  31.176  50.416  0.00  0.00    +0.000 HD
ATOM     22  H   UNL     1      34.555  28.750  50.609  0.00  0.00    +0.000 HD
ENDBRANCH   2  16
BRANCH   6  23
ATOM     23  O   UNL     1      40.458  34.321  44.166  0.00  0.00    +0.000 OA
BRANCH  23  25
ATOM     24  C   UNL     1      40.628  35.614  42.241  0.00  0.00    +0.000 A 
ATOM     25  C   UNL     1      40.323  34.368  42.791  0.00  0.00    +0.000 A 
ATOM     26  C   UNL     1      39.932  33.356  41.913  0.00  0.00    +0.000 A 
ATOM     27  H   UNL     1      39.716  32.435  42.403  0.00  0.00    +0.000 HD
ATOM     28  C   UNL     1      39.864  33.621  40.564  0.00  0.00    +0.000 A 
ATOM     29  N   UNL     1      39.516  32.800  39.559  0.00  0.00    +0.000 N 
ATOM     30  H   UNL     1      39.230  31.799  39.621  0.00  0.00    +0.000 HD
ATOM     31  N   UNL     1      39.584  33.459  38.403  0.00  0.00    +0.000 NA
ATOM     32  C   UNL     1      39.977  34.721  38.632  0.00  0.00    +0.000 A 
ATOM     33  H   UNL     1      40.160  35.578  37.998  0.00  0.00    +0.000 HD
ATOM     34  C   UNL     1      40.162  34.846  40.005  0.00  0.00    +0.000 A 
ATOM     35  C   UNL     1      40.553  35.859  40.886  0.00  0.00    +0.000 A 
ENDBRANCH  23  25
ENDBRANCH   6  23
TORSDOF 3
