
 OpenBabel03262521473D

 33 35  0  0  0  0  0  0  0  0999 V2000
   34.7230   30.7180   49.3440 O   0  0  0  0  0  0  0  0  0  0  0  0
   34.4930   29.4820   50.1990 P   0  0  2  0  0  0  0  0  0  0  0  0
   33.0160   29.7060   50.9670 O   0  0  0  0  0  0  0  0  0  0  0  0
   33.0680   29.2960   51.8600 H   0  0  0  0  0  0  0  0  0  0  0  0
   35.7600   29.3720   51.3240 O   0  0  0  0  0  0  0  0  0  0  0  0
   36.9930   29.2190   50.6790 C   0  0  0  0  0  0  0  0  0  0  0  0
   36.8480   29.0040   49.6190 H   0  0  0  0  0  0  0  0  0  0  0  0
   37.5320   28.3320   51.1150 H   0  0  0  0  0  0  0  0  0  0  0  0
   37.7610   30.4870   50.8420 C   0  0  0  0  0  0  0  0  0  0  0  0
   38.7030   30.2690   51.4160 H   0  0  0  0  0  0  0  0  0  0  0  0
   37.2230   31.2390   51.4850 H   0  0  0  0  0  0  0  0  0  0  0  0
   38.1140   31.1670   49.5930 C   0  0  0  0  0  0  0  0  0  0  0  0
   38.5570   32.4840   49.5610 C   0  0  0  0  0  0  0  0  0  0  0  0
   38.8660   33.0250   48.3040 C   0  0  0  0  0  0  0  0  0  0  0  0
   38.7190   32.2410   47.1910 N   0  0  0  0  0  0  0  0  0  0  0  0
   38.2770   30.9480   47.2840 C   0  0  0  0  0  0  0  0  0  0  0  0
   37.9780   30.4190   48.4910 N   0  0  0  0  0  0  0  0  0  0  0  0
   38.6540   33.0570   50.4710 H   0  0  0  0  0  0  0  0  0  0  0  0
   39.2150   34.0460   48.2210 H   0  0  0  0  0  0  0  0  0  0  0  0
   38.1820   30.3780   46.3660 H   0  0  0  0  0  0  0  0  0  0  0  0
   34.4110   28.1050   49.2390 O   0  0  0  0  0  0  0  0  0  0  0  0
   32.2520   27.5370   48.3820 C   0  0  0  0  0  3  0  0  0  0  0  0
   33.5090   28.0820   48.1830 C   0  0  0  0  0  0  0  0  0  0  0  0
   33.7570   28.5650   46.9200 C   0  0  0  0  0  0  0  0  0  0  0  0
   34.7310   28.9950   46.7410 H   0  0  0  0  0  0  0  0  0  0  0  0
   32.7980   28.5030   45.9230 C   0  0  0  0  0  0  0  0  0  0  0  0
   32.8290   28.9030   44.6580 N   0  0  0  0  0  0  0  0  0  0  0  0
   33.5990   29.3700   44.1050 H   0  0  0  0  0  0  0  0  0  0  0  0
   31.6540   28.6300   44.0760 N   0  0  0  0  0  0  0  0  0  0  0  0
   30.8420   28.0380   44.9880 C   0  0  0  0  0  0  0  0  0  0  0  0
   29.8120   27.6810   44.8610 H   0  0  0  0  0  0  0  0  0  0  0  0
   31.5480   27.9460   46.1690 C   0  0  0  0  0  0  0  0  0  0  0  0
   31.2630   27.4550   47.4120 C   0  0  0  0  0  3  0  0  0  0  0  0
  2  1  2  6  0  0  0
  2  3  1  0  0  0  0
  2  5  1  0  0  0  0
  3  4  1  0  0  0  0
  6  9  1  0  0  0  0
  6  8  1  0  0  0  0
  6  5  1  0  0  0  0
  7  6  1  0  0  0  0
  9 10  1  0  0  0  0
  9 11  1  0  0  0  0
 12  9  1  0  0  0  0
 13 12  1  0  0  0  0
 13 18  1  0  0  0  0
 14 13  2  0  0  0  0
 15 16  2  0  0  0  0
 15 14  1  0  0  0  0
 16 17  1  0  0  0  0
 17 12  2  0  0  0  0
 19 14  1  0  0  0  0
 20 16  1  0  0  0  0
 21  2  1  0  0  0  0
 23 22  1  0  0  0  0
 23 21  1  0  0  0  0
 24 23  2  0  0  0  0
 25 24  1  0  0  0  0
 26 32  2  0  0  0  0
 26 24  1  0  0  0  0
 27 26  1  0  0  0  0
 28 27  1  0  0  0  0
 29 27  1  0  0  0  0
 29 30  2  0  0  0  0
 30 32  1  0  0  0  0
 31 30  1  0  0  0  0
 32 33  1  0  0  0  0
 33 22  2  0  0  0  0
M  END
>  <minimizedAffinity>
-5.36628008

>  <minimizedRMSD>
0.909791231

$$$$
