
 OpenBabel03272506103D

 47 51  0  0  0  0  0  0  0  0999 V2000
   36.6790   25.8930   32.2610 C   0  0  0  0  0  0  0  0  0  0  0  0
   35.7740   25.3960   31.8280 H   0  0  0  0  0  0  0  0  0  0  0  0
   36.2740   26.5510   33.0620 H   0  0  0  0  0  0  0  0  0  0  0  0
   37.5630   24.8370   32.8760 C   0  0  0  0  0  0  0  0  0  0  0  0
   38.2160   23.8750   32.0180 C   0  0  0  0  0  0  0  0  0  0  0  0
   39.0900   22.9110   33.2070 S   0  0  0  0  0  0  0  0  0  0  0  0
   38.4900   23.8930   34.6940 C   0  0  0  0  0  0  0  0  0  0  0  0
   37.8080   24.6980   34.1460 N   0  0  0  0  0  0  0  0  0  0  0  0
   38.7500   23.7550   36.1150 N   0  0  0  0  0  0  0  0  0  0  0  0
   40.0310   23.2170   36.4710 C   0  0  0  0  0  0  0  0  0  0  0  0
   40.0990   22.6850   37.8680 C   0  0  0  0  0  0  0  0  0  0  0  0
   38.8140   22.6720   38.5560 N   0  0  0  0  0  0  0  0  0  0  0  0
   38.2830   24.0340   38.4480 C   0  0  0  0  0  0  0  0  0  0  0  0
   37.7400   24.1540   37.0530 C   0  0  0  0  0  0  0  0  0  0  0  0
   38.1450   23.8210   30.9750 H   0  0  0  0  0  0  0  0  0  0  0  0
   40.8600   23.9590   36.3220 H   0  0  0  0  0  0  0  0  0  0  0  0
   40.2570   22.3840   35.7730 H   0  0  0  0  0  0  0  0  0  0  0  0
   40.4770   21.6370   37.8950 H   0  0  0  0  0  0  0  0  0  0  0  0
   40.8020   23.2860   38.4870 H   0  0  0  0  0  0  0  0  0  0  0  0
   38.9760   22.4780   39.5490 H   0  0  0  0  0  0  0  0  0  0  0  0
   39.0710   24.7630   38.6370 H   0  0  0  0  0  0  0  0  0  0  0  0
   37.4650   24.1240   39.2080 H   0  0  0  0  0  0  0  0  0  0  0  0
   37.5240   25.2380   36.8720 H   0  0  0  0  0  0  0  0  0  0  0  0
   36.7920   23.5960   36.9440 H   0  0  0  0  0  0  0  0  0  0  0  0
   37.3820   26.6440   31.2070 C   0  0  0  0  0  0  0  0  0  0  0  0
   37.2420   26.2020   30.2060 H   0  0  0  0  0  0  0  0  0  0  0  0
   38.4870   26.6730   31.3910 H   0  0  0  0  0  0  0  0  0  0  0  0
   36.6300   30.1150   30.1030 C   0  0  0  0  0  0  0  0  0  0  0  0
   35.9560   30.6550   31.2110 C   0  0  0  0  0  0  0  0  0  0  0  0
   35.7820   29.8090   32.3020 C   0  0  0  0  0  0  0  0  0  0  0  0
   36.2490   28.5470   32.2580 N   0  0  0  0  0  0  0  0  0  0  0  0
   36.8980   28.0800   31.1480 C   0  0  0  0  0  0  0  0  0  0  0  0
   37.0810   28.8560   30.0960 N   0  0  0  0  0  0  0  0  0  0  0  0
   36.7590   30.7860   29.2590 H   0  0  0  0  0  0  0  0  0  0  0  0
   35.5920   31.6530   31.2350 H   0  0  0  0  0  0  0  0  0  0  0  0
   33.7890   29.8470   33.6840 C   0  0  0  0  0  3  0  0  0  0  0  0
   35.1020   30.2340   33.5190 C   0  0  0  0  0  0  0  0  0  0  0  0
   35.6740   30.9890   34.5110 C   0  0  0  0  0  0  0  0  0  0  0  0
   36.6850   31.3000   34.4070 H   0  0  0  0  0  0  0  0  0  0  0  0
   34.9780   31.3590   35.6400 C   0  0  0  0  0  0  0  0  0  0  0  0
   35.2570   32.0730   36.7500 N   0  0  0  0  0  0  0  0  0  0  0  0
   36.1770   32.5270   36.9650 H   0  0  0  0  0  0  0  0  0  0  0  0
   34.1960   32.1300   37.5540 N   0  0  0  0  0  0  0  0  0  0  0  0
   33.1630   31.4640   37.0270 C   0  0  0  0  0  0  0  0  0  0  0  0
   32.1710   31.3110   37.4040 H   0  0  0  0  0  0  0  0  0  0  0  0
   33.6640   30.9880   35.8350 C   0  0  0  0  0  0  0  0  0  0  0  0
   33.0750   30.2190   34.8300 C   0  0  0  0  0  3  0  0  0  0  0  0
  1  4  1  0  0  0  0
  1  3  1  0  0  0  0
  2  1  1  0  0  0  0
  4  8  1  0  0  0  0
  5  4  2  0  0  0  0
  5  6  1  0  0  0  0
  6  7  1  0  0  0  0
  7  9  1  0  0  0  0
  8  7  2  0  0  0  0
  9 10  1  0  0  0  0
  9 14  1  0  0  0  0
 10 11  1  0  0  0  0
 11 18  1  0  0  0  0
 11 19  1  0  0  0  0
 11 12  1  0  0  0  0
 12 20  1  0  0  0  0
 13 12  1  0  0  0  0
 13 21  1  0  0  0  0
 13 22  1  0  0  0  0
 14 13  1  0  0  0  0
 15  5  1  0  0  0  0
 16 10  1  0  0  0  0
 17 10  1  0  0  0  0
 23 14  1  0  0  0  0
 24 14  1  0  0  0  0
 25 27  1  0  0  0  0
 25  1  1  0  0  0  0
 26 25  1  0  0  0  0
 28 29  1  0  0  0  0
 29 35  1  0  0  0  0
 29 30  2  0  0  0  0
 30 37  1  0  0  0  0
 31 30  1  0  0  0  0
 32 25  1  0  0  0  0
 32 31  2  0  0  0  0
 33 28  2  0  0  0  0
 33 32  1  0  0  0  0
 34 28  1  0  0  0  0
 36 47  1  0  0  0  0
 37 36  2  0  0  0  0
 37 38  1  0  0  0  0
 38 40  2  0  0  0  0
 39 38  1  0  0  0  0
 40 46  1  0  0  0  0
 40 41  1  0  0  0  0
 41 42  1  0  0  0  0
 41 43  1  0  0  0  0
 44 45  1  0  0  0  0
 44 43  2  0  0  0  0
 46 44  1  0  0  0  0
 47 46  2  0  0  0  0
M  END
>  <minimizedAffinity>
-6.72320604

$$$$

 OpenBabel03272506103D

 47 51  0  0  0  0  0  0  0  0999 V2000
   37.4890   25.5680   31.0010 C   0  0  0  0  0  0  0  0  0  0  0  0
   38.4110   26.1500   31.2540 H   0  0  0  0  0  0  0  0  0  0  0  0
   37.1050   26.0500   30.0760 H   0  0  0  0  0  0  0  0  0  0  0  0
   37.8840   24.1430   30.7000 C   0  0  0  0  0  0  0  0  0  0  0  0
   39.0530   23.8910   29.8890 C   0  0  0  0  0  0  0  0  0  0  0  0
   39.0550   22.1280   29.8520 S   0  0  0  0  0  0  0  0  0  0  0  0
   37.5130   21.9360   30.9120 C   0  0  0  0  0  0  0  0  0  0  0  0
   37.2570   23.0790   31.1110 N   0  0  0  0  0  0  0  0  0  0  0  0
   36.8000   20.7620   31.3800 N   0  0  0  0  0  0  0  0  0  0  0  0
   37.5940   19.5880   31.5980 C   0  0  0  0  0  0  0  0  0  0  0  0
   36.8030   18.3190   31.6460 C   0  0  0  0  0  0  0  0  0  0  0  0
   35.3950   18.4910   31.3100 N   0  0  0  0  0  0  0  0  0  0  0  0
   34.8960   19.5530   32.1890 C   0  0  0  0  0  0  0  0  0  0  0  0
   35.3820   20.8430   31.5920 C   0  0  0  0  0  0  0  0  0  0  0  0
   39.6860   24.6090   29.4660 H   0  0  0  0  0  0  0  0  0  0  0  0
   38.2190   19.6640   32.5280 H   0  0  0  0  0  0  0  0  0  0  0  0
   38.3230   19.5090   30.7650 H   0  0  0  0  0  0  0  0  0  0  0  0
   37.2000   17.5560   30.9380 H   0  0  0  0  0  0  0  0  0  0  0  0
   36.8500   17.8600   32.6580 H   0  0  0  0  0  0  0  0  0  0  0  0
   34.8940   17.6300   31.5460 H   0  0  0  0  0  0  0  0  0  0  0  0
   35.2710   19.4130   33.2020 H   0  0  0  0  0  0  0  0  0  0  0  0
   33.7770   19.4950   32.1640 H   0  0  0  0  0  0  0  0  0  0  0  0
   35.2020   21.6490   32.3480 H   0  0  0  0  0  0  0  0  0  0  0  0
   34.8140   21.1010   30.6790 H   0  0  0  0  0  0  0  0  0  0  0  0
   36.5360   25.6410   32.1220 C   0  0  0  0  0  0  0  0  0  0  0  0
   36.0340   24.6790   32.3160 H   0  0  0  0  0  0  0  0  0  0  0  0
   35.7260   26.3900   31.9250 H   0  0  0  0  0  0  0  0  0  0  0  0
   37.6180   27.5110   35.1500 C   0  0  0  0  0  0  0  0  0  0  0  0
   38.5920   26.6650   35.7080 C   0  0  0  0  0  0  0  0  0  0  0  0
   38.8440   25.4790   35.0250 C   0  0  0  0  0  0  0  0  0  0  0  0
   38.1710   25.1950   33.8940 N   0  0  0  0  0  0  0  0  0  0  0  0
   37.2340   26.0620   33.4010 C   0  0  0  0  0  0  0  0  0  0  0  0
   36.9700   27.1960   34.0240 N   0  0  0  0  0  0  0  0  0  0  0  0
   37.4320   28.4320   35.6930 H   0  0  0  0  0  0  0  0  0  0  0  0
   39.1170   26.8980   36.6010 H   0  0  0  0  0  0  0  0  0  0  0  0
   41.0850   24.5540   34.9280 C   0  0  0  0  0  3  0  0  0  0  0  0
   39.8260   24.5050   35.4870 C   0  0  0  0  0  0  0  0  0  0  0  0
   39.5860   23.5460   36.4380 C   0  0  0  0  0  0  0  0  0  0  0  0
   38.6240   23.4870   36.8840 H   0  0  0  0  0  0  0  0  0  0  0  0
   40.5580   22.6520   36.8330 C   0  0  0  0  0  0  0  0  0  0  0  0
   40.6230   21.6320   37.7130 N   0  0  0  0  0  0  0  0  0  0  0  0
   39.8370   21.3050   38.3240 H   0  0  0  0  0  0  0  0  0  0  0  0
   41.8360   21.0790   37.7050 N   0  0  0  0  0  0  0  0  0  0  0  0
   42.6350   21.6970   36.8290 C   0  0  0  0  0  0  0  0  0  0  0  0
   43.6600   21.5110   36.5740 H   0  0  0  0  0  0  0  0  0  0  0  0
   41.8260   22.6750   36.2930 C   0  0  0  0  0  0  0  0  0  0  0  0
   42.0770   23.6490   35.3250 C   0  0  0  0  0  3  0  0  0  0  0  0
  1  2  1  0  0  0  0
  1 25  1  0  0  0  0
  3  1  1  0  0  0  0
  4  1  1  0  0  0  0
  4  8  1  0  0  0  0
  5  4  2  0  0  0  0
  6  5  1  0  0  0  0
  6  7  1  0  0  0  0
  7  8  2  0  0  0  0
  7  9  1  0  0  0  0
  9 14  1  0  0  0  0
  9 10  1  0  0  0  0
 10 11  1  0  0  0  0
 10 16  1  0  0  0  0
 11 19  1  0  0  0  0
 12 20  1  0  0  0  0
 12 11  1  0  0  0  0
 12 13  1  0  0  0  0
 13 21  1  0  0  0  0
 14 13  1  0  0  0  0
 14 23  1  0  0  0  0
 15  5  1  0  0  0  0
 17 10  1  0  0  0  0
 18 11  1  0  0  0  0
 22 13  1  0  0  0  0
 24 14  1  0  0  0  0
 25 26  1  0  0  0  0
 25 32  1  0  0  0  0
 27 25  1  0  0  0  0
 28 34  1  0  0  0  0
 28 29  1  0  0  0  0
 29 35  1  0  0  0  0
 30 37  1  0  0  0  0
 30 29  2  0  0  0  0
 31 30  1  0  0  0  0
 32 31  2  0  0  0  0
 32 33  1  0  0  0  0
 33 28  2  0  0  0  0
 36 47  2  0  0  0  0
 36 37  1  0  0  0  0
 37 38  2  0  0  0  0
 38 40  1  0  0  0  0
 38 39  1  0  0  0  0
 40 41  1  0  0  0  0
 41 42  1  0  0  0  0
 43 41  1  0  0  0  0
 44 43  2  0  0  0  0
 45 44  1  0  0  0  0
 46 44  1  0  0  0  0
 46 40  2  0  0  0  0
 47 46  1  0  0  0  0
M  END
>  <minimizedAffinity>
-6.55509901

$$$$

 OpenBabel03272506103D

 47 51  0  0  0  0  0  0  0  0999 V2000
   37.5720   27.0400   35.3310 C   0  0  0  0  0  0  0  0  0  0  0  0
   38.2190   27.7320   35.9270 H   0  0  0  0  0  0  0  0  0  0  0  0
   36.7490   26.7650   36.0280 H   0  0  0  0  0  0  0  0  0  0  0  0
   37.0060   27.7980   34.1560 C   0  0  0  0  0  0  0  0  0  0  0  0
   35.7810   28.5470   34.3230 C   0  0  0  0  0  0  0  0  0  0  0  0
   35.5770   29.2120   32.7030 S   0  0  0  0  0  0  0  0  0  0  0  0
   37.1330   28.4220   32.0000 C   0  0  0  0  0  0  0  0  0  0  0  0
   37.5250   27.8480   32.9640 N   0  0  0  0  0  0  0  0  0  0  0  0
   37.7280   28.4650   30.6770 N   0  0  0  0  0  0  0  0  0  0  0  0
   37.5050   29.6650   29.9250 C   0  0  0  0  0  0  0  0  0  0  0  0
   37.7370   29.5140   28.4550 C   0  0  0  0  0  0  0  0  0  0  0  0
   37.9970   28.1410   28.0390 N   0  0  0  0  0  0  0  0  0  0  0  0
   39.0980   27.6650   28.8820 C   0  0  0  0  0  0  0  0  0  0  0  0
   38.4850   27.3370   30.2130 C   0  0  0  0  0  0  0  0  0  0  0  0
   35.2150   28.6300   35.1990 H   0  0  0  0  0  0  0  0  0  0  0  0
   38.1180   30.5260   30.3050 H   0  0  0  0  0  0  0  0  0  0  0  0
   36.4490   29.9720   30.0780 H   0  0  0  0  0  0  0  0  0  0  0  0
   36.8600   29.8580   27.8590 H   0  0  0  0  0  0  0  0  0  0  0  0
   38.6010   30.1320   28.1230 H   0  0  0  0  0  0  0  0  0  0  0  0
   38.3270   28.1490   27.0700 H   0  0  0  0  0  0  0  0  0  0  0  0
   39.8650   28.4340   28.9720 H   0  0  0  0  0  0  0  0  0  0  0  0
   39.5090   26.7460   28.3900 H   0  0  0  0  0  0  0  0  0  0  0  0
   39.3260   27.1770   30.9370 H   0  0  0  0  0  0  0  0  0  0  0  0
   37.8970   26.4030   30.1640 H   0  0  0  0  0  0  0  0  0  0  0  0
   38.3640   25.8770   34.8960 C   0  0  0  0  0  0  0  0  0  0  0  0
   39.3500   26.1620   34.4920 H   0  0  0  0  0  0  0  0  0  0  0  0
   37.8420   25.3030   34.0870 H   0  0  0  0  0  0  0  0  0  0  0  0
   38.0490   23.9680   38.0730 C   0  0  0  0  0  0  0  0  0  0  0  0
   39.1720   23.1250   38.0420 C   0  0  0  0  0  0  0  0  0  0  0  0
   40.0010   23.2390   36.9310 C   0  0  0  0  0  0  0  0  0  0  0  0
   39.7080   24.1230   35.9580 N   0  0  0  0  0  0  0  0  0  0  0  0
   38.5980   24.9180   36.0470 C   0  0  0  0  0  0  0  0  0  0  0  0
   37.7900   24.8350   37.0880 N   0  0  0  0  0  0  0  0  0  0  0  0
   37.4110   23.8680   38.9450 H   0  0  0  0  0  0  0  0  0  0  0  0
   39.3940   22.4310   38.8150 H   0  0  0  0  0  0  0  0  0  0  0  0
   42.1820   22.9050   35.9220 C   0  0  0  0  0  3  0  0  0  0  0  0
   41.2010   22.4280   36.7640 C   0  0  0  0  0  0  0  0  0  0  0  0
   41.4230   21.2250   37.3860 C   0  0  0  0  0  0  0  0  0  0  0  0
   40.6820   20.8360   38.0400 H   0  0  0  0  0  0  0  0  0  0  0  0
   42.5800   20.5040   37.1880 C   0  0  0  0  0  0  0  0  0  0  0  0
   43.0700   19.3320   37.6410 N   0  0  0  0  0  0  0  0  0  0  0  0
   42.5850   18.6880   38.3100 H   0  0  0  0  0  0  0  0  0  0  0  0
   44.2730   19.0910   37.1190 N   0  0  0  0  0  0  0  0  0  0  0  0
   44.6430   20.0800   36.3000 C   0  0  0  0  0  0  0  0  0  0  0  0
   45.5390   20.2050   35.7230 H   0  0  0  0  0  0  0  0  0  0  0  0
   43.5790   20.9540   36.3520 C   0  0  0  0  0  0  0  0  0  0  0  0
   43.3610   22.1770   35.7160 C   0  0  0  0  0  3  0  0  0  0  0  0
  1  2  1  0  0  0  0
  1  3  1  0  0  0  0
  4  5  2  0  0  0  0
  4  1  1  0  0  0  0
  5 15  1  0  0  0  0
  6  5  1  0  0  0  0
  7  6  1  0  0  0  0
  7  8  2  0  0  0  0
  8  4  1  0  0  0  0
  9  7  1  0  0  0  0
 10 17  1  0  0  0  0
 10 16  1  0  0  0  0
 10  9  1  0  0  0  0
 11 10  1  0  0  0  0
 12 11  1  0  0  0  0
 12 13  1  0  0  0  0
 13 21  1  0  0  0  0
 13 14  1  0  0  0  0
 14  9  1  0  0  0  0
 14 23  1  0  0  0  0
 18 11  1  0  0  0  0
 19 11  1  0  0  0  0
 20 12  1  0  0  0  0
 22 13  1  0  0  0  0
 24 14  1  0  0  0  0
 25  1  1  0  0  0  0
 25 32  1  0  0  0  0
 26 25  1  0  0  0  0
 27 25  1  0  0  0  0
 28 34  1  0  0  0  0
 29 28  1  0  0  0  0
 29 35  1  0  0  0  0
 30 29  2  0  0  0  0
 31 32  2  0  0  0  0
 31 30  1  0  0  0  0
 32 33  1  0  0  0  0
 33 28  2  0  0  0  0
 36 37  1  0  0  0  0
 37 30  1  0  0  0  0
 37 38  2  0  0  0  0
 38 39  1  0  0  0  0
 40 38  1  0  0  0  0
 40 41  1  0  0  0  0
 41 42  1  0  0  0  0
 43 41  1  0  0  0  0
 44 46  1  0  0  0  0
 44 43  2  0  0  0  0
 45 44  1  0  0  0  0
 46 40  2  0  0  0  0
 47 36  2  0  0  0  0
 47 46  1  0  0  0  0
M  END
>  <minimizedAffinity>
-6.50421619

$$$$

 OpenBabel03272506103D

 47 51  0  0  0  0  0  0  0  0999 V2000
   36.1050   28.7670   34.3720 C   0  0  0  0  0  0  0  0  0  0  0  0
   35.1600   28.5110   34.9140 H   0  0  0  0  0  0  0  0  0  0  0  0
   36.7200   29.3020   35.1290 H   0  0  0  0  0  0  0  0  0  0  0  0
   36.7970   27.4870   33.9730 C   0  0  0  0  0  0  0  0  0  0  0  0
   36.9740   27.1870   32.5710 C   0  0  0  0  0  0  0  0  0  0  0  0
   37.8060   25.6360   32.6680 S   0  0  0  0  0  0  0  0  0  0  0  0
   37.8200   25.5690   34.5470 C   0  0  0  0  0  0  0  0  0  0  0  0
   37.2680   26.5930   34.7920 N   0  0  0  0  0  0  0  0  0  0  0  0
   38.3380   24.5830   35.4780 N   0  0  0  0  0  0  0  0  0  0  0  0
   39.4800   23.8390   35.0340 C   0  0  0  0  0  0  0  0  0  0  0  0
   39.7110   22.5700   35.7940 C   0  0  0  0  0  0  0  0  0  0  0  0
   38.6480   22.2490   36.7380 N   0  0  0  0  0  0  0  0  0  0  0  0
   38.4790   23.4390   37.5770 C   0  0  0  0  0  0  0  0  0  0  0  0
   37.6950   24.4170   36.7500 C   0  0  0  0  0  0  0  0  0  0  0  0
   36.6670   27.7770   31.7630 H   0  0  0  0  0  0  0  0  0  0  0  0
   40.4210   24.4520   35.0530 H   0  0  0  0  0  0  0  0  0  0  0  0
   39.3250   23.5790   33.9660 H   0  0  0  0  0  0  0  0  0  0  0  0
   39.8000   21.6910   35.1150 H   0  0  0  0  0  0  0  0  0  0  0  0
   40.6630   22.6180   36.3670 H   0  0  0  0  0  0  0  0  0  0  0  0
   38.9660   21.4840   37.3410 H   0  0  0  0  0  0  0  0  0  0  0  0
   39.4510   23.8410   37.8620 H   0  0  0  0  0  0  0  0  0  0  0  0
   37.8980   23.1180   38.4800 H   0  0  0  0  0  0  0  0  0  0  0  0
   37.7340   25.4050   37.2770 H   0  0  0  0  0  0  0  0  0  0  0  0
   36.6350   24.1160   36.6720 H   0  0  0  0  0  0  0  0  0  0  0  0
   35.7910   29.6020   33.1990 C   0  0  0  0  0  0  0  0  0  0  0  0
   36.1040   29.1350   32.2500 H   0  0  0  0  0  0  0  0  0  0  0  0
   36.3050   30.5960   33.2510 H   0  0  0  0  0  0  0  0  0  0  0  0
   32.4240   30.6960   32.0590 C   0  0  0  0  0  0  0  0  0  0  0  0
   31.5880   30.2770   33.1080 C   0  0  0  0  0  0  0  0  0  0  0  0
   32.2090   29.6310   34.1720 C   0  0  0  0  0  0  0  0  0  0  0  0
   33.5410   29.4380   34.1610 N   0  0  0  0  0  0  0  0  0  0  0  0
   34.3010   29.8710   33.1090 C   0  0  0  0  0  0  0  0  0  0  0  0
   33.7440   30.4880   32.0820 N   0  0  0  0  0  0  0  0  0  0  0  0
   31.9260   31.1990   31.2360 H   0  0  0  0  0  0  0  0  0  0  0  0
   30.5380   30.4340   33.1080 H   0  0  0  0  0  0  0  0  0  0  0  0
   30.1170   28.9160   35.1720 C   0  0  0  0  0  3  0  0  0  0  0  0
   31.4680   29.1400   35.3280 C   0  0  0  0  0  0  0  0  0  0  0  0
   32.0190   28.8850   36.5580 C   0  0  0  0  0  0  0  0  0  0  0  0
   33.0580   29.0500   36.7040 H   0  0  0  0  0  0  0  0  0  0  0  0
   31.2650   28.4220   37.6140 C   0  0  0  0  0  0  0  0  0  0  0  0
   31.5110   28.0900   38.8980 N   0  0  0  0  0  0  0  0  0  0  0  0
   32.4460   28.1380   39.3690 H   0  0  0  0  0  0  0  0  0  0  0  0
   30.3950   27.6880   39.5040 N   0  0  0  0  0  0  0  0  0  0  0  0
   29.3560   27.7290   38.6640 C   0  0  0  0  0  0  0  0  0  0  0  0
   28.3250   27.4760   38.8220 H   0  0  0  0  0  0  0  0  0  0  0  0
   29.9120   28.1880   37.4890 C   0  0  0  0  0  0  0  0  0  0  0  0
   29.3440   28.4440   36.2410 C   0  0  0  0  0  3  0  0  0  0  0  0
  1  2  1  0  0  0  0
  1  3  1  0  0  0  0
  4  1  1  0  0  0  0
  4  8  1  0  0  0  0
  5  6  1  0  0  0  0
  5  4  2  0  0  0  0
  6  7  1  0  0  0  0
  7  8  2  0  0  0  0
  7  9  1  0  0  0  0
  9 14  1  0  0  0  0
 10 16  1  0  0  0  0
 10  9  1  0  0  0  0
 10 11  1  0  0  0  0
 11 19  1  0  0  0  0
 11 12  1  0  0  0  0
 12 20  1  0  0  0  0
 12 13  1  0  0  0  0
 13 21  1  0  0  0  0
 13 22  1  0  0  0  0
 14 23  1  0  0  0  0
 14 13  1  0  0  0  0
 15  5  1  0  0  0  0
 17 10  1  0  0  0  0
 18 11  1  0  0  0  0
 24 14  1  0  0  0  0
 25 27  1  0  0  0  0
 25  1  1  0  0  0  0
 26 25  1  0  0  0  0
 28 33  2  0  0  0  0
 28 29  1  0  0  0  0
 29 35  1  0  0  0  0
 29 30  2  0  0  0  0
 30 37  1  0  0  0  0
 31 30  1  0  0  0  0
 32 25  1  0  0  0  0
 32 31  2  0  0  0  0
 33 32  1  0  0  0  0
 34 28  1  0  0  0  0
 36 37  2  0  0  0  0
 36 47  1  0  0  0  0
 37 38  1  0  0  0  0
 38 39  1  0  0  0  0
 38 40  2  0  0  0  0
 40 41  1  0  0  0  0
 41 42  1  0  0  0  0
 41 43  1  0  0  0  0
 44 45  1  0  0  0  0
 44 43  2  0  0  0  0
 46 40  1  0  0  0  0
 46 44  1  0  0  0  0
 47 46  2  0  0  0  0
M  END
>  <minimizedAffinity>
-6.47712755

$$$$

 OpenBabel03272506103D

 47 51  0  0  0  0  0  0  0  0999 V2000
   40.4090   25.5180   31.4130 C   0  0  0  0  0  0  0  0  0  0  0  0
   41.4120   25.9850   31.2370 H   0  0  0  0  0  0  0  0  0  0  0  0
   40.5850   24.4290   31.2760 H   0  0  0  0  0  0  0  0  0  0  0  0
   39.9940   25.7860   32.8390 C   0  0  0  0  0  0  0  0  0  0  0  0
   39.6980   27.1410   33.2450 C   0  0  0  0  0  0  0  0  0  0  0  0
   39.2840   26.8940   34.9410 S   0  0  0  0  0  0  0  0  0  0  0  0
   39.5510   25.0330   34.9100 C   0  0  0  0  0  0  0  0  0  0  0  0
   39.8710   24.8900   33.7740 N   0  0  0  0  0  0  0  0  0  0  0  0
   39.4190   24.0180   35.9390 N   0  0  0  0  0  0  0  0  0  0  0  0
   38.4370   24.2720   36.9520 C   0  0  0  0  0  0  0  0  0  0  0  0
   38.6250   23.4650   38.1980 C   0  0  0  0  0  0  0  0  0  0  0  0
   39.8560   22.6840   38.2120 N   0  0  0  0  0  0  0  0  0  0  0  0
   39.8520   21.9000   36.9730 C   0  0  0  0  0  0  0  0  0  0  0  0
   40.2550   22.8520   35.8830 C   0  0  0  0  0  0  0  0  0  0  0  0
   39.7400   27.9960   32.6430 H   0  0  0  0  0  0  0  0  0  0  0  0
   37.3890   24.1250   36.5760 H   0  0  0  0  0  0  0  0  0  0  0  0
   38.4980   25.3470   37.2250 H   0  0  0  0  0  0  0  0  0  0  0  0
   38.6540   24.1070   39.1080 H   0  0  0  0  0  0  0  0  0  0  0  0
   37.7790   22.7570   38.3430 H   0  0  0  0  0  0  0  0  0  0  0  0
   39.8170   22.0270   38.9970 H   0  0  0  0  0  0  0  0  0  0  0  0
   38.8620   21.4810   36.7940 H   0  0  0  0  0  0  0  0  0  0  0  0
   40.6140   21.0890   37.1010 H   0  0  0  0  0  0  0  0  0  0  0  0
   40.0560   22.3430   34.9060 H   0  0  0  0  0  0  0  0  0  0  0  0
   41.3350   23.0820   35.9320 H   0  0  0  0  0  0  0  0  0  0  0  0
   39.4360   26.0650   30.4530 C   0  0  0  0  0  0  0  0  0  0  0  0
   39.6480   25.7620   29.4140 H   0  0  0  0  0  0  0  0  0  0  0  0
   39.4320   27.1860   30.4640 H   0  0  0  0  0  0  0  0  0  0  0  0
   35.7880   25.9750   31.1720 C   0  0  0  0  0  0  0  0  0  0  0  0
   35.5480   24.6090   31.3990 C   0  0  0  0  0  0  0  0  0  0  0  0
   36.6480   23.7630   31.2960 C   0  0  0  0  0  0  0  0  0  0  0  0
   37.8600   24.2660   30.9950 N   0  0  0  0  0  0  0  0  0  0  0  0
   38.0290   25.6080   30.7870 C   0  0  0  0  0  0  0  0  0  0  0  0
   37.0060   26.4390   30.8760 N   0  0  0  0  0  0  0  0  0  0  0  0
   34.9210   26.6230   31.2560 H   0  0  0  0  0  0  0  0  0  0  0  0
   34.5880   24.2230   31.6360 H   0  0  0  0  0  0  0  0  0  0  0  0
   37.7220   21.6020   31.5390 C   0  0  0  0  0  3  0  0  0  0  0  0
   36.5490   22.3240   31.5040 C   0  0  0  0  0  0  0  0  0  0  0  0
   35.3720   21.6380   31.6700 C   0  0  0  0  0  0  0  0  0  0  0  0
   34.4540   22.1720   31.6480 H   0  0  0  0  0  0  0  0  0  0  0  0
   35.3430   20.2740   31.8630 C   0  0  0  0  0  0  0  0  0  0  0  0
   34.3780   19.3510   32.0490 N   0  0  0  0  0  0  0  0  0  0  0  0
   33.3490   19.5460   32.0810 H   0  0  0  0  0  0  0  0  0  0  0  0
   34.9080   18.1360   32.1890 N   0  0  0  0  0  0  0  0  0  0  0  0
   36.2420   18.1860   32.1050 C   0  0  0  0  0  0  0  0  0  0  0  0
   36.9710   17.4020   32.1730 H   0  0  0  0  0  0  0  0  0  0  0  0
   36.4990   19.5240   31.9020 C   0  0  0  0  0  0  0  0  0  0  0  0
   37.7000   20.2150   31.7350 C   0  0  0  0  0  3  0  0  0  0  0  0
  1  4  1  0  0  0  0
  2  1  1  0  0  0  0
  3  1  1  0  0  0  0
  4  5  2  0  0  0  0
  4  8  1  0  0  0  0
  5  6  1  0  0  0  0
  7  6  1  0  0  0  0
  7  9  1  0  0  0  0
  8  7  2  0  0  0  0
  9 10  1  0  0  0  0
 10 17  1  0  0  0  0
 10 11  1  0  0  0  0
 11 12  1  0  0  0  0
 11 19  1  0  0  0  0
 11 18  1  0  0  0  0
 12 20  1  0  0  0  0
 13 22  1  0  0  0  0
 13 12  1  0  0  0  0
 14 24  1  0  0  0  0
 14  9  1  0  0  0  0
 14 13  1  0  0  0  0
 15  5  1  0  0  0  0
 16 10  1  0  0  0  0
 21 13  1  0  0  0  0
 23 14  1  0  0  0  0
 25 27  1  0  0  0  0
 25 32  1  0  0  0  0
 25  1  1  0  0  0  0
 26 25  1  0  0  0  0
 28 34  1  0  0  0  0
 28 29  1  0  0  0  0
 29 35  1  0  0  0  0
 30 29  2  0  0  0  0
 30 37  1  0  0  0  0
 31 30  1  0  0  0  0
 32 33  1  0  0  0  0
 32 31  2  0  0  0  0
 33 28  2  0  0  0  0
 36 47  1  0  0  0  0
 37 36  2  0  0  0  0
 37 38  1  0  0  0  0
 38 40  2  0  0  0  0
 39 38  1  0  0  0  0
 40 46  1  0  0  0  0
 40 41  1  0  0  0  0
 41 42  1  0  0  0  0
 41 43  1  0  0  0  0
 44 45  1  0  0  0  0
 44 43  2  0  0  0  0
 46 44  1  0  0  0  0
 47 46  2  0  0  0  0
M  END
>  <minimizedAffinity>
-6.35758018

$$$$

 OpenBabel03272506103D

 47 51  0  0  0  0  0  0  0  0999 V2000
   39.2040   25.5710   33.7820 C   0  0  0  0  0  0  0  0  0  0  0  0
   40.3170   25.5690   33.9060 H   0  0  0  0  0  0  0  0  0  0  0  0
   39.0500   25.6870   32.6870 H   0  0  0  0  0  0  0  0  0  0  0  0
   38.6650   24.2340   34.2280 C   0  0  0  0  0  0  0  0  0  0  0  0
   38.8910   23.8000   35.5870 C   0  0  0  0  0  0  0  0  0  0  0  0
   38.0810   22.2330   35.5720 S   0  0  0  0  0  0  0  0  0  0  0  0
   37.5420   22.3410   33.7740 C   0  0  0  0  0  0  0  0  0  0  0  0
   37.9920   23.4020   33.4870 N   0  0  0  0  0  0  0  0  0  0  0  0
   36.7930   21.4260   32.9310 N   0  0  0  0  0  0  0  0  0  0  0  0
   35.8290   20.6010   33.5980 C   0  0  0  0  0  0  0  0  0  0  0  0
   35.4070   19.4010   32.8110 C   0  0  0  0  0  0  0  0  0  0  0  0
   36.1660   19.2080   31.5810 N   0  0  0  0  0  0  0  0  0  0  0  0
   36.0810   20.4760   30.8500 C   0  0  0  0  0  0  0  0  0  0  0  0
   37.0550   21.4020   31.5200 C   0  0  0  0  0  0  0  0  0  0  0  0
   39.4060   24.3230   36.3320 H   0  0  0  0  0  0  0  0  0  0  0  0
   34.9140   21.1780   33.9020 H   0  0  0  0  0  0  0  0  0  0  0  0
   36.2800   20.2500   34.5490 H   0  0  0  0  0  0  0  0  0  0  0  0
   35.5210   18.4600   33.3970 H   0  0  0  0  0  0  0  0  0  0  0  0
   34.3320   19.4660   32.5320 H   0  0  0  0  0  0  0  0  0  0  0  0
   35.7000   18.4910   31.0180 H   0  0  0  0  0  0  0  0  0  0  0  0
   35.0650   20.8660   30.8880 H   0  0  0  0  0  0  0  0  0  0  0  0
   36.3890   20.2620   29.7940 H   0  0  0  0  0  0  0  0  0  0  0  0
   36.8600   22.4320   31.1250 H   0  0  0  0  0  0  0  0  0  0  0  0
   38.0980   21.1350   31.2690 H   0  0  0  0  0  0  0  0  0  0  0  0
   38.6230   26.6770   34.5610 C   0  0  0  0  0  0  0  0  0  0  0  0
   39.3700   27.4430   34.8330 H   0  0  0  0  0  0  0  0  0  0  0  0
   38.1750   26.3140   35.5220 H   0  0  0  0  0  0  0  0  0  0  0  0
   36.2900   27.7660   31.8770 C   0  0  0  0  0  0  0  0  0  0  0  0
   35.4780   28.7060   32.5320 C   0  0  0  0  0  0  0  0  0  0  0  0
   35.7580   28.9360   33.8760 C   0  0  0  0  0  0  0  0  0  0  0  0
   36.7630   28.2720   34.4780 N   0  0  0  0  0  0  0  0  0  0  0  0
   37.5190   27.3680   33.7840 C   0  0  0  0  0  0  0  0  0  0  0  0
   37.2800   27.1260   32.5080 N   0  0  0  0  0  0  0  0  0  0  0  0
   36.0600   27.5970   30.8300 H   0  0  0  0  0  0  0  0  0  0  0  0
   34.6880   29.2250   32.0480 H   0  0  0  0  0  0  0  0  0  0  0  0
   33.6280   29.8930   34.5320 C   0  0  0  0  0  3  0  0  0  0  0  0
   34.9980   29.8830   34.6820 C   0  0  0  0  0  0  0  0  0  0  0  0
   35.5490   30.7630   35.5780 C   0  0  0  0  0  0  0  0  0  0  0  0
   36.6020   30.7750   35.7120 H   0  0  0  0  0  0  0  0  0  0  0  0
   34.7760   31.6360   36.3130 C   0  0  0  0  0  0  0  0  0  0  0  0
   35.0170   32.5860   37.2390 N   0  0  0  0  0  0  0  0  0  0  0  0
   35.9620   32.8550   37.6020 H   0  0  0  0  0  0  0  0  0  0  0  0
   33.8800   33.1520   37.6410 N   0  0  0  0  0  0  0  0  0  0  0  0
   32.8310   32.6140   37.0100 C   0  0  0  0  0  0  0  0  0  0  0  0
   31.7840   32.8320   37.0940 H   0  0  0  0  0  0  0  0  0  0  0  0
   33.4040   31.6700   36.1860 C   0  0  0  0  0  0  0  0  0  0  0  0
   32.8360   30.7770   35.2760 C   0  0  0  0  0  3  0  0  0  0  0  0
  1  2  1  0  0  0  0
  1  4  1  0  0  0  0
  1 25  1  0  0  0  0
  3  1  1  0  0  0  0
  4  5  2  0  0  0  0
  5 15  1  0  0  0  0
  6  5  1  0  0  0  0
  7  6  1  0  0  0  0
  8  7  2  0  0  0  0
  8  4  1  0  0  0  0
  9 10  1  0  0  0  0
  9  7  1  0  0  0  0
 10 16  1  0  0  0  0
 10 17  1  0  0  0  0
 11 18  1  0  0  0  0
 11 10  1  0  0  0  0
 12 11  1  0  0  0  0
 13 21  1  0  0  0  0
 13 14  1  0  0  0  0
 13 12  1  0  0  0  0
 14  9  1  0  0  0  0
 19 11  1  0  0  0  0
 20 12  1  0  0  0  0
 22 13  1  0  0  0  0
 23 14  1  0  0  0  0
 24 14  1  0  0  0  0
 25 26  1  0  0  0  0
 25 27  1  0  0  0  0
 28 33  2  0  0  0  0
 28 29  1  0  0  0  0
 29 30  2  0  0  0  0
 30 31  1  0  0  0  0
 30 37  1  0  0  0  0
 32 31  2  0  0  0  0
 32 25  1  0  0  0  0
 33 32  1  0  0  0  0
 34 28  1  0  0  0  0
 35 29  1  0  0  0  0
 36 37  2  0  0  0  0
 36 47  1  0  0  0  0
 37 38  1  0  0  0  0
 38 39  1  0  0  0  0
 38 40  2  0  0  0  0
 40 41  1  0  0  0  0
 41 42  1  0  0  0  0
 41 43  1  0  0  0  0
 44 45  1  0  0  0  0
 44 43  2  0  0  0  0
 46 40  1  0  0  0  0
 46 44  1  0  0  0  0
 47 46  2  0  0  0  0
M  END
>  <minimizedAffinity>
-6.3482604

$$$$

 OpenBabel03272506103D

 47 51  0  0  0  0  0  0  0  0999 V2000
   37.6490   27.2730   35.3220 C   0  0  0  0  0  0  0  0  0  0  0  0
   38.3000   28.0950   35.7150 H   0  0  0  0  0  0  0  0  0  0  0  0
   36.9920   27.0100   36.1800 H   0  0  0  0  0  0  0  0  0  0  0  0
   36.8090   27.8200   34.1940 C   0  0  0  0  0  0  0  0  0  0  0  0
   37.1010   27.4180   32.8370 C   0  0  0  0  0  0  0  0  0  0  0  0
   35.8670   28.3150   31.9540 S   0  0  0  0  0  0  0  0  0  0  0  0
   35.1130   29.1120   33.4810 C   0  0  0  0  0  0  0  0  0  0  0  0
   35.8110   28.6450   34.3220 N   0  0  0  0  0  0  0  0  0  0  0  0
   34.0030   30.0330   33.6460 N   0  0  0  0  0  0  0  0  0  0  0  0
   32.9510   29.9300   32.6770 C   0  0  0  0  0  0  0  0  0  0  0  0
   32.0710   31.1390   32.6040 C   0  0  0  0  0  0  0  0  0  0  0  0
   32.5380   32.2550   33.4180 N   0  0  0  0  0  0  0  0  0  0  0  0
   32.7250   31.7190   34.7700 C   0  0  0  0  0  0  0  0  0  0  0  0
   34.0240   30.9660   34.7370 C   0  0  0  0  0  0  0  0  0  0  0  0
   37.8590   26.7660   32.5290 H   0  0  0  0  0  0  0  0  0  0  0  0
   32.3100   29.0220   32.8400 H   0  0  0  0  0  0  0  0  0  0  0  0
   33.4170   29.7820   31.6810 H   0  0  0  0  0  0  0  0  0  0  0  0
   31.9870   31.5280   31.5630 H   0  0  0  0  0  0  0  0  0  0  0  0
   31.0360   30.8970   32.9320 H   0  0  0  0  0  0  0  0  0  0  0  0
   31.7960   32.9600   33.4620 H   0  0  0  0  0  0  0  0  0  0  0  0
   31.8910   31.0710   35.0390 H   0  0  0  0  0  0  0  0  0  0  0  0
   32.7880   32.5990   35.4610 H   0  0  0  0  0  0  0  0  0  0  0  0
   34.0880   30.3720   35.6840 H   0  0  0  0  0  0  0  0  0  0  0  0
   34.8870   31.6560   34.7100 H   0  0  0  0  0  0  0  0  0  0  0  0
   38.4870   26.1480   34.8770 C   0  0  0  0  0  0  0  0  0  0  0  0
   39.4990   26.4660   34.5750 H   0  0  0  0  0  0  0  0  0  0  0  0
   38.0400   25.6250   33.9920 H   0  0  0  0  0  0  0  0  0  0  0  0
   37.9600   24.0570   37.9080 C   0  0  0  0  0  0  0  0  0  0  0  0
   39.0690   23.1940   37.8880 C   0  0  0  0  0  0  0  0  0  0  0  0
   39.9610   23.3580   36.8330 C   0  0  0  0  0  0  0  0  0  0  0  0
   39.7390   24.3050   35.9020 N   0  0  0  0  0  0  0  0  0  0  0  0
   38.6400   25.1160   35.9780 C   0  0  0  0  0  0  0  0  0  0  0  0
   37.7730   24.9870   36.9660 N   0  0  0  0  0  0  0  0  0  0  0  0
   37.2730   23.9180   38.7360 H   0  0  0  0  0  0  0  0  0  0  0  0
   39.2350   22.4500   38.6270 H   0  0  0  0  0  0  0  0  0  0  0  0
   42.1560   23.0050   35.8620 C   0  0  0  0  0  3  0  0  0  0  0  0
   41.1540   22.5340   36.6830 C   0  0  0  0  0  0  0  0  0  0  0  0
   41.3510   21.3250   37.3020 C   0  0  0  0  0  0  0  0  0  0  0  0
   40.5940   20.9410   37.9400 H   0  0  0  0  0  0  0  0  0  0  0  0
   42.5030   20.5920   37.1200 C   0  0  0  0  0  0  0  0  0  0  0  0
   42.9720   19.4120   37.5750 N   0  0  0  0  0  0  0  0  0  0  0  0
   42.4670   18.7700   38.2320 H   0  0  0  0  0  0  0  0  0  0  0  0
   44.1810   19.1600   37.0740 N   0  0  0  0  0  0  0  0  0  0  0  0
   44.5780   20.1490   36.2670 C   0  0  0  0  0  0  0  0  0  0  0  0
   45.4850   20.2660   35.7080 H   0  0  0  0  0  0  0  0  0  0  0  0
   43.5230   21.0350   36.3050 C   0  0  0  0  0  0  0  0  0  0  0  0
   43.3300   22.2640   35.6730 C   0  0  0  0  0  3  0  0  0  0  0  0
  1  2  1  0  0  0  0
  1  3  1  0  0  0  0
  4  8  1  0  0  0  0
  4  1  1  0  0  0  0
  5  4  2  0  0  0  0
  6  5  1  0  0  0  0
  6  7  1  0  0  0  0
  7  9  1  0  0  0  0
  7  8  2  0  0  0  0
  9 14  1  0  0  0  0
 10 16  1  0  0  0  0
 10  9  1  0  0  0  0
 11 10  1  0  0  0  0
 11 19  1  0  0  0  0
 11 12  1  0  0  0  0
 12 20  1  0  0  0  0
 12 13  1  0  0  0  0
 13 21  1  0  0  0  0
 13 22  1  0  0  0  0
 14 13  1  0  0  0  0
 14 23  1  0  0  0  0
 15  5  1  0  0  0  0
 17 10  1  0  0  0  0
 18 11  1  0  0  0  0
 24 14  1  0  0  0  0
 25  1  1  0  0  0  0
 25 32  1  0  0  0  0
 26 25  1  0  0  0  0
 27 25  1  0  0  0  0
 28 34  1  0  0  0  0
 29 28  1  0  0  0  0
 29 35  1  0  0  0  0
 30 29  2  0  0  0  0
 31 32  2  0  0  0  0
 31 30  1  0  0  0  0
 32 33  1  0  0  0  0
 33 28  2  0  0  0  0
 36 37  1  0  0  0  0
 37 30  1  0  0  0  0
 37 38  2  0  0  0  0
 38 39  1  0  0  0  0
 40 38  1  0  0  0  0
 40 41  1  0  0  0  0
 41 42  1  0  0  0  0
 43 41  1  0  0  0  0
 44 46  1  0  0  0  0
 44 43  2  0  0  0  0
 45 44  1  0  0  0  0
 46 40  2  0  0  0  0
 47 36  2  0  0  0  0
 47 46  1  0  0  0  0
M  END
>  <minimizedAffinity>
-6.26241541

$$$$

 OpenBabel03272506103D

 47 51  0  0  0  0  0  0  0  0999 V2000
   37.6440   26.0260   35.3280 C   0  0  0  0  0  0  0  0  0  0  0  0
   36.5660   25.9660   35.6260 H   0  0  0  0  0  0  0  0  0  0  0  0
   37.9900   27.0000   35.7390 H   0  0  0  0  0  0  0  0  0  0  0  0
   38.3950   24.9010   35.9970 C   0  0  0  0  0  0  0  0  0  0  0  0
   37.8050   24.2400   37.1390 C   0  0  0  0  0  0  0  0  0  0  0  0
   39.0540   23.0540   37.5140 S   0  0  0  0  0  0  0  0  0  0  0  0
   40.2030   23.5720   36.1190 C   0  0  0  0  0  0  0  0  0  0  0  0
   39.5610   24.4490   35.6390 N   0  0  0  0  0  0  0  0  0  0  0  0
   41.5050   23.0820   35.7040 N   0  0  0  0  0  0  0  0  0  0  0  0
   41.7620   21.6930   35.9500 C   0  0  0  0  0  0  0  0  0  0  0  0
   43.2140   21.3300   35.9260 C   0  0  0  0  0  0  0  0  0  0  0  0
   44.1050   22.4780   35.8100 N   0  0  0  0  0  0  0  0  0  0  0  0
   43.6450   23.2300   34.6380 C   0  0  0  0  0  0  0  0  0  0  0  0
   42.4300   23.9900   35.0880 C   0  0  0  0  0  0  0  0  0  0  0  0
   36.8800   24.4570   37.5770 H   0  0  0  0  0  0  0  0  0  0  0  0
   41.2070   21.0250   35.2390 H   0  0  0  0  0  0  0  0  0  0  0  0
   41.3610   21.4440   36.9550 H   0  0  0  0  0  0  0  0  0  0  0  0
   43.5220   20.7900   36.8510 H   0  0  0  0  0  0  0  0  0  0  0  0
   43.4390   20.6470   35.0770 H   0  0  0  0  0  0  0  0  0  0  0  0
   45.0510   22.1400   35.6120 H   0  0  0  0  0  0  0  0  0  0  0  0
   43.4140   22.5500   33.8200 H   0  0  0  0  0  0  0  0  0  0  0  0
   44.4760   23.9290   34.3560 H   0  0  0  0  0  0  0  0  0  0  0  0
   41.9370   24.4010   34.1710 H   0  0  0  0  0  0  0  0  0  0  0  0
   42.7080   24.8420   35.7350 H   0  0  0  0  0  0  0  0  0  0  0  0
   37.7540   25.9540   33.8610 C   0  0  0  0  0  0  0  0  0  0  0  0
   37.2020   25.0990   33.4350 H   0  0  0  0  0  0  0  0  0  0  0  0
   38.8190   25.8400   33.5330 H   0  0  0  0  0  0  0  0  0  0  0  0
   36.9560   28.6630   31.4400 C   0  0  0  0  0  0  0  0  0  0  0  0
   36.1660   29.5390   32.2020 C   0  0  0  0  0  0  0  0  0  0  0  0
   35.9320   29.1700   33.5230 C   0  0  0  0  0  0  0  0  0  0  0  0
   36.4540   28.0270   34.0080 N   0  0  0  0  0  0  0  0  0  0  0  0
   37.2170   27.2160   33.2130 C   0  0  0  0  0  0  0  0  0  0  0  0
   37.4580   27.5360   31.9550 N   0  0  0  0  0  0  0  0  0  0  0  0
   37.1300   28.9630   30.4120 H   0  0  0  0  0  0  0  0  0  0  0  0
   35.7580   30.4390   31.8110 H   0  0  0  0  0  0  0  0  0  0  0  0
   33.7580   29.8790   34.3340 C   0  0  0  0  0  3  0  0  0  0  0  0
   35.1290   29.9810   34.4310 C   0  0  0  0  0  0  0  0  0  0  0  0
   35.6420   30.8370   35.3730 C   0  0  0  0  0  0  0  0  0  0  0  0
   36.6950   30.9330   35.4680 H   0  0  0  0  0  0  0  0  0  0  0  0
   34.8290   31.5780   36.2040 C   0  0  0  0  0  0  0  0  0  0  0  0
   35.0290   32.4720   37.1930 N   0  0  0  0  0  0  0  0  0  0  0  0
   35.9630   32.7960   37.5410 H   0  0  0  0  0  0  0  0  0  0  0  0
   33.8660   32.9020   37.6820 N   0  0  0  0  0  0  0  0  0  0  0  0
   32.8400   32.3220   37.0500 C   0  0  0  0  0  0  0  0  0  0  0  0
   31.7830   32.4380   37.1910 H   0  0  0  0  0  0  0  0  0  0  0  0
   33.4550   31.4990   36.1320 C   0  0  0  0  0  0  0  0  0  0  0  0
   32.9270   30.6300   35.1760 C   0  0  0  0  0  3  0  0  0  0  0  0
  1  2  1  0  0  0  0
  1  3  1  0  0  0  0
  1  4  1  0  0  0  0
  4  5  2  0  0  0  0
  5  6  1  0  0  0  0
  5 15  1  0  0  0  0
  7  6  1  0  0  0  0
  8  4  1  0  0  0  0
  8  7  2  0  0  0  0
  9 10  1  0  0  0  0
  9  7  1  0  0  0  0
 10 17  1  0  0  0  0
 11 10  1  0  0  0  0
 11 18  1  0  0  0  0
 12 11  1  0  0  0  0
 13 14  1  0  0  0  0
 13 12  1  0  0  0  0
 14  9  1  0  0  0  0
 14 24  1  0  0  0  0
 16 10  1  0  0  0  0
 19 11  1  0  0  0  0
 20 12  1  0  0  0  0
 21 13  1  0  0  0  0
 22 13  1  0  0  0  0
 23 14  1  0  0  0  0
 25  1  1  0  0  0  0
 26 25  1  0  0  0  0
 27 25  1  0  0  0  0
 28 33  2  0  0  0  0
 28 29  1  0  0  0  0
 29 30  2  0  0  0  0
 30 31  1  0  0  0  0
 30 37  1  0  0  0  0
 32 25  1  0  0  0  0
 32 31  2  0  0  0  0
 33 32  1  0  0  0  0
 34 28  1  0  0  0  0
 35 29  1  0  0  0  0
 36 37  2  0  0  0  0
 36 47  1  0  0  0  0
 37 38  1  0  0  0  0
 38 39  1  0  0  0  0
 38 40  2  0  0  0  0
 40 41  1  0  0  0  0
 41 42  1  0  0  0  0
 41 43  1  0  0  0  0
 44 45  1  0  0  0  0
 44 43  2  0  0  0  0
 46 40  1  0  0  0  0
 46 44  1  0  0  0  0
 47 46  2  0  0  0  0
M  END
>  <minimizedAffinity>
-6.2590189

$$$$

 OpenBabel03272506103D

 47 51  0  0  0  0  0  0  0  0999 V2000
   36.1920   28.4870   34.0840 C   0  0  0  0  0  0  0  0  0  0  0  0
   35.5550   28.3170   34.9890 H   0  0  0  0  0  0  0  0  0  0  0  0
   36.8250   29.3610   34.3540 H   0  0  0  0  0  0  0  0  0  0  0  0
   37.0680   27.2760   33.8750 C   0  0  0  0  0  0  0  0  0  0  0  0
   37.5510   26.9750   32.5460 C   0  0  0  0  0  0  0  0  0  0  0  0
   38.4880   25.5150   32.8580 S   0  0  0  0  0  0  0  0  0  0  0  0
   38.1310   25.4780   34.7040 C   0  0  0  0  0  0  0  0  0  0  0  0
   37.4470   26.4450   34.8010 N   0  0  0  0  0  0  0  0  0  0  0  0
   38.5430   24.5620   35.7520 N   0  0  0  0  0  0  0  0  0  0  0  0
   39.8160   23.9280   35.5700 C   0  0  0  0  0  0  0  0  0  0  0  0
   40.0090   22.7000   36.4030 C   0  0  0  0  0  0  0  0  0  0  0  0
   38.8130   22.2880   37.1280 N   0  0  0  0  0  0  0  0  0  0  0  0
   38.3680   23.4670   37.8760 C   0  0  0  0  0  0  0  0  0  0  0  0
   37.6770   24.3510   36.8770 C   0  0  0  0  0  0  0  0  0  0  0  0
   37.3570   27.5200   31.6740 H   0  0  0  0  0  0  0  0  0  0  0  0
   40.6720   24.6320   35.7540 H   0  0  0  0  0  0  0  0  0  0  0  0
   39.9040   23.6390   34.5020 H   0  0  0  0  0  0  0  0  0  0  0  0
   40.3150   21.8240   35.7850 H   0  0  0  0  0  0  0  0  0  0  0  0
   40.8180   22.8510   37.1520 H   0  0  0  0  0  0  0  0  0  0  0  0
   39.0750   21.5670   37.8070 H   0  0  0  0  0  0  0  0  0  0  0  0
   39.2200   23.9680   38.3340 H   0  0  0  0  0  0  0  0  0  0  0  0
   37.6500   23.1030   38.6560 H   0  0  0  0  0  0  0  0  0  0  0  0
   37.5160   25.3450   37.3680 H   0  0  0  0  0  0  0  0  0  0  0  0
   36.6870   23.9440   36.6010 H   0  0  0  0  0  0  0  0  0  0  0  0
   35.3330   28.7430   32.9160 C   0  0  0  0  0  0  0  0  0  0  0  0
   35.0780   27.8220   32.3660 H   0  0  0  0  0  0  0  0  0  0  0  0
   35.8310   29.4260   32.1800 H   0  0  0  0  0  0  0  0  0  0  0  0
   31.7500   29.6930   33.2290 C   0  0  0  0  0  0  0  0  0  0  0  0
   31.7800   30.7040   34.2040 C   0  0  0  0  0  0  0  0  0  0  0  0
   33.0300   31.0260   34.7230 C   0  0  0  0  0  0  0  0  0  0  0  0
   34.1290   30.3810   34.2860 N   0  0  0  0  0  0  0  0  0  0  0  0
   34.0330   29.4050   33.3330 C   0  0  0  0  0  0  0  0  0  0  0  0
   32.8620   29.0740   32.8200 N   0  0  0  0  0  0  0  0  0  0  0  0
   30.7690   29.4520   32.8330 H   0  0  0  0  0  0  0  0  0  0  0  0
   30.9070   31.2070   34.5410 H   0  0  0  0  0  0  0  0  0  0  0  0
   34.4340   32.1130   36.3750 C   0  0  0  0  0  3  0  0  0  0  0  0
   33.2120   32.0540   35.7400 C   0  0  0  0  0  0  0  0  0  0  0  0
   32.2560   32.9660   36.1090 C   0  0  0  0  0  0  0  0  0  0  0  0
   31.3070   32.9420   35.6340 H   0  0  0  0  0  0  0  0  0  0  0  0
   32.4900   33.9160   37.0800 C   0  0  0  0  0  0  0  0  0  0  0  0
   31.7740   34.9130   37.6390 N   0  0  0  0  0  0  0  0  0  0  0  0
   30.7860   35.1630   37.3950 H   0  0  0  0  0  0  0  0  0  0  0  0
   32.4950   35.5500   38.5610 N   0  0  0  0  0  0  0  0  0  0  0  0
   33.7170   35.0180   38.6630 C   0  0  0  0  0  0  0  0  0  0  0  0
   34.5400   35.2850   39.2970 H   0  0  0  0  0  0  0  0  0  0  0  0
   33.7000   34.0000   37.7330 C   0  0  0  0  0  0  0  0  0  0  0  0
   34.6780   33.0760   37.3630 C   0  0  0  0  0  3  0  0  0  0  0  0
  1  3  1  0  0  0  0
  1  2  1  0  0  0  0
  4  1  1  0  0  0  0
  4  8  1  0  0  0  0
  5  6  1  0  0  0  0
  5  4  2  0  0  0  0
  6  7  1  0  0  0  0
  7  8  2  0  0  0  0
  7  9  1  0  0  0  0
  9 14  1  0  0  0  0
 10  9  1  0  0  0  0
 10 16  1  0  0  0  0
 10 11  1  0  0  0  0
 11 12  1  0  0  0  0
 11 19  1  0  0  0  0
 12 20  1  0  0  0  0
 12 13  1  0  0  0  0
 13 21  1  0  0  0  0
 13 22  1  0  0  0  0
 14 23  1  0  0  0  0
 14 13  1  0  0  0  0
 15  5  1  0  0  0  0
 17 10  1  0  0  0  0
 18 11  1  0  0  0  0
 24 14  1  0  0  0  0
 25 32  1  0  0  0  0
 25  1  1  0  0  0  0
 26 25  1  0  0  0  0
 27 25  1  0  0  0  0
 28 29  1  0  0  0  0
 29 35  1  0  0  0  0
 29 30  2  0  0  0  0
 30 37  1  0  0  0  0
 31 30  1  0  0  0  0
 32 31  2  0  0  0  0
 33 28  2  0  0  0  0
 33 32  1  0  0  0  0
 34 28  1  0  0  0  0
 36 47  1  0  0  0  0
 37 38  1  0  0  0  0
 37 36  2  0  0  0  0
 38 40  2  0  0  0  0
 39 38  1  0  0  0  0
 40 41  1  0  0  0  0
 40 46  1  0  0  0  0
 41 43  1  0  0  0  0
 42 41  1  0  0  0  0
 43 44  2  0  0  0  0
 44 45  1  0  0  0  0
 46 44  1  0  0  0  0
 47 46  2  0  0  0  0
M  END
>  <minimizedAffinity>
-6.20503902

$$$$
