
 OpenBabel03272503323D

 44 48  0  0  1  0  0  0  0  0999 V2000
   35.2320   29.3510   47.9050 C   0  0  0  0  0  0  0  0  0  0  0  0
   35.0600   30.0190   46.6900 C   0  0  0  0  0  0  0  0  0  0  0  0
   33.9440   29.6730   45.9280 C   0  0  0  0  0  0  0  0  0  0  0  0
   33.1030   28.7050   46.4320 N   0  0  0  0  0  0  0  0  0  0  0  0
   33.3090   28.0940   47.5990 C   0  0  0  0  0  0  0  0  0  0  0  0
   34.3720   28.4150   48.3390 N   0  0  0  0  0  0  0  0  0  0  0  0
   35.7050   30.7650   46.2990 H   0  0  0  0  0  0  0  0  0  0  0  0
   33.7480   30.1400   44.9900 H   0  0  0  0  0  0  0  0  0  0  0  0
   36.3840   29.7080   48.6950 N   0  0  0  0  0  0  0  0  0  0  0  0
   37.5210   30.4610   48.2620 C   0  0  0  0  0  0  0  0  0  0  0  0
   37.9940   31.1130   49.5540 C   0  0  2  0  0  0  0  0  0  0  0  0
   36.9640   30.7400   50.6100 C   0  0  0  0  0  0  0  0  0  0  0  0
   36.6050   29.3630   50.0910 C   0  0  0  0  0  0  0  0  0  0  0  0
   38.3090   29.7360   47.9180 H   0  0  0  0  0  0  0  0  0  0  0  0
   37.3230   31.1760   47.4580 H   0  0  0  0  0  0  0  0  0  0  0  0
   38.9500   30.6400   49.8860 H   0  0  0  0  0  0  0  0  0  0  0  0
   36.0500   31.3580   50.5350 H   0  0  0  0  0  0  0  0  0  0  0  0
   37.3890   30.7040   51.6170 H   0  0  0  0  0  0  0  0  0  0  0  0
   35.6560   29.0400   50.5170 H   0  0  0  0  0  0  0  0  0  0  0  0
   37.4340   28.6480   50.2190 H   0  0  0  0  0  0  0  0  0  0  0  0
   38.1540   32.6000   49.4250 C   0  0  0  0  0  0  0  0  0  0  0  0
   37.0110   33.1720   49.9540 F   0  0  0  0  0  0  0  0  0  0  0  0
   38.1600   32.8860   48.0850 F   0  0  0  0  0  0  0  0  0  0  0  0
   39.2870   33.0750   50.0370 F   0  0  0  0  0  0  0  0  0  0  0  0
   32.1780   26.8530   48.1840 S   0  0  0  0  0  0  0  0  0  0  0  0
   30.7030   27.3620   48.8270 C   0  0  0  0  0  0  0  0  0  0  0  0
   29.9430   27.2350   49.9540 C   0  0  0  0  0  0  0  0  0  0  0  0
   28.7360   27.8160   50.1440 C   0  0  0  0  0  0  0  0  0  0  0  0
   28.2800   28.6350   48.9890 C   0  0  0  0  0  0  0  0  0  0  0  0
   29.6300   28.4750   47.7760 S   0  0  0  0  0  0  0  0  0  0  0  0
   30.4220   26.6080   50.6920 H   0  0  0  0  0  0  0  0  0  0  0  0
   28.1310   27.7240   51.0230 H   0  0  0  0  0  0  0  0  0  0  0  0
   25.8660   28.8560   49.4210 C   0  0  0  0  0  3  0  0  0  0  0  0
   27.0630   29.3410   48.9360 C   0  0  0  0  0  0  0  0  0  0  0  0
   27.1540   30.5860   48.3470 C   0  0  0  0  0  0  0  0  0  0  0  0
   28.0640   31.0170   47.9490 H   0  0  0  0  0  0  0  0  0  0  0  0
   26.0360   31.4190   48.2130 C   0  0  0  0  0  0  0  0  0  0  0  0
   25.8100   32.6430   47.7040 N   0  0  0  0  0  0  0  0  0  0  0  0
   26.5300   33.2450   47.2700 H   0  0  0  0  0  0  0  0  0  0  0  0
   24.5230   32.9270   47.8590 N   0  0  0  0  0  0  0  0  0  0  0  0
   23.8950   31.8940   48.4690 C   0  0  0  0  0  0  0  0  0  0  0  0
   22.8440   31.7780   48.7540 H   0  0  0  0  0  0  0  0  0  0  0  0
   24.8450   30.9220   48.7030 C   0  0  0  0  0  0  0  0  0  0  0  0
   24.7660   29.6770   49.2890 C   0  0  0  0  0  3  0  0  0  0  0  0
  1  6  1  0  0  0  0
  1  9  1  0  0  0  0
  2  1  2  0  0  0  0
  3  4  2  0  0  0  0
  3  2  1  0  0  0  0
  4  5  1  0  0  0  0
  5 25  1  0  0  0  0
  5  6  2  0  0  0  0
  7  2  1  0  0  0  0
  8  3  1  0  0  0  0
  9 13  1  0  0  0  0
 10  9  1  0  0  0  0
 10 11  1  0  0  0  0
 11 16  1  1  0  0  0
 11 12  1  0  0  0  0
 12 18  1  0  0  0  0
 13 20  1  0  0  0  0
 13 19  1  0  0  0  0
 13 12  1  0  0  0  0
 14 10  1  0  0  0  0
 15 10  1  0  0  0  0
 17 12  1  0  0  0  0
 21 11  1  0  0  0  0
 21 22  1  0  0  0  0
 21 24  1  0  0  0  0
 23 21  1  0  0  0  0
 25 26  1  0  0  0  0
 26 27  2  0  0  0  0
 27 28  1  0  0  0  0
 27 31  1  0  0  0  0
 28 32  1  0  0  0  0
 29 28  2  0  0  0  0
 30 26  1  0  0  0  0
 30 29  1  0  0  0  0
 34 29  1  0  0  0  0
 34 33  2  0  0  0  0
 35 34  1  0  0  0  0
 36 35  1  0  0  0  0
 37 35  2  0  0  0  0
 37 43  1  0  0  0  0
 38 40  1  0  0  0  0
 38 37  1  0  0  0  0
 39 38  1  0  0  0  0
 40 41  2  0  0  0  0
 41 43  1  0  0  0  0
 41 42  1  0  0  0  0
 43 44  2  0  0  0  0
 44 33  1  0  0  0  0
M  END
>  <minimizedAffinity>
-7.66666508

>  <minimizedRMSD>
0.462131828

$$$$
