REMARK  Name = 
REMARK  3 active torsions:
REMARK  status: ('A' for Active; 'I' for Inactive)
REMARK    1  A    between atoms: C_1  and  C_7
REMARK    2  A    between atoms: C_1  and  C_9
REMARK    3  A    between atoms: C_12  and  C_20
REMARK                            x       y       z     vdW  Elec       q    Type
REMARK                         _______ _______ _______ _____ _____    ______ ____
ROOT
ATOM      1  C   UNL     1      36.507  30.900  49.422  0.00  0.00    +0.000 A 
ATOM      2  C   UNL     1      37.307  30.217  50.330  0.00  0.00    +0.000 A 
ATOM      3  C   UNL     1      38.440  31.022  50.427  0.00  0.00    +0.000 A 
ATOM      4  C   UNL     1      38.285  32.113  49.608  0.00  0.00    +0.000 A 
ATOM      5  O   UNL     1      37.112  32.005  49.020  0.00  0.00    +0.000 OA
ATOM      6  H   UNL     1      37.080  29.298  50.819  0.00  0.00    +0.000 HD
ATOM      7  H   UNL     1      39.302  30.811  51.054  0.00  0.00    +0.000 HD
ENDROOT
BRANCH   4   9
ATOM      8  C   UNL     1      38.751  34.466  49.093  0.00  0.00    +0.000 A 
ATOM      9  C   UNL     1      39.230  33.205  49.406  0.00  0.00    +0.000 A 
ATOM     10  C   UNL     1      40.590  32.952  49.534  0.00  0.00    +0.000 A 
ATOM     11  H   UNL     1      40.964  31.960  49.780  0.00  0.00    +0.000 HD
ATOM     12  C   UNL     1      41.509  33.975  49.346  0.00  0.00    +0.000 A 
ATOM     13  N   UNL     1      42.852  34.058  49.396  0.00  0.00    +0.000 N 
ATOM     14  H   UNL     1      43.454  33.222  49.618  0.00  0.00    +0.000 HD
ATOM     15  N   UNL     1      43.178  35.317  49.125  0.00  0.00    +0.000 NA
ATOM     16  C   UNL     1      42.066  36.044  48.902  0.00  0.00    +0.000 A 
ATOM     17  H   UNL     1      42.069  37.100  48.660  0.00  0.00    +0.000 HD
ATOM     18  C   UNL     1      40.971  35.208  49.037  0.00  0.00    +0.000 A 
ATOM     19  C   UNL     1      39.642  35.528  48.896  0.00  0.00    +0.000 A 
ENDBRANCH   4   9
BRANCH   1  20
ATOM     20  C   UNL     1      35.192  30.438  48.992  0.00  0.00    +0.000 C 
ATOM     21  O   UNL     1      34.339  30.186  49.860  0.00  0.00    +0.000 OA
BRANCH  20  26
ATOM     22  C   UNL     1      33.321  30.085  45.883  0.00  0.00    +0.000 A 
ATOM     23  C   UNL     1      34.316  30.006  44.916  0.00  0.00    +0.000 A 
ATOM     24  C   UNL     1      35.638  30.072  45.309  0.00  0.00    +0.000 A 
ATOM     25  N   UNL     1      35.904  30.211  46.627  0.00  0.00    +0.000 NA
ATOM     26  C   UNL     1      34.919  30.287  47.563  0.00  0.00    +0.000 A 
ATOM     27  N   UNL     1      33.630  30.223  47.177  0.00  0.00    +0.000 NA
ATOM     28  H   UNL     1      32.280  30.035  45.587  0.00  0.00    +0.000 HD
ATOM     29  H   UNL     1      34.056  29.894  43.867  0.00  0.00    +0.000 HD
ATOM     30  H   UNL     1      36.446  30.016  44.607  0.00  0.00    +0.000 HD
ENDBRANCH  20  26
ENDBRANCH   1  20
TORSDOF 3
