
 OpenBabel03272505343D

 38 41  0  0  1  0  0  0  0  0999 V2000
   36.8580   31.0890   49.0550 C   0  0  0  0  0  0  0  0  0  0  0  0
   37.1160   32.2760   49.7410 C   0  0  0  0  0  0  0  0  0  0  0  0
   37.9760   33.2150   49.1550 C   0  0  0  0  0  0  0  0  0  0  0  0
   38.5120   32.9020   47.9340 N   0  0  0  0  0  0  0  0  0  0  0  0
   38.2340   31.7440   47.3090 C   0  0  0  0  0  0  0  0  0  0  0  0
   37.4180   30.8470   47.8600 N   0  0  0  0  0  0  0  0  0  0  0  0
   38.8500   31.5320   46.0460 N   0  0  0  0  0  0  0  0  0  0  0  0
   40.1500   30.8710   45.9840 C   0  0  0  0  0  0  0  0  0  0  0  0
   41.0730   31.5490   45.0010 C   0  0  0  0  0  0  0  0  0  0  0  0
   40.4280   31.8470   43.7520 N   0  0  0  0  0  0  0  0  0  0  0  0
   39.0680   31.3960   43.6620 C   0  0  0  0  0  0  0  0  0  0  0  0
   38.2270   31.9530   44.8050 C   0  0  1  0  0  0  0  0  0  0  0  0
   36.6640   32.4860   50.7210 H   0  0  0  0  0  0  0  0  0  0  0  0
   38.2160   34.1420   49.6240 H   0  0  0  0  0  0  0  0  0  0  0  0
   39.9730   29.8410   45.6110 H   0  0  0  0  0  0  0  0  0  0  0  0
   40.6330   30.8190   46.9660 H   0  0  0  0  0  0  0  0  0  0  0  0
   41.8900   30.8260   44.7840 H   0  0  0  0  0  0  0  0  0  0  0  0
   41.5480   32.4680   45.4040 H   0  0  0  0  0  0  0  0  0  0  0  0
   40.9310   31.5080   42.9160 H   0  0  0  0  0  0  0  0  0  0  0  0
   38.9940   30.3060   43.7350 H   0  0  0  0  0  0  0  0  0  0  0  0
   38.6410   31.8250   42.7310 H   0  0  0  0  0  0  0  0  0  0  0  0
   38.1890   33.0640   44.7400 H   0  0  0  0  0  0  0  0  0  0  0  0
   36.0400   31.8760   43.6140 C   0  0  0  0  0  3  0  0  0  0  0  0
   36.8630   31.3920   44.6200 C   0  0  0  0  0  0  0  0  0  0  0  0
   36.4150   30.3860   45.4510 C   0  0  0  0  0  0  0  0  0  0  0  0
   37.0210   29.9710   46.2560 H   0  0  0  0  0  0  0  0  0  0  0  0
   35.1500   29.8580   45.2880 C   0  0  0  0  0  0  0  0  0  0  0  0
   34.3780   28.9130   45.8640 N   0  0  0  0  0  0  0  0  0  0  0  0
   34.7000   28.3300   46.6850 H   0  0  0  0  0  0  0  0  0  0  0  0
   33.2000   28.8240   45.2720 N   0  0  0  0  0  0  0  0  0  0  0  0
   33.1050   29.7100   44.2550 C   0  0  0  0  0  0  0  0  0  0  0  0
   32.2820   29.8790   43.5910 H   0  0  0  0  0  0  0  0  0  0  0  0
   34.3310   30.3450   44.2800 C   0  0  0  0  0  0  0  0  0  0  0  0
   34.7710   31.3600   43.4330 C   0  0  0  0  0  3  0  0  0  0  0  0
   35.9430   30.0860   49.6750 C   0  0  0  0  0  0  0  0  0  0  0  0
   34.6520   30.6100   49.7440 F   0  0  0  0  0  0  0  0  0  0  0  0
   36.0390   28.9340   48.9810 F   0  0  0  0  0  0  0  0  0  0  0  0
   36.3610   29.9420   51.0090 F   0  0  0  0  0  0  0  0  0  0  0  0
  1 35  1  0  0  0  0
  1  2  1  0  0  0  0
  2 13  1  0  0  0  0
  3 14  1  0  0  0  0
  3  2  2  0  0  0  0
  4  3  1  0  0  0  0
  5  6  1  0  0  0  0
  5  4  2  0  0  0  0
  6  1  2  0  0  0  0
  7  5  1  0  0  0  0
  8  7  1  0  0  0  0
  8 16  1  0  0  0  0
  9 18  1  0  0  0  0
  9  8  1  0  0  0  0
 10  9  1  0  0  0  0
 11 20  1  0  0  0  0
 11 10  1  0  0  0  0
 11 12  1  0  0  0  0
 12 22  1  6  0  0  0
 12  7  1  0  0  0  0
 15  8  1  0  0  0  0
 17  9  1  0  0  0  0
 19 10  1  0  0  0  0
 21 11  1  0  0  0  0
 23 24  1  0  0  0  0
 24 12  1  0  0  0  0
 24 25  2  0  0  0  0
 25 26  1  0  0  0  0
 27 25  1  0  0  0  0
 27 28  1  0  0  0  0
 28 29  1  0  0  0  0
 30 28  1  0  0  0  0
 31 33  1  0  0  0  0
 31 30  2  0  0  0  0
 32 31  1  0  0  0  0
 33 27  2  0  0  0  0
 34 23  2  0  0  0  0
 34 33  1  0  0  0  0
 35 36  1  0  0  0  0
 35 38  1  0  0  0  0
 37 35  1  0  0  0  0
M  END
>  <minimizedAffinity>
-6.26217699

>  <minimizedRMSD>
0.745878398

$$$$
