
     RDKit          3D

 37 40  0  0  0  0  0  0  0  0999 V2000
   37.3562   29.4139   50.6849 C   0  0  0  0  0  0  0  0  0  0  0  0
   37.5659   30.8044   50.6736 C   0  0  0  0  0  0  0  0  0  0  0  0
   36.8255   31.5587   49.7535 C   0  0  0  0  0  0  0  0  0  0  0  0
   35.9606   30.8937   48.9409 N   0  0  0  0  0  0  0  0  0  0  0  0
   35.7873   29.5698   48.9795 C   0  0  0  0  0  0  0  0  0  0  0  0
   36.4870   28.8231   49.8549 N   0  0  0  0  0  0  0  0  0  0  0  0
   34.8861   28.9569   48.1084 N   0  0  0  0  0  0  0  0  0  0  0  0
   34.1617   27.7328   48.4789 C   0  0  0  0  0  0  0  0  0  0  0  0
   32.7020   27.9214   48.3143 C   0  0  0  0  0  0  0  0  0  0  0  0
   32.2853   29.0237   47.5808 N   0  0  0  0  0  0  0  0  0  0  0  0
   33.1289   29.6194   46.6045 C   0  0  0  0  0  0  0  0  0  0  0  0
   34.5984   29.4593   46.7938 C   0  0  1  0  0  0  0  0  0  0  0  0
   37.9532   28.8719   51.4157 H   0  0  0  0  0  0  0  0  0  0  0  0
   38.2718   31.2809   51.3481 H   0  0  0  0  0  0  0  0  0  0  0  0
   36.9514   32.6417   49.7046 H   0  0  0  0  0  0  0  0  0  0  0  0
   34.4337   27.4900   49.5321 H   0  0  0  0  0  0  0  0  0  0  0  0
   34.5609   26.9108   47.8716 H   0  0  0  0  0  0  0  0  0  0  0  0
   32.2227   27.9219   49.3319 H   0  0  0  0  0  0  0  0  0  0  0  0
   32.3030   26.9870   47.8280 H   0  0  0  0  0  0  0  0  0  0  0  0
   31.3358   28.9323   47.1904 H   0  0  0  0  0  0  0  0  0  0  0  0
   32.8379   29.2280   45.6090 H   0  0  0  0  0  0  0  0  0  0  0  0
   32.8659   30.6961   46.5666 H   0  0  0  0  0  0  0  0  0  0  0  0
   34.9004   28.5551   46.1234 H   0  0  0  0  0  0  0  0  0  0  0  0
   34.8088   31.3376   45.3598 C   0  0  0  0  0  0  0  0  0  0  0  0
   35.4460   30.5715   46.3501 C   0  0  0  0  0  0  0  0  0  0  0  0
   36.7062   31.0042   46.7012 C   0  0  0  0  0  0  0  0  0  0  0  0
   37.1549   30.3870   47.4642 H   0  0  0  0  0  0  0  0  0  0  0  0
   37.2940   32.1079   46.1206 C   0  0  0  0  0  0  0  0  0  0  0  0
   38.5049   32.6157   46.3820 N   0  0  0  0  0  0  0  0  0  0  0  0
   39.2403   32.3034   47.0530 H   0  0  0  0  0  0  0  0  0  0  0  0
   38.6910   33.6742   45.6130 N   0  0  0  0  0  0  0  0  0  0  0  0
   37.5894   33.8552   44.8448 C   0  0  0  0  0  0  0  0  0  0  0  0
   37.3531   34.6077   44.0910 H   0  0  0  0  0  0  0  0  0  0  0  0
   36.6799   32.8655   45.1504 C   0  0  0  0  0  0  0  0  0  0  0  0
   35.4191   32.4376   44.7952 C   0  0  0  0  0  0  0  0  0  0  0  0
   33.8030   31.1457   44.9530 H   0  0  0  0  0  0  0  0  0  0  0  0
   34.9256   33.0435   44.0179 H   0  0  0  0  0  0  0  0  0  0  0  0
  2  1  2  0
  3  2  1  0
  4  5  1  0
  4  3  2  0
  5  6  2  0
  6  1  1  0
  7  8  1  0
  7  5  1  0
  9  8  1  0
 10  9  1  0
 11 12  1  0
 11 10  1  0
 12  7  1  0
  1 13  1  0
  2 14  1  0
  3 15  1  0
  8 16  1  0
  8 17  1  0
  9 18  1  0
  9 19  1  0
 10 20  1  0
 11 21  1  0
 11 22  1  0
 12 23  1  6
 24 25  2  0
 25 26  1  0
 26 27  1  0
 26 28  2  0
 28 29  1  0
 29 30  1  0
 29 31  1  0
 31 32  2  0
 32 33  1  0
 32 34  1  0
 34 35  2  0
 35 24  1  0
 34 28  1  0
 24 36  1  0
 35 37  1  0
 12 25  1  0
M  ISO  8  13  14  14  14  15  14  16  13  17  13  18  13  19  13  20   5
M  ISO  6  21  13  22  13  23  13  27  16  30   5  33  15
M  END
>  <DihAtoms>  (1) 
10,11,24,23

>  <DihDeg>  (1) 
-174.06257488914943

$$$$
