
 OpenBabel03272508433D

 30 33  0  0  0  0  0  0  0  0999 V2000
   35.5450   29.7030   49.8020 C   0  0  0  0  0  0  0  0  0  0  0  0
   36.5410   29.5250   50.7550 C   0  0  0  0  0  0  0  0  0  0  0  0
   37.6700   30.0640   50.1420 C   0  0  0  0  0  0  0  0  0  0  0  0
   37.3250   30.5260   48.8960 C   0  0  0  0  0  0  0  0  0  0  0  0
   36.0410   30.2910   48.7270 O   0  0  0  0  0  0  0  0  0  0  0  0
   36.4350   29.0790   51.7170 H   0  0  0  0  0  0  0  0  0  0  0  0
   38.6600   30.1070   50.5880 H   0  0  0  0  0  0  0  0  0  0  0  0
   38.6260   32.4630   48.1370 C   0  0  0  0  0  0  0  0  0  0  0  0
   38.2000   31.1630   47.9190 C   0  0  0  0  0  0  0  0  0  0  0  0
   38.5860   30.4480   46.7930 C   0  0  0  0  0  0  0  0  0  0  0  0
   38.2490   29.4260   46.6230 H   0  0  0  0  0  0  0  0  0  0  0  0
   39.4180   31.0330   45.8470 C   0  0  0  0  0  0  0  0  0  0  0  0
   39.9570   30.6240   44.6830 N   0  0  0  0  0  0  0  0  0  0  0  0
   39.7810   29.6600   44.2960 H   0  0  0  0  0  0  0  0  0  0  0  0
   40.6810   31.6320   44.2100 N   0  0  0  0  0  0  0  0  0  0  0  0
   40.6160   32.6820   45.0530 C   0  0  0  0  0  0  0  0  0  0  0  0
   41.1230   33.6260   44.8880 H   0  0  0  0  0  0  0  0  0  0  0  0
   39.8080   32.3280   46.1190 C   0  0  0  0  0  0  0  0  0  0  0  0
   39.4660   33.0920   47.2100 C   0  0  0  0  0  0  0  0  0  0  0  0
   34.1600   29.2870   49.9910 C   0  0  0  0  0  0  0  0  0  0  0  0
   33.4960   29.8280   50.8920 O   0  0  0  0  0  0  0  0  0  0  0  0
   31.6920   27.1580   48.3580 C   0  0  0  0  0  0  0  0  0  0  0  0
   32.4610   26.3550   47.5240 C   0  0  0  0  0  0  0  0  0  0  0  0
   33.8310   26.5270   47.5070 C   0  0  0  0  0  0  0  0  0  0  0  0
   34.3640   27.4770   48.3080 N   0  0  0  0  0  0  0  0  0  0  0  0
   33.5980   28.2560   49.1190 C   0  0  0  0  0  0  0  0  0  0  0  0
   32.2610   28.0860   49.1340 N   0  0  0  0  0  0  0  0  0  0  0  0
   30.6160   27.0320   48.3800 H   0  0  0  0  0  0  0  0  0  0  0  0
   31.9910   25.6030   46.8970 H   0  0  0  0  0  0  0  0  0  0  0  0
   34.4730   25.9360   46.8840 H   0  0  0  0  0  0  0  0  0  0  0  0
  1 20  1  0  0  0  0
  1  2  2  0  0  0  0
  2  6  1  0  0  0  0
  3  7  1  0  0  0  0
  3  2  1  0  0  0  0
  4  3  2  0  0  0  0
  5  4  1  0  0  0  0
  5  1  1  0  0  0  0
  9  8  1  0  0  0  0
  9  4  1  0  0  0  0
 10  9  2  0  0  0  0
 11 10  1  0  0  0  0
 12 18  2  0  0  0  0
 12 10  1  0  0  0  0
 13 12  1  0  0  0  0
 14 13  1  0  0  0  0
 15 13  1  0  0  0  0
 15 16  2  0  0  0  0
 16 18  1  0  0  0  0
 17 16  1  0  0  0  0
 18 19  1  0  0  0  0
 19  8  2  0  0  0  0
 20 21  2  0  0  0  0
 22 28  1  0  0  0  0
 22 27  1  0  0  0  0
 23 22  2  0  0  0  0
 24 23  1  0  0  0  0
 24 25  2  0  0  0  0
 25 26  1  0  0  0  0
 26 27  2  0  0  0  0
 26 20  1  0  0  0  0
 29 23  1  0  0  0  0
 30 24  1  0  0  0  0
M  END
>  <minimizedAffinity>
-6.59486103

>  <minimizedRMSD>
3.50685358

$$$$
