
 OpenBabel03262521503D

 35 38  0  0  1  0  0  0  0  0999 V2000
   42.9680   24.6520   33.3950 C   0  0  0  0  0  0  0  0  0  0  0  0
   42.6730   26.0250   33.4480 C   0  0  0  0  0  0  0  0  0  0  0  0
   41.6060   26.4220   34.2660 C   0  0  0  0  0  0  0  0  0  0  0  0
   40.9350   25.4530   34.9450 N   0  0  0  0  0  0  0  0  0  0  0  0
   41.2440   24.1560   34.8700 C   0  0  0  0  0  0  0  0  0  0  0  0
   42.2650   23.7490   34.0920 N   0  0  0  0  0  0  0  0  0  0  0  0
   40.5050   23.2180   35.5920 N   0  0  0  0  0  0  0  0  0  0  0  0
   41.1100   21.9760   36.0940 C   0  0  0  0  0  0  0  0  0  0  0  0
   40.8880   21.8400   37.5520 C   0  0  0  0  0  0  0  0  0  0  0  0
   39.9360   22.6720   38.1270 N   0  0  0  0  0  0  0  0  0  0  0  0
   38.8710   23.2120   37.3570 C   0  0  0  0  0  0  0  0  0  0  0  0
   39.1110   23.3810   35.8970 C   0  0  1  0  0  0  0  0  0  0  0  0
   43.8040   24.3930   32.7480 H   0  0  0  0  0  0  0  0  0  0  0  0
   43.2440   26.7550   32.8820 H   0  0  0  0  0  0  0  0  0  0  0  0
   41.3350   27.4770   34.3420 H   0  0  0  0  0  0  0  0  0  0  0  0
   42.1940   22.0060   35.8390 H   0  0  0  0  0  0  0  0  0  0  0  0
   40.6920   21.1430   35.5160 H   0  0  0  0  0  0  0  0  0  0  0  0
   41.8760   21.9520   38.0770 H   0  0  0  0  0  0  0  0  0  0  0  0
   40.5990   20.7690   37.7420 H   0  0  0  0  0  0  0  0  0  0  0  0
   39.5580   22.3210   39.0190 H   0  0  0  0  0  0  0  0  0  0  0  0
   37.9730   22.5800   37.5150 H   0  0  0  0  0  0  0  0  0  0  0  0
   38.6070   24.1870   37.8140 H   0  0  0  0  0  0  0  0  0  0  0  0
   38.6460   22.4370   35.3950 H   0  0  0  0  0  0  0  0  0  0  0  0
   38.2940   25.5950   36.1440 C   0  0  0  0  0  3  0  0  0  0  0  0
   38.4590   24.5260   35.2490 C   0  0  0  0  0  0  0  0  0  0  0  0
   37.9910   24.7540   33.9730 C   0  0  0  0  0  0  0  0  0  0  0  0
   38.1400   23.9070   33.3220 H   0  0  0  0  0  0  0  0  0  0  0  0
   37.4050   25.9470   33.6080 C   0  0  0  0  0  0  0  0  0  0  0  0
   36.9170   26.2790   32.4050 N   0  0  0  0  0  0  0  0  0  0  0  0
   36.8750   25.7320   31.5180 H   0  0  0  0  0  0  0  0  0  0  0  0
   36.4420   27.5100   32.4700 N   0  0  0  0  0  0  0  0  0  0  0  0
   36.6230   27.9830   33.7280 C   0  0  0  0  0  0  0  0  0  0  0  0
   36.3700   28.9440   34.1780 H   0  0  0  0  0  0  0  0  0  0  0  0
   37.2370   27.0020   34.4760 C   0  0  0  0  0  0  0  0  0  0  0  0
   37.7040   26.7780   35.7520 C   0  0  0  0  0  3  0  0  0  0  0  0
  1  2  2  0  0  0  0
  1  6  1  0  0  0  0
  2  3  1  0  0  0  0
  3 15  1  0  0  0  0
  3  4  2  0  0  0  0
  5  4  1  0  0  0  0
  5  7  1  0  0  0  0
  6  5  2  0  0  0  0
  7 12  1  0  0  0  0
  7  8  1  0  0  0  0
  8  9  1  0  0  0  0
  9 19  1  0  0  0  0
  9 18  1  0  0  0  0
  9 10  1  0  0  0  0
 10 20  1  0  0  0  0
 11 21  1  0  0  0  0
 11 22  1  0  0  0  0
 11 10  1  0  0  0  0
 12 23  1  6  0  0  0
 12 11  1  0  0  0  0
 13  1  1  0  0  0  0
 14  2  1  0  0  0  0
 16  8  1  0  0  0  0
 17  8  1  0  0  0  0
 25 12  1  0  0  0  0
 25 24  2  0  0  0  0
 26 25  1  0  0  0  0
 27 26  1  0  0  0  0
 28 26  2  0  0  0  0
 28 34  1  0  0  0  0
 29 31  1  0  0  0  0
 29 28  1  0  0  0  0
 30 29  1  0  0  0  0
 31 32  2  0  0  0  0
 32 33  1  0  0  0  0
 32 34  1  0  0  0  0
 34 35  2  0  0  0  0
 35 24  1  0  0  0  0
M  END
>  <minimizedAffinity>
-5.64625883

$$$$

 OpenBabel03262521503D

 35 38  0  0  1  0  0  0  0  0999 V2000
   38.8910   22.1370   35.6900 C   0  0  0  0  0  0  0  0  0  0  0  0
   37.8990   22.3430   34.7150 C   0  0  0  0  0  0  0  0  0  0  0  0
   38.0730   23.4240   33.8390 C   0  0  0  0  0  0  0  0  0  0  0  0
   39.1840   24.1930   33.9960 N   0  0  0  0  0  0  0  0  0  0  0  0
   40.1070   23.9660   34.9350 C   0  0  0  0  0  0  0  0  0  0  0  0
   39.9630   22.9340   35.7880 N   0  0  0  0  0  0  0  0  0  0  0  0
   41.2190   24.8030   35.0400 N   0  0  0  0  0  0  0  0  0  0  0  0
   42.5170   24.3090   35.5200 C   0  0  0  0  0  0  0  0  0  0  0  0
   43.5860   24.6170   34.5420 C   0  0  0  0  0  0  0  0  0  0  0  0
   43.2880   25.5410   33.5490 N   0  0  0  0  0  0  0  0  0  0  0  0
   42.2820   26.5250   33.7400 C   0  0  0  0  0  0  0  0  0  0  0  0
   41.1880   26.1970   34.6970 C   0  0  1  0  0  0  0  0  0  0  0  0
   38.7120   21.2870   36.3450 H   0  0  0  0  0  0  0  0  0  0  0  0
   37.0300   21.6960   34.6370 H   0  0  0  0  0  0  0  0  0  0  0  0
   37.3320   23.6280   33.0640 H   0  0  0  0  0  0  0  0  0  0  0  0
   42.4140   23.2130   35.6930 H   0  0  0  0  0  0  0  0  0  0  0  0
   42.6980   24.7500   36.5080 H   0  0  0  0  0  0  0  0  0  0  0  0
   43.9450   23.6530   34.0870 H   0  0  0  0  0  0  0  0  0  0  0  0
   44.4730   24.9850   35.1300 H   0  0  0  0  0  0  0  0  0  0  0  0
   44.1180   25.9880   33.1310 H   0  0  0  0  0  0  0  0  0  0  0  0
   42.7740   27.4700   34.0480 H   0  0  0  0  0  0  0  0  0  0  0  0
   41.8570   26.7480   32.7400 H   0  0  0  0  0  0  0  0  0  0  0  0
   41.4980   26.6960   35.7040 H   0  0  0  0  0  0  0  0  0  0  0  0
   39.1480   27.0460   35.5610 C   0  0  0  0  0  3  0  0  0  0  0  0
   39.8580   26.7370   34.3890 C   0  0  0  0  0  0  0  0  0  0  0  0
   39.1860   26.9940   33.2150 C   0  0  0  0  0  0  0  0  0  0  0  0
   39.7700   26.7420   32.3430 H   0  0  0  0  0  0  0  0  0  0  0  0
   37.9110   27.5170   33.1950 C   0  0  0  0  0  0  0  0  0  0  0  0
   37.1660   27.8060   32.1210 N   0  0  0  0  0  0  0  0  0  0  0  0
   37.3770   27.7030   31.1040 H   0  0  0  0  0  0  0  0  0  0  0  0
   36.0060   28.2880   32.5310 N   0  0  0  0  0  0  0  0  0  0  0  0
   35.9970   28.3120   33.8860 C   0  0  0  0  0  0  0  0  0  0  0  0
   35.2350   28.6370   34.5950 H   0  0  0  0  0  0  0  0  0  0  0  0
   37.2050   27.8240   34.3370 C   0  0  0  0  0  0  0  0  0  0  0  0
   37.8730   27.5690   35.5140 C   0  0  0  0  0  3  0  0  0  0  0  0
  1  6  1  0  0  0  0
  1 13  1  0  0  0  0
  2  1  2  0  0  0  0
  3  4  2  0  0  0  0
  3  2  1  0  0  0  0
  4  5  1  0  0  0  0
  5  7  1  0  0  0  0
  5  6  2  0  0  0  0
  7  8  1  0  0  0  0
  8 16  1  0  0  0  0
  8 17  1  0  0  0  0
  9 19  1  0  0  0  0
  9  8  1  0  0  0  0
 10 11  1  0  0  0  0
 10  9  1  0  0  0  0
 11 21  1  0  0  0  0
 11 12  1  0  0  0  0
 12  7  1  0  0  0  0
 12 23  1  1  0  0  0
 14  2  1  0  0  0  0
 15  3  1  0  0  0  0
 18  9  1  0  0  0  0
 20 10  1  0  0  0  0
 22 11  1  0  0  0  0
 25 12  1  0  0  0  0
 25 24  2  0  0  0  0
 26 25  1  0  0  0  0
 27 26  1  0  0  0  0
 28 26  2  0  0  0  0
 28 34  1  0  0  0  0
 29 31  1  0  0  0  0
 29 28  1  0  0  0  0
 30 29  1  0  0  0  0
 31 32  2  0  0  0  0
 32 34  1  0  0  0  0
 32 33  1  0  0  0  0
 34 35  2  0  0  0  0
 35 24  1  0  0  0  0
M  END
>  <minimizedAffinity>
-5.332232

$$$$

 OpenBabel03262521503D

 35 38  0  0  1  0  0  0  0  0999 V2000
   39.3560   26.0990   35.2610 C   0  0  0  0  0  0  0  0  0  0  0  0
   38.5910   27.2070   35.6660 C   0  0  0  0  0  0  0  0  0  0  0  0
   37.4250   27.4830   34.9370 C   0  0  0  0  0  0  0  0  0  0  0  0
   37.1220   26.6640   33.8950 N   0  0  0  0  0  0  0  0  0  0  0  0
   37.8740   25.6190   33.5390 C   0  0  0  0  0  0  0  0  0  0  0  0
   38.9980   25.3320   34.2230 N   0  0  0  0  0  0  0  0  0  0  0  0
   37.5020   24.8260   32.4520 N   0  0  0  0  0  0  0  0  0  0  0  0
   37.8240   23.3940   32.3930 C   0  0  0  0  0  0  0  0  0  0  0  0
   36.6000   22.5930   32.1590 C   0  0  0  0  0  0  0  0  0  0  0  0
   35.4680   23.2780   31.7370 N   0  0  0  0  0  0  0  0  0  0  0  0
   35.5730   24.5170   31.0500 C   0  0  0  0  0  0  0  0  0  0  0  0
   36.7880   25.3360   31.3150 C   0  0  1  0  0  0  0  0  0  0  0  0
   40.2500   25.9250   35.8580 H   0  0  0  0  0  0  0  0  0  0  0  0
   38.8830   27.8280   36.5080 H   0  0  0  0  0  0  0  0  0  0  0  0
   36.7960   28.3320   35.2100 H   0  0  0  0  0  0  0  0  0  0  0  0
   38.3220   23.1230   33.3530 H   0  0  0  0  0  0  0  0  0  0  0  0
   38.5850   23.2540   31.6150 H   0  0  0  0  0  0  0  0  0  0  0  0
   36.3770   22.0000   33.0880 H   0  0  0  0  0  0  0  0  0  0  0  0
   36.8610   21.8100   31.3940 H   0  0  0  0  0  0  0  0  0  0  0  0
   34.7770   22.6850   31.2530 H   0  0  0  0  0  0  0  0  0  0  0  0
   35.4880   24.3200   29.9620 H   0  0  0  0  0  0  0  0  0  0  0  0
   34.6610   25.0990   31.2970 H   0  0  0  0  0  0  0  0  0  0  0  0
   37.5230   25.0920   30.4440 H   0  0  0  0  0  0  0  0  0  0  0  0
   37.7330   27.4250   30.7010 C   0  0  0  0  0  3  0  0  0  0  0  0
   36.6210   26.7940   31.2840 C   0  0  0  0  0  0  0  0  0  0  0  0
   35.6200   27.6440   31.7000 C   0  0  0  0  0  0  0  0  0  0  0  0
   34.7880   27.1170   32.1400 H   0  0  0  0  0  0  0  0  0  0  0  0
   35.7070   29.0120   31.5520 C   0  0  0  0  0  0  0  0  0  0  0  0
   34.8020   29.9300   31.9170 N   0  0  0  0  0  0  0  0  0  0  0  0
   33.8710   29.8170   32.3730 H   0  0  0  0  0  0  0  0  0  0  0  0
   35.2660   31.1260   31.6010 N   0  0  0  0  0  0  0  0  0  0  0  0
   36.4850   30.9840   31.0260 C   0  0  0  0  0  0  0  0  0  0  0  0
   37.1840   31.7220   30.6320 H   0  0  0  0  0  0  0  0  0  0  0  0
   36.7910   29.6410   30.9830 C   0  0  0  0  0  0  0  0  0  0  0  0
   37.7950   28.7950   30.5650 C   0  0  0  0  0  3  0  0  0  0  0  0
  1  2  1  0  0  0  0
  1 13  1  0  0  0  0
  2 14  1  0  0  0  0
  3 15  1  0  0  0  0
  3  2  2  0  0  0  0
  4  3  1  0  0  0  0
  5  4  2  0  0  0  0
  5  6  1  0  0  0  0
  6  1  2  0  0  0  0
  7  5  1  0  0  0  0
  8  7  1  0  0  0  0
  8 16  1  0  0  0  0
  9  8  1  0  0  0  0
  9 18  1  0  0  0  0
 10  9  1  0  0  0  0
 11 22  1  0  0  0  0
 11 12  1  0  0  0  0
 11 10  1  0  0  0  0
 12 23  1  6  0  0  0
 12  7  1  0  0  0  0
 17  8  1  0  0  0  0
 19  9  1  0  0  0  0
 20 10  1  0  0  0  0
 21 11  1  0  0  0  0
 24 25  1  0  0  0  0
 25 12  1  0  0  0  0
 25 26  2  0  0  0  0
 26 27  1  0  0  0  0
 28 26  1  0  0  0  0
 28 29  1  0  0  0  0
 29 30  1  0  0  0  0
 31 29  1  0  0  0  0
 32 31  2  0  0  0  0
 33 32  1  0  0  0  0
 34 32  1  0  0  0  0
 34 28  2  0  0  0  0
 35 24  2  0  0  0  0
 35 34  1  0  0  0  0
M  END
>  <minimizedAffinity>
-5.29228306

$$$$

 OpenBabel03262521503D

 35 38  0  0  1  0  0  0  0  0999 V2000
   37.8780   23.8870   30.4890 C   0  0  0  0  0  0  0  0  0  0  0  0
   37.5990   22.7830   31.3150 C   0  0  0  0  0  0  0  0  0  0  0  0
   37.3500   23.0410   32.6700 C   0  0  0  0  0  0  0  0  0  0  0  0
   37.3990   24.3340   33.0870 N   0  0  0  0  0  0  0  0  0  0  0  0
   37.6670   25.3590   32.2730 C   0  0  0  0  0  0  0  0  0  0  0  0
   37.9090   25.1380   30.9670 N   0  0  0  0  0  0  0  0  0  0  0  0
   37.7060   26.6600   32.7760 N   0  0  0  0  0  0  0  0  0  0  0  0
   37.3390   27.8200   31.9510 C   0  0  0  0  0  0  0  0  0  0  0  0
   36.2920   28.6250   32.6210 C   0  0  0  0  0  0  0  0  0  0  0  0
   36.0630   28.3720   33.9670 N   0  0  0  0  0  0  0  0  0  0  0  0
   37.0760   27.8120   34.7910 C   0  0  0  0  0  0  0  0  0  0  0  0
   38.1070   26.9730   34.1190 C   0  0  1  0  0  0  0  0  0  0  0  0
   38.0630   23.6360   29.4470 H   0  0  0  0  0  0  0  0  0  0  0  0
   37.5740   21.7700   30.9250 H   0  0  0  0  0  0  0  0  0  0  0  0
   37.1280   22.2190   33.3530 H   0  0  0  0  0  0  0  0  0  0  0  0
   36.9980   27.4320   30.9630 H   0  0  0  0  0  0  0  0  0  0  0  0
   38.2540   28.3890   31.7470 H   0  0  0  0  0  0  0  0  0  0  0  0
   35.3360   28.5290   32.0350 H   0  0  0  0  0  0  0  0  0  0  0  0
   36.5790   29.7070   32.4960 H   0  0  0  0  0  0  0  0  0  0  0  0
   35.6180   29.1540   34.4700 H   0  0  0  0  0  0  0  0  0  0  0  0
   37.5710   28.6370   35.3420 H   0  0  0  0  0  0  0  0  0  0  0  0
   36.5610   27.2240   35.5780 H   0  0  0  0  0  0  0  0  0  0  0  0
   39.0140   27.6820   33.9370 H   0  0  0  0  0  0  0  0  0  0  0  0
   37.7740   25.4710   35.9250 C   0  0  0  0  0  3  0  0  0  0  0  0
   38.6450   25.8450   34.8890 C   0  0  0  0  0  0  0  0  0  0  0  0
   39.8000   25.1000   34.8010 C   0  0  0  0  0  0  0  0  0  0  0  0
   40.4370   25.4220   33.9920 H   0  0  0  0  0  0  0  0  0  0  0  0
   40.0770   24.0650   35.6680 C   0  0  0  0  0  0  0  0  0  0  0  0
   41.1600   23.2770   35.6770 N   0  0  0  0  0  0  0  0  0  0  0  0
   41.9990   23.2740   35.0560 H   0  0  0  0  0  0  0  0  0  0  0  0
   41.0410   22.4090   36.6650 N   0  0  0  0  0  0  0  0  0  0  0  0
   39.8670   22.6340   37.3060 C   0  0  0  0  0  0  0  0  0  0  0  0
   39.4080   22.1380   38.1610 H   0  0  0  0  0  0  0  0  0  0  0  0
   39.2310   23.6890   36.6870 C   0  0  0  0  0  0  0  0  0  0  0  0
   38.0740   24.4300   36.7790 C   0  0  0  0  0  3  0  0  0  0  0  0
  1  6  2  0  0  0  0
  1  2  1  0  0  0  0
  2  3  2  0  0  0  0
  3  4  1  0  0  0  0
  3 15  1  0  0  0  0
  5  7  1  0  0  0  0
  5  4  2  0  0  0  0
  6  5  1  0  0  0  0
  7 12  1  0  0  0  0
  8  9  1  0  0  0  0
  8  7  1  0  0  0  0
  9 10  1  0  0  0  0
 10 20  1  0  0  0  0
 10 11  1  0  0  0  0
 11 21  1  0  0  0  0
 11 22  1  0  0  0  0
 12 23  1  6  0  0  0
 12 11  1  0  0  0  0
 12 25  1  0  0  0  0
 13  1  1  0  0  0  0
 14  2  1  0  0  0  0
 16  8  1  0  0  0  0
 17  8  1  0  0  0  0
 18  9  1  0  0  0  0
 19  9  1  0  0  0  0
 24 35  1  0  0  0  0
 25 24  2  0  0  0  0
 26 25  1  0  0  0  0
 26 28  2  0  0  0  0
 27 26  1  0  0  0  0
 28 29  1  0  0  0  0
 28 34  1  0  0  0  0
 29 31  1  0  0  0  0
 30 29  1  0  0  0  0
 31 32  2  0  0  0  0
 32 33  1  0  0  0  0
 34 35  2  0  0  0  0
 34 32  1  0  0  0  0
M  END
>  <minimizedAffinity>
-5.23191786

$$$$

 OpenBabel03262521503D

 35 38  0  0  1  0  0  0  0  0999 V2000
   36.6520   33.5230   35.6170 C   0  0  0  0  0  0  0  0  0  0  0  0
   36.9950   33.6660   34.2610 C   0  0  0  0  0  0  0  0  0  0  0  0
   36.3020   32.8730   33.3350 C   0  0  0  0  0  0  0  0  0  0  0  0
   35.3520   32.0260   33.8150 N   0  0  0  0  0  0  0  0  0  0  0  0
   35.0520   31.9170   35.1120 C   0  0  0  0  0  0  0  0  0  0  0  0
   35.7030   32.6680   36.0200 N   0  0  0  0  0  0  0  0  0  0  0  0
   34.0680   31.0200   35.5290 N   0  0  0  0  0  0  0  0  0  0  0  0
   33.2410   31.2760   36.7170 C   0  0  0  0  0  0  0  0  0  0  0  0
   31.8020   31.1970   36.3760 C   0  0  0  0  0  0  0  0  0  0  0  0
   31.4710   30.6170   35.1580 N   0  0  0  0  0  0  0  0  0  0  0  0
   32.3370   29.6810   34.5310 C   0  0  0  0  0  0  0  0  0  0  0  0
   33.7890   29.7870   34.8480 C   0  0  1  0  0  0  0  0  0  0  0  0
   37.2160   34.1590   36.2960 H   0  0  0  0  0  0  0  0  0  0  0  0
   37.7660   34.3600   33.9360 H   0  0  0  0  0  0  0  0  0  0  0  0
   36.5310   32.9450   32.2710 H   0  0  0  0  0  0  0  0  0  0  0  0
   33.5210   32.2810   37.1090 H   0  0  0  0  0  0  0  0  0  0  0  0
   33.5390   30.5600   37.4930 H   0  0  0  0  0  0  0  0  0  0  0  0
   31.3580   32.2280   36.4530 H   0  0  0  0  0  0  0  0  0  0  0  0
   31.2980   30.6230   37.2030 H   0  0  0  0  0  0  0  0  0  0  0  0
   30.5050   30.2590   35.1140 H   0  0  0  0  0  0  0  0  0  0  0  0
   31.9780   28.6600   34.7710 H   0  0  0  0  0  0  0  0  0  0  0  0
   32.1790   29.7810   33.4380 H   0  0  0  0  0  0  0  0  0  0  0  0
   33.9800   29.0020   35.6890 H   0  0  0  0  0  0  0  0  0  0  0  0
   35.8110   28.6930   34.2610 C   0  0  0  0  0  3  0  0  0  0  0  0
   34.7260   29.4400   33.7730 C   0  0  0  0  0  0  0  0  0  0  0  0
   34.7540   29.6920   32.4190 C   0  0  0  0  0  0  0  0  0  0  0  0
   33.9010   30.2660   32.0900 H   0  0  0  0  0  0  0  0  0  0  0  0
   35.7730   29.2420   31.6070 C   0  0  0  0  0  0  0  0  0  0  0  0
   35.9030   29.4260   30.2870 N   0  0  0  0  0  0  0  0  0  0  0  0
   35.2870   29.9280   29.6100 H   0  0  0  0  0  0  0  0  0  0  0  0
   37.0160   28.8370   29.8890 N   0  0  0  0  0  0  0  0  0  0  0  0
   37.6170   28.2650   30.9610 C   0  0  0  0  0  0  0  0  0  0  0  0
   38.5410   27.6940   31.0480 H   0  0  0  0  0  0  0  0  0  0  0  0
   36.8410   28.5100   32.0740 C   0  0  0  0  0  0  0  0  0  0  0  0
   36.8180   28.2550   33.4270 C   0  0  0  0  0  3  0  0  0  0  0  0
  1  6  1  0  0  0  0
  1 13  1  0  0  0  0
  2  1  2  0  0  0  0
  3  4  2  0  0  0  0
  3  2  1  0  0  0  0
  4  5  1  0  0  0  0
  5  7  1  0  0  0  0
  5  6  2  0  0  0  0
  7  8  1  0  0  0  0
  8 16  1  0  0  0  0
  8 17  1  0  0  0  0
  9 18  1  0  0  0  0
  9  8  1  0  0  0  0
  9 19  1  0  0  0  0
 10  9  1  0  0  0  0
 11 21  1  0  0  0  0
 11 12  1  0  0  0  0
 11 10  1  0  0  0  0
 12  7  1  0  0  0  0
 12 23  1  1  0  0  0
 14  2  1  0  0  0  0
 15  3  1  0  0  0  0
 20 10  1  0  0  0  0
 22 11  1  0  0  0  0
 25 24  1  0  0  0  0
 25 12  1  0  0  0  0
 26 25  2  0  0  0  0
 27 26  1  0  0  0  0
 28 34  2  0  0  0  0
 28 26  1  0  0  0  0
 29 28  1  0  0  0  0
 30 29  1  0  0  0  0
 31 29  1  0  0  0  0
 31 32  2  0  0  0  0
 32 33  1  0  0  0  0
 32 34  1  0  0  0  0
 34 35  1  0  0  0  0
 35 24  2  0  0  0  0
M  END
>  <minimizedAffinity>
-5.11518002

$$$$

 OpenBabel03262521503D

 35 38  0  0  1  0  0  0  0  0999 V2000
   37.5150   27.4670   35.2480 C   0  0  0  0  0  0  0  0  0  0  0  0
   38.8600   27.4210   35.6540 C   0  0  0  0  0  0  0  0  0  0  0  0
   39.6700   26.4280   35.0850 C   0  0  0  0  0  0  0  0  0  0  0  0
   39.0970   25.5830   34.1870 N   0  0  0  0  0  0  0  0  0  0  0  0
   37.8140   25.6560   33.8240 C   0  0  0  0  0  0  0  0  0  0  0  0
   37.0150   26.6020   34.3560 N   0  0  0  0  0  0  0  0  0  0  0  0
   37.2950   24.7480   32.9000 N   0  0  0  0  0  0  0  0  0  0  0  0
   36.2010   25.1120   31.9880 C   0  0  0  0  0  0  0  0  0  0  0  0
   36.5840   24.8440   30.5820 C   0  0  0  0  0  0  0  0  0  0  0  0
   37.7010   24.0460   30.3720 N   0  0  0  0  0  0  0  0  0  0  0  0
   38.1290   23.1090   31.3510 C   0  0  0  0  0  0  0  0  0  0  0  0
   37.7740   23.4010   32.7670 C   0  0  1  0  0  0  0  0  0  0  0  0
   36.9270   28.2540   35.7160 H   0  0  0  0  0  0  0  0  0  0  0  0
   39.2630   28.1240   36.3780 H   0  0  0  0  0  0  0  0  0  0  0  0
   40.7220   26.3500   35.3670 H   0  0  0  0  0  0  0  0  0  0  0  0
   35.9690   26.1890   32.1580 H   0  0  0  0  0  0  0  0  0  0  0  0
   35.3060   24.5620   32.3020 H   0  0  0  0  0  0  0  0  0  0  0  0
   36.6970   25.8270   30.0470 H   0  0  0  0  0  0  0  0  0  0  0  0
   35.6950   24.3650   30.0850 H   0  0  0  0  0  0  0  0  0  0  0  0
   37.7260   23.5960   29.4460 H   0  0  0  0  0  0  0  0  0  0  0  0
   37.7390   22.1100   31.0680 H   0  0  0  0  0  0  0  0  0  0  0  0
   39.2300   23.0160   31.2460 H   0  0  0  0  0  0  0  0  0  0  0  0
   36.8080   22.7830   32.9780 H   0  0  0  0  0  0  0  0  0  0  0  0
   40.0160   22.7880   33.2430 C   0  0  0  0  0  3  0  0  0  0  0  0
   38.7370   22.9760   33.7910 C   0  0  0  0  0  0  0  0  0  0  0  0
   38.6390   22.7320   35.1430 C   0  0  0  0  0  0  0  0  0  0  0  0
   37.6400   22.8900   35.5190 H   0  0  0  0  0  0  0  0  0  0  0  0
   39.7210   22.3340   35.8990 C   0  0  0  0  0  0  0  0  0  0  0  0
   39.7430   22.0700   37.2120 N   0  0  0  0  0  0  0  0  0  0  0  0
   38.9800   22.1070   37.9220 H   0  0  0  0  0  0  0  0  0  0  0  0
   40.9720   21.7200   37.5490 N   0  0  0  0  0  0  0  0  0  0  0  0
   41.7560   21.7570   36.4440 C   0  0  0  0  0  0  0  0  0  0  0  0
   42.8160   21.5400   36.3060 H   0  0  0  0  0  0  0  0  0  0  0  0
   40.9790   22.1470   35.3740 C   0  0  0  0  0  0  0  0  0  0  0  0
   41.0820   22.3890   34.0220 C   0  0  0  0  0  3  0  0  0  0  0  0
  1  2  1  0  0  0  0
  1 13  1  0  0  0  0
  2 14  1  0  0  0  0
  3 15  1  0  0  0  0
  3  2  2  0  0  0  0
  4  3  1  0  0  0  0
  5  4  2  0  0  0  0
  5  6  1  0  0  0  0
  6  1  2  0  0  0  0
  7  5  1  0  0  0  0
  8 16  1  0  0  0  0
  8 17  1  0  0  0  0
  8  7  1  0  0  0  0
  9  8  1  0  0  0  0
 10  9  1  0  0  0  0
 10 11  1  0  0  0  0
 11 12  1  0  0  0  0
 12  7  1  0  0  0  0
 12 23  1  1  0  0  0
 12 25  1  0  0  0  0
 18  9  1  0  0  0  0
 19  9  1  0  0  0  0
 20 10  1  0  0  0  0
 21 11  1  0  0  0  0
 22 11  1  0  0  0  0
 24 25  2  0  0  0  0
 24 35  1  0  0  0  0
 25 26  1  0  0  0  0
 26 27  1  0  0  0  0
 26 28  2  0  0  0  0
 28 29  1  0  0  0  0
 29 31  1  0  0  0  0
 29 30  1  0  0  0  0
 32 31  2  0  0  0  0
 33 32  1  0  0  0  0
 34 28  1  0  0  0  0
 34 32  1  0  0  0  0
 35 34  2  0  0  0  0
M  END
>  <minimizedAffinity>
-5.11071396

$$$$

 OpenBabel03262521503D

 35 38  0  0  1  0  0  0  0  0999 V2000
   36.7770   22.5520   31.4730 C   0  0  0  0  0  0  0  0  0  0  0  0
   35.5170   23.1490   31.6510 C   0  0  0  0  0  0  0  0  0  0  0  0
   35.3940   24.5030   31.3100 C   0  0  0  0  0  0  0  0  0  0  0  0
   36.4980   25.1390   30.8350 N   0  0  0  0  0  0  0  0  0  0  0  0
   37.6810   24.5380   30.6790 C   0  0  0  0  0  0  0  0  0  0  0  0
   37.8250   23.2380   30.9990 N   0  0  0  0  0  0  0  0  0  0  0  0
   38.7730   25.2580   30.1910 N   0  0  0  0  0  0  0  0  0  0  0  0
   39.8310   24.6170   29.3980 C   0  0  0  0  0  0  0  0  0  0  0  0
   40.0200   25.3260   28.1120 C   0  0  0  0  0  0  0  0  0  0  0  0
   39.4460   26.5850   27.9930 N   0  0  0  0  0  0  0  0  0  0  0  0
   39.1800   27.3820   29.1380 C   0  0  0  0  0  0  0  0  0  0  0  0
   38.9540   26.6640   30.4240 C   0  0  1  0  0  0  0  0  0  0  0  0
   36.8230   21.5000   31.7510 H   0  0  0  0  0  0  0  0  0  0  0  0
   34.6690   22.5900   32.0360 H   0  0  0  0  0  0  0  0  0  0  0  0
   34.4370   25.0140   31.4290 H   0  0  0  0  0  0  0  0  0  0  0  0
   39.5370   23.5530   29.2480 H   0  0  0  0  0  0  0  0  0  0  0  0
   40.7400   24.5900   30.0120 H   0  0  0  0  0  0  0  0  0  0  0  0
   39.6720   24.6550   27.2780 H   0  0  0  0  0  0  0  0  0  0  0  0
   41.1300   25.4130   27.9440 H   0  0  0  0  0  0  0  0  0  0  0  0
   39.8800   27.1760   27.2690 H   0  0  0  0  0  0  0  0  0  0  0  0
   40.0110   28.1060   29.2590 H   0  0  0  0  0  0  0  0  0  0  0  0
   38.2990   28.0100   28.8950 H   0  0  0  0  0  0  0  0  0  0  0  0
   39.9820   26.6820   30.9740 H   0  0  0  0  0  0  0  0  0  0  0  0
   38.3430   26.9880   32.6930 C   0  0  0  0  0  3  0  0  0  0  0  0
   38.0010   27.2710   31.3610 C   0  0  0  0  0  0  0  0  0  0  0  0
   36.8710   28.0420   31.1990 C   0  0  0  0  0  0  0  0  0  0  0  0
   36.6490   28.2340   30.1610 H   0  0  0  0  0  0  0  0  0  0  0  0
   36.1340   28.5000   32.2700 C   0  0  0  0  0  0  0  0  0  0  0  0
   35.0250   29.2510   32.2330 N   0  0  0  0  0  0  0  0  0  0  0  0
   34.4990   29.6400   31.4200 H   0  0  0  0  0  0  0  0  0  0  0  0
   34.6270   29.4730   33.4720 N   0  0  0  0  0  0  0  0  0  0  0  0
   35.4840   28.8590   34.3240 C   0  0  0  0  0  0  0  0  0  0  0  0
   35.5020   28.8060   35.4130 H   0  0  0  0  0  0  0  0  0  0  0  0
   36.4580   28.2290   33.5800 C   0  0  0  0  0  0  0  0  0  0  0  0
   37.5880   27.4590   33.7470 C   0  0  0  0  0  3  0  0  0  0  0  0
  1  2  1  0  0  0  0
  1 13  1  0  0  0  0
  2 14  1  0  0  0  0
  3 15  1  0  0  0  0
  3  2  2  0  0  0  0
  4  3  1  0  0  0  0
  5  4  2  0  0  0  0
  5  6  1  0  0  0  0
  6  1  2  0  0  0  0
  7 12  1  0  0  0  0
  7  5  1  0  0  0  0
  8 17  1  0  0  0  0
  8  7  1  0  0  0  0
  9  8  1  0  0  0  0
 10  9  1  0  0  0  0
 10 11  1  0  0  0  0
 11 21  1  0  0  0  0
 11 12  1  0  0  0  0
 12 23  1  1  0  0  0
 12 25  1  0  0  0  0
 16  8  1  0  0  0  0
 18  9  1  0  0  0  0
 19  9  1  0  0  0  0
 20 10  1  0  0  0  0
 22 11  1  0  0  0  0
 24 35  1  0  0  0  0
 25 24  2  0  0  0  0
 26 25  1  0  0  0  0
 26 28  2  0  0  0  0
 27 26  1  0  0  0  0
 28 34  1  0  0  0  0
 29 28  1  0  0  0  0
 29 31  1  0  0  0  0
 30 29  1  0  0  0  0
 31 32  2  0  0  0  0
 32 33  1  0  0  0  0
 34 35  2  0  0  0  0
 34 32  1  0  0  0  0
M  END
>  <minimizedAffinity>
-5.07005501

$$$$

 OpenBabel03262521503D

 35 38  0  0  1  0  0  0  0  0999 V2000
   43.0060   27.1510   33.6050 C   0  0  0  0  0  0  0  0  0  0  0  0
   43.0960   25.9830   34.3810 C   0  0  0  0  0  0  0  0  0  0  0  0
   41.9990   25.1110   34.3610 C   0  0  0  0  0  0  0  0  0  0  0  0
   40.9300   25.4580   33.5950 N   0  0  0  0  0  0  0  0  0  0  0  0
   40.8800   26.5780   32.8690 C   0  0  0  0  0  0  0  0  0  0  0  0
   41.9210   27.4320   32.8720 N   0  0  0  0  0  0  0  0  0  0  0  0
   39.7440   26.8710   32.1120 N   0  0  0  0  0  0  0  0  0  0  0  0
   39.8250   27.6340   30.8580 C   0  0  0  0  0  0  0  0  0  0  0  0
   39.1870   26.8860   29.7510 C   0  0  0  0  0  0  0  0  0  0  0  0
   38.3810   25.8090   30.0960 N   0  0  0  0  0  0  0  0  0  0  0  0
   37.7560   25.7390   31.3700 C   0  0  0  0  0  0  0  0  0  0  0  0
   38.4200   26.4620   32.4900 C   0  0  1  0  0  0  0  0  0  0  0  0
   43.8830   27.7950   33.6520 H   0  0  0  0  0  0  0  0  0  0  0  0
   43.9780   25.7580   34.9750 H   0  0  0  0  0  0  0  0  0  0  0  0
   42.0180   24.1900   34.9460 H   0  0  0  0  0  0  0  0  0  0  0  0
   40.9030   27.8340   30.6590 H   0  0  0  0  0  0  0  0  0  0  0  0
   39.3680   28.6160   31.0340 H   0  0  0  0  0  0  0  0  0  0  0  0
   39.9870   26.5620   29.0290 H   0  0  0  0  0  0  0  0  0  0  0  0
   38.5750   27.6260   29.1630 H   0  0  0  0  0  0  0  0  0  0  0  0
   37.6940   25.5520   29.3730 H   0  0  0  0  0  0  0  0  0  0  0  0
   36.7110   26.0960   31.2650 H   0  0  0  0  0  0  0  0  0  0  0  0
   37.6560   24.6630   31.6200 H   0  0  0  0  0  0  0  0  0  0  0  0
   37.8690   27.4860   32.5680 H   0  0  0  0  0  0  0  0  0  0  0  0
   38.3670   26.8350   34.8330 C   0  0  0  0  0  3  0  0  0  0  0  0
   38.3090   25.8600   33.8240 C   0  0  0  0  0  0  0  0  0  0  0  0
   38.1620   24.5650   34.2720 C   0  0  0  0  0  0  0  0  0  0  0  0
   38.1210   23.8520   33.4630 H   0  0  0  0  0  0  0  0  0  0  0  0
   38.0780   24.2550   35.6120 C   0  0  0  0  0  0  0  0  0  0  0  0
   37.9360   23.0410   36.1590 N   0  0  0  0  0  0  0  0  0  0  0  0
   37.8590   22.1020   35.7100 H   0  0  0  0  0  0  0  0  0  0  0  0
   37.8970   23.1740   37.4730 N   0  0  0  0  0  0  0  0  0  0  0  0
   38.0170   24.4880   37.7830 C   0  0  0  0  0  0  0  0  0  0  0  0
   38.0300   25.0020   38.7450 H   0  0  0  0  0  0  0  0  0  0  0  0
   38.1340   25.2020   36.6090 C   0  0  0  0  0  0  0  0  0  0  0  0
   38.2810   26.4980   36.1670 C   0  0  0  0  0  3  0  0  0  0  0  0
  1 13  1  0  0  0  0
  1  2  1  0  0  0  0
  2 14  1  0  0  0  0
  3  2  2  0  0  0  0
  3 15  1  0  0  0  0
  4  3  1  0  0  0  0
  5  6  1  0  0  0  0
  5  4  2  0  0  0  0
  6  1  2  0  0  0  0
  7 12  1  0  0  0  0
  7  5  1  0  0  0  0
  8 17  1  0  0  0  0
  8  7  1  0  0  0  0
  9 10  1  0  0  0  0
  9  8  1  0  0  0  0
 10 11  1  0  0  0  0
 11 22  1  0  0  0  0
 11 12  1  0  0  0  0
 12 23  1  1  0  0  0
 12 25  1  0  0  0  0
 16  8  1  0  0  0  0
 18  9  1  0  0  0  0
 19  9  1  0  0  0  0
 20 10  1  0  0  0  0
 21 11  1  0  0  0  0
 24 35  1  0  0  0  0
 25 26  1  0  0  0  0
 25 24  2  0  0  0  0
 26 28  2  0  0  0  0
 27 26  1  0  0  0  0
 28 29  1  0  0  0  0
 28 34  1  0  0  0  0
 29 31  1  0  0  0  0
 30 29  1  0  0  0  0
 31 32  2  0  0  0  0
 32 33  1  0  0  0  0
 34 32  1  0  0  0  0
 35 34  2  0  0  0  0
M  END
>  <minimizedAffinity>
-5.04480267

$$$$

 OpenBabel03262521503D

 35 38  0  0  1  0  0  0  0  0999 V2000
   38.1480   24.4270   35.7960 C   0  0  0  0  0  0  0  0  0  0  0  0
   38.4330   23.0680   36.0190 C   0  0  0  0  0  0  0  0  0  0  0  0
   38.5950   22.2510   34.8920 C   0  0  0  0  0  0  0  0  0  0  0  0
   38.4640   22.8300   33.6680 N   0  0  0  0  0  0  0  0  0  0  0  0
   38.1920   24.1260   33.4940 C   0  0  0  0  0  0  0  0  0  0  0  0
   38.0330   24.9320   34.5610 N   0  0  0  0  0  0  0  0  0  0  0  0
   38.0650   24.6470   32.2050 N   0  0  0  0  0  0  0  0  0  0  0  0
   38.4230   26.0390   31.8950 C   0  0  0  0  0  0  0  0  0  0  0  0
   39.3930   26.0910   30.7770 C   0  0  0  0  0  0  0  0  0  0  0  0
   39.5590   24.9320   30.0290 N   0  0  0  0  0  0  0  0  0  0  0  0
   38.5300   23.9560   29.9490 C   0  0  0  0  0  0  0  0  0  0  0  0
   37.5780   23.8820   31.0920 C   0  0  1  0  0  0  0  0  0  0  0  0
   38.0320   25.0190   36.7020 H   0  0  0  0  0  0  0  0  0  0  0  0
   38.5260   22.6610   37.0220 H   0  0  0  0  0  0  0  0  0  0  0  0
   38.8170   21.1890   35.0110 H   0  0  0  0  0  0  0  0  0  0  0  0
   38.8350   26.4930   32.8250 H   0  0  0  0  0  0  0  0  0  0  0  0
   37.4940   26.5840   31.6840 H   0  0  0  0  0  0  0  0  0  0  0  0
   40.3830   26.4450   31.1770 H   0  0  0  0  0  0  0  0  0  0  0  0
   39.0640   26.9230   30.0940 H   0  0  0  0  0  0  0  0  0  0  0  0
   39.9400   25.0950   29.0860 H   0  0  0  0  0  0  0  0  0  0  0  0
   37.9680   24.1200   29.0070 H   0  0  0  0  0  0  0  0  0  0  0  0
   39.0280   22.9750   29.8060 H   0  0  0  0  0  0  0  0  0  0  0  0
   36.6500   24.5070   30.7630 H   0  0  0  0  0  0  0  0  0  0  0  0
   35.7360   22.6320   31.9130 C   0  0  0  0  0  3  0  0  0  0  0  0
   37.0520   22.5540   31.4290 C   0  0  0  0  0  0  0  0  0  0  0  0
   37.5760   21.2820   31.3660 C   0  0  0  0  0  0  0  0  0  0  0  0
   38.5870   21.2710   30.9880 H   0  0  0  0  0  0  0  0  0  0  0  0
   36.8580   20.1700   31.7510 C   0  0  0  0  0  0  0  0  0  0  0  0
   37.2620   18.8930   31.7330 N   0  0  0  0  0  0  0  0  0  0  0  0
   38.1710   18.4760   31.4360 H   0  0  0  0  0  0  0  0  0  0  0  0
   36.2780   18.1340   32.1800 N   0  0  0  0  0  0  0  0  0  0  0  0
   35.2220   18.9260   32.4920 C   0  0  0  0  0  0  0  0  0  0  0  0
   34.2340   18.6850   32.8860 H   0  0  0  0  0  0  0  0  0  0  0  0
   35.5680   20.2340   32.2260 C   0  0  0  0  0  0  0  0  0  0  0  0
   35.0390   21.5040   32.2910 C   0  0  0  0  0  3  0  0  0  0  0  0
  1  2  1  0  0  0  0
  1 13  1  0  0  0  0
  2 14  1  0  0  0  0
  3 15  1  0  0  0  0
  3  2  2  0  0  0  0
  4  3  1  0  0  0  0
  5  4  2  0  0  0  0
  5  6  1  0  0  0  0
  6  1  2  0  0  0  0
  7  5  1  0  0  0  0
  8  7  1  0  0  0  0
  8 16  1  0  0  0  0
  9 18  1  0  0  0  0
  9  8  1  0  0  0  0
 10  9  1  0  0  0  0
 11 10  1  0  0  0  0
 11 12  1  0  0  0  0
 12 23  1  6  0  0  0
 12 25  1  0  0  0  0
 12  7  1  0  0  0  0
 17  8  1  0  0  0  0
 19  9  1  0  0  0  0
 20 10  1  0  0  0  0
 21 11  1  0  0  0  0
 22 11  1  0  0  0  0
 24 35  1  0  0  0  0
 25 24  2  0  0  0  0
 26 25  1  0  0  0  0
 26 28  2  0  0  0  0
 27 26  1  0  0  0  0
 28 34  1  0  0  0  0
 29 28  1  0  0  0  0
 29 31  1  0  0  0  0
 30 29  1  0  0  0  0
 31 32  2  0  0  0  0
 32 33  1  0  0  0  0
 34 35  2  0  0  0  0
 34 32  1  0  0  0  0
M  END
>  <minimizedAffinity>
-5.03659868

$$$$
