
 OpenBabel03262521493D

 35 38  0  0  1  0  0  0  0  0999 V2000
   37.1770   29.6570   50.2990 C   0  0  0  0  0  0  0  0  0  0  0  0
   37.9080   30.8580   50.2830 C   0  0  0  0  0  0  0  0  0  0  0  0
   37.7800   31.6730   49.1500 C   0  0  0  0  0  0  0  0  0  0  0  0
   36.9610   31.2440   48.1520 N   0  0  0  0  0  0  0  0  0  0  0  0
   36.2810   30.0960   48.2020 C   0  0  0  0  0  0  0  0  0  0  0  0
   36.3870   29.2950   49.2800 N   0  0  0  0  0  0  0  0  0  0  0  0
   35.4650   29.7190   47.1340 N   0  0  0  0  0  0  0  0  0  0  0  0
   34.2530   28.9120   47.3340 C   0  0  0  0  0  0  0  0  0  0  0  0
   33.0760   29.5850   46.7370 C   0  0  0  0  0  0  0  0  0  0  0  0
   33.3230   30.6330   45.8610 N   0  0  0  0  0  0  0  0  0  0  0  0
   34.5490   30.7220   45.1500 C   0  0  0  0  0  0  0  0  0  0  0  0
   35.7390   30.0760   45.7710 C   0  0  1  0  0  0  0  0  0  0  0  0
   37.3090   29.0590   51.1990 H   0  0  0  0  0  0  0  0  0  0  0  0
   38.5480   31.1490   51.1110 H   0  0  0  0  0  0  0  0  0  0  0  0
   38.3260   32.6160   49.0880 H   0  0  0  0  0  0  0  0  0  0  0  0
   34.1320   28.7570   48.4310 H   0  0  0  0  0  0  0  0  0  0  0  0
   34.4390   27.9170   46.9130 H   0  0  0  0  0  0  0  0  0  0  0  0
   32.3940   29.9190   47.5680 H   0  0  0  0  0  0  0  0  0  0  0  0
   32.4810   28.7930   46.2010 H   0  0  0  0  0  0  0  0  0  0  0  0
   32.5460   30.8280   45.2130 H   0  0  0  0  0  0  0  0  0  0  0  0
   34.3920   30.3100   44.1320 H   0  0  0  0  0  0  0  0  0  0  0  0
   34.7460   31.8010   44.9830 H   0  0  0  0  0  0  0  0  0  0  0  0
   35.8240   29.0300   45.2630 H   0  0  0  0  0  0  0  0  0  0  0  0
   38.0560   29.7760   45.3530 C   0  0  0  0  0  3  0  0  0  0  0  0
   37.0370   30.7240   45.5430 C   0  0  0  0  0  0  0  0  0  0  0  0
   37.4430   32.0390   45.4780 C   0  0  0  0  0  0  0  0  0  0  0  0
   36.6280   32.7290   45.6280 H   0  0  0  0  0  0  0  0  0  0  0  0
   38.7550   32.3930   45.2430 C   0  0  0  0  0  0  0  0  0  0  0  0
   39.2610   33.6290   45.1610 N   0  0  0  0  0  0  0  0  0  0  0  0
   38.7950   34.5590   45.2510 H   0  0  0  0  0  0  0  0  0  0  0  0
   40.5580   33.5380   44.9260 N   0  0  0  0  0  0  0  0  0  0  0  0
   40.8980   32.2280   44.8560 C   0  0  0  0  0  0  0  0  0  0  0  0
   41.8580   31.7410   44.6810 H   0  0  0  0  0  0  0  0  0  0  0  0
   39.7610   31.4730   45.0560 C   0  0  0  0  0  0  0  0  0  0  0  0
   39.3610   30.1570   45.1200 C   0  0  0  0  0  3  0  0  0  0  0  0
  1 13  1  0  0  0  0
  2  1  1  0  0  0  0
  2 14  1  0  0  0  0
  3  2  2  0  0  0  0
  4  5  2  0  0  0  0
  4  3  1  0  0  0  0
  5  6  1  0  0  0  0
  6  1  2  0  0  0  0
  7  8  1  0  0  0  0
  7  5  1  0  0  0  0
  8 16  1  0  0  0  0
  9  8  1  0  0  0  0
  9 18  1  0  0  0  0
 10  9  1  0  0  0  0
 11 12  1  0  0  0  0
 11 10  1  0  0  0  0
 12 23  1  6  0  0  0
 12  7  1  0  0  0  0
 15  3  1  0  0  0  0
 17  8  1  0  0  0  0
 19  9  1  0  0  0  0
 20 10  1  0  0  0  0
 21 11  1  0  0  0  0
 22 11  1  0  0  0  0
 24 25  1  0  0  0  0
 25 12  1  0  0  0  0
 26 25  2  0  0  0  0
 26 27  1  0  0  0  0
 28 26  1  0  0  0  0
 29 28  1  0  0  0  0
 29 30  1  0  0  0  0
 31 29  1  0  0  0  0
 32 31  2  0  0  0  0
 32 34  1  0  0  0  0
 33 32  1  0  0  0  0
 34 35  1  0  0  0  0
 34 28  2  0  0  0  0
 35 24  2  0  0  0  0
M  END
>  <minimizedAffinity>
-5.30773258

>  <minimizedRMSD>
2.12948465

$$$$
