
 OpenBabel03262521493D

 35 38  0  0  1  0  0  0  0  0999 V2000
   36.8690   29.9820   50.3460 C   0  0  0  0  0  0  0  0  0  0  0  0
   37.6250   31.1660   50.2840 C   0  0  0  0  0  0  0  0  0  0  0  0
   37.6070   31.8780   49.0760 C   0  0  0  0  0  0  0  0  0  0  0  0
   36.8620   31.3740   48.0560 N   0  0  0  0  0  0  0  0  0  0  0  0
   36.1540   30.2450   48.1520 C   0  0  0  0  0  0  0  0  0  0  0  0
   36.1560   29.5420   49.3010 N   0  0  0  0  0  0  0  0  0  0  0  0
   35.4190   29.7850   47.0580 N   0  0  0  0  0  0  0  0  0  0  0  0
   34.1760   29.0190   47.2290 C   0  0  0  0  0  0  0  0  0  0  0  0
   33.0660   29.6530   46.4800 C   0  0  0  0  0  0  0  0  0  0  0  0
   33.4060   30.6140   45.5380 N   0  0  0  0  0  0  0  0  0  0  0  0
   34.6870   30.6210   44.9250 C   0  0  0  0  0  0  0  0  0  0  0  0
   35.8090   30.0150   45.6960 C   0  0  1  0  0  0  0  0  0  0  0  0
   36.9150   29.4660   51.3030 H   0  0  0  0  0  0  0  0  0  0  0  0
   38.2030   31.5200   51.1320 H   0  0  0  0  0  0  0  0  0  0  0  0
   38.1770   32.8030   48.9760 H   0  0  0  0  0  0  0  0  0  0  0  0
   33.9640   28.9650   48.3210 H   0  0  0  0  0  0  0  0  0  0  0  0
   34.3740   27.9870   46.9130 H   0  0  0  0  0  0  0  0  0  0  0  0
   32.3280   30.0700   47.2190 H   0  0  0  0  0  0  0  0  0  0  0  0
   32.4990   28.8250   45.9700 H   0  0  0  0  0  0  0  0  0  0  0  0
   32.6880   30.7620   44.8140 H   0  0  0  0  0  0  0  0  0  0  0  0
   34.6030   30.1210   43.9380 H   0  0  0  0  0  0  0  0  0  0  0  0
   34.9210   31.6770   44.6800 H   0  0  0  0  0  0  0  0  0  0  0  0
   35.9110   28.9270   45.2910 H   0  0  0  0  0  0  0  0  0  0  0  0
   37.0500   31.8520   44.8490 C   0  0  0  0  0  3  0  0  0  0  0  0
   37.1350   30.6200   45.5180 C   0  0  0  0  0  0  0  0  0  0  0  0
   38.4090   30.2330   45.8680 C   0  0  0  0  0  0  0  0  0  0  0  0
   38.4250   29.2830   46.3800 H   0  0  0  0  0  0  0  0  0  0  0  0
   39.5170   31.0020   45.5810 C   0  0  0  0  0  0  0  0  0  0  0  0
   40.7950   30.7270   45.8710 N   0  0  0  0  0  0  0  0  0  0  0  0
   41.2180   29.9060   46.3570 H   0  0  0  0  0  0  0  0  0  0  0  0
   41.5490   31.7160   45.4250 N   0  0  0  0  0  0  0  0  0  0  0  0
   40.7520   32.6430   44.8400 C   0  0  0  0  0  0  0  0  0  0  0  0
   40.9870   33.5940   44.3580 H   0  0  0  0  0  0  0  0  0  0  0  0
   39.4460   32.2090   44.9260 C   0  0  0  0  0  0  0  0  0  0  0  0
   38.1740   32.6020   44.5740 C   0  0  0  0  0  3  0  0  0  0  0  0
  1 13  1  0  0  0  0
  2  1  1  0  0  0  0
  2 14  1  0  0  0  0
  3  2  2  0  0  0  0
  4  5  2  0  0  0  0
  4  3  1  0  0  0  0
  5  6  1  0  0  0  0
  6  1  2  0  0  0  0
  7  8  1  0  0  0  0
  7  5  1  0  0  0  0
  8 16  1  0  0  0  0
  9 18  1  0  0  0  0
  9  8  1  0  0  0  0
 10  9  1  0  0  0  0
 11 10  1  0  0  0  0
 11 12  1  0  0  0  0
 12 23  1  6  0  0  0
 12  7  1  0  0  0  0
 15  3  1  0  0  0  0
 17  8  1  0  0  0  0
 19  9  1  0  0  0  0
 20 10  1  0  0  0  0
 21 11  1  0  0  0  0
 22 11  1  0  0  0  0
 24 25  1  0  0  0  0
 25 12  1  0  0  0  0
 25 26  2  0  0  0  0
 26 27  1  0  0  0  0
 28 26  1  0  0  0  0
 28 29  1  0  0  0  0
 29 30  1  0  0  0  0
 31 29  1  0  0  0  0
 32 34  1  0  0  0  0
 32 31  2  0  0  0  0
 33 32  1  0  0  0  0
 34 28  2  0  0  0  0
 35 24  2  0  0  0  0
 35 34  1  0  0  0  0
M  END
>  <minimizedAffinity>
-5.77477598

>  <minimizedRMSD>
2.21755147

$$$$
