
 OpenBabel03272508433D

 30 33  0  0  0  0  0  0  0  0999 V2000
   34.1030   28.8250   48.1840 C   0  0  0  0  0  0  0  0  0  0  0  0
   34.6840   28.1130   49.2250 C   0  0  0  0  0  0  0  0  0  0  0  0
   35.7580   28.9160   49.6030 C   0  0  0  0  0  0  0  0  0  0  0  0
   35.7810   30.0350   48.8070 C   0  0  0  0  0  0  0  0  0  0  0  0
   34.7720   29.9450   47.9660 O   0  0  0  0  0  0  0  0  0  0  0  0
   34.3620   27.1770   49.6200 H   0  0  0  0  0  0  0  0  0  0  0  0
   36.4580   28.6850   50.4010 H   0  0  0  0  0  0  0  0  0  0  0  0
   36.8110   31.9120   50.0040 C   0  0  0  0  0  3  0  0  0  0  0  0
   36.7360   31.1350   48.8600 C   0  0  0  0  0  0  0  0  0  0  0  0
   37.5490   31.3760   47.7590 C   0  0  0  0  0  0  0  0  0  0  0  0
   37.4880   30.7640   46.8610 H   0  0  0  0  0  0  0  0  0  0  0  0
   38.4660   32.4170   47.7860 C   0  0  0  0  0  0  0  0  0  0  0  0
   39.3710   32.9000   46.9140 N   0  0  0  0  0  0  0  0  0  0  0  0
   39.5080   32.4740   45.9590 H   0  0  0  0  0  0  0  0  0  0  0  0
   39.9730   33.9280   47.5010 N   0  0  0  0  0  0  0  0  0  0  0  0
   39.4690   34.1140   48.7370 C   0  0  0  0  0  0  0  0  0  0  0  0
   39.7970   34.8920   49.4150 H   0  0  0  0  0  0  0  0  0  0  0  0
   38.4940   33.1550   48.9520 C   0  0  0  0  0  0  0  0  0  0  0  0
   37.7210   32.9720   50.0750 C   0  0  0  0  0  3  0  0  0  0  0  0
   32.9230   28.3750   47.4530 C   0  0  0  0  0  0  0  0  0  0  0  0
   31.9460   27.9630   48.1000 O   0  0  0  0  0  0  0  0  0  0  0  0
   31.7820   28.9960   44.0460 C   0  0  0  0  0  0  0  0  0  0  0  0
   32.8440   28.5540   43.2660 C   0  0  0  0  0  0  0  0  0  0  0  0
   33.9630   28.0390   43.8890 C   0  0  0  0  0  0  0  0  0  0  0  0
   33.9730   27.9880   45.2390 N   0  0  0  0  0  0  0  0  0  0  0  0
   32.9260   28.4240   45.9910 C   0  0  0  0  0  0  0  0  0  0  0  0
   31.8350   28.9270   45.3810 N   0  0  0  0  0  0  0  0  0  0  0  0
   30.8990   29.4030   43.5690 H   0  0  0  0  0  0  0  0  0  0  0  0
   32.7930   28.6140   42.1820 H   0  0  0  0  0  0  0  0  0  0  0  0
   34.8110   27.6840   43.3370 H   0  0  0  0  0  0  0  0  0  0  0  0
  1  2  2  0  0  0  0
  2  3  1  0  0  0  0
  2  6  1  0  0  0  0
  3  7  1  0  0  0  0
  4  9  1  0  0  0  0
  4  3  2  0  0  0  0
  5  1  1  0  0  0  0
  5  4  1  0  0  0  0
  8 19  1  0  0  0  0
  9  8  2  0  0  0  0
 10 12  2  0  0  0  0
 10  9  1  0  0  0  0
 11 10  1  0  0  0  0
 12 18  1  0  0  0  0
 13 15  1  0  0  0  0
 13 12  1  0  0  0  0
 14 13  1  0  0  0  0
 15 16  2  0  0  0  0
 16 18  1  0  0  0  0
 16 17  1  0  0  0  0
 18 19  2  0  0  0  0
 20 21  2  0  0  0  0
 20  1  1  0  0  0  0
 22 27  1  0  0  0  0
 23 24  1  0  0  0  0
 23 22  2  0  0  0  0
 24 25  2  0  0  0  0
 25 26  1  0  0  0  0
 26 20  1  0  0  0  0
 27 26  2  0  0  0  0
 28 22  1  0  0  0  0
 29 23  1  0  0  0  0
 30 24  1  0  0  0  0
M  END
>  <minimizedAffinity>
-5.7421031

>  <minimizedRMSD>
3.34409571

$$$$
