REMARK  Name = 
REMARK  3 active torsions:
REMARK  status: ('A' for Active; 'I' for Inactive)
REMARK    1  A    between atoms: C_1  and  C_16
REMARK    2  A    between atoms: C_4  and  C_8
REMARK    3  A    between atoms: C_18  and  C_28
REMARK                            x       y       z     vdW  Elec       q    Type
REMARK                         _______ _______ _______ _____ _____    ______ ____
ROOT
ATOM      1  C   UNL     1      37.041  29.803  51.830  0.00  0.00    +0.000 A 
ATOM      2  C   UNL     1      37.679  30.492  50.774  0.00  0.00    +0.000 A 
ATOM      3  C   UNL     1      36.985  30.571  49.548  0.00  0.00    +0.000 A 
ATOM      4  N   UNL     1      35.782  30.005  49.439  0.00  0.00    +0.000 NA
ATOM      5  C   UNL     1      35.209  29.357  50.471  0.00  0.00    +0.000 A 
ATOM      6  N   UNL     1      35.834  29.261  51.646  0.00  0.00    +0.000 NA
ATOM      7  H   UNL     1      37.632  29.781  52.744  0.00  0.00    +0.000 HD
ATOM      8  H   UNL     1      38.658  30.949  50.874  0.00  0.00    +0.000 HD
ENDROOT
BRANCH   5  10
ATOM      9  C   UNL     1      32.804  29.528  49.939  0.00  0.00    +0.000 A 
ATOM     10  C   UNL     1      33.892  28.761  50.283  0.00  0.00    +0.000 A 
ATOM     11  C   UNL     1      33.709  27.404  50.449  0.00  0.00    +0.000 A 
ATOM     12  H   UNL     1      34.514  26.743  50.718  0.00  0.00    +0.000 HD
ATOM     13  C   UNL     1      32.436  26.868  50.262  0.00  0.00    +0.000 A 
ATOM     14  N   UNL     1      31.919  25.630  50.340  0.00  0.00    +0.000 N 
ATOM     15  H   UNL     1      32.432  24.757  50.579  0.00  0.00    +0.000 HD
ATOM     16  N   UNL     1      30.622  25.639  50.065  0.00  0.00    +0.000 NA
ATOM     17  C   UNL     1      30.232  26.912  49.791  0.00  0.00    +0.000 A 
ATOM     18  H   UNL     1      29.256  27.295  49.528  0.00  0.00    +0.000 HD
ATOM     19  C   UNL     1      31.372  27.690  49.914  0.00  0.00    +0.000 A 
ATOM     20  C   UNL     1      31.541  29.041  49.746  0.00  0.00    +0.000 A 
ENDBRANCH   5  10
BRANCH   3  21
ATOM     21  C   UNL     1      37.576  31.268  48.401  0.00  0.00    +0.000 A 
ATOM     22  C   UNL     1      38.460  32.264  48.321  0.00  0.00    +0.000 A 
ATOM     23  C   UNL     1      38.841  32.726  47.113  0.00  0.00    +0.000 A 
ATOM     24  C   UNL     1      38.280  32.127  46.001  0.00  0.00    +0.000 A 
ATOM     25  S   UNL     1      37.174  30.864  46.733  0.00  0.00    +0.000 S 
ATOM     26  H   UNL     1      38.849  32.675  49.248  0.00  0.00    +0.000 HD
ATOM     27  H   UNL     1      39.545  33.522  46.904  0.00  0.00    +0.000 HD
BRANCH  24  30
ATOM     28 CL   UNL     1      41.150  32.199  44.982  0.00  0.00    +0.000 Cl
ATOM     29  C   UNL     1      39.693  32.391  44.055  0.00  0.00    +0.000 A 
ATOM     30  C   UNL     1      38.439  32.346  44.580  0.00  0.00    +0.000 A 
ATOM     31  C   UNL     1      37.265  32.489  43.902  0.00  0.00    +0.000 A 
ATOM     32  C   UNL     1      37.332  32.705  42.522  0.00  0.00    +0.000 A 
ATOM     33  C   UNL     1      38.573  32.762  41.921  0.00  0.00    +0.000 A 
ATOM     34 CL   UNL     1      38.711  33.030  40.194  0.00  0.00    +0.000 Cl
ATOM     35  C   UNL     1      39.735  32.608  42.671  0.00  0.00    +0.000 A 
ATOM     36  H   UNL     1      36.278  32.448  44.359  0.00  0.00    +0.000 HD
ATOM     37  H   UNL     1      36.412  32.823  41.954  0.00  0.00    +0.000 HD
ATOM     38  H   UNL     1      40.676  32.661  42.150  0.00  0.00    +0.000 HD
ENDBRANCH  24  30
ENDBRANCH   3  21
TORSDOF 3
