
     RDKit          3D

 32 35  0  0  0  0  0  0  0  0999 V2000
   35.1921   30.4383   48.9923 C   0  0  0  0  0  0  0  0  0  0  0  0
   34.3391   30.1862   49.8599 O   0  0  0  0  0  0  0  0  0  0  0  0
   33.3211   30.0852   45.8830 C   0  0  0  0  0  0  0  0  0  0  0  0
   34.3156   30.0061   44.9160 C   0  0  0  0  0  0  0  0  0  0  0  0
   35.6383   30.0718   45.3088 C   0  0  0  0  0  0  0  0  0  0  0  0
   35.9045   30.2113   46.6271 N   0  0  0  0  0  0  0  0  0  0  0  0
   34.9194   30.2874   47.5626 C   0  0  0  0  0  0  0  0  0  0  0  0
   33.6300   30.2230   47.1767 N   0  0  0  0  0  0  0  0  0  0  0  0
   36.5069   30.8997   49.4221 C   0  0  0  0  0  0  0  0  0  0  0  0
   37.3067   30.2172   50.3300 C   0  0  0  0  0  0  0  0  0  0  0  0
   38.4402   31.0223   50.4272 C   0  0  0  0  0  0  0  0  0  0  0  0
   38.2852   32.1128   49.6080 C   0  0  0  0  0  0  0  0  0  0  0  0
   37.1118   32.0049   49.0205 O   0  0  0  0  0  0  0  0  0  0  0  0
   32.2802   30.0348   45.5874 H   0  0  0  0  0  0  0  0  0  0  0  0
   34.0560   29.8941   43.8668 H   0  0  0  0  0  0  0  0  0  0  0  0
   36.4456   30.0160   44.6070 H   0  0  0  0  0  0  0  0  0  0  0  0
   37.0798   29.2979   50.8194 H   0  0  0  0  0  0  0  0  0  0  0  0
   39.3018   30.8105   51.0539 H   0  0  0  0  0  0  0  0  0  0  0  0
   38.9770   34.4356   49.9892 C   0  0  0  0  0  0  0  0  0  0  0  0
   39.2304   33.2054   49.4063 C   0  0  0  0  0  0  0  0  0  0  0  0
   40.3620   32.9826   48.6331 C   0  0  0  0  0  0  0  0  0  0  0  0
   40.5586   32.0143   48.1760 H   0  0  0  0  0  0  0  0  0  0  0  0
   41.2765   34.0068   48.4265 C   0  0  0  0  0  0  0  0  0  0  0  0
   42.4358   34.1138   47.7508 N   0  0  0  0  0  0  0  0  0  0  0  0
   42.8470   33.3034   47.2165 H   0  0  0  0  0  0  0  0  0  0  0  0
   42.8725   35.3579   47.9144 N   0  0  0  0  0  0  0  0  0  0  0  0
   42.0112   36.0515   48.6848 C   0  0  0  0  0  0  0  0  0  0  0  0
   42.1458   37.0900   48.9626 H   0  0  0  0  0  0  0  0  0  0  0  0
   40.9702   35.2086   49.0321 C   0  0  0  0  0  0  0  0  0  0  0  0
   39.8718   35.4968   49.8075 C   0  0  0  0  0  0  0  0  0  0  0  0
   38.0950   34.6062   50.5907 H   0  0  0  0  0  0  0  0  0  0  0  0
   39.7374   36.4823   50.2325 H   0  0  0  0  0  0  0  0  0  0  0  0
  1  9  1  0
  1  2  2  0
  3  8  2  0
  4  5  2  0
  4  3  1  0
  5  6  1  0
  6  7  2  0
  7  1  1  0
  8  7  1  0
  9 10  2  0
 10 11  1  0
 12 11  2  0
 13  9  1  0
 13 12  1  0
  3 14  1  0
  4 15  1  0
  5 16  1  0
 10 17  1  0
 11 18  1  0
 19 20  2  0
 20 21  1  0
 21 22  1  0
 21 23  2  0
 23 24  1  0
 24 25  1  0
 24 26  1  0
 26 27  2  0
 27 28  1  0
 27 29  1  0
 29 30  2  0
 30 19  1  0
 29 23  1  0
 19 31  1  0
 30 32  1  0
 12 20  1  0
M  ISO  8  14  14  15  14  16  14  17  14  18  14  22  16  25   5  28  15
M  END
>  <DihAtoms>  (1) 
10,11,19,18

>  <DihDeg>  (1) 
-179.9984065775291

$$$$
