REMARK  Name = 
REMARK  1 active torsions:
REMARK  status: ('A' for Active; 'I' for Inactive)
REMARK    1  A    between atoms: C_12  and  C_25
REMARK                            x       y       z     vdW  Elec       q    Type
REMARK                         _______ _______ _______ _____ _____    ______ ____
ROOT
ATOM      1  C   UNL     1      37.356  29.414  50.685  0.00  0.00    +0.000 A 
ATOM      2  C   UNL     1      37.566  30.804  50.674  0.00  0.00    +0.000 A 
ATOM      3  C   UNL     1      36.825  31.559  49.754  0.00  0.00    +0.000 A 
ATOM      4  N   UNL     1      35.961  30.894  48.941  0.00  0.00    +0.000 NA
ATOM      5  C   UNL     1      35.787  29.570  48.980  0.00  0.00    +0.000 A 
ATOM      6  N   UNL     1      36.487  28.823  49.855  0.00  0.00    +0.000 NA
ATOM      7  N   UNL     1      34.886  28.957  48.108  0.00  0.00    +0.000 N 
ATOM      8  C   UNL     1      34.162  27.733  48.479  0.00  0.00    +0.000 C 
ATOM      9  C   UNL     1      32.702  27.921  48.314  0.00  0.00    +0.000 C 
ATOM     10  N   UNL     1      32.285  29.024  47.581  0.00  0.00    +0.000 NA
ATOM     11  C   UNL     1      33.129  29.619  46.605  0.00  0.00    +0.000 C 
ATOM     12  C   UNL     1      34.598  29.459  46.794  0.00  0.00    +0.000 C 
ATOM     13  H   UNL     1      37.953  28.872  51.416  0.00  0.00    +0.000 HD
ATOM     14  H   UNL     1      38.272  31.281  51.348  0.00  0.00    +0.000 HD
ATOM     15  H   UNL     1      36.951  32.642  49.705  0.00  0.00    +0.000 HD
ATOM     16  H   UNL     1      34.434  27.490  49.532  0.00  0.00    +0.000 HD
ATOM     17  H   UNL     1      34.561  26.911  47.872  0.00  0.00    +0.000 HD
ATOM     18  H   UNL     1      32.223  27.922  49.332  0.00  0.00    +0.000 HD
ATOM     19  H   UNL     1      32.303  26.987  47.828  0.00  0.00    +0.000 HD
ATOM     20  H   UNL     1      31.336  28.932  47.190  0.00  0.00    +0.000 HD
ATOM     21  H   UNL     1      32.838  29.228  45.609  0.00  0.00    +0.000 HD
ATOM     22  H   UNL     1      32.866  30.696  46.567  0.00  0.00    +0.000 HD
ATOM     23  H   UNL     1      34.900  28.555  46.123  0.00  0.00    +0.000 HD
ENDROOT
BRANCH  12  25
ATOM     24  C   UNL     1      34.975  31.127  45.149  0.00  0.00    +0.000 A 
ATOM     25  C   UNL     1      35.446  30.572  46.350  0.00  0.00    +0.000 A 
ATOM     26  C   UNL     1      36.579  31.165  46.862  0.00  0.00    +0.000 A 
ATOM     27  H   UNL     1      36.903  30.707  47.784  0.00  0.00    +0.000 HD
ATOM     28  C   UNL     1      37.201  32.225  46.238  0.00  0.00    +0.000 A 
ATOM     29  N   UNL     1      38.300  32.876  46.641  0.00  0.00    +0.000 N 
ATOM     30  H   UNL     1      38.902  32.731  47.481  0.00  0.00    +0.000 HD
ATOM     31  N   UNL     1      38.570  33.827  45.765  0.00  0.00    +0.000 NA
ATOM     32  C   UNL     1      37.637  33.794  44.782  0.00  0.00    +0.000 A 
ATOM     33  H   UNL     1      37.511  34.407  43.889  0.00  0.00    +0.000 HD
ATOM     34  C   UNL     1      36.749  32.777  45.061  0.00  0.00    +0.000 A 
ATOM     35  C   UNL     1      35.616  32.188  44.545  0.00  0.00    +0.000 A 
ENDBRANCH  12  25
TORSDOF 1
