
 OpenBabel03262523463D

 41 45  0  0  0  0  0  0  0  0999 V2000
   36.8820   32.6240   43.4910 Cl  0  0  0  0  0  0  0  0  0  0  0  0
   37.8200   31.1600   43.1830 C   0  0  0  0  0  0  0  0  0  0  0  0
   38.5600   30.7050   44.2530 C   0  0  0  0  0  0  0  0  0  0  0  0
   39.3370   29.5530   44.1130 C   0  0  0  0  0  0  0  0  0  0  0  0
   39.3720   28.8630   42.9050 C   0  0  0  0  0  0  0  0  0  0  0  0
   38.6100   29.3600   41.8550 C   0  0  0  0  0  0  0  0  0  0  0  0
   37.8290   30.5100   41.9830 C   0  0  0  0  0  0  0  0  0  0  0  0
   39.9380   29.1450   44.9140 H   0  0  0  0  0  0  0  0  0  0  0  0
   39.9800   27.9690   42.8090 H   0  0  0  0  0  0  0  0  0  0  0  0
   38.6320   28.8340   40.9200 H   0  0  0  0  0  0  0  0  0  0  0  0
   36.2660   32.1750   41.1620 C   0  0  0  0  0  0  0  0  0  0  0  0
   37.0310   31.0350   40.8860 C   0  0  0  0  0  0  0  0  0  0  0  0
   36.9500   30.5230   39.6070 C   0  0  0  0  0  0  0  0  0  0  0  0
   37.5460   29.6440   39.4110 H   0  0  0  0  0  0  0  0  0  0  0  0
   36.1530   31.1110   38.6450 C   0  0  0  0  0  0  0  0  0  0  0  0
   35.9650   30.7340   37.3520 N   0  0  0  0  0  0  0  0  0  0  0  0
   36.4240   29.9040   36.8870 H   0  0  0  0  0  0  0  0  0  0  0  0
   35.1130   31.6080   36.8330 N   0  0  0  0  0  0  0  0  0  0  0  0
   34.7550   32.5260   37.7580 C   0  0  0  0  0  0  0  0  0  0  0  0
   34.0700   33.3670   37.6300 H   0  0  0  0  0  0  0  0  0  0  0  0
   35.4140   32.2340   38.9550 C   0  0  0  0  0  0  0  0  0  0  0  0
   35.4600   32.7790   40.2100 C   0  0  0  0  0  0  0  0  0  0  0  0
   38.6860   32.9330   49.7840 Cl  0  0  0  0  0  0  0  0  0  0  0  0
   38.6460   32.2780   48.1660 C   0  0  0  0  0  0  0  0  0  0  0  0
   37.9000   31.1600   47.8710 C   0  0  0  0  0  0  0  0  0  0  0  0
   37.9080   30.6910   46.5760 C   0  0  0  0  0  0  0  0  0  0  0  0
   38.6370   31.3050   45.5860 C   0  0  0  0  0  0  0  0  0  0  0  0
   39.3850   32.4370   45.9110 C   0  0  0  0  0  0  0  0  0  0  0  0
   40.2860   33.1710   44.6140 Cl  0  0  0  0  0  0  0  0  0  0  0  0
   39.3980   32.9300   47.1930 C   0  0  0  0  0  0  0  0  0  0  0  0
   37.3140   29.8110   46.3700 H   0  0  0  0  0  0  0  0  0  0  0  0
   39.9880   33.8070   47.4110 H   0  0  0  0  0  0  0  0  0  0  0  0
   37.0190   29.3620   51.0950 C   0  0  0  0  0  0  0  0  0  0  0  0
   37.7830   29.9240   50.0550 C   0  0  0  0  0  0  0  0  0  0  0  0
   37.1440   30.5550   48.9880 C   0  0  0  0  0  0  0  0  0  0  0  0
   35.7780   30.5920   49.0160 N   0  0  0  0  0  0  0  0  0  0  0  0
   35.0860   30.0410   50.0340 C   0  0  0  0  0  0  0  0  0  0  0  0
   35.6870   29.4420   51.0460 N   0  0  0  0  0  0  0  0  0  0  0  0
   37.5340   28.8780   51.9100 H   0  0  0  0  0  0  0  0  0  0  0  0
   38.8660   29.8870   50.0460 H   0  0  0  0  0  0  0  0  0  0  0  0
   34.0230   30.1850   49.8530 H   0  0  0  0  0  0  0  0  0  0  0  0
  2  1  1  0  0  0  0
  2  3  1  0  0  0  0
  3 27  1  0  0  0  0
  4  3  2  0  0  0  0
  4  8  1  0  0  0  0
  5  4  1  0  0  0  0
  6  7  1  0  0  0  0
  6  5  2  0  0  0  0
  7  2  2  0  0  0  0
  9  5  1  0  0  0  0
 10  6  1  0  0  0  0
 12 11  1  0  0  0  0
 12  7  1  0  0  0  0
 13 12  2  0  0  0  0
 14 13  1  0  0  0  0
 15 21  2  0  0  0  0
 15 13  1  0  0  0  0
 16 15  1  0  0  0  0
 17 16  1  0  0  0  0
 18 16  1  0  0  0  0
 18 19  2  0  0  0  0
 19 21  1  0  0  0  0
 20 19  1  0  0  0  0
 21 22  1  0  0  0  0
 22 11  2  0  0  0  0
 24 23  1  0  0  0  0
 25 24  1  0  0  0  0
 25 35  1  0  0  0  0
 26 25  2  0  0  0  0
 27 28  2  0  0  0  0
 27 26  1  0  0  0  0
 28 30  1  0  0  0  0
 29 28  1  0  0  0  0
 30 32  1  0  0  0  0
 30 24  2  0  0  0  0
 31 26  1  0  0  0  0
 33 39  1  0  0  0  0
 34 33  2  0  0  0  0
 35 36  2  0  0  0  0
 35 34  1  0  0  0  0
 36 37  1  0  0  0  0
 37 38  2  0  0  0  0
 38 33  1  0  0  0  0
 40 34  1  0  0  0  0
 41 37  1  0  0  0  0
M  END
>  <minimizedAffinity>
-6.48026896

>  <minimizedRMSD>
0.154064536

$$$$
