
 OpenBabel03272508313D

 35 38  0  0  1  0  0  0  0  0999 V2000
   40.5250   24.8480   34.5850 N   0  0  0  0  0  0  0  0  0  0  0  0
   41.6340   24.2600   33.8410 C   0  0  0  0  0  0  0  0  0  0  0  0
   42.6790   25.2490   33.4890 C   0  0  0  0  0  0  0  0  0  0  0  0
   42.7110   26.2710   34.5060 N   0  0  0  0  0  0  0  0  0  0  0  0
   41.5150   27.0690   34.2710 C   0  0  0  0  0  0  0  0  0  0  0  0
   40.3880   26.2690   34.8720 C   0  0  1  0  0  0  0  0  0  0  0  0
   41.2660   23.6550   32.9890 H   0  0  0  0  0  0  0  0  0  0  0  0
   42.0840   23.5110   34.5480 H   0  0  0  0  0  0  0  0  0  0  0  0
   43.6760   24.7860   33.3940 H   0  0  0  0  0  0  0  0  0  0  0  0
   42.4800   25.7670   32.5150 H   0  0  0  0  0  0  0  0  0  0  0  0
   43.5420   26.8820   34.3650 H   0  0  0  0  0  0  0  0  0  0  0  0
   41.5870   28.0510   34.7670 H   0  0  0  0  0  0  0  0  0  0  0  0
   41.2890   27.1560   33.1820 H   0  0  0  0  0  0  0  0  0  0  0  0
   40.4030   26.3920   35.9580 H   0  0  0  0  0  0  0  0  0  0  0  0
   38.0720   27.2450   35.1320 C   0  0  0  0  0  3  0  0  0  0  0  0
   39.1260   26.8290   34.3390 C   0  0  0  0  0  0  0  0  0  0  0  0
   38.9680   26.9540   32.9580 C   0  0  0  0  0  0  0  0  0  0  0  0
   39.7370   26.6560   32.2540 H   0  0  0  0  0  0  0  0  0  0  0  0
   37.7940   27.4760   32.4350 C   0  0  0  0  0  0  0  0  0  0  0  0
   37.3340   27.7240   31.1830 N   0  0  0  0  0  0  0  0  0  0  0  0
   37.8440   27.5440   30.3010 H   0  0  0  0  0  0  0  0  0  0  0  0
   36.1200   28.2390   31.2250 N   0  0  0  0  0  0  0  0  0  0  0  0
   35.7130   28.3590   32.4990 C   0  0  0  0  0  0  0  0  0  0  0  0
   34.7650   28.7490   32.8550 H   0  0  0  0  0  0  0  0  0  0  0  0
   36.7630   27.8810   33.2520 C   0  0  0  0  0  0  0  0  0  0  0  0
   36.9050   27.7640   34.6060 C   0  0  0  0  0  3  0  0  0  0  0  0
   38.7760   23.1790   34.1510 C   0  0  0  0  0  0  0  0  0  0  0  0
   39.5090   23.9780   35.0610 C   0  0  0  0  0  0  0  0  0  0  0  0
   39.1960   23.8730   36.4060 C   0  0  0  0  0  0  0  0  0  0  0  0
   38.1990   23.0050   36.7800 N   0  0  0  0  0  0  0  0  0  0  0  0
   37.5260   22.2630   35.8690 C   0  0  0  0  0  0  0  0  0  0  0  0
   37.8060   22.3380   34.5380 N   0  0  0  0  0  0  0  0  0  0  0  0
   38.9850   23.2260   33.0810 H   0  0  0  0  0  0  0  0  0  0  0  0
   39.7250   24.4600   37.1400 H   0  0  0  0  0  0  0  0  0  0  0  0
   36.7680   21.6230   36.3030 H   0  0  0  0  0  0  0  0  0  0  0  0
  1  6  1  0  0  0  0
  1 28  1  0  0  0  0
  2  8  1  0  0  0  0
  2  1  1  0  0  0  0
  3  2  1  0  0  0  0
  3  4  1  0  0  0  0
  5  4  1  0  0  0  0
  5 12  1  0  0  0  0
  5  6  1  0  0  0  0
  6 14  1  1  0  0  0
  7  2  1  0  0  0  0
  9  3  1  0  0  0  0
 10  3  1  0  0  0  0
 11  4  1  0  0  0  0
 13  5  1  0  0  0  0
 16  6  1  0  0  0  0
 16 15  2  0  0  0  0
 17 16  1  0  0  0  0
 18 17  1  0  0  0  0
 19 17  2  0  0  0  0
 19 25  1  0  0  0  0
 20 22  1  0  0  0  0
 20 19  1  0  0  0  0
 21 20  1  0  0  0  0
 22 23  2  0  0  0  0
 23 24  1  0  0  0  0
 23 25  1  0  0  0  0
 25 26  2  0  0  0  0
 26 15  1  0  0  0  0
 27 32  2  0  0  0  0
 27 28  1  0  0  0  0
 28 29  2  0  0  0  0
 29 30  1  0  0  0  0
 29 34  1  0  0  0  0
 31 35  1  0  0  0  0
 31 30  2  0  0  0  0
 32 31  1  0  0  0  0
 33 27  1  0  0  0  0
M  END
>  <minimizedAffinity>
-5.14961052

$$$$

 OpenBabel03272508313D

 35 38  0  0  1  0  0  0  0  0999 V2000
   39.1600   25.4800   32.0740 N   0  0  0  0  0  0  0  0  0  0  0  0
   39.3450   26.6560   31.2320 C   0  0  0  0  0  0  0  0  0  0  0  0
   40.6510   27.3210   31.4520 C   0  0  0  0  0  0  0  0  0  0  0  0
   41.6180   26.3240   31.8430 N   0  0  0  0  0  0  0  0  0  0  0  0
   41.2700   25.9850   33.2160 C   0  0  0  0  0  0  0  0  0  0  0  0
   40.0970   25.0450   33.1000 C   0  0  1  0  0  0  0  0  0  0  0  0
   38.4690   27.3310   31.2920 H   0  0  0  0  0  0  0  0  0  0  0  0
   39.3260   26.2590   30.1810 H   0  0  0  0  0  0  0  0  0  0  0  0
   41.0050   27.8520   30.5520 H   0  0  0  0  0  0  0  0  0  0  0  0
   40.6210   28.0830   32.2740 H   0  0  0  0  0  0  0  0  0  0  0  0
   42.5720   26.7410   31.8430 H   0  0  0  0  0  0  0  0  0  0  0  0
   42.1070   25.4830   33.7270 H   0  0  0  0  0  0  0  0  0  0  0  0
   40.9000   26.8760   33.7760 H   0  0  0  0  0  0  0  0  0  0  0  0
   40.4620   24.0540   32.8210 H   0  0  0  0  0  0  0  0  0  0  0  0
   38.7790   26.0150   35.0240 C   0  0  0  0  0  3  0  0  0  0  0  0
   39.4680   24.9700   34.4380 C   0  0  0  0  0  0  0  0  0  0  0  0
   39.5650   23.7850   35.1690 C   0  0  0  0  0  0  0  0  0  0  0  0
   40.0840   22.9100   34.7940 H   0  0  0  0  0  0  0  0  0  0  0  0
   38.9830   23.6910   36.4240 C   0  0  0  0  0  0  0  0  0  0  0  0
   38.8940   22.7180   37.3650 N   0  0  0  0  0  0  0  0  0  0  0  0
   39.2940   21.7660   37.2950 H   0  0  0  0  0  0  0  0  0  0  0  0
   38.2160   23.1420   38.4140 N   0  0  0  0  0  0  0  0  0  0  0  0
   37.8210   24.4120   38.2260 C   0  0  0  0  0  0  0  0  0  0  0  0
   37.2470   25.0320   38.9070 H   0  0  0  0  0  0  0  0  0  0  0  0
   38.3030   24.7500   36.9810 C   0  0  0  0  0  0  0  0  0  0  0  0
   38.2020   25.9170   36.2760 C   0  0  0  0  0  3  0  0  0  0  0  0
   38.0850   23.3120   31.6470 C   0  0  0  0  0  0  0  0  0  0  0  0
   37.9860   24.7050   31.8830 C   0  0  0  0  0  0  0  0  0  0  0  0
   36.7190   25.2620   31.9150 C   0  0  0  0  0  0  0  0  0  0  0  0
   35.6360   24.4390   31.7200 N   0  0  0  0  0  0  0  0  0  0  0  0
   35.7850   23.1110   31.4980 C   0  0  0  0  0  0  0  0  0  0  0  0
   37.0150   22.5280   31.4590 N   0  0  0  0  0  0  0  0  0  0  0  0
   39.0620   22.8260   31.6120 H   0  0  0  0  0  0  0  0  0  0  0  0
   36.5880   26.3180   32.0900 H   0  0  0  0  0  0  0  0  0  0  0  0
   34.8490   22.5850   31.3610 H   0  0  0  0  0  0  0  0  0  0  0  0
  1  6  1  0  0  0  0
  2  7  1  0  0  0  0
  2  3  1  0  0  0  0
  2  1  1  0  0  0  0
  3  4  1  0  0  0  0
  3 10  1  0  0  0  0
  4 11  1  0  0  0  0
  4  5  1  0  0  0  0
  5 12  1  0  0  0  0
  5 13  1  0  0  0  0
  6 14  1  6  0  0  0
  6  5  1  0  0  0  0
  6 16  1  0  0  0  0
  8  2  1  0  0  0  0
  9  3  1  0  0  0  0
 15 26  1  0  0  0  0
 16 15  2  0  0  0  0
 16 17  1  0  0  0  0
 17 19  2  0  0  0  0
 18 17  1  0  0  0  0
 19 25  1  0  0  0  0
 19 20  1  0  0  0  0
 20 22  1  0  0  0  0
 21 20  1  0  0  0  0
 23 22  2  0  0  0  0
 23 24  1  0  0  0  0
 25 23  1  0  0  0  0
 26 25  2  0  0  0  0
 27 28  1  0  0  0  0
 28 29  2  0  0  0  0
 28  1  1  0  0  0  0
 29 34  1  0  0  0  0
 30 29  1  0  0  0  0
 31 30  2  0  0  0  0
 32 31  1  0  0  0  0
 32 27  2  0  0  0  0
 33 27  1  0  0  0  0
 35 31  1  0  0  0  0
M  END
>  <minimizedAffinity>
-4.96803522

$$$$

 OpenBabel03272508313D

 35 38  0  0  1  0  0  0  0  0999 V2000
   36.6710   23.1190   31.8660 N   0  0  0  0  0  0  0  0  0  0  0  0
   35.5240   23.9010   31.4190 C   0  0  0  0  0  0  0  0  0  0  0  0
   35.8580   25.3230   31.1710 C   0  0  0  0  0  0  0  0  0  0  0  0
   37.2340   25.4080   30.7460 N   0  0  0  0  0  0  0  0  0  0  0  0
   38.0140   25.1690   31.9530 C   0  0  0  0  0  0  0  0  0  0  0  0
   37.9890   23.6740   32.1440 C   0  0  1  0  0  0  0  0  0  0  0  0
   34.6510   23.7420   32.0820 H   0  0  0  0  0  0  0  0  0  0  0  0
   35.2260   23.4350   30.4410 H   0  0  0  0  0  0  0  0  0  0  0  0
   35.2030   25.7780   30.4100 H   0  0  0  0  0  0  0  0  0  0  0  0
   35.7630   25.9610   32.0880 H   0  0  0  0  0  0  0  0  0  0  0  0
   37.4400   26.3720   30.4120 H   0  0  0  0  0  0  0  0  0  0  0  0
   39.0520   25.5160   31.8320 H   0  0  0  0  0  0  0  0  0  0  0  0
   37.5190   25.6050   32.8520 H   0  0  0  0  0  0  0  0  0  0  0  0
   38.6970   23.2140   31.4510 H   0  0  0  0  0  0  0  0  0  0  0  0
   39.4320   22.5160   33.8640 C   0  0  0  0  0  3  0  0  0  0  0  0
   38.4270   23.4060   33.5320 C   0  0  0  0  0  0  0  0  0  0  0  0
   37.8040   24.0800   34.5830 C   0  0  0  0  0  0  0  0  0  0  0  0
   37.0060   24.7970   34.4240 H   0  0  0  0  0  0  0  0  0  0  0  0
   38.1980   23.8460   35.8920 C   0  0  0  0  0  0  0  0  0  0  0  0
   37.8120   24.3180   37.1040 N   0  0  0  0  0  0  0  0  0  0  0  0
   37.0680   25.0170   37.2770 H   0  0  0  0  0  0  0  0  0  0  0  0
   38.5190   23.7620   38.0690 N   0  0  0  0  0  0  0  0  0  0  0  0
   39.4070   22.8960   37.5520 C   0  0  0  0  0  0  0  0  0  0  0  0
   40.1270   22.2890   38.0890 H   0  0  0  0  0  0  0  0  0  0  0  0
   39.2020   22.9530   36.1900 C   0  0  0  0  0  0  0  0  0  0  0  0
   39.8200   22.2860   35.1700 C   0  0  0  0  0  3  0  0  0  0  0  0
   37.2050   20.8070   31.2270 C   0  0  0  0  0  0  0  0  0  0  0  0
   36.4930   21.7210   32.0420 C   0  0  0  0  0  0  0  0  0  0  0  0
   35.6360   21.2000   32.9950 C   0  0  0  0  0  0  0  0  0  0  0  0
   35.5230   19.8340   33.0990 N   0  0  0  0  0  0  0  0  0  0  0  0
   36.2270   19.0020   32.2940 C   0  0  0  0  0  0  0  0  0  0  0  0
   37.0800   19.4780   31.3460 N   0  0  0  0  0  0  0  0  0  0  0  0
   37.8930   21.1690   30.4610 H   0  0  0  0  0  0  0  0  0  0  0  0
   35.0700   21.8530   33.6400 H   0  0  0  0  0  0  0  0  0  0  0  0
   36.0420   17.9530   32.4850 H   0  0  0  0  0  0  0  0  0  0  0  0
  1 28  1  0  0  0  0
  1  6  1  0  0  0  0
  2  1  1  0  0  0  0
  2  7  1  0  0  0  0
  3  2  1  0  0  0  0
  3 10  1  0  0  0  0
  4  3  1  0  0  0  0
  4  5  1  0  0  0  0
  5  6  1  0  0  0  0
  5 13  1  0  0  0  0
  6 14  1  6  0  0  0
  6 16  1  0  0  0  0
  8  2  1  0  0  0  0
  9  3  1  0  0  0  0
 11  4  1  0  0  0  0
 12  5  1  0  0  0  0
 15 26  1  0  0  0  0
 16 15  2  0  0  0  0
 16 17  1  0  0  0  0
 17 19  2  0  0  0  0
 18 17  1  0  0  0  0
 19 25  1  0  0  0  0
 19 20  1  0  0  0  0
 20 21  1  0  0  0  0
 20 22  1  0  0  0  0
 23 22  2  0  0  0  0
 23 24  1  0  0  0  0
 25 23  1  0  0  0  0
 26 25  2  0  0  0  0
 27 32  2  0  0  0  0
 27 28  1  0  0  0  0
 28 29  2  0  0  0  0
 29 30  1  0  0  0  0
 29 34  1  0  0  0  0
 31 35  1  0  0  0  0
 31 30  2  0  0  0  0
 32 31  1  0  0  0  0
 33 27  1  0  0  0  0
M  END
>  <minimizedAffinity>
-4.95891523

$$$$

 OpenBabel03272508313D

 35 38  0  0  1  0  0  0  0  0999 V2000
   40.6050   23.7170   35.3420 N   0  0  0  0  0  0  0  0  0  0  0  0
   41.3010   23.2410   36.5330 C   0  0  0  0  0  0  0  0  0  0  0  0
   40.4180   22.4810   37.4490 C   0  0  0  0  0  0  0  0  0  0  0  0
   39.4000   21.8220   36.6700 N   0  0  0  0  0  0  0  0  0  0  0  0
   38.4910   22.8870   36.2650 C   0  0  0  0  0  0  0  0  0  0  0  0
   39.1760   23.5640   35.1060 C   0  0  1  0  0  0  0  0  0  0  0  0
   41.8710   24.0590   37.0150 H   0  0  0  0  0  0  0  0  0  0  0  0
   42.0870   22.5400   36.1410 H   0  0  0  0  0  0  0  0  0  0  0  0
   40.9760   21.7370   38.0420 H   0  0  0  0  0  0  0  0  0  0  0  0
   39.8880   23.1360   38.1880 H   0  0  0  0  0  0  0  0  0  0  0  0
   38.8720   21.1570   37.2720 H   0  0  0  0  0  0  0  0  0  0  0  0
   37.5190   22.4800   35.9430 H   0  0  0  0  0  0  0  0  0  0  0  0
   38.3880   23.6610   37.0610 H   0  0  0  0  0  0  0  0  0  0  0  0
   39.0500   22.9520   34.2100 H   0  0  0  0  0  0  0  0  0  0  0  0
   38.4870   25.8810   35.8410 C   0  0  0  0  0  3  0  0  0  0  0  0
   38.5000   24.8650   34.9030 C   0  0  0  0  0  0  0  0  0  0  0  0
   37.8290   25.1010   33.7030 C   0  0  0  0  0  0  0  0  0  0  0  0
   37.7830   24.3670   32.9060 H   0  0  0  0  0  0  0  0  0  0  0  0
   37.1880   26.3130   33.4900 C   0  0  0  0  0  0  0  0  0  0  0  0
   36.4700   26.8470   32.4700 N   0  0  0  0  0  0  0  0  0  0  0  0
   36.2530   26.3830   31.5700 H   0  0  0  0  0  0  0  0  0  0  0  0
   36.0660   28.0660   32.7710 N   0  0  0  0  0  0  0  0  0  0  0  0
   36.4930   28.4040   33.9990 C   0  0  0  0  0  0  0  0  0  0  0  0
   36.3220   29.3390   34.5220 H   0  0  0  0  0  0  0  0  0  0  0  0
   37.1940   27.3050   34.4430 C   0  0  0  0  0  0  0  0  0  0  0  0
   37.8470   27.0850   35.6240 C   0  0  0  0  0  3  0  0  0  0  0  0
   42.0720   25.5660   34.6580 C   0  0  0  0  0  0  0  0  0  0  0  0
   41.3720   24.3750   34.3440 C   0  0  0  0  0  0  0  0  0  0  0  0
   41.4680   23.8950   33.0490 C   0  0  0  0  0  0  0  0  0  0  0  0
   42.2320   24.5940   32.1460 N   0  0  0  0  0  0  0  0  0  0  0  0
   42.8820   25.7300   32.4970 C   0  0  0  0  0  0  0  0  0  0  0  0
   42.8120   26.2320   33.7610 N   0  0  0  0  0  0  0  0  0  0  0  0
   42.0270   25.9850   35.6650 H   0  0  0  0  0  0  0  0  0  0  0  0
   40.9540   22.9930   32.7590 H   0  0  0  0  0  0  0  0  0  0  0  0
   43.4460   26.1760   31.6870 H   0  0  0  0  0  0  0  0  0  0  0  0
  1  2  1  0  0  0  0
  2  7  1  0  0  0  0
  2  3  1  0  0  0  0
  3  9  1  0  0  0  0
  3 10  1  0  0  0  0
  4 11  1  0  0  0  0
  4  3  1  0  0  0  0
  5  4  1  0  0  0  0
  5 13  1  0  0  0  0
  6 14  1  6  0  0  0
  6  1  1  0  0  0  0
  6  5  1  0  0  0  0
  8  2  1  0  0  0  0
 12  5  1  0  0  0  0
 16  6  1  0  0  0  0
 16 15  2  0  0  0  0
 17 16  1  0  0  0  0
 18 17  1  0  0  0  0
 19 17  2  0  0  0  0
 19 25  1  0  0  0  0
 20 22  1  0  0  0  0
 20 19  1  0  0  0  0
 21 20  1  0  0  0  0
 22 23  2  0  0  0  0
 23 25  1  0  0  0  0
 23 24  1  0  0  0  0
 25 26  2  0  0  0  0
 26 15  1  0  0  0  0
 27 33  1  0  0  0  0
 28 27  1  0  0  0  0
 28  1  1  0  0  0  0
 29 28  2  0  0  0  0
 30 31  2  0  0  0  0
 30 29  1  0  0  0  0
 31 32  1  0  0  0  0
 32 27  2  0  0  0  0
 34 29  1  0  0  0  0
 35 31  1  0  0  0  0
M  END
>  <minimizedAffinity>
-4.87019348

$$$$

 OpenBabel03272508313D

 35 38  0  0  1  0  0  0  0  0999 V2000
   39.3880   25.1630   32.0110 N   0  0  0  0  0  0  0  0  0  0  0  0
   39.4720   24.1710   30.9450 C   0  0  0  0  0  0  0  0  0  0  0  0
   38.1410   23.7300   30.4640 C   0  0  0  0  0  0  0  0  0  0  0  0
   37.2090   24.8200   30.6150 N   0  0  0  0  0  0  0  0  0  0  0  0
   36.9510   24.8940   32.0480 C   0  0  0  0  0  0  0  0  0  0  0  0
   38.1450   25.6120   32.6230 C   0  0  1  0  0  0  0  0  0  0  0  0
   40.1580   23.3460   31.2220 H   0  0  0  0  0  0  0  0  0  0  0  0
   39.9910   24.7020   30.1030 H   0  0  0  0  0  0  0  0  0  0  0  0
   38.1670   23.4040   29.4100 H   0  0  0  0  0  0  0  0  0  0  0  0
   37.7290   22.8670   31.0480 H   0  0  0  0  0  0  0  0  0  0  0  0
   36.3150   24.5880   30.1360 H   0  0  0  0  0  0  0  0  0  0  0  0
   36.0310   25.4630   32.2580 H   0  0  0  0  0  0  0  0  0  0  0  0
   36.9430   23.8810   32.5140 H   0  0  0  0  0  0  0  0  0  0  0  0
   38.0450   26.6820   32.4280 H   0  0  0  0  0  0  0  0  0  0  0  0
   38.1400   26.3980   35.0240 C   0  0  0  0  0  3  0  0  0  0  0  0
   38.1260   25.3830   34.0850 C   0  0  0  0  0  0  0  0  0  0  0  0
   38.0910   24.0740   34.5670 C   0  0  0  0  0  0  0  0  0  0  0  0
   38.0770   23.2110   33.9100 H   0  0  0  0  0  0  0  0  0  0  0  0
   38.0730   23.8340   35.9330 C   0  0  0  0  0  0  0  0  0  0  0  0
   38.0400   22.7200   36.7070 N   0  0  0  0  0  0  0  0  0  0  0  0
   38.0210   21.7430   36.3660 H   0  0  0  0  0  0  0  0  0  0  0  0
   38.0360   23.0400   37.9870 N   0  0  0  0  0  0  0  0  0  0  0  0
   38.0650   24.3760   38.1290 C   0  0  0  0  0  0  0  0  0  0  0  0
   38.0690   24.9400   39.0550 H   0  0  0  0  0  0  0  0  0  0  0  0
   38.0880   24.8670   36.8420 C   0  0  0  0  0  0  0  0  0  0  0  0
   38.1220   26.1540   36.3830 C   0  0  0  0  0  3  0  0  0  0  0  0
   40.8080   27.1300   32.4010 C   0  0  0  0  0  0  0  0  0  0  0  0
   40.5990   25.7320   32.4850 C   0  0  0  0  0  0  0  0  0  0  0  0
   41.6090   24.9630   33.0390 C   0  0  0  0  0  0  0  0  0  0  0  0
   42.7500   25.5940   33.4730 N   0  0  0  0  0  0  0  0  0  0  0  0
   42.9010   26.9360   33.3690 C   0  0  0  0  0  0  0  0  0  0  0  0
   41.9290   27.7250   32.8310 N   0  0  0  0  0  0  0  0  0  0  0  0
   40.0420   27.7780   31.9730 H   0  0  0  0  0  0  0  0  0  0  0  0
   41.5000   23.8930   33.1250 H   0  0  0  0  0  0  0  0  0  0  0  0
   43.8470   27.2980   33.7510 H   0  0  0  0  0  0  0  0  0  0  0  0
  1 28  1  0  0  0  0
  1  6  1  0  0  0  0
  2  7  1  0  0  0  0
  2  1  1  0  0  0  0
  3  4  1  0  0  0  0
  3  2  1  0  0  0  0
  3 10  1  0  0  0  0
  4  5  1  0  0  0  0
  5 12  1  0  0  0  0
  5 13  1  0  0  0  0
  5  6  1  0  0  0  0
  6 14  1  6  0  0  0
  6 16  1  0  0  0  0
  8  2  1  0  0  0  0
  9  3  1  0  0  0  0
 11  4  1  0  0  0  0
 15 26  1  0  0  0  0
 16 17  1  0  0  0  0
 16 15  2  0  0  0  0
 17 19  2  0  0  0  0
 18 17  1  0  0  0  0
 19 20  1  0  0  0  0
 19 25  1  0  0  0  0
 20 22  1  0  0  0  0
 21 20  1  0  0  0  0
 22 23  2  0  0  0  0
 23 24  1  0  0  0  0
 25 23  1  0  0  0  0
 26 25  2  0  0  0  0
 27 28  2  0  0  0  0
 27 32  1  0  0  0  0
 28 29  1  0  0  0  0
 29 34  1  0  0  0  0
 29 30  2  0  0  0  0
 31 30  1  0  0  0  0
 31 35  1  0  0  0  0
 32 31  2  0  0  0  0
 33 27  1  0  0  0  0
M  END
>  <minimizedAffinity>
-4.80221558

$$$$

 OpenBabel03272508313D

 35 38  0  0  1  0  0  0  0  0999 V2000
   37.8060   24.0440   33.3580 N   0  0  0  0  0  0  0  0  0  0  0  0
   37.4720   24.2850   31.9590 C   0  0  0  0  0  0  0  0  0  0  0  0
   36.9620   23.0740   31.2730 C   0  0  0  0  0  0  0  0  0  0  0  0
   36.2810   22.2470   32.2390 N   0  0  0  0  0  0  0  0  0  0  0  0
   37.3450   21.6570   33.0410 C   0  0  0  0  0  0  0  0  0  0  0  0
   37.7520   22.7410   34.0060 C   0  0  1  0  0  0  0  0  0  0  0  0
   38.3010   24.7980   31.4340 H   0  0  0  0  0  0  0  0  0  0  0  0
   36.6440   25.0440   31.9910 H   0  0  0  0  0  0  0  0  0  0  0  0
   36.2770   23.3230   30.4450 H   0  0  0  0  0  0  0  0  0  0  0  0
   37.7780   22.4480   30.8280 H   0  0  0  0  0  0  0  0  0  0  0  0
   35.7790   21.4780   31.7500 H   0  0  0  0  0  0  0  0  0  0  0  0
   36.9840   20.7750   33.5940 H   0  0  0  0  0  0  0  0  0  0  0  0
   38.2470   21.4350   32.4240 H   0  0  0  0  0  0  0  0  0  0  0  0
   37.0140   22.7990   34.8090 H   0  0  0  0  0  0  0  0  0  0  0  0
   40.1980   22.1380   33.8210 C   0  0  0  0  0  3  0  0  0  0  0  0
   39.0590   22.3450   34.5770 C   0  0  0  0  0  0  0  0  0  0  0  0
   39.1700   22.1620   35.9560 C   0  0  0  0  0  0  0  0  0  0  0  0
   38.3340   22.3010   36.6320 H   0  0  0  0  0  0  0  0  0  0  0  0
   40.3850   21.7910   36.5130 C   0  0  0  0  0  0  0  0  0  0  0  0
   40.8200   21.5400   37.7740 N   0  0  0  0  0  0  0  0  0  0  0  0
   40.2490   21.5890   38.6360 H   0  0  0  0  0  0  0  0  0  0  0  0
   42.0980   21.2140   37.7710 N   0  0  0  0  0  0  0  0  0  0  0  0
   42.5770   21.2320   36.5160 C   0  0  0  0  0  0  0  0  0  0  0  0
   43.5880   21.0110   36.1920 H   0  0  0  0  0  0  0  0  0  0  0  0
   41.5010   21.5930   35.7340 C   0  0  0  0  0  0  0  0  0  0  0  0
   41.4050   21.7680   34.3820 C   0  0  0  0  0  3  0  0  0  0  0  0
   39.2930   25.9670   33.7190 C   0  0  0  0  0  0  0  0  0  0  0  0
   38.2130   25.1550   34.1440 C   0  0  0  0  0  0  0  0  0  0  0  0
   37.5890   25.4870   35.3340 C   0  0  0  0  0  0  0  0  0  0  0  0
   38.0470   26.5780   36.0320 N   0  0  0  0  0  0  0  0  0  0  0  0
   39.0850   27.3230   35.5810 C   0  0  0  0  0  0  0  0  0  0  0  0
   39.7230   27.0280   34.4150 N   0  0  0  0  0  0  0  0  0  0  0  0
   39.8170   25.7460   32.7870 H   0  0  0  0  0  0  0  0  0  0  0  0
   36.7630   24.9000   35.7030 H   0  0  0  0  0  0  0  0  0  0  0  0
   39.3390   28.1520   36.2290 H   0  0  0  0  0  0  0  0  0  0  0  0
  1  6  1  0  0  0  0
  1 28  1  0  0  0  0
  2  8  1  0  0  0  0
  2  1  1  0  0  0  0
  3  2  1  0  0  0  0
  3  4  1  0  0  0  0
  4  5  1  0  0  0  0
  5 12  1  0  0  0  0
  5  6  1  0  0  0  0
  6 16  1  0  0  0  0
  6 14  1  1  0  0  0
  7  2  1  0  0  0  0
  9  3  1  0  0  0  0
 10  3  1  0  0  0  0
 11  4  1  0  0  0  0
 13  5  1  0  0  0  0
 15 26  2  0  0  0  0
 15 16  1  0  0  0  0
 16 17  2  0  0  0  0
 17 19  1  0  0  0  0
 17 18  1  0  0  0  0
 19 20  1  0  0  0  0
 20 21  1  0  0  0  0
 22 20  1  0  0  0  0
 23 22  2  0  0  0  0
 24 23  1  0  0  0  0
 25 19  2  0  0  0  0
 25 23  1  0  0  0  0
 26 25  1  0  0  0  0
 27 28  2  0  0  0  0
 27 32  1  0  0  0  0
 28 29  1  0  0  0  0
 29 34  1  0  0  0  0
 29 30  2  0  0  0  0
 31 30  1  0  0  0  0
 31 35  1  0  0  0  0
 32 31  2  0  0  0  0
 33 27  1  0  0  0  0
M  END
>  <minimizedAffinity>
-4.79380131

$$$$

 OpenBabel03272508313D

 35 38  0  0  1  0  0  0  0  0999 V2000
   38.7610   24.2500   36.0740 N   0  0  0  0  0  0  0  0  0  0  0  0
   38.1790   24.5100   37.3860 C   0  0  0  0  0  0  0  0  0  0  0  0
   38.4340   23.4180   38.3550 C   0  0  0  0  0  0  0  0  0  0  0  0
   39.6930   22.7940   38.0290 N   0  0  0  0  0  0  0  0  0  0  0  0
   39.4240   22.0130   36.8290 C   0  0  0  0  0  0  0  0  0  0  0  0
   39.4350   23.0140   35.7020 C   0  0  1  0  0  0  0  0  0  0  0  0
   37.1160   24.8090   37.2980 H   0  0  0  0  0  0  0  0  0  0  0  0
   38.7050   25.4330   37.7520 H   0  0  0  0  0  0  0  0  0  0  0  0
   38.4550   23.7820   39.3960 H   0  0  0  0  0  0  0  0  0  0  0  0
   37.6550   22.6120   38.3200 H   0  0  0  0  0  0  0  0  0  0  0  0
   39.9670   22.1380   38.7890 H   0  0  0  0  0  0  0  0  0  0  0  0
   40.2030   21.2520   36.6660 H   0  0  0  0  0  0  0  0  0  0  0  0
   38.3970   21.5770   36.8470 H   0  0  0  0  0  0  0  0  0  0  0  0
   40.4700   23.2600   35.4540 H   0  0  0  0  0  0  0  0  0  0  0  0
   39.4410   22.1540   33.3260 C   0  0  0  0  0  3  0  0  0  0  0  0
   38.8010   22.3590   34.5350 C   0  0  0  0  0  0  0  0  0  0  0  0
   37.4830   21.9170   34.6380 C   0  0  0  0  0  0  0  0  0  0  0  0
   36.8980   22.0320   35.5440 H   0  0  0  0  0  0  0  0  0  0  0  0
   36.8680   21.3010   33.5580 C   0  0  0  0  0  0  0  0  0  0  0  0
   35.6390   20.7720   33.3330 N   0  0  0  0  0  0  0  0  0  0  0  0
   34.8590   20.7340   34.0120 H   0  0  0  0  0  0  0  0  0  0  0  0
   35.5530   20.2950   32.1050 N   0  0  0  0  0  0  0  0  0  0  0  0
   36.7130   20.4820   31.4550 C   0  0  0  0  0  0  0  0  0  0  0  0
   36.9500   20.1980   30.4350 H   0  0  0  0  0  0  0  0  0  0  0  0
   37.5310   21.1110   32.3670 C   0  0  0  0  0  0  0  0  0  0  0  0
   38.8240   21.5410   32.2530 C   0  0  0  0  0  3  0  0  0  0  0  0
   39.8390   25.8190   34.5200 C   0  0  0  0  0  0  0  0  0  0  0  0
   38.6650   25.2700   35.0910 C   0  0  0  0  0  0  0  0  0  0  0  0
   37.4470   25.7650   34.6560 C   0  0  0  0  0  0  0  0  0  0  0  0
   37.4440   26.7530   33.7020 N   0  0  0  0  0  0  0  0  0  0  0  0
   38.5960   27.2440   33.1870 C   0  0  0  0  0  0  0  0  0  0  0  0
   39.8130   26.7830   33.5890 N   0  0  0  0  0  0  0  0  0  0  0  0
   40.8230   25.4630   34.8300 H   0  0  0  0  0  0  0  0  0  0  0  0
   36.5230   25.3810   35.0600 H   0  0  0  0  0  0  0  0  0  0  0  0
   38.4460   28.0180   32.4440 H   0  0  0  0  0  0  0  0  0  0  0  0
  1  2  1  0  0  0  0
  2  8  1  0  0  0  0
  2  3  1  0  0  0  0
  3  9  1  0  0  0  0
  4  3  1  0  0  0  0
  4 11  1  0  0  0  0
  5 13  1  0  0  0  0
  5  4  1  0  0  0  0
  6 14  1  6  0  0  0
  6  1  1  0  0  0  0
  6  5  1  0  0  0  0
  7  2  1  0  0  0  0
 10  3  1  0  0  0  0
 12  5  1  0  0  0  0
 15 16  1  0  0  0  0
 16 17  2  0  0  0  0
 16  6  1  0  0  0  0
 17 18  1  0  0  0  0
 19 17  1  0  0  0  0
 20 19  1  0  0  0  0
 20 21  1  0  0  0  0
 22 20  1  0  0  0  0
 23 22  2  0  0  0  0
 23 25  1  0  0  0  0
 24 23  1  0  0  0  0
 25 19  2  0  0  0  0
 26 25  1  0  0  0  0
 26 15  2  0  0  0  0
 27 33  1  0  0  0  0
 27 28  1  0  0  0  0
 28  1  1  0  0  0  0
 29 34  1  0  0  0  0
 29 28  2  0  0  0  0
 30 29  1  0  0  0  0
 31 32  1  0  0  0  0
 31 30  2  0  0  0  0
 32 27  2  0  0  0  0
 35 31  1  0  0  0  0
M  END
>  <minimizedAffinity>
-4.7838726

$$$$

 OpenBabel03272508313D

 35 38  0  0  1  0  0  0  0  0999 V2000
   40.3490   25.5590   34.8640 N   0  0  0  0  0  0  0  0  0  0  0  0
   41.7880   25.3280   34.9050 C   0  0  0  0  0  0  0  0  0  0  0  0
   42.5440   26.2480   34.0220 C   0  0  0  0  0  0  0  0  0  0  0  0
   41.8280   27.4970   33.9350 N   0  0  0  0  0  0  0  0  0  0  0  0
   40.6810   27.2110   33.0840 C   0  0  0  0  0  0  0  0  0  0  0  0
   39.6920   26.5140   33.9830 C   0  0  1  0  0  0  0  0  0  0  0  0
   42.0250   24.2550   34.7620 H   0  0  0  0  0  0  0  0  0  0  0  0
   42.0810   25.5430   35.9680 H   0  0  0  0  0  0  0  0  0  0  0  0
   43.5680   26.4300   34.3900 H   0  0  0  0  0  0  0  0  0  0  0  0
   42.6500   25.8610   32.9760 H   0  0  0  0  0  0  0  0  0  0  0  0
   42.4180   28.2080   33.4560 H   0  0  0  0  0  0  0  0  0  0  0  0
   40.2390   28.1390   32.6850 H   0  0  0  0  0  0  0  0  0  0  0  0
   40.9400   26.4810   32.2810 H   0  0  0  0  0  0  0  0  0  0  0  0
   39.1940   27.2570   34.6090 H   0  0  0  0  0  0  0  0  0  0  0  0
   38.8580   24.6240   32.5290 C   0  0  0  0  0  3  0  0  0  0  0  0
   38.6890   25.8690   33.1060 C   0  0  0  0  0  0  0  0  0  0  0  0
   37.4960   26.5380   32.8310 C   0  0  0  0  0  0  0  0  0  0  0  0
   37.2710   27.5180   33.2370 H   0  0  0  0  0  0  0  0  0  0  0  0
   36.5410   25.9540   32.0130 C   0  0  0  0  0  0  0  0  0  0  0  0
   35.3160   26.3220   31.5610 N   0  0  0  0  0  0  0  0  0  0  0  0
   34.8290   27.2100   31.7770 H   0  0  0  0  0  0  0  0  0  0  0  0
   34.8020   25.3860   30.7870 N   0  0  0  0  0  0  0  0  0  0  0  0
   35.6540   24.3520   30.6850 C   0  0  0  0  0  0  0  0  0  0  0  0
   35.5150   23.4360   30.1210 H   0  0  0  0  0  0  0  0  0  0  0  0
   36.7390   24.7120   31.4530 C   0  0  0  0  0  0  0  0  0  0  0  0
   37.9040   24.0460   31.7140 C   0  0  0  0  0  3  0  0  0  0  0  0
   39.8160   23.4330   35.9750 C   0  0  0  0  0  0  0  0  0  0  0  0
   39.5300   24.8000   35.7420 C   0  0  0  0  0  0  0  0  0  0  0  0
   38.4400   25.3500   36.3960 C   0  0  0  0  0  0  0  0  0  0  0  0
   37.7010   24.5450   37.2280 N   0  0  0  0  0  0  0  0  0  0  0  0
   38.0160   23.2410   37.4170 C   0  0  0  0  0  0  0  0  0  0  0  0
   39.0810   22.6660   36.7920 N   0  0  0  0  0  0  0  0  0  0  0  0
   40.6640   22.9540   35.4840 H   0  0  0  0  0  0  0  0  0  0  0  0
   38.1790   26.3860   36.2520 H   0  0  0  0  0  0  0  0  0  0  0  0
   37.3510   22.7260   38.0980 H   0  0  0  0  0  0  0  0  0  0  0  0
  1  2  1  0  0  0  0
  1 28  1  0  0  0  0
  2  8  1  0  0  0  0
  3  9  1  0  0  0  0
  3  2  1  0  0  0  0
  4  3  1  0  0  0  0
  5  4  1  0  0  0  0
  5  6  1  0  0  0  0
  6 14  1  1  0  0  0
  6  1  1  0  0  0  0
  7  2  1  0  0  0  0
 10  3  1  0  0  0  0
 11  4  1  0  0  0  0
 12  5  1  0  0  0  0
 13  5  1  0  0  0  0
 15 16  1  0  0  0  0
 16  6  1  0  0  0  0
 17 16  2  0  0  0  0
 17 18  1  0  0  0  0
 19 17  1  0  0  0  0
 20 21  1  0  0  0  0
 20 19  1  0  0  0  0
 22 20  1  0  0  0  0
 23 22  2  0  0  0  0
 23 25  1  0  0  0  0
 24 23  1  0  0  0  0
 25 26  1  0  0  0  0
 25 19  2  0  0  0  0
 26 15  2  0  0  0  0
 27 32  1  0  0  0  0
 28 27  2  0  0  0  0
 28 29  1  0  0  0  0
 29 30  2  0  0  0  0
 30 31  1  0  0  0  0
 31 35  1  0  0  0  0
 32 31  2  0  0  0  0
 33 27  1  0  0  0  0
 34 29  1  0  0  0  0
M  END
>  <minimizedAffinity>
-4.76933384

$$$$

 OpenBabel03272508313D

 35 38  0  0  1  0  0  0  0  0999 V2000
   37.4770   25.1580   32.1440 N   0  0  0  0  0  0  0  0  0  0  0  0
   36.2680   25.9190   31.8480 C   0  0  0  0  0  0  0  0  0  0  0  0
   36.3800   27.3480   32.2260 C   0  0  0  0  0  0  0  0  0  0  0  0
   37.7600   27.7520   32.1010 N   0  0  0  0  0  0  0  0  0  0  0  0
   38.4330   27.1350   33.2360 C   0  0  0  0  0  0  0  0  0  0  0  0
   38.6430   25.6980   32.8300 C   0  0  1  0  0  0  0  0  0  0  0  0
   35.3690   25.4070   32.2430 H   0  0  0  0  0  0  0  0  0  0  0  0
   36.1620   25.8590   30.7310 H   0  0  0  0  0  0  0  0  0  0  0  0
   35.7440   27.9950   31.5990 H   0  0  0  0  0  0  0  0  0  0  0  0
   36.0790   27.5440   33.2870 H   0  0  0  0  0  0  0  0  0  0  0  0
   37.8330   28.7860   32.2040 H   0  0  0  0  0  0  0  0  0  0  0  0
   39.4040   27.6160   33.4330 H   0  0  0  0  0  0  0  0  0  0  0  0
   37.7770   27.1110   34.1370 H   0  0  0  0  0  0  0  0  0  0  0  0
   39.4900   25.6420   32.1430 H   0  0  0  0  0  0  0  0  0  0  0  0
   40.0930   24.1520   34.2040 C   0  0  0  0  0  3  0  0  0  0  0  0
   38.9680   24.9430   34.0610 C   0  0  0  0  0  0  0  0  0  0  0  0
   38.1020   25.0180   35.1530 C   0  0  0  0  0  0  0  0  0  0  0  0
   37.1950   25.6120   35.1370 H   0  0  0  0  0  0  0  0  0  0  0  0
   38.3860   24.3190   36.3170 C   0  0  0  0  0  0  0  0  0  0  0  0
   37.7750   24.1810   37.5200 N   0  0  0  0  0  0  0  0  0  0  0  0
   36.8870   24.6280   37.8070 H   0  0  0  0  0  0  0  0  0  0  0  0
   38.4700   23.3820   38.3080 N   0  0  0  0  0  0  0  0  0  0  0  0
   39.5720   22.9510   37.6720 C   0  0  0  0  0  0  0  0  0  0  0  0
   40.3380   22.2870   38.0570 H   0  0  0  0  0  0  0  0  0  0  0  0
   39.5150   23.5400   36.4280 C   0  0  0  0  0  0  0  0  0  0  0  0
   40.3710   23.4580   35.3660 C   0  0  0  0  0  3  0  0  0  0  0  0
   36.6210   22.8610   32.2960 C   0  0  0  0  0  0  0  0  0  0  0  0
   37.5220   23.7990   31.7370 C   0  0  0  0  0  0  0  0  0  0  0  0
   38.4290   23.3380   30.7970 C   0  0  0  0  0  0  0  0  0  0  0  0
   38.4030   22.0070   30.4600 N   0  0  0  0  0  0  0  0  0  0  0  0
   37.5200   21.1490   31.0250 C   0  0  0  0  0  0  0  0  0  0  0  0
   36.6140   21.5650   31.9530 N   0  0  0  0  0  0  0  0  0  0  0  0
   35.8880   23.1740   33.0410 H   0  0  0  0  0  0  0  0  0  0  0  0
   39.1370   24.0120   30.3410 H   0  0  0  0  0  0  0  0  0  0  0  0
   37.6120   20.1320   30.6680 H   0  0  0  0  0  0  0  0  0  0  0  0
  1  6  1  0  0  0  0
  2  1  1  0  0  0  0
  2  3  1  0  0  0  0
  2  7  1  0  0  0  0
  3 10  1  0  0  0  0
  4 11  1  0  0  0  0
  4  3  1  0  0  0  0
  4  5  1  0  0  0  0
  5 12  1  0  0  0  0
  5 13  1  0  0  0  0
  6 14  1  6  0  0  0
  6  5  1  0  0  0  0
  6 16  1  0  0  0  0
  8  2  1  0  0  0  0
  9  3  1  0  0  0  0
 15 26  1  0  0  0  0
 16 15  2  0  0  0  0
 16 17  1  0  0  0  0
 17 19  2  0  0  0  0
 18 17  1  0  0  0  0
 19 25  1  0  0  0  0
 19 20  1  0  0  0  0
 20 21  1  0  0  0  0
 20 22  1  0  0  0  0
 23 24  1  0  0  0  0
 23 22  2  0  0  0  0
 25 23  1  0  0  0  0
 26 25  2  0  0  0  0
 27 33  1  0  0  0  0
 28  1  1  0  0  0  0
 28 27  2  0  0  0  0
 29 28  1  0  0  0  0
 30 29  2  0  0  0  0
 30 31  1  0  0  0  0
 31 32  2  0  0  0  0
 32 27  1  0  0  0  0
 34 29  1  0  0  0  0
 35 31  1  0  0  0  0
M  END
>  <minimizedAffinity>
-4.74994946

$$$$
