
     RDKit          3D

 47 51  0  0  0  0  0  0  0  0999 V2000
   35.0114   28.3766   49.4587 C   0  0  0  0  0  0  0  0  0  0  0  0
   34.2755   28.7693   48.4477 C   0  0  0  0  0  0  0  0  0  0  0  0
   37.3872   30.1730   51.5702 C   0  0  0  0  0  0  0  0  0  0  0  0
   38.0905   30.9367   50.6200 C   0  0  0  0  0  0  0  0  0  0  0  0
   37.7217   30.8165   49.2722 C   0  0  0  0  0  0  0  0  0  0  0  0
   36.6940   29.9588   48.9567 N   0  0  0  0  0  0  0  0  0  0  0  0
   36.0629   29.2554   49.9266 C   0  0  0  0  0  0  0  0  0  0  0  0
   36.3947   29.3541   51.2057 N   0  0  0  0  0  0  0  0  0  0  0  0
   38.3797   31.5647   48.2004 C   0  0  0  0  0  0  0  0  0  0  0  0
   38.5865   31.0379   46.9460 C   0  0  0  0  0  0  0  0  0  0  0  0
   39.2349   32.0223   46.1841 C   0  0  0  0  0  0  0  0  0  0  0  0
   39.3897   33.0900   47.0040 N   0  0  0  0  0  0  0  0  0  0  0  0
   38.8805   32.8122   48.1983 N   0  0  0  0  0  0  0  0  0  0  0  0
   33.1693   28.0526   47.7840 C   0  0  0  0  0  0  0  0  0  0  0  0
   33.6076   26.9349   46.9048 C   0  0  0  0  0  0  0  0  0  0  0  0
   33.8039   25.6203   47.3202 C   0  0  0  0  0  0  0  0  0  0  0  0
   34.2026   24.6504   46.4411 C   0  0  0  0  0  0  0  0  0  0  0  0
   34.4235   24.9414   45.1146 C   0  0  0  0  0  0  0  0  0  0  0  0
   34.2317   26.2366   44.6961 C   0  0  0  0  0  0  0  0  0  0  0  0
   33.8275   27.2383   45.5685 C   0  0  0  0  0  0  0  0  0  0  0  0
   34.7509   27.3845   49.8681 H   0  0  0  0  0  0  0  0  0  0  0  0
   34.5663   29.7460   48.0852 H   0  0  0  0  0  0  0  0  0  0  0  0
   37.6535   30.2506   52.6053 H   0  0  0  0  0  0  0  0  0  0  0  0
   38.8837   31.5954   50.8821 H   0  0  0  0  0  0  0  0  0  0  0  0
   38.3205   30.0617   46.5696 H   0  0  0  0  0  0  0  0  0  0  0  0
   39.5311   31.9008   45.1487 H   0  0  0  0  0  0  0  0  0  0  0  0
   39.8455   33.9608   46.6834 H   0  0  0  0  0  0  0  0  0  0  0  0
   32.5483   27.5725   48.5898 H   0  0  0  0  0  0  0  0  0  0  0  0
   32.4900   28.7067   47.2464 H   0  0  0  0  0  0  0  0  0  0  0  0
   33.6069   25.4888   48.3739 H   0  0  0  0  0  0  0  0  0  0  0  0
   34.3039   23.7008   46.9300 H   0  0  0  0  0  0  0  0  0  0  0  0
   34.7350   24.1132   44.5004 H   0  0  0  0  0  0  0  0  0  0  0  0
   34.4385   26.3370   43.6269 H   0  0  0  0  0  0  0  0  0  0  0  0
   33.9798   28.8300   43.5588 C   0  0  0  0  0  0  0  0  0  0  0  0
   33.7297   28.4977   44.8538 C   0  0  0  0  0  0  0  0  0  0  0  0
   33.3310   29.5883   45.6421 C   0  0  0  0  0  0  0  0  0  0  0  0
   33.0963   29.4616   46.7087 H   0  0  0  0  0  0  0  0  0  0  0  0
   33.1887   30.8896   45.2087 C   0  0  0  0  0  0  0  0  0  0  0  0
   32.8312   32.0419   45.7803 N   0  0  0  0  0  0  0  0  0  0  0  0
   32.5635   32.1696   46.7835 H   0  0  0  0  0  0  0  0  0  0  0  0
   32.8769   32.9851   44.8537 N   0  0  0  0  0  0  0  0  0  0  0  0
   33.2600   32.4908   43.6609 C   0  0  0  0  0  0  0  0  0  0  0  0
   33.3967   32.9863   42.7096 H   0  0  0  0  0  0  0  0  0  0  0  0
   33.4593   31.1572   43.8836 C   0  0  0  0  0  0  0  0  0  0  0  0
   33.8534   30.1110   43.0775 C   0  0  0  0  0  0  0  0  0  0  0  0
   34.2687   28.0058   42.9391 H   0  0  0  0  0  0  0  0  0  0  0  0
   34.0851   30.2520   42.0114 H   0  0  0  0  0  0  0  0  0  0  0  0
  1  7  1  0
  2  1  2  0
  4  3  2  0
  5  4  1  0
  6  5  2  0
  6  7  1  0
  7  8  2  0
  8  3  1  0
  9  5  1  0
 10  9  1  0
 11 10  2  0
 11 12  1  0
 12 13  1  0
 13  9  2  0
 14  2  1  0
 15 16  2  0
 15 14  1  0
 17 16  1  0
 18 17  2  0
 19 18  1  0
 19 20  2  0
 20 15  1  0
  1 21  1  0
  2 22  1  0
  3 23  1  0
  4 24  1  0
 10 25  1  0
 11 26  1  0
 12 27  1  0
 14 28  1  0
 14 29  1  0
 16 30  1  0
 17 31  1  0
 18 32  1  0
 19 33  1  0
 34 35  2  0
 35 36  1  0
 36 37  1  0
 36 38  2  0
 38 39  1  0
 39 40  1  0
 39 41  1  0
 41 42  2  0
 42 43  1  0
 42 44  1  0
 44 45  2  0
 45 34  1  0
 44 38  1  0
 34 46  1  0
 45 47  1  0
 20 35  1  0
M  ISO  8  23  14  24  14  25  14  26  14  27   9  28   8  29   8  30  14
M  ISO  6  31  14  32  14  33  14  37  16  40   5  43  15
M  END
>  <DihAtoms>  (1) 
18,19,34,33

>  <DihDeg>  (1) 
-121.3683353391575

$$$$
