
 OpenBabel03272504513D

 45 49  0  0  1  0  0  0  0  0999 V2000
   36.3740   21.8350   31.6550 N   0  0  0  0  0  0  0  0  0  0  0  0
   36.4200   20.9950   30.4720 C   0  0  0  0  0  0  0  0  0  0  0  0
   36.2640   19.5380   30.7590 C   0  0  0  0  0  0  0  0  0  0  0  0
   35.2890   19.3320   31.9130 C   0  0  0  0  0  0  0  0  0  0  0  0
   35.9640   19.8990   33.1260 C   0  0  0  0  0  0  0  0  0  0  0  0
   36.2540   21.3660   32.9960 C   0  0  1  0  0  0  0  0  0  0  0  0
   37.4180   21.1440   29.9990 H   0  0  0  0  0  0  0  0  0  0  0  0
   35.6730   21.3770   29.7300 H   0  0  0  0  0  0  0  0  0  0  0  0
   37.2060   19.0220   30.9750 H   0  0  0  0  0  0  0  0  0  0  0  0
   35.7780   19.0700   29.8550 H   0  0  0  0  0  0  0  0  0  0  0  0
   34.4200   19.9960   31.6960 H   0  0  0  0  0  0  0  0  0  0  0  0
   35.0160   18.2880   32.0450 H   0  0  0  0  0  0  0  0  0  0  0  0
   35.4580   19.6870   34.0770 H   0  0  0  0  0  0  0  0  0  0  0  0
   36.9700   19.3940   33.1870 H   0  0  0  0  0  0  0  0  0  0  0  0
   35.4060   21.8930   33.4790 H   0  0  0  0  0  0  0  0  0  0  0  0
   38.8100   21.6160   33.5050 C   0  0  0  0  0  3  0  0  0  0  0  0
   37.4680   21.6700   33.8170 C   0  0  0  0  0  0  0  0  0  0  0  0
   37.0730   22.0680   35.0950 C   0  0  0  0  0  0  0  0  0  0  0  0
   36.0650   22.1600   35.4860 H   0  0  0  0  0  0  0  0  0  0  0  0
   38.0240   22.4100   36.0570 C   0  0  0  0  0  0  0  0  0  0  0  0
   38.0100   22.8190   37.3320 N   0  0  0  0  0  0  0  0  0  0  0  0
   37.1460   22.9710   37.8950 H   0  0  0  0  0  0  0  0  0  0  0  0
   39.2330   23.0090   37.7950 N   0  0  0  0  0  0  0  0  0  0  0  0
   40.1010   22.7220   36.8100 C   0  0  0  0  0  0  0  0  0  0  0  0
   41.1970   22.7620   36.8200 H   0  0  0  0  0  0  0  0  0  0  0  0
   39.3590   22.3500   35.7280 C   0  0  0  0  0  0  0  0  0  0  0  0
   39.7320   21.9580   34.4710 C   0  0  0  0  0  3  0  0  0  0  0  0
   35.3200   24.0400   31.5450 C   0  0  0  0  0  0  0  0  0  0  0  0
   36.4560   23.2330   31.4350 C   0  0  0  0  0  0  0  0  0  0  0  0
   37.6410   23.8650   31.1010 C   0  0  0  0  0  0  0  0  0  0  0  0
   37.6570   25.2120   30.9000 N   0  0  0  0  0  0  0  0  0  0  0  0
   36.5410   25.9580   31.0150 C   0  0  0  0  0  0  0  0  0  0  0  0
   35.3760   25.3580   31.3390 N   0  0  0  0  0  0  0  0  0  0  0  0
   34.3590   23.6150   31.8010 H   0  0  0  0  0  0  0  0  0  0  0  0
   38.5630   23.3120   31.0000 H   0  0  0  0  0  0  0  0  0  0  0  0
   36.5860   27.3860   30.7950 C   0  0  0  0  0  0  0  0  0  0  0  0
   35.9110   28.2440   31.6080 C   0  0  0  0  0  0  0  0  0  0  0  0
   35.8960   29.6080   31.4760 C   0  0  0  0  0  0  0  0  0  0  0  0
   36.6490   30.0660   30.4120 C   0  0  0  0  0  0  0  0  0  0  0  0
   37.3770   29.2320   29.5260 C   0  0  0  0  0  0  0  0  0  0  0  0
   37.2980   27.8890   29.7810 N   0  0  0  0  0  0  0  0  0  0  0  0
   35.3340   27.8010   32.4340 H   0  0  0  0  0  0  0  0  0  0  0  0
   35.3770   30.2980   32.0980 H   0  0  0  0  0  0  0  0  0  0  0  0
   36.7200   31.1320   30.1980 H   0  0  0  0  0  0  0  0  0  0  0  0
   37.9360   29.6570   28.7260 H   0  0  0  0  0  0  0  0  0  0  0  0
  1  6  1  0  0  0  0
  2  3  1  0  0  0  0
  2  1  1  0  0  0  0
  3  9  1  0  0  0  0
  3  4  1  0  0  0  0
  4 12  1  0  0  0  0
  4  5  1  0  0  0  0
  5 14  1  0  0  0  0
  5 13  1  0  0  0  0
  6  5  1  0  0  0  0
  6 15  1  1  0  0  0
  6 17  1  0  0  0  0
  7  2  1  0  0  0  0
  8  2  1  0  0  0  0
 10  3  1  0  0  0  0
 11  4  1  0  0  0  0
 16 17  2  0  0  0  0
 16 27  1  0  0  0  0
 17 18  1  0  0  0  0
 18 19  1  0  0  0  0
 18 20  2  0  0  0  0
 20 21  1  0  0  0  0
 21 23  1  0  0  0  0
 21 22  1  0  0  0  0
 24 25  1  0  0  0  0
 24 23  2  0  0  0  0
 26 20  1  0  0  0  0
 26 24  1  0  0  0  0
 27 26  2  0  0  0  0
 28 34  1  0  0  0  0
 29 28  1  0  0  0  0
 29  1  1  0  0  0  0
 30 29  2  0  0  0  0
 31 32  2  0  0  0  0
 31 30  1  0  0  0  0
 32 33  1  0  0  0  0
 33 28  2  0  0  0  0
 35 30  1  0  0  0  0
 36 32  1  0  0  0  0
 36 37  1  0  0  0  0
 37 42  1  0  0  0  0
 38 37  2  0  0  0  0
 38 43  1  0  0  0  0
 39 38  1  0  0  0  0
 40 41  1  0  0  0  0
 40 39  2  0  0  0  0
 41 36  2  0  0  0  0
 44 39  1  0  0  0  0
 45 40  1  0  0  0  0
M  END
>  <minimizedAffinity>
-6.253901

$$$$

 OpenBabel03272504513D

 45 49  0  0  1  0  0  0  0  0999 V2000
   36.1460   27.8770   31.8020 N   0  0  0  0  0  0  0  0  0  0  0  0
   35.8540   28.4890   33.0850 C   0  0  0  0  0  0  0  0  0  0  0  0
   35.8070   29.9810   33.0460 C   0  0  0  0  0  0  0  0  0  0  0  0
   35.2160   30.4530   31.7220 C   0  0  0  0  0  0  0  0  0  0  0  0
   36.2100   30.0650   30.6670 C   0  0  0  0  0  0  0  0  0  0  0  0
   36.4310   28.5820   30.5970 C   0  0  1  0  0  0  0  0  0  0  0  0
   36.6670   28.1930   33.7870 H   0  0  0  0  0  0  0  0  0  0  0  0
   34.9170   28.0330   33.4970 H   0  0  0  0  0  0  0  0  0  0  0  0
   36.7760   30.4630   33.2090 H   0  0  0  0  0  0  0  0  0  0  0  0
   35.0820   30.3130   33.8440 H   0  0  0  0  0  0  0  0  0  0  0  0
   34.3130   29.8200   31.5520 H   0  0  0  0  0  0  0  0  0  0  0  0
   35.0060   31.5200   31.7160 H   0  0  0  0  0  0  0  0  0  0  0  0
   36.0070   30.4750   29.6700 H   0  0  0  0  0  0  0  0  0  0  0  0
   37.1960   30.5040   30.9930 H   0  0  0  0  0  0  0  0  0  0  0  0
   35.7550   28.2070   29.8010 H   0  0  0  0  0  0  0  0  0  0  0  0
   38.9610   27.9410   30.7860 C   0  0  0  0  0  3  0  0  0  0  0  0
   37.8280   28.3470   30.1140 C   0  0  0  0  0  0  0  0  0  0  0  0
   37.8940   28.6080   28.7460 C   0  0  0  0  0  0  0  0  0  0  0  0
   37.0960   28.9310   28.0850 H   0  0  0  0  0  0  0  0  0  0  0  0
   39.0970   28.4610   28.0530 C   0  0  0  0  0  0  0  0  0  0  0  0
   39.5140   28.6170   26.7900 N   0  0  0  0  0  0  0  0  0  0  0  0
   38.9060   28.9220   26.0000 H   0  0  0  0  0  0  0  0  0  0  0  0
   40.7990   28.3360   26.6640 N   0  0  0  0  0  0  0  0  0  0  0  0
   41.2680   27.9800   27.8720 C   0  0  0  0  0  0  0  0  0  0  0  0
   42.2830   27.6800   28.1590 H   0  0  0  0  0  0  0  0  0  0  0  0
   40.2180   28.0550   28.7390 C   0  0  0  0  0  0  0  0  0  0  0  0
   40.1390   27.8020   30.0820 C   0  0  0  0  0  3  0  0  0  0  0  0
   35.2790   25.7680   30.9140 C   0  0  0  0  0  0  0  0  0  0  0  0
   36.1430   26.4590   31.7690 C   0  0  0  0  0  0  0  0  0  0  0  0
   36.9760   25.6950   32.5660 C   0  0  0  0  0  0  0  0  0  0  0  0
   36.9270   24.3360   32.4920 N   0  0  0  0  0  0  0  0  0  0  0  0
   36.0790   23.7040   31.6560 C   0  0  0  0  0  0  0  0  0  0  0  0
   35.2590   24.4340   30.8710 N   0  0  0  0  0  0  0  0  0  0  0  0
   34.5980   26.2990   30.2630 H   0  0  0  0  0  0  0  0  0  0  0  0
   37.6750   26.1540   33.2510 H   0  0  0  0  0  0  0  0  0  0  0  0
   36.0460   22.2600   31.5980 C   0  0  0  0  0  0  0  0  0  0  0  0
   35.0720   21.5530   32.2340 C   0  0  0  0  0  0  0  0  0  0  0  0
   34.9620   20.1860   32.2330 C   0  0  0  0  0  0  0  0  0  0  0  0
   35.9540   19.5550   31.5080 C   0  0  0  0  0  0  0  0  0  0  0  0
   36.9970   20.2260   30.8220 C   0  0  0  0  0  0  0  0  0  0  0  0
   36.9800   21.5930   30.9120 N   0  0  0  0  0  0  0  0  0  0  0  0
   34.3170   22.1290   32.7890 H   0  0  0  0  0  0  0  0  0  0  0  0
   34.2100   19.6130   32.7220 H   0  0  0  0  0  0  0  0  0  0  0  0
   35.9800   18.4680   31.4290 H   0  0  0  0  0  0  0  0  0  0  0  0
   37.7290   19.6720   30.2840 H   0  0  0  0  0  0  0  0  0  0  0  0
  1  2  1  0  0  0  0
  2  8  1  0  0  0  0
  2  7  1  0  0  0  0
  3  2  1  0  0  0  0
  3  9  1  0  0  0  0
  3 10  1  0  0  0  0
  4  3  1  0  0  0  0
  5 14  1  0  0  0  0
  5  4  1  0  0  0  0
  6 15  1  6  0  0  0
  6  5  1  0  0  0  0
  6  1  1  0  0  0  0
 11  4  1  0  0  0  0
 12  4  1  0  0  0  0
 13  5  1  0  0  0  0
 17  6  1  0  0  0  0
 17 16  1  0  0  0  0
 18 17  2  0  0  0  0
 19 18  1  0  0  0  0
 20 26  2  0  0  0  0
 20 18  1  0  0  0  0
 21 20  1  0  0  0  0
 22 21  1  0  0  0  0
 23 21  1  0  0  0  0
 23 24  2  0  0  0  0
 24 25  1  0  0  0  0
 24 26  1  0  0  0  0
 26 27  1  0  0  0  0
 27 16  2  0  0  0  0
 28 29  1  0  0  0  0
 29  1  1  0  0  0  0
 29 30  2  0  0  0  0
 30 35  1  0  0  0  0
 31 30  1  0  0  0  0
 32 31  2  0  0  0  0
 33 28  2  0  0  0  0
 33 32  1  0  0  0  0
 34 28  1  0  0  0  0
 36 32  1  0  0  0  0
 36 37  1  0  0  0  0
 37 42  1  0  0  0  0
 38 37  2  0  0  0  0
 38 43  1  0  0  0  0
 39 38  1  0  0  0  0
 40 41  1  0  0  0  0
 40 39  2  0  0  0  0
 41 36  2  0  0  0  0
 44 39  1  0  0  0  0
 45 40  1  0  0  0  0
M  END
>  <minimizedAffinity>
-6.21350145

$$$$

 OpenBabel03272504513D

 45 49  0  0  1  0  0  0  0  0999 V2000
   37.0380   28.1360   32.1180 N   0  0  0  0  0  0  0  0  0  0  0  0
   37.0340   27.5410   30.7930 C   0  0  0  0  0  0  0  0  0  0  0  0
   36.6880   28.5010   29.7020 C   0  0  0  0  0  0  0  0  0  0  0  0
   37.2570   29.8800   30.0170 C   0  0  0  0  0  0  0  0  0  0  0  0
   36.5060   30.3690   31.2190 C   0  0  0  0  0  0  0  0  0  0  0  0
   36.6930   29.4860   32.4180 C   0  0  1  0  0  0  0  0  0  0  0  0
   36.2650   26.7350   30.7940 H   0  0  0  0  0  0  0  0  0  0  0  0
   38.0140   27.0250   30.6270 H   0  0  0  0  0  0  0  0  0  0  0  0
   35.6150   28.5820   29.5020 H   0  0  0  0  0  0  0  0  0  0  0  0
   37.2200   28.1520   28.7710 H   0  0  0  0  0  0  0  0  0  0  0  0
   38.3070   29.7050   30.3500 H   0  0  0  0  0  0  0  0  0  0  0  0
   37.1770   30.5650   29.1750 H   0  0  0  0  0  0  0  0  0  0  0  0
   36.6880   31.4200   31.4800 H   0  0  0  0  0  0  0  0  0  0  0  0
   35.4130   30.2960   30.9550 H   0  0  0  0  0  0  0  0  0  0  0  0
   37.5170   29.9360   33.0090 H   0  0  0  0  0  0  0  0  0  0  0  0
   35.2830   30.0160   34.5590 C   0  0  0  0  0  3  0  0  0  0  0  0
   35.4600   29.5860   33.2610 C   0  0  0  0  0  0  0  0  0  0  0  0
   34.3590   29.1510   32.5230 C   0  0  0  0  0  0  0  0  0  0  0  0
   34.3390   28.7890   31.5000 H   0  0  0  0  0  0  0  0  0  0  0  0
   33.0830   29.1480   33.0870 C   0  0  0  0  0  0  0  0  0  0  0  0
   31.8480   28.8120   32.6920 N   0  0  0  0  0  0  0  0  0  0  0  0
   31.6100   28.4420   31.7480 H   0  0  0  0  0  0  0  0  0  0  0  0
   30.9600   29.0090   33.6510 N   0  0  0  0  0  0  0  0  0  0  0  0
   31.6080   29.4900   34.7260 C   0  0  0  0  0  0  0  0  0  0  0  0
   31.2050   29.7710   35.7060 H   0  0  0  0  0  0  0  0  0  0  0  0
   32.9250   29.5800   34.3840 C   0  0  0  0  0  0  0  0  0  0  0  0
   34.0140   30.0040   35.0970 C   0  0  0  0  0  3  0  0  0  0  0  0
   37.2400   25.9000   33.0910 C   0  0  0  0  0  0  0  0  0  0  0  0
   37.4180   27.2840   33.1850 C   0  0  0  0  0  0  0  0  0  0  0  0
   37.9740   27.7630   34.3580 C   0  0  0  0  0  0  0  0  0  0  0  0
   38.3190   26.8950   35.3490 N   0  0  0  0  0  0  0  0  0  0  0  0
   38.1320   25.5660   35.2230 C   0  0  0  0  0  0  0  0  0  0  0  0
   37.5900   25.0810   34.0860 N   0  0  0  0  0  0  0  0  0  0  0  0
   36.8100   25.4540   32.2040 H   0  0  0  0  0  0  0  0  0  0  0  0
   38.1470   28.8190   34.5070 H   0  0  0  0  0  0  0  0  0  0  0  0
   38.5060   24.6670   36.2910 C   0  0  0  0  0  0  0  0  0  0  0  0
   37.9040   24.7350   37.5100 C   0  0  0  0  0  0  0  0  0  0  0  0
   38.1930   23.9260   38.5780 C   0  0  0  0  0  0  0  0  0  0  0  0
   39.1810   22.9980   38.3130 C   0  0  0  0  0  0  0  0  0  0  0  0
   39.8500   22.8700   37.0700 C   0  0  0  0  0  0  0  0  0  0  0  0
   39.4560   23.7470   36.0950 N   0  0  0  0  0  0  0  0  0  0  0  0
   37.1250   25.5020   37.6420 H   0  0  0  0  0  0  0  0  0  0  0  0
   37.7360   23.9600   39.5390 H   0  0  0  0  0  0  0  0  0  0  0  0
   39.5040   22.2940   39.0800 H   0  0  0  0  0  0  0  0  0  0  0  0
   40.6030   22.1300   36.9400 H   0  0  0  0  0  0  0  0  0  0  0  0
  1  6  1  0  0  0  0
  1 29  1  0  0  0  0
  2  7  1  0  0  0  0
  2  1  1  0  0  0  0
  3  4  1  0  0  0  0
  3  2  1  0  0  0  0
  4 11  1  0  0  0  0
  4  5  1  0  0  0  0
  5 13  1  0  0  0  0
  5  6  1  0  0  0  0
  6 15  1  1  0  0  0
  6 17  1  0  0  0  0
  8  2  1  0  0  0  0
  9  3  1  0  0  0  0
 10  3  1  0  0  0  0
 12  4  1  0  0  0  0
 14  5  1  0  0  0  0
 16 27  1  0  0  0  0
 17 16  2  0  0  0  0
 18 20  2  0  0  0  0
 18 17  1  0  0  0  0
 19 18  1  0  0  0  0
 20 26  1  0  0  0  0
 21 20  1  0  0  0  0
 21 23  1  0  0  0  0
 22 21  1  0  0  0  0
 23 24  2  0  0  0  0
 24 25  1  0  0  0  0
 26 24  1  0  0  0  0
 26 27  2  0  0  0  0
 28 29  2  0  0  0  0
 28 33  1  0  0  0  0
 29 30  1  0  0  0  0
 30 35  1  0  0  0  0
 30 31  2  0  0  0  0
 32 31  1  0  0  0  0
 32 36  1  0  0  0  0
 33 32  2  0  0  0  0
 34 28  1  0  0  0  0
 36 37  1  0  0  0  0
 37 42  1  0  0  0  0
 37 38  2  0  0  0  0
 38 43  1  0  0  0  0
 39 38  1  0  0  0  0
 39 44  1  0  0  0  0
 40 39  2  0  0  0  0
 41 36  2  0  0  0  0
 41 40  1  0  0  0  0
 45 40  1  0  0  0  0
M  END
>  <minimizedAffinity>
-6.17214203

$$$$

 OpenBabel03272504513D

 45 49  0  0  1  0  0  0  0  0999 V2000
   38.6230   24.0480   35.9170 N   0  0  0  0  0  0  0  0  0  0  0  0
   38.5540   24.4250   37.3180 C   0  0  0  0  0  0  0  0  0  0  0  0
   39.0450   23.3680   38.2530 C   0  0  0  0  0  0  0  0  0  0  0  0
   40.2160   22.6180   37.6280 C   0  0  0  0  0  0  0  0  0  0  0  0
   39.6480   21.8710   36.4570 C   0  0  0  0  0  0  0  0  0  0  0  0
   39.0520   22.7810   35.4240 C   0  0  1  0  0  0  0  0  0  0  0  0
   37.4830   24.6190   37.5570 H   0  0  0  0  0  0  0  0  0  0  0  0
   39.0780   25.4050   37.4540 H   0  0  0  0  0  0  0  0  0  0  0  0
   38.2750   22.6540   38.5640 H   0  0  0  0  0  0  0  0  0  0  0  0
   39.4620   23.8920   39.1600 H   0  0  0  0  0  0  0  0  0  0  0  0
   40.8870   23.4030   37.2060 H   0  0  0  0  0  0  0  0  0  0  0  0
   40.7120   21.9570   38.3350 H   0  0  0  0  0  0  0  0  0  0  0  0
   40.3350   21.1530   35.9920 H   0  0  0  0  0  0  0  0  0  0  0  0
   38.7880   21.2650   36.8630 H   0  0  0  0  0  0  0  0  0  0  0  0
   39.8440   22.9490   34.6660 H   0  0  0  0  0  0  0  0  0  0  0  0
   36.7520   21.5490   35.2080 C   0  0  0  0  0  3  0  0  0  0  0  0
   37.9520   22.0360   34.7340 C   0  0  0  0  0  0  0  0  0  0  0  0
   38.2890   21.8530   33.3930 C   0  0  0  0  0  0  0  0  0  0  0  0
   39.1870   22.1770   32.8770 H   0  0  0  0  0  0  0  0  0  0  0  0
   37.4220   21.1830   32.5280 C   0  0  0  0  0  0  0  0  0  0  0  0
   37.4180   20.8380   31.2340 N   0  0  0  0  0  0  0  0  0  0  0  0
   38.1850   21.0520   30.5630 H   0  0  0  0  0  0  0  0  0  0  0  0
   36.3140   20.1880   30.9080 N   0  0  0  0  0  0  0  0  0  0  0  0
   35.5480   20.0880   32.0090 C   0  0  0  0  0  0  0  0  0  0  0  0
   34.5660   19.6160   32.1270 H   0  0  0  0  0  0  0  0  0  0  0  0
   36.2290   20.7030   33.0180 C   0  0  0  0  0  0  0  0  0  0  0  0
   35.9110   20.8890   34.3370 C   0  0  0  0  0  3  0  0  0  0  0  0
   38.8590   25.1390   33.7400 C   0  0  0  0  0  0  0  0  0  0  0  0
   38.2260   25.0370   34.9830 C   0  0  0  0  0  0  0  0  0  0  0  0
   37.2120   25.9410   35.2430 C   0  0  0  0  0  0  0  0  0  0  0  0
   36.8760   26.8700   34.3060 N   0  0  0  0  0  0  0  0  0  0  0  0
   37.5090   26.9390   33.1180 C   0  0  0  0  0  0  0  0  0  0  0  0
   38.5020   26.0650   32.8480 N   0  0  0  0  0  0  0  0  0  0  0  0
   39.6620   24.4660   33.4690 H   0  0  0  0  0  0  0  0  0  0  0  0
   36.6720   25.9260   36.1780 H   0  0  0  0  0  0  0  0  0  0  0  0
   37.1340   27.9360   32.1420 C   0  0  0  0  0  0  0  0  0  0  0  0
   36.3070   28.9660   32.4720 C   0  0  0  0  0  0  0  0  0  0  0  0
   35.8980   29.9550   31.6140 C   0  0  0  0  0  0  0  0  0  0  0  0
   36.4090   29.8210   30.3380 C   0  0  0  0  0  0  0  0  0  0  0  0
   37.2730   28.7770   29.9240 C   0  0  0  0  0  0  0  0  0  0  0  0
   37.5960   27.8600   30.8900 N   0  0  0  0  0  0  0  0  0  0  0  0
   35.9420   29.0030   33.5090 H   0  0  0  0  0  0  0  0  0  0  0  0
   35.2530   30.7690   31.8490 H   0  0  0  0  0  0  0  0  0  0  0  0
   36.1600   30.5430   29.5590 H   0  0  0  0  0  0  0  0  0  0  0  0
   37.6280   28.7390   28.9220 H   0  0  0  0  0  0  0  0  0  0  0  0
  1  2  1  0  0  0  0
  2  8  1  0  0  0  0
  2  7  1  0  0  0  0
  2  3  1  0  0  0  0
  3  9  1  0  0  0  0
  3 10  1  0  0  0  0
  4  3  1  0  0  0  0
  4 12  1  0  0  0  0
  5 14  1  0  0  0  0
  5  4  1  0  0  0  0
  6 15  1  6  0  0  0
  6  1  1  0  0  0  0
  6  5  1  0  0  0  0
 11  4  1  0  0  0  0
 13  5  1  0  0  0  0
 17 16  1  0  0  0  0
 17  6  1  0  0  0  0
 18 17  2  0  0  0  0
 19 18  1  0  0  0  0
 20 26  2  0  0  0  0
 20 18  1  0  0  0  0
 21 20  1  0  0  0  0
 22 21  1  0  0  0  0
 23 21  1  0  0  0  0
 23 24  2  0  0  0  0
 24 25  1  0  0  0  0
 24 26  1  0  0  0  0
 26 27  1  0  0  0  0
 27 16  2  0  0  0  0
 28 29  1  0  0  0  0
 29 30  2  0  0  0  0
 29  1  1  0  0  0  0
 30 35  1  0  0  0  0
 31 30  1  0  0  0  0
 32 31  2  0  0  0  0
 33 32  1  0  0  0  0
 33 28  2  0  0  0  0
 34 28  1  0  0  0  0
 36 37  1  0  0  0  0
 36 32  1  0  0  0  0
 37 42  1  0  0  0  0
 38 43  1  0  0  0  0
 38 37  2  0  0  0  0
 39 38  1  0  0  0  0
 40 39  2  0  0  0  0
 40 41  1  0  0  0  0
 41 36  2  0  0  0  0
 44 39  1  0  0  0  0
 45 40  1  0  0  0  0
M  END
>  <minimizedAffinity>
-6.06558418

$$$$

 OpenBabel03272504513D

 45 49  0  0  1  0  0  0  0  0999 V2000
   38.6640   24.2640   35.5680 N   0  0  0  0  0  0  0  0  0  0  0  0
   38.0360   24.5380   36.8480 C   0  0  0  0  0  0  0  0  0  0  0  0
   38.3380   23.5210   37.8990 C   0  0  0  0  0  0  0  0  0  0  0  0
   39.7670   23.0130   37.7420 C   0  0  0  0  0  0  0  0  0  0  0  0
   39.7940   22.2560   36.4470 C   0  0  0  0  0  0  0  0  0  0  0  0
   39.4550   23.1180   35.2660 C   0  0  1  0  0  0  0  0  0  0  0  0
   36.9340   24.5390   36.6830 H   0  0  0  0  0  0  0  0  0  0  0  0
   38.2960   25.5810   37.1620 H   0  0  0  0  0  0  0  0  0  0  0  0
   37.6450   22.6730   37.9130 H   0  0  0  0  0  0  0  0  0  0  0  0
   38.3050   24.0500   38.8950 H   0  0  0  0  0  0  0  0  0  0  0  0
   40.3960   23.9220   37.5900 H   0  0  0  0  0  0  0  0  0  0  0  0
   40.0860   22.4010   38.5830 H   0  0  0  0  0  0  0  0  0  0  0  0
   40.7160   21.6900   36.2630 H   0  0  0  0  0  0  0  0  0  0  0  0
   38.9660   21.4940   36.5150 H   0  0  0  0  0  0  0  0  0  0  0  0
   40.4230   23.4590   34.8450 H   0  0  0  0  0  0  0  0  0  0  0  0
   39.3100   21.7640   33.0300 C   0  0  0  0  0  3  0  0  0  0  0  0
   38.8220   22.2460   34.2260 C   0  0  0  0  0  0  0  0  0  0  0  0
   37.5260   21.9190   34.6240 C   0  0  0  0  0  0  0  0  0  0  0  0
   37.0070   22.2180   35.5290 H   0  0  0  0  0  0  0  0  0  0  0  0
   36.7210   21.1090   33.8230 C   0  0  0  0  0  0  0  0  0  0  0  0
   35.4790   20.6120   33.8840 N   0  0  0  0  0  0  0  0  0  0  0  0
   34.8140   20.7790   34.6680 H   0  0  0  0  0  0  0  0  0  0  0  0
   35.1960   19.8770   32.8230 N   0  0  0  0  0  0  0  0  0  0  0  0
   36.2730   19.8750   32.0180 C   0  0  0  0  0  0  0  0  0  0  0  0
   36.4130   19.3760   31.0520 H   0  0  0  0  0  0  0  0  0  0  0  0
   37.2240   20.6370   32.6320 C   0  0  0  0  0  0  0  0  0  0  0  0
   38.4970   20.9650   32.2530 C   0  0  0  0  0  3  0  0  0  0  0  0
   37.2600   25.9450   34.4780 C   0  0  0  0  0  0  0  0  0  0  0  0
   38.4600   25.2300   34.5510 C   0  0  0  0  0  0  0  0  0  0  0  0
   39.4150   25.5130   33.5910 C   0  0  0  0  0  0  0  0  0  0  0  0
   39.1600   26.4520   32.6380 N   0  0  0  0  0  0  0  0  0  0  0  0
   37.9910   27.1210   32.5980 C   0  0  0  0  0  0  0  0  0  0  0  0
   37.0480   26.8570   33.5260 N   0  0  0  0  0  0  0  0  0  0  0  0
   36.4680   25.7760   35.1930 H   0  0  0  0  0  0  0  0  0  0  0  0
   40.3690   25.0070   33.5810 H   0  0  0  0  0  0  0  0  0  0  0  0
   37.7460   28.1110   31.5740 C   0  0  0  0  0  0  0  0  0  0  0  0
   38.5650   28.2200   30.4920 C   0  0  0  0  0  0  0  0  0  0  0  0
   38.4110   29.1270   29.4750 C   0  0  0  0  0  0  0  0  0  0  0  0
   37.3170   29.9550   29.6380 C   0  0  0  0  0  0  0  0  0  0  0  0
   36.4240   29.8980   30.7360 C   0  0  0  0  0  0  0  0  0  0  0  0
   36.7040   28.9410   31.6760 N   0  0  0  0  0  0  0  0  0  0  0  0
   39.4150   27.5240   30.4350 H   0  0  0  0  0  0  0  0  0  0  0  0
   39.0370   29.2310   28.6200 H   0  0  0  0  0  0  0  0  0  0  0  0
   37.0830   30.7200   28.8970 H   0  0  0  0  0  0  0  0  0  0  0  0
   35.6010   30.5700   30.7940 H   0  0  0  0  0  0  0  0  0  0  0  0
  1  2  1  0  0  0  0
  2  8  1  0  0  0  0
  2  3  1  0  0  0  0
  3  9  1  0  0  0  0
  3 10  1  0  0  0  0
  4  3  1  0  0  0  0
  4 12  1  0  0  0  0
  5 14  1  0  0  0  0
  5  4  1  0  0  0  0
  6 15  1  6  0  0  0
  6  1  1  0  0  0  0
  6  5  1  0  0  0  0
  7  2  1  0  0  0  0
 11  4  1  0  0  0  0
 13  5  1  0  0  0  0
 16 17  1  0  0  0  0
 17 18  2  0  0  0  0
 17  6  1  0  0  0  0
 18 19  1  0  0  0  0
 20 21  1  0  0  0  0
 20 18  1  0  0  0  0
 21 22  1  0  0  0  0
 23 21  1  0  0  0  0
 24 26  1  0  0  0  0
 24 23  2  0  0  0  0
 25 24  1  0  0  0  0
 26 20  2  0  0  0  0
 27 26  1  0  0  0  0
 27 16  2  0  0  0  0
 28 29  1  0  0  0  0
 28 34  1  0  0  0  0
 29  1  1  0  0  0  0
 30 29  2  0  0  0  0
 31 30  1  0  0  0  0
 32 31  2  0  0  0  0
 32 33  1  0  0  0  0
 33 28  2  0  0  0  0
 35 30  1  0  0  0  0
 36 41  1  0  0  0  0
 36 32  1  0  0  0  0
 37 36  2  0  0  0  0
 38 39  2  0  0  0  0
 38 37  1  0  0  0  0
 39 40  1  0  0  0  0
 40 45  1  0  0  0  0
 40 41  2  0  0  0  0
 42 37  1  0  0  0  0
 43 38  1  0  0  0  0
 44 39  1  0  0  0  0
M  END
>  <minimizedAffinity>
-6.02628565

$$$$

 OpenBabel03272504513D

 45 49  0  0  1  0  0  0  0  0999 V2000
   38.6850   22.9810   35.6550 N   0  0  0  0  0  0  0  0  0  0  0  0
   39.3660   22.2700   36.7230 C   0  0  0  0  0  0  0  0  0  0  0  0
   39.4160   23.0230   38.0120 C   0  0  0  0  0  0  0  0  0  0  0  0
   38.1330   23.8230   38.2040 C   0  0  0  0  0  0  0  0  0  0  0  0
   38.1430   24.8760   37.1360 C   0  0  0  0  0  0  0  0  0  0  0  0
   38.1490   24.2980   35.7510 C   0  0  1  0  0  0  0  0  0  0  0  0
   40.4150   22.0970   36.3890 H   0  0  0  0  0  0  0  0  0  0  0  0
   38.9090   21.2540   36.8280 H   0  0  0  0  0  0  0  0  0  0  0  0
   40.2820   23.6860   38.1080 H   0  0  0  0  0  0  0  0  0  0  0  0
   39.4320   22.2600   38.8430 H   0  0  0  0  0  0  0  0  0  0  0  0
   37.3010   23.1250   37.9500 H   0  0  0  0  0  0  0  0  0  0  0  0
   38.0520   24.2480   39.2010 H   0  0  0  0  0  0  0  0  0  0  0  0
   37.3600   25.6400   37.2350 H   0  0  0  0  0  0  0  0  0  0  0  0
   39.1250   25.4190   37.2440 H   0  0  0  0  0  0  0  0  0  0  0  0
   37.0900   24.2720   35.4230 H   0  0  0  0  0  0  0  0  0  0  0  0
   38.3820   26.0320   33.8040 C   0  0  0  0  0  3  0  0  0  0  0  0
   38.8510   25.2670   34.8510 C   0  0  0  0  0  0  0  0  0  0  0  0
   40.1970   25.3390   35.2100 C   0  0  0  0  0  0  0  0  0  0  0  0
   40.7090   24.8050   36.0030 H   0  0  0  0  0  0  0  0  0  0  0  0
   41.0710   26.1790   34.5180 C   0  0  0  0  0  0  0  0  0  0  0  0
   42.3720   26.4900   34.5830 N   0  0  0  0  0  0  0  0  0  0  0  0
   43.0420   26.0880   35.2730 H   0  0  0  0  0  0  0  0  0  0  0  0
   42.7070   27.3750   33.6610 N   0  0  0  0  0  0  0  0  0  0  0  0
   41.6060   27.6730   32.9500 C   0  0  0  0  0  0  0  0  0  0  0  0
   41.4940   28.3650   32.1060 H   0  0  0  0  0  0  0  0  0  0  0  0
   40.5870   26.9360   33.4760 C   0  0  0  0  0  0  0  0  0  0  0  0
   39.2630   26.8550   33.1340 C   0  0  0  0  0  3  0  0  0  0  0  0
   37.2920   21.9660   33.9190 C   0  0  0  0  0  0  0  0  0  0  0  0
   38.5550   22.2880   34.4250 C   0  0  0  0  0  0  0  0  0  0  0  0
   39.6480   21.8960   33.6730 C   0  0  0  0  0  0  0  0  0  0  0  0
   39.4600   21.2310   32.5000 N   0  0  0  0  0  0  0  0  0  0  0  0
   38.2260   20.9370   32.0430 C   0  0  0  0  0  0  0  0  0  0  0  0
   37.1480   21.3120   32.7640 N   0  0  0  0  0  0  0  0  0  0  0  0
   36.3920   22.2390   34.4530 H   0  0  0  0  0  0  0  0  0  0  0  0
   40.6570   22.1100   33.9940 H   0  0  0  0  0  0  0  0  0  0  0  0
   38.0550   20.2300   30.7940 C   0  0  0  0  0  0  0  0  0  0  0  0
   36.8950   19.5750   30.5110 C   0  0  0  0  0  0  0  0  0  0  0  0
   36.6440   18.8800   29.3560 C   0  0  0  0  0  0  0  0  0  0  0  0
   37.6990   18.8940   28.4660 C   0  0  0  0  0  0  0  0  0  0  0  0
   38.9330   19.5530   28.6930 C   0  0  0  0  0  0  0  0  0  0  0  0
   39.0410   20.2070   29.8920 N   0  0  0  0  0  0  0  0  0  0  0  0
   36.1010   19.6110   31.2720 H   0  0  0  0  0  0  0  0  0  0  0  0
   35.7460   18.3620   29.1130 H   0  0  0  0  0  0  0  0  0  0  0  0
   37.6270   18.3780   27.5080 H   0  0  0  0  0  0  0  0  0  0  0  0
   39.7030   19.5200   27.9590 H   0  0  0  0  0  0  0  0  0  0  0  0
  1  6  1  0  0  0  0
  1  2  1  0  0  0  0
  2  8  1  0  0  0  0
  2  3  1  0  0  0  0
  3  9  1  0  0  0  0
  3  4  1  0  0  0  0
  3 10  1  0  0  0  0
  4 12  1  0  0  0  0
  5 13  1  0  0  0  0
  5 14  1  0  0  0  0
  5  4  1  0  0  0  0
  6 15  1  6  0  0  0
  6  5  1  0  0  0  0
  7  2  1  0  0  0  0
 11  4  1  0  0  0  0
 16 17  1  0  0  0  0
 17 18  2  0  0  0  0
 17  6  1  0  0  0  0
 18 19  1  0  0  0  0
 20 21  1  0  0  0  0
 20 18  1  0  0  0  0
 21 22  1  0  0  0  0
 23 21  1  0  0  0  0
 24 26  1  0  0  0  0
 24 23  2  0  0  0  0
 25 24  1  0  0  0  0
 26 20  2  0  0  0  0
 27 26  1  0  0  0  0
 27 16  2  0  0  0  0
 28 29  1  0  0  0  0
 28 34  1  0  0  0  0
 29  1  1  0  0  0  0
 30 35  1  0  0  0  0
 30 29  2  0  0  0  0
 31 30  1  0  0  0  0
 32 31  2  0  0  0  0
 32 33  1  0  0  0  0
 33 28  2  0  0  0  0
 36 32  1  0  0  0  0
 37 36  1  0  0  0  0
 37 42  1  0  0  0  0
 38 37  2  0  0  0  0
 39 40  2  0  0  0  0
 39 38  1  0  0  0  0
 40 41  1  0  0  0  0
 41 36  2  0  0  0  0
 43 38  1  0  0  0  0
 44 39  1  0  0  0  0
 45 40  1  0  0  0  0
M  END
>  <minimizedAffinity>
-5.94298506

$$$$

 OpenBabel03272504513D

 45 49  0  0  1  0  0  0  0  0999 V2000
   38.0810   23.1210   31.7460 N   0  0  0  0  0  0  0  0  0  0  0  0
   38.6990   22.9230   30.4470 C   0  0  0  0  0  0  0  0  0  0  0  0
   39.0380   21.4980   30.1510 C   0  0  0  0  0  0  0  0  0  0  0  0
   37.9790   20.5740   30.7420 C   0  0  0  0  0  0  0  0  0  0  0  0
   38.1060   20.7040   32.2310 C   0  0  0  0  0  0  0  0  0  0  0  0
   37.8500   22.1010   32.7140 C   0  0  1  0  0  0  0  0  0  0  0  0
   39.6480   23.5070   30.4390 H   0  0  0  0  0  0  0  0  0  0  0  0
   38.0490   23.3890   29.6640 H   0  0  0  0  0  0  0  0  0  0  0  0
   40.0300   21.1940   30.5000 H   0  0  0  0  0  0  0  0  0  0  0  0
   38.9740   21.3660   29.0330 H   0  0  0  0  0  0  0  0  0  0  0  0
   36.9970   21.0250   30.4690 H   0  0  0  0  0  0  0  0  0  0  0  0
   38.0920   19.5450   30.4090 H   0  0  0  0  0  0  0  0  0  0  0  0
   37.5170   19.9800   32.8090 H   0  0  0  0  0  0  0  0  0  0  0  0
   39.1870   20.4920   32.4710 H   0  0  0  0  0  0  0  0  0  0  0  0
   36.7820   22.1350   33.0120 H   0  0  0  0  0  0  0  0  0  0  0  0
   40.0100   22.3460   34.1730 C   0  0  0  0  0  3  0  0  0  0  0  0
   38.6470   22.3100   33.9640 C   0  0  0  0  0  0  0  0  0  0  0  0
   37.7790   22.4910   35.0410 C   0  0  0  0  0  0  0  0  0  0  0  0
   36.6940   22.4910   35.0350 H   0  0  0  0  0  0  0  0  0  0  0  0
   38.2790   22.7070   36.3260 C   0  0  0  0  0  0  0  0  0  0  0  0
   37.7630   22.9110   37.5450 N   0  0  0  0  0  0  0  0  0  0  0  0
   36.7440   22.9460   37.7580 H   0  0  0  0  0  0  0  0  0  0  0  0
   38.7110   23.0630   38.4540 N   0  0  0  0  0  0  0  0  0  0  0  0
   39.9010   22.9600   37.8380 C   0  0  0  0  0  0  0  0  0  0  0  0
   40.9080   23.0310   38.2640 H   0  0  0  0  0  0  0  0  0  0  0  0
   39.6410   22.7390   36.5170 C   0  0  0  0  0  0  0  0  0  0  0  0
   40.4810   22.5600   35.4510 C   0  0  0  0  0  3  0  0  0  0  0  0
   36.3660   24.8640   31.8390 C   0  0  0  0  0  0  0  0  0  0  0  0
   37.6840   24.4470   32.0540 C   0  0  0  0  0  0  0  0  0  0  0  0
   38.5590   25.3840   32.5720 C   0  0  0  0  0  0  0  0  0  0  0  0
   38.1190   26.6440   32.8470 N   0  0  0  0  0  0  0  0  0  0  0  0
   36.8410   27.0110   32.6250 C   0  0  0  0  0  0  0  0  0  0  0  0
   35.9730   26.1090   32.1190 N   0  0  0  0  0  0  0  0  0  0  0  0
   35.6270   24.1860   31.4340 H   0  0  0  0  0  0  0  0  0  0  0  0
   39.5920   25.1400   32.7700 H   0  0  0  0  0  0  0  0  0  0  0  0
   36.4000   28.3540   32.9240 C   0  0  0  0  0  0  0  0  0  0  0  0
   36.0340   28.7080   34.1870 C   0  0  0  0  0  0  0  0  0  0  0  0
   35.6040   29.9550   34.5620 C   0  0  0  0  0  0  0  0  0  0  0  0
   35.5700   30.8620   33.5210 C   0  0  0  0  0  0  0  0  0  0  0  0
   35.9370   30.5640   32.1850 C   0  0  0  0  0  0  0  0  0  0  0  0
   36.3460   29.2760   31.9580 N   0  0  0  0  0  0  0  0  0  0  0  0
   36.0890   27.9290   34.9620 H   0  0  0  0  0  0  0  0  0  0  0  0
   35.3130   30.2550   35.5420 H   0  0  0  0  0  0  0  0  0  0  0  0
   35.2460   31.8890   33.6870 H   0  0  0  0  0  0  0  0  0  0  0  0
   35.8840   31.3150   31.4340 H   0  0  0  0  0  0  0  0  0  0  0  0
  1 29  1  0  0  0  0
  1  6  1  0  0  0  0
  2  1  1  0  0  0  0
  3  2  1  0  0  0  0
  3  9  1  0  0  0  0
  3  4  1  0  0  0  0
  4  5  1  0  0  0  0
  5 14  1  0  0  0  0
  5  6  1  0  0  0  0
  5 13  1  0  0  0  0
  6 15  1  1  0  0  0
  6 17  1  0  0  0  0
  7  2  1  0  0  0  0
  8  2  1  0  0  0  0
 10  3  1  0  0  0  0
 11  4  1  0  0  0  0
 12  4  1  0  0  0  0
 16 27  1  0  0  0  0
 17 16  2  0  0  0  0
 17 18  1  0  0  0  0
 18 20  2  0  0  0  0
 19 18  1  0  0  0  0
 20 26  1  0  0  0  0
 20 21  1  0  0  0  0
 21 22  1  0  0  0  0
 21 23  1  0  0  0  0
 24 25  1  0  0  0  0
 24 23  2  0  0  0  0
 26 24  1  0  0  0  0
 27 26  2  0  0  0  0
 28 29  2  0  0  0  0
 28 33  1  0  0  0  0
 29 30  1  0  0  0  0
 30 35  1  0  0  0  0
 30 31  2  0  0  0  0
 32 31  1  0  0  0  0
 32 36  1  0  0  0  0
 33 32  2  0  0  0  0
 34 28  1  0  0  0  0
 36 37  1  0  0  0  0
 37 38  2  0  0  0  0
 37 42  1  0  0  0  0
 38 43  1  0  0  0  0
 39 44  1  0  0  0  0
 39 38  1  0  0  0  0
 40 39  2  0  0  0  0
 41 40  1  0  0  0  0
 41 36  2  0  0  0  0
 45 40  1  0  0  0  0
M  END
>  <minimizedAffinity>
-5.87946987

$$$$

 OpenBabel03272504513D

 45 49  0  0  1  0  0  0  0  0999 V2000
   38.8400   26.1500   31.7990 N   0  0  0  0  0  0  0  0  0  0  0  0
   40.2020   26.0690   32.2940 C   0  0  0  0  0  0  0  0  0  0  0  0
   41.0940   25.2000   31.4690 C   0  0  0  0  0  0  0  0  0  0  0  0
   40.7280   25.3240   29.9940 C   0  0  0  0  0  0  0  0  0  0  0  0
   39.3610   24.7230   29.8570 C   0  0  0  0  0  0  0  0  0  0  0  0
   38.3270   25.4430   30.6730 C   0  0  1  0  0  0  0  0  0  0  0  0
   40.1570   25.6330   33.3190 H   0  0  0  0  0  0  0  0  0  0  0  0
   40.6020   27.1070   32.4230 H   0  0  0  0  0  0  0  0  0  0  0  0
   41.0850   24.1450   31.7620 H   0  0  0  0  0  0  0  0  0  0  0  0
   42.1400   25.6090   31.5640 H   0  0  0  0  0  0  0  0  0  0  0  0
   40.6130   26.4170   29.8020 H   0  0  0  0  0  0  0  0  0  0  0  0
   41.4550   24.8450   29.3430 H   0  0  0  0  0  0  0  0  0  0  0  0
   39.0170   24.5910   28.8230 H   0  0  0  0  0  0  0  0  0  0  0  0
   39.4310   23.6880   30.2990 H   0  0  0  0  0  0  0  0  0  0  0  0
   37.8470   26.1720   29.9890 H   0  0  0  0  0  0  0  0  0  0  0  0
   35.8940   24.5410   31.0170 C   0  0  0  0  0  3  0  0  0  0  0  0
   37.2700   24.4540   31.0530 C   0  0  0  0  0  0  0  0  0  0  0  0
   37.8750   23.2820   31.5060 C   0  0  0  0  0  0  0  0  0  0  0  0
   38.9340   23.0640   31.5920 H   0  0  0  0  0  0  0  0  0  0  0  0
   37.1000   22.1990   31.9220 C   0  0  0  0  0  0  0  0  0  0  0  0
   37.3290   20.9680   32.3980 N   0  0  0  0  0  0  0  0  0  0  0  0
   38.2760   20.5620   32.5560 H   0  0  0  0  0  0  0  0  0  0  0  0
   36.2020   20.3240   32.6450 N   0  0  0  0  0  0  0  0  0  0  0  0
   35.1790   21.1380   32.3290 C   0  0  0  0  0  0  0  0  0  0  0  0
   34.1010   20.9520   32.3990 H   0  0  0  0  0  0  0  0  0  0  0  0
   35.7280   22.3030   31.8800 C   0  0  0  0  0  0  0  0  0  0  0  0
   35.1480   23.4590   31.4330 C   0  0  0  0  0  3  0  0  0  0  0  0
   37.3180   28.0660   31.8600 C   0  0  0  0  0  0  0  0  0  0  0  0
   37.9660   27.0100   32.5110 C   0  0  0  0  0  0  0  0  0  0  0  0
   37.7110   26.8600   33.8620 C   0  0  0  0  0  0  0  0  0  0  0  0
   36.8630   27.7190   34.4920 N   0  0  0  0  0  0  0  0  0  0  0  0
   36.2570   28.7250   33.8320 C   0  0  0  0  0  0  0  0  0  0  0  0
   36.4940   28.8880   32.5130 N   0  0  0  0  0  0  0  0  0  0  0  0
   37.4710   28.2450   30.8050 H   0  0  0  0  0  0  0  0  0  0  0  0
   38.1700   26.0670   34.4350 H   0  0  0  0  0  0  0  0  0  0  0  0
   35.3610   29.6230   34.5250 C   0  0  0  0  0  0  0  0  0  0  0  0
   35.8410   30.6560   35.2730 C   0  0  0  0  0  0  0  0  0  0  0  0
   35.0680   31.5550   35.9630 C   0  0  0  0  0  0  0  0  0  0  0  0
   33.7120   31.3250   35.8360 C   0  0  0  0  0  0  0  0  0  0  0  0
   33.1430   30.2730   35.0760 C   0  0  0  0  0  0  0  0  0  0  0  0
   34.0380   29.4530   34.4420 N   0  0  0  0  0  0  0  0  0  0  0  0
   36.9340   30.7720   35.3230 H   0  0  0  0  0  0  0  0  0  0  0  0
   35.4200   32.3680   36.5520 H   0  0  0  0  0  0  0  0  0  0  0  0
   32.9890   31.9700   36.3370 H   0  0  0  0  0  0  0  0  0  0  0  0
   32.0870   30.1580   35.0260 H   0  0  0  0  0  0  0  0  0  0  0  0
  1  2  1  0  0  0  0
  1 29  1  0  0  0  0
  2  8  1  0  0  0  0
  2  7  1  0  0  0  0
  3 10  1  0  0  0  0
  3  9  1  0  0  0  0
  3  2  1  0  0  0  0
  4  3  1  0  0  0  0
  5  4  1  0  0  0  0
  5 14  1  0  0  0  0
  5  6  1  0  0  0  0
  6 15  1  6  0  0  0
  6 17  1  0  0  0  0
  6  1  1  0  0  0  0
 11  4  1  0  0  0  0
 12  4  1  0  0  0  0
 13  5  1  0  0  0  0
 16 17  2  0  0  0  0
 16 27  1  0  0  0  0
 17 18  1  0  0  0  0
 18 19  1  0  0  0  0
 18 20  2  0  0  0  0
 20 21  1  0  0  0  0
 21 22  1  0  0  0  0
 21 23  1  0  0  0  0
 24 25  1  0  0  0  0
 24 23  2  0  0  0  0
 26 20  1  0  0  0  0
 26 24  1  0  0  0  0
 27 26  2  0  0  0  0
 28 29  2  0  0  0  0
 28 33  1  0  0  0  0
 29 30  1  0  0  0  0
 30 35  1  0  0  0  0
 30 31  2  0  0  0  0
 32 31  1  0  0  0  0
 32 36  1  0  0  0  0
 33 32  2  0  0  0  0
 34 28  1  0  0  0  0
 36 37  1  0  0  0  0
 37 42  1  0  0  0  0
 37 38  2  0  0  0  0
 38 43  1  0  0  0  0
 39 38  1  0  0  0  0
 39 44  1  0  0  0  0
 40 39  2  0  0  0  0
 41 36  2  0  0  0  0
 41 40  1  0  0  0  0
 45 40  1  0  0  0  0
M  END
>  <minimizedAffinity>
-5.81538486

$$$$

 OpenBabel03272504513D

 45 49  0  0  1  0  0  0  0  0999 V2000
   36.0950   29.9690   32.2400 N   0  0  0  0  0  0  0  0  0  0  0  0
   36.6020   30.6770   31.0790 C   0  0  0  0  0  0  0  0  0  0  0  0
   36.4670   32.1620   31.1710 C   0  0  0  0  0  0  0  0  0  0  0  0
   36.6790   32.6200   32.6090 C   0  0  0  0  0  0  0  0  0  0  0  0
   35.5210   32.0730   33.3900 C   0  0  0  0  0  0  0  0  0  0  0  0
   35.4610   30.5740   33.3650 C   0  0  1  0  0  0  0  0  0  0  0  0
   36.0110   30.3360   30.1980 H   0  0  0  0  0  0  0  0  0  0  0  0
   37.6540   30.3460   30.8860 H   0  0  0  0  0  0  0  0  0  0  0  0
   35.5120   32.5470   30.7990 H   0  0  0  0  0  0  0  0  0  0  0  0
   37.3130   32.6110   30.5750 H   0  0  0  0  0  0  0  0  0  0  0  0
   37.5860   32.0780   32.9690 H   0  0  0  0  0  0  0  0  0  0  0  0
   36.7590   33.7020   32.6940 H   0  0  0  0  0  0  0  0  0  0  0  0
   35.4400   32.4480   34.4180 H   0  0  0  0  0  0  0  0  0  0  0  0
   34.5920   32.4240   32.8540 H   0  0  0  0  0  0  0  0  0  0  0  0
   35.9750   30.2290   34.2850 H   0  0  0  0  0  0  0  0  0  0  0  0
   32.9860   30.2090   32.5950 C   0  0  0  0  0  3  0  0  0  0  0  0
   34.0270   30.1680   33.4990 C   0  0  0  0  0  0  0  0  0  0  0  0
   33.8040   29.6780   34.7860 C   0  0  0  0  0  0  0  0  0  0  0  0
   34.5160   29.5830   35.5990 H   0  0  0  0  0  0  0  0  0  0  0  0
   32.5380   29.2300   35.1650 C   0  0  0  0  0  0  0  0  0  0  0  0
   31.9810   28.7180   36.2700 N   0  0  0  0  0  0  0  0  0  0  0  0
   32.4900   28.5460   37.1630 H   0  0  0  0  0  0  0  0  0  0  0  0
   30.6980   28.4550   36.0910 N   0  0  0  0  0  0  0  0  0  0  0  0
   30.3740   28.7970   34.8310 C   0  0  0  0  0  0  0  0  0  0  0  0
   29.4060   28.7240   34.3230 H   0  0  0  0  0  0  0  0  0  0  0  0
   31.5110   29.2790   34.2510 C   0  0  0  0  0  0  0  0  0  0  0  0
   31.7430   29.7620   32.9910 C   0  0  0  0  0  3  0  0  0  0  0  0
   35.8400   27.8020   31.1320 C   0  0  0  0  0  0  0  0  0  0  0  0
   36.2530   28.5600   32.2330 C   0  0  0  0  0  0  0  0  0  0  0  0
   36.8120   27.8690   33.2920 C   0  0  0  0  0  0  0  0  0  0  0  0
   36.9370   26.5140   33.2270 N   0  0  0  0  0  0  0  0  0  0  0  0
   36.5260   25.8160   32.1500 C   0  0  0  0  0  0  0  0  0  0  0  0
   35.9780   26.4750   31.1070 N   0  0  0  0  0  0  0  0  0  0  0  0
   35.3930   28.2750   30.2680 H   0  0  0  0  0  0  0  0  0  0  0  0
   37.1590   28.3810   34.1770 H   0  0  0  0  0  0  0  0  0  0  0  0
   36.6690   24.3790   32.1070 C   0  0  0  0  0  0  0  0  0  0  0  0
   35.8010   23.6070   31.3970 C   0  0  0  0  0  0  0  0  0  0  0  0
   35.8590   22.2400   31.3000 C   0  0  0  0  0  0  0  0  0  0  0  0
   36.9080   21.6840   32.0050 C   0  0  0  0  0  0  0  0  0  0  0  0
   37.8490   22.4240   32.7640 C   0  0  0  0  0  0  0  0  0  0  0  0
   37.6650   23.7810   32.7690 N   0  0  0  0  0  0  0  0  0  0  0  0
   34.9920   24.1260   30.8620 H   0  0  0  0  0  0  0  0  0  0  0  0
   35.1930   21.6170   30.7520 H   0  0  0  0  0  0  0  0  0  0  0  0
   37.0660   20.6050   32.0090 H   0  0  0  0  0  0  0  0  0  0  0  0
   38.6320   21.9250   33.2820 H   0  0  0  0  0  0  0  0  0  0  0  0
  1  6  1  0  0  0  0
  2  3  1  0  0  0  0
  2  1  1  0  0  0  0
  3  4  1  0  0  0  0
  4 12  1  0  0  0  0
  4 11  1  0  0  0  0
  4  5  1  0  0  0  0
  5 13  1  0  0  0  0
  6  5  1  0  0  0  0
  6 17  1  0  0  0  0
  6 15  1  1  0  0  0
  7  2  1  0  0  0  0
  8  2  1  0  0  0  0
  9  3  1  0  0  0  0
 10  3  1  0  0  0  0
 14  5  1  0  0  0  0
 16 27  2  0  0  0  0
 16 17  1  0  0  0  0
 17 18  2  0  0  0  0
 18 20  1  0  0  0  0
 18 19  1  0  0  0  0
 20 21  1  0  0  0  0
 21 22  1  0  0  0  0
 23 21  1  0  0  0  0
 24 23  2  0  0  0  0
 25 24  1  0  0  0  0
 26 24  1  0  0  0  0
 26 20  2  0  0  0  0
 27 26  1  0  0  0  0
 28 29  1  0  0  0  0
 29  1  1  0  0  0  0
 29 30  2  0  0  0  0
 30 35  1  0  0  0  0
 31 30  1  0  0  0  0
 32 31  2  0  0  0  0
 33 28  2  0  0  0  0
 33 32  1  0  0  0  0
 34 28  1  0  0  0  0
 36 32  1  0  0  0  0
 36 41  1  0  0  0  0
 37 36  2  0  0  0  0
 38 37  1  0  0  0  0
 38 39  2  0  0  0  0
 39 44  1  0  0  0  0
 39 40  1  0  0  0  0
 40 41  2  0  0  0  0
 40 45  1  0  0  0  0
 42 37  1  0  0  0  0
 43 38  1  0  0  0  0
M  END
>  <minimizedAffinity>
-5.81374502

$$$$
