
 OpenBabel03272507093D

 30 33  0  0  0  0  0  0  0  0999 V2000
   35.8520   29.1290   49.8110 C   0  0  0  0  0  0  0  0  0  0  0  0
   34.8200   29.6270   50.5430 C   0  0  0  0  0  0  0  0  0  0  0  0
   33.6440   29.0430   50.0510 C   0  0  0  0  0  0  0  0  0  0  0  0
   34.0630   28.1990   49.0130 C   0  0  0  0  0  0  0  0  0  0  0  0
   35.3620   28.3020   48.9310 O   0  0  0  0  0  0  0  0  0  0  0  0
   34.8560   30.3430   51.3650 H   0  0  0  0  0  0  0  0  0  0  0  0
   32.6620   29.2680   50.4620 H   0  0  0  0  0  0  0  0  0  0  0  0
   33.5340   26.4240   47.3420 C   0  0  0  0  0  0  0  0  0  0  0  0
   33.1260   27.3970   48.2310 C   0  0  0  0  0  0  0  0  0  0  0  0
   31.7860   27.6680   48.4290 C   0  0  0  0  0  0  0  0  0  0  0  0
   31.4220   28.4320   49.1240 H   0  0  0  0  0  0  0  0  0  0  0  0
   30.8510   26.9420   47.7180 C   0  0  0  0  0  0  0  0  0  0  0  0
   29.5120   26.9940   47.7130 N   0  0  0  0  0  0  0  0  0  0  0  0
   28.9010   27.6070   48.2590 H   0  0  0  0  0  0  0  0  0  0  0  0
   29.0840   26.0730   46.8390 N   0  0  0  0  0  0  0  0  0  0  0  0
   30.1470   25.4500   46.3030 C   0  0  0  0  0  0  0  0  0  0  0  0
   30.0690   24.6490   45.5570 H   0  0  0  0  0  0  0  0  0  0  0  0
   31.3060   25.9760   46.8380 C   0  0  0  0  0  0  0  0  0  0  0  0
   32.6430   25.6870   46.6230 C   0  0  0  0  0  0  0  0  0  0  0  0
   37.2300   29.5250   50.0540 C   0  0  0  0  0  0  0  0  0  0  0  0
   37.8760   28.9610   50.9650 O   0  0  0  0  0  0  0  0  0  0  0  0
   37.7820   30.5620   49.2170 C   0  0  0  0  0  0  0  0  0  0  0  0
   38.1290   31.7610   49.8250 C   0  0  0  0  0  0  0  0  0  0  0  0
   38.6650   32.7900   49.0550 C   0  0  0  0  0  0  0  0  0  0  0  0
   38.8160   32.5470   47.7200 N   0  0  0  0  0  0  0  0  0  0  0  0
   38.4780   31.3930   47.1490 C   0  0  0  0  0  0  0  0  0  0  0  0
   37.9630   30.4080   47.9030 N   0  0  0  0  0  0  0  0  0  0  0  0
   38.0040   31.9480   50.9020 H   0  0  0  0  0  0  0  0  0  0  0  0
   38.9480   33.7370   49.4890 H   0  0  0  0  0  0  0  0  0  0  0  0
   38.5930   31.1870   46.0930 H   0  0  0  0  0  0  0  0  0  0  0  0
  1 20  1  0  0  0  0
  1  2  2  0  0  0  0
  2  6  1  0  0  0  0
  3  7  1  0  0  0  0
  3  2  1  0  0  0  0
  4  3  2  0  0  0  0
  5  4  1  0  0  0  0
  5  1  1  0  0  0  0
  8  9  1  0  0  0  0
  9 10  2  0  0  0  0
  9  4  1  0  0  0  0
 10 11  1  0  0  0  0
 12 10  1  0  0  0  0
 13 12  1  0  0  0  0
 13 14  1  0  0  0  0
 15 13  1  0  0  0  0
 16 18  1  0  0  0  0
 16 15  2  0  0  0  0
 17 16  1  0  0  0  0
 18 12  2  0  0  0  0
 19 18  1  0  0  0  0
 19  8  2  0  0  0  0
 20 21  2  0  0  0  0
 22 23  1  0  0  0  0
 22 20  1  0  0  0  0
 23 28  1  0  0  0  0
 24 29  1  0  0  0  0
 24 23  2  0  0  0  0
 25 24  1  0  0  0  0
 26 25  2  0  0  0  0
 26 27  1  0  0  0  0
 27 22  2  0  0  0  0
 30 26  1  0  0  0  0
M  END
>  <minimizedAffinity>
-5.85594463

>  <minimizedRMSD>
1.95860231

$$$$
