
 OpenBabel03272506263D

 45 49  0  0  0  0  0  0  0  0999 V2000
   35.0150   30.2520   47.7420 S   0  0  0  0  0  0  0  0  0  0  0  0
   37.2490   30.5010   49.1980 C   0  0  0  0  0  0  0  0  0  0  0  0
   37.9730   30.3490   50.3620 C   0  0  0  0  0  0  0  0  0  0  0  0
   37.4420   29.8150   51.5430 C   0  0  0  0  0  0  0  0  0  0  0  0
   36.0890   29.4090   51.5380 C   0  0  0  0  0  0  0  0  0  0  0  0
   35.3960   29.5700   50.3720 C   0  0  0  0  0  0  0  0  0  0  0  0
   35.9180   30.0890   49.2250 C   0  0  0  0  0  0  0  0  0  0  0  0
   39.0250   30.6590   50.3930 H   0  0  0  0  0  0  0  0  0  0  0  0
   38.1220   29.7460   52.4060 H   0  0  0  0  0  0  0  0  0  0  0  0
   35.8240   29.0240   52.5010 H   0  0  0  0  0  0  0  0  0  0  0  0
   34.4160   29.2190   50.5980 H   0  0  0  0  0  0  0  0  0  0  0  0
   38.0720   30.2980   46.9330 C   0  0  0  0  0  0  0  0  0  0  0  0
   37.9450   31.0890   48.0820 C   0  0  0  0  0  0  0  0  0  0  0  0
   38.4950   32.3770   48.0650 C   0  0  0  0  0  0  0  0  0  0  0  0
   39.1260   32.8020   46.9400 N   0  0  0  0  0  0  0  0  0  0  0  0
   39.2360   32.0100   45.8330 C   0  0  0  0  0  0  0  0  0  0  0  0
   38.7080   30.7610   45.8340 N   0  0  0  0  0  0  0  0  0  0  0  0
   37.6580   29.3020   46.9180 H   0  0  0  0  0  0  0  0  0  0  0  0
   39.7530   32.4140   44.9680 H   0  0  0  0  0  0  0  0  0  0  0  0
   38.4390   33.3270   49.2100 C   0  0  0  0  0  0  0  0  0  0  0  0
   38.9600   34.5720   48.8080 F   0  0  0  0  0  0  0  0  0  0  0  0
   37.2190   33.5290   49.7500 F   0  0  0  0  0  0  0  0  0  0  0  0
   39.3170   32.9120   50.2080 F   0  0  0  0  0  0  0  0  0  0  0  0
   32.3980   30.8110   46.1590 Cl  0  0  0  0  0  0  0  0  0  0  0  0
   32.8120   29.1940   46.6570 C   0  0  0  0  0  0  0  0  0  0  0  0
   33.9560   28.8820   47.3660 C   0  0  0  0  0  0  0  0  0  0  0  0
   34.2430   27.5980   47.7430 C   0  0  0  0  0  0  0  0  0  0  0  0
   33.3310   26.5970   47.3830 C   0  0  0  0  0  0  0  0  0  0  0  0
   32.1790   26.8970   46.6730 C   0  0  0  0  0  0  0  0  0  0  0  0
   31.9040   28.1990   46.3000 C   0  0  0  0  0  0  0  0  0  0  0  0
   35.0660   27.2570   48.3100 H   0  0  0  0  0  0  0  0  0  0  0  0
   33.4850   25.5590   47.6430 H   0  0  0  0  0  0  0  0  0  0  0  0
   31.4940   26.0940   46.4110 H   0  0  0  0  0  0  0  0  0  0  0  0
   30.5140   28.9820   44.2840 C   0  0  0  0  0  0  0  0  0  0  0  0
   30.6780   28.4680   45.5530 C   0  0  0  0  0  0  0  0  0  0  0  0
   29.5210   28.1410   46.2690 C   0  0  0  0  0  0  0  0  0  0  0  0
   29.5370   27.7250   47.2890 H   0  0  0  0  0  0  0  0  0  0  0  0
   28.2570   28.3120   45.7590 C   0  0  0  0  0  0  0  0  0  0  0  0
   27.0130   28.0940   46.2010 N   0  0  0  0  0  0  0  0  0  0  0  0
   26.7510   27.6970   47.1520 H   0  0  0  0  0  0  0  0  0  0  0  0
   26.1190   28.4360   45.2960 N   0  0  0  0  0  0  0  0  0  0  0  0
   26.7690   28.9000   44.2110 C   0  0  0  0  0  0  0  0  0  0  0  0
   26.4000   29.2810   43.2510 H   0  0  0  0  0  0  0  0  0  0  0  0
   28.1150   28.8190   44.5070 C   0  0  0  0  0  0  0  0  0  0  0  0
   29.2430   29.1490   43.7830 C   0  0  0  0  0  0  0  0  0  0  0  0
  1  7  1  0  0  0  0
  2  7  2  0  0  0  0
  2  3  1  0  0  0  0
  3  8  1  0  0  0  0
  3  4  2  0  0  0  0
  4  9  1  0  0  0  0
  5  4  1  0  0  0  0
  5 10  1  0  0  0  0
  6 11  1  0  0  0  0
  6  5  2  0  0  0  0
  7  6  1  0  0  0  0
 12 13  1  0  0  0  0
 13  2  1  0  0  0  0
 14 13  2  0  0  0  0
 14 20  1  0  0  0  0
 15 14  1  0  0  0  0
 16 17  1  0  0  0  0
 16 15  2  0  0  0  0
 17 12  2  0  0  0  0
 18 12  1  0  0  0  0
 19 16  1  0  0  0  0
 20 22  1  0  0  0  0
 20 23  1  0  0  0  0
 21 20  1  0  0  0  0
 24 25  1  0  0  0  0
 25 26  1  0  0  0  0
 26  1  1  0  0  0  0
 26 27  2  0  0  0  0
 27 31  1  0  0  0  0
 28 32  1  0  0  0  0
 28 27  1  0  0  0  0
 29 28  2  0  0  0  0
 30 25  2  0  0  0  0
 30 29  1  0  0  0  0
 33 29  1  0  0  0  0
 34 35  1  0  0  0  0
 35 36  2  0  0  0  0
 35 30  1  0  0  0  0
 36 37  1  0  0  0  0
 38 39  1  0  0  0  0
 38 36  1  0  0  0  0
 39 40  1  0  0  0  0
 41 39  1  0  0  0  0
 42 44  1  0  0  0  0
 42 41  2  0  0  0  0
 43 42  1  0  0  0  0
 44 38  2  0  0  0  0
 45 34  2  0  0  0  0
 45 44  1  0  0  0  0
M  END
>  <minimizedAffinity>
-7.85298014

>  <minimizedRMSD>
9.1485033

$$$$
