
 OpenBabel03262523513D

 39 42  0  0  1  0  0  0  0  0999 V2000
   35.7700   29.9730   48.7920 N   0  0  0  0  0  0  0  0  0  0  0  0
   35.2640   30.9650   49.6770 C   0  0  0  0  0  0  0  0  0  0  0  0
   36.3440   31.6890   50.3890 C   0  0  0  0  0  0  0  0  0  0  0  0
   37.3100   30.6580   50.9540 C   0  0  0  0  0  0  0  0  0  0  0  0
   38.0580   30.1430   49.7690 C   0  0  0  0  0  0  0  0  0  0  0  0
   37.1820   30.0010   48.5900 C   0  0  2  0  0  0  0  0  0  0  0  0
   34.6930   30.3990   50.4730 H   0  0  0  0  0  0  0  0  0  0  0  0
   34.4900   31.6230   49.2320 H   0  0  0  0  0  0  0  0  0  0  0  0
   35.8630   32.1420   51.3080 H   0  0  0  0  0  0  0  0  0  0  0  0
   36.8380   32.5070   49.8850 H   0  0  0  0  0  0  0  0  0  0  0  0
   36.6720   29.8690   51.4310 H   0  0  0  0  0  0  0  0  0  0  0  0
   37.9400   31.0710   51.7500 H   0  0  0  0  0  0  0  0  0  0  0  0
   38.6350   29.2760   50.0890 H   0  0  0  0  0  0  0  0  0  0  0  0
   38.8290   30.9260   49.5120 H   0  0  0  0  0  0  0  0  0  0  0  0
   37.3740   28.9200   48.2640 H   0  0  0  0  0  0  0  0  0  0  0  0
   37.0910   30.5720   46.1210 C   0  0  0  0  0  0  0  0  0  0  0  0
   37.6260   30.7510   47.3790 C   0  0  0  0  0  0  0  0  0  0  0  0
   38.6370   31.7210   47.4290 C   0  0  0  0  0  0  0  0  0  0  0  0
   39.0870   31.8920   48.4190 H   0  0  0  0  0  0  0  0  0  0  0  0
   39.0710   32.4380   46.3310 C   0  0  0  0  0  0  0  0  0  0  0  0
   40.0100   33.3910   46.1860 N   0  0  0  0  0  0  0  0  0  0  0  0
   40.6140   33.7710   46.9490 H   0  0  0  0  0  0  0  0  0  0  0  0
   40.0250   33.7480   44.9110 N   0  0  0  0  0  0  0  0  0  0  0  0
   39.1060   33.0410   44.2250 C   0  0  0  0  0  0  0  0  0  0  0  0
   38.8350   33.0580   43.1830 H   0  0  0  0  0  0  0  0  0  0  0  0
   38.4940   32.2050   45.1160 C   0  0  0  0  0  0  0  0  0  0  0  0
   37.4930   31.2640   44.9980 C   0  0  0  0  0  0  0  0  0  0  0  0
   35.1830   28.6910   48.9160 C   0  0  0  0  0  0  0  0  0  0  0  0
   35.9600   27.9120   48.9520 H   0  0  0  0  0  0  0  0  0  0  0  0
   34.5960   28.6720   49.8730 H   0  0  0  0  0  0  0  0  0  0  0  0
   34.2750   28.3890   47.7980 C   0  0  0  0  0  0  0  0  0  0  0  0
   33.7520   29.4620   47.0940 C   0  0  0  0  0  0  0  0  0  0  0  0
   32.8750   29.2530   46.0100 C   0  0  0  0  0  0  0  0  0  0  0  0
   32.5850   27.9500   45.7100 N   0  0  0  0  0  0  0  0  0  0  0  0
   33.1010   26.9290   46.4020 C   0  0  0  0  0  0  0  0  0  0  0  0
   33.9250   27.1550   47.4190 N   0  0  0  0  0  0  0  0  0  0  0  0
   33.9970   30.4920   47.3510 H   0  0  0  0  0  0  0  0  0  0  0  0
   32.4780   30.1060   45.4750 H   0  0  0  0  0  0  0  0  0  0  0  0
   32.8040   25.9350   46.0780 H   0  0  0  0  0  0  0  0  0  0  0  0
  1 28  1  0  0  0  0
  1  2  1  0  0  0  0
  2  3  1  0  0  0  0
  2  7  1  0  0  0  0
  3  4  1  0  0  0  0
  3  9  1  0  0  0  0
  4 11  1  0  0  0  0
  4 12  1  0  0  0  0
  5 13  1  0  0  0  0
  5  4  1  0  0  0  0
  6 15  1  6  0  0  0
  6  1  1  0  0  0  0
  6  5  1  0  0  0  0
  8  2  1  0  0  0  0
 10  3  1  0  0  0  0
 14  5  1  0  0  0  0
 16 17  1  0  0  0  0
 17 18  2  0  0  0  0
 17  6  1  0  0  0  0
 18 19  1  0  0  0  0
 20 18  1  0  0  0  0
 21 20  1  0  0  0  0
 21 22  1  0  0  0  0
 23 21  1  0  0  0  0
 24 23  2  0  0  0  0
 24 26  1  0  0  0  0
 25 24  1  0  0  0  0
 26 20  2  0  0  0  0
 27 26  1  0  0  0  0
 27 16  2  0  0  0  0
 28 29  1  0  0  0  0
 28 30  1  0  0  0  0
 31 28  1  0  0  0  0
 32 37  1  0  0  0  0
 32 31  2  0  0  0  0
 33 32  1  0  0  0  0
 34 33  2  0  0  0  0
 34 35  1  0  0  0  0
 35 36  2  0  0  0  0
 36 31  1  0  0  0  0
 38 33  1  0  0  0  0
 39 35  1  0  0  0  0
M  END
>  <minimizedAffinity>
-6.27473783

>  <minimizedRMSD>
1.06519735

$$$$
