
 OpenBabel03272508113D

 37 40  0  0  0  0  0  0  0  0999 V2000
   36.7070   29.4300   44.0480 Cl  0  0  0  0  0  0  0  0  0  0  0  0
   38.3710   29.8160   43.5500 C   0  0  0  0  0  0  0  0  0  0  0  0
   39.3350   30.3160   44.4070 C   0  0  0  0  0  0  0  0  0  0  0  0
   40.5940   30.5740   43.8870 C   0  0  0  0  0  0  0  0  0  0  0  0
   40.8700   30.3420   42.5650 C   0  0  0  0  0  0  0  0  0  0  0  0
   39.9250   29.8480   41.7040 C   0  0  0  0  0  0  0  0  0  0  0  0
   38.6760   29.5870   42.2030 C   0  0  0  0  0  0  0  0  0  0  0  0
   41.2880   30.9610   44.6180 H   0  0  0  0  0  0  0  0  0  0  0  0
   41.8730   30.5660   42.2260 H   0  0  0  0  0  0  0  0  0  0  0  0
   40.2010   29.6850   40.6690 H   0  0  0  0  0  0  0  0  0  0  0  0
   36.9910   30.0200   40.5160 C   0  0  0  0  0  3  0  0  0  0  0  0
   37.7030   29.0600   41.2450 C   0  0  0  0  0  0  0  0  0  0  0  0
   37.3980   27.7440   40.9680 C   0  0  0  0  0  0  0  0  0  0  0  0
   37.9650   27.0320   41.5470 H   0  0  0  0  0  0  0  0  0  0  0  0
   36.4420   27.4500   40.0210 C   0  0  0  0  0  0  0  0  0  0  0  0
   35.9920   26.2540   39.5970 N   0  0  0  0  0  0  0  0  0  0  0  0
   36.3210   25.3230   39.9440 H   0  0  0  0  0  0  0  0  0  0  0  0
   35.0760   26.4340   38.6810 N   0  0  0  0  0  0  0  0  0  0  0  0
   34.8840   27.7630   38.4630 C   0  0  0  0  0  0  0  0  0  0  0  0
   34.2010   28.2440   37.7720 H   0  0  0  0  0  0  0  0  0  0  0  0
   35.7560   28.4160   39.3180 C   0  0  0  0  0  0  0  0  0  0  0  0
   36.0300   29.7430   39.5630 C   0  0  0  0  0  3  0  0  0  0  0  0
   38.8720   30.4780   45.6770 O   0  0  0  0  0  0  0  0  0  0  0  0
   39.4430   32.5410   47.1270 O   0  0  0  0  0  0  0  0  0  0  0  0
   38.3090   31.8570   46.4460 P   0  0  1  0  0  0  0  0  0  0  0  0
   37.7100   32.8440   45.1820 O   0  0  0  0  0  0  0  0  0  0  0  0
   38.4650   33.2110   44.6590 H   0  0  0  0  0  0  0  0  0  0  0  0
   37.0210   31.4500   47.4770 O   0  0  0  0  0  0  0  0  0  0  0  0
   37.6120   30.5210   51.0010 C   0  0  0  0  0  0  0  0  0  0  0  0
   37.7020   31.3100   49.8530 C   0  0  0  0  0  0  0  0  0  0  0  0
   37.0770   30.8740   48.6950 C   0  0  0  0  0  0  0  0  0  0  0  0
   36.3980   29.6760   48.7470 N   0  0  0  0  0  0  0  0  0  0  0  0
   36.3380   28.9470   49.8790 C   0  0  0  0  0  0  0  0  0  0  0  0
   36.9420   29.3680   50.9990 N   0  0  0  0  0  0  0  0  0  0  0  0
   38.1420   30.9690   51.8430 H   0  0  0  0  0  0  0  0  0  0  0  0
   38.2120   32.2500   49.7440 H   0  0  0  0  0  0  0  0  0  0  0  0
   35.8040   28.0060   49.9150 H   0  0  0  0  0  0  0  0  0  0  0  0
  2  1  1  0  0  0  0
  2  3  1  0  0  0  0
  3 23  1  0  0  0  0
  4  3  2  0  0  0  0
  4  8  1  0  0  0  0
  5  4  1  0  0  0  0
  6  7  1  0  0  0  0
  6  5  2  0  0  0  0
  7  2  2  0  0  0  0
  9  5  1  0  0  0  0
 10  6  1  0  0  0  0
 11 12  1  0  0  0  0
 12  7  1  0  0  0  0
 13 12  2  0  0  0  0
 13 14  1  0  0  0  0
 15 13  1  0  0  0  0
 16 17  1  0  0  0  0
 16 15  1  0  0  0  0
 18 16  1  0  0  0  0
 19 18  2  0  0  0  0
 19 21  1  0  0  0  0
 20 19  1  0  0  0  0
 21 22  1  0  0  0  0
 21 15  2  0  0  0  0
 22 11  2  0  0  0  0
 23 25  1  0  0  0  0
 25 24  2  1  0  0  0
 25 28  1  0  0  0  0
 26 25  1  0  0  0  0
 27 26  1  0  0  0  0
 28 31  1  0  0  0  0
 29 35  1  0  0  0  0
 30 29  2  0  0  0  0
 31 32  2  0  0  0  0
 31 30  1  0  0  0  0
 32 33  1  0  0  0  0
 33 37  1  0  0  0  0
 33 34  2  0  0  0  0
 34 29  1  0  0  0  0
 36 30  1  0  0  0  0
M  END
>  <minimizedAffinity>
-4.81604242

>  <minimizedRMSD>
0.677914739

$$$$
