
     RDKit          3D

 39 42  0  0  0  0  0  0  0  0999 V2000
   39.4518   32.4739   47.1010 O   0  0  0  0  0  0  0  0  0  0  0  0
   38.3093   31.8188   46.4059 P   0  0  2  0  0  0  0  0  0  0  0  0
   37.7174   32.8454   45.1698 O   0  0  0  0  0  0  0  0  0  0  0  0
   37.0187   31.3992   47.4303 O   0  0  0  0  0  0  0  0  0  0  0  0
   37.6100   30.5321   50.9695 C   0  0  0  0  0  0  0  0  0  0  0  0
   37.6996   31.3003   49.8078 C   0  0  0  0  0  0  0  0  0  0  0  0
   37.0746   30.8447   48.6566 C   0  0  0  0  0  0  0  0  0  0  0  0
   36.3955   29.6480   48.7301 N   0  0  0  0  0  0  0  0  0  0  0  0
   36.3352   28.9385   49.8749 C   0  0  0  0  0  0  0  0  0  0  0  0
   36.9393   29.3790   50.9874 N   0  0  0  0  0  0  0  0  0  0  0  0
   38.8545   30.4548   45.5998 O   0  0  0  0  0  0  0  0  0  0  0  0
   36.6188   29.4491   44.0430 Cl  0  0  0  0  0  0  0  0  0  0  0  0
   38.2636   29.8322   43.4842 C   0  0  0  0  0  0  0  0  0  0  0  0
   39.2660   30.3105   44.3104 C   0  0  0  0  0  0  0  0  0  0  0  0
   40.5043   30.5693   43.7436 C   0  0  0  0  0  0  0  0  0  0  0  0
   40.7251   30.3572   42.4081 C   0  0  0  0  0  0  0  0  0  0  0  0
   39.7434   29.8844   41.5778 C   0  0  0  0  0  0  0  0  0  0  0  0
   38.5130   29.6234   42.1228 C   0  0  0  0  0  0  0  0  0  0  0  0
   38.4751   33.2181   44.6536 H   0  0  0  0  0  0  0  0  0  0  0  0
   38.1397   30.9936   51.8026 H   0  0  0  0  0  0  0  0  0  0  0  0
   38.2106   32.2379   49.6825 H   0  0  0  0  0  0  0  0  0  0  0  0
   35.8000   27.9987   49.9266 H   0  0  0  0  0  0  0  0  0  0  0  0
   41.2296   30.9385   44.4521 H   0  0  0  0  0  0  0  0  0  0  0  0
   41.7146   30.5800   42.0316 H   0  0  0  0  0  0  0  0  0  0  0  0
   39.9747   29.7357   40.5296 H   0  0  0  0  0  0  0  0  0  0  0  0
   36.1791   29.1544   41.6649 C   0  0  0  0  0  0  0  0  0  0  0  0
   37.4978   29.1191   41.1962 C   0  0  0  0  0  0  0  0  0  0  0  0
   37.6726   28.6159   39.9239 C   0  0  0  0  0  0  0  0  0  0  0  0
   38.6998   28.6039   39.5950 H   0  0  0  0  0  0  0  0  0  0  0  0
   36.5787   28.1880   39.2035 C   0  0  0  0  0  0  0  0  0  0  0  0
   36.5183   27.6694   37.9624 N   0  0  0  0  0  0  0  0  0  0  0  0
   37.3356   27.5070   37.3310 H   0  0  0  0  0  0  0  0  0  0  0  0
   35.2724   27.3983   37.6667 N   0  0  0  0  0  0  0  0  0  0  0  0
   34.4590   27.7290   38.7060 C   0  0  0  0  0  0  0  0  0  0  0  0
   33.3822   27.6304   38.7795 H   0  0  0  0  0  0  0  0  0  0  0  0
   35.2917   28.2346   39.6909 C   0  0  0  0  0  0  0  0  0  0  0  0
   35.0724   28.7300   40.9567 C   0  0  0  0  0  0  0  0  0  0  0  0
   35.9633   29.5425   42.6697 H   0  0  0  0  0  0  0  0  0  0  0  0
   34.0895   28.7846   41.3747 H   0  0  0  0  0  0  0  0  0  0  0  0
  2  1  2  0
  2  4  1  1
  3  2  1  0
  4  7  1  0
  5 10  2  0
  6  5  1  0
  7  8  1  0
  7  6  2  0
  8  9  2  0
  9 10  1  0
 11  2  1  0
 13 12  1  0
 13 14  2  0
 14 11  1  0
 15 14  1  0
 16 15  2  0
 17 18  2  0
 17 16  1  0
 18 13  1  0
  3 19  1  0
  5 20  1  0
  6 21  1  0
  9 22  1  0
 15 23  1  0
 16 24  1  0
 17 25  1  0
 26 27  2  0
 27 28  1  0
 28 29  1  0
 28 30  2  0
 30 31  1  0
 31 32  1  0
 31 33  1  0
 33 34  2  0
 34 35  1  0
 34 36  1  0
 36 37  2  0
 37 26  1  0
 36 30  1  0
 26 38  1  0
 37 39  1  0
 18 27  1  0
M  ISO  8  19   3  20  14  21  14  22  14  23  14  24  14  25  14  29  16
M  ISO  2  32   5  35  15
M  END
>  <DihAtoms>  (1) 
16,17,26,25

>  <DihDeg>  (1) 
-45.401695524976255

$$$$
