
     RDKit          3D

 39 42  0  0  0  0  0  0  0  0999 V2000
   39.4518   32.4739   47.1010 O   0  0  0  0  0  0  0  0  0  0  0  0
   38.3093   31.8188   46.4059 P   0  0  2  0  0  0  0  0  0  0  0  0
   37.7174   32.8454   45.1698 O   0  0  0  0  0  0  0  0  0  0  0  0
   37.0187   31.3992   47.4303 O   0  0  0  0  0  0  0  0  0  0  0  0
   37.6100   30.5321   50.9695 C   0  0  0  0  0  0  0  0  0  0  0  0
   37.6996   31.3003   49.8078 C   0  0  0  0  0  0  0  0  0  0  0  0
   37.0746   30.8447   48.6566 C   0  0  0  0  0  0  0  0  0  0  0  0
   36.3955   29.6480   48.7301 N   0  0  0  0  0  0  0  0  0  0  0  0
   36.3352   28.9385   49.8749 C   0  0  0  0  0  0  0  0  0  0  0  0
   36.9393   29.3790   50.9874 N   0  0  0  0  0  0  0  0  0  0  0  0
   38.8545   30.4548   45.5998 O   0  0  0  0  0  0  0  0  0  0  0  0
   36.6188   29.4491   44.0430 Cl  0  0  0  0  0  0  0  0  0  0  0  0
   38.2636   29.8322   43.4842 C   0  0  0  0  0  0  0  0  0  0  0  0
   39.2660   30.3105   44.3104 C   0  0  0  0  0  0  0  0  0  0  0  0
   40.5043   30.5693   43.7436 C   0  0  0  0  0  0  0  0  0  0  0  0
   40.7251   30.3572   42.4081 C   0  0  0  0  0  0  0  0  0  0  0  0
   39.7434   29.8844   41.5778 C   0  0  0  0  0  0  0  0  0  0  0  0
   38.5130   29.6234   42.1228 C   0  0  0  0  0  0  0  0  0  0  0  0
   38.4751   33.2181   44.6536 H   0  0  0  0  0  0  0  0  0  0  0  0
   38.1397   30.9936   51.8026 H   0  0  0  0  0  0  0  0  0  0  0  0
   38.2106   32.2379   49.6825 H   0  0  0  0  0  0  0  0  0  0  0  0
   35.8000   27.9987   49.9266 H   0  0  0  0  0  0  0  0  0  0  0  0
   41.2296   30.9385   44.4521 H   0  0  0  0  0  0  0  0  0  0  0  0
   41.7146   30.5800   42.0316 H   0  0  0  0  0  0  0  0  0  0  0  0
   39.9747   29.7357   40.5296 H   0  0  0  0  0  0  0  0  0  0  0  0
   37.6150   29.5580   39.8720 C   0  0  0  0  0  0  0  0  0  0  0  0
   37.4978   29.1191   41.1962 C   0  0  0  0  0  0  0  0  0  0  0  0
   36.4440   28.2687   41.4588 C   0  0  0  0  0  0  0  0  0  0  0  0
   36.3843   27.9503   42.4877 H   0  0  0  0  0  0  0  0  0  0  0  0
   35.5895   27.9069   40.4403 C   0  0  0  0  0  0  0  0  0  0  0  0
   34.5116   27.1006   40.4706 N   0  0  0  0  0  0  0  0  0  0  0  0
   34.1464   26.6054   41.3158 H   0  0  0  0  0  0  0  0  0  0  0  0
   33.9886   27.0319   39.2727 N   0  0  0  0  0  0  0  0  0  0  0  0
   34.7044   27.7937   38.4019 C   0  0  0  0  0  0  0  0  0  0  0  0
   34.5348   27.9497   37.3429 H   0  0  0  0  0  0  0  0  0  0  0  0
   35.7295   28.3549   39.1458 C   0  0  0  0  0  0  0  0  0  0  0  0
   36.7682   29.2054   38.8400 C   0  0  0  0  0  0  0  0  0  0  0  0
   38.4304   30.2373   39.5885 H   0  0  0  0  0  0  0  0  0  0  0  0
   36.9145   29.5775   37.8481 H   0  0  0  0  0  0  0  0  0  0  0  0
  2  1  2  0
  2  4  1  1
  3  2  1  0
  4  7  1  0
  5 10  2  0
  6  5  1  0
  7  8  1  0
  7  6  2  0
  8  9  2  0
  9 10  1  0
 11  2  1  0
 13 12  1  0
 13 14  2  0
 14 11  1  0
 15 14  1  0
 16 15  2  0
 17 18  2  0
 17 16  1  0
 18 13  1  0
  3 19  1  0
  5 20  1  0
  6 21  1  0
  9 22  1  0
 15 23  1  0
 16 24  1  0
 17 25  1  0
 26 27  2  0
 27 28  1  0
 28 29  1  0
 28 30  2  0
 30 31  1  0
 31 32  1  0
 31 33  1  0
 33 34  2  0
 34 35  1  0
 34 36  1  0
 36 37  2  0
 37 26  1  0
 36 30  1  0
 26 38  1  0
 37 39  1  0
 18 27  1  0
M  ISO  8  19   3  20  14  21  14  22  14  23  14  24  14  25  14  29  16
M  ISO  2  32   5  35  15
M  END
>  <DihAtoms>  (1) 
16,17,26,25

>  <DihDeg>  (1) 
-45.401695524976255

$$$$
