
 OpenBabel03262521423D

 46 51  0  0  0  0  0  0  0  0999 V2000
   38.6570   24.6280   35.8300 C   0  0  0  0  0  0  0  0  0  0  0  0
   37.5640   24.4830   36.6370 N   0  0  0  0  0  0  0  0  0  0  0  0
   37.6130   23.6260   37.6850 C   0  0  0  0  0  0  0  0  0  0  0  0
   38.6990   22.8930   37.9840 N   0  0  0  0  0  0  0  0  0  0  0  0
   39.7940   22.9990   37.2270 C   0  0  0  0  0  0  0  0  0  0  0  0
   40.9010   22.2360   37.5320 C   0  0  0  0  0  0  0  0  0  0  0  0
   42.0340   22.3290   36.7500 C   0  0  0  0  0  0  0  0  0  0  0  0
   42.0510   23.2000   35.6520 C   0  0  0  0  0  0  0  0  0  0  0  0
   40.9040   23.9430   35.3970 C   0  0  0  0  0  0  0  0  0  0  0  0
   39.7760   23.8660   36.1510 C   0  0  0  0  0  0  0  0  0  0  0  0
   36.6950   23.5830   38.2630 H   0  0  0  0  0  0  0  0  0  0  0  0
   40.8390   21.5810   38.3880 H   0  0  0  0  0  0  0  0  0  0  0  0
   42.8520   21.6970   37.0600 H   0  0  0  0  0  0  0  0  0  0  0  0
   42.9880   23.1830   35.1220 H   0  0  0  0  0  0  0  0  0  0  0  0
   41.0640   24.1470   33.0580 C   0  0  0  0  0  3  0  0  0  0  0  0
   41.1760   24.8290   34.2750 C   0  0  0  0  0  0  0  0  0  0  0  0
   41.5670   26.1780   34.2210 C   0  0  0  0  0  0  0  0  0  0  0  0
   41.6220   26.5880   35.2200 H   0  0  0  0  0  0  0  0  0  0  0  0
   41.8190   26.7690   33.0030 C   0  0  0  0  0  0  0  0  0  0  0  0
   42.1980   28.0460   32.8080 N   0  0  0  0  0  0  0  0  0  0  0  0
   42.3650   28.7980   33.5160 H   0  0  0  0  0  0  0  0  0  0  0  0
   42.3270   28.1920   31.5010 N   0  0  0  0  0  0  0  0  0  0  0  0
   42.0350   27.0200   30.8630 C   0  0  0  0  0  0  0  0  0  0  0  0
   42.0450   26.8050   29.7930 H   0  0  0  0  0  0  0  0  0  0  0  0
   41.7010   26.0790   31.8150 C   0  0  0  0  0  0  0  0  0  0  0  0
   41.3200   24.7570   31.8460 C   0  0  0  0  0  3  0  0  0  0  0  0
   38.7470   25.6650   34.4140 S   0  0  0  0  0  0  0  0  0  0  0  0
   38.0330   22.9610   33.5680 F   0  0  0  0  0  0  0  0  0  0  0  0
   37.3390   23.8990   32.8560 C   0  0  0  0  0  0  0  0  0  0  0  0
   36.4290   23.5330   31.8730 C   0  0  0  0  0  0  0  0  0  0  0  0
   35.7440   24.5310   31.1720 C   0  0  0  0  0  0  0  0  0  0  0  0
   35.9640   25.8790   31.4510 C   0  0  0  0  0  0  0  0  0  0  0  0
   36.8820   26.1720   32.4410 C   0  0  0  0  0  0  0  0  0  0  0  0
   37.5730   25.2180   33.1480 C   0  0  0  0  0  0  0  0  0  0  0  0
   35.0320   24.2450   30.4030 H   0  0  0  0  0  0  0  0  0  0  0  0
   35.4220   26.6310   30.8960 H   0  0  0  0  0  0  0  0  0  0  0  0
   37.0070   27.2200   32.6100 H   0  0  0  0  0  0  0  0  0  0  0  0
   35.1700   21.5750   32.2790 C   0  0  0  0  0  0  0  0  0  0  0  0
   36.2530   22.1420   31.6390 C   0  0  0  0  0  0  0  0  0  0  0  0
   37.0330   21.2990   30.8510 C   0  0  0  0  0  0  0  0  0  0  0  0
   36.6890   19.9800   30.7570 N   0  0  0  0  0  0  0  0  0  0  0  0
   35.6390   19.4850   31.3920 C   0  0  0  0  0  0  0  0  0  0  0  0
   34.8640   20.2580   32.1580 N   0  0  0  0  0  0  0  0  0  0  0  0
   34.4910   22.1260   32.9170 H   0  0  0  0  0  0  0  0  0  0  0  0
   37.8680   21.7970   30.3730 H   0  0  0  0  0  0  0  0  0  0  0  0
   35.4830   18.4190   31.2280 H   0  0  0  0  0  0  0  0  0  0  0  0
  1 10  2  0  0  0  0
  1  2  1  0  0  0  0
  2  3  2  0  0  0  0
  3  4  1  0  0  0  0
  3 11  1  0  0  0  0
  5  6  1  0  0  0  0
  5  4  2  0  0  0  0
  6 12  1  0  0  0  0
  7 13  1  0  0  0  0
  7  6  2  0  0  0  0
  8  7  1  0  0  0  0
  9  8  2  0  0  0  0
  9 10  1  0  0  0  0
 10  5  1  0  0  0  0
 14  8  1  0  0  0  0
 15 16  1  0  0  0  0
 16  9  1  0  0  0  0
 17 16  2  0  0  0  0
 17 18  1  0  0  0  0
 19 17  1  0  0  0  0
 20 19  1  0  0  0  0
 20 21  1  0  0  0  0
 22 20  1  0  0  0  0
 23 22  2  0  0  0  0
 23 25  1  0  0  0  0
 24 23  1  0  0  0  0
 25 26  1  0  0  0  0
 25 19  2  0  0  0  0
 26 15  2  0  0  0  0
 27  1  1  0  0  0  0
 29 34  1  0  0  0  0
 29 28  1  0  0  0  0
 30 29  2  0  0  0  0
 31 32  2  0  0  0  0
 31 30  1  0  0  0  0
 32 33  1  0  0  0  0
 33 37  1  0  0  0  0
 33 34  2  0  0  0  0
 34 27  1  0  0  0  0
 35 31  1  0  0  0  0
 36 32  1  0  0  0  0
 38 44  1  0  0  0  0
 39 30  1  0  0  0  0
 39 38  2  0  0  0  0
 40 39  1  0  0  0  0
 41 40  2  0  0  0  0
 41 42  1  0  0  0  0
 42 43  2  0  0  0  0
 43 38  1  0  0  0  0
 45 40  1  0  0  0  0
 46 42  1  0  0  0  0
M  END
>  <minimizedAffinity>
-7.0233779

$$$$

 OpenBabel03262521423D

 46 51  0  0  0  0  0  0  0  0999 V2000
   37.2440   24.7170   32.8340 C   0  0  0  0  0  0  0  0  0  0  0  0
   36.5620   24.7460   31.6510 N   0  0  0  0  0  0  0  0  0  0  0  0
   35.9630   25.8940   31.2500 C   0  0  0  0  0  0  0  0  0  0  0  0
   36.0010   27.0300   31.9650 N   0  0  0  0  0  0  0  0  0  0  0  0
   36.6550   27.0550   33.1290 C   0  0  0  0  0  0  0  0  0  0  0  0
   36.6810   28.2210   33.8640 C   0  0  0  0  0  0  0  0  0  0  0  0
   37.3440   28.2550   35.0740 C   0  0  0  0  0  0  0  0  0  0  0  0
   37.9890   27.1030   35.5440 C   0  0  0  0  0  0  0  0  0  0  0  0
   37.9270   25.9590   34.7580 C   0  0  0  0  0  0  0  0  0  0  0  0
   37.2780   25.9000   33.5650 C   0  0  0  0  0  0  0  0  0  0  0  0
   35.4480   25.8130   30.2970 H   0  0  0  0  0  0  0  0  0  0  0  0
   36.1710   29.0810   33.4580 H   0  0  0  0  0  0  0  0  0  0  0  0
   37.3130   29.2070   35.5810 H   0  0  0  0  0  0  0  0  0  0  0  0
   38.4690   27.2550   36.4960 H   0  0  0  0  0  0  0  0  0  0  0  0
   38.0300   24.3320   36.4550 C   0  0  0  0  0  3  0  0  0  0  0  0
   38.7270   24.9250   35.3960 C   0  0  0  0  0  0  0  0  0  0  0  0
   40.0420   24.4830   35.1690 C   0  0  0  0  0  0  0  0  0  0  0  0
   40.4720   25.0170   34.3320 H   0  0  0  0  0  0  0  0  0  0  0  0
   40.5850   23.5060   35.9730 C   0  0  0  0  0  0  0  0  0  0  0  0
   41.8250   22.9930   35.8640 N   0  0  0  0  0  0  0  0  0  0  0  0
   42.5780   23.2310   35.1770 H   0  0  0  0  0  0  0  0  0  0  0  0
   41.9310   22.0920   36.8250 N   0  0  0  0  0  0  0  0  0  0  0  0
   40.7710   22.0270   37.5420 C   0  0  0  0  0  0  0  0  0  0  0  0
   40.5320   21.3900   38.3960 H   0  0  0  0  0  0  0  0  0  0  0  0
   39.8790   22.9350   37.0100 C   0  0  0  0  0  0  0  0  0  0  0  0
   38.5900   23.3530   37.2510 C   0  0  0  0  0  3  0  0  0  0  0  0
   38.0430   23.3080   33.5150 S   0  0  0  0  0  0  0  0  0  0  0  0
   38.5440   21.7130   31.1190 F   0  0  0  0  0  0  0  0  0  0  0  0
   37.5880   21.1340   31.9040 C   0  0  0  0  0  0  0  0  0  0  0  0
   36.9790   19.9400   31.5400 C   0  0  0  0  0  0  0  0  0  0  0  0
   36.0050   19.3880   32.3780 C   0  0  0  0  0  0  0  0  0  0  0  0
   35.6440   20.0200   33.5670 C   0  0  0  0  0  0  0  0  0  0  0  0
   36.2890   21.2030   33.8680 C   0  0  0  0  0  0  0  0  0  0  0  0
   37.2490   21.7740   33.0680 C   0  0  0  0  0  0  0  0  0  0  0  0
   35.5290   18.4530   32.0930 H   0  0  0  0  0  0  0  0  0  0  0  0
   34.8890   19.5730   34.1970 H   0  0  0  0  0  0  0  0  0  0  0  0
   35.9720   21.6390   34.7910 H   0  0  0  0  0  0  0  0  0  0  0  0
   38.6600   18.8020   30.3310 C   0  0  0  0  0  0  0  0  0  0  0  0
   37.3930   19.3490   30.3150 C   0  0  0  0  0  0  0  0  0  0  0  0
   36.6800   19.2580   29.1220 C   0  0  0  0  0  0  0  0  0  0  0  0
   37.2650   18.6440   28.0510 N   0  0  0  0  0  0  0  0  0  0  0  0
   38.4840   18.1350   28.1160 C   0  0  0  0  0  0  0  0  0  0  0  0
   39.2020   18.1990   29.2420 N   0  0  0  0  0  0  0  0  0  0  0  0
   39.3090   18.8090   31.1960 H   0  0  0  0  0  0  0  0  0  0  0  0
   35.6930   19.7040   29.1680 H   0  0  0  0  0  0  0  0  0  0  0  0
   38.8240   17.6750   27.1890 H   0  0  0  0  0  0  0  0  0  0  0  0
  1 27  1  0  0  0  0
  1 10  1  0  0  0  0
  2  1  2  0  0  0  0
  3  2  1  0  0  0  0
  3  4  2  0  0  0  0
  4  5  1  0  0  0  0
  5 10  2  0  0  0  0
  5  6  1  0  0  0  0
  6  7  2  0  0  0  0
  7  8  1  0  0  0  0
  7 13  1  0  0  0  0
  8 14  1  0  0  0  0
  9 16  1  0  0  0  0
  9  8  2  0  0  0  0
 10  9  1  0  0  0  0
 11  3  1  0  0  0  0
 12  6  1  0  0  0  0
 15 26  1  0  0  0  0
 16 15  2  0  0  0  0
 17 16  1  0  0  0  0
 17 19  2  0  0  0  0
 18 17  1  0  0  0  0
 19 25  1  0  0  0  0
 20 19  1  0  0  0  0
 20 22  1  0  0  0  0
 21 20  1  0  0  0  0
 22 23  2  0  0  0  0
 23 24  1  0  0  0  0
 25 26  2  0  0  0  0
 25 23  1  0  0  0  0
 28 29  1  0  0  0  0
 29 34  1  0  0  0  0
 30 29  2  0  0  0  0
 30 31  1  0  0  0  0
 31 32  2  0  0  0  0
 32 33  1  0  0  0  0
 32 36  1  0  0  0  0
 33 37  1  0  0  0  0
 34 27  1  0  0  0  0
 34 33  2  0  0  0  0
 35 31  1  0  0  0  0
 38 44  1  0  0  0  0
 39 38  1  0  0  0  0
 39 30  1  0  0  0  0
 40 45  1  0  0  0  0
 40 39  2  0  0  0  0
 41 42  2  0  0  0  0
 41 40  1  0  0  0  0
 42 43  1  0  0  0  0
 43 38  2  0  0  0  0
 46 42  1  0  0  0  0
M  END
>  <minimizedAffinity>
-7.00041056

$$$$

 OpenBabel03262521423D

 46 51  0  0  0  0  0  0  0  0999 V2000
   35.0470   31.9130   35.3280 C   0  0  0  0  0  0  0  0  0  0  0  0
   36.2940   32.3980   35.0530 N   0  0  0  0  0  0  0  0  0  0  0  0
   36.6260   33.6530   35.4390 C   0  0  0  0  0  0  0  0  0  0  0  0
   35.7800   34.4690   36.0910 N   0  0  0  0  0  0  0  0  0  0  0  0
   34.5480   34.0430   36.3840 C   0  0  0  0  0  0  0  0  0  0  0  0
   33.6810   34.8890   37.0420 C   0  0  0  0  0  0  0  0  0  0  0  0
   32.4030   34.4630   37.3400 C   0  0  0  0  0  0  0  0  0  0  0  0
   31.9970   33.1730   36.9720 C   0  0  0  0  0  0  0  0  0  0  0  0
   32.9170   32.3690   36.3110 C   0  0  0  0  0  0  0  0  0  0  0  0
   34.1800   32.7660   36.0040 C   0  0  0  0  0  0  0  0  0  0  0  0
   37.6380   33.9430   35.1750 H   0  0  0  0  0  0  0  0  0  0  0  0
   34.0420   35.8710   37.3050 H   0  0  0  0  0  0  0  0  0  0  0  0
   31.7920   35.1890   37.8550 H   0  0  0  0  0  0  0  0  0  0  0  0
   30.9810   32.9600   37.2580 H   0  0  0  0  0  0  0  0  0  0  0  0
   31.5180   31.0500   34.9540 C   0  0  0  0  0  3  0  0  0  0  0  0
   32.3120   31.0610   36.1060 C   0  0  0  0  0  0  0  0  0  0  0  0
   32.3510   29.8800   36.8680 C   0  0  0  0  0  0  0  0  0  0  0  0
   32.9920   30.0170   37.7280 H   0  0  0  0  0  0  0  0  0  0  0  0
   31.6270   28.7810   36.4650 C   0  0  0  0  0  0  0  0  0  0  0  0
   31.5760   27.5940   37.0980 N   0  0  0  0  0  0  0  0  0  0  0  0
   32.0570   27.2960   37.9770 H   0  0  0  0  0  0  0  0  0  0  0  0
   30.7710   26.8320   36.3770 N   0  0  0  0  0  0  0  0  0  0  0  0
   30.3110   27.5230   35.2930 C   0  0  0  0  0  0  0  0  0  0  0  0
   29.6340   27.1860   34.5060 H   0  0  0  0  0  0  0  0  0  0  0  0
   30.8510   28.7930   35.3260 C   0  0  0  0  0  0  0  0  0  0  0  0
   30.7980   29.9390   34.5650 C   0  0  0  0  0  3  0  0  0  0  0  0
   34.4450   30.3270   34.8670 S   0  0  0  0  0  0  0  0  0  0  0  0
   35.3400   30.9590   32.1590 F   0  0  0  0  0  0  0  0  0  0  0  0
   35.9360   29.8190   32.6210 C   0  0  0  0  0  0  0  0  0  0  0  0
   36.8400   29.1090   31.8410 C   0  0  0  0  0  0  0  0  0  0  0  0
   37.4230   27.9480   32.3600 C   0  0  0  0  0  0  0  0  0  0  0  0
   37.1070   27.5020   33.6420 C   0  0  0  0  0  0  0  0  0  0  0  0
   36.2020   28.2560   34.3620 C   0  0  0  0  0  0  0  0  0  0  0  0
   35.6100   29.4010   33.8840 C   0  0  0  0  0  0  0  0  0  0  0  0
   38.1300   27.3930   31.7500 H   0  0  0  0  0  0  0  0  0  0  0  0
   37.5710   26.6030   34.0200 H   0  0  0  0  0  0  0  0  0  0  0  0
   36.0010   27.8660   35.3370 H   0  0  0  0  0  0  0  0  0  0  0  0
   37.4790   28.6700   29.6090 C   0  0  0  0  0  0  0  0  0  0  0  0
   37.1160   29.6190   30.5430 C   0  0  0  0  0  0  0  0  0  0  0  0
   37.0630   30.9420   30.1120 C   0  0  0  0  0  0  0  0  0  0  0  0
   37.3690   31.2240   28.8100 N   0  0  0  0  0  0  0  0  0  0  0  0
   37.7120   30.2770   27.9520 C   0  0  0  0  0  0  0  0  0  0  0  0
   37.7740   28.9950   28.3240 N   0  0  0  0  0  0  0  0  0  0  0  0
   37.5540   27.6120   29.8220 H   0  0  0  0  0  0  0  0  0  0  0  0
   36.7730   31.6430   30.8860 H   0  0  0  0  0  0  0  0  0  0  0  0
   37.9290   30.6430   26.9500 H   0  0  0  0  0  0  0  0  0  0  0  0
  1 10  1  0  0  0  0
  2  1  2  0  0  0  0
  2  3  1  0  0  0  0
  3  4  2  0  0  0  0
  4  5  1  0  0  0  0
  5  6  1  0  0  0  0
  6 12  1  0  0  0  0
  6  7  2  0  0  0  0
  7 13  1  0  0  0  0
  8 14  1  0  0  0  0
  8  7  1  0  0  0  0
  9  8  2  0  0  0  0
 10  9  1  0  0  0  0
 10  5  2  0  0  0  0
 11  3  1  0  0  0  0
 15 16  1  0  0  0  0
 16  9  1  0  0  0  0
 16 17  2  0  0  0  0
 17 18  1  0  0  0  0
 19 17  1  0  0  0  0
 19 20  1  0  0  0  0
 20 21  1  0  0  0  0
 22 20  1  0  0  0  0
 23 25  1  0  0  0  0
 23 22  2  0  0  0  0
 24 23  1  0  0  0  0
 25 19  2  0  0  0  0
 26 15  2  0  0  0  0
 26 25  1  0  0  0  0
 27  1  1  0  0  0  0
 28 29  1  0  0  0  0
 29 34  1  0  0  0  0
 30 31  1  0  0  0  0
 30 29  2  0  0  0  0
 31 32  2  0  0  0  0
 32 36  1  0  0  0  0
 32 33  1  0  0  0  0
 33 37  1  0  0  0  0
 34 33  2  0  0  0  0
 34 27  1  0  0  0  0
 35 31  1  0  0  0  0
 38 44  1  0  0  0  0
 38 39  1  0  0  0  0
 39 30  1  0  0  0  0
 40 39  2  0  0  0  0
 40 45  1  0  0  0  0
 41 40  1  0  0  0  0
 42 43  1  0  0  0  0
 42 41  2  0  0  0  0
 43 38  2  0  0  0  0
 46 42  1  0  0  0  0
M  END
>  <minimizedAffinity>
-6.76455641

$$$$

 OpenBabel03262521423D

 46 51  0  0  0  0  0  0  0  0999 V2000
   34.8970   32.2470   35.6330 C   0  0  0  0  0  0  0  0  0  0  0  0
   36.1220   32.8180   35.4360 N   0  0  0  0  0  0  0  0  0  0  0  0
   36.3130   34.1220   35.7500 C   0  0  0  0  0  0  0  0  0  0  0  0
   35.3450   34.9050   36.2550 N   0  0  0  0  0  0  0  0  0  0  0  0
   34.1280   34.3950   36.4670 C   0  0  0  0  0  0  0  0  0  0  0  0
   33.1360   35.2060   36.9740 C   0  0  0  0  0  0  0  0  0  0  0  0
   31.8720   34.6920   37.1860 C   0  0  0  0  0  0  0  0  0  0  0  0
   31.6100   33.3490   36.8860 C   0  0  0  0  0  0  0  0  0  0  0  0
   32.6520   32.5830   36.3780 C   0  0  0  0  0  0  0  0  0  0  0  0
   33.9030   33.0660   36.1570 C   0  0  0  0  0  0  0  0  0  0  0  0
   37.3200   34.4800   35.5570 H   0  0  0  0  0  0  0  0  0  0  0  0
   33.3880   36.2320   37.1900 H   0  0  0  0  0  0  0  0  0  0  0  0
   31.1580   35.3970   37.5840 H   0  0  0  0  0  0  0  0  0  0  0  0
   30.5910   33.0680   37.0940 H   0  0  0  0  0  0  0  0  0  0  0  0
   31.5330   31.0450   34.9910 C   0  0  0  0  0  3  0  0  0  0  0  0
   32.1770   31.2160   36.2220 C   0  0  0  0  0  0  0  0  0  0  0  0
   32.2110   30.1080   37.0860 C   0  0  0  0  0  0  0  0  0  0  0  0
   32.7290   30.3670   37.9990 H   0  0  0  0  0  0  0  0  0  0  0  0
   31.6260   28.9220   36.7030 C   0  0  0  0  0  0  0  0  0  0  0  0
   31.5880   27.7890   37.4290 N   0  0  0  0  0  0  0  0  0  0  0  0
   31.9790   27.6050   38.3820 H   0  0  0  0  0  0  0  0  0  0  0  0
   30.9370   26.9060   36.6920 N   0  0  0  0  0  0  0  0  0  0  0  0
   30.5630   27.4670   35.5040 C   0  0  0  0  0  0  0  0  0  0  0  0
   30.0150   27.0100   34.6780 H   0  0  0  0  0  0  0  0  0  0  0  0
   30.9980   28.7760   35.4850 C   0  0  0  0  0  0  0  0  0  0  0  0
   30.9520   29.8480   34.6230 C   0  0  0  0  0  3  0  0  0  0  0  0
   34.4730   30.5860   35.2460 S   0  0  0  0  0  0  0  0  0  0  0  0
   36.1780   28.2720   34.7220 F   0  0  0  0  0  0  0  0  0  0  0  0
   35.8950   28.9460   33.5670 C   0  0  0  0  0  0  0  0  0  0  0  0
   36.3930   28.5230   32.3420 C   0  0  0  0  0  0  0  0  0  0  0  0
   36.0740   29.2480   31.1890 C   0  0  0  0  0  0  0  0  0  0  0  0
   35.2670   30.3820   31.2590 C   0  0  0  0  0  0  0  0  0  0  0  0
   34.8070   30.7470   32.5090 C   0  0  0  0  0  0  0  0  0  0  0  0
   35.1000   30.0590   33.6620 C   0  0  0  0  0  0  0  0  0  0  0  0
   36.4640   28.9160   30.2300 H   0  0  0  0  0  0  0  0  0  0  0  0
   35.0360   30.9250   30.3540 H   0  0  0  0  0  0  0  0  0  0  0  0
   34.1930   31.6220   32.4990 H   0  0  0  0  0  0  0  0  0  0  0  0
   36.5330   26.1710   32.1540 C   0  0  0  0  0  0  0  0  0  0  0  0
   37.2090   27.3590   32.3420 C   0  0  0  0  0  0  0  0  0  0  0  0
   38.5900   27.2800   32.5050 C   0  0  0  0  0  0  0  0  0  0  0  0
   39.1880   26.0520   32.4710 N   0  0  0  0  0  0  0  0  0  0  0  0
   38.4940   24.9410   32.2890 C   0  0  0  0  0  0  0  0  0  0  0  0
   37.1670   24.9720   32.1270 N   0  0  0  0  0  0  0  0  0  0  0  0
   35.4620   26.1030   32.0150 H   0  0  0  0  0  0  0  0  0  0  0  0
   39.0690   28.2420   32.6480 H   0  0  0  0  0  0  0  0  0  0  0  0
   39.0980   24.0340   32.2840 H   0  0  0  0  0  0  0  0  0  0  0  0
  1 10  1  0  0  0  0
  2  1  2  0  0  0  0
  2  3  1  0  0  0  0
  3  4  2  0  0  0  0
  4  5  1  0  0  0  0
  5  6  1  0  0  0  0
  6  7  2  0  0  0  0
  6 12  1  0  0  0  0
  7 13  1  0  0  0  0
  8 14  1  0  0  0  0
  8  7  1  0  0  0  0
  9  8  2  0  0  0  0
 10  9  1  0  0  0  0
 10  5  2  0  0  0  0
 11  3  1  0  0  0  0
 15 16  1  0  0  0  0
 16  9  1  0  0  0  0
 16 17  2  0  0  0  0
 17 18  1  0  0  0  0
 19 17  1  0  0  0  0
 19 20  1  0  0  0  0
 20 21  1  0  0  0  0
 22 20  1  0  0  0  0
 23 22  2  0  0  0  0
 24 23  1  0  0  0  0
 25 23  1  0  0  0  0
 25 19  2  0  0  0  0
 26 15  2  0  0  0  0
 26 25  1  0  0  0  0
 27  1  1  0  0  0  0
 29 34  1  0  0  0  0
 29 28  1  0  0  0  0
 30 39  1  0  0  0  0
 30 29  2  0  0  0  0
 31 32  2  0  0  0  0
 31 30  1  0  0  0  0
 32 33  1  0  0  0  0
 33 34  2  0  0  0  0
 34 27  1  0  0  0  0
 35 31  1  0  0  0  0
 36 32  1  0  0  0  0
 37 33  1  0  0  0  0
 38 39  1  0  0  0  0
 39 40  2  0  0  0  0
 40 45  1  0  0  0  0
 41 40  1  0  0  0  0
 42 41  2  0  0  0  0
 43 38  2  0  0  0  0
 43 42  1  0  0  0  0
 44 38  1  0  0  0  0
 46 42  1  0  0  0  0
M  END
>  <minimizedAffinity>
-6.73949862

$$$$

 OpenBabel03262521423D

 46 51  0  0  0  0  0  0  0  0999 V2000
   32.9730   29.6750   33.5450 C   0  0  0  0  0  0  0  0  0  0  0  0
   32.3110   28.7370   32.8050 N   0  0  0  0  0  0  0  0  0  0  0  0
   31.3040   28.0270   33.3690 C   0  0  0  0  0  0  0  0  0  0  0  0
   30.9110   28.1950   34.6420 N   0  0  0  0  0  0  0  0  0  0  0  0
   31.5260   29.1000   35.4080 C   0  0  0  0  0  0  0  0  0  0  0  0
   31.1260   29.2590   36.7180 C   0  0  0  0  0  0  0  0  0  0  0  0
   31.7620   30.1830   37.5210 C   0  0  0  0  0  0  0  0  0  0  0  0
   32.8100   30.9540   36.9980 C   0  0  0  0  0  0  0  0  0  0  0  0
   33.1660   30.7470   35.6710 C   0  0  0  0  0  0  0  0  0  0  0  0
   32.5570   29.8410   34.8610 C   0  0  0  0  0  0  0  0  0  0  0  0
   30.8420   27.3080   32.6990 H   0  0  0  0  0  0  0  0  0  0  0  0
   30.3140   28.6430   37.0730 H   0  0  0  0  0  0  0  0  0  0  0  0
   31.3850   30.2420   38.5310 H   0  0  0  0  0  0  0  0  0  0  0  0
   33.2240   31.6370   37.7210 H   0  0  0  0  0  0  0  0  0  0  0  0
   35.4390   31.3240   35.8670 C   0  0  0  0  0  3  0  0  0  0  0  0
   34.2060   31.7040   35.3250 C   0  0  0  0  0  0  0  0  0  0  0  0
   34.1650   32.9170   34.6150 C   0  0  0  0  0  0  0  0  0  0  0  0
   33.1630   33.0980   34.2520 H   0  0  0  0  0  0  0  0  0  0  0  0
   35.3100   33.6700   34.4790 C   0  0  0  0  0  0  0  0  0  0  0  0
   35.4100   34.8430   33.8270 N   0  0  0  0  0  0  0  0  0  0  0  0
   34.6680   35.3800   33.3220 H   0  0  0  0  0  0  0  0  0  0  0  0
   36.6730   35.2160   33.9410 N   0  0  0  0  0  0  0  0  0  0  0  0
   37.3750   34.2910   34.6590 C   0  0  0  0  0  0  0  0  0  0  0  0
   38.4320   34.2990   34.9310 H   0  0  0  0  0  0  0  0  0  0  0  0
   36.5140   33.2760   35.0210 C   0  0  0  0  0  0  0  0  0  0  0  0
   36.5760   32.0920   35.7210 C   0  0  0  0  0  3  0  0  0  0  0  0
   34.3200   30.6530   32.9790 S   0  0  0  0  0  0  0  0  0  0  0  0
   35.7750   28.5230   34.3530 F   0  0  0  0  0  0  0  0  0  0  0  0
   36.2510   28.7060   33.0850 C   0  0  0  0  0  0  0  0  0  0  0  0
   37.2950   27.9380   32.5870 C   0  0  0  0  0  0  0  0  0  0  0  0
   37.7460   28.1630   31.2820 C   0  0  0  0  0  0  0  0  0  0  0  0
   37.1610   29.1450   30.4840 C   0  0  0  0  0  0  0  0  0  0  0  0
   36.1270   29.8710   31.0420 C   0  0  0  0  0  0  0  0  0  0  0  0
   35.6590   29.6770   32.3190 C   0  0  0  0  0  0  0  0  0  0  0  0
   38.5630   27.5620   30.8930 H   0  0  0  0  0  0  0  0  0  0  0  0
   37.5270   29.2990   29.4800 H   0  0  0  0  0  0  0  0  0  0  0  0
   35.7180   30.6060   30.3820 H   0  0  0  0  0  0  0  0  0  0  0  0
   37.4040   25.6670   33.2330 C   0  0  0  0  0  0  0  0  0  0  0  0
   37.8470   26.9550   33.4540 C   0  0  0  0  0  0  0  0  0  0  0  0
   38.7690   27.1390   34.4810 C   0  0  0  0  0  0  0  0  0  0  0  0
   39.1760   26.0520   35.2030 N   0  0  0  0  0  0  0  0  0  0  0  0
   38.7210   24.8360   34.9520 C   0  0  0  0  0  0  0  0  0  0  0  0
   37.8360   24.6150   33.9750 N   0  0  0  0  0  0  0  0  0  0  0  0
   36.6910   25.3980   32.4650 H   0  0  0  0  0  0  0  0  0  0  0  0
   39.0820   28.1690   34.6090 H   0  0  0  0  0  0  0  0  0  0  0  0
   39.1300   24.0650   35.6040 H   0  0  0  0  0  0  0  0  0  0  0  0
  1 10  1  0  0  0  0
  2  3  1  0  0  0  0
  2  1  2  0  0  0  0
  3  4  2  0  0  0  0
  4  5  1  0  0  0  0
  5  6  1  0  0  0  0
  6 12  1  0  0  0  0
  6  7  2  0  0  0  0
  7 13  1  0  0  0  0
  8  7  1  0  0  0  0
  8 14  1  0  0  0  0
  9  8  2  0  0  0  0
 10  5  2  0  0  0  0
 10  9  1  0  0  0  0
 11  3  1  0  0  0  0
 16  9  1  0  0  0  0
 16 15  2  0  0  0  0
 17 16  1  0  0  0  0
 18 17  1  0  0  0  0
 19 17  2  0  0  0  0
 19 25  1  0  0  0  0
 20 22  1  0  0  0  0
 20 19  1  0  0  0  0
 21 20  1  0  0  0  0
 22 23  2  0  0  0  0
 23 24  1  0  0  0  0
 23 25  1  0  0  0  0
 25 26  2  0  0  0  0
 26 15  1  0  0  0  0
 27  1  1  0  0  0  0
 29 28  1  0  0  0  0
 30 29  1  0  0  0  0
 30 39  1  0  0  0  0
 31 30  2  0  0  0  0
 32 33  2  0  0  0  0
 32 31  1  0  0  0  0
 33 34  1  0  0  0  0
 34 27  1  0  0  0  0
 34 29  2  0  0  0  0
 35 31  1  0  0  0  0
 36 32  1  0  0  0  0
 37 33  1  0  0  0  0
 38 39  2  0  0  0  0
 38 43  1  0  0  0  0
 39 40  1  0  0  0  0
 40 45  1  0  0  0  0
 40 41  2  0  0  0  0
 42 41  1  0  0  0  0
 42 46  1  0  0  0  0
 43 42  2  0  0  0  0
 44 38  1  0  0  0  0
M  END
>  <minimizedAffinity>
-6.59654331

$$$$

 OpenBabel03262521423D

 46 51  0  0  0  0  0  0  0  0999 V2000
   38.9580   24.8360   35.9250 C   0  0  0  0  0  0  0  0  0  0  0  0
   37.8270   24.8290   36.6910 N   0  0  0  0  0  0  0  0  0  0  0  0
   37.6900   23.9080   37.6750 C   0  0  0  0  0  0  0  0  0  0  0  0
   38.6220   22.9800   37.9470 N   0  0  0  0  0  0  0  0  0  0  0  0
   39.7460   22.9440   37.2270 C   0  0  0  0  0  0  0  0  0  0  0  0
   40.6940   21.9820   37.5040 C   0  0  0  0  0  0  0  0  0  0  0  0
   41.8550   21.9290   36.7590 C   0  0  0  0  0  0  0  0  0  0  0  0
   42.0610   22.8560   35.7280 C   0  0  0  0  0  0  0  0  0  0  0  0
   41.0690   23.8020   35.4990 C   0  0  0  0  0  0  0  0  0  0  0  0
   39.9170   23.8720   36.2170 C   0  0  0  0  0  0  0  0  0  0  0  0
   36.7570   23.9860   38.2250 H   0  0  0  0  0  0  0  0  0  0  0  0
   40.4890   21.2920   38.3080 H   0  0  0  0  0  0  0  0  0  0  0  0
   42.5400   21.1450   37.0430 H   0  0  0  0  0  0  0  0  0  0  0  0
   43.0010   22.7120   35.2220 H   0  0  0  0  0  0  0  0  0  0  0  0
   41.3180   24.1460   33.1850 C   0  0  0  0  0  3  0  0  0  0  0  0
   41.5310   24.7000   34.4520 C   0  0  0  0  0  0  0  0  0  0  0  0
   42.1730   25.9500   34.5050 C   0  0  0  0  0  0  0  0  0  0  0  0
   42.2810   26.2660   35.5340 H   0  0  0  0  0  0  0  0  0  0  0  0
   42.5600   26.5710   33.3390 C   0  0  0  0  0  0  0  0  0  0  0  0
   43.1790   27.7630   33.2470 N   0  0  0  0  0  0  0  0  0  0  0  0
   43.4700   28.4140   34.0130 H   0  0  0  0  0  0  0  0  0  0  0  0
   43.3640   27.9780   31.9560 N   0  0  0  0  0  0  0  0  0  0  0  0
   42.8680   26.9350   31.2280 C   0  0  0  0  0  0  0  0  0  0  0  0
   42.8620   26.8030   30.1440 H   0  0  0  0  0  0  0  0  0  0  0  0
   42.3400   26.0070   32.1010 C   0  0  0  0  0  0  0  0  0  0  0  0
   41.7130   24.7840   32.0260 C   0  0  0  0  0  3  0  0  0  0  0  0
   39.2770   25.9350   34.5900 S   0  0  0  0  0  0  0  0  0  0  0  0
   37.6470   28.2320   33.8130 F   0  0  0  0  0  0  0  0  0  0  0  0
   37.2860   27.1130   33.1160 C   0  0  0  0  0  0  0  0  0  0  0  0
   36.2640   27.1460   32.1760 C   0  0  0  0  0  0  0  0  0  0  0  0
   35.9320   25.9730   31.4880 C   0  0  0  0  0  0  0  0  0  0  0  0
   36.6130   24.7830   31.7360 C   0  0  0  0  0  0  0  0  0  0  0  0
   37.6180   24.8220   32.6830 C   0  0  0  0  0  0  0  0  0  0  0  0
   37.9700   25.9540   33.3770 C   0  0  0  0  0  0  0  0  0  0  0  0
   35.1330   25.9990   30.7520 H   0  0  0  0  0  0  0  0  0  0  0  0
   36.3380   23.8910   31.1920 H   0  0  0  0  0  0  0  0  0  0  0  0
   38.1040   23.8810   32.8290 H   0  0  0  0  0  0  0  0  0  0  0  0
   36.1660   29.1880   30.9900 C   0  0  0  0  0  0  0  0  0  0  0  0
   35.6110   28.3920   31.9710 C   0  0  0  0  0  0  0  0  0  0  0  0
   34.4940   28.8930   32.6360 C   0  0  0  0  0  0  0  0  0  0  0  0
   34.0180   30.1250   32.2850 N   0  0  0  0  0  0  0  0  0  0  0  0
   34.5860   30.8500   31.3360 C   0  0  0  0  0  0  0  0  0  0  0  0
   35.6590   30.4070   30.6740 N   0  0  0  0  0  0  0  0  0  0  0  0
   37.0320   28.9080   30.4050 H   0  0  0  0  0  0  0  0  0  0  0  0
   34.1010   28.2270   33.3950 H   0  0  0  0  0  0  0  0  0  0  0  0
   34.1030   31.8110   31.1610 H   0  0  0  0  0  0  0  0  0  0  0  0
  1 10  2  0  0  0  0
  1  2  1  0  0  0  0
  2  3  2  0  0  0  0
  3  4  1  0  0  0  0
  3 11  1  0  0  0  0
  5  6  1  0  0  0  0
  5  4  2  0  0  0  0
  6 12  1  0  0  0  0
  7 13  1  0  0  0  0
  7  6  2  0  0  0  0
  8  7  1  0  0  0  0
  9  8  2  0  0  0  0
  9 10  1  0  0  0  0
 10  5  1  0  0  0  0
 14  8  1  0  0  0  0
 15 16  1  0  0  0  0
 16 17  2  0  0  0  0
 16  9  1  0  0  0  0
 17 18  1  0  0  0  0
 19 17  1  0  0  0  0
 20 19  1  0  0  0  0
 20 21  1  0  0  0  0
 22 20  1  0  0  0  0
 23 22  2  0  0  0  0
 23 25  1  0  0  0  0
 24 23  1  0  0  0  0
 25 19  2  0  0  0  0
 26 25  1  0  0  0  0
 26 15  2  0  0  0  0
 27  1  1  0  0  0  0
 29 34  1  0  0  0  0
 29 28  1  0  0  0  0
 30 29  2  0  0  0  0
 31 32  2  0  0  0  0
 31 30  1  0  0  0  0
 32 33  1  0  0  0  0
 33 37  1  0  0  0  0
 33 34  2  0  0  0  0
 34 27  1  0  0  0  0
 35 31  1  0  0  0  0
 36 32  1  0  0  0  0
 38 39  1  0  0  0  0
 39 30  1  0  0  0  0
 39 40  2  0  0  0  0
 40 45  1  0  0  0  0
 41 40  1  0  0  0  0
 42 41  2  0  0  0  0
 43 38  2  0  0  0  0
 43 42  1  0  0  0  0
 44 38  1  0  0  0  0
 46 42  1  0  0  0  0
M  END
>  <minimizedAffinity>
-6.51342916

$$$$

 OpenBabel03262521423D

 46 51  0  0  0  0  0  0  0  0999 V2000
   38.2730   26.7940   31.6660 C   0  0  0  0  0  0  0  0  0  0  0  0
   37.7140   27.0950   30.4560 N   0  0  0  0  0  0  0  0  0  0  0  0
   36.6490   27.9290   30.3980 C   0  0  0  0  0  0  0  0  0  0  0  0
   36.0960   28.4910   31.4860 N   0  0  0  0  0  0  0  0  0  0  0  0
   36.6040   28.2300   32.6930 C   0  0  0  0  0  0  0  0  0  0  0  0
   36.0250   28.8000   33.8060 C   0  0  0  0  0  0  0  0  0  0  0  0
   36.5350   28.5280   35.0600 C   0  0  0  0  0  0  0  0  0  0  0  0
   37.6400   27.6750   35.1890 C   0  0  0  0  0  0  0  0  0  0  0  0
   38.1790   27.1330   34.0290 C   0  0  0  0  0  0  0  0  0  0  0  0
   37.6930   27.3830   32.7850 C   0  0  0  0  0  0  0  0  0  0  0  0
   36.2800   28.1040   29.3920 H   0  0  0  0  0  0  0  0  0  0  0  0
   35.1770   29.4500   33.6540 H   0  0  0  0  0  0  0  0  0  0  0  0
   36.0210   29.0160   35.8730 H   0  0  0  0  0  0  0  0  0  0  0  0
   37.9440   27.5420   36.2140 H   0  0  0  0  0  0  0  0  0  0  0  0
   38.9980   25.0690   34.8090 C   0  0  0  0  0  3  0  0  0  0  0  0
   39.3550   26.3570   34.3940 C   0  0  0  0  0  0  0  0  0  0  0  0
   40.7190   26.6920   34.4470 C   0  0  0  0  0  0  0  0  0  0  0  0
   40.8640   27.7080   34.1070 H   0  0  0  0  0  0  0  0  0  0  0  0
   41.6360   25.7650   34.8920 C   0  0  0  0  0  0  0  0  0  0  0  0
   42.9650   25.9540   34.9910 N   0  0  0  0  0  0  0  0  0  0  0  0
   43.5280   26.8040   34.7580 H   0  0  0  0  0  0  0  0  0  0  0  0
   43.4590   24.8200   35.4570 N   0  0  0  0  0  0  0  0  0  0  0  0
   42.4570   23.9130   35.6540 C   0  0  0  0  0  0  0  0  0  0  0  0
   42.5270   22.8900   36.0270 H   0  0  0  0  0  0  0  0  0  0  0  0
   41.2620   24.5010   35.2950 C   0  0  0  0  0  0  0  0  0  0  0  0
   39.9310   24.1530   35.2520 C   0  0  0  0  0  3  0  0  0  0  0  0
   39.6290   25.7060   31.9200 S   0  0  0  0  0  0  0  0  0  0  0  0
   37.4980   23.7740   32.4310 F   0  0  0  0  0  0  0  0  0  0  0  0
   38.3570   23.3170   31.4700 C   0  0  0  0  0  0  0  0  0  0  0  0
   38.1720   22.0820   30.8640 C   0  0  0  0  0  0  0  0  0  0  0  0
   39.0790   21.6600   29.8860 C   0  0  0  0  0  0  0  0  0  0  0  0
   40.1580   22.4620   29.5190 C   0  0  0  0  0  0  0  0  0  0  0  0
   40.2820   23.6780   30.1620 C   0  0  0  0  0  0  0  0  0  0  0  0
   39.4100   24.1240   31.1260 C   0  0  0  0  0  0  0  0  0  0  0  0
   38.9340   20.6930   29.4110 H   0  0  0  0  0  0  0  0  0  0  0  0
   40.8440   22.1140   28.7610 H   0  0  0  0  0  0  0  0  0  0  0  0
   41.1260   24.2490   29.8380 H   0  0  0  0  0  0  0  0  0  0  0  0
   37.3610   20.0950   31.8530 C   0  0  0  0  0  0  0  0  0  0  0  0
   37.0520   21.3140   31.2850 C   0  0  0  0  0  0  0  0  0  0  0  0
   35.7020   21.6450   31.1930 C   0  0  0  0  0  0  0  0  0  0  0  0
   34.7740   20.7590   31.6620 N   0  0  0  0  0  0  0  0  0  0  0  0
   35.1220   19.6010   32.1990 C   0  0  0  0  0  0  0  0  0  0  0  0
   36.4050   19.2440   32.3070 N   0  0  0  0  0  0  0  0  0  0  0  0
   38.3710   19.7280   31.9800 H   0  0  0  0  0  0  0  0  0  0  0  0
   35.5190   22.6120   30.7400 H   0  0  0  0  0  0  0  0  0  0  0  0
   34.2790   18.9940   32.5300 H   0  0  0  0  0  0  0  0  0  0  0  0
  1 27  1  0  0  0  0
  1 10  1  0  0  0  0
  2  1  2  0  0  0  0
  3  2  1  0  0  0  0
  3  4  2  0  0  0  0
  4  5  1  0  0  0  0
  5 10  2  0  0  0  0
  5  6  1  0  0  0  0
  6  7  2  0  0  0  0
  7  8  1  0  0  0  0
  7 13  1  0  0  0  0
  8 14  1  0  0  0  0
  9 16  1  0  0  0  0
  9  8  2  0  0  0  0
 10  9  1  0  0  0  0
 11  3  1  0  0  0  0
 12  6  1  0  0  0  0
 15 26  1  0  0  0  0
 16 17  1  0  0  0  0
 16 15  2  0  0  0  0
 17 19  2  0  0  0  0
 18 17  1  0  0  0  0
 19 20  1  0  0  0  0
 19 25  1  0  0  0  0
 20 22  1  0  0  0  0
 21 20  1  0  0  0  0
 22 23  2  0  0  0  0
 23 24  1  0  0  0  0
 25 23  1  0  0  0  0
 26 25  2  0  0  0  0
 29 28  1  0  0  0  0
 30 39  1  0  0  0  0
 30 29  2  0  0  0  0
 31 30  1  0  0  0  0
 32 31  2  0  0  0  0
 32 33  1  0  0  0  0
 33 34  2  0  0  0  0
 34 29  1  0  0  0  0
 34 27  1  0  0  0  0
 35 31  1  0  0  0  0
 36 32  1  0  0  0  0
 37 33  1  0  0  0  0
 38 44  1  0  0  0  0
 38 43  1  0  0  0  0
 39 38  2  0  0  0  0
 40 39  1  0  0  0  0
 40 41  2  0  0  0  0
 41 42  1  0  0  0  0
 42 43  2  0  0  0  0
 42 46  1  0  0  0  0
 45 40  1  0  0  0  0
M  END
>  <minimizedAffinity>
-6.48491526

$$$$

 OpenBabel03262521423D

 46 51  0  0  0  0  0  0  0  0999 V2000
   40.5810   24.2740   31.9380 C   0  0  0  0  0  0  0  0  0  0  0  0
   40.7610   23.9790   30.6170 N   0  0  0  0  0  0  0  0  0  0  0  0
   41.8810   24.4010   29.9820 C   0  0  0  0  0  0  0  0  0  0  0  0
   42.8470   25.1090   30.5900 N   0  0  0  0  0  0  0  0  0  0  0  0
   42.7190   25.4240   31.8820 C   0  0  0  0  0  0  0  0  0  0  0  0
   43.7080   26.1610   32.4980 C   0  0  0  0  0  0  0  0  0  0  0  0
   43.5810   26.5020   33.8290 C   0  0  0  0  0  0  0  0  0  0  0  0
   42.4480   26.0930   34.5450 C   0  0  0  0  0  0  0  0  0  0  0  0
   41.4870   25.3510   33.8690 C   0  0  0  0  0  0  0  0  0  0  0  0
   41.5880   25.0070   32.5580 C   0  0  0  0  0  0  0  0  0  0  0  0
   41.9290   24.1150   28.9360 H   0  0  0  0  0  0  0  0  0  0  0  0
   44.5610   26.4510   31.9040 H   0  0  0  0  0  0  0  0  0  0  0  0
   44.4000   27.0790   34.2290 H   0  0  0  0  0  0  0  0  0  0  0  0
   42.4650   26.4190   35.5710 H   0  0  0  0  0  0  0  0  0  0  0  0
   39.5830   26.0370   35.0710 C   0  0  0  0  0  3  0  0  0  0  0  0
   40.4540   24.9700   34.8200 C   0  0  0  0  0  0  0  0  0  0  0  0
   40.2310   23.7800   35.5350 C   0  0  0  0  0  0  0  0  0  0  0  0
   40.9680   23.0390   35.2570 H   0  0  0  0  0  0  0  0  0  0  0  0
   39.1900   23.7050   36.4330 C   0  0  0  0  0  0  0  0  0  0  0  0
   38.8660   22.6320   37.1780 N   0  0  0  0  0  0  0  0  0  0  0  0
   39.3250   21.6930   37.2130 H   0  0  0  0  0  0  0  0  0  0  0  0
   37.8130   22.9900   37.8930 N   0  0  0  0  0  0  0  0  0  0  0  0
   37.4660   24.2800   37.6080 C   0  0  0  0  0  0  0  0  0  0  0  0
   36.6490   24.8730   38.0240 H   0  0  0  0  0  0  0  0  0  0  0  0
   38.3440   24.7690   36.6630 C   0  0  0  0  0  0  0  0  0  0  0  0
   38.5440   25.9430   35.9750 C   0  0  0  0  0  3  0  0  0  0  0  0
   39.1750   23.8360   32.8980 S   0  0  0  0  0  0  0  0  0  0  0  0
   38.4130   26.6110   32.3930 F   0  0  0  0  0  0  0  0  0  0  0  0
   37.4220   25.7510   32.0100 C   0  0  0  0  0  0  0  0  0  0  0  0
   36.2340   26.2160   31.4610 C   0  0  0  0  0  0  0  0  0  0  0  0
   35.2500   25.2950   31.0850 C   0  0  0  0  0  0  0  0  0  0  0  0
   35.4510   23.9260   31.2550 C   0  0  0  0  0  0  0  0  0  0  0  0
   36.6550   23.5340   31.8070 C   0  0  0  0  0  0  0  0  0  0  0  0
   37.6420   24.4100   32.1880 C   0  0  0  0  0  0  0  0  0  0  0  0
   34.3210   25.6580   30.6550 H   0  0  0  0  0  0  0  0  0  0  0  0
   34.6770   23.2350   30.9570 H   0  0  0  0  0  0  0  0  0  0  0  0
   36.7510   22.4740   31.9110 H   0  0  0  0  0  0  0  0  0  0  0  0
   36.7140   28.1590   30.2050 C   0  0  0  0  0  0  0  0  0  0  0  0
   36.0940   27.6230   31.3150 C   0  0  0  0  0  0  0  0  0  0  0  0
   35.4140   28.5080   32.1480 C   0  0  0  0  0  0  0  0  0  0  0  0
   35.3990   29.8360   31.8270 N   0  0  0  0  0  0  0  0  0  0  0  0
   36.0100   30.3010   30.7500 C   0  0  0  0  0  0  0  0  0  0  0  0
   36.6740   29.4870   29.9230 N   0  0  0  0  0  0  0  0  0  0  0  0
   37.2710   27.5750   29.4850 H   0  0  0  0  0  0  0  0  0  0  0  0
   34.9470   28.0320   33.0030 H   0  0  0  0  0  0  0  0  0  0  0  0
   35.9170   31.3780   30.6160 H   0  0  0  0  0  0  0  0  0  0  0  0
  1 10  1  0  0  0  0
  1 27  1  0  0  0  0
  2  1  2  0  0  0  0
  3  4  2  0  0  0  0
  3  2  1  0  0  0  0
  4  5  1  0  0  0  0
  5  6  2  0  0  0  0
  5 10  1  0  0  0  0
  6  7  1  0  0  0  0
  7 13  1  0  0  0  0
  7  8  2  0  0  0  0
  8 14  1  0  0  0  0
  9  8  1  0  0  0  0
  9 16  1  0  0  0  0
 10  9  2  0  0  0  0
 11  3  1  0  0  0  0
 12  6  1  0  0  0  0
 15 26  1  0  0  0  0
 16 15  2  0  0  0  0
 16 17  1  0  0  0  0
 17 19  2  0  0  0  0
 18 17  1  0  0  0  0
 19 25  1  0  0  0  0
 19 20  1  0  0  0  0
 20 21  1  0  0  0  0
 20 22  1  0  0  0  0
 23 22  2  0  0  0  0
 23 24  1  0  0  0  0
 25 23  1  0  0  0  0
 26 25  2  0  0  0  0
 29 34  1  0  0  0  0
 29 28  1  0  0  0  0
 30 29  2  0  0  0  0
 31 32  2  0  0  0  0
 31 30  1  0  0  0  0
 32 33  1  0  0  0  0
 33 37  1  0  0  0  0
 33 34  2  0  0  0  0
 34 27  1  0  0  0  0
 35 31  1  0  0  0  0
 36 32  1  0  0  0  0
 38 39  1  0  0  0  0
 39 30  1  0  0  0  0
 39 40  2  0  0  0  0
 40 45  1  0  0  0  0
 41 40  1  0  0  0  0
 42 41  2  0  0  0  0
 43 38  2  0  0  0  0
 43 42  1  0  0  0  0
 44 38  1  0  0  0  0
 46 42  1  0  0  0  0
M  END
>  <minimizedAffinity>
-6.42950535

$$$$

 OpenBabel03262521423D

 46 51  0  0  0  0  0  0  0  0999 V2000
   36.8620   29.4050   30.6350 C   0  0  0  0  0  0  0  0  0  0  0  0
   37.7870   28.8430   29.8010 N   0  0  0  0  0  0  0  0  0  0  0  0
   38.6550   29.6370   29.1290 C   0  0  0  0  0  0  0  0  0  0  0  0
   38.6590   30.9760   29.2370 N   0  0  0  0  0  0  0  0  0  0  0  0
   37.7750   31.5760   30.0400 C   0  0  0  0  0  0  0  0  0  0  0  0
   37.7770   32.9500   30.1380 C   0  0  0  0  0  0  0  0  0  0  0  0
   36.8610   33.5810   30.9550 C   0  0  0  0  0  0  0  0  0  0  0  0
   35.9380   32.8160   31.6820 C   0  0  0  0  0  0  0  0  0  0  0  0
   35.9870   31.4350   31.5410 C   0  0  0  0  0  0  0  0  0  0  0  0
   36.8770   30.7920   30.7400 C   0  0  0  0  0  0  0  0  0  0  0  0
   39.3480   29.0950   28.4930 H   0  0  0  0  0  0  0  0  0  0  0  0
   38.5080   33.4940   29.5590 H   0  0  0  0  0  0  0  0  0  0  0  0
   36.9340   34.6570   30.9710 H   0  0  0  0  0  0  0  0  0  0  0  0
   35.2780   33.4210   32.2810 H   0  0  0  0  0  0  0  0  0  0  0  0
   35.5250   30.7150   33.7340 C   0  0  0  0  0  3  0  0  0  0  0  0
   35.0050   30.8510   32.4420 C   0  0  0  0  0  0  0  0  0  0  0  0
   33.7000   30.3740   32.2230 C   0  0  0  0  0  0  0  0  0  0  0  0
   33.4180   30.5320   31.1910 H   0  0  0  0  0  0  0  0  0  0  0  0
   32.9960   29.8060   33.2610 C   0  0  0  0  0  0  0  0  0  0  0  0
   31.7450   29.3130   33.1890 N   0  0  0  0  0  0  0  0  0  0  0  0
   31.1010   29.2710   32.3660 H   0  0  0  0  0  0  0  0  0  0  0  0
   31.4600   28.8690   34.4010 N   0  0  0  0  0  0  0  0  0  0  0  0
   32.5160   29.0760   35.2410 C   0  0  0  0  0  0  0  0  0  0  0  0
   32.6040   28.8270   36.3000 H   0  0  0  0  0  0  0  0  0  0  0  0
   33.5280   29.6830   34.5260 C   0  0  0  0  0  0  0  0  0  0  0  0
   34.8040   30.1430   34.7620 C   0  0  0  0  0  3  0  0  0  0  0  0
   35.6460   28.5250   31.5480 S   0  0  0  0  0  0  0  0  0  0  0  0
   37.7910   27.3550   33.1500 F   0  0  0  0  0  0  0  0  0  0  0  0
   37.0690   26.3860   32.5110 C   0  0  0  0  0  0  0  0  0  0  0  0
   37.3790   25.0400   32.6560 C   0  0  0  0  0  0  0  0  0  0  0  0
   36.6100   24.0860   31.9810 C   0  0  0  0  0  0  0  0  0  0  0  0
   35.5430   24.4730   31.1710 C   0  0  0  0  0  0  0  0  0  0  0  0
   35.2900   25.8270   31.0730 C   0  0  0  0  0  0  0  0  0  0  0  0
   36.0250   26.7910   31.7210 C   0  0  0  0  0  0  0  0  0  0  0  0
   36.8530   23.0330   32.0940 H   0  0  0  0  0  0  0  0  0  0  0  0
   34.9640   23.7170   30.6610 H   0  0  0  0  0  0  0  0  0  0  0  0
   34.4610   26.0610   30.4400 H   0  0  0  0  0  0  0  0  0  0  0  0
   38.1480   24.4060   34.7990 C   0  0  0  0  0  0  0  0  0  0  0  0
   38.4800   24.7150   33.4960 C   0  0  0  0  0  0  0  0  0  0  0  0
   39.8310   24.6720   33.1600 C   0  0  0  0  0  0  0  0  0  0  0  0
   40.7380   24.3320   34.1240 N   0  0  0  0  0  0  0  0  0  0  0  0
   40.3680   24.0450   35.3620 C   0  0  0  0  0  0  0  0  0  0  0  0
   39.0830   24.0740   35.7250 N   0  0  0  0  0  0  0  0  0  0  0  0
   37.1350   24.4040   35.1790 H   0  0  0  0  0  0  0  0  0  0  0  0
   40.0330   24.9220   32.1260 H   0  0  0  0  0  0  0  0  0  0  0  0
   41.1950   23.7920   36.0250 H   0  0  0  0  0  0  0  0  0  0  0  0
  1 10  1  0  0  0  0
  1 27  1  0  0  0  0
  2  1  2  0  0  0  0
  3  4  2  0  0  0  0
  3  2  1  0  0  0  0
  4  5  1  0  0  0  0
  5  6  2  0  0  0  0
  5 10  1  0  0  0  0
  6  7  1  0  0  0  0
  7 13  1  0  0  0  0
  7  8  2  0  0  0  0
  8 14  1  0  0  0  0
  9  8  1  0  0  0  0
  9 16  1  0  0  0  0
 10  9  2  0  0  0  0
 11  3  1  0  0  0  0
 12  6  1  0  0  0  0
 15 26  1  0  0  0  0
 16 15  2  0  0  0  0
 17 16  1  0  0  0  0
 17 19  2  0  0  0  0
 18 17  1  0  0  0  0
 19 25  1  0  0  0  0
 20 19  1  0  0  0  0
 20 22  1  0  0  0  0
 21 20  1  0  0  0  0
 22 23  2  0  0  0  0
 23 24  1  0  0  0  0
 25 26  2  0  0  0  0
 25 23  1  0  0  0  0
 27 34  1  0  0  0  0
 29 30  1  0  0  0  0
 29 28  1  0  0  0  0
 30 39  1  0  0  0  0
 31 35  1  0  0  0  0
 31 30  2  0  0  0  0
 32 31  1  0  0  0  0
 33 32  2  0  0  0  0
 33 34  1  0  0  0  0
 34 29  2  0  0  0  0
 36 32  1  0  0  0  0
 37 33  1  0  0  0  0
 38 44  1  0  0  0  0
 38 43  1  0  0  0  0
 39 38  2  0  0  0  0
 40 39  1  0  0  0  0
 40 41  2  0  0  0  0
 41 42  1  0  0  0  0
 42 43  2  0  0  0  0
 42 46  1  0  0  0  0
 45 40  1  0  0  0  0
M  END
>  <minimizedAffinity>
-6.33340549

$$$$
