
 OpenBabel03272508113D

 37 40  0  0  0  0  0  0  0  0999 V2000
   36.6750   29.4650   44.0750 Cl  0  0  0  0  0  0  0  0  0  0  0  0
   38.3260   29.8450   43.5340 C   0  0  0  0  0  0  0  0  0  0  0  0
   39.3170   30.3320   44.3690 C   0  0  0  0  0  0  0  0  0  0  0  0
   40.5620   30.5860   43.8170 C   0  0  0  0  0  0  0  0  0  0  0  0
   40.8010   30.3630   42.4850 C   0  0  0  0  0  0  0  0  0  0  0  0
   39.8300   29.8830   41.6470 C   0  0  0  0  0  0  0  0  0  0  0  0
   38.5930   29.6250   42.1780 C   0  0  0  0  0  0  0  0  0  0  0  0
   41.2790   30.9630   44.5310 H   0  0  0  0  0  0  0  0  0  0  0  0
   41.7950   30.5840   42.1200 H   0  0  0  0  0  0  0  0  0  0  0  0
   40.0750   29.7260   40.6030 H   0  0  0  0  0  0  0  0  0  0  0  0
   36.8580   30.0830   40.5480 C   0  0  0  0  0  3  0  0  0  0  0  0
   37.5900   29.1130   41.2420 C   0  0  0  0  0  0  0  0  0  0  0  0
   37.2750   27.8000   40.9580 C   0  0  0  0  0  0  0  0  0  0  0  0
   37.8580   27.0800   41.5090 H   0  0  0  0  0  0  0  0  0  0  0  0
   36.2900   27.5200   40.0360 C   0  0  0  0  0  0  0  0  0  0  0  0
   35.8270   26.3300   39.6110 N   0  0  0  0  0  0  0  0  0  0  0  0
   36.1660   25.3950   39.9340 H   0  0  0  0  0  0  0  0  0  0  0  0
   34.8830   26.5230   38.7240 N   0  0  0  0  0  0  0  0  0  0  0  0
   34.6870   27.8560   38.5290 C   0  0  0  0  0  0  0  0  0  0  0  0
   33.9830   28.3460   37.8660 H   0  0  0  0  0  0  0  0  0  0  0  0
   35.5860   28.4970   39.3680 C   0  0  0  0  0  0  0  0  0  0  0  0
   35.8680   29.8190   39.6220 C   0  0  0  0  0  3  0  0  0  0  0  0
   38.8900   30.4860   45.6520 O   0  0  0  0  0  0  0  0  0  0  0  0
   39.4520   32.5310   47.1310 O   0  0  0  0  0  0  0  0  0  0  0  0
   38.3220   31.8540   46.4370 P   0  0  1  0  0  0  0  0  0  0  0  0
   37.7260   32.8560   45.1840 O   0  0  0  0  0  0  0  0  0  0  0  0
   38.4830   33.2320   44.6680 H   0  0  0  0  0  0  0  0  0  0  0  0
   37.0300   31.4310   47.4570 O   0  0  0  0  0  0  0  0  0  0  0  0
   37.6140   30.5260   50.9880 C   0  0  0  0  0  0  0  0  0  0  0  0
   37.7070   31.3060   49.8350 C   0  0  0  0  0  0  0  0  0  0  0  0
   37.0830   30.8640   48.6790 C   0  0  0  0  0  0  0  0  0  0  0  0
   36.4010   29.6680   48.7380 N   0  0  0  0  0  0  0  0  0  0  0  0
   36.3390   28.9470   49.8750 C   0  0  0  0  0  0  0  0  0  0  0  0
   36.9410   29.3740   50.9930 N   0  0  0  0  0  0  0  0  0  0  0  0
   38.1430   30.9790   51.8280 H   0  0  0  0  0  0  0  0  0  0  0  0
   38.2200   32.2450   49.7200 H   0  0  0  0  0  0  0  0  0  0  0  0
   35.8020   28.0070   49.9170 H   0  0  0  0  0  0  0  0  0  0  0  0
  2  1  1  0  0  0  0
  2  3  1  0  0  0  0
  3 23  1  0  0  0  0
  4  3  2  0  0  0  0
  4  8  1  0  0  0  0
  5  4  1  0  0  0  0
  6  7  1  0  0  0  0
  6  5  2  0  0  0  0
  7  2  2  0  0  0  0
  9  5  1  0  0  0  0
 10  6  1  0  0  0  0
 11 12  1  0  0  0  0
 12  7  1  0  0  0  0
 13 12  2  0  0  0  0
 13 14  1  0  0  0  0
 15 13  1  0  0  0  0
 16 17  1  0  0  0  0
 16 15  1  0  0  0  0
 18 16  1  0  0  0  0
 19 18  2  0  0  0  0
 19 21  1  0  0  0  0
 20 19  1  0  0  0  0
 21 22  1  0  0  0  0
 21 15  2  0  0  0  0
 22 11  2  0  0  0  0
 23 25  1  0  0  0  0
 25 24  2  1  0  0  0
 25 28  1  0  0  0  0
 26 25  1  0  0  0  0
 27 26  1  0  0  0  0
 28 31  1  0  0  0  0
 29 34  1  0  0  0  0
 29 35  1  0  0  0  0
 30 29  2  0  0  0  0
 31 32  2  0  0  0  0
 31 30  1  0  0  0  0
 32 33  1  0  0  0  0
 33 37  1  0  0  0  0
 33 34  2  0  0  0  0
 36 30  1  0  0  0  0
M  END
>  <minimizedAffinity>
-4.82924366

>  <minimizedRMSD>
0.156024843

$$$$
