REMARK  Name = 
REMARK  6 active torsions:
REMARK  status: ('A' for Active; 'I' for Inactive)
REMARK    1  A    between atoms: P_2  and  O_3
REMARK    2  A    between atoms: P_2  and  O_4
REMARK    3  A    between atoms: P_2  and  O_11
REMARK    4  A    between atoms: O_4  and  C_7
REMARK    5  A    between atoms: O_11  and  C_14
REMARK    6  A    between atoms: C_18  and  C_27
REMARK                            x       y       z     vdW  Elec       q    Type
REMARK                         _______ _______ _______ _____ _____    ______ ____
ROOT
ATOM      1 CL   UNL     1      36.619  29.449  44.043  0.00  0.00    +0.000 Cl
ATOM      2  C   UNL     1      38.264  29.832  43.484  0.00  0.00    +0.000 A 
ATOM      3  C   UNL     1      39.266  30.311  44.310  0.00  0.00    +0.000 A 
ATOM      4  C   UNL     1      40.504  30.569  43.744  0.00  0.00    +0.000 A 
ATOM      5  C   UNL     1      40.725  30.357  42.408  0.00  0.00    +0.000 A 
ATOM      6  C   UNL     1      39.743  29.884  41.578  0.00  0.00    +0.000 A 
ATOM      7  C   UNL     1      38.513  29.623  42.123  0.00  0.00    +0.000 A 
ATOM      8  H   UNL     1      41.230  30.939  44.452  0.00  0.00    +0.000 HD
ATOM      9  H   UNL     1      41.715  30.580  42.032  0.00  0.00    +0.000 HD
ATOM     10  H   UNL     1      39.975  29.736  40.530  0.00  0.00    +0.000 HD
ENDROOT
BRANCH   7  12
ATOM     11  C   UNL     1      36.246  28.846  41.760  0.00  0.00    +0.000 A 
ATOM     12  C   UNL     1      37.498  29.119  41.196  0.00  0.00    +0.000 A 
ATOM     13  C   UNL     1      37.615  28.880  39.843  0.00  0.00    +0.000 A 
ATOM     14  H   UNL     1      38.592  29.102  39.442  0.00  0.00    +0.000 HD
ATOM     15  C   UNL     1      36.532  28.401  39.138  0.00  0.00    +0.000 A 
ATOM     16  N   UNL     1      36.425  28.101  37.830  0.00  0.00    +0.000 N 
ATOM     17  H   UNL     1      37.187  28.192  37.121  0.00  0.00    +0.000 HD
ATOM     18  N   UNL     1      35.212  27.674  37.582  0.00  0.00    +0.000 NA
ATOM     19  C   UNL     1      34.470  27.677  38.722  0.00  0.00    +0.000 A 
ATOM     20  H   UNL     1      33.435  27.383  38.856  0.00  0.00    +0.000 HD
ATOM     21  C   UNL     1      35.312  28.141  39.720  0.00  0.00    +0.000 A 
ATOM     22  C   UNL     1      35.151  28.366  41.069  0.00  0.00    +0.000 A 
ENDBRANCH   7  12
BRANCH   3  23
ATOM     23  O   UNL     1      38.855  30.455  45.600  0.00  0.00    +0.000 OA
BRANCH  23  25
ATOM     24  O   UNL     1      39.452  32.474  47.101  0.00  0.00    +0.000 OA
ATOM     25  P   UNL     1      38.309  31.819  46.406  0.00  0.00    +0.000 P 
BRANCH  25  26
ATOM     26  O   UNL     1      37.717  32.845  45.170  0.00  0.00    +0.000 OA
ATOM     27  H   UNL     1      38.475  33.218  44.654  0.00  0.00    +0.000 HD
ENDBRANCH  25  26
BRANCH  25  28
ATOM     28  O   UNL     1      37.019  31.399  47.430  0.00  0.00    +0.000 OA
BRANCH  28  31
ATOM     29  C   UNL     1      37.610  30.532  50.969  0.00  0.00    +0.000 A 
ATOM     30  C   UNL     1      37.700  31.300  49.808  0.00  0.00    +0.000 A 
ATOM     31  C   UNL     1      37.075  30.845  48.657  0.00  0.00    +0.000 A 
ATOM     32  N   UNL     1      36.395  29.648  48.730  0.00  0.00    +0.000 NA
ATOM     33  C   UNL     1      36.335  28.939  49.875  0.00  0.00    +0.000 A 
ATOM     34  N   UNL     1      36.939  29.379  50.987  0.00  0.00    +0.000 NA
ATOM     35  H   UNL     1      38.140  30.994  51.803  0.00  0.00    +0.000 HD
ATOM     36  H   UNL     1      38.211  32.238  49.682  0.00  0.00    +0.000 HD
ATOM     37  H   UNL     1      35.800  27.999  49.927  0.00  0.00    +0.000 HD
ENDBRANCH  28  31
ENDBRANCH  25  28
ENDBRANCH  23  25
ENDBRANCH   3  23
TORSDOF 6
