
     RDKit          3D

 55 59  0  0  0  0  0  0  0  0999 V2000
   37.3320   30.1688   51.5074 C   0  0  0  0  0  0  0  0  0  0  0  0
   38.0730   30.8611   50.5133 C   0  0  0  0  0  0  0  0  0  0  0  0
   37.7130   30.6545   49.1997 C   0  0  0  0  0  0  0  0  0  0  0  0
   36.6639   29.7923   48.9699 N   0  0  0  0  0  0  0  0  0  0  0  0
   35.9851   29.1543   49.9316 C   0  0  0  0  0  0  0  0  0  0  0  0
   36.3356   29.3556   51.2085 N   0  0  0  0  0  0  0  0  0  0  0  0
   38.9308   33.2712   49.0015 F   0  0  0  0  0  0  0  0  0  0  0  0
   38.9148   32.4835   47.9362 C   0  0  0  0  0  0  0  0  0  0  0  0
   38.3384   31.2606   48.0520 C   0  0  0  0  0  0  0  0  0  0  0  0
   38.3784   30.5161   46.8680 C   0  0  0  0  0  0  0  0  0  0  0  0
   38.9439   30.9770   45.7068 C   0  0  0  0  0  0  0  0  0  0  0  0
   39.5151   32.2266   45.6459 C   0  0  0  0  0  0  0  0  0  0  0  0
   39.4926   32.9818   46.7889 C   0  0  0  0  0  0  0  0  0  0  0  0
   34.9960   28.3608   49.4465 O   0  0  0  0  0  0  0  0  0  0  0  0
   34.4448   28.6589   48.1653 C   0  0  0  0  0  0  0  0  0  0  0  0
   33.5652   27.5397   47.7012 C   0  0  0  0  0  0  0  0  0  0  0  0
   32.1317   27.9045   47.6981 C   0  0  0  0  0  0  0  0  0  0  0  0
   31.3437   27.5241   48.7816 C   0  0  0  0  0  0  0  0  0  0  0  0
   30.0163   27.8076   48.8799 C   0  0  0  0  0  0  0  0  0  0  0  0
   29.4428   28.4825   47.8905 N   0  0  0  0  0  0  0  0  0  0  0  0
   30.2014   28.8634   46.8200 C   0  0  0  0  0  0  0  0  0  0  0  0
   31.5294   28.5891   46.7041 N   0  0  0  0  0  0  0  0  0  0  0  0
   37.6801   30.3882   52.5032 H   0  0  0  0  0  0  0  0  0  0  0  0
   38.8848   31.5293   50.6765 H   0  0  0  0  0  0  0  0  0  0  0  0
   37.9500   29.5100   46.8161 H   0  0  0  0  0  0  0  0  0  0  0  0
   38.9657   30.3869   44.7998 H   0  0  0  0  0  0  0  0  0  0  0  0
   39.9596   32.5957   44.7430 H   0  0  0  0  0  0  0  0  0  0  0  0
   39.9353   33.9683   46.7666 H   0  0  0  0  0  0  0  0  0  0  0  0
   35.3149   28.7961   47.4849 H   0  0  0  0  0  0  0  0  0  0  0  0
   33.9146   29.6330   48.1803 H   0  0  0  0  0  0  0  0  0  0  0  0
   33.7133   26.5899   48.2686 H   0  0  0  0  0  0  0  0  0  0  0  0
   33.8323   27.3013   46.6428 H   0  0  0  0  0  0  0  0  0  0  0  0
   31.8063   26.9709   49.5963 H   0  0  0  0  0  0  0  0  0  0  0  0
   29.4504   27.4886   49.7437 H   0  0  0  0  0  0  0  0  0  0  0  0
   29.5492   29.6300   45.6984 C   0  0  0  0  0  0  0  0  0  0  0  0
   28.4534   28.9022   45.0568 C   0  0  0  0  0  0  0  0  0  0  0  0
   28.4889   28.6015   43.7713 C   0  0  0  0  0  0  0  0  0  0  0  0
   29.6219   28.9833   42.9414 C   0  0  0  0  0  0  0  0  0  0  0  0
   29.7121   28.7299   41.7200 O   0  0  0  0  0  0  0  0  0  0  0  0
   30.8114   29.4905   42.5029 O   0  0  0  0  0  0  0  0  0  0  0  0
   27.4225   27.8964   43.1629 N   0  0  0  0  0  0  0  0  0  0  0  0
   26.5938   27.7677   42.0198 C   0  0  0  0  0  0  0  0  0  0  0  0
   26.4828   28.1974   40.8589 O   0  0  0  0  0  0  0  0  0  0  0  0
   25.7381   26.7939   42.7354 C   0  0  2  0  0  0  0  0  0  0  0  0
   25.6424   25.8681   42.1545 H   0  0  0  0  0  0  0  0  0  0  0  0
   26.7528   26.7846   43.8593 C   0  0  2  0  0  0  0  0  0  0  0  0
   26.1455   27.4371   45.4116 S   0  0  0  0  0  0  0  0  0  0  0  0
   27.3863   28.5940   46.0307 C   0  0  2  0  0  0  0  0  0  0  0  0
   26.8743   29.5055   46.4026 H   0  0  0  0  0  0  0  0  0  0  0  0
   30.3097   29.9681   44.9663 H   0  0  0  0  0  0  0  0  0  0  0  0
   29.0959   30.5663   46.1296 H   0  0  0  0  0  0  0  0  0  0  0  0
   31.6543   29.3739   43.0796 H   0  0  0  0  0  0  0  0  0  0  0  0
   24.7735   27.2910   42.9975 H   0  0  0  0  0  0  0  0  0  0  0  0
   27.3716   25.8692   43.9311 H   0  0  0  0  0  0  0  0  0  0  0  0
   27.8558   28.0800   46.9121 H   0  0  0  0  0  0  0  0  0  0  0  0
  2  1  2  0
  3  2  1  0
  4  3  2  0
  4  5  1  0
  5  6  2  0
  6  1  1  0
  8  9  2  0
  8  7  1  0
  9  3  1  0
 10  9  1  0
 11 10  2  0
 12 11  1  0
 12 13  2  0
 13  8  1  0
 14  5  1  0
 15 14  1  0
 16 15  1  0
 17 16  1  0
 17 18  2  0
 18 19  1  0
 20 19  2  0
 21 20  1  0
 22 21  2  0
 22 17  1  0
  1 23  1  0
  2 24  1  0
 10 25  1  0
 11 26  1  0
 12 27  1  0
 13 28  1  0
 15 29  1  0
 15 30  1  0
 16 31  1  0
 16 32  1  0
 18 33  1  0
 19 34  1  0
 35 36  1  0
 36 37  2  0
 37 38  1  0
 38 39  2  0
 38 40  1  0
 37 41  1  0
 41 42  1  0
 42 43  2  0
 42 44  1  0
 44 45  1  6
 44 46  1  0
 46 47  1  0
 47 48  1  0
 48 49  1  1
 48 36  1  0
 46 41  1  0
 35 50  1  0
 35 51  1  0
 40 52  1  0
 44 53  1  0
 46 54  1  1
 48 55  1  0
 21 35  1  0
M  ISO  8  23  14  24  14  25  14  26  14  27  14  28  14  29   8  30   8
M  ISO  6  31   8  32   8  33  14  34  14  45  15  49  15
M  END
>  <DihAtoms>  (1) 
19,20,34,35

>  <DihDeg>  (1) 
-89.82404706740319

$$$$
