
     RDKit          3D

 54 58  0  0  0  0  0  0  0  0999 V2000
   35.0094   28.3789   49.4601 C   0  0  0  0  0  0  0  0  0  0  0  0
   34.2880   28.7633   48.4424 C   0  0  0  0  0  0  0  0  0  0  0  0
   37.3896   30.1642   51.5744 C   0  0  0  0  0  0  0  0  0  0  0  0
   38.0899   30.9353   50.6291 C   0  0  0  0  0  0  0  0  0  0  0  0
   37.7191   30.8189   49.2702 C   0  0  0  0  0  0  0  0  0  0  0  0
   36.6949   29.9590   48.9454 N   0  0  0  0  0  0  0  0  0  0  0  0
   36.0697   29.2503   49.9187 C   0  0  0  0  0  0  0  0  0  0  0  0
   36.4037   29.3450   51.2076 N   0  0  0  0  0  0  0  0  0  0  0  0
   38.3775   31.5729   48.2030 C   0  0  0  0  0  0  0  0  0  0  0  0
   38.5904   31.0394   46.9449 C   0  0  0  0  0  0  0  0  0  0  0  0
   39.2357   32.0187   46.1803 C   0  0  0  0  0  0  0  0  0  0  0  0
   39.3854   33.0942   46.9990 N   0  0  0  0  0  0  0  0  0  0  0  0
   38.8711   32.8171   48.1996 N   0  0  0  0  0  0  0  0  0  0  0  0
   33.1603   28.0396   47.8062 C   0  0  0  0  0  0  0  0  0  0  0  0
   33.5932   26.9579   46.8933 C   0  0  0  0  0  0  0  0  0  0  0  0
   33.7760   25.6427   47.3177 C   0  0  0  0  0  0  0  0  0  0  0  0
   34.1899   24.6433   46.4502 C   0  0  0  0  0  0  0  0  0  0  0  0
   34.4351   24.9395   45.1130 C   0  0  0  0  0  0  0  0  0  0  0  0
   34.2528   26.2296   44.7080 C   0  0  0  0  0  0  0  0  0  0  0  0
   33.8432   27.2322   45.5570 C   0  0  0  0  0  0  0  0  0  0  0  0
   34.7393   27.4007   49.8894 H   0  0  0  0  0  0  0  0  0  0  0  0
   34.5550   29.7259   48.0217 H   0  0  0  0  0  0  0  0  0  0  0  0
   37.7557   30.3335   52.5697 H   0  0  0  0  0  0  0  0  0  0  0  0
   38.8863   31.6222   50.7653 H   0  0  0  0  0  0  0  0  0  0  0  0
   38.3580   30.0792   46.5065 H   0  0  0  0  0  0  0  0  0  0  0  0
   39.5540   31.9492   45.1540 H   0  0  0  0  0  0  0  0  0  0  0  0
   39.8444   33.9702   46.6657 H   0  0  0  0  0  0  0  0  0  0  0  0
   32.4089   28.7211   47.3869 H   0  0  0  0  0  0  0  0  0  0  0  0
   32.6340   27.5201   48.6616 H   0  0  0  0  0  0  0  0  0  0  0  0
   33.5690   25.4657   48.3770 H   0  0  0  0  0  0  0  0  0  0  0  0
   34.2923   23.6728   46.9071 H   0  0  0  0  0  0  0  0  0  0  0  0
   34.7557   24.1319   44.4719 H   0  0  0  0  0  0  0  0  0  0  0  0
   34.4553   26.4234   43.6473 H   0  0  0  0  0  0  0  0  0  0  0  0
   33.7365   28.5614   44.9919 C   0  0  0  0  0  0  0  0  0  0  0  0
   33.4173   28.7632   43.5945 C   0  0  0  0  0  0  0  0  0  0  0  0
   33.2575   27.9095   42.5881 C   0  0  0  0  0  0  0  0  0  0  0  0
   33.4182   26.4826   42.8614 C   0  0  0  0  0  0  0  0  0  0  0  0
   33.2666   25.6394   41.9319 O   0  0  0  0  0  0  0  0  0  0  0  0
   33.5712   25.1320   43.1238 O   0  0  0  0  0  0  0  0  0  0  0  0
   32.9511   28.2560   41.2427 N   0  0  0  0  0  0  0  0  0  0  0  0
   32.3714   28.0086   39.9795 C   0  0  0  0  0  0  0  0  0  0  0  0
   31.8637   26.9982   39.4250 O   0  0  0  0  0  0  0  0  0  0  0  0
   32.5504   29.3706   39.4763 C   0  0  1  0  0  0  0  0  0  0  0  0
   33.0740   29.4589   38.5022 H   0  0  0  0  0  0  0  0  0  0  0  0
   33.4002   29.5263   40.6939 C   0  0  1  0  0  0  0  0  0  0  0  0
   32.6959   30.7692   41.8108 S   0  0  0  0  0  0  0  0  0  0  0  0
   33.2634   30.2056   43.3988 C   0  0  1  0  0  0  0  0  0  0  0  0
   32.6948   30.6662   44.2473 H   0  0  0  0  0  0  0  0  0  0  0  0
   34.6839   29.1744   45.1969 H   0  0  0  0  0  0  0  0  0  0  0  0
   32.9966   29.1155   45.6630 H   0  0  0  0  0  0  0  0  0  0  0  0
   34.2243   24.7943   43.8543 H   0  0  0  0  0  0  0  0  0  0  0  0
   31.5994   29.9332   39.5020 H   0  0  0  0  0  0  0  0  0  0  0  0
   34.4876   29.6261   40.5221 H   0  0  0  0  0  0  0  0  0  0  0  0
   34.3039   30.6366   43.5363 H   0  0  0  0  0  0  0  0  0  0  0  0
  1  7  1  0
  2  1  2  0
  4  3  2  0
  5  4  1  0
  6  5  2  0
  6  7  1  0
  7  8  2  0
  8  3  1  0
  9  5  1  0
 10  9  1  0
 11 10  2  0
 11 12  1  0
 12 13  1  0
 13  9  2  0
 14  2  1  0
 15 16  2  0
 15 14  1  0
 17 16  1  0
 18 17  2  0
 19 18  1  0
 19 20  2  0
 20 15  1  0
  1 21  1  0
  2 22  1  0
  3 23  1  0
  4 24  1  0
 10 25  1  0
 11 26  1  0
 12 27  1  0
 14 28  1  0
 14 29  1  0
 16 30  1  0
 17 31  1  0
 18 32  1  0
 19 33  1  0
 34 35  1  0
 35 36  2  0
 36 37  1  0
 37 38  2  0
 37 39  1  0
 36 40  1  0
 40 41  1  0
 41 42  2  0
 41 43  1  0
 43 44  1  6
 43 45  1  0
 45 46  1  0
 46 47  1  0
 47 48  1  1
 47 35  1  0
 45 40  1  0
 34 49  1  0
 34 50  1  0
 39 51  1  0
 43 52  1  0
 45 53  1  6
 47 54  1  0
 20 34  1  0
M  ISO  8  23  14  24  14  25  14  26  14  27   9  28   8  29   8  30  14
M  ISO  5  31  14  32  14  33  14  44  15  48  15
M  END
>  <DihAtoms>  (1) 
18,19,33,34

>  <DihDeg>  (1) 
104.63159947009089

$$$$
