
 OpenBabel03272509073D

 47 52  0  0  1  0  0  0  0  0999 V2000
   32.8500   27.2310   47.6300 C   0  0  0  0  0  0  0  0  0  0  0  0
   33.6590   26.1030   47.5020 C   0  0  0  0  0  0  0  0  0  0  0  0
   33.8350   25.4610   46.2840 C   0  0  0  0  0  0  0  0  0  0  0  0
   33.1940   25.9400   45.1460 C   0  0  0  0  0  0  0  0  0  0  0  0
   32.4050   27.0450   45.2830 C   0  0  0  0  0  0  0  0  0  0  0  0
   32.2210   27.6920   46.4830 C   0  0  0  0  0  0  0  0  0  0  0  0
   34.1380   25.7690   48.4270 H   0  0  0  0  0  0  0  0  0  0  0  0
   34.4850   24.6030   46.3250 H   0  0  0  0  0  0  0  0  0  0  0  0
   33.3590   25.4110   44.2190 H   0  0  0  0  0  0  0  0  0  0  0  0
   31.9160   27.3910   44.3630 H   0  0  0  0  0  0  0  0  0  0  0  0
   32.6570   27.9340   48.9180 C   0  0  0  0  0  0  0  0  0  0  0  0
   31.7380   28.5290   48.9830 H   0  0  0  0  0  0  0  0  0  0  0  0
   32.5300   27.1180   49.6910 H   0  0  0  0  0  0  0  0  0  0  0  0
   35.0900   28.2730   49.4050 C   0  0  0  0  0  3  0  0  0  0  0  0
   33.8530   28.6890   49.3640 C   0  0  0  0  0  3  0  0  0  0  0  0
   37.3520   30.1680   51.5530 C   0  0  0  0  0  0  0  0  0  0  0  0
   38.0480   30.9520   50.6150 C   0  0  0  0  0  0  0  0  0  0  0  0
   37.7160   30.8050   49.2490 C   0  0  0  0  0  0  0  0  0  0  0  0
   36.7320   29.9050   48.9110 N   0  0  0  0  0  0  0  0  0  0  0  0
   36.1080   29.1870   49.8790 C   0  0  0  0  0  0  0  0  0  0  0  0
   36.4050   29.3100   51.1740 N   0  0  0  0  0  0  0  0  0  0  0  0
   37.6870   30.3640   52.5560 H   0  0  0  0  0  0  0  0  0  0  0  0
   38.8160   31.6680   50.7620 H   0  0  0  0  0  0  0  0  0  0  0  0
   38.3740   31.5680   48.1890 C   0  0  0  0  0  0  0  0  0  0  0  0
   38.5950   31.0420   46.9290 C   0  0  0  0  0  0  0  0  0  0  0  0
   39.2390   32.0290   46.1710 C   0  0  0  0  0  0  0  0  0  0  0  0
   39.3780   33.1010   46.9970 N   0  0  0  0  0  0  0  0  0  0  0  0
   38.8610   32.8150   48.1940 N   0  0  0  0  0  0  0  0  0  0  0  0
   38.3700   30.0830   46.4850 H   0  0  0  0  0  0  0  0  0  0  0  0
   39.5610   31.9660   45.1460 H   0  0  0  0  0  0  0  0  0  0  0  0
   39.8340   33.9810   46.6700 H   0  0  0  0  0  0  0  0  0  0  0  0
   31.3900   28.8770   46.4640 C   0  0  0  0  0  2  0  0  0  0  0  0
   31.5470   29.8930   45.4430 C   0  0  0  0  0  0  0  0  0  0  0  0
   32.5740   30.6740   45.1190 C   0  0  0  0  0  0  0  0  0  0  0  0
   32.5830   31.6490   44.0830 N   0  0  0  0  0  0  0  0  0  0  0  0
   33.2170   32.4170   43.0840 C   0  0  1  0  0  0  0  0  0  0  0  0
   34.4160   32.6320   42.7650 O   0  0  0  0  0  1  0  0  0  0  0  0
   31.9790   32.9220   42.4900 C   0  0  0  0  0  3  0  0  0  0  0  0
   31.9070   34.0240   42.3880 H   0  0  0  0  0  0  0  0  0  0  0  0
   31.3550   32.3350   43.7140 C   0  0  2  0  0  0  0  0  0  0  0  0
   30.2120   30.9990   43.2710 S   0  0  0  0  0  0  0  0  0  0  0  0
   30.2810   29.9580   44.7120 C   0  0  0  0  0  3  0  0  0  0  0  0
   29.8750   28.9320   44.5210 H   0  0  0  0  0  0  0  0  0  0  0  0
   33.8090   30.5440   45.8890 C   0  0  0  0  0  2  0  0  0  0  0  0
   34.7700   29.8600   45.4330 O   0  0  0  0  0  0  0  0  0  0  0  0
   34.9780   30.4240   46.6210 O   0  0  0  0  0  0  0  0  0  0  0  0
   35.3020   31.1810   47.2490 H   0  0  0  0  0  0  0  0  0  0  0  0
  1 11  1  0  0  0  0
  2  1  1  0  0  0  0
  2  7  1  0  0  0  0
  3  8  1  0  0  0  0
  3  2  2  0  0  0  0
  4  5  2  0  0  0  0
  4  3  1  0  0  0  0
  5  6  1  0  0  0  0
  6  1  2  0  0  0  0
  9  4  1  0  0  0  0
 10  5  1  0  0  0  0
 11 12  1  0  0  0  0
 11 15  1  0  0  0  0
 11 13  1  0  0  0  0
 14 20  1  0  0  0  0
 15 14  2  0  0  0  0
 16 22  1  0  0  0  0
 17 23  1  0  0  0  0
 17 16  2  0  0  0  0
 18 17  1  0  0  0  0
 19 18  2  0  0  0  0
 19 20  1  0  0  0  0
 20 21  2  0  0  0  0
 21 16  1  0  0  0  0
 24 28  2  0  0  0  0
 24 18  1  0  0  0  0
 25 24  1  0  0  0  0
 26 25  2  0  0  0  0
 26 27  1  0  0  0  0
 27 28  1  0  0  0  0
 29 25  1  0  0  0  0
 30 26  1  0  0  0  0
 31 27  1  0  0  0  0
 32  6  1  0  0  0  0
 33 32  1  0  0  0  0
 34 33  2  0  0  0  0
 34 44  1  0  0  0  0
 35 34  1  0  0  0  0
 36 37  1  1  0  0  0
 36 40  1  0  0  0  0
 36 35  1  0  0  0  0
 38 36  1  0  0  0  0
 39 38  1  0  0  0  0
 40 38  1  1  0  0  0
 40 35  1  0  0  0  0
 41 40  1  0  0  0  0
 41 42  1  0  0  0  0
 42 33  1  0  0  0  0
 43 42  1  0  0  0  0
 45 44  1  0  0  0  0
 45 46  1  0  0  0  0
 46 47  1  0  0  0  0
M  END
>  <minimizedAffinity>
-6.59378672

>  <minimizedRMSD>
3.15814567

$$$$
