
 OpenBabel03272507333D

 43 48  0  0  1  0  0  0  0  0999 V2000
   33.0400   27.1400   47.1770 C   0  0  1  0  0  0  0  0  0  0  0  0
   33.7200   25.7360   47.4210 C   0  0  0  0  0  0  0  0  0  0  0  0
   32.3790   25.8850   46.8080 C   0  0  2  0  0  0  0  0  0  0  0  0
   33.7460   27.7400   46.5640 H   0  0  0  0  0  0  0  0  0  0  0  0
   33.7750   25.3720   48.4410 H   0  0  0  0  0  0  0  0  0  0  0  0
   34.5630   25.4780   46.7680 H   0  0  0  0  0  0  0  0  0  0  0  0
   31.4770   25.6650   47.4380 H   0  0  0  0  0  0  0  0  0  0  0  0
   32.7270   27.7790   48.5000 C   0  0  0  0  0  0  0  0  0  0  0  0
   31.5620   27.7140   49.0110 O   0  0  0  0  0  0  0  0  0  0  0  0
   35.7420   29.1890   49.8120 C   0  0  0  0  0  0  0  0  0  0  0  0
   34.8410   29.7560   50.6970 C   0  0  0  0  0  0  0  0  0  0  0  0
   33.5610   29.3090   50.3320 C   0  0  0  0  0  0  0  0  0  0  0  0
   33.7660   28.4930   49.2420 C   0  0  0  0  0  0  0  0  0  0  0  0
   35.0550   28.4550   48.9770 O   0  0  0  0  0  0  0  0  0  0  0  0
   34.9440   30.4300   51.5540 H   0  0  0  0  0  0  0  0  0  0  0  0
   32.6160   29.5540   50.8080 H   0  0  0  0  0  0  0  0  0  0  0  0
   37.1670   29.4400   49.9020 C   0  0  0  0  0  0  0  0  0  0  0  0
   37.8640   28.7300   50.6420 O   0  0  0  0  0  0  0  0  0  0  0  0
   37.6900   30.5200   49.1110 C   0  0  0  0  0  0  0  0  0  0  0  0
   37.8890   31.7320   49.7500 C   0  0  0  0  0  0  0  0  0  0  0  0
   38.3940   32.8020   49.0060 C   0  0  0  0  0  0  0  0  0  0  0  0
   38.6690   32.5950   47.6730 N   0  0  0  0  0  0  0  0  0  0  0  0
   38.4630   31.4080   47.0920 C   0  0  0  0  0  0  0  0  0  0  0  0
   37.9800   30.3770   47.7960 N   0  0  0  0  0  0  0  0  0  0  0  0
   37.6720   31.8880   50.7930 H   0  0  0  0  0  0  0  0  0  0  0  0
   38.5600   33.7700   49.4850 H   0  0  0  0  0  0  0  0  0  0  0  0
   38.6890   31.2770   46.0380 H   0  0  0  0  0  0  0  0  0  0  0  0
   32.2620   25.4180   45.3890 C   0  0  0  0  0  2  0  0  0  0  0  0
   30.9520   24.8480   45.0550 C   0  0  0  0  0  0  0  0  0  0  0  0
   29.9800   25.4490   44.3890 C   0  0  0  0  0  0  0  0  0  0  0  0
   28.7460   24.7890   44.1370 N   0  0  0  0  0  0  0  0  0  0  0  0
   27.4740   24.8470   43.5100 C   0  0  1  0  0  0  0  0  0  0  0  0
   26.6170   25.7350   43.2220 O   0  0  0  0  0  1  0  0  0  0  0  0
   27.5370   23.3810   43.3080 C   0  0  0  0  0  3  0  0  0  0  0  0
   28.0960   23.0230   42.4360 H   0  0  0  0  0  0  0  0  0  0  0  0
   28.3290   23.4950   44.5920 C   0  0  1  0  0  0  0  0  0  0  0  0
   29.7350   22.3960   44.7210 S   0  0  0  0  0  0  0  0  0  0  0  0
   30.8860   23.4830   45.5950 C   0  0  0  0  0  3  0  0  0  0  0  0
   30.5530   23.5100   46.6670 H   0  0  0  0  0  0  0  0  0  0  0  0
   30.1100   26.8360   43.8800 C   0  0  0  0  0  0  0  0  0  0  0  0
   31.0540   27.6250   43.8140 O   0  0  0  0  0  0  0  0  0  0  0  0
   29.0570   27.5280   43.3380 O   0  0  0  0  0  0  0  0  0  0  0  0
   29.1380   28.0710   42.5090 H   0  0  0  0  0  0  0  0  0  0  0  0
  1  4  1  6  0  0  0
  1  2  1  0  0  0  0
  1  8  1  0  0  0  0
  2  5  1  0  0  0  0
  3  1  1  0  0  0  0
  3  2  1  0  0  0  0
  3  7  1  1  0  0  0
  6  2  1  0  0  0  0
  8  9  2  0  0  0  0
  8 13  1  0  0  0  0
 10 17  1  0  0  0  0
 10 11  2  0  0  0  0
 11 15  1  0  0  0  0
 12 11  1  0  0  0  0
 12 16  1  0  0  0  0
 13 12  2  0  0  0  0
 14 13  1  0  0  0  0
 14 10  1  0  0  0  0
 17 18  2  0  0  0  0
 19 20  1  0  0  0  0
 19 17  1  0  0  0  0
 20 25  1  0  0  0  0
 21 26  1  0  0  0  0
 21 20  2  0  0  0  0
 22 21  1  0  0  0  0
 23 22  2  0  0  0  0
 23 24  1  0  0  0  0
 24 19  2  0  0  0  0
 27 23  1  0  0  0  0
 28  3  1  0  0  0  0
 29 28  1  0  0  0  0
 29 38  1  0  0  0  0
 30 29  2  0  0  0  0
 31 30  1  0  0  0  0
 31 36  1  0  0  0  0
 32 33  1  1  0  0  0
 32 31  1  0  0  0  0
 32 36  1  0  0  0  0
 34 32  1  0  0  0  0
 35 34  1  0  0  0  0
 36 34  1  6  0  0  0
 36 37  1  0  0  0  0
 37 38  1  0  0  0  0
 38 39  1  0  0  0  0
 40 30  1  0  0  0  0
 41 40  2  0  0  0  0
 42 40  1  0  0  0  0
 43 42  1  0  0  0  0
M  END
>  <minimizedAffinity>
-5.15391445

>  <minimizedRMSD>
1.52312779

$$$$
