
 OpenBabel03272509533D

 50 54  0  0  1  0  0  0  0  0999 V2000
   33.7900   27.4130   47.7340 C   0  0  0  0  0  0  0  0  0  0  0  0
   33.9240   26.5450   48.4240 H   0  0  0  0  0  0  0  0  0  0  0  0
   34.2710   27.1090   46.7730 H   0  0  0  0  0  0  0  0  0  0  0  0
   32.3540   27.6040   47.4410 C   0  0  0  0  0  0  0  0  0  0  0  0
   31.4550   27.6460   48.5050 C   0  0  0  0  0  0  0  0  0  0  0  0
   30.1130   27.8170   48.3460 C   0  0  0  0  0  0  0  0  0  0  0  0
   29.6380   27.9520   47.1140 N   0  0  0  0  0  0  0  0  0  0  0  0
   30.5060   27.9130   46.0600 C   0  0  0  0  0  0  0  0  0  0  0  0
   31.8490   27.7430   46.1980 N   0  0  0  0  0  0  0  0  0  0  0  0
   31.8370   27.5360   49.5170 H   0  0  0  0  0  0  0  0  0  0  0  0
   29.4590   27.8420   49.2070 H   0  0  0  0  0  0  0  0  0  0  0  0
   29.9640   28.0670   44.6610 C   0  0  0  0  0  2  0  0  0  0  0  0
   29.1510   29.2700   44.4830 C   0  0  0  0  0  0  0  0  0  0  0  0
   27.8420   29.1980   44.3240 C   0  0  0  0  0  0  0  0  0  0  0  0
   27.0670   30.3700   44.1530 N   0  0  0  0  0  0  0  0  0  0  0  0
   25.9860   30.9790   43.4660 C   0  0  0  0  0  0  0  0  0  0  0  0
   25.0570   30.6960   42.6890 O   0  0  0  0  0  0  0  0  0  0  0  0
   26.3440   32.2930   44.0460 C   0  0  0  0  0  3  0  0  0  0  0  0
   25.4780   32.7390   44.5490 H   0  0  0  0  0  0  0  0  0  0  0  0
   27.3510   31.5880   44.9300 C   0  0  2  0  0  3  0  0  0  0  0  0
   29.0570   32.0230   44.6050 S   0  0  0  0  0  0  0  0  0  0  0  0
   29.9950   30.4840   44.5070 C   0  0  0  0  0  3  0  0  0  0  0  0
   30.6850   30.5380   43.6400 H   0  0  0  0  0  0  0  0  0  0  0  0
   27.1570   27.9140   44.3200 C   0  0  0  0  0  0  0  0  0  0  0  0
   26.0410   27.7140   44.8490 O   0  0  0  0  0  0  0  0  0  0  0  0
   26.8360   26.6020   44.1190 O   0  0  0  0  0  0  0  0  0  0  0  0
   27.5580   25.8800   44.2390 H   0  0  0  0  0  0  0  0  0  0  0  0
   34.4540   28.6670   48.2140 C   0  0  0  0  0  0  0  0  0  0  0  0
   35.4050   28.8530   47.6670 H   0  0  0  0  0  0  0  0  0  0  0  0
   33.8270   29.5660   48.0470 H   0  0  0  0  0  0  0  0  0  0  0  0
   34.8130   28.5460   49.5890 O   0  0  0  0  0  0  0  0  0  0  0  0
   37.3380   30.1480   51.5970 C   0  0  0  0  0  0  0  0  0  0  0  0
   38.0840   30.8160   50.5900 C   0  0  0  0  0  0  0  0  0  0  0  0
   37.6620   30.6660   49.2880 C   0  0  0  0  0  0  0  0  0  0  0  0
   36.5510   29.8790   49.0800 N   0  0  0  0  0  0  0  0  0  0  0  0
   35.8690   29.2620   50.0530 C   0  0  0  0  0  0  0  0  0  0  0  0
   36.2800   29.4080   51.3200 N   0  0  0  0  0  0  0  0  0  0  0  0
   37.7370   30.3190   52.5830 H   0  0  0  0  0  0  0  0  0  0  0  0
   38.9440   31.4260   50.7370 H   0  0  0  0  0  0  0  0  0  0  0  0
   38.9310   33.2570   49.0720 F   0  0  0  0  0  0  0  0  0  0  0  0
   38.8820   32.4700   48.0060 C   0  0  0  0  0  0  0  0  0  0  0  0
   38.2820   31.2600   48.1310 C   0  0  0  0  0  0  0  0  0  0  0  0
   38.2880   30.5150   46.9460 C   0  0  0  0  0  0  0  0  0  0  0  0
   38.8450   30.9650   45.7760 C   0  0  0  0  0  0  0  0  0  0  0  0
   39.4410   32.2020   45.7070 C   0  0  0  0  0  0  0  0  0  0  0  0
   39.4520   32.9570   46.8500 C   0  0  0  0  0  0  0  0  0  0  0  0
   37.8380   29.5180   46.9010 H   0  0  0  0  0  0  0  0  0  0  0  0
   38.8400   30.3750   44.8690 H   0  0  0  0  0  0  0  0  0  0  0  0
   39.8790   32.5630   44.7970 H   0  0  0  0  0  0  0  0  0  0  0  0
   39.9140   33.9340   46.8210 H   0  0  0  0  0  0  0  0  0  0  0  0
  1 28  1  0  0  0  0
  1  2  1  0  0  0  0
  3  1  1  0  0  0  0
  4  1  1  0  0  0  0
  4  5  1  0  0  0  0
  5 10  1  0  0  0  0
  6  5  2  0  0  0  0
  6 11  1  0  0  0  0
  7  6  1  0  0  0  0
  8  9  1  0  0  0  0
  8  7  2  0  0  0  0
  9  4  2  0  0  0  0
 12  8  1  0  0  0  0
 13 22  1  0  0  0  0
 13 12  1  0  0  0  0
 14 13  2  0  0  0  0
 15 14  1  0  0  0  0
 15 20  1  0  0  0  0
 16 18  1  0  0  0  0
 16 15  1  0  0  0  0
 17 16  2  0  0  0  0
 18 19  1  0  0  0  0
 20 18  1  6  0  0  0
 21 20  1  0  0  0  0
 22 21  1  0  0  0  0
 23 22  1  0  0  0  0
 24 14  1  0  0  0  0
 24 25  2  0  0  0  0
 26 27  1  0  0  0  0
 26 24  1  0  0  0  0
 28 31  1  0  0  0  0
 29 28  1  0  0  0  0
 30 28  1  0  0  0  0
 31 36  1  0  0  0  0
 32 38  1  0  0  0  0
 33 39  1  0  0  0  0
 33 32  2  0  0  0  0
 34 33  1  0  0  0  0
 35 34  2  0  0  0  0
 35 36  1  0  0  0  0
 36 37  2  0  0  0  0
 37 32  1  0  0  0  0
 41 42  1  0  0  0  0
 41 40  1  0  0  0  0
 42 34  1  0  0  0  0
 43 42  2  0  0  0  0
 44 43  1  0  0  0  0
 45 44  2  0  0  0  0
 45 46  1  0  0  0  0
 46 41  2  0  0  0  0
 47 43  1  0  0  0  0
 48 44  1  0  0  0  0
 49 45  1  0  0  0  0
 50 46  1  0  0  0  0
M  END
>  <minimizedAffinity>
-6.77223444

>  <minimizedRMSD>
1.52506387

$$$$
