
     RDKit          3D

 46 49  0  0  0  0  0  0  0  0999 V2000
   34.7589   29.4251   48.7971 C   0  0  0  0  0  0  0  0  0  0  0  0
   34.2193   30.0573   47.6627 C   0  0  0  0  0  0  0  0  0  0  0  0
   33.4867   29.2574   46.7843 C   0  0  0  0  0  0  0  0  0  0  0  0
   33.3264   27.9160   47.0581 N   0  0  0  0  0  0  0  0  0  0  0  0
   33.8728   27.3492   48.1777 C   0  0  0  0  0  0  0  0  0  0  0  0
   34.5756   28.1134   49.0211 N   0  0  0  0  0  0  0  0  0  0  0  0
   35.5302   30.3008   49.7330 C   0  0  0  0  0  0  0  0  0  0  0  0
   36.4893   31.1659   48.9391 C   0  0  0  0  0  0  0  0  0  0  0  0
   37.9248   30.7955   49.1669 C   0  0  0  0  0  0  0  0  0  0  0  0
   38.3049   30.7994   50.6251 C   0  0  0  0  0  0  0  0  0  0  0  0
   37.2903   30.1308   51.5010 C   0  0  0  0  0  0  0  0  0  0  0  0
   36.2058   29.4182   50.7249 C   0  0  0  0  0  0  0  0  0  0  0  0
   34.3176   31.1020   47.4076 H   0  0  0  0  0  0  0  0  0  0  0  0
   33.7150   26.3049   48.3373 H   0  0  0  0  0  0  0  0  0  0  0  0
   34.8107   30.9611   50.2440 H   0  0  0  0  0  0  0  0  0  0  0  0
   36.3371   32.2194   49.1942 H   0  0  0  0  0  0  0  0  0  0  0  0
   36.3043   30.9993   47.8438 H   0  0  0  0  0  0  0  0  0  0  0  0
   38.5281   31.6179   48.6850 H   0  0  0  0  0  0  0  0  0  0  0  0
   38.1253   29.8017   48.7172 H   0  0  0  0  0  0  0  0  0  0  0  0
   38.4624   31.8233   50.9916 H   0  0  0  0  0  0  0  0  0  0  0  0
   39.3069   30.2909   50.6881 H   0  0  0  0  0  0  0  0  0  0  0  0
   36.8604   30.8181   52.2445 H   0  0  0  0  0  0  0  0  0  0  0  0
   37.8124   29.3276   52.0842 H   0  0  0  0  0  0  0  0  0  0  0  0
   36.6057   28.4782   50.2912 H   0  0  0  0  0  0  0  0  0  0  0  0
   35.4560   29.0873   51.4763 H   0  0  0  0  0  0  0  0  0  0  0  0
   32.8467   29.7753   45.5307 C   0  0  0  0  0  0  0  0  0  0  0  0
   32.8093   31.2348   45.4467 C   0  0  0  0  0  0  0  0  0  0  0  0
   33.3843   31.9479   44.4901 C   0  0  0  0  0  0  0  0  0  0  0  0
   34.1325   31.3412   43.3956 C   0  0  0  0  0  0  0  0  0  0  0  0
   34.4661   30.2017   43.0017 O   0  0  0  0  0  0  0  0  0  0  0  0
   34.7233   32.0809   42.3981 O   0  0  0  0  0  0  0  0  0  0  0  0
   33.2795   33.3506   44.5156 N   0  0  0  0  0  0  0  0  0  0  0  0
   33.1850   34.5448   43.7923 C   0  0  0  0  0  0  0  0  0  0  0  0
   33.4258   34.9533   42.6131 O   0  0  0  0  0  0  0  0  0  0  0  0
   32.6579   35.2964   44.9332 C   0  0  2  0  0  0  0  0  0  0  0  0
   31.5569   35.3678   44.8986 H   0  0  0  0  0  0  0  0  0  0  0  0
   33.2237   34.1412   45.7327 C   0  0  1  0  0  0  0  0  0  0  0  0
   31.8854   33.4700   46.7783 S   0  0  0  0  0  0  0  0  0  0  0  0
   32.0200   31.6697   46.6206 C   0  0  1  0  0  0  0  0  0  0  0  0
   31.0302   31.1753   46.7070 H   0  0  0  0  0  0  0  0  0  0  0  0
   31.8295   29.3130   45.5322 H   0  0  0  0  0  0  0  0  0  0  0  0
   33.3824   29.2757   44.7113 H   0  0  0  0  0  0  0  0  0  0  0  0
   34.6828   31.9196   41.3985 H   0  0  0  0  0  0  0  0  0  0  0  0
   33.1471   36.2732   45.1268 H   0  0  0  0  0  0  0  0  0  0  0  0
   34.1671   34.3528   46.2356 H   0  0  0  0  0  0  0  0  0  0  0  0
   32.5944   31.3482   47.5420 H   0  0  0  0  0  0  0  0  0  0  0  0
  1  6  1  0
  1  7  1  0
  2  1  2  0
  3  4  2  0
  3  2  1  0
  4  5  1  0
  5  6  2  0
  7 12  1  0
  8  9  1  0
  8  7  1  0
  9 10  1  0
 10 11  1  0
 12 11  1  0
  2 13  1  0
  5 14  1  0
  7 15  1  0
  8 16  1  0
  8 17  1  0
  9 18  1  0
  9 19  1  0
 10 20  1  0
 10 21  1  0
 11 22  1  0
 11 23  1  0
 12 24  1  0
 12 25  1  0
 26 27  1  0
 27 28  2  0
 28 29  1  0
 29 30  2  0
 29 31  1  0
 28 32  1  0
 32 33  1  0
 33 34  2  0
 33 35  1  0
 35 36  1  6
 35 37  1  0
 37 38  1  0
 38 39  1  0
 39 40  1  6
 39 27  1  0
 37 32  1  0
 26 41  1  0
 26 42  1  0
 31 43  1  0
 35 44  1  0
 37 45  1  1
 39 46  1  0
  3 26  1  0
M  ISO  8  13  14  14  14  15  13  16  13  17  13  18  13  19  13  20  13
M  ISO  7  21  13  22  13  23  13  24  13  25  13  36  15  40  15
M  END
>  <DihAtoms>  (1) 
3,2,25,26

>  <DihDeg>  (1) 
-87.34709850325552

$$$$
