
 OpenBabel03272509523D

 50 54  0  0  1  0  0  0  0  0999 V2000
   33.3240   27.4280   48.4480 C   0  0  0  0  0  0  0  0  0  0  0  0
   33.3240   26.8860   49.4240 H   0  0  0  0  0  0  0  0  0  0  0  0
   33.7080   26.6940   47.6980 H   0  0  0  0  0  0  0  0  0  0  0  0
   31.9360   27.7450   48.0500 C   0  0  0  0  0  0  0  0  0  0  0  0
   30.9430   27.7360   49.0270 C   0  0  0  0  0  0  0  0  0  0  0  0
   29.6350   28.0130   48.7690 C   0  0  0  0  0  0  0  0  0  0  0  0
   29.2880   28.3070   47.5220 N   0  0  0  0  0  0  0  0  0  0  0  0
   30.2500   28.3200   46.5520 C   0  0  0  0  0  0  0  0  0  0  0  0
   31.5610   28.0460   46.7890 N   0  0  0  0  0  0  0  0  0  0  0  0
   31.2180   27.4960   50.0510 H   0  0  0  0  0  0  0  0  0  0  0  0
   28.9030   27.9920   49.5650 H   0  0  0  0  0  0  0  0  0  0  0  0
   29.8550   28.6550   45.1360 C   0  0  0  0  0  2  0  0  0  0  0  0
   30.4270   29.9140   44.6550 C   0  0  0  0  0  0  0  0  0  0  0  0
   29.6930   31.0090   44.5640 C   0  0  0  0  0  0  0  0  0  0  0  0
   30.2580   32.2210   44.0980 N   0  0  0  0  0  0  0  0  0  0  0  0
   30.0710   33.3800   43.3030 C   0  0  0  0  0  0  0  0  0  0  0  0
   29.1880   33.9770   42.6630 O   0  0  0  0  0  0  0  0  0  0  0  0
   31.4950   33.7470   43.4850 C   0  0  0  0  0  3  0  0  0  0  0  0
   31.5800   34.7710   43.8720 H   0  0  0  0  0  0  0  0  0  0  0  0
   31.6150   32.6290   44.4980 C   0  0  2  0  0  3  0  0  0  0  0  0
   32.7180   31.3050   44.0140 S   0  0  0  0  0  0  0  0  0  0  0  0
   31.8550   29.7480   44.3180 C   0  0  0  0  0  3  0  0  0  0  0  0
   32.0100   29.0750   43.4490 H   0  0  0  0  0  0  0  0  0  0  0  0
   28.2860   31.0050   44.9370 C   0  0  0  0  0  0  0  0  0  0  0  0
   27.6940   31.9830   45.4440 O   0  0  0  0  0  0  0  0  0  0  0  0
   26.9890   30.6350   45.1500 O   0  0  0  0  0  0  0  0  0  0  0  0
   26.7870   29.7020   45.5300 H   0  0  0  0  0  0  0  0  0  0  0  0
   34.2190   28.6280   48.4290 C   0  0  0  0  0  0  0  0  0  0  0  0
   35.2600   28.3510   48.1510 H   0  0  0  0  0  0  0  0  0  0  0  0
   33.8960   29.3830   47.6830 H   0  0  0  0  0  0  0  0  0  0  0  0
   34.3050   29.2060   49.7310 O   0  0  0  0  0  0  0  0  0  0  0  0
   37.2370   29.9330   51.6910 C   0  0  0  0  0  0  0  0  0  0  0  0
   38.0480   30.5750   50.7180 C   0  0  0  0  0  0  0  0  0  0  0  0
   37.5230   30.7110   49.4520 C   0  0  0  0  0  0  0  0  0  0  0  0
   36.2570   30.2110   49.2450 N   0  0  0  0  0  0  0  0  0  0  0  0
   35.5180   29.6100   50.1860 C   0  0  0  0  0  0  0  0  0  0  0  0
   36.0290   29.4780   51.4170 N   0  0  0  0  0  0  0  0  0  0  0  0
   37.7240   29.8680   52.6510 H   0  0  0  0  0  0  0  0  0  0  0  0
   39.0270   30.9650   50.8640 H   0  0  0  0  0  0  0  0  0  0  0  0
   38.8710   33.2700   49.3630 F   0  0  0  0  0  0  0  0  0  0  0  0
   38.8230   32.5260   48.2660 C   0  0  0  0  0  0  0  0  0  0  0  0
   38.1850   31.3310   48.3320 C   0  0  0  0  0  0  0  0  0  0  0  0
   38.1950   30.6320   47.1190 C   0  0  0  0  0  0  0  0  0  0  0  0
   38.7900   31.1100   45.9800 C   0  0  0  0  0  0  0  0  0  0  0  0
   39.4230   32.3310   45.9710 C   0  0  0  0  0  0  0  0  0  0  0  0
   39.4320   33.0410   47.1420 C   0  0  0  0  0  0  0  0  0  0  0  0
   37.7170   29.6520   47.0260 H   0  0  0  0  0  0  0  0  0  0  0  0
   38.7880   30.5560   45.0500 H   0  0  0  0  0  0  0  0  0  0  0  0
   39.8910   32.7130   45.0850 H   0  0  0  0  0  0  0  0  0  0  0  0
   39.9220   34.0030   47.1610 H   0  0  0  0  0  0  0  0  0  0  0  0
  1  2  1  0  0  0  0
  3  1  1  0  0  0  0
  4  1  1  0  0  0  0
  4  5  1  0  0  0  0
  5 10  1  0  0  0  0
  6  5  2  0  0  0  0
  6 11  1  0  0  0  0
  7  6  1  0  0  0  0
  8  9  1  0  0  0  0
  8  7  2  0  0  0  0
  9  4  2  0  0  0  0
 12  8  1  0  0  0  0
 13 12  1  0  0  0  0
 14 13  2  0  0  0  0
 14 24  1  0  0  0  0
 15 20  1  0  0  0  0
 15 14  1  0  0  0  0
 16 18  1  0  0  0  0
 16 15  1  0  0  0  0
 17 16  2  0  0  0  0
 18 19  1  0  0  0  0
 20 18  1  6  0  0  0
 21 22  1  0  0  0  0
 21 20  1  0  0  0  0
 22 13  1  0  0  0  0
 23 22  1  0  0  0  0
 24 26  1  0  0  0  0
 24 25  2  0  0  0  0
 26 27  1  0  0  0  0
 28  1  1  0  0  0  0
 28 31  1  0  0  0  0
 29 28  1  0  0  0  0
 30 28  1  0  0  0  0
 31 36  1  0  0  0  0
 32 38  1  0  0  0  0
 33 39  1  0  0  0  0
 33 32  2  0  0  0  0
 34 33  1  0  0  0  0
 35 34  2  0  0  0  0
 35 36  1  0  0  0  0
 36 37  2  0  0  0  0
 37 32  1  0  0  0  0
 41 42  1  0  0  0  0
 41 40  1  0  0  0  0
 42 34  1  0  0  0  0
 43 42  2  0  0  0  0
 44 43  1  0  0  0  0
 45 44  2  0  0  0  0
 45 46  1  0  0  0  0
 46 50  1  0  0  0  0
 46 41  2  0  0  0  0
 47 43  1  0  0  0  0
 48 44  1  0  0  0  0
 49 45  1  0  0  0  0
M  END
>  <minimizedAffinity>
-6.80627823

>  <minimizedRMSD>
0.891619921

$$$$
