
     RDKit          3D

 46 49  0  0  0  0  0  0  0  0999 V2000
   34.7567   29.4325   48.7949 C   0  0  0  0  0  0  0  0  0  0  0  0
   34.2348   30.0534   47.6460 C   0  0  0  0  0  0  0  0  0  0  0  0
   33.5053   29.2425   46.7677 C   0  0  0  0  0  0  0  0  0  0  0  0
   33.3388   27.9115   47.0648 N   0  0  0  0  0  0  0  0  0  0  0  0
   33.8621   27.3526   48.1895 C   0  0  0  0  0  0  0  0  0  0  0  0
   34.5638   28.1230   49.0377 N   0  0  0  0  0  0  0  0  0  0  0  0
   35.5201   30.3046   49.7327 C   0  0  2  0  0  0  0  0  0  0  0  0
   36.4661   31.1781   48.9659 C   0  0  0  0  0  0  0  0  0  0  0  0
   37.9248   30.8239   49.1699 C   0  0  1  0  0  0  0  0  0  0  0  0
   38.3080   30.7848   50.6030 C   0  0  0  0  0  0  0  0  0  0  0  0
   37.3153   30.0863   51.4848 C   0  0  0  0  0  0  0  0  0  0  0  0
   36.1894   29.4359   50.7341 C   0  0  0  0  0  0  0  0  0  0  0  0
   34.3288   31.0737   47.3661 H   0  0  0  0  0  0  0  0  0  0  0  0
   33.0806   29.6476   45.8757 H   0  0  0  0  0  0  0  0  0  0  0  0
   33.6760   26.2975   48.3342 H   0  0  0  0  0  0  0  0  0  0  0  0
   34.7190   30.9324   50.2265 H   0  0  0  0  0  0  0  0  0  0  0  0
   36.3316   32.2266   49.3447 H   0  0  0  0  0  0  0  0  0  0  0  0
   36.2804   31.1545   47.8945 H   0  0  0  0  0  0  0  0  0  0  0  0
   38.4489   31.7660   48.7712 H   0  0  0  0  0  0  0  0  0  0  0  0
   39.3000   30.3302   50.7251 H   0  0  0  0  0  0  0  0  0  0  0  0
   38.4487   31.8467   50.9995 H   0  0  0  0  0  0  0  0  0  0  0  0
   36.8543   30.8447   52.1543 H   0  0  0  0  0  0  0  0  0  0  0  0
   37.7848   29.3280   52.1438 H   0  0  0  0  0  0  0  0  0  0  0  0
   36.4017   28.3979   50.3948 H   0  0  0  0  0  0  0  0  0  0  0  0
   35.3945   29.2543   51.5377 H   0  0  0  0  0  0  0  0  0  0  0  0
   38.4005   29.7486   48.2729 C   0  0  0  0  0  0  0  0  0  0  0  0
   38.3186   29.9898   46.8238 C   0  0  0  0  0  0  0  0  0  0  0  0
   37.4278   29.2028   46.2153 C   0  0  0  0  0  0  0  0  0  0  0  0
   36.6358   28.2140   46.9870 C   0  0  0  0  0  0  0  0  0  0  0  0
   35.7564   27.4011   46.5419 O   0  0  0  0  0  0  0  0  0  0  0  0
   36.1371   27.4686   48.0352 O   0  0  0  0  0  0  0  0  0  0  0  0
   37.2029   29.2564   44.8230 N   0  0  0  0  0  0  0  0  0  0  0  0
   36.3122   29.3803   43.7106 C   0  0  0  0  0  0  0  0  0  0  0  0
   35.0744   29.0870   43.5766 O   0  0  0  0  0  0  0  0  0  0  0  0
   37.4047   29.9586   42.8602 C   0  0  2  0  0  0  0  0  0  0  0  0
   37.5364   31.0454   42.9284 H   0  0  0  0  0  0  0  0  0  0  0  0
   38.2692   29.1518   43.8154 C   0  0  1  0  0  0  0  0  0  0  0  0
   39.7075   30.0187   44.4782 S   0  0  0  0  0  0  0  0  0  0  0  0
   39.0639   30.9267   45.9484 C   0  0  1  0  0  0  0  0  0  0  0  0
   38.4627   31.7358   45.5335 H   0  0  0  0  0  0  0  0  0  0  0  0
   38.0185   28.7412   48.5589 H   0  0  0  0  0  0  0  0  0  0  0  0
   39.5265   29.6704   48.4584 H   0  0  0  0  0  0  0  0  0  0  0  0
   35.8117   27.9394   48.8959 H   0  0  0  0  0  0  0  0  0  0  0  0
   37.4947   29.5509   41.8482 H   0  0  0  0  0  0  0  0  0  0  0  0
   38.4889   28.1266   43.4725 H   0  0  0  0  0  0  0  0  0  0  0  0
   39.9958   31.2829   46.4542 H   0  0  0  0  0  0  0  0  0  0  0  0
  1  6  1  0
  1  7  1  0
  2  1  2  0
  3  4  2  0
  3  2  1  0
  4  5  1  0
  5  6  2  0
  7 12  1  0
  8  9  1  0
  8  7  1  0
  9 10  1  0
 10 11  1  0
 12 11  1  0
  2 13  1  0
  3 14  1  0
  5 15  1  0
  7 16  1  1
  8 17  1  0
  8 18  1  0
  9 19  1  6
 10 20  1  0
 10 21  1  0
 11 22  1  0
 11 23  1  0
 12 24  1  0
 12 25  1  0
 26 27  1  0
 27 28  2  0
 28 29  1  0
 29 30  2  0
 29 31  1  0
 28 32  1  0
 32 33  1  0
 33 34  2  0
 33 35  1  0
 35 36  1  6
 35 37  1  0
 37 38  1  0
 38 39  1  0
 39 40  1  6
 39 27  1  0
 37 32  1  0
 26 41  1  0
 26 42  1  0
 31 43  1  0
 35 44  1  0
 37 45  1  6
 39 46  1  0
  9 26  1  0
M  ISO  8  13  14  14  14  15  14  16  13  17  13  18  13  19  13  20  13
M  ISO  7  21  13  22  13  23  13  24  13  25  13  36  15  40  15
M  END
>  <DihAtoms>  (1) 
7,8,25,26

>  <DihDeg>  (1) 
179.95387872055312

$$$$
