REMARK  Name = 
REMARK  10 active torsions:
REMARK  status: ('A' for Active; 'I' for Inactive)
REMARK    1  A    between atoms: C_1  and  C_2
REMARK    2  A    between atoms: C_1  and  C_13
REMARK    3  A    between atoms: C_2  and  O_3
REMARK    4  A    between atoms: O_3  and  C_4
REMARK    5  A    between atoms: C_13  and  S_14
REMARK    6  A    between atoms: S_14  and  C_16
REMARK    7  A    between atoms: C_23  and  C_39
REMARK    8  A    between atoms: C_39  and  C_40
REMARK    9  A    between atoms: C_41  and  C_42
REMARK   10  A    between atoms: C_42  and  O_44
REMARK                            x       y       z     vdW  Elec       q    Type
REMARK                         _______ _______ _______ _____ _____    ______ ____
ROOT
ATOM      1  C   UNL     1      40.381  25.115  53.403  0.00  0.00    +0.000 A 
ATOM      2  C   UNL     1      39.813  25.996  52.491  0.00  0.00    +0.000 A 
ATOM      3  C   UNL     1      40.182  25.791  51.146  0.00  0.00    +0.000 A 
ATOM      4  C   UNL     1      41.031  24.809  50.739  0.00  0.00    +0.000 A 
ATOM      5  N   UNL     1      41.539  24.404  49.582  0.00  0.00    +0.000 N 
ATOM      6  C   UNL     1      42.382  23.324  49.753  0.00  0.00    +0.000 A 
ATOM      7  C   UNL     1      42.388  23.047  51.136  0.00  0.00    +0.000 A 
ATOM      8  C   UNL     1      41.554  23.975  51.691  0.00  0.00    +0.000 A 
ATOM      9  C   UNL     1      41.234  24.127  52.997  0.00  0.00    +0.000 A 
ATOM     10  H   UNL     1      40.037  25.354  54.404  0.00  0.00    +0.000 HD
ATOM     11  H   UNL     1      39.794  26.430  50.336  0.00  0.00    +0.000 HD
ATOM     12  H   UNL     1      41.320  24.855  48.660  0.00  0.00    +0.000 HD
ATOM     13  H   UNL     1      42.908  22.821  48.979  0.00  0.00    +0.000 HD
ATOM     14  H   UNL     1      42.991  22.235  51.499  0.00  0.00    +0.000 HD
ENDROOT
BRANCH   2  15
ATOM     15  S   UNL     1      38.698  27.331  52.773  0.00  0.00    +0.000 S 
BRANCH  15  16
ATOM     16  C   UNL     1      38.169  28.198  51.315  0.00  0.00    +0.000 C 
ATOM     17  H   UNL     1      39.078  28.689  50.869  0.00  0.00    +0.000 HD
ATOM     18  H   UNL     1      37.818  27.478  50.544  0.00  0.00    +0.000 HD
BRANCH  16  19
ATOM     19  C   UNL     1      37.139  29.279  51.571  0.00  0.00    +0.000 C 
ATOM     20  H   UNL     1      36.163  28.850  51.247  0.00  0.00    +0.000 HD
ATOM     21  H   UNL     1      37.039  29.312  52.698  0.00  0.00    +0.000 HD
BRANCH  19  22
ATOM     22  C   UNL     1      37.466  30.489  51.042  0.00  0.00    +0.000 C 
ATOM     23  H   UNL     1      38.510  30.834  51.304  0.00  0.00    +0.000 HD
ATOM     24  H   UNL     1      36.761  31.325  51.233  0.00  0.00    +0.000 HD
BRANCH  22  25
ATOM     25  O   UNL     1      37.438  30.146  49.714  0.00  0.00    +0.000 OA
BRANCH  25  26
ATOM     26  C   UNL     1      38.038  30.985  48.821  0.00  0.00    +0.000 A 
ATOM     27  C   UNL     1      38.354  32.211  49.354  0.00  0.00    +0.000 A 
ATOM     28  C   UNL     1      38.978  33.172  48.537  0.00  0.00    +0.000 A 
ATOM     29  N   UNL     1      39.235  32.819  47.248  0.00  0.00    +0.000 NA
ATOM     30  C   UNL     1      38.909  31.587  46.742  0.00  0.00    +0.000 A 
ATOM     31  N   UNL     1      38.311  30.685  47.547  0.00  0.00    +0.000 NA
ATOM     32  C   UNL     1      39.808  32.408  44.689  0.00  0.00    +0.000 C 
ATOM     33  O   UNL     1      40.063  33.545  45.170  0.00  0.00    +0.000 OA
ATOM     34  N   UNL     1      39.220  31.323  45.386  0.00  0.00    +0.000 N 
ATOM     35  H   UNL     1      38.201  32.603  50.350  0.00  0.00    +0.000 HD
ATOM     36  H   UNL     1      39.261  34.149  48.859  0.00  0.00    +0.000 HD
ATOM     37  H   UNL     1      40.094  32.326  43.634  0.00  0.00    +0.000 HD
ATOM     38  H   UNL     1      39.037  30.421  44.940  0.00  0.00    +0.000 HD
ENDBRANCH  25  26
ENDBRANCH  22  25
ENDBRANCH  19  22
ENDBRANCH  16  19
ENDBRANCH  15  16
ENDBRANCH   2  15
BRANCH   9  39
ATOM     39  C   UNL     1      41.664  23.313  54.165  0.00  0.00    +0.000 C 
BRANCH  39  40
ATOM     40  C   UNL     1      42.792  23.889  54.935  0.00  0.00    +0.000 C 
ATOM     41  C   UNL     1      43.897  23.147  55.024  0.00  0.00    +0.000 C 
ATOM     42  N   UNL     1      45.114  23.411  55.672  0.00  0.00    +0.000 N 
ATOM     43  C   UNL     1      46.341  23.007  56.262  0.00  0.00    +0.000 C 
ATOM     44  O   UNL     1      47.113  22.032  55.985  0.00  0.00    +0.000 OA
ATOM     45  C   UNL     1      46.203  24.159  57.194  0.00  0.00    +0.000 C 
ATOM     46  H   UNL     1      47.131  24.682  57.472  0.00  0.00    +0.000 HD
ATOM     47  C   UNL     1      45.473  24.755  55.984  0.00  0.00    +0.000 C 
ATOM     48  S   UNL     1      44.059  25.694  56.565  0.00  0.00    +0.000 S 
ATOM     49  C   UNL     1      42.635  25.226  55.550  0.00  0.00    +0.000 C 
ATOM     50  H   UNL     1      42.550  25.938  54.689  0.00  0.00    +0.000 HD
BRANCH  41  51
ATOM     51  C   UNL     1      43.852  21.833  54.334  0.00  0.00    +0.000 C 
ATOM     52  O   UNL     1      44.855  21.035  54.355  0.00  0.00    +0.000 OA
BRANCH  51  53
ATOM     53  O   UNL     1      43.545  20.691  53.621  0.00  0.00    +0.000 OA
ATOM     54  H   UNL     1      43.139  20.727  52.696  0.00  0.00    +0.000 HD
ENDBRANCH  51  53
ENDBRANCH  41  51
ENDBRANCH  39  40
ENDBRANCH   9  39
TORSDOF 10
