
 OpenBabel03272501103D

 47 51  0  0  1  0  0  0  0  0999 V2000
   36.8620   24.9880   32.4680 Cl  0  0  0  0  0  0  0  0  0  0  0  0
   37.4030   25.9200   33.8420 C   0  0  0  0  0  0  0  0  0  0  0  0
   37.0010   27.2470   33.8100 C   0  0  0  0  0  0  0  0  0  0  0  0
   37.4040   28.0100   34.8920 C   0  0  0  0  0  0  0  0  0  0  0  0
   38.1560   27.4910   35.9360 C   0  0  0  0  0  0  0  0  0  0  0  0
   38.5250   26.1580   35.9040 C   0  0  0  0  0  0  0  0  0  0  0  0
   38.1460   25.3770   34.8560 C   0  0  0  0  0  0  0  0  0  0  0  0
   37.1910   29.0560   35.0470 H   0  0  0  0  0  0  0  0  0  0  0  0
   38.4890   28.0540   36.7960 H   0  0  0  0  0  0  0  0  0  0  0  0
   39.1160   25.7360   36.6960 H   0  0  0  0  0  0  0  0  0  0  0  0
   36.2820   27.9810   32.9310 O   0  0  0  0  0  0  0  0  0  0  0  0
   36.2900   29.2440   32.4490 C   0  0  2  0  0  0  0  0  0  0  0  0
   34.8790   29.9160   32.5260 C   0  0  2  0  0  0  0  0  0  0  0  0
   34.9810   30.8830   31.4440 C   0  0  0  0  0  0  0  0  0  0  0  0
   35.7300   30.3080   30.4200 O   0  0  0  0  0  0  0  0  0  0  0  0
   36.3410   29.1890   30.8970 C   0  0  0  0  0  0  0  0  0  0  0  0
   37.0760   29.9070   32.7920 H   0  0  0  0  0  0  0  0  0  0  0  0
   34.1650   29.1010   32.2710 H   0  0  0  0  0  0  0  0  0  0  0  0
   33.9530   31.0500   31.0070 H   0  0  0  0  0  0  0  0  0  0  0  0
   35.3380   31.8900   31.6920 H   0  0  0  0  0  0  0  0  0  0  0  0
   37.4050   29.1910   30.6130 H   0  0  0  0  0  0  0  0  0  0  0  0
   35.8790   28.2760   30.5270 H   0  0  0  0  0  0  0  0  0  0  0  0
   35.1650   31.5820   35.8930 C   0  0  0  0  0  0  0  0  0  0  0  0
   35.5220   31.1480   34.5860 C   0  0  0  0  0  0  0  0  0  0  0  0
   34.5790   30.3950   33.8450 C   0  0  0  0  0  0  0  0  0  0  0  0
   33.3510   30.1160   34.4290 N   0  0  0  0  0  0  0  0  0  0  0  0
   33.0630   30.5480   35.6660 C   0  0  0  0  0  0  0  0  0  0  0  0
   33.9520   31.2750   36.4020 N   0  0  0  0  0  0  0  0  0  0  0  0
   35.8460   32.1580   36.4980 H   0  0  0  0  0  0  0  0  0  0  0  0
   36.4790   31.4000   34.2070 H   0  0  0  0  0  0  0  0  0  0  0  0
   32.0680   30.2490   35.9820 H   0  0  0  0  0  0  0  0  0  0  0  0
   38.4580   23.9400   34.6520 C   0  0  0  0  0  2  0  0  0  0  0  0
   39.8100   23.5190   34.9590 C   0  0  0  0  0  0  0  0  0  0  0  0
   40.0800   23.0610   36.1480 C   0  0  0  0  0  0  0  0  0  0  0  0
   41.4220   22.6590   36.4780 N   0  0  0  0  0  0  0  0  0  0  0  0
   42.3180   21.6580   37.0050 C   0  0  0  0  0  0  0  0  0  0  0  0
   42.1800   20.7640   37.9060 O   0  0  0  0  0  0  0  0  0  0  0  0
   43.3310   22.1820   36.0450 C   0  0  0  0  0  3  0  0  0  0  0  0
   43.2060   21.8160   35.0140 H   0  0  0  0  0  0  0  0  0  0  0  0
   42.6100   23.4870   36.2740 C   0  0  1  0  0  3  0  0  0  0  0  0
   42.3560   24.4100   34.7400 S   0  0  0  0  0  0  0  0  0  0  0  0
   40.8930   23.6190   33.9550 C   0  0  0  0  0  3  0  0  0  0  0  0
   40.5940   24.3090   33.1480 H   0  0  0  0  0  0  0  0  0  0  0  0
   39.1270   22.9100   37.2750 C   0  0  0  0  0  0  0  0  0  0  0  0
   39.2460   23.0090   38.5120 O   0  0  0  0  0  0  0  0  0  0  0  0
   37.8270   22.6340   37.6540 O   0  0  0  0  0  0  0  0  0  0  0  0
   37.3940   21.7040   37.5470 H   0  0  0  0  0  0  0  0  0  0  0  0
  1  2  1  0  0  0  0
  2  7  1  0  0  0  0
  3  2  2  0  0  0  0
  3  4  1  0  0  0  0
  4  8  1  0  0  0  0
  4  5  2  0  0  0  0
  5  9  1  0  0  0  0
  6  5  1  0  0  0  0
  6 10  1  0  0  0  0
  7  6  2  0  0  0  0
 11  3  1  0  0  0  0
 12 13  1  0  0  0  0
 12 17  1  1  0  0  0
 12 11  1  0  0  0  0
 13 18  1  6  0  0  0
 13 25  1  0  0  0  0
 14 20  1  0  0  0  0
 14 13  1  0  0  0  0
 15 16  1  0  0  0  0
 15 14  1  0  0  0  0
 16 12  1  0  0  0  0
 19 14  1  0  0  0  0
 21 16  1  0  0  0  0
 22 16  1  0  0  0  0
 23 28  1  0  0  0  0
 23 29  1  0  0  0  0
 24 23  2  0  0  0  0
 25 26  2  0  0  0  0
 25 24  1  0  0  0  0
 26 27  1  0  0  0  0
 27 31  1  0  0  0  0
 27 28  2  0  0  0  0
 30 24  1  0  0  0  0
 32  7  1  0  0  0  0
 32 33  1  0  0  0  0
 33 34  2  0  0  0  0
 34 35  1  0  0  0  0
 34 44  1  0  0  0  0
 35 36  1  0  0  0  0
 36 37  2  0  0  0  0
 38 40  1  0  0  0  0
 38 36  1  0  0  0  0
 39 38  1  0  0  0  0
 40 41  1  6  0  0  0
 40 35  1  0  0  0  0
 42 41  1  0  0  0  0
 42 33  1  0  0  0  0
 43 42  1  0  0  0  0
 44 46  1  0  0  0  0
 44 45  2  0  0  0  0
 47 46  1  0  0  0  0
M  END
>  <minimizedAffinity>
-6.4851408

$$$$

 OpenBabel03272501103D

 47 51  0  0  1  0  0  0  0  0999 V2000
   36.6030   28.5460   34.7220 Cl  0  0  0  0  0  0  0  0  0  0  0  0
   36.5760   28.6670   32.9800 C   0  0  0  0  0  0  0  0  0  0  0  0
   37.1580   27.5850   32.3360 C   0  0  0  0  0  0  0  0  0  0  0  0
   37.1410   27.6450   30.9540 C   0  0  0  0  0  0  0  0  0  0  0  0
   36.5850   28.7080   30.2580 C   0  0  0  0  0  0  0  0  0  0  0  0
   36.0210   29.7560   30.9630 C   0  0  0  0  0  0  0  0  0  0  0  0
   36.0200   29.7310   32.3240 C   0  0  0  0  0  0  0  0  0  0  0  0
   37.5430   26.9040   30.2800 H   0  0  0  0  0  0  0  0  0  0  0  0
   36.5520   28.7900   29.1800 H   0  0  0  0  0  0  0  0  0  0  0  0
   35.5930   30.5940   30.4450 H   0  0  0  0  0  0  0  0  0  0  0  0
   37.7550   26.4520   32.7720 O   0  0  0  0  0  0  0  0  0  0  0  0
   38.9950   26.0620   33.1460 C   0  0  2  0  0  0  0  0  0  0  0  0
   39.1830   26.0950   34.6990 C   0  0  2  0  0  0  0  0  0  0  0  0
   40.6210   26.2860   34.7920 C   0  0  0  0  0  0  0  0  0  0  0  0
   41.0160   27.1180   33.7470 O   0  0  0  0  0  0  0  0  0  0  0  0
   39.9940   27.2140   32.8530 C   0  0  0  0  0  0  0  0  0  0  0  0
   39.3870   25.1510   32.7070 H   0  0  0  0  0  0  0  0  0  0  0  0
   38.6330   27.0050   35.0290 H   0  0  0  0  0  0  0  0  0  0  0  0
   40.8510   26.8610   35.7370 H   0  0  0  0  0  0  0  0  0  0  0  0
   41.2520   25.3900   34.8590 H   0  0  0  0  0  0  0  0  0  0  0  0
   40.3710   27.0580   31.8300 H   0  0  0  0  0  0  0  0  0  0  0  0
   39.4950   28.1810   32.9000 H   0  0  0  0  0  0  0  0  0  0  0  0
   37.5440   23.8450   37.2370 C   0  0  0  0  0  0  0  0  0  0  0  0
   38.0970   25.0210   36.6590 C   0  0  0  0  0  0  0  0  0  0  0  0
   38.6020   24.9490   35.3380 C   0  0  0  0  0  0  0  0  0  0  0  0
   38.5350   23.7330   34.6700 N   0  0  0  0  0  0  0  0  0  0  0  0
   38.0050   22.6520   35.2610 C   0  0  0  0  0  0  0  0  0  0  0  0
   37.5110   22.6920   36.5320 N   0  0  0  0  0  0  0  0  0  0  0  0
   37.1470   23.8460   38.2390 H   0  0  0  0  0  0  0  0  0  0  0  0
   38.1130   25.9130   37.2300 H   0  0  0  0  0  0  0  0  0  0  0  0
   38.0260   21.7810   34.6140 H   0  0  0  0  0  0  0  0  0  0  0  0
   35.4720   30.7650   33.2360 C   0  0  0  0  0  2  0  0  0  0  0  0
   34.0650   30.6600   33.5670 C   0  0  0  0  0  0  0  0  0  0  0  0
   33.6750   30.9260   34.7810 C   0  0  0  0  0  0  0  0  0  0  0  0
   32.2840   30.8060   35.1340 N   0  0  0  0  0  0  0  0  0  0  0  0
   31.1030   31.3940   35.7180 C   0  0  0  0  0  0  0  0  0  0  0  0
   30.9330   32.2270   36.6700 O   0  0  0  0  0  0  0  0  0  0  0  0
   30.3220   30.5960   34.7290 C   0  0  0  0  0  3  0  0  0  0  0  0
   30.2880   31.0390   33.7210 H   0  0  0  0  0  0  0  0  0  0  0  0
   31.4640   29.6220   34.8820 C   0  0  1  0  0  3  0  0  0  0  0  0
   31.9970   28.9350   33.2970 S   0  0  0  0  0  0  0  0  0  0  0  0
   33.0680   30.2370   32.5590 C   0  0  0  0  0  3  0  0  0  0  0  0
   33.5760   29.7430   31.7140 H   0  0  0  0  0  0  0  0  0  0  0  0
   34.5350   31.3450   35.9150 C   0  0  0  0  0  0  0  0  0  0  0  0
   34.2930   31.8540   37.0270 O   0  0  0  0  0  0  0  0  0  0  0  0
   35.8230   31.4460   36.4070 O   0  0  0  0  0  0  0  0  0  0  0  0
   36.5270   32.0920   36.0160 H   0  0  0  0  0  0  0  0  0  0  0  0
  2  1  1  0  0  0  0
  3 11  1  0  0  0  0
  3  2  1  0  0  0  0
  4  3  2  0  0  0  0
  5  4  1  0  0  0  0
  5  6  2  0  0  0  0
  6  7  1  0  0  0  0
  7  2  2  0  0  0  0
  7 32  1  0  0  0  0
  8  4  1  0  0  0  0
  9  5  1  0  0  0  0
 10  6  1  0  0  0  0
 11 12  1  0  0  0  0
 12 17  1  6  0  0  0
 12 13  1  0  0  0  0
 13 14  1  0  0  0  0
 13 18  1  1  0  0  0
 13 25  1  0  0  0  0
 14 20  1  0  0  0  0
 14 19  1  0  0  0  0
 15 14  1  0  0  0  0
 16 22  1  0  0  0  0
 16 12  1  0  0  0  0
 16 15  1  0  0  0  0
 21 16  1  0  0  0  0
 23 29  1  0  0  0  0
 24 30  1  0  0  0  0
 24 23  1  0  0  0  0
 25 24  2  0  0  0  0
 26 27  2  0  0  0  0
 26 25  1  0  0  0  0
 27 28  1  0  0  0  0
 28 23  2  0  0  0  0
 31 27  1  0  0  0  0
 32 33  1  0  0  0  0
 33 34  2  0  0  0  0
 34 35  1  0  0  0  0
 34 44  1  0  0  0  0
 35 36  1  0  0  0  0
 36 37  2  0  0  0  0
 38 40  1  0  0  0  0
 38 36  1  0  0  0  0
 39 38  1  0  0  0  0
 40 41  1  6  0  0  0
 40 35  1  0  0  0  0
 42 41  1  0  0  0  0
 42 33  1  0  0  0  0
 43 42  1  0  0  0  0
 44 46  1  0  0  0  0
 44 45  2  0  0  0  0
 47 46  1  0  0  0  0
M  END
>  <minimizedAffinity>
-6.27235365

$$$$

 OpenBabel03272501103D

 47 51  0  0  1  0  0  0  0  0999 V2000
   39.1500   27.1570   34.5370 Cl  0  0  0  0  0  0  0  0  0  0  0  0
   38.1970   26.0850   33.5420 C   0  0  0  0  0  0  0  0  0  0  0  0
   38.2790   24.7520   33.9190 C   0  0  0  0  0  0  0  0  0  0  0  0
   37.5250   23.8780   33.1570 C   0  0  0  0  0  0  0  0  0  0  0  0
   36.7430   24.2970   32.0910 C   0  0  0  0  0  0  0  0  0  0  0  0
   36.7080   25.6420   31.7660 C   0  0  0  0  0  0  0  0  0  0  0  0
   37.4370   26.5310   32.4950 C   0  0  0  0  0  0  0  0  0  0  0  0
   37.4580   22.8100   33.2940 H   0  0  0  0  0  0  0  0  0  0  0  0
   36.1410   23.6460   31.4730 H   0  0  0  0  0  0  0  0  0  0  0  0
   36.1170   25.9880   30.9390 H   0  0  0  0  0  0  0  0  0  0  0  0
   38.9510   24.1010   34.8950 O   0  0  0  0  0  0  0  0  0  0  0  0
   39.1510   24.2360   36.2260 C   0  0  2  0  0  0  0  0  0  0  0  0
   39.5120   22.8760   36.9110 C   0  0  2  0  0  0  0  0  0  0  0  0
   39.0460   23.1250   38.2660 C   0  0  0  0  0  0  0  0  0  0  0  0
   37.8910   23.9000   38.1910 O   0  0  0  0  0  0  0  0  0  0  0  0
   37.7740   24.3920   36.9280 C   0  0  0  0  0  0  0  0  0  0  0  0
   39.7950   25.0430   36.5570 H   0  0  0  0  0  0  0  0  0  0  0  0
   38.8720   22.1240   36.3970 H   0  0  0  0  0  0  0  0  0  0  0  0
   38.7210   22.1450   38.7250 H   0  0  0  0  0  0  0  0  0  0  0  0
   39.7660   23.5370   38.9860 H   0  0  0  0  0  0  0  0  0  0  0  0
   37.5540   25.4700   36.9620 H   0  0  0  0  0  0  0  0  0  0  0  0
   36.9910   23.8910   36.3610 H   0  0  0  0  0  0  0  0  0  0  0  0
   43.1460   22.9950   35.9270 C   0  0  0  0  0  0  0  0  0  0  0  0
   41.7990   23.4150   36.1020 C   0  0  0  0  0  0  0  0  0  0  0  0
   40.8880   22.5210   36.7150 C   0  0  0  0  0  0  0  0  0  0  0  0
   41.3540   21.2760   37.1170 N   0  0  0  0  0  0  0  0  0  0  0  0
   42.6350   20.9270   36.9290 C   0  0  0  0  0  0  0  0  0  0  0  0
   43.5340   21.7680   36.3410 N   0  0  0  0  0  0  0  0  0  0  0  0
   43.8790   23.6370   35.4660 H   0  0  0  0  0  0  0  0  0  0  0  0
   41.5170   24.3800   35.7690 H   0  0  0  0  0  0  0  0  0  0  0  0
   42.8440   19.9260   37.2940 H   0  0  0  0  0  0  0  0  0  0  0  0
   37.5260   27.9980   32.2850 C   0  0  0  0  0  2  0  0  0  0  0  0
   36.3800   28.7830   32.6970 C   0  0  0  0  0  0  0  0  0  0  0  0
   35.8480   29.6220   31.8550 C   0  0  0  0  0  0  0  0  0  0  0  0
   34.7230   30.4270   32.2530 N   0  0  0  0  0  0  0  0  0  0  0  0
   33.3840   30.8940   31.9890 C   0  0  0  0  0  0  0  0  0  0  0  0
   32.7470   31.1250   30.9080 O   0  0  0  0  0  0  0  0  0  0  0  0
   33.2020   30.9430   33.4680 C   0  0  0  0  0  3  0  0  0  0  0  0
   32.9860   29.9660   33.9280 H   0  0  0  0  0  0  0  0  0  0  0  0
   34.6780   31.2520   33.4600 C   0  0  1  0  0  3  0  0  0  0  0  0
   35.5740   30.3540   34.7480 S   0  0  0  0  0  0  0  0  0  0  0  0
   35.8160   28.6650   34.0600 C   0  0  0  0  0  3  0  0  0  0  0  0
   36.5510   28.1870   34.7300 H   0  0  0  0  0  0  0  0  0  0  0  0
   36.2930   29.8800   30.4630 C   0  0  0  0  0  0  0  0  0  0  0  0
   36.5970   30.9190   29.8430 O   0  0  0  0  0  0  0  0  0  0  0  0
   36.5960   29.3320   29.2310 O   0  0  0  0  0  0  0  0  0  0  0  0
   35.8870   28.9060   28.6140 H   0  0  0  0  0  0  0  0  0  0  0  0
  2  3  1  0  0  0  0
  2  1  1  0  0  0  0
  3 11  1  0  0  0  0
  4  8  1  0  0  0  0
  4  3  2  0  0  0  0
  5  4  1  0  0  0  0
  6  5  2  0  0  0  0
  6  7  1  0  0  0  0
  7  2  2  0  0  0  0
  9  5  1  0  0  0  0
 10  6  1  0  0  0  0
 11 12  1  0  0  0  0
 12 17  1  1  0  0  0
 12 13  1  0  0  0  0
 12 16  1  0  0  0  0
 13 18  1  6  0  0  0
 13 14  1  0  0  0  0
 14 19  1  0  0  0  0
 14 20  1  0  0  0  0
 15 14  1  0  0  0  0
 16 21  1  0  0  0  0
 16 15  1  0  0  0  0
 22 16  1  0  0  0  0
 23 24  2  0  0  0  0
 23 28  1  0  0  0  0
 24 25  1  0  0  0  0
 25 13  1  0  0  0  0
 25 26  2  0  0  0  0
 27 26  1  0  0  0  0
 27 31  1  0  0  0  0
 28 27  2  0  0  0  0
 29 23  1  0  0  0  0
 30 24  1  0  0  0  0
 32  7  1  0  0  0  0
 32 33  1  0  0  0  0
 33 42  1  0  0  0  0
 34 35  1  0  0  0  0
 34 33  2  0  0  0  0
 35 40  1  0  0  0  0
 36 35  1  0  0  0  0
 36 38  1  0  0  0  0
 37 36  2  0  0  0  0
 38 39  1  0  0  0  0
 40 38  1  1  0  0  0
 40 41  1  0  0  0  0
 42 43  1  0  0  0  0
 42 41  1  0  0  0  0
 44 34  1  0  0  0  0
 45 44  2  0  0  0  0
 46 44  1  0  0  0  0
 47 46  1  0  0  0  0
M  END
>  <minimizedAffinity>
-6.16752911

$$$$

 OpenBabel03272501103D

 47 51  0  0  1  0  0  0  0  0999 V2000
   38.8490   27.4460   32.1240 Cl  0  0  0  0  0  0  0  0  0  0  0  0
   37.5330   26.3280   31.8580 C   0  0  0  0  0  0  0  0  0  0  0  0
   36.4800   26.8680   31.1340 C   0  0  0  0  0  0  0  0  0  0  0  0
   35.4260   26.0030   30.8950 C   0  0  0  0  0  0  0  0  0  0  0  0
   35.4180   24.6910   31.3460 C   0  0  0  0  0  0  0  0  0  0  0  0
   36.5020   24.2160   32.0640 C   0  0  0  0  0  0  0  0  0  0  0  0
   37.5560   25.0390   32.3170 C   0  0  0  0  0  0  0  0  0  0  0  0
   34.5230   26.2350   30.3540 H   0  0  0  0  0  0  0  0  0  0  0  0
   34.6160   23.9860   31.1790 H   0  0  0  0  0  0  0  0  0  0  0  0
   36.5140   23.2070   32.4310 H   0  0  0  0  0  0  0  0  0  0  0  0
   36.2490   28.0860   30.5940 O   0  0  0  0  0  0  0  0  0  0  0  0
   36.6620   29.3580   30.7950 C   0  0  2  0  0  0  0  0  0  0  0  0
   35.4660   30.3380   31.0300 C   0  0  2  0  0  0  0  0  0  0  0  0
   36.0510   31.5910   30.5780 C   0  0  0  0  0  0  0  0  0  0  0  0
   36.8830   31.3130   29.4960 O   0  0  0  0  0  0  0  0  0  0  0  0
   37.0860   29.9690   29.4320 C   0  0  0  0  0  0  0  0  0  0  0  0
   37.4660   29.5180   31.5050 H   0  0  0  0  0  0  0  0  0  0  0  0
   34.6740   29.9880   30.3310 H   0  0  0  0  0  0  0  0  0  0  0  0
   35.2300   32.2480   30.1650 H   0  0  0  0  0  0  0  0  0  0  0  0
   36.5520   32.2190   31.3250 H   0  0  0  0  0  0  0  0  0  0  0  0
   38.1600   29.7560   29.3070 H   0  0  0  0  0  0  0  0  0  0  0  0
   36.5380   29.5070   28.6130 H   0  0  0  0  0  0  0  0  0  0  0  0
   33.3330   29.5140   34.0250 C   0  0  0  0  0  0  0  0  0  0  0  0
   33.7850   29.5370   32.6760 C   0  0  0  0  0  0  0  0  0  0  0  0
   34.9610   30.2640   32.3720 C   0  0  0  0  0  0  0  0  0  0  0  0
   35.6180   30.9200   33.4040 N   0  0  0  0  0  0  0  0  0  0  0  0
   35.1500   30.8680   34.6610 C   0  0  0  0  0  0  0  0  0  0  0  0
   34.0200   30.1750   34.9820 N   0  0  0  0  0  0  0  0  0  0  0  0
   32.4440   28.9750   34.3090 H   0  0  0  0  0  0  0  0  0  0  0  0
   33.2310   29.0110   31.9420 H   0  0  0  0  0  0  0  0  0  0  0  0
   35.7700   31.4310   35.3520 H   0  0  0  0  0  0  0  0  0  0  0  0
   38.7890   24.7060   33.0740 C   0  0  0  0  0  2  0  0  0  0  0  0
   38.6060   24.1610   34.4050 C   0  0  0  0  0  0  0  0  0  0  0  0
   38.8270   24.9210   35.4390 C   0  0  0  0  0  0  0  0  0  0  0  0
   38.6730   24.3910   36.7690 N   0  0  0  0  0  0  0  0  0  0  0  0
   38.0980   24.5100   38.0860 C   0  0  0  0  0  0  0  0  0  0  0  0
   37.7910   25.5180   38.8070 O   0  0  0  0  0  0  0  0  0  0  0  0
   38.0710   23.0200   38.1160 C   0  0  0  0  0  3  0  0  0  0  0  0
   37.2260   22.5740   37.5680 H   0  0  0  0  0  0  0  0  0  0  0  0
   39.2970   23.1590   37.2490 C   0  0  1  0  0  3  0  0  0  0  0  0
   39.2980   21.9920   35.8680 S   0  0  0  0  0  0  0  0  0  0  0  0
   38.1940   22.7550   34.6100 C   0  0  0  0  0  3  0  0  0  0  0  0
   38.3670   22.1750   33.6880 H   0  0  0  0  0  0  0  0  0  0  0  0
   39.2610   26.3400   35.4180 C   0  0  0  0  0  0  0  0  0  0  0  0
   38.6690   27.4160   35.6310 O   0  0  0  0  0  0  0  0  0  0  0  0
   40.3050   27.2220   35.2110 O   0  0  0  0  0  0  0  0  0  0  0  0
   40.7310   27.3830   34.2850 H   0  0  0  0  0  0  0  0  0  0  0  0
  2  1  1  0  0  0  0
  2  7  1  0  0  0  0
  3  2  2  0  0  0  0
  4  3  1  0  0  0  0
  4  5  2  0  0  0  0
  5  6  1  0  0  0  0
  6  7  2  0  0  0  0
  6 10  1  0  0  0  0
  7 32  1  0  0  0  0
  8  4  1  0  0  0  0
  9  5  1  0  0  0  0
 11 12  1  0  0  0  0
 11  3  1  0  0  0  0
 12 13  1  0  0  0  0
 12 17  1  1  0  0  0
 13 18  1  6  0  0  0
 13 25  1  0  0  0  0
 14 13  1  0  0  0  0
 14 20  1  0  0  0  0
 15 14  1  0  0  0  0
 16 15  1  0  0  0  0
 16 12  1  0  0  0  0
 19 14  1  0  0  0  0
 21 16  1  0  0  0  0
 22 16  1  0  0  0  0
 23 29  1  0  0  0  0
 23 28  1  0  0  0  0
 24 23  2  0  0  0  0
 25 24  1  0  0  0  0
 25 26  2  0  0  0  0
 26 27  1  0  0  0  0
 27 28  2  0  0  0  0
 27 31  1  0  0  0  0
 30 24  1  0  0  0  0
 32 33  1  0  0  0  0
 33 42  1  0  0  0  0
 33 34  2  0  0  0  0
 34 35  1  0  0  0  0
 35 40  1  0  0  0  0
 35 36  1  0  0  0  0
 36 38  1  0  0  0  0
 36 37  2  0  0  0  0
 39 38  1  0  0  0  0
 40 41  1  6  0  0  0
 40 38  1  0  0  0  0
 42 41  1  0  0  0  0
 43 42  1  0  0  0  0
 44 34  1  0  0  0  0
 44 45  2  0  0  0  0
 46 44  1  0  0  0  0
 47 46  1  0  0  0  0
M  END
>  <minimizedAffinity>
-6.15676451

$$$$

 OpenBabel03272501103D

 47 51  0  0  1  0  0  0  0  0999 V2000
   39.4860   25.2070   35.0750 Cl  0  0  0  0  0  0  0  0  0  0  0  0
   40.9880   25.8070   34.4170 C   0  0  0  0  0  0  0  0  0  0  0  0
   42.1140   25.1810   34.9330 C   0  0  0  0  0  0  0  0  0  0  0  0
   43.3200   25.6260   34.4220 C   0  0  0  0  0  0  0  0  0  0  0  0
   43.4040   26.6260   33.4630 C   0  0  0  0  0  0  0  0  0  0  0  0
   42.2410   27.2090   32.9920 C   0  0  0  0  0  0  0  0  0  0  0  0
   41.0360   26.7960   33.4720 C   0  0  0  0  0  0  0  0  0  0  0  0
   44.2990   25.2660   34.6960 H   0  0  0  0  0  0  0  0  0  0  0  0
   44.3260   26.9990   33.0400 H   0  0  0  0  0  0  0  0  0  0  0  0
   42.2820   27.9910   32.2570 H   0  0  0  0  0  0  0  0  0  0  0  0
   42.2980   24.2060   35.8510 O   0  0  0  0  0  0  0  0  0  0  0  0
   42.1650   22.8610   35.9140 C   0  0  2  0  0  0  0  0  0  0  0  0
   41.4400   22.4000   37.2210 C   0  0  2  0  0  0  0  0  0  0  0  0
   41.9770   21.0560   37.3670 C   0  0  0  0  0  0  0  0  0  0  0  0
   43.3040   21.0730   36.9450 O   0  0  0  0  0  0  0  0  0  0  0  0
   43.5390   22.2370   36.2810 C   0  0  0  0  0  0  0  0  0  0  0  0
   41.7830   22.3530   35.0350 H   0  0  0  0  0  0  0  0  0  0  0  0
   41.8300   23.0770   38.0130 H   0  0  0  0  0  0  0  0  0  0  0  0
   42.0140   20.7970   38.4660 H   0  0  0  0  0  0  0  0  0  0  0  0
   41.4160   20.2300   36.9120 H   0  0  0  0  0  0  0  0  0  0  0  0
   44.0590   22.0310   35.3320 H   0  0  0  0  0  0  0  0  0  0  0  0
   44.1370   22.9330   36.8660 H   0  0  0  0  0  0  0  0  0  0  0  0
   37.8810   23.3530   38.0080 C   0  0  0  0  0  0  0  0  0  0  0  0
   39.2920   23.2370   38.1490 C   0  0  0  0  0  0  0  0  0  0  0  0
   40.0160   22.5620   37.1370 C   0  0  0  0  0  0  0  0  0  0  0  0
   39.3160   22.0450   36.0560 N   0  0  0  0  0  0  0  0  0  0  0  0
   37.9840   22.1800   35.9700 C   0  0  0  0  0  0  0  0  0  0  0  0
   37.2600   22.8250   36.9300 N   0  0  0  0  0  0  0  0  0  0  0  0
   37.2830   23.8570   38.7500 H   0  0  0  0  0  0  0  0  0  0  0  0
   39.7570   23.6580   39.0020 H   0  0  0  0  0  0  0  0  0  0  0  0
   37.5830   21.7230   35.0710 H   0  0  0  0  0  0  0  0  0  0  0  0
   39.6980   27.3120   33.0910 C   0  0  0  0  0  2  0  0  0  0  0  0
   38.8090   26.3810   32.4240 C   0  0  0  0  0  0  0  0  0  0  0  0
   37.5350   26.4150   32.6910 C   0  0  0  0  0  0  0  0  0  0  0  0
   36.6400   25.4840   32.0550 N   0  0  0  0  0  0  0  0  0  0  0  0
   35.4340   25.2510   31.2980 C   0  0  0  0  0  0  0  0  0  0  0  0
   34.3090   25.8520   31.2570 O   0  0  0  0  0  0  0  0  0  0  0  0
   36.1440   24.0910   30.6880 C   0  0  0  0  0  3  0  0  0  0  0  0
   36.8390   24.3630   29.8780 H   0  0  0  0  0  0  0  0  0  0  0  0
   36.8320   24.0350   32.0290 C   0  0  1  0  0  3  0  0  0  0  0  0
   38.6080   23.7380   31.8790 S   0  0  0  0  0  0  0  0  0  0  0  0
   39.3240   25.3810   31.4630 C   0  0  0  0  0  3  0  0  0  0  0  0
   40.4130   25.2600   31.5950 H   0  0  0  0  0  0  0  0  0  0  0  0
   36.8530   27.3350   33.6350 C   0  0  0  0  0  0  0  0  0  0  0  0
   36.6830   27.3170   34.8710 O   0  0  0  0  0  0  0  0  0  0  0  0
   36.1370   28.5070   33.7860 O   0  0  0  0  0  0  0  0  0  0  0  0
   35.1760   28.6300   33.4310 H   0  0  0  0  0  0  0  0  0  0  0  0
  2  3  1  0  0  0  0
  2  1  1  0  0  0  0
  3 11  1  0  0  0  0
  4  8  1  0  0  0  0
  4  3  2  0  0  0  0
  5  4  1  0  0  0  0
  6  5  2  0  0  0  0
  6  7  1  0  0  0  0
  7  2  2  0  0  0  0
  9  5  1  0  0  0  0
 10  6  1  0  0  0  0
 11 12  1  0  0  0  0
 12 17  1  6  0  0  0
 12 16  1  0  0  0  0
 12 13  1  0  0  0  0
 13 14  1  0  0  0  0
 13 18  1  1  0  0  0
 14 19  1  0  0  0  0
 15 14  1  0  0  0  0
 16 22  1  0  0  0  0
 16 15  1  0  0  0  0
 20 14  1  0  0  0  0
 21 16  1  0  0  0  0
 23 24  1  0  0  0  0
 23 29  1  0  0  0  0
 24 30  1  0  0  0  0
 25 13  1  0  0  0  0
 25 24  2  0  0  0  0
 26 25  1  0  0  0  0
 27 26  2  0  0  0  0
 27 28  1  0  0  0  0
 28 23  2  0  0  0  0
 31 27  1  0  0  0  0
 32  7  1  0  0  0  0
 33 34  2  0  0  0  0
 33 32  1  0  0  0  0
 34 44  1  0  0  0  0
 35 34  1  0  0  0  0
 36 35  1  0  0  0  0
 37 36  2  0  0  0  0
 38 36  1  0  0  0  0
 39 38  1  0  0  0  0
 40 38  1  6  0  0  0
 40 35  1  0  0  0  0
 41 40  1  0  0  0  0
 42 43  1  0  0  0  0
 42 41  1  0  0  0  0
 42 33  1  0  0  0  0
 44 46  1  0  0  0  0
 44 45  2  0  0  0  0
 47 46  1  0  0  0  0
M  END
>  <minimizedAffinity>
-6.1427412

$$$$

 OpenBabel03272501103D

 47 51  0  0  1  0  0  0  0  0999 V2000
   37.1150   26.5120   35.1880 Cl  0  0  0  0  0  0  0  0  0  0  0  0
   37.2000   27.0660   33.5340 C   0  0  0  0  0  0  0  0  0  0  0  0
   36.5520   28.2730   33.3160 C   0  0  0  0  0  0  0  0  0  0  0  0
   36.6120   28.7460   32.0170 C   0  0  0  0  0  0  0  0  0  0  0  0
   37.2710   28.0660   31.0020 C   0  0  0  0  0  0  0  0  0  0  0  0
   37.8970   26.8660   31.2890 C   0  0  0  0  0  0  0  0  0  0  0  0
   37.8590   26.3710   32.5560 C   0  0  0  0  0  0  0  0  0  0  0  0
   36.1720   29.6610   31.6510 H   0  0  0  0  0  0  0  0  0  0  0  0
   37.3410   28.4030   29.9780 H   0  0  0  0  0  0  0  0  0  0  0  0
   38.4050   26.3170   30.5180 H   0  0  0  0  0  0  0  0  0  0  0  0
   35.8550   29.1130   34.1130 O   0  0  0  0  0  0  0  0  0  0  0  0
   34.8190   29.9740   33.9870 C   0  0  2  0  0  0  0  0  0  0  0  0
   34.9090   31.1590   35.0060 C   0  0  2  0  0  0  0  0  0  0  0  0
   33.5040   31.5130   35.1310 C   0  0  0  0  0  0  0  0  0  0  0  0
   32.7550   30.3410   35.0660 O   0  0  0  0  0  0  0  0  0  0  0  0
   33.5530   29.3330   34.6190 C   0  0  0  0  0  0  0  0  0  0  0  0
   34.5670   30.3130   32.9890 H   0  0  0  0  0  0  0  0  0  0  0  0
   35.2920   30.6960   35.9430 H   0  0  0  0  0  0  0  0  0  0  0  0
   33.3240   31.9280   36.1660 H   0  0  0  0  0  0  0  0  0  0  0  0
   33.1100   32.2850   34.4570 H   0  0  0  0  0  0  0  0  0  0  0  0
   33.0440   28.7760   33.8180 H   0  0  0  0  0  0  0  0  0  0  0  0
   33.8260   28.6400   35.4130 H   0  0  0  0  0  0  0  0  0  0  0  0
   36.9990   33.4360   32.8530 C   0  0  0  0  0  0  0  0  0  0  0  0
   36.0600   32.4280   33.2060 C   0  0  0  0  0  0  0  0  0  0  0  0
   35.8340   32.1700   34.5800 C   0  0  0  0  0  0  0  0  0  0  0  0
   36.5400   32.9120   35.5170 N   0  0  0  0  0  0  0  0  0  0  0  0
   37.4160   33.8530   35.1320 C   0  0  0  0  0  0  0  0  0  0  0  0
   37.6540   34.1220   33.8160 N   0  0  0  0  0  0  0  0  0  0  0  0
   37.2080   33.6710   31.8220 H   0  0  0  0  0  0  0  0  0  0  0  0
   35.5590   31.9020   32.4350 H   0  0  0  0  0  0  0  0  0  0  0  0
   37.8870   34.3440   35.9770 H   0  0  0  0  0  0  0  0  0  0  0  0
   38.4610   25.1030   33.0400 C   0  0  0  0  0  2  0  0  0  0  0  0
   37.6460   23.9100   32.9210 C   0  0  0  0  0  0  0  0  0  0  0  0
   37.6700   23.0260   33.8770 C   0  0  0  0  0  0  0  0  0  0  0  0
   36.8850   21.8250   33.7670 N   0  0  0  0  0  0  0  0  0  0  0  0
   35.9170   20.9240   34.3460 C   0  0  0  0  0  0  0  0  0  0  0  0
   35.6630   20.5870   35.5500 O   0  0  0  0  0  0  0  0  0  0  0  0
   35.4590   20.6580   32.9520 C   0  0  0  0  0  3  0  0  0  0  0  0
   34.7910   21.4330   32.5430 H   0  0  0  0  0  0  0  0  0  0  0  0
   36.9050   20.9220   32.6160 C   0  0  1  0  0  3  0  0  0  0  0  0
   37.0910   21.9490   31.1410 S   0  0  0  0  0  0  0  0  0  0  0  0
   36.8050   23.6690   31.7280 C   0  0  0  0  0  3  0  0  0  0  0  0
   37.1390   24.3140   30.8970 H   0  0  0  0  0  0  0  0  0  0  0  0
   38.4640   23.0970   35.1280 C   0  0  0  0  0  0  0  0  0  0  0  0
   38.9520   22.2300   35.8800 O   0  0  0  0  0  0  0  0  0  0  0  0
   39.0530   23.9160   36.0730 O   0  0  0  0  0  0  0  0  0  0  0  0
   38.5110   24.4990   36.7300 H   0  0  0  0  0  0  0  0  0  0  0  0
  2  1  1  0  0  0  0
  3  2  1  0  0  0  0
  3 11  1  0  0  0  0
  4  3  2  0  0  0  0
  5  6  2  0  0  0  0
  5  4  1  0  0  0  0
  6  7  1  0  0  0  0
  7 32  1  0  0  0  0
  7  2  2  0  0  0  0
  8  4  1  0  0  0  0
  9  5  1  0  0  0  0
 10  6  1  0  0  0  0
 12 17  1  6  0  0  0
 12 11  1  0  0  0  0
 12 16  1  0  0  0  0
 12 13  1  0  0  0  0
 13 14  1  0  0  0  0
 13 18  1  1  0  0  0
 14 19  1  0  0  0  0
 15 14  1  0  0  0  0
 16 15  1  0  0  0  0
 16 22  1  0  0  0  0
 20 14  1  0  0  0  0
 21 16  1  0  0  0  0
 23 24  2  0  0  0  0
 23 28  1  0  0  0  0
 24 25  1  0  0  0  0
 25 13  1  0  0  0  0
 25 26  2  0  0  0  0
 27 26  1  0  0  0  0
 27 31  1  0  0  0  0
 28 27  2  0  0  0  0
 29 23  1  0  0  0  0
 30 24  1  0  0  0  0
 33 32  1  0  0  0  0
 33 34  2  0  0  0  0
 34 44  1  0  0  0  0
 35 34  1  0  0  0  0
 35 36  1  0  0  0  0
 36 37  2  0  0  0  0
 38 36  1  0  0  0  0
 39 38  1  0  0  0  0
 40 41  1  6  0  0  0
 40 38  1  0  0  0  0
 40 35  1  0  0  0  0
 41 42  1  0  0  0  0
 42 33  1  0  0  0  0
 43 42  1  0  0  0  0
 44 45  2  0  0  0  0
 44 46  1  0  0  0  0
 46 47  1  0  0  0  0
M  END
>  <minimizedAffinity>
-6.13361454

$$$$

 OpenBabel03272501103D

 47 51  0  0  1  0  0  0  0  0999 V2000
   36.5920   28.4610   34.9030 Cl  0  0  0  0  0  0  0  0  0  0  0  0
   37.0260   27.7800   33.3550 C   0  0  0  0  0  0  0  0  0  0  0  0
   36.0620   27.9650   32.3740 C   0  0  0  0  0  0  0  0  0  0  0  0
   36.3810   27.4470   31.1310 C   0  0  0  0  0  0  0  0  0  0  0  0
   37.5760   26.7890   30.8780 C   0  0  0  0  0  0  0  0  0  0  0  0
   38.4940   26.6380   31.9030 C   0  0  0  0  0  0  0  0  0  0  0  0
   38.2140   27.1350   33.1390 C   0  0  0  0  0  0  0  0  0  0  0  0
   35.7650   27.4900   30.2460 H   0  0  0  0  0  0  0  0  0  0  0  0
   37.8620   26.3720   29.9230 H   0  0  0  0  0  0  0  0  0  0  0  0
   39.4220   26.1240   31.7330 H   0  0  0  0  0  0  0  0  0  0  0  0
   34.8460   28.5550   32.3630 O   0  0  0  0  0  0  0  0  0  0  0  0
   34.3310   29.7780   32.6280 C   0  0  2  0  0  0  0  0  0  0  0  0
   32.7670   29.7800   32.5980 C   0  0  2  0  0  0  0  0  0  0  0  0
   32.5060   31.1700   32.2590 C   0  0  0  0  0  0  0  0  0  0  0  0
   33.4950   31.5930   31.3760 O   0  0  0  0  0  0  0  0  0  0  0  0
   34.5020   30.6770   31.3730 C   0  0  0  0  0  0  0  0  0  0  0  0
   34.7230   30.3120   33.4860 H   0  0  0  0  0  0  0  0  0  0  0  0
   32.5010   29.1030   31.7560 H   0  0  0  0  0  0  0  0  0  0  0  0
   31.5390   31.2270   31.6770 H   0  0  0  0  0  0  0  0  0  0  0  0
   32.3680   31.8790   33.0850 H   0  0  0  0  0  0  0  0  0  0  0  0
   35.4740   31.1850   31.4740 H   0  0  0  0  0  0  0  0  0  0  0  0
   34.5120   30.0770   30.4650 H   0  0  0  0  0  0  0  0  0  0  0  0
   32.1030   29.0630   36.2370 C   0  0  0  0  0  0  0  0  0  0  0  0
   32.7000   29.6320   35.0780 C   0  0  0  0  0  0  0  0  0  0  0  0
   32.2020   29.2530   33.8080 C   0  0  0  0  0  0  0  0  0  0  0  0
   31.1550   28.3430   33.7530 N   0  0  0  0  0  0  0  0  0  0  0  0
   30.6260   27.8340   34.8760 C   0  0  0  0  0  0  0  0  0  0  0  0
   31.0860   28.1820   36.1130 N   0  0  0  0  0  0  0  0  0  0  0  0
   32.4450   29.3180   37.2260 H   0  0  0  0  0  0  0  0  0  0  0  0
   33.4960   30.3200   35.1990 H   0  0  0  0  0  0  0  0  0  0  0  0
   29.8190   27.1380   34.6700 H   0  0  0  0  0  0  0  0  0  0  0  0
   39.0690   27.0570   34.3490 C   0  0  0  0  0  2  0  0  0  0  0  0
   39.2950   25.7360   34.9010 C   0  0  0  0  0  0  0  0  0  0  0  0
   40.5010   25.2480   34.9090 C   0  0  0  0  0  0  0  0  0  0  0  0
   40.7410   23.9280   35.4330 N   0  0  0  0  0  0  0  0  0  0  0  0
   41.4860   23.0680   36.3210 C   0  0  0  0  0  0  0  0  0  0  0  0
   42.6900   23.0970   36.7430 O   0  0  0  0  0  0  0  0  0  0  0  0
   40.2400   22.2590   36.4430 C   0  0  0  0  0  3  0  0  0  0  0  0
   39.4980   22.6760   37.1430 H   0  0  0  0  0  0  0  0  0  0  0  0
   40.0090   22.7290   35.0280 C   0  0  1  0  0  3  0  0  0  0  0  0
   38.2960   23.2260   34.7400 S   0  0  0  0  0  0  0  0  0  0  0  0
   38.1780   24.9260   35.4350 C   0  0  0  0  0  3  0  0  0  0  0  0
   37.2170   25.3200   35.0640 H   0  0  0  0  0  0  0  0  0  0  0  0
   41.7280   25.9110   34.4020 C   0  0  0  0  0  0  0  0  0  0  0  0
   42.5600   25.6090   33.5240 O   0  0  0  0  0  0  0  0  0  0  0  0
   42.5740   26.9990   34.5020 O   0  0  0  0  0  0  0  0  0  0  0  0
   43.1730   27.1740   35.3240 H   0  0  0  0  0  0  0  0  0  0  0  0
  2  1  1  0  0  0  0
  3  2  2  0  0  0  0
  4  3  1  0  0  0  0
  5  4  2  0  0  0  0
  5  6  1  0  0  0  0
  6  7  2  0  0  0  0
  7  2  1  0  0  0  0
  7 32  1  0  0  0  0
  8  4  1  0  0  0  0
  9  5  1  0  0  0  0
 10  6  1  0  0  0  0
 11  3  1  0  0  0  0
 11 12  1  0  0  0  0
 12 17  1  1  0  0  0
 13 18  1  6  0  0  0
 13 12  1  0  0  0  0
 13 25  1  0  0  0  0
 14 13  1  0  0  0  0
 14 20  1  0  0  0  0
 15 14  1  0  0  0  0
 16 15  1  0  0  0  0
 16 21  1  0  0  0  0
 16 12  1  0  0  0  0
 19 14  1  0  0  0  0
 22 16  1  0  0  0  0
 23 29  1  0  0  0  0
 24 30  1  0  0  0  0
 24 23  2  0  0  0  0
 25 24  1  0  0  0  0
 26 25  2  0  0  0  0
 26 27  1  0  0  0  0
 27 28  2  0  0  0  0
 28 23  1  0  0  0  0
 31 27  1  0  0  0  0
 32 33  1  0  0  0  0
 33 34  2  0  0  0  0
 33 42  1  0  0  0  0
 34 35  1  0  0  0  0
 35 36  1  0  0  0  0
 36 38  1  0  0  0  0
 36 37  2  0  0  0  0
 38 39  1  0  0  0  0
 40 41  1  1  0  0  0
 40 35  1  0  0  0  0
 40 38  1  0  0  0  0
 41 42  1  0  0  0  0
 43 42  1  0  0  0  0
 44 46  1  0  0  0  0
 44 34  1  0  0  0  0
 45 44  2  0  0  0  0
 46 47  1  0  0  0  0
M  END
>  <minimizedAffinity>
-6.09452581

$$$$

 OpenBabel03272501103D

 47 51  0  0  1  0  0  0  0  0999 V2000
   36.8840   24.7090   32.4630 Cl  0  0  0  0  0  0  0  0  0  0  0  0
   37.4000   25.7610   33.7580 C   0  0  0  0  0  0  0  0  0  0  0  0
   37.0740   27.0950   33.5590 C   0  0  0  0  0  0  0  0  0  0  0  0
   37.4590   27.9530   34.5740 C   0  0  0  0  0  0  0  0  0  0  0  0
   38.1230   27.5160   35.7110 C   0  0  0  0  0  0  0  0  0  0  0  0
   38.4190   26.1720   35.8470 C   0  0  0  0  0  0  0  0  0  0  0  0
   38.0550   25.2990   34.8680 C   0  0  0  0  0  0  0  0  0  0  0  0
   37.2950   29.0190   34.6020 H   0  0  0  0  0  0  0  0  0  0  0  0
   38.4380   28.1550   36.5250 H   0  0  0  0  0  0  0  0  0  0  0  0
   38.9410   25.8120   36.7140 H   0  0  0  0  0  0  0  0  0  0  0  0
   36.4460   27.7600   32.5630 O   0  0  0  0  0  0  0  0  0  0  0  0
   36.6360   27.9860   31.2430 C   0  0  2  0  0  0  0  0  0  0  0  0
   38.0990   28.4410   30.9250 C   0  0  2  0  0  0  0  0  0  0  0  0
   37.8860   29.2000   29.7040 C   0  0  0  0  0  0  0  0  0  0  0  0
   36.6650   29.8610   29.8130 O   0  0  0  0  0  0  0  0  0  0  0  0
   35.9770   29.3420   30.8660 C   0  0  0  0  0  0  0  0  0  0  0  0
   36.2830   27.2320   30.5490 H   0  0  0  0  0  0  0  0  0  0  0  0
   38.3760   29.1080   31.7720 H   0  0  0  0  0  0  0  0  0  0  0  0
   38.6650   30.0160   29.6420 H   0  0  0  0  0  0  0  0  0  0  0  0
   37.9750   28.6670   28.7490 H   0  0  0  0  0  0  0  0  0  0  0  0
   34.9400   29.1210   30.5680 H   0  0  0  0  0  0  0  0  0  0  0  0
   35.9610   30.0150   31.7210 H   0  0  0  0  0  0  0  0  0  0  0  0
   41.0350   26.1860   31.6270 C   0  0  0  0  0  0  0  0  0  0  0  0
   40.1640   27.3080   31.7170 C   0  0  0  0  0  0  0  0  0  0  0  0
   39.0130   27.3340   30.8930 C   0  0  0  0  0  0  0  0  0  0  0  0
   38.7890   26.2660   30.0350 N   0  0  0  0  0  0  0  0  0  0  0  0
   39.6420   25.2310   29.9870 C   0  0  0  0  0  0  0  0  0  0  0  0
   40.7580   25.1790   30.7700 N   0  0  0  0  0  0  0  0  0  0  0  0
   41.9240   26.1170   32.2320 H   0  0  0  0  0  0  0  0  0  0  0  0
   40.4010   28.0860   32.3960 H   0  0  0  0  0  0  0  0  0  0  0  0
   39.3320   24.4790   29.2700 H   0  0  0  0  0  0  0  0  0  0  0  0
   38.2970   23.8340   34.8400 C   0  0  0  0  0  2  0  0  0  0  0  0
   39.6570   23.3970   35.0890 C   0  0  0  0  0  0  0  0  0  0  0  0
   39.9880   22.9950   36.2820 C   0  0  0  0  0  0  0  0  0  0  0  0
   41.3380   22.5780   36.5540 N   0  0  0  0  0  0  0  0  0  0  0  0
   42.2420   21.5830   37.0800 C   0  0  0  0  0  0  0  0  0  0  0  0
   42.1400   20.7420   38.0350 O   0  0  0  0  0  0  0  0  0  0  0  0
   43.2060   22.0310   36.0350 C   0  0  0  0  0  3  0  0  0  0  0  0
   43.0110   21.6140   35.0340 H   0  0  0  0  0  0  0  0  0  0  0  0
   42.5300   23.3640   36.2350 C   0  0  1  0  0  3  0  0  0  0  0  0
   42.2040   24.2100   34.6720 S   0  0  0  0  0  0  0  0  0  0  0  0
   40.6780   23.4160   34.0190 C   0  0  0  0  0  3  0  0  0  0  0  0
   40.3460   24.0700   33.1950 H   0  0  0  0  0  0  0  0  0  0  0  0
   39.1010   22.9280   37.4710 C   0  0  0  0  0  0  0  0  0  0  0  0
   39.2440   23.2670   38.6620 O   0  0  0  0  0  0  0  0  0  0  0  0
   37.8650   22.5560   37.9650 O   0  0  0  0  0  0  0  0  0  0  0  0
   37.5650   21.5720   38.0490 H   0  0  0  0  0  0  0  0  0  0  0  0
  1  2  1  0  0  0  0
  2  7  1  0  0  0  0
  3  2  2  0  0  0  0
  3  4  1  0  0  0  0
  4  8  1  0  0  0  0
  4  5  2  0  0  0  0
  5  6  1  0  0  0  0
  5  9  1  0  0  0  0
  6 10  1  0  0  0  0
  7  6  2  0  0  0  0
 11  3  1  0  0  0  0
 12 17  1  6  0  0  0
 12 11  1  0  0  0  0
 13 12  1  0  0  0  0
 13 18  1  1  0  0  0
 14 15  1  0  0  0  0
 14 13  1  0  0  0  0
 15 16  1  0  0  0  0
 16 12  1  0  0  0  0
 16 22  1  0  0  0  0
 19 14  1  0  0  0  0
 20 14  1  0  0  0  0
 21 16  1  0  0  0  0
 23 24  1  0  0  0  0
 23 29  1  0  0  0  0
 24 30  1  0  0  0  0
 25 13  1  0  0  0  0
 25 24  2  0  0  0  0
 26 25  1  0  0  0  0
 27 26  2  0  0  0  0
 27 28  1  0  0  0  0
 28 23  2  0  0  0  0
 31 27  1  0  0  0  0
 32  7  1  0  0  0  0
 32 33  1  0  0  0  0
 33 34  2  0  0  0  0
 34 35  1  0  0  0  0
 34 44  1  0  0  0  0
 35 36  1  0  0  0  0
 36 37  2  0  0  0  0
 38 40  1  0  0  0  0
 38 36  1  0  0  0  0
 39 38  1  0  0  0  0
 40 41  1  6  0  0  0
 40 35  1  0  0  0  0
 42 41  1  0  0  0  0
 42 33  1  0  0  0  0
 43 42  1  0  0  0  0
 44 46  1  0  0  0  0
 44 45  2  0  0  0  0
 46 47  1  0  0  0  0
M  END
>  <minimizedAffinity>
-6.05814791

$$$$

 OpenBabel03272501103D

 47 51  0  0  1  0  0  0  0  0999 V2000
   36.1250   28.0050   34.4480 Cl  0  0  0  0  0  0  0  0  0  0  0  0
   36.4160   28.4750   32.7920 C   0  0  0  0  0  0  0  0  0  0  0  0
   35.7200   29.6100   32.4020 C   0  0  0  0  0  0  0  0  0  0  0  0
   35.9400   30.0150   31.0970 C   0  0  0  0  0  0  0  0  0  0  0  0
   36.7920   29.3390   30.2370 C   0  0  0  0  0  0  0  0  0  0  0  0
   37.4540   28.2110   30.6890 C   0  0  0  0  0  0  0  0  0  0  0  0
   37.2630   27.7840   31.9680 C   0  0  0  0  0  0  0  0  0  0  0  0
   35.4930   30.8690   30.6130 H   0  0  0  0  0  0  0  0  0  0  0  0
   36.9890   29.6240   29.2130 H   0  0  0  0  0  0  0  0  0  0  0  0
   38.1120   27.6660   30.0380 H   0  0  0  0  0  0  0  0  0  0  0  0
   34.8510   30.4310   33.0330 O   0  0  0  0  0  0  0  0  0  0  0  0
   33.5380   30.4290   33.3590 C   0  0  2  0  0  0  0  0  0  0  0  0
   33.3010   30.0350   34.8540 C   0  0  2  0  0  0  0  0  0  0  0  0
   31.9550   29.4900   34.7790 C   0  0  0  0  0  0  0  0  0  0  0  0
   31.8260   28.8210   33.5650 O   0  0  0  0  0  0  0  0  0  0  0  0
   32.8750   29.1560   32.7650 C   0  0  0  0  0  0  0  0  0  0  0  0
   32.9470   31.2900   33.0660 H   0  0  0  0  0  0  0  0  0  0  0  0
   34.0480   29.2350   35.0560 H   0  0  0  0  0  0  0  0  0  0  0  0
   31.8380   28.6960   35.5740 H   0  0  0  0  0  0  0  0  0  0  0  0
   31.1160   30.1760   34.9560 H   0  0  0  0  0  0  0  0  0  0  0  0
   32.5130   29.4250   31.7610 H   0  0  0  0  0  0  0  0  0  0  0  0
   33.6000   28.3490   32.6740 H   0  0  0  0  0  0  0  0  0  0  0  0
   32.7950   32.9250   37.2180 C   0  0  0  0  0  0  0  0  0  0  0  0
   32.4810   31.8420   36.3510 C   0  0  0  0  0  0  0  0  0  0  0  0
   33.5470   31.1300   35.7480 C   0  0  0  0  0  0  0  0  0  0  0  0
   34.8480   31.5240   36.0320 N   0  0  0  0  0  0  0  0  0  0  0  0
   35.0920   32.5530   36.8570 C   0  0  0  0  0  0  0  0  0  0  0  0
   34.0840   33.2560   37.4510 N   0  0  0  0  0  0  0  0  0  0  0  0
   32.0210   33.4980   37.7010 H   0  0  0  0  0  0  0  0  0  0  0  0
   31.4640   31.6000   36.1820 H   0  0  0  0  0  0  0  0  0  0  0  0
   36.1540   32.7390   36.9770 H   0  0  0  0  0  0  0  0  0  0  0  0
   37.8780   26.5990   32.6150 C   0  0  0  0  0  2  0  0  0  0  0  0
   39.3260   26.5430   32.6240 C   0  0  0  0  0  0  0  0  0  0  0  0
   39.9590   26.6220   33.7600 C   0  0  0  0  0  0  0  0  0  0  0  0
   41.3980   26.5900   33.7870 N   0  0  0  0  0  0  0  0  0  0  0  0
   42.6110   26.0180   34.3190 C   0  0  0  0  0  0  0  0  0  0  0  0
   42.9070   25.5280   35.4590 O   0  0  0  0  0  0  0  0  0  0  0  0
   43.2210   26.2860   32.9850 C   0  0  0  0  0  3  0  0  0  0  0  0
   42.9680   25.5390   32.2160 H   0  0  0  0  0  0  0  0  0  0  0  0
   42.2620   27.4510   32.9800 C   0  0  1  0  0  3  0  0  0  0  0  0
   41.4510   27.6660   31.3790 S   0  0  0  0  0  0  0  0  0  0  0  0
   40.0990   26.4180   31.3690 C   0  0  0  0  0  3  0  0  0  0  0  0
   39.4640   26.6920   30.5090 H   0  0  0  0  0  0  0  0  0  0  0  0
   39.3490   26.7670   35.1040 C   0  0  0  0  0  0  0  0  0  0  0  0
   38.8740   25.9500   35.9190 O   0  0  0  0  0  0  0  0  0  0  0  0
   38.9780   27.6360   36.1130 O   0  0  0  0  0  0  0  0  0  0  0  0
   38.2120   28.3210   36.0140 H   0  0  0  0  0  0  0  0  0  0  0  0
  2  1  1  0  0  0  0
  3  2  1  0  0  0  0
  3 11  1  0  0  0  0
  4  3  2  0  0  0  0
  5  6  2  0  0  0  0
  5  4  1  0  0  0  0
  6  7  1  0  0  0  0
  7 32  1  0  0  0  0
  7  2  2  0  0  0  0
  8  4  1  0  0  0  0
  9  5  1  0  0  0  0
 10  6  1  0  0  0  0
 11 12  1  0  0  0  0
 12 17  1  6  0  0  0
 12 13  1  0  0  0  0
 13 18  1  1  0  0  0
 13 25  1  0  0  0  0
 14 13  1  0  0  0  0
 14 20  1  0  0  0  0
 14 19  1  0  0  0  0
 15 14  1  0  0  0  0
 16 12  1  0  0  0  0
 16 15  1  0  0  0  0
 21 16  1  0  0  0  0
 22 16  1  0  0  0  0
 23 28  1  0  0  0  0
 23 29  1  0  0  0  0
 24 23  2  0  0  0  0
 25 26  2  0  0  0  0
 25 24  1  0  0  0  0
 26 27  1  0  0  0  0
 27 31  1  0  0  0  0
 27 28  2  0  0  0  0
 30 24  1  0  0  0  0
 32 33  1  0  0  0  0
 33 34  2  0  0  0  0
 34 35  1  0  0  0  0
 34 44  1  0  0  0  0
 35 36  1  0  0  0  0
 36 37  2  0  0  0  0
 38 36  1  0  0  0  0
 39 38  1  0  0  0  0
 40 41  1  6  0  0  0
 40 38  1  0  0  0  0
 40 35  1  0  0  0  0
 42 41  1  0  0  0  0
 42 33  1  0  0  0  0
 43 42  1  0  0  0  0
 44 45  2  0  0  0  0
 44 46  1  0  0  0  0
 47 46  1  0  0  0  0
M  END
>  <minimizedAffinity>
-6.05417013

$$$$
