
 OpenBabel03262521243D

 54 58  0  0  1  0  0  0  0  0999 V2000
   39.9690   25.0830   53.3950 C   0  0  0  0  0  0  0  0  0  0  0  0
   39.6540   26.0840   52.4840 C   0  0  0  0  0  0  0  0  0  0  0  0
   40.2040   25.9210   51.1970 C   0  0  0  0  0  0  0  0  0  0  0  0
   40.9910   24.8700   50.8410 C   0  0  0  0  0  0  0  0  0  0  0  0
   41.6260   24.4800   49.7430 N   0  0  0  0  0  0  0  0  0  0  0  0
   42.3050   23.2950   49.9480 C   0  0  0  0  0  0  0  0  0  0  0  0
   42.0630   22.9320   51.2890 C   0  0  0  0  0  0  0  0  0  0  0  0
   41.2610   23.9180   51.7890 C   0  0  0  0  0  0  0  0  0  0  0  0
   40.7590   24.0250   53.0410 C   0  0  0  0  0  0  0  0  0  0  0  0
   39.5010   25.2980   54.3500 H   0  0  0  0  0  0  0  0  0  0  0  0
   40.0230   26.6530   50.3930 H   0  0  0  0  0  0  0  0  0  0  0  0
   41.6070   25.0120   48.8390 H   0  0  0  0  0  0  0  0  0  0  0  0
   42.8860   22.7820   49.2220 H   0  0  0  0  0  0  0  0  0  0  0  0
   42.5060   22.0300   51.6700 H   0  0  0  0  0  0  0  0  0  0  0  0
   38.6660   27.5250   52.7060 S   0  0  0  0  0  0  0  0  0  0  0  0
   38.0360   28.2510   51.2110 C   0  0  0  0  0  0  0  0  0  0  0  0
   38.9140   28.6710   50.6470 H   0  0  0  0  0  0  0  0  0  0  0  0
   37.6130   27.4640   50.5490 H   0  0  0  0  0  0  0  0  0  0  0  0
   37.0470   29.3770   51.4320 C   0  0  0  0  0  0  0  0  0  0  0  0
   36.0610   28.9850   51.0920 H   0  0  0  0  0  0  0  0  0  0  0  0
   36.9250   29.4280   52.5560 H   0  0  0  0  0  0  0  0  0  0  0  0
   37.4360   30.5650   50.8970 C   0  0  0  0  0  0  0  0  0  0  0  0
   38.4740   30.8870   51.2070 H   0  0  0  0  0  0  0  0  0  0  0  0
   36.7460   31.4240   51.0330 H   0  0  0  0  0  0  0  0  0  0  0  0
   37.4680   30.1940   49.5760 O   0  0  0  0  0  0  0  0  0  0  0  0
   38.0840   31.0280   48.6890 C   0  0  0  0  0  0  0  0  0  0  0  0
   38.3780   32.2620   49.2170 C   0  0  0  0  0  0  0  0  0  0  0  0
   39.0150   33.2190   48.4050 C   0  0  0  0  0  0  0  0  0  0  0  0
   39.3060   32.8540   47.1270 N   0  0  0  0  0  0  0  0  0  0  0  0
   39.0000   31.6150   46.6260 C   0  0  0  0  0  0  0  0  0  0  0  0
   38.3890   30.7170   47.4260 N   0  0  0  0  0  0  0  0  0  0  0  0
   39.9430   32.4210   44.5860 C   0  0  0  0  0  0  0  0  0  0  0  0
   40.1780   33.5650   45.0620 O   0  0  0  0  0  0  0  0  0  0  0  0
   39.3460   31.3390   45.2800 N   0  0  0  0  0  0  0  0  0  0  0  0
   38.1990   32.6630   50.2050 H   0  0  0  0  0  0  0  0  0  0  0  0
   39.2840   34.2010   48.7240 H   0  0  0  0  0  0  0  0  0  0  0  0
   40.2550   32.3300   43.5400 H   0  0  0  0  0  0  0  0  0  0  0  0
   39.1800   30.4320   44.8400 H   0  0  0  0  0  0  0  0  0  0  0  0
   40.9060   23.0920   54.1890 C   0  0  0  0  0  2  0  0  0  0  0  0
   42.1760   23.2340   54.9400 C   0  0  0  0  0  0  0  0  0  0  0  0
   42.9530   22.1530   55.0160 C   0  0  0  0  0  0  0  0  0  0  0  0
   44.1950   21.9720   55.6460 N   0  0  0  0  0  0  0  0  0  0  0  0
   45.2110   21.1630   56.2190 C   0  0  0  0  0  0  0  0  0  0  0  0
   45.5880   19.9800   55.9350 O   0  0  0  0  0  0  0  0  0  0  0  0
   45.5000   22.2900   57.1490 C   0  0  0  0  0  3  0  0  0  0  0  0
   46.5560   22.4550   57.4110 H   0  0  0  0  0  0  0  0  0  0  0  0
   45.0070   23.1050   55.9460 C   0  0  2  0  0  3  0  0  0  0  0  0
   44.0200   24.4800   56.5440 S   0  0  0  0  0  0  0  0  0  0  0  0
   42.5070   24.5410   55.5530 C   0  0  0  0  0  3  0  0  0  0  0  0
   42.6640   25.2390   54.6890 H   0  0  0  0  0  0  0  0  0  0  0  0
   42.4390   20.9380   54.3330 C   0  0  0  0  0  0  0  0  0  0  0  0
   43.1360   20.3270   53.4490 O   0  0  0  0  0  0  0  0  0  0  0  0
   41.7310   19.8510   53.8600 O   0  0  0  0  0  0  0  0  0  0  0  0
   40.7670   19.9250   53.5650 H   0  0  0  0  0  0  0  0  0  0  0  0
  1 10  1  0  0  0  0
  2 15  1  0  0  0  0
  2  1  2  0  0  0  0
  3  2  1  0  0  0  0
  4  3  2  0  0  0  0
  4  8  1  0  0  0  0
  5  6  1  0  0  0  0
  5  4  1  0  0  0  0
  6  7  2  0  0  0  0
  7 14  1  0  0  0  0
  7  8  1  0  0  0  0
  8  9  2  0  0  0  0
  9  1  1  0  0  0  0
  9 39  1  0  0  0  0
 11  3  1  0  0  0  0
 12  5  1  0  0  0  0
 13  6  1  0  0  0  0
 16 19  1  0  0  0  0
 16 15  1  0  0  0  0
 17 16  1  0  0  0  0
 18 16  1  0  0  0  0
 19 21  1  0  0  0  0
 20 19  1  0  0  0  0
 22 24  1  0  0  0  0
 22 23  1  0  0  0  0
 22 19  1  0  0  0  0
 25 22  1  0  0  0  0
 26 27  1  0  0  0  0
 26 25  1  0  0  0  0
 27 35  1  0  0  0  0
 28 36  1  0  0  0  0
 28 27  2  0  0  0  0
 29 28  1  0  0  0  0
 30 29  2  0  0  0  0
 30 31  1  0  0  0  0
 31 26  2  0  0  0  0
 32 33  2  0  0  0  0
 32 34  1  0  0  0  0
 34 30  1  0  0  0  0
 37 32  1  0  0  0  0
 38 34  1  0  0  0  0
 39 40  1  0  0  0  0
 40 41  2  0  0  0  0
 40 49  1  0  0  0  0
 41 42  1  0  0  0  0
 42 47  1  0  0  0  0
 42 43  1  0  0  0  0
 43 45  1  0  0  0  0
 44 43  2  0  0  0  0
 45 46  1  0  0  0  0
 47 48  1  1  0  0  0
 47 45  1  0  0  0  0
 49 48  1  0  0  0  0
 50 49  1  0  0  0  0
 51 41  1  0  0  0  0
 52 51  2  0  0  0  0
 53 51  1  0  0  0  0
 54 53  1  0  0  0  0
M  END
>  <minimizedAffinity>
-4.30256796

>  <minimizedRMSD>
0.994200528

$$$$
