
 OpenBabel03272509413D

 42 45  0  0  1  0  0  0  0  0999 V2000
   35.2500   30.1580   32.0430 C   0  0  0  0  0  0  0  0  0  0  0  0
   35.3010   31.2880   31.2290 C   0  0  0  0  0  0  0  0  0  0  0  0
   36.2180   31.4310   30.1930 C   0  0  0  0  0  0  0  0  0  0  0  0
   37.1350   30.4010   29.9480 C   0  0  0  0  0  0  0  0  0  0  0  0
   37.0740   29.2990   30.7550 C   0  0  0  0  0  0  0  0  0  0  0  0
   36.1500   29.1920   31.7740 C   0  0  0  0  0  0  0  0  0  0  0  0
   34.6110   32.1260   31.3690 H   0  0  0  0  0  0  0  0  0  0  0  0
   36.2160   32.3280   29.5890 H   0  0  0  0  0  0  0  0  0  0  0  0
   37.8380   30.5350   29.1370 H   0  0  0  0  0  0  0  0  0  0  0  0
   37.8210   28.5540   30.4920 H   0  0  0  0  0  0  0  0  0  0  0  0
   34.2610   30.1060   33.0910 C   0  0  0  0  0  0  0  0  0  0  0  0
   33.2130   29.4280   32.7980 O   0  0  0  0  0  0  0  0  0  0  0  0
   35.9130   31.5370   35.9840 C   0  0  0  0  0  0  0  0  0  0  0  0
   34.8780   31.9450   36.8110 C   0  0  0  0  0  0  0  0  0  0  0  0
   33.5950   31.7280   36.3750 C   0  0  0  0  0  0  0  0  0  0  0  0
   33.3820   31.1320   35.1700 N   0  0  0  0  0  0  0  0  0  0  0  0
   34.3880   30.7540   34.4020 C   0  0  0  0  0  0  0  0  0  0  0  0
   35.6580   30.9610   34.8180 N   0  0  0  0  0  0  0  0  0  0  0  0
   36.9670   31.6780   36.2670 H   0  0  0  0  0  0  0  0  0  0  0  0
   35.1900   32.4050   37.7400 H   0  0  0  0  0  0  0  0  0  0  0  0
   32.8030   32.0430   37.0150 H   0  0  0  0  0  0  0  0  0  0  0  0
   36.2310   27.9570   32.5320 C   0  0  0  0  0  3  0  0  0  0  0  0
   37.0070   26.9130   32.2790 C   0  0  0  0  0  3  0  0  0  0  0  0
   37.1850   25.6330   32.9620 C   0  0  0  0  0  0  0  0  0  0  0  0
   36.3040   25.4040   33.5900 H   0  0  0  0  0  0  0  0  0  0  0  0
   37.2000   24.8100   32.1920 H   0  0  0  0  0  0  0  0  0  0  0  0
   40.2760   22.9800   36.4940 C   0  0  0  0  0  0  0  0  0  0  0  0
   39.1520   23.6660   36.6170 C   0  0  0  0  0  0  0  0  0  0  0  0
   38.7560   24.5340   35.5340 N   0  0  0  0  0  0  0  0  0  0  0  0
   38.2250   25.8320   35.1920 C   0  0  0  0  0  0  0  0  0  0  0  0
   37.7490   26.8430   35.8120 O   0  0  0  0  0  0  0  0  0  0  0  0
   38.4620   25.5210   33.7670 C   0  0  1  0  0  3  0  0  0  0  0  0
   38.8510   24.1200   34.1240 C   0  0  1  0  0  3  0  0  0  0  0  0
   40.5570   23.6690   33.8450 S   0  0  0  0  0  0  0  0  0  0  0  0
   41.2390   22.9800   35.3700 C   0  0  0  0  0  3  0  0  0  0  0  0
   42.1930   23.5040   35.6500 H   0  0  0  0  0  0  0  0  0  0  0  0
   40.6570   22.0990   37.5980 C   0  0  0  0  0  2  0  0  0  0  0  0
   39.8480   21.3590   37.7570 H   0  0  0  0  0  0  0  0  0  0  0  0
   38.2880   23.5830   37.7920 C   0  0  0  0  0  0  0  0  0  0  0  0
   38.2550   24.3670   38.7550 O   0  0  0  0  0  0  0  0  0  0  0  0
   37.3660   22.6000   37.9980 O   0  0  0  0  0  0  0  0  0  0  0  0
   36.4500   22.7950   38.3390 H   0  0  0  0  0  0  0  0  0  0  0  0
  1 11  1  0  0  0  0
  2  7  1  0  0  0  0
  2  1  2  0  0  0  0
  3  2  1  0  0  0  0
  4  3  2  0  0  0  0
  4  5  1  0  0  0  0
  5  6  2  0  0  0  0
  6  1  1  0  0  0  0
  6 22  1  0  0  0  0
  8  3  1  0  0  0  0
  9  4  1  0  0  0  0
 10  5  1  0  0  0  0
 11 17  1  0  0  0  0
 12 11  2  0  0  0  0
 13 19  1  0  0  0  0
 13 14  1  0  0  0  0
 14 20  1  0  0  0  0
 15 14  2  0  0  0  0
 15 21  1  0  0  0  0
 16 15  1  0  0  0  0
 17 18  1  0  0  0  0
 17 16  2  0  0  0  0
 18 13  2  0  0  0  0
 23 22  2  0  0  0  0
 23 24  1  0  0  0  0
 24 25  1  0  0  0  0
 26 24  1  0  0  0  0
 27 28  2  0  0  0  0
 27 37  1  0  0  0  0
 28 39  1  0  0  0  0
 29 28  1  0  0  0  0
 30 29  1  0  0  0  0
 30 31  2  0  0  0  0
 32 24  1  6  0  0  0
 32 33  1  0  0  0  0
 32 30  1  0  0  0  0
 33 34  1  6  0  0  0
 33 29  1  0  0  0  0
 34 35  1  0  0  0  0
 35 36  1  0  0  0  0
 35 27  1  0  0  0  0
 37 38  1  0  0  0  0
 39 41  1  0  0  0  0
 39 40  2  0  0  0  0
 41 42  1  0  0  0  0
M  END
>  <minimizedAffinity>
-6.4904747

$$$$

 OpenBabel03272509413D

 42 45  0  0  1  0  0  0  0  0999 V2000
   36.3010   26.3570   31.0970 C   0  0  0  0  0  0  0  0  0  0  0  0
   35.0990   25.6990   30.8430 C   0  0  0  0  0  0  0  0  0  0  0  0
   34.9660   24.3160   30.9110 C   0  0  0  0  0  0  0  0  0  0  0  0
   36.0830   23.5410   31.2490 C   0  0  0  0  0  0  0  0  0  0  0  0
   37.2550   24.2000   31.4950 C   0  0  0  0  0  0  0  0  0  0  0  0
   37.3490   25.5740   31.4180 C   0  0  0  0  0  0  0  0  0  0  0  0
   34.1910   26.2490   30.5750 H   0  0  0  0  0  0  0  0  0  0  0  0
   34.0100   23.8540   30.7050 H   0  0  0  0  0  0  0  0  0  0  0  0
   35.9540   22.4680   31.2960 H   0  0  0  0  0  0  0  0  0  0  0  0
   38.0640   23.5190   31.7480 H   0  0  0  0  0  0  0  0  0  0  0  0
   36.3360   27.7950   31.0000 C   0  0  0  0  0  0  0  0  0  0  0  0
   36.6530   28.2420   29.8410 O   0  0  0  0  0  0  0  0  0  0  0  0
   35.5420   30.9390   32.6240 C   0  0  0  0  0  0  0  0  0  0  0  0
   35.4780   30.6280   33.9740 C   0  0  0  0  0  0  0  0  0  0  0  0
   35.7100   29.3240   34.3370 C   0  0  0  0  0  0  0  0  0  0  0  0
   35.9890   28.3970   33.3810 N   0  0  0  0  0  0  0  0  0  0  0  0
   36.0430   28.7210   32.1020 C   0  0  0  0  0  0  0  0  0  0  0  0
   35.8180   30.0010   31.7290 N   0  0  0  0  0  0  0  0  0  0  0  0
   35.3680   31.9610   32.2590 H   0  0  0  0  0  0  0  0  0  0  0  0
   35.2470   31.4620   34.6240 H   0  0  0  0  0  0  0  0  0  0  0  0
   35.6600   29.0910   35.3760 H   0  0  0  0  0  0  0  0  0  0  0  0
   38.6690   26.1030   31.7050 C   0  0  0  0  0  3  0  0  0  0  0  0
   39.1080   26.5730   32.8650 C   0  0  0  0  0  3  0  0  0  0  0  0
   40.3990   27.1180   33.2790 C   0  0  0  0  0  0  0  0  0  0  0  0
   41.1480   26.9930   32.4740 H   0  0  0  0  0  0  0  0  0  0  0  0
   40.3010   28.2350   33.3970 H   0  0  0  0  0  0  0  0  0  0  0  0
   41.5660   22.9360   36.4740 C   0  0  0  0  0  0  0  0  0  0  0  0
   40.4260   23.4760   36.0770 C   0  0  0  0  0  0  0  0  0  0  0  0
   40.4600   24.7940   35.4880 N   0  0  0  0  0  0  0  0  0  0  0  0
   39.8200   26.0870   35.4450 C   0  0  0  0  0  0  0  0  0  0  0  0
   38.7640   26.6260   35.9220 O   0  0  0  0  0  0  0  0  0  0  0  0
   40.9230   26.5710   34.5890 C   0  0  1  0  0  3  0  0  0  0  0  0
   41.4840   25.1850   34.5060 C   0  0  1  0  0  3  0  0  0  0  0  0
   43.0660   24.9150   35.2910 S   0  0  0  0  0  0  0  0  0  0  0  0
   42.9290   23.5100   36.4180 C   0  0  0  0  0  3  0  0  0  0  0  0
   43.2980   23.7870   37.4430 H   0  0  0  0  0  0  0  0  0  0  0  0
   41.5130   21.5960   37.0610 C   0  0  0  0  0  2  0  0  0  0  0  0
   41.0730   20.9010   36.3180 H   0  0  0  0  0  0  0  0  0  0  0  0
   39.1360   22.8020   36.1970 C   0  0  0  0  0  0  0  0  0  0  0  0
   38.5260   22.1850   35.3070 O   0  0  0  0  0  0  0  0  0  0  0  0
   38.3980   22.7540   37.3430 O   0  0  0  0  0  0  0  0  0  0  0  0
   37.9530   21.9170   37.6520 H   0  0  0  0  0  0  0  0  0  0  0  0
  1  6  1  0  0  0  0
  2  3  1  0  0  0  0
  2  1  2  0  0  0  0
  3  4  2  0  0  0  0
  4  9  1  0  0  0  0
  4  5  1  0  0  0  0
  5 10  1  0  0  0  0
  6  5  2  0  0  0  0
  6 22  1  0  0  0  0
  7  2  1  0  0  0  0
  8  3  1  0  0  0  0
 11  1  1  0  0  0  0
 11 17  1  0  0  0  0
 12 11  2  0  0  0  0
 13 14  1  0  0  0  0
 14 15  2  0  0  0  0
 14 20  1  0  0  0  0
 15 21  1  0  0  0  0
 16 15  1  0  0  0  0
 17 16  2  0  0  0  0
 18 17  1  0  0  0  0
 18 13  2  0  0  0  0
 19 13  1  0  0  0  0
 22 23  2  0  0  0  0
 23 24  1  0  0  0  0
 24 26  1  0  0  0  0
 25 24  1  0  0  0  0
 27 37  1  0  0  0  0
 28 39  1  0  0  0  0
 28 27  2  0  0  0  0
 29 28  1  0  0  0  0
 30 29  1  0  0  0  0
 30 31  2  0  0  0  0
 32 24  1  6  0  0  0
 32 30  1  0  0  0  0
 33 32  1  0  0  0  0
 33 34  1  1  0  0  0
 33 29  1  0  0  0  0
 34 35  1  0  0  0  0
 35 27  1  0  0  0  0
 35 36  1  0  0  0  0
 38 37  1  0  0  0  0
 39 41  1  0  0  0  0
 40 39  2  0  0  0  0
 41 42  1  0  0  0  0
M  END
>  <minimizedAffinity>
-6.24790001

$$$$

 OpenBabel03272509413D

 42 45  0  0  1  0  0  0  0  0999 V2000
   33.6360   31.0490   35.3770 C   0  0  0  0  0  0  0  0  0  0  0  0
   33.6060   32.3040   35.9820 C   0  0  0  0  0  0  0  0  0  0  0  0
   34.7570   33.0290   36.2750 C   0  0  0  0  0  0  0  0  0  0  0  0
   36.0060   32.4820   35.9530 C   0  0  0  0  0  0  0  0  0  0  0  0
   36.0200   31.2500   35.3600 C   0  0  0  0  0  0  0  0  0  0  0  0
   34.8570   30.5610   35.0840 C   0  0  0  0  0  0  0  0  0  0  0  0
   32.6620   32.7850   36.2570 H   0  0  0  0  0  0  0  0  0  0  0  0
   34.6790   33.9990   36.7450 H   0  0  0  0  0  0  0  0  0  0  0  0
   36.8860   33.0640   36.1900 H   0  0  0  0  0  0  0  0  0  0  0  0
   37.0290   30.9070   35.1470 H   0  0  0  0  0  0  0  0  0  0  0  0
   32.3870   30.3790   35.1140 C   0  0  0  0  0  0  0  0  0  0  0  0
   31.7780   30.7850   34.0600 O   0  0  0  0  0  0  0  0  0  0  0  0
   30.6810   27.2750   35.8900 C   0  0  0  0  0  0  0  0  0  0  0  0
   30.6680   27.2210   37.2750 C   0  0  0  0  0  0  0  0  0  0  0  0
   31.2490   28.2610   37.9570 C   0  0  0  0  0  0  0  0  0  0  0  0
   31.8100   29.2910   37.2660 N   0  0  0  0  0  0  0  0  0  0  0  0
   31.8090   29.3160   35.9460 C   0  0  0  0  0  0  0  0  0  0  0  0
   31.2400   28.2990   35.2610 N   0  0  0  0  0  0  0  0  0  0  0  0
   30.2340   26.4780   35.2780 H   0  0  0  0  0  0  0  0  0  0  0  0
   30.1890   26.3450   37.6940 H   0  0  0  0  0  0  0  0  0  0  0  0
   31.2360   28.2150   39.0220 H   0  0  0  0  0  0  0  0  0  0  0  0
   35.0590   29.2670   34.4580 C   0  0  0  0  0  3  0  0  0  0  0  0
   36.1150   28.8730   33.7600 C   0  0  0  0  0  3  0  0  0  0  0  0
   36.4380   27.6110   33.0960 C   0  0  0  0  0  0  0  0  0  0  0  0
   35.6420   26.8650   33.2750 H   0  0  0  0  0  0  0  0  0  0  0  0
   36.4210   27.7740   31.9810 H   0  0  0  0  0  0  0  0  0  0  0  0
   39.5140   23.4890   34.7100 C   0  0  0  0  0  0  0  0  0  0  0  0
   38.6320   24.2520   35.3320 C   0  0  0  0  0  0  0  0  0  0  0  0
   38.2240   25.4850   34.7000 N   0  0  0  0  0  0  0  0  0  0  0  0
   37.9460   26.8860   34.9100 C   0  0  0  0  0  0  0  0  0  0  0  0
   37.8580   27.6850   35.9030 O   0  0  0  0  0  0  0  0  0  0  0  0
   37.7960   27.0440   33.4490 C   0  0  1  0  0  3  0  0  0  0  0  0
   37.9190   25.5630   33.2620 C   0  0  1  0  0  3  0  0  0  0  0  0
   39.3760   24.9840   32.4050 S   0  0  0  0  0  0  0  0  0  0  0  0
   40.1890   23.7260   33.4140 C   0  0  0  0  0  3  0  0  0  0  0  0
   41.2760   23.9760   33.5600 H   0  0  0  0  0  0  0  0  0  0  0  0
   39.9090   22.2390   35.3620 C   0  0  0  0  0  2  0  0  0  0  0  0
   39.0040   21.6190   35.5150 H   0  0  0  0  0  0  0  0  0  0  0  0
   38.0420   23.9050   36.6220 C   0  0  0  0  0  0  0  0  0  0  0  0
   38.0790   24.5750   37.6680 O   0  0  0  0  0  0  0  0  0  0  0  0
   37.3440   22.7590   36.8650 O   0  0  0  0  0  0  0  0  0  0  0  0
   36.4950   22.7550   37.3870 H   0  0  0  0  0  0  0  0  0  0  0  0
  1  2  1  0  0  0  0
  2  7  1  0  0  0  0
  2  3  2  0  0  0  0
  3  8  1  0  0  0  0
  4  9  1  0  0  0  0
  4  3  1  0  0  0  0
  5  4  2  0  0  0  0
  6  5  1  0  0  0  0
  6  1  2  0  0  0  0
 10  5  1  0  0  0  0
 11  1  1  0  0  0  0
 11 17  1  0  0  0  0
 12 11  2  0  0  0  0
 13 14  1  0  0  0  0
 14 20  1  0  0  0  0
 14 15  2  0  0  0  0
 15 21  1  0  0  0  0
 16 15  1  0  0  0  0
 17 16  2  0  0  0  0
 18 13  2  0  0  0  0
 18 17  1  0  0  0  0
 19 13  1  0  0  0  0
 22  6  1  0  0  0  0
 23 22  2  0  0  0  0
 24 25  1  0  0  0  0
 24 23  1  0  0  0  0
 26 24  1  0  0  0  0
 27 28  2  0  0  0  0
 27 37  1  0  0  0  0
 28 39  1  0  0  0  0
 29 30  1  0  0  0  0
 29 28  1  0  0  0  0
 30 31  2  0  0  0  0
 32 24  1  1  0  0  0
 32 30  1  0  0  0  0
 33 34  1  6  0  0  0
 33 32  1  0  0  0  0
 33 29  1  0  0  0  0
 34 35  1  0  0  0  0
 35 36  1  0  0  0  0
 35 27  1  0  0  0  0
 37 38  1  0  0  0  0
 39 41  1  0  0  0  0
 39 40  2  0  0  0  0
 41 42  1  0  0  0  0
M  END
>  <minimizedAffinity>
-6.19522953

$$$$

 OpenBabel03272509413D

 42 45  0  0  1  0  0  0  0  0999 V2000
   35.7320   29.1390   32.4790 C   0  0  0  0  0  0  0  0  0  0  0  0
   35.7980   29.7390   31.2230 C   0  0  0  0  0  0  0  0  0  0  0  0
   36.7980   29.4510   30.3000 C   0  0  0  0  0  0  0  0  0  0  0  0
   37.7890   28.5200   30.6380 C   0  0  0  0  0  0  0  0  0  0  0  0
   37.7120   27.9410   31.8740 C   0  0  0  0  0  0  0  0  0  0  0  0
   36.7030   28.2510   32.7630 C   0  0  0  0  0  0  0  0  0  0  0  0
   35.0530   30.4730   30.8990 H   0  0  0  0  0  0  0  0  0  0  0  0
   36.8040   29.9440   29.3370 H   0  0  0  0  0  0  0  0  0  0  0  0
   38.5560   28.3130   29.9050 H   0  0  0  0  0  0  0  0  0  0  0  0
   38.5190   27.2340   32.0490 H   0  0  0  0  0  0  0  0  0  0  0  0
   34.6530   29.5050   33.3630 C   0  0  0  0  0  0  0  0  0  0  0  0
   33.5180   28.9920   33.0560 O   0  0  0  0  0  0  0  0  0  0  0  0
   33.6280   31.3270   36.3250 C   0  0  0  0  0  0  0  0  0  0  0  0
   34.7750   31.9810   36.7480 C   0  0  0  0  0  0  0  0  0  0  0  0
   35.9180   31.7970   36.0100 C   0  0  0  0  0  0  0  0  0  0  0  0
   35.8910   30.9970   34.9100 N   0  0  0  0  0  0  0  0  0  0  0  0
   34.7830   30.3850   34.5310 C   0  0  0  0  0  0  0  0  0  0  0  0
   33.6490   30.5570   35.2470 N   0  0  0  0  0  0  0  0  0  0  0  0
   32.6750   31.4270   36.8660 H   0  0  0  0  0  0  0  0  0  0  0  0
   34.6550   32.5850   37.6380 H   0  0  0  0  0  0  0  0  0  0  0  0
   36.7970   32.3030   36.3390 H   0  0  0  0  0  0  0  0  0  0  0  0
   36.7800   27.5450   34.0290 C   0  0  0  0  0  3  0  0  0  0  0  0
   37.8730   27.0930   34.6270 C   0  0  0  0  0  3  0  0  0  0  0  0
   38.0810   26.3840   35.8890 C   0  0  0  0  0  0  0  0  0  0  0  0
   38.5660   27.0470   36.6290 H   0  0  0  0  0  0  0  0  0  0  0  0
   37.0760   26.1490   36.3430 H   0  0  0  0  0  0  0  0  0  0  0  0
   39.1010   21.8100   33.2250 C   0  0  0  0  0  0  0  0  0  0  0  0
   38.0690   22.2260   33.9390 C   0  0  0  0  0  0  0  0  0  0  0  0
   38.2460   23.3730   34.7980 N   0  0  0  0  0  0  0  0  0  0  0  0
   37.9720   23.9270   36.1020 C   0  0  0  0  0  0  0  0  0  0  0  0
   37.2910   23.6030   37.1340 O   0  0  0  0  0  0  0  0  0  0  0  0
   38.8340   25.0780   35.7610 C   0  0  1  0  0  3  0  0  0  0  0  0
   38.9720   24.5750   34.3570 C   0  0  1  0  0  3  0  0  0  0  0  0
   40.5990   24.0280   33.8620 S   0  0  0  0  0  0  0  0  0  0  0  0
   40.4750   22.3580   33.1820 C   0  0  0  0  0  3  0  0  0  0  0  0
   41.2050   21.6690   33.6890 H   0  0  0  0  0  0  0  0  0  0  0  0
   38.9000   20.6510   32.3540 C   0  0  0  0  0  2  0  0  0  0  0  0
   38.0880   20.8840   31.6360 H   0  0  0  0  0  0  0  0  0  0  0  0
   36.7560   21.5870   33.8960 C   0  0  0  0  0  0  0  0  0  0  0  0
   35.9620   21.5680   32.9410 O   0  0  0  0  0  0  0  0  0  0  0  0
   36.2030   20.8980   34.9360 O   0  0  0  0  0  0  0  0  0  0  0  0
   35.7350   20.0270   34.8060 H   0  0  0  0  0  0  0  0  0  0  0  0
  1  6  1  0  0  0  0
  1 11  1  0  0  0  0
  2  1  2  0  0  0  0
  3  4  2  0  0  0  0
  3  2  1  0  0  0  0
  4  5  1  0  0  0  0
  5 10  1  0  0  0  0
  5  6  2  0  0  0  0
  6 22  1  0  0  0  0
  7  2  1  0  0  0  0
  8  3  1  0  0  0  0
  9  4  1  0  0  0  0
 11 17  1  0  0  0  0
 12 11  2  0  0  0  0
 13 14  1  0  0  0  0
 13 19  1  0  0  0  0
 14 20  1  0  0  0  0
 15 21  1  0  0  0  0
 15 14  2  0  0  0  0
 16 15  1  0  0  0  0
 17 16  2  0  0  0  0
 17 18  1  0  0  0  0
 18 13  2  0  0  0  0
 22 23  2  0  0  0  0
 23 24  1  0  0  0  0
 24 26  1  0  0  0  0
 24 25  1  0  0  0  0
 27 28  2  0  0  0  0
 28 29  1  0  0  0  0
 29 30  1  0  0  0  0
 30 31  2  0  0  0  0
 32 24  1  6  0  0  0
 32 30  1  0  0  0  0
 33 34  1  1  0  0  0
 33 29  1  0  0  0  0
 33 32  1  0  0  0  0
 35 27  1  0  0  0  0
 35 36  1  0  0  0  0
 35 34  1  0  0  0  0
 37 27  1  0  0  0  0
 38 37  1  0  0  0  0
 39 28  1  0  0  0  0
 39 41  1  0  0  0  0
 40 39  2  0  0  0  0
 42 41  1  0  0  0  0
M  END
>  <minimizedAffinity>
-6.17015982

$$$$

 OpenBabel03272509413D

 42 45  0  0  1  0  0  0  0  0999 V2000
   37.3490   21.6830   33.4540 C   0  0  0  0  0  0  0  0  0  0  0  0
   36.5850   20.5740   33.8120 C   0  0  0  0  0  0  0  0  0  0  0  0
   35.3510   20.2890   33.2350 C   0  0  0  0  0  0  0  0  0  0  0  0
   34.8450   21.1470   32.2510 C   0  0  0  0  0  0  0  0  0  0  0  0
   35.6050   22.2310   31.9100 C   0  0  0  0  0  0  0  0  0  0  0  0
   36.8250   22.4820   32.5040 C   0  0  0  0  0  0  0  0  0  0  0  0
   36.9260   19.8650   34.5740 H   0  0  0  0  0  0  0  0  0  0  0  0
   34.7970   19.4140   33.5480 H   0  0  0  0  0  0  0  0  0  0  0  0
   33.8850   20.9040   31.8170 H   0  0  0  0  0  0  0  0  0  0  0  0
   35.1350   22.8390   31.1410 H   0  0  0  0  0  0  0  0  0  0  0  0
   38.6150   21.8910   34.1100 C   0  0  0  0  0  0  0  0  0  0  0  0
   39.6390   21.5990   33.3940 O   0  0  0  0  0  0  0  0  0  0  0  0
   37.8270   23.7340   37.1320 C   0  0  0  0  0  0  0  0  0  0  0  0
   38.8710   23.4470   37.9980 C   0  0  0  0  0  0  0  0  0  0  0  0
   39.8610   22.6120   37.5440 C   0  0  0  0  0  0  0  0  0  0  0  0
   39.7890   22.1010   36.2850 N   0  0  0  0  0  0  0  0  0  0  0  0
   38.7820   22.3900   35.4810 C   0  0  0  0  0  0  0  0  0  0  0  0
   37.7990   23.2130   35.9140 N   0  0  0  0  0  0  0  0  0  0  0  0
   36.9990   24.3950   37.4260 H   0  0  0  0  0  0  0  0  0  0  0  0
   38.8020   23.9210   38.9690 H   0  0  0  0  0  0  0  0  0  0  0  0
   40.6620   22.3950   38.2140 H   0  0  0  0  0  0  0  0  0  0  0  0
   37.4930   23.6780   32.0250 C   0  0  0  0  0  3  0  0  0  0  0  0
   37.5290   24.8650   32.6150 C   0  0  0  0  0  3  0  0  0  0  0  0
   38.1640   26.1280   32.2430 C   0  0  0  0  0  0  0  0  0  0  0  0
   38.0530   26.8700   33.0550 H   0  0  0  0  0  0  0  0  0  0  0  0
   39.2770   25.9650   32.1650 H   0  0  0  0  0  0  0  0  0  0  0  0
   37.3800   30.3550   28.9920 C   0  0  0  0  0  0  0  0  0  0  0  0
   36.7780   29.9430   30.0940 C   0  0  0  0  0  0  0  0  0  0  0  0
   37.0140   28.5900   30.5400 N   0  0  0  0  0  0  0  0  0  0  0  0
   36.4020   27.3940   31.0670 C   0  0  0  0  0  0  0  0  0  0  0  0
   35.2480   27.0400   31.4880 O   0  0  0  0  0  0  0  0  0  0  0  0
   37.6990   26.7020   30.9220 C   0  0  1  0  0  3  0  0  0  0  0  0
   38.3580   27.9900   30.5360 C   0  0  1  0  0  3  0  0  0  0  0  0
   38.9590   28.1070   28.8580 S   0  0  0  0  0  0  0  0  0  0  0  0
   38.2880   29.6020   28.0980 C   0  0  0  0  0  3  0  0  0  0  0  0
   37.7900   29.3600   27.1200 H   0  0  0  0  0  0  0  0  0  0  0  0
   37.1340   31.7320   28.5600 C   0  0  0  0  0  2  0  0  0  0  0  0
   37.4480   32.4190   29.3710 H   0  0  0  0  0  0  0  0  0  0  0  0
   35.8910   30.7900   30.8870 C   0  0  0  0  0  0  0  0  0  0  0  0
   36.1920   31.4610   31.8890 O   0  0  0  0  0  0  0  0  0  0  0  0
   34.5640   30.9680   30.6280 O   0  0  0  0  0  0  0  0  0  0  0  0
   34.1310   31.8650   30.6680 H   0  0  0  0  0  0  0  0  0  0  0  0
  1  2  1  0  0  0  0
  1 11  1  0  0  0  0
  2  7  1  0  0  0  0
  3  8  1  0  0  0  0
  3  2  2  0  0  0  0
  4  3  1  0  0  0  0
  5  4  2  0  0  0  0
  5  6  1  0  0  0  0
  6  1  2  0  0  0  0
  9  4  1  0  0  0  0
 10  5  1  0  0  0  0
 11 17  1  0  0  0  0
 12 11  2  0  0  0  0
 13 19  1  0  0  0  0
 13 14  1  0  0  0  0
 14 20  1  0  0  0  0
 15 14  2  0  0  0  0
 15 21  1  0  0  0  0
 16 15  1  0  0  0  0
 17 18  1  0  0  0  0
 17 16  2  0  0  0  0
 18 13  2  0  0  0  0
 22  6  1  0  0  0  0
 22 23  2  0  0  0  0
 24 23  1  0  0  0  0
 24 25  1  0  0  0  0
 26 24  1  0  0  0  0
 27 28  2  0  0  0  0
 28 29  1  0  0  0  0
 28 39  1  0  0  0  0
 29 30  1  0  0  0  0
 30 31  2  0  0  0  0
 32 30  1  0  0  0  0
 32 24  1  1  0  0  0
 33 34  1  6  0  0  0
 33 29  1  0  0  0  0
 33 32  1  0  0  0  0
 35 34  1  0  0  0  0
 35 27  1  0  0  0  0
 36 35  1  0  0  0  0
 37 27  1  0  0  0  0
 37 38  1  0  0  0  0
 39 40  2  0  0  0  0
 41 42  1  0  0  0  0
 41 39  1  0  0  0  0
M  END
>  <minimizedAffinity>
-6.08581638

$$$$

 OpenBabel03272509413D

 42 45  0  0  1  0  0  0  0  0999 V2000
   37.3070   27.7100   32.5460 C   0  0  0  0  0  0  0  0  0  0  0  0
   36.5610   28.3870   31.5820 C   0  0  0  0  0  0  0  0  0  0  0  0
   35.5160   29.2480   31.9030 C   0  0  0  0  0  0  0  0  0  0  0  0
   35.1890   29.4490   33.2500 C   0  0  0  0  0  0  0  0  0  0  0  0
   35.9280   28.7780   34.1840 C   0  0  0  0  0  0  0  0  0  0  0  0
   36.9590   27.9330   33.8280 C   0  0  0  0  0  0  0  0  0  0  0  0
   36.7690   28.2730   30.5130 H   0  0  0  0  0  0  0  0  0  0  0  0
   34.9690   29.7500   31.1170 H   0  0  0  0  0  0  0  0  0  0  0  0
   34.3740   30.1230   33.4740 H   0  0  0  0  0  0  0  0  0  0  0  0
   35.6040   28.9950   35.1990 H   0  0  0  0  0  0  0  0  0  0  0  0
   38.3710   26.8410   32.1110 C   0  0  0  0  0  0  0  0  0  0  0  0
   37.9990   25.6460   31.8280 O   0  0  0  0  0  0  0  0  0  0  0  0
   41.7860   27.4760   33.1490 C   0  0  0  0  0  0  0  0  0  0  0  0
   42.4260   27.9100   31.9980 C   0  0  0  0  0  0  0  0  0  0  0  0
   41.6810   27.9870   30.8480 C   0  0  0  0  0  0  0  0  0  0  0  0
   40.3640   27.6430   30.8730 N   0  0  0  0  0  0  0  0  0  0  0  0
   39.7800   27.2330   31.9840 C   0  0  0  0  0  0  0  0  0  0  0  0
   40.5020   27.1520   33.1250 N   0  0  0  0  0  0  0  0  0  0  0  0
   42.3190   27.3900   34.1070 H   0  0  0  0  0  0  0  0  0  0  0  0
   43.4740   28.1500   32.1210 H   0  0  0  0  0  0  0  0  0  0  0  0
   42.1780   28.3210   29.9670 H   0  0  0  0  0  0  0  0  0  0  0  0
   37.6310   27.3000   34.9480 C   0  0  0  0  0  3  0  0  0  0  0  0
   37.4850   26.0510   35.3670 C   0  0  0  0  0  3  0  0  0  0  0  0
   38.1020   25.3030   36.4610 C   0  0  0  0  0  0  0  0  0  0  0  0
   38.8710   25.9180   36.9650 H   0  0  0  0  0  0  0  0  0  0  0  0
   37.3260   25.1190   37.2580 H   0  0  0  0  0  0  0  0  0  0  0  0
   38.4290   21.2110   32.9680 C   0  0  0  0  0  0  0  0  0  0  0  0
   37.4800   21.6170   33.7930 C   0  0  0  0  0  0  0  0  0  0  0  0
   37.8310   22.5510   34.8360 N   0  0  0  0  0  0  0  0  0  0  0  0
   37.6660   22.8850   36.2310 C   0  0  0  0  0  0  0  0  0  0  0  0
   36.9710   22.4660   37.2180 O   0  0  0  0  0  0  0  0  0  0  0  0
   38.6680   23.9570   36.0620 C   0  0  1  0  0  3  0  0  0  0  0  0
   38.7040   23.7100   34.5860 C   0  0  1  0  0  3  0  0  0  0  0  0
   40.2300   23.0580   33.9230 S   0  0  0  0  0  0  0  0  0  0  0  0
   39.8640   21.5740   32.9590 C   0  0  0  0  0  3  0  0  0  0  0  0
   40.5050   20.7150   33.2970 H   0  0  0  0  0  0  0  0  0  0  0  0
   38.0530   20.2700   31.9120 C   0  0  0  0  0  2  0  0  0  0  0  0
   37.2640   20.7340   31.2870 H   0  0  0  0  0  0  0  0  0  0  0  0
   36.0920   21.1720   33.6980 C   0  0  0  0  0  0  0  0  0  0  0  0
   35.2500   21.5180   32.8520 O   0  0  0  0  0  0  0  0  0  0  0  0
   35.5100   20.2840   34.5540 O   0  0  0  0  0  0  0  0  0  0  0  0
   34.9210   19.5460   34.2330 H   0  0  0  0  0  0  0  0  0  0  0  0
  1  6  1  0  0  0  0
  2  3  1  0  0  0  0
  2  1  2  0  0  0  0
  3  4  2  0  0  0  0
  4  9  1  0  0  0  0
  4  5  1  0  0  0  0
  5 10  1  0  0  0  0
  6  5  2  0  0  0  0
  6 22  1  0  0  0  0
  7  2  1  0  0  0  0
  8  3  1  0  0  0  0
 11  1  1  0  0  0  0
 12 11  2  0  0  0  0
 13 19  1  0  0  0  0
 14 20  1  0  0  0  0
 14 13  2  0  0  0  0
 15 16  2  0  0  0  0
 15 14  1  0  0  0  0
 16 17  1  0  0  0  0
 17 11  1  0  0  0  0
 17 18  2  0  0  0  0
 18 13  1  0  0  0  0
 21 15  1  0  0  0  0
 22 23  2  0  0  0  0
 23 24  1  0  0  0  0
 24 25  1  0  0  0  0
 24 26  1  0  0  0  0
 27 28  2  0  0  0  0
 28 29  1  0  0  0  0
 29 30  1  0  0  0  0
 30 31  2  0  0  0  0
 32 30  1  0  0  0  0
 32 24  1  6  0  0  0
 33 34  1  1  0  0  0
 33 29  1  0  0  0  0
 33 32  1  0  0  0  0
 35 27  1  0  0  0  0
 35 36  1  0  0  0  0
 35 34  1  0  0  0  0
 37 27  1  0  0  0  0
 38 37  1  0  0  0  0
 39 28  1  0  0  0  0
 39 41  1  0  0  0  0
 40 39  2  0  0  0  0
 42 41  1  0  0  0  0
M  END
>  <minimizedAffinity>
-6.05817509

$$$$

 OpenBabel03272509413D

 42 45  0  0  1  0  0  0  0  0999 V2000
   36.3200   26.6030   31.1770 C   0  0  0  0  0  0  0  0  0  0  0  0
   35.1040   25.9680   30.9270 C   0  0  0  0  0  0  0  0  0  0  0  0
   34.9800   24.5870   30.8240 C   0  0  0  0  0  0  0  0  0  0  0  0
   36.1210   23.7880   30.9760 C   0  0  0  0  0  0  0  0  0  0  0  0
   37.3070   24.4230   31.2200 C   0  0  0  0  0  0  0  0  0  0  0  0
   37.3910   25.7970   31.3160 C   0  0  0  0  0  0  0  0  0  0  0  0
   34.1770   26.5370   30.8000 H   0  0  0  0  0  0  0  0  0  0  0  0
   34.0130   24.1440   30.6290 H   0  0  0  0  0  0  0  0  0  0  0  0
   35.9990   22.7170   30.8910 H   0  0  0  0  0  0  0  0  0  0  0  0
   38.1340   23.7260   31.3230 H   0  0  0  0  0  0  0  0  0  0  0  0
   36.3430   28.0410   31.2670 C   0  0  0  0  0  0  0  0  0  0  0  0
   35.9160   28.5100   32.3820 O   0  0  0  0  0  0  0  0  0  0  0  0
   36.8600   31.1700   29.5090 C   0  0  0  0  0  0  0  0  0  0  0  0
   37.5570   30.8170   28.3650 C   0  0  0  0  0  0  0  0  0  0  0  0
   37.8560   29.4880   28.1890 C   0  0  0  0  0  0  0  0  0  0  0  0
   37.4680   28.5790   29.1230 N   0  0  0  0  0  0  0  0  0  0  0  0
   36.8040   28.9440   30.2060 C   0  0  0  0  0  0  0  0  0  0  0  0
   36.5020   30.2490   30.3930 N   0  0  0  0  0  0  0  0  0  0  0  0
   36.5850   32.2140   29.7170 H   0  0  0  0  0  0  0  0  0  0  0  0
   37.8030   31.6400   27.7070 H   0  0  0  0  0  0  0  0  0  0  0  0
   38.3920   29.2220   27.3070 H   0  0  0  0  0  0  0  0  0  0  0  0
   38.7270   26.3010   31.5740 C   0  0  0  0  0  3  0  0  0  0  0  0
   39.2230   26.6920   32.7390 C   0  0  0  0  0  3  0  0  0  0  0  0
   40.5370   27.2040   33.1250 C   0  0  0  0  0  0  0  0  0  0  0  0
   41.2640   27.0640   32.3040 H   0  0  0  0  0  0  0  0  0  0  0  0
   40.4690   28.3220   33.2490 H   0  0  0  0  0  0  0  0  0  0  0  0
   41.3750   23.0200   36.4190 C   0  0  0  0  0  0  0  0  0  0  0  0
   40.2900   23.6910   36.0730 C   0  0  0  0  0  0  0  0  0  0  0  0
   40.4520   24.9710   35.4260 N   0  0  0  0  0  0  0  0  0  0  0  0
   39.9830   26.3350   35.3680 C   0  0  0  0  0  0  0  0  0  0  0  0
   39.0420   27.0250   35.8890 O   0  0  0  0  0  0  0  0  0  0  0  0
   41.0760   26.6390   34.4220 C   0  0  1  0  0  3  0  0  0  0  0  0
   41.4470   25.1900   34.3630 C   0  0  1  0  0  3  0  0  0  0  0  0
   43.0310   24.7410   35.0540 S   0  0  0  0  0  0  0  0  0  0  0  0
   42.7940   23.4070   36.2490 C   0  0  0  0  0  3  0  0  0  0  0  0
   43.2670   23.6680   37.2350 H   0  0  0  0  0  0  0  0  0  0  0  0
   41.1920   21.7200   37.0660 C   0  0  0  0  0  2  0  0  0  0  0  0
   40.6150   21.0630   36.3860 H   0  0  0  0  0  0  0  0  0  0  0  0
   38.9350   23.1970   36.3070 C   0  0  0  0  0  0  0  0  0  0  0  0
   38.2000   23.4530   37.2750 O   0  0  0  0  0  0  0  0  0  0  0  0
   38.2680   22.3590   35.4630 O   0  0  0  0  0  0  0  0  0  0  0  0
   37.3080   22.4970   35.2270 H   0  0  0  0  0  0  0  0  0  0  0  0
  1 11  1  0  0  0  0
  1  6  1  0  0  0  0
  2  1  2  0  0  0  0
  3  2  1  0  0  0  0
  3  4  2  0  0  0  0
  4  5  1  0  0  0  0
  5  6  2  0  0  0  0
  5 10  1  0  0  0  0
  6 22  1  0  0  0  0
  7  2  1  0  0  0  0
  8  3  1  0  0  0  0
  9  4  1  0  0  0  0
 11 12  2  0  0  0  0
 13 19  1  0  0  0  0
 13 18  1  0  0  0  0
 14 13  2  0  0  0  0
 15 14  1  0  0  0  0
 15 16  2  0  0  0  0
 16 17  1  0  0  0  0
 17 18  2  0  0  0  0
 17 11  1  0  0  0  0
 20 14  1  0  0  0  0
 21 15  1  0  0  0  0
 22 23  2  0  0  0  0
 23 24  1  0  0  0  0
 24 26  1  0  0  0  0
 25 24  1  0  0  0  0
 27 37  1  0  0  0  0
 28 39  1  0  0  0  0
 28 27  2  0  0  0  0
 29 28  1  0  0  0  0
 30 29  1  0  0  0  0
 30 31  2  0  0  0  0
 32 24  1  6  0  0  0
 32 30  1  0  0  0  0
 33 32  1  0  0  0  0
 33 34  1  1  0  0  0
 33 29  1  0  0  0  0
 34 35  1  0  0  0  0
 35 27  1  0  0  0  0
 35 36  1  0  0  0  0
 38 37  1  0  0  0  0
 39 40  2  0  0  0  0
 41 39  1  0  0  0  0
 42 41  1  0  0  0  0
M  END
>  <minimizedAffinity>
-6.0124259

$$$$

 OpenBabel03272509413D

 42 45  0  0  1  0  0  0  0  0999 V2000
   37.4100   27.7820   32.5430 C   0  0  0  0  0  0  0  0  0  0  0  0
   36.6790   28.4630   31.5710 C   0  0  0  0  0  0  0  0  0  0  0  0
   35.5730   29.2510   31.8720 C   0  0  0  0  0  0  0  0  0  0  0  0
   35.1670   29.3730   33.2070 C   0  0  0  0  0  0  0  0  0  0  0  0
   35.8930   28.6990   34.1500 C   0  0  0  0  0  0  0  0  0  0  0  0
   36.9860   27.9260   33.8130 C   0  0  0  0  0  0  0  0  0  0  0  0
   36.9470   28.4090   30.5110 H   0  0  0  0  0  0  0  0  0  0  0  0
   35.0400   29.7600   31.0810 H   0  0  0  0  0  0  0  0  0  0  0  0
   34.3050   29.9910   33.4170 H   0  0  0  0  0  0  0  0  0  0  0  0
   35.5070   28.8510   35.1540 H   0  0  0  0  0  0  0  0  0  0  0  0
   38.5420   26.9910   32.1280 C   0  0  0  0  0  0  0  0  0  0  0  0
   39.6810   27.4820   32.4540 O   0  0  0  0  0  0  0  0  0  0  0  0
   39.6410   24.2560   30.0160 C   0  0  0  0  0  0  0  0  0  0  0  0
   38.5480   23.4060   29.9490 C   0  0  0  0  0  0  0  0  0  0  0  0
   37.4160   23.7710   30.6350 C   0  0  0  0  0  0  0  0  0  0  0  0
   37.4020   24.9320   31.3450 N   0  0  0  0  0  0  0  0  0  0  0  0
   38.4590   25.7230   31.3920 C   0  0  0  0  0  0  0  0  0  0  0  0
   39.5810   25.3760   30.7210 N   0  0  0  0  0  0  0  0  0  0  0  0
   40.5810   24.0290   29.4930 H   0  0  0  0  0  0  0  0  0  0  0  0
   38.6960   22.5180   29.3490 H   0  0  0  0  0  0  0  0  0  0  0  0
   36.5790   23.1150   30.5790 H   0  0  0  0  0  0  0  0  0  0  0  0
   37.6340   27.2790   34.9390 C   0  0  0  0  0  3  0  0  0  0  0  0
   37.4960   26.0190   35.3250 C   0  0  0  0  0  3  0  0  0  0  0  0
   38.0910   25.2560   36.4210 C   0  0  0  0  0  0  0  0  0  0  0  0
   38.8570   25.8610   36.9420 H   0  0  0  0  0  0  0  0  0  0  0  0
   37.3030   25.0690   37.2040 H   0  0  0  0  0  0  0  0  0  0  0  0
   38.3970   21.1680   32.9190 C   0  0  0  0  0  0  0  0  0  0  0  0
   37.4520   21.5740   33.7500 C   0  0  0  0  0  0  0  0  0  0  0  0
   37.8090   22.5070   34.7930 N   0  0  0  0  0  0  0  0  0  0  0  0
   37.6510   22.8380   36.1890 C   0  0  0  0  0  0  0  0  0  0  0  0
   36.9600   22.4180   37.1790 O   0  0  0  0  0  0  0  0  0  0  0  0
   38.6540   23.9100   36.0170 C   0  0  1  0  0  3  0  0  0  0  0  0
   38.6830   23.6640   34.5400 C   0  0  1  0  0  3  0  0  0  0  0  0
   40.2040   23.0120   33.8690 S   0  0  0  0  0  0  0  0  0  0  0  0
   39.8320   21.5300   32.9050 C   0  0  0  0  0  3  0  0  0  0  0  0
   40.4730   20.6690   33.2380 H   0  0  0  0  0  0  0  0  0  0  0  0
   38.0140   20.2290   31.8640 C   0  0  0  0  0  2  0  0  0  0  0  0
   37.2230   20.6960   31.2440 H   0  0  0  0  0  0  0  0  0  0  0  0
   36.0630   21.1310   33.6610 C   0  0  0  0  0  0  0  0  0  0  0  0
   35.2070   21.5060   32.8420 O   0  0  0  0  0  0  0  0  0  0  0  0
   35.4950   20.2120   34.4930 O   0  0  0  0  0  0  0  0  0  0  0  0
   34.9010   19.4860   34.1550 H   0  0  0  0  0  0  0  0  0  0  0  0
  1  6  1  0  0  0  0
  2  3  1  0  0  0  0
  2  1  2  0  0  0  0
  3  4  2  0  0  0  0
  4  9  1  0  0  0  0
  4  5  1  0  0  0  0
  5 10  1  0  0  0  0
  6  5  2  0  0  0  0
  6 22  1  0  0  0  0
  7  2  1  0  0  0  0
  8  3  1  0  0  0  0
 11 12  2  0  0  0  0
 11  1  1  0  0  0  0
 13 18  1  0  0  0  0
 14 13  2  0  0  0  0
 14 15  1  0  0  0  0
 15 16  2  0  0  0  0
 16 17  1  0  0  0  0
 17 11  1  0  0  0  0
 18 17  2  0  0  0  0
 19 13  1  0  0  0  0
 20 14  1  0  0  0  0
 21 15  1  0  0  0  0
 22 23  2  0  0  0  0
 23 24  1  0  0  0  0
 24 25  1  0  0  0  0
 24 26  1  0  0  0  0
 27 28  2  0  0  0  0
 28 29  1  0  0  0  0
 29 30  1  0  0  0  0
 30 31  2  0  0  0  0
 32 30  1  0  0  0  0
 32 24  1  6  0  0  0
 33 34  1  1  0  0  0
 33 29  1  0  0  0  0
 33 32  1  0  0  0  0
 35 27  1  0  0  0  0
 35 36  1  0  0  0  0
 35 34  1  0  0  0  0
 37 27  1  0  0  0  0
 38 37  1  0  0  0  0
 39 28  1  0  0  0  0
 39 41  1  0  0  0  0
 40 39  2  0  0  0  0
 42 41  1  0  0  0  0
M  END
>  <minimizedAffinity>
-6.00879335

$$$$

 OpenBabel03272509413D

 42 45  0  0  1  0  0  0  0  0999 V2000
   35.5190   29.4220   32.3380 C   0  0  0  0  0  0  0  0  0  0  0  0
   35.5880   30.1620   31.1590 C   0  0  0  0  0  0  0  0  0  0  0  0
   36.5830   29.9740   30.2060 C   0  0  0  0  0  0  0  0  0  0  0  0
   37.5650   29.0000   30.4300 C   0  0  0  0  0  0  0  0  0  0  0  0
   37.4860   28.2820   31.5910 C   0  0  0  0  0  0  0  0  0  0  0  0
   36.4830   28.4970   32.5140 C   0  0  0  0  0  0  0  0  0  0  0  0
   34.8490   30.9360   30.9260 H   0  0  0  0  0  0  0  0  0  0  0  0
   36.5910   30.5740   29.3060 H   0  0  0  0  0  0  0  0  0  0  0  0
   38.3280   28.8720   29.6750 H   0  0  0  0  0  0  0  0  0  0  0  0
   38.2870   27.5530   31.6800 H   0  0  0  0  0  0  0  0  0  0  0  0
   34.4470   29.6930   33.2630 C   0  0  0  0  0  0  0  0  0  0  0  0
   33.3230   29.1670   32.9420 O   0  0  0  0  0  0  0  0  0  0  0  0
   36.0410   31.7910   35.7550 C   0  0  0  0  0  0  0  0  0  0  0  0
   35.0490   32.0350   36.6920 C   0  0  0  0  0  0  0  0  0  0  0  0
   33.8160   31.4750   36.4710 C   0  0  0  0  0  0  0  0  0  0  0  0
   33.6090   30.7130   35.3630 N   0  0  0  0  0  0  0  0  0  0  0  0
   34.5720   30.4970   34.4850 C   0  0  0  0  0  0  0  0  0  0  0  0
   35.7930   31.0420   34.6900 N   0  0  0  0  0  0  0  0  0  0  0  0
   37.0530   32.2060   35.8650 H   0  0  0  0  0  0  0  0  0  0  0  0
   35.3500   32.6570   37.5240 H   0  0  0  0  0  0  0  0  0  0  0  0
   33.0570   31.6650   37.1950 H   0  0  0  0  0  0  0  0  0  0  0  0
   36.5570   27.6500   33.6900 C   0  0  0  0  0  3  0  0  0  0  0  0
   37.6510   27.1610   34.2560 C   0  0  0  0  0  3  0  0  0  0  0  0
   37.8550   26.3140   35.4310 C   0  0  0  0  0  0  0  0  0  0  0  0
   38.4460   26.8510   36.1960 H   0  0  0  0  0  0  0  0  0  0  0  0
   36.8580   26.1320   35.9240 H   0  0  0  0  0  0  0  0  0  0  0  0
   41.7360   22.6540   36.2050 C   0  0  0  0  0  0  0  0  0  0  0  0
   41.7100   23.8220   35.5870 C   0  0  0  0  0  0  0  0  0  0  0  0
   40.4270   24.4040   35.2730 N   0  0  0  0  0  0  0  0  0  0  0  0
   39.6540   25.0900   34.2650 C   0  0  0  0  0  0  0  0  0  0  0  0
   39.8610   25.6010   33.1120 O   0  0  0  0  0  0  0  0  0  0  0  0
   38.4650   24.9610   35.1320 C   0  0  1  0  0  3  0  0  0  0  0  0
   39.3120   24.4040   36.2340 C   0  0  1  0  0  3  0  0  0  0  0  0
   39.0260   22.6960   36.6760 S   0  0  0  0  0  0  0  0  0  0  0  0
   40.5990   21.8080   36.6290 C   0  0  0  0  0  3  0  0  0  0  0  0
   40.5140   20.8870   35.9890 H   0  0  0  0  0  0  0  0  0  0  0  0
   43.0470   22.0840   36.5230 C   0  0  0  0  0  2  0  0  0  0  0  0
   43.5970   22.7980   37.1680 H   0  0  0  0  0  0  0  0  0  0  0  0
   42.9160   24.5580   35.2140 C   0  0  0  0  0  0  0  0  0  0  0  0
   43.5440   25.3720   35.9110 O   0  0  0  0  0  0  0  0  0  0  0  0
   43.5390   24.4480   34.0060 O   0  0  0  0  0  0  0  0  0  0  0  0
   44.5310   24.3800   33.9250 H   0  0  0  0  0  0  0  0  0  0  0  0
  1  6  1  0  0  0  0
  1 11  1  0  0  0  0
  2  1  2  0  0  0  0
  3  4  2  0  0  0  0
  3  2  1  0  0  0  0
  4  5  1  0  0  0  0
  5 10  1  0  0  0  0
  5  6  2  0  0  0  0
  6 22  1  0  0  0  0
  7  2  1  0  0  0  0
  8  3  1  0  0  0  0
  9  4  1  0  0  0  0
 11 17  1  0  0  0  0
 12 11  2  0  0  0  0
 13 19  1  0  0  0  0
 13 14  1  0  0  0  0
 14 20  1  0  0  0  0
 15 14  2  0  0  0  0
 15 21  1  0  0  0  0
 16 15  1  0  0  0  0
 17 18  1  0  0  0  0
 17 16  2  0  0  0  0
 18 13  2  0  0  0  0
 22 23  2  0  0  0  0
 23 24  1  0  0  0  0
 24 26  1  0  0  0  0
 24 25  1  0  0  0  0
 27 37  1  0  0  0  0
 27 35  1  0  0  0  0
 28 27  2  0  0  0  0
 29 28  1  0  0  0  0
 29 33  1  0  0  0  0
 30 32  1  0  0  0  0
 30 29  1  0  0  0  0
 31 30  2  0  0  0  0
 32 24  1  1  0  0  0
 32 33  1  0  0  0  0
 33 34  1  6  0  0  0
 35 34  1  0  0  0  0
 36 35  1  0  0  0  0
 37 38  1  0  0  0  0
 39 28  1  0  0  0  0
 39 40  2  0  0  0  0
 41 39  1  0  0  0  0
 42 41  1  0  0  0  0
M  END
>  <minimizedAffinity>
-5.99505281

$$$$
