
     RDKit          3D

 46 49  0  0  0  0  0  0  0  0999 V2000
   35.9701   29.6269   48.8637 N   0  0  0  0  0  0  0  0  0  0  0  0
   36.5667   28.8577   49.9236 C   0  0  0  0  0  0  0  0  0  0  0  0
   37.0371   29.5710   51.1180 C   0  0  0  0  0  0  0  0  0  0  0  0
   37.4232   30.9937   50.9776 C   0  0  0  0  0  0  0  0  0  0  0  0
   36.8201   31.6926   49.7813 C   0  0  0  0  0  0  0  0  0  0  0  0
   36.8408   30.7351   48.5844 C   0  0  1  0  0  0  0  0  0  0  0  0
   34.7362   29.3294   48.2173 C   0  0  0  0  0  0  0  0  0  0  0  0
   34.2471   30.0134   47.0998 C   0  0  0  0  0  0  0  0  0  0  0  0
   33.0311   29.6197   46.5708 C   0  0  0  0  0  0  0  0  0  0  0  0
   32.3738   28.5853   47.1672 N   0  0  0  0  0  0  0  0  0  0  0  0
   32.8794   27.9577   48.2371 C   0  0  0  0  0  0  0  0  0  0  0  0
   34.0652   28.3252   48.7706 N   0  0  0  0  0  0  0  0  0  0  0  0
   38.1792   30.3482   48.4747 O   0  0  0  0  0  0  0  0  0  0  0  0
   37.3972   28.2588   49.4779 H   0  0  0  0  0  0  0  0  0  0  0  0
   35.8008   28.0947   50.2210 H   0  0  0  0  0  0  0  0  0  0  0  0
   36.2405   29.5232   51.9111 H   0  0  0  0  0  0  0  0  0  0  0  0
   37.9046   29.0236   51.5462 H   0  0  0  0  0  0  0  0  0  0  0  0
   37.1477   31.6067   51.8622 H   0  0  0  0  0  0  0  0  0  0  0  0
   38.5350   31.1043   50.8851 H   0  0  0  0  0  0  0  0  0  0  0  0
   37.4648   32.5418   49.4890 H   0  0  0  0  0  0  0  0  0  0  0  0
   35.8065   32.0675   49.9740 H   0  0  0  0  0  0  0  0  0  0  0  0
   36.5955   31.2624   47.6506 H   0  0  0  0  0  0  0  0  0  0  0  0
   34.8433   30.8139   46.7068 H   0  0  0  0  0  0  0  0  0  0  0  0
   32.7174   30.1871   45.7159 H   0  0  0  0  0  0  0  0  0  0  0  0
   32.2750   27.1485   48.6330 H   0  0  0  0  0  0  0  0  0  0  0  0
   38.7281   30.7494   47.2593 C   0  0  0  0  0  0  0  0  0  0  0  0
   37.6216   31.1254   46.3543 C   0  0  0  0  0  0  0  0  0  0  0  0
   37.4093   30.5202   45.1942 C   0  0  0  0  0  0  0  0  0  0  0  0
   38.2349   29.4120   44.6680 C   0  0  0  0  0  0  0  0  0  0  0  0
   39.2305   28.7161   44.9686 O   0  0  0  0  0  0  0  0  0  0  0  0
   38.0597   28.7557   43.4791 O   0  0  0  0  0  0  0  0  0  0  0  0
   36.3131   30.9703   44.4087 N   0  0  0  0  0  0  0  0  0  0  0  0
   35.1240   30.6920   43.6384 C   0  0  0  0  0  0  0  0  0  0  0  0
   34.8289   29.7098   42.8874 O   0  0  0  0  0  0  0  0  0  0  0  0
   34.6040   31.9818   44.1669 C   0  0  1  0  0  0  0  0  0  0  0  0
   33.9440   32.5384   43.4801 H   0  0  0  0  0  0  0  0  0  0  0  0
   36.0644   32.3728   44.0917 C   0  0  1  0  0  0  0  0  0  0  0  0
   36.4772   33.4061   45.5496 S   0  0  0  0  0  0  0  0  0  0  0  0
   36.7826   32.2187   46.8898 C   0  0  2  0  0  0  0  0  0  0  0  0
   37.3493   32.7790   47.6544 H   0  0  0  0  0  0  0  0  0  0  0  0
   39.2434   29.8725   46.8547 H   0  0  0  0  0  0  0  0  0  0  0  0
   39.4603   31.5756   47.3909 H   0  0  0  0  0  0  0  0  0  0  0  0
   38.6834   28.7225   42.6961 H   0  0  0  0  0  0  0  0  0  0  0  0
   34.2693   31.8601   45.2017 H   0  0  0  0  0  0  0  0  0  0  0  0
   36.4368   32.7341   43.1349 H   0  0  0  0  0  0  0  0  0  0  0  0
   35.8316   31.8407   47.3209 H   0  0  0  0  0  0  0  0  0  0  0  0
  1  2  1  0
  2  3  1  0
  4  3  1  0
  5  4  1  0
  6  1  1  0
  6  5  1  0
  7 12  1  0
  7  1  1  0
  8  7  2  0
  9  8  1  0
  9 10  2  0
 10 11  1  0
 11 12  2  0
 13  6  1  0
  2 14  1  0
  2 15  1  0
  3 16  1  0
  3 17  1  0
  4 18  1  0
  4 19  1  0
  5 20  1  0
  5 21  1  0
  6 22  1  6
  8 23  1  0
  9 24  1  0
 11 25  1  0
 26 27  1  0
 27 28  2  0
 28 29  1  0
 29 30  2  0
 29 31  1  0
 28 32  1  0
 32 33  1  0
 33 34  2  0
 33 35  1  0
 35 36  1  6
 35 37  1  0
 37 38  1  0
 38 39  1  0
 39 40  1  1
 39 27  1  0
 37 32  1  0
 26 41  1  0
 26 42  1  0
 31 43  1  0
 35 44  1  0
 37 45  1  6
 39 46  1  0
 13 26  1  0
M  ISO  8  14  13  15  13  16  13  17  13  18  13  19  13  20  13  21  13
M  ISO  6  22  13  23  14  24  14  25  14  36  15  40  15
M  END
>  <DihAtoms>  (1) 
5,12,25,26

>  <DihDeg>  (1) 
179.99727243392192

$$$$
