REMARK  Name = 
REMARK  5 active torsions:
REMARK  status: ('A' for Active; 'I' for Inactive)
REMARK    1  A    between atoms: C_3  and  C_7
REMARK    2  A    between atoms: C_12  and  C_26
REMARK    3  A    between atoms: C_26  and  C_27
REMARK    4  A    between atoms: C_28  and  C_29
REMARK    5  A    between atoms: C_29  and  O_31
REMARK                            x       y       z     vdW  Elec       q    Type
REMARK                         _______ _______ _______ _____ _____    ______ ____
ROOT
ATOM      1  C   UNL     1      38.167  30.705  47.853  0.00  0.00    +0.000 C 
ATOM      2  C   UNL     1      37.407  30.735  46.599  0.00  0.00    +0.000 C 
ATOM      3  C   UNL     1      38.384  30.824  45.456  0.00  0.00    +0.000 C 
ATOM      4  C   UNL     1      39.514  31.725  45.761  0.00  0.00    +0.000 C 
ATOM      5  C   UNL     1      39.297  32.715  46.873  0.00  0.00    +0.000 C 
ATOM      6  C   UNL     1      38.693  32.116  48.120  0.00  0.00    +0.000 C 
ATOM      7  H   UNL     1      39.097  30.083  47.734  0.00  0.00    +0.000 HD
ATOM      8  H   UNL     1      36.647  31.527  46.538  0.00  0.00    +0.000 HD
ATOM      9  H   UNL     1      36.859  29.749  46.514  0.00  0.00    +0.000 HD
ATOM     10  H   UNL     1      37.828  31.106  44.515  0.00  0.00    +0.000 HD
ATOM     11  H   UNL     1      38.744  29.773  45.260  0.00  0.00    +0.000 HD
ATOM     12  H   UNL     1      39.743  32.332  44.853  0.00  0.00    +0.000 HD
ATOM     13  H   UNL     1      40.455  31.179  45.989  0.00  0.00    +0.000 HD
ATOM     14  H   UNL     1      40.291  33.188  47.052  0.00  0.00    +0.000 HD
ATOM     15  H   UNL     1      38.676  33.528  46.439  0.00  0.00    +0.000 HD
ATOM     16  H   UNL     1      39.554  31.998  48.812  0.00  0.00    +0.000 HD
ENDROOT
BRANCH   1  19
ATOM     17  C   UNL     1      37.341  30.116  51.432  0.00  0.00    +0.000 A 
ATOM     18  C   UNL     1      38.037  30.566  50.291  0.00  0.00    +0.000 A 
ATOM     19  C   UNL     1      37.467  30.265  49.061  0.00  0.00    +0.000 A 
ATOM     20  N   UNL     1      36.286  29.563  49.003  0.00  0.00    +0.000 NA
ATOM     21  C   UNL     1      35.654  29.151  50.120  0.00  0.00    +0.000 A 
ATOM     22  N   UNL     1      36.187  29.431  51.341  0.00  0.00    +0.000 NA
ATOM     23  H   UNL     1      37.726  30.316  52.424  0.00  0.00    +0.000 HD
ATOM     24  H   UNL     1      38.930  31.089  50.495  0.00  0.00    +0.000 HD
ATOM     25  H   UNL     1      34.728  28.599  50.104  0.00  0.00    +0.000 HD
ENDBRANCH   1  19
BRANCH   6  26
ATOM     26  C   UNL     1      37.637  33.066  48.611  0.00  0.00    +0.000 C 
BRANCH  26  27
ATOM     27  C   UNL     1      36.463  32.305  49.045  0.00  0.00    +0.000 C 
ATOM     28  C   UNL     1      35.974  32.352  50.273  0.00  0.00    +0.000 C 
ATOM     29  N   UNL     1      34.822  31.572  50.563  0.00  0.00    +0.000 N 
ATOM     30  C   UNL     1      34.116  30.639  51.408  0.00  0.00    +0.000 C 
ATOM     31  O   UNL     1      34.108  30.497  52.669  0.00  0.00    +0.000 OA
ATOM     32  C   UNL     1      33.545  30.093  50.128  0.00  0.00    +0.000 C 
ATOM     33  H   UNL     1      32.513  29.713  50.198  0.00  0.00    +0.000 HD
ATOM     34  C   UNL     1      33.639  31.544  49.715  0.00  0.00    +0.000 C 
ATOM     35  S   UNL     1      34.091  31.684  47.970  0.00  0.00    +0.000 S 
ATOM     36  C   UNL     1      35.918  31.485  47.960  0.00  0.00    +0.000 C 
ATOM     37  H   UNL     1      36.219  31.805  46.971  0.00  0.00    +0.000 HD
BRANCH  28  38
ATOM     38  C   UNL     1      36.545  33.172  51.366  0.00  0.00    +0.000 C 
ATOM     39  O   UNL     1      37.500  33.972  51.520  0.00  0.00    +0.000 OA
BRANCH  38  40
ATOM     40  O   UNL     1      36.089  33.253  52.642  0.00  0.00    +0.000 OA
ATOM     41  H   UNL     1      36.599  33.011  53.481  0.00  0.00    +0.000 HD
ENDBRANCH  38  40
ENDBRANCH  28  38
ENDBRANCH  26  27
ENDBRANCH   6  26
TORSDOF 5
