
     RDKit          3D

 46 49  0  0  0  0  0  0  0  0999 V2000
   34.7567   29.4325   48.7949 C   0  0  0  0  0  0  0  0  0  0  0  0
   34.2348   30.0534   47.6460 C   0  0  0  0  0  0  0  0  0  0  0  0
   33.5053   29.2425   46.7677 C   0  0  0  0  0  0  0  0  0  0  0  0
   33.3388   27.9115   47.0648 N   0  0  0  0  0  0  0  0  0  0  0  0
   33.8621   27.3526   48.1895 C   0  0  0  0  0  0  0  0  0  0  0  0
   34.5638   28.1230   49.0377 N   0  0  0  0  0  0  0  0  0  0  0  0
   35.5201   30.3046   49.7327 C   0  0  2  0  0  0  0  0  0  0  0  0
   36.4661   31.1781   48.9659 C   0  0  0  0  0  0  0  0  0  0  0  0
   37.9248   30.8239   49.1699 C   0  0  1  0  0  0  0  0  0  0  0  0
   38.3080   30.7848   50.6030 C   0  0  0  0  0  0  0  0  0  0  0  0
   37.3153   30.0863   51.4848 C   0  0  0  0  0  0  0  0  0  0  0  0
   36.1894   29.4359   50.7341 C   0  0  0  0  0  0  0  0  0  0  0  0
   34.3288   31.0737   47.3661 H   0  0  0  0  0  0  0  0  0  0  0  0
   33.0806   29.6476   45.8757 H   0  0  0  0  0  0  0  0  0  0  0  0
   33.6760   26.2975   48.3342 H   0  0  0  0  0  0  0  0  0  0  0  0
   34.7190   30.9324   50.2265 H   0  0  0  0  0  0  0  0  0  0  0  0
   36.3316   32.2266   49.3447 H   0  0  0  0  0  0  0  0  0  0  0  0
   36.2804   31.1545   47.8945 H   0  0  0  0  0  0  0  0  0  0  0  0
   38.4489   31.7660   48.7712 H   0  0  0  0  0  0  0  0  0  0  0  0
   39.3000   30.3302   50.7251 H   0  0  0  0  0  0  0  0  0  0  0  0
   38.4487   31.8467   50.9995 H   0  0  0  0  0  0  0  0  0  0  0  0
   36.8543   30.8447   52.1543 H   0  0  0  0  0  0  0  0  0  0  0  0
   37.7848   29.3280   52.1438 H   0  0  0  0  0  0  0  0  0  0  0  0
   36.4017   28.3979   50.3948 H   0  0  0  0  0  0  0  0  0  0  0  0
   35.3945   29.2543   51.5377 H   0  0  0  0  0  0  0  0  0  0  0  0
   38.4005   29.7486   48.2729 C   0  0  0  0  0  0  0  0  0  0  0  0
   38.6394   30.0983   46.8638 C   0  0  0  0  0  0  0  0  0  0  0  0
   37.7771   29.5124   46.0294 C   0  0  0  0  0  0  0  0  0  0  0  0
   36.7115   28.6175   46.5435 C   0  0  0  0  0  0  0  0  0  0  0  0
   35.8246   27.9931   45.8684 O   0  0  0  0  0  0  0  0  0  0  0  0
   35.9128   27.8948   47.4053 O   0  0  0  0  0  0  0  0  0  0  0  0
   37.8383   29.6972   44.6315 N   0  0  0  0  0  0  0  0  0  0  0  0
   37.2100   30.0419   43.3936 C   0  0  0  0  0  0  0  0  0  0  0  0
   35.9924   29.9667   43.0089 O   0  0  0  0  0  0  0  0  0  0  0  0
   38.5210   30.4887   42.8167 C   0  0  2  0  0  0  0  0  0  0  0  0
   38.7973   31.5317   43.0141 H   0  0  0  0  0  0  0  0  0  0  0  0
   39.0527   29.4872   43.8289 C   0  0  1  0  0  0  0  0  0  0  0  0
   40.4472   30.0576   44.8238 S   0  0  0  0  0  0  0  0  0  0  0  0
   39.6721   30.9570   46.2347 C   0  0  1  0  0  0  0  0  0  0  0  0
   39.2906   31.8805   45.7991 H   0  0  0  0  0  0  0  0  0  0  0  0
   37.8244   28.8009   48.3844 H   0  0  0  0  0  0  0  0  0  0  0  0
   39.4443   29.4733   48.6511 H   0  0  0  0  0  0  0  0  0  0  0  0
   35.4998   28.3530   48.2347 H   0  0  0  0  0  0  0  0  0  0  0  0
   38.7446   30.1418   41.8027 H   0  0  0  0  0  0  0  0  0  0  0  0
   39.1798   28.4655   43.4326 H   0  0  0  0  0  0  0  0  0  0  0  0
   40.5301   31.1192   46.9337 H   0  0  0  0  0  0  0  0  0  0  0  0
  1  6  1  0
  1  7  1  0
  2  1  2  0
  3  4  2  0
  3  2  1  0
  4  5  1  0
  5  6  2  0
  7 12  1  0
  8  9  1  0
  8  7  1  0
  9 10  1  0
 10 11  1  0
 12 11  1  0
  2 13  1  0
  3 14  1  0
  5 15  1  0
  7 16  1  1
  8 17  1  0
  8 18  1  0
  9 19  1  6
 10 20  1  0
 10 21  1  0
 11 22  1  0
 11 23  1  0
 12 24  1  0
 12 25  1  0
 26 27  1  0
 27 28  2  0
 28 29  1  0
 29 30  2  0
 29 31  1  0
 28 32  1  0
 32 33  1  0
 33 34  2  0
 33 35  1  0
 35 36  1  1
 35 37  1  0
 37 38  1  0
 38 39  1  0
 39 40  1  6
 39 27  1  0
 37 32  1  0
 26 41  1  0
 26 42  1  0
 31 43  1  0
 35 44  1  0
 37 45  1  6
 39 46  1  0
  9 26  1  0
M  ISO  8  13  14  14  14  15  14  16  13  17  13  18  13  19  13  20  13
M  ISO  7  21  13  22  13  23  13  24  13  25  13  36  15  40  15
M  END
>  <DihAtoms>  (1) 
7,8,25,26

>  <DihDeg>  (1) 
179.95387872055312

$$$$
