REMARK  Name = 
REMARK  9 active torsions:
REMARK  status: ('A' for Active; 'I' for Inactive)
REMARK    1  A    between atoms: C_1  and  C_13
REMARK    2  A    between atoms: C_2  and  O_14
REMARK    3  A    between atoms: C_6  and  C_7
REMARK    4  A    between atoms: O_14  and  C_15
REMARK    5  A    between atoms: C_16  and  N_23
REMARK    6  A    between atoms: C_21  and  C_43
REMARK    7  A    between atoms: C_33  and  C_35
REMARK    8  A    between atoms: C_36  and  C_37
REMARK    9  A    between atoms: C_37  and  O_39
REMARK                            x       y       z     vdW  Elec       q    Type
REMARK                         _______ _______ _______ _____ _____    ______ ____
ROOT
ATOM      1  C   UNL     1      36.786  31.203  50.170  0.00  0.00    +0.000 A 
ATOM      2  C   UNL     1      35.651  30.432  49.948  0.00  0.00    +0.000 A 
ATOM      3  C   UNL     1      35.444  29.257  50.646  0.00  0.00    +0.000 A 
ATOM      4  N   UNL     1      36.385  28.881  51.553  0.00  0.00    +0.000 NA
ATOM      5  C   UNL     1      37.497  29.656  51.754  0.00  0.00    +0.000 A 
ATOM      6  N   UNL     1      37.667  30.774  51.073  0.00  0.00    +0.000 NA
ATOM      7  H   UNL     1      34.594  28.598  50.540  0.00  0.00    +0.000 HD
ATOM      8  H   UNL     1      38.242  29.343  52.482  0.00  0.00    +0.000 HD
ENDROOT
BRANCH   2  11
ATOM      9  C   UNL     1      34.133  29.719  48.147  0.00  0.00    +0.000 C 
ATOM     10  O   UNL     1      34.547  28.526  47.878  0.00  0.00    +0.000 OA
ATOM     11  N   UNL     1      34.618  30.700  49.044  0.00  0.00    +0.000 N 
ATOM     12  H   UNL     1      34.282  31.675  49.131  0.00  0.00    +0.000 HD
BRANCH   9  18
ATOM     13  C   UNL     1      30.714  31.297  44.368  0.00  0.00    +0.000 C 
ATOM     14  C   UNL     1      31.529  32.061  45.071  0.00  0.00    +0.000 C 
ATOM     15  N   UNL     1      32.322  31.535  46.097  0.00  0.00    +0.000 N 
ATOM     16  C   UNL     1      32.837  31.603  47.445  0.00  0.00    +0.000 C 
ATOM     17  O   UNL     1      33.051  32.580  48.210  0.00  0.00    +0.000 OA
ATOM     18  C   UNL     1      32.928  30.097  47.354  0.00  0.00    +0.000 C 
ATOM     19  C   UNL     1      33.092  30.294  45.888  0.00  0.00    +0.000 C 
ATOM     20  S   UNL     1      32.135  29.098  44.940  0.00  0.00    +0.000 S 
ATOM     21  C   UNL     1      30.535  29.844  44.581  0.00  0.00    +0.000 C 
ATOM     22  H   UNL     1      29.830  29.749  45.443  0.00  0.00    +0.000 HD
BRANCH  13  23
ATOM     23  C   UNL     1      29.941  31.972  43.318  0.00  0.00    +0.000 C 
ATOM     24  H   UNL     1      29.101  32.494  43.827  0.00  0.00    +0.000 HD
ENDBRANCH  13  23
BRANCH  14  25
ATOM     25  C   UNL     1      31.596  33.482  44.758  0.00  0.00    +0.000 C 
ATOM     26  O   UNL     1      32.313  34.339  45.325  0.00  0.00    +0.000 OA
BRANCH  25  27
ATOM     27  O   UNL     1      31.443  34.752  44.239  0.00  0.00    +0.000 OA
ATOM     28  H   UNL     1      30.706  34.978  43.559  0.00  0.00    +0.000 HD
ENDBRANCH  25  27
ENDBRANCH  14  25
ENDBRANCH   9  18
ENDBRANCH   2  11
BRANCH   1  29
ATOM     29  O   UNL     1      36.811  32.312  49.396  0.00  0.00    +0.000 OA
BRANCH  29  31
ATOM     30  C   UNL     1      38.269  32.293  47.395  0.00  0.00    +0.000 A 
ATOM     31  C   UNL     1      37.907  32.729  48.652  0.00  0.00    +0.000 A 
ATOM     32  C   UNL     1      38.668  33.684  49.307  0.00  0.00    +0.000 A 
ATOM     33  C   UNL     1      39.804  34.197  48.679  0.00  0.00    +0.000 A 
ATOM     34  C   UNL     1      40.157  33.755  47.423  0.00  0.00    +0.000 A 
ATOM     35  C   UNL     1      39.375  32.808  46.810  0.00  0.00    +0.000 A 
ATOM     36  H   UNL     1      38.448  34.074  50.292  0.00  0.00    +0.000 HD
ATOM     37  H   UNL     1      40.399  34.942  49.190  0.00  0.00    +0.000 HD
ATOM     38  H   UNL     1      41.035  34.136  46.911  0.00  0.00    +0.000 HD
BRANCH  35  39
ATOM     39  C   UNL     1      39.766  32.339  45.458  0.00  0.00    +0.000 A 
ATOM     40  C   UNL     1      40.618  31.335  45.095  0.00  0.00    +0.000 A 
ATOM     41  C   UNL     1      40.651  31.286  43.703  0.00  0.00    +0.000 A 
ATOM     42  C   UNL     1      39.797  32.288  43.303  0.00  0.00    +0.000 A 
ATOM     43  O   UNL     1      39.280  32.903  44.356  0.00  0.00    +0.000 OA
ATOM     44  H   UNL     1      41.128  30.739  45.841  0.00  0.00    +0.000 HD
ATOM     45  H   UNL     1      41.255  30.573  43.175  0.00  0.00    +0.000 HD
ATOM     46  H   UNL     1      39.600  32.513  42.261  0.00  0.00    +0.000 HD
ENDBRANCH  35  39
BRANCH  30  48
ATOM     47  N   UNL     1      36.747  30.528  46.296  0.00  0.00    +0.000 NA
ATOM     48  C   UNL     1      37.427  31.309  46.795  0.00  0.00    +0.000 C 
ENDBRANCH  30  48
ENDBRANCH  29  31
ENDBRANCH   1  29
TORSDOF 9
