
     RDKit          3D

 39 42  0  0  0  0  0  0  0  0999 V2000
   37.2127   30.4305   50.3027 C   0  0  0  0  0  0  0  0  0  0  0  0
   37.5990   30.3897   51.4943 O   0  0  0  0  0  0  0  0  0  0  0  0
   37.8881   31.1916   49.2782 C   0  0  0  0  0  0  0  0  0  0  0  0
   38.2926   32.4806   49.5964 C   0  0  0  0  0  0  0  0  0  0  0  0
   38.9449   33.2398   48.6344 C   0  0  0  0  0  0  0  0  0  0  0  0
   39.1565   32.6697   47.4091 N   0  0  0  0  0  0  0  0  0  0  0  0
   38.7552   31.4149   47.1203 C   0  0  0  0  0  0  0  0  0  0  0  0
   38.1284   30.6849   48.0445 N   0  0  0  0  0  0  0  0  0  0  0  0
   36.0314   29.6824   49.9185 C   0  0  0  0  0  0  0  0  0  0  0  0
   34.7864   30.2663   49.9022 C   0  0  0  0  0  0  0  0  0  0  0  0
   33.8942   29.2614   49.4874 C   0  0  0  0  0  0  0  0  0  0  0  0
   34.6651   28.1321   49.2802 C   0  0  0  0  0  0  0  0  0  0  0  0
   35.9026   28.4422   49.5486 O   0  0  0  0  0  0  0  0  0  0  0  0
   38.1290   32.9355   50.5594 H   0  0  0  0  0  0  0  0  0  0  0  0
   39.2720   34.2481   48.8535 H   0  0  0  0  0  0  0  0  0  0  0  0
   38.9512   31.0054   46.1183 H   0  0  0  0  0  0  0  0  0  0  0  0
   34.5234   31.2995   50.1563 H   0  0  0  0  0  0  0  0  0  0  0  0
   32.8111   29.3777   49.3623 H   0  0  0  0  0  0  0  0  0  0  0  0
   34.0513   26.8481   48.8271 C   0  0  0  0  0  0  0  0  0  0  0  0
   34.0711   26.8602   47.3533 C   0  0  0  0  0  0  0  0  0  0  0  0
   34.6831   25.9690   46.6086 C   0  0  0  0  0  0  0  0  0  0  0  0
   35.4391   24.8275   47.1686 C   0  0  0  0  0  0  0  0  0  0  0  0
   35.6922   24.4116   48.3122 O   0  0  0  0  0  0  0  0  0  0  0  0
   36.0859   23.8960   46.3959 O   0  0  0  0  0  0  0  0  0  0  0  0
   34.6161   26.0917   45.2012 N   0  0  0  0  0  0  0  0  0  0  0  0
   35.3139   26.0052   43.9426 C   0  0  0  0  0  0  0  0  0  0  0  0
   36.4344   25.5582   43.5246 O   0  0  0  0  0  0  0  0  0  0  0  0
   34.2227   26.6613   43.2006 C   0  0  2  0  0  0  0  0  0  0  0  0
   33.8695   26.1172   42.2959 H   0  0  0  0  0  0  0  0  0  0  0  0
   33.4205   26.4575   44.4442 C   0  0  2  0  0  0  0  0  0  0  0  0
   32.8549   28.0287   45.1751 S   0  0  0  0  0  0  0  0  0  0  0  0
   33.2991   28.0498   46.9331 C   0  0  1  0  0  0  0  0  0  0  0  0
   32.3099   28.1302   47.4729 H   0  0  0  0  0  0  0  0  0  0  0  0
   34.4947   25.9905   49.3179 H   0  0  0  0  0  0  0  0  0  0  0  0
   32.9785   26.8984   49.1777 H   0  0  0  0  0  0  0  0  0  0  0  0
   37.0538   23.6509   46.5538 H   0  0  0  0  0  0  0  0  0  0  0  0
   34.4146   27.7424   42.9997 H   0  0  0  0  0  0  0  0  0  0  0  0
   32.6714   25.6700   44.3519 H   0  0  0  0  0  0  0  0  0  0  0  0
   33.8771   28.9944   47.0980 H   0  0  0  0  0  0  0  0  0  0  0  0
  1  2  2  0
  3  4  2  0
  3  1  1  0
  5  4  1  0
  6  5  2  0
  7  6  1  0
  7  8  2  0
  8  3  1  0
  9  1  1  0
 10  9  2  0
 11 10  1  0
 12 11  2  0
 12 13  1  0
 13  9  1  0
  4 14  1  0
  5 15  1  0
  7 16  1  0
 10 17  1  0
 11 18  1  0
 19 20  1  0
 20 21  2  0
 21 22  1  0
 22 23  2  0
 22 24  1  0
 21 25  1  0
 25 26  1  0
 26 27  2  0
 26 28  1  0
 28 29  1  6
 28 30  1  0
 30 31  1  0
 31 32  1  0
 32 33  1  1
 32 20  1  0
 30 25  1  0
 19 34  1  0
 19 35  1  0
 24 36  1  0
 28 37  1  0
 30 38  1  6
 32 39  1  0
 12 19  1  0
M  ISO  7  14  14  15  14  16  14  17  14  18  14  29  15  33  15
M  END
>  <DihAtoms>  (1) 
10,11,18,19

>  <DihDeg>  (1) 
-90.00886595699221

$$$$
