
 OpenBabel03272507333D

 43 48  0  0  1  0  0  0  0  0999 V2000
   33.2810   28.5570   46.3250 C   0  0  1  0  0  0  0  0  0  0  0  0
   33.6510   27.1710   45.6640 C   0  0  0  0  0  0  0  0  0  0  0  0
   32.4070   27.9090   45.3430 C   0  0  2  0  0  0  0  0  0  0  0  0
   34.1290   29.2470   46.1260 H   0  0  0  0  0  0  0  0  0  0  0  0
   33.5710   26.2810   46.2790 H   0  0  0  0  0  0  0  0  0  0  0  0
   34.4640   27.1800   44.9280 H   0  0  0  0  0  0  0  0  0  0  0  0
   31.4430   27.5480   45.7890 H   0  0  0  0  0  0  0  0  0  0  0  0
   33.0230   28.3570   47.7910 C   0  0  0  0  0  0  0  0  0  0  0  0
   31.9500   27.8110   48.2080 O   0  0  0  0  0  0  0  0  0  0  0  0
   35.9270   29.3550   49.6260 C   0  0  0  0  0  0  0  0  0  0  0  0
   35.0010   29.4050   50.6530 C   0  0  0  0  0  0  0  0  0  0  0  0
   33.7590   29.0360   50.1130 C   0  0  0  0  0  0  0  0  0  0  0  0
   34.0100   28.7830   48.7820 C   0  0  0  0  0  0  0  0  0  0  0  0
   35.2890   28.9840   48.5470 O   0  0  0  0  0  0  0  0  0  0  0  0
   35.0630   29.6580   51.7170 H   0  0  0  0  0  0  0  0  0  0  0  0
   32.8070   28.9660   50.6320 H   0  0  0  0  0  0  0  0  0  0  0  0
   37.3250   29.6780   49.8370 C   0  0  0  0  0  0  0  0  0  0  0  0
   37.9630   29.0750   50.7120 O   0  0  0  0  0  0  0  0  0  0  0  0
   37.8920   30.7000   49.0000 C   0  0  0  0  0  0  0  0  0  0  0  0
   38.1850   31.9140   49.5970 C   0  0  0  0  0  0  0  0  0  0  0  0
   38.7350   32.9280   48.8080 C   0  0  0  0  0  0  0  0  0  0  0  0
   38.9570   32.6670   47.4750 N   0  0  0  0  0  0  0  0  0  0  0  0
   38.6600   31.4790   46.9350 C   0  0  0  0  0  0  0  0  0  0  0  0
   38.1330   30.5020   47.6820 N   0  0  0  0  0  0  0  0  0  0  0  0
   38.0090   32.1120   50.6410 H   0  0  0  0  0  0  0  0  0  0  0  0
   38.9750   33.8960   49.2530 H   0  0  0  0  0  0  0  0  0  0  0  0
   38.8460   31.3050   45.8790 H   0  0  0  0  0  0  0  0  0  0  0  0
   32.2850   28.3850   43.9270 C   0  0  0  0  0  2  0  0  0  0  0  0
   32.2760   29.8450   43.7870 C   0  0  0  0  0  0  0  0  0  0  0  0
   33.2560   30.5930   43.3090 C   0  0  0  0  0  0  0  0  0  0  0  0
   33.1280   32.0080   43.2350 N   0  0  0  0  0  0  0  0  0  0  0  0
   33.7130   33.2350   42.8220 C   0  0  1  0  0  0  0  0  0  0  0  0
   34.8790   33.7180   42.7090 O   0  0  0  0  0  1  0  0  0  0  0  0
   32.3550   33.7630   42.5580 C   0  0  0  0  0  3  0  0  0  0  0  0
   31.8990   33.5060   41.5950 H   0  0  0  0  0  0  0  0  0  0  0  0
   32.0450   32.8220   43.7030 C   0  0  1  0  0  0  0  0  0  0  0  0
   30.4940   31.9380   43.5630 S   0  0  0  0  0  0  0  0  0  0  0  0
   30.9880   30.3520   44.2800 C   0  0  0  0  0  3  0  0  0  0  0  0
   31.0340   30.5040   45.3920 H   0  0  0  0  0  0  0  0  0  0  0  0
   34.5360   30.0160   42.8370 C   0  0  0  0  0  0  0  0  0  0  0  0
   34.9720   29.7300   41.7200 O   0  0  0  0  0  0  0  0  0  0  0  0
   35.5540   29.6720   43.6900 O   0  0  0  0  0  0  0  0  0  0  0  0
   36.5070   29.8850   43.5070 H   0  0  0  0  0  0  0  0  0  0  0  0
  1  4  1  6  0  0  0
  1  8  1  0  0  0  0
  2  5  1  0  0  0  0
  2  1  1  0  0  0  0
  3  2  1  0  0  0  0
  3  7  1  1  0  0  0
  3  1  1  0  0  0  0
  6  2  1  0  0  0  0
  8  9  2  0  0  0  0
  8 13  1  0  0  0  0
 10 17  1  0  0  0  0
 10 11  2  0  0  0  0
 11 15  1  0  0  0  0
 12 16  1  0  0  0  0
 12 11  1  0  0  0  0
 13 12  2  0  0  0  0
 14 13  1  0  0  0  0
 14 10  1  0  0  0  0
 17 18  2  0  0  0  0
 19 20  1  0  0  0  0
 19 17  1  0  0  0  0
 20 25  1  0  0  0  0
 21 26  1  0  0  0  0
 21 20  2  0  0  0  0
 22 21  1  0  0  0  0
 23 22  2  0  0  0  0
 23 24  1  0  0  0  0
 24 19  2  0  0  0  0
 27 23  1  0  0  0  0
 28  3  1  0  0  0  0
 29 28  1  0  0  0  0
 29 38  1  0  0  0  0
 30 29  2  0  0  0  0
 31 30  1  0  0  0  0
 31 36  1  0  0  0  0
 32 33  1  1  0  0  0
 32 31  1  0  0  0  0
 32 36  1  0  0  0  0
 34 32  1  0  0  0  0
 35 34  1  0  0  0  0
 36 34  1  6  0  0  0
 37 36  1  0  0  0  0
 37 38  1  0  0  0  0
 38 39  1  0  0  0  0
 40 30  1  0  0  0  0
 40 42  1  0  0  0  0
 41 40  2  0  0  0  0
 43 42  1  0  0  0  0
M  END
>  <minimizedAffinity>
-5.21498442

>  <minimizedRMSD>
3.16231465

$$$$
