
     RDKit          3D

 53 57  0  0  0  0  0  0  0  0999 V2000
   38.2687   32.2931   47.3951 C   0  0  0  0  0  0  0  0  0  0  0  0
   37.9068   32.7293   48.6519 C   0  0  0  0  0  0  0  0  0  0  0  0
   38.6678   33.6837   49.3073 C   0  0  0  0  0  0  0  0  0  0  0  0
   39.8040   34.1968   48.6788 C   0  0  0  0  0  0  0  0  0  0  0  0
   40.1574   33.7546   47.4231 C   0  0  0  0  0  0  0  0  0  0  0  0
   39.3746   32.8076   46.8101 C   0  0  0  0  0  0  0  0  0  0  0  0
   39.7655   32.3392   45.4581 C   0  0  0  0  0  0  0  0  0  0  0  0
   40.6177   31.3347   45.0952 C   0  0  0  0  0  0  0  0  0  0  0  0
   40.6512   31.2863   43.7035 C   0  0  0  0  0  0  0  0  0  0  0  0
   39.7973   32.2877   43.3034 C   0  0  0  0  0  0  0  0  0  0  0  0
   39.2801   32.9027   44.3558 O   0  0  0  0  0  0  0  0  0  0  0  0
   36.7467   30.5282   46.2957 N   0  0  0  0  0  0  0  0  0  0  0  0
   37.4270   31.3094   46.7953 C   0  0  0  0  0  0  0  0  0  0  0  0
   36.8106   32.3123   49.3959 O   0  0  0  0  0  0  0  0  0  0  0  0
   36.7864   31.2027   50.1698 C   0  0  0  0  0  0  0  0  0  0  0  0
   35.6510   30.4323   49.9484 C   0  0  0  0  0  0  0  0  0  0  0  0
   35.4438   29.2569   50.6464 C   0  0  0  0  0  0  0  0  0  0  0  0
   36.3848   28.8808   51.5528 N   0  0  0  0  0  0  0  0  0  0  0  0
   37.4968   29.6563   51.7540 C   0  0  0  0  0  0  0  0  0  0  0  0
   37.6672   30.7744   51.0726 N   0  0  0  0  0  0  0  0  0  0  0  0
   34.1330   29.7190   48.1470 C   0  0  0  0  0  0  0  0  0  0  0  0
   34.5467   28.5263   47.8783 O   0  0  0  0  0  0  0  0  0  0  0  0
   34.6180   30.6996   49.0435 N   0  0  0  0  0  0  0  0  0  0  0  0
   38.4476   34.0739   50.2918 H   0  0  0  0  0  0  0  0  0  0  0  0
   40.3992   34.9423   49.1896 H   0  0  0  0  0  0  0  0  0  0  0  0
   41.0355   34.1364   46.9114 H   0  0  0  0  0  0  0  0  0  0  0  0
   41.1283   30.7392   45.8412 H   0  0  0  0  0  0  0  0  0  0  0  0
   41.2546   30.5733   43.1753 H   0  0  0  0  0  0  0  0  0  0  0  0
   39.6002   32.5128   42.2607 H   0  0  0  0  0  0  0  0  0  0  0  0
   34.5941   28.5976   50.5404 H   0  0  0  0  0  0  0  0  0  0  0  0
   38.2416   29.3432   52.4823 H   0  0  0  0  0  0  0  0  0  0  0  0
   34.2819   31.6751   49.1307 H   0  0  0  0  0  0  0  0  0  0  0  0
   29.8970   31.5181   43.1679 C   0  0  0  0  0  0  0  0  0  0  0  0
   29.1760   32.2490   43.5961 H   0  0  0  0  0  0  0  0  0  0  0  0
   30.6567   30.9681   44.2971 C   0  0  0  0  0  0  0  0  0  0  0  0
   31.6192   31.7336   44.7785 C   0  0  0  0  0  0  0  0  0  0  0  0
   31.8458   33.0350   44.1659 C   0  0  0  0  0  0  0  0  0  0  0  0
   32.7111   33.8779   44.4993 O   0  0  0  0  0  0  0  0  0  0  0  0
   31.8179   34.1805   43.3959 O   0  0  0  0  0  0  0  0  0  0  0  0
   32.4165   31.3195   45.8515 N   0  0  0  0  0  0  0  0  0  0  0  0
   33.0420   31.5868   47.1255 C   0  0  0  0  0  0  0  0  0  0  0  0
   33.4420   32.6579   47.6518 O   0  0  0  0  0  0  0  0  0  0  0  0
   32.9276   30.0974   47.3541 C   0  0  1  0  0  0  0  0  0  0  0  0
   32.9977   29.9639   45.8735 C   0  0  1  0  0  0  0  0  0  0  0  0
   31.8198   28.7506   45.2531 S   0  0  0  0  0  0  0  0  0  0  0  0
   30.3073   29.6309   44.8249 C   0  0  1  0  0  0  0  0  0  0  0  0
   29.6674   29.8173   45.7221 H   0  0  0  0  0  0  0  0  0  0  0  0
   29.2682   30.7286   42.6748 H   0  0  0  0  0  0  0  0  0  0  0  0
   30.5309   32.0467   42.4257 H   0  0  0  0  0  0  0  0  0  0  0  0
   31.0652   34.3674   42.7221 H   0  0  0  0  0  0  0  0  0  0  0  0
   31.9491   29.8446   47.8162 H   0  0  0  0  0  0  0  0  0  0  0  0
   33.9915   29.9197   45.4291 H   0  0  0  0  0  0  0  0  0  0  0  0
   29.7548   29.0682   44.0449 H   0  0  0  0  0  0  0  0  0  0  0  0
  1  2  2  0
  2  3  1  0
  2 14  1  0
  4  3  2  0
  5  4  1  0
  6  1  1  0
  6  5  2  0
  7  6  1  0
  8  7  2  0
  9  8  1  0
 10  9  2  0
 10 11  1  0
 11  7  1  0
 12 13  3  0
 13  1  1  0
 14 15  1  0
 15 20  2  0
 16 15  1  0
 16 17  2  0
 17 18  1  0
 18 19  2  0
 20 19  1  0
 21 23  1  0
 22 21  2  0
 23 16  1  0
  3 24  1  0
  4 25  1  0
  5 26  1  0
  8 27  1  0
  9 28  1  0
 10 29  1  0
 17 30  1  0
 19 31  1  0
 23 32  1  0
 33 34  1  0
 33 35  1  0
 35 36  2  0
 36 37  1  0
 37 38  2  0
 37 39  1  0
 36 40  1  0
 40 41  1  0
 41 42  2  0
 41 43  1  0
 43 44  1  0
 44 45  1  0
 45 46  1  0
 46 47  1  1
 46 35  1  0
 44 40  1  0
 33 48  1  0
 33 49  1  0
 39 50  1  0
 43 51  1  1
 44 52  1  1
 46 53  1  0
 21 43  1  0
M  ISO  8  24  14  25  14  26  14  27  14  28  14  29  14  30  14  31  14
M  ISO  2  34   8  47  15
M  END
>  <DihAtoms>  (1) 
22,20,42,40

>  <DihDeg>  (1) 
-57.65435999980958

$$$$
