
     RDKit          3D

 48 52  0  0  0  0  0  0  0  0999 V2000
   35.8266   29.1359   49.7964 C   0  0  0  0  0  0  0  0  0  0  0  0
   34.8033   29.6606   50.5651 C   0  0  0  0  0  0  0  0  0  0  0  0
   33.6005   29.1217   50.0832 C   0  0  0  0  0  0  0  0  0  0  0  0
   33.9713   28.2961   49.0442 C   0  0  0  0  0  0  0  0  0  0  0  0
   35.2796   28.3389   48.9157 O   0  0  0  0  0  0  0  0  0  0  0  0
   37.2151   29.4844   50.0257 C   0  0  0  0  0  0  0  0  0  0  0  0
   37.8582   28.8766   50.8952 O   0  0  0  0  0  0  0  0  0  0  0  0
   37.7677   30.5328   49.2143 C   0  0  0  0  0  0  0  0  0  0  0  0
   38.1108   31.7122   49.8542 C   0  0  0  0  0  0  0  0  0  0  0  0
   38.6480   32.7520   49.0898 C   0  0  0  0  0  0  0  0  0  0  0  0
   38.8085   32.5496   47.7382 N   0  0  0  0  0  0  0  0  0  0  0  0
   38.4647   31.3952   47.1573 C   0  0  0  0  0  0  0  0  0  0  0  0
   37.9498   30.3934   47.8789 N   0  0  0  0  0  0  0  0  0  0  0  0
   33.0637   27.4983   48.2201 C   0  0  0  0  0  0  0  0  0  0  0  0
   31.8460   27.4068   48.5832 O   0  0  0  0  0  0  0  0  0  0  0  0
   33.5677   26.8045   46.9865 C   0  0  1  0  0  0  0  0  0  0  0  0
   33.7896   25.2730   47.2995 C   0  0  0  0  0  0  0  0  0  0  0  0
   32.7519   25.7600   46.3625 C   0  0  2  0  0  0  0  0  0  0  0  0
   34.7714   30.3600   51.4079 H   0  0  0  0  0  0  0  0  0  0  0  0
   32.5956   29.3141   50.4502 H   0  0  0  0  0  0  0  0  0  0  0  0
   37.9825   31.8636   50.9119 H   0  0  0  0  0  0  0  0  0  0  0  0
   38.9274   33.6934   49.5693 H   0  0  0  0  0  0  0  0  0  0  0  0
   38.6042   31.2671   46.0869 H   0  0  0  0  0  0  0  0  0  0  0  0
   34.5409   27.2069   46.6319 H   0  0  0  0  0  0  0  0  0  0  0  0
   33.4687   24.9042   48.2682 H   0  0  0  0  0  0  0  0  0  0  0  0
   34.6933   24.8116   46.8808 H   0  0  0  0  0  0  0  0  0  0  0  0
   31.6853   25.7736   46.7080 H   0  0  0  0  0  0  0  0  0  0  0  0
   32.9247   25.3420   44.9329 C   0  0  0  0  0  0  0  0  0  0  0  0
   31.6651   25.1943   44.1979 C   0  0  0  0  0  0  0  0  0  0  0  0
   31.3030   25.8645   43.1157 C   0  0  0  0  0  0  0  0  0  0  0  0
   32.1718   26.8908   42.4933 C   0  0  0  0  0  0  0  0  0  0  0  0
   33.2878   27.3327   42.7725 O   0  0  0  0  0  0  0  0  0  0  0  0
   31.8087   27.5870   41.3688 O   0  0  0  0  0  0  0  0  0  0  0  0
   30.0420   25.6351   42.4990 N   0  0  0  0  0  0  0  0  0  0  0  0
   29.1759   25.9400   41.4160 C   0  0  0  0  0  0  0  0  0  0  0  0
   28.9247   26.9395   40.6783 O   0  0  0  0  0  0  0  0  0  0  0  0
   28.6478   24.5583   41.4848 C   0  0  2  0  0  0  0  0  0  0  0  0
   29.2254   23.7792   40.9737 H   0  0  0  0  0  0  0  0  0  0  0  0
   28.9856   24.7742   42.9440 C   0  0  1  0  0  0  0  0  0  0  0  0
   29.6579   23.3468   43.7889 S   0  0  0  0  0  0  0  0  0  0  0  0
   30.8502   24.1729   44.8705 C   0  0  2  0  0  0  0  0  0  0  0  0
   30.2585   24.6407   45.7032 H   0  0  0  0  0  0  0  0  0  0  0  0
   33.3990   24.3071   44.9699 H   0  0  0  0  0  0  0  0  0  0  0  0
   33.7055   25.9419   44.4364 H   0  0  0  0  0  0  0  0  0  0  0  0
   32.4327   27.7546   40.6129 H   0  0  0  0  0  0  0  0  0  0  0  0
   27.5619   24.5518   41.2566 H   0  0  0  0  0  0  0  0  0  0  0  0
   28.1694   25.3155   43.4478 H   0  0  0  0  0  0  0  0  0  0  0  0
   31.4151   23.3608   45.3668 H   0  0  0  0  0  0  0  0  0  0  0  0
  1  6  1  0
  1  2  2  0
  3  2  1  0
  4  3  2  0
  5  4  1  0
  5  1  1  0
  6  7  2  0
  8  9  2  0
  8  6  1  0
 10  9  1  0
 11 10  2  0
 12 11  1  0
 12 13  2  0
 13  8  1  0
 14 15  2  0
 14  4  1  0
 16 17  1  0
 16 14  1  0
 18 16  1  0
 18 17  1  0
  2 19  1  0
  3 20  1  0
  9 21  1  0
 10 22  1  0
 12 23  1  0
 16 24  1  6
 17 25  1  0
 17 26  1  0
 18 27  1  1
 28 29  1  0
 29 30  2  0
 30 31  1  0
 31 32  2  0
 31 33  1  0
 30 34  1  0
 34 35  1  0
 35 36  2  0
 35 37  1  0
 37 38  1  6
 37 39  1  0
 39 40  1  0
 40 41  1  0
 41 42  1  1
 41 29  1  0
 39 34  1  0
 28 43  1  0
 28 44  1  0
 33 45  1  0
 37 46  1  0
 39 47  1  1
 41 48  1  0
 18 28  1  0
M  ISO  8  19  14  20  14  21  14  22  14  23  14  24  13  25  13  26  13
M  ISO  3  27  13  38  15  42  15
M  END
>  <DihAtoms>  (1) 
15,17,27,28

>  <DihDeg>  (1) 
-60.057966562750984

$$$$
