
 OpenBabel03272507333D

 43 48  0  0  1  0  0  0  0  0999 V2000
   33.0290   26.8690   47.3290 C   0  0  1  0  0  0  0  0  0  0  0  0
   33.8050   25.5690   47.7790 C   0  0  0  0  0  0  0  0  0  0  0  0
   32.4430   25.5320   47.1980 C   0  0  2  0  0  0  0  0  0  0  0  0
   33.6790   27.3980   46.6000 H   0  0  0  0  0  0  0  0  0  0  0  0
   33.9110   25.3860   48.8420 H   0  0  0  0  0  0  0  0  0  0  0  0
   34.6470   25.2570   47.1480 H   0  0  0  0  0  0  0  0  0  0  0  0
   31.5740   25.3670   47.8880 H   0  0  0  0  0  0  0  0  0  0  0  0
   32.7090   27.7010   48.5380 C   0  0  0  0  0  0  0  0  0  0  0  0
   31.5310   27.7450   49.0220 O   0  0  0  0  0  0  0  0  0  0  0  0
   35.7400   29.1890   49.7210 C   0  0  0  0  0  0  0  0  0  0  0  0
   34.8380   29.9150   50.4800 C   0  0  0  0  0  0  0  0  0  0  0  0
   33.5520   29.4620   50.1450 C   0  0  0  0  0  0  0  0  0  0  0  0
   33.7540   28.4830   49.1970 C   0  0  0  0  0  0  0  0  0  0  0  0
   35.0470   28.3610   48.9840 O   0  0  0  0  0  0  0  0  0  0  0  0
   34.9430   30.7070   51.2280 H   0  0  0  0  0  0  0  0  0  0  0  0
   32.6040   29.8090   50.5460 H   0  0  0  0  0  0  0  0  0  0  0  0
   37.1700   29.4020   49.8180 C   0  0  0  0  0  0  0  0  0  0  0  0
   37.8470   28.6600   50.5450 O   0  0  0  0  0  0  0  0  0  0  0  0
   37.7230   30.4830   49.0490 C   0  0  0  0  0  0  0  0  0  0  0  0
   38.0850   31.6280   49.7390 C   0  0  0  0  0  0  0  0  0  0  0  0
   38.6220   32.6970   49.0170 C   0  0  0  0  0  0  0  0  0  0  0  0
   38.7650   32.5570   47.6550 N   0  0  0  0  0  0  0  0  0  0  0  0
   38.4040   31.4330   47.0260 C   0  0  0  0  0  0  0  0  0  0  0  0
   37.8880   30.4040   47.7070 N   0  0  0  0  0  0  0  0  0  0  0  0
   37.9710   31.7320   50.8040 H   0  0  0  0  0  0  0  0  0  0  0  0
   38.9160   33.6130   49.5360 H   0  0  0  0  0  0  0  0  0  0  0  0
   38.5290   31.3540   45.9490 H   0  0  0  0  0  0  0  0  0  0  0  0
   32.3210   24.8260   45.8810 C   0  0  0  0  0  2  0  0  0  0  0  0
   31.6950   23.5040   45.9690 C   0  0  0  0  0  0  0  0  0  0  0  0
   30.4290   23.2140   45.7130 C   0  0  0  0  0  0  0  0  0  0  0  0
   29.9410   21.8850   45.8460 N   0  0  0  0  0  0  0  0  0  0  0  0
   28.8390   21.0030   45.6880 C   0  0  1  0  0  0  0  0  0  0  0  0
   27.5760   21.0680   45.7690 O   0  0  0  0  0  1  0  0  0  0  0  0
   29.7910   19.9130   45.3760 C   0  0  0  0  0  3  0  0  0  0  0  0
   30.1540   19.8520   44.3430 H   0  0  0  0  0  0  0  0  0  0  0  0
   30.6420   20.7300   46.3230 C   0  0  1  0  0  0  0  0  0  0  0  0
   32.3760   20.8320   45.8930 S   0  0  0  0  0  0  0  0  0  0  0  0
   32.7120   22.5350   46.4020 C   0  0  0  0  0  3  0  0  0  0  0  0
   32.7820   22.5280   47.5240 H   0  0  0  0  0  0  0  0  0  0  0  0
   29.4520   24.2440   45.2880 C   0  0  0  0  0  0  0  0  0  0  0  0
   29.1160   24.6820   44.1860 O   0  0  0  0  0  0  0  0  0  0  0  0
   28.6830   24.9490   46.1780 O   0  0  0  0  0  0  0  0  0  0  0  0
   27.7130   25.1200   46.0350 H   0  0  0  0  0  0  0  0  0  0  0  0
  1  4  1  6  0  0  0
  1  2  1  0  0  0  0
  1  8  1  0  0  0  0
  2  5  1  0  0  0  0
  3  1  1  0  0  0  0
  3  2  1  0  0  0  0
  3  7  1  1  0  0  0
  6  2  1  0  0  0  0
  8  9  2  0  0  0  0
  8 13  1  0  0  0  0
 10 17  1  0  0  0  0
 10 11  2  0  0  0  0
 11 15  1  0  0  0  0
 12 11  1  0  0  0  0
 12 16  1  0  0  0  0
 13 12  2  0  0  0  0
 14 13  1  0  0  0  0
 14 10  1  0  0  0  0
 17 18  2  0  0  0  0
 19 20  1  0  0  0  0
 19 17  1  0  0  0  0
 20 25  1  0  0  0  0
 21 26  1  0  0  0  0
 21 20  2  0  0  0  0
 22 21  1  0  0  0  0
 23 22  2  0  0  0  0
 23 24  1  0  0  0  0
 24 19  2  0  0  0  0
 27 23  1  0  0  0  0
 28 29  1  0  0  0  0
 28  3  1  0  0  0  0
 29 38  1  0  0  0  0
 30 31  1  0  0  0  0
 30 29  2  0  0  0  0
 31 36  1  0  0  0  0
 32 33  1  1  0  0  0
 32 31  1  0  0  0  0
 32 36  1  0  0  0  0
 34 32  1  0  0  0  0
 35 34  1  0  0  0  0
 36 34  1  6  0  0  0
 37 36  1  0  0  0  0
 37 38  1  0  0  0  0
 38 39  1  0  0  0  0
 40 30  1  0  0  0  0
 40 42  1  0  0  0  0
 41 40  2  0  0  0  0
 43 42  1  0  0  0  0
M  END
>  <minimizedAffinity>
-5.32231188

>  <minimizedRMSD>
1.95183372

$$$$
