
     RDKit          3D

 49 52  0  0  0  0  0  0  0  0999 V2000
   37.1298   30.9576   49.0203 C   0  0  0  0  0  0  0  0  0  0  0  0
   36.9186   31.9283   49.9977 C   0  0  0  0  0  0  0  0  0  0  0  0
   37.5547   33.1647   49.9849 C   0  0  0  0  0  0  0  0  0  0  0  0
   38.4498   33.4587   48.9480 C   0  0  0  0  0  0  0  0  0  0  0  0
   38.6480   32.4983   47.9961 C   0  0  0  0  0  0  0  0  0  0  0  0
   37.9983   31.2817   48.0419 C   0  0  0  0  0  0  0  0  0  0  0  0
   36.4213   29.7068   49.1234 C   0  0  0  0  0  0  0  0  0  0  0  0
   36.9350   28.8723   49.9505 O   0  0  0  0  0  0  0  0  0  0  0  0
   33.6274   30.1712   46.8592 C   0  0  0  0  0  0  0  0  0  0  0  0
   32.9598   28.9558   46.8741 C   0  0  0  0  0  0  0  0  0  0  0  0
   33.4712   27.9610   47.6701 C   0  0  0  0  0  0  0  0  0  0  0  0
   34.5927   28.1928   48.4037 N   0  0  0  0  0  0  0  0  0  0  0  0
   35.2089   29.3612   48.3705 C   0  0  0  0  0  0  0  0  0  0  0  0
   34.7167   30.3510   47.5909 N   0  0  0  0  0  0  0  0  0  0  0  0
   38.3307   30.3806   46.9536 C   0  0  0  0  0  0  0  0  0  0  0  0
   38.8090   30.7091   45.7616 C   0  0  0  0  0  0  0  0  0  0  0  0
   39.1870   29.9060   44.5996 C   0  0  0  0  0  0  0  0  0  0  0  0
   36.2313   31.7588   50.8334 H   0  0  0  0  0  0  0  0  0  0  0  0
   37.3560   33.8836   50.7677 H   0  0  0  0  0  0  0  0  0  0  0  0
   38.9325   34.4266   48.9591 H   0  0  0  0  0  0  0  0  0  0  0  0
   39.3560   32.8132   47.2345 H   0  0  0  0  0  0  0  0  0  0  0  0
   33.2764   31.0144   46.2456 H   0  0  0  0  0  0  0  0  0  0  0  0
   32.0819   28.9090   46.2433 H   0  0  0  0  0  0  0  0  0  0  0  0
   32.9544   27.0292   47.6778 H   0  0  0  0  0  0  0  0  0  0  0  0
   38.2154   29.2840   47.0070 H   0  0  0  0  0  0  0  0  0  0  0  0
   38.9859   31.7584   45.5325 H   0  0  0  0  0  0  0  0  0  0  0  0
   40.2747   29.9789   44.4170 H   0  0  0  0  0  0  0  0  0  0  0  0
   39.0169   28.8180   44.8403 H   0  0  0  0  0  0  0  0  0  0  0  0
   36.5028   34.7296   40.6550 C   0  0  0  0  0  0  0  0  0  0  0  0
   36.8084   35.5591   41.3237 H   0  0  0  0  0  0  0  0  0  0  0  0
   37.0765   33.4833   41.1630 C   0  0  0  0  0  0  0  0  0  0  0  0
   36.7561   33.1175   42.3923 C   0  0  0  0  0  0  0  0  0  0  0  0
   35.8658   33.8929   43.2519 C   0  0  0  0  0  0  0  0  0  0  0  0
   35.3019   34.9651   42.9750 O   0  0  0  0  0  0  0  0  0  0  0  0
   35.5189   33.5339   44.5210 O   0  0  0  0  0  0  0  0  0  0  0  0
   37.3185   31.8944   42.9127 N   0  0  0  0  0  0  0  0  0  0  0  0
   37.0442   30.6879   43.6570 C   0  0  0  0  0  0  0  0  0  0  0  0
   36.0665   30.1969   44.3172 O   0  0  0  0  0  0  0  0  0  0  0  0
   38.4085   30.2173   43.3404 C   0  0  1  0  0  0  0  0  0  0  0  0
   38.7338   31.5393   42.7165 C   0  0  1  0  0  0  0  0  0  0  0  0
   39.0156   31.5433   40.9535 S   0  0  0  0  0  0  0  0  0  0  0  0
   37.9527   32.7900   40.1919 C   0  0  1  0  0  0  0  0  0  0  0  0
   37.3556   32.3418   39.3509 H   0  0  0  0  0  0  0  0  0  0  0  0
   35.3898   34.6346   40.6876 H   0  0  0  0  0  0  0  0  0  0  0  0
   36.7844   34.9915   39.6127 H   0  0  0  0  0  0  0  0  0  0  0  0
   34.5824   33.6049   44.8547 H   0  0  0  0  0  0  0  0  0  0  0  0
   38.4385   29.3554   42.6179 H   0  0  0  0  0  0  0  0  0  0  0  0
   39.4334   32.1524   43.3201 H   0  0  0  0  0  0  0  0  0  0  0  0
   38.6080   33.5534   39.6861 H   0  0  0  0  0  0  0  0  0  0  0  0
  1  7  1  0
  1  2  2  0
  3  2  1  0
  4  3  2  0
  5  6  2  0
  5  4  1  0
  6  1  1  0
  7  8  2  0
  9 10  2  0
  9 14  1  0
 10 11  1  0
 11 12  2  0
 13 12  1  0
 13  7  1  0
 14 13  2  0
 15  6  1  0
 16 15  2  0
 17 16  1  0
  2 18  1  0
  3 19  1  0
  4 20  1  0
  5 21  1  0
  9 22  1  0
 10 23  1  0
 11 24  1  0
 15 25  1  0
 16 26  1  0
 17 27  1  0
 17 28  1  0
 29 30  1  0
 29 31  1  0
 31 32  2  0
 32 33  1  0
 33 34  2  0
 33 35  1  0
 32 36  1  0
 36 37  1  0
 37 38  2  0
 37 39  1  0
 39 40  1  0
 40 41  1  0
 41 42  1  0
 42 43  1  6
 42 31  1  0
 40 36  1  0
 29 44  1  0
 29 45  1  0
 35 46  1  0
 39 47  1  6
 40 48  1  1
 42 49  1  0
 17 39  1  0
M  ISO  8  18  14  19  14  20  14  21  14  22  14  23  14  24  14  27   8
M  ISO  3  28   8  30   8  43  15
M  END
>  <DihAtoms>  (1) 
15,16,38,36

>  <DihDeg>  (1) 
60.032290044664876

$$$$
