
 OpenBabel03272507323D

 43 48  0  0  1  0  0  0  0  0999 V2000
   33.6440   26.8900   46.8550 C   0  0  1  0  0  0  0  0  0  0  0  0
   33.7720   25.3210   46.9790 C   0  0  0  0  0  0  0  0  0  0  0  0
   32.7900   25.9800   46.0870 C   0  0  2  0  0  0  0  0  0  0  0  0
   34.6480   27.2750   46.5760 H   0  0  0  0  0  0  0  0  0  0  0  0
   33.4020   24.8540   47.8860 H   0  0  0  0  0  0  0  0  0  0  0  0
   34.6600   24.8630   46.5260 H   0  0  0  0  0  0  0  0  0  0  0  0
   31.7160   26.0140   46.4080 H   0  0  0  0  0  0  0  0  0  0  0  0
   33.1440   27.4540   48.1540 C   0  0  0  0  0  0  0  0  0  0  0  0
   31.9510   27.2490   48.5520 O   0  0  0  0  0  0  0  0  0  0  0  0
   35.8550   29.1220   49.7870 C   0  0  0  0  0  0  0  0  0  0  0  0
   34.8140   29.6000   50.5640 C   0  0  0  0  0  0  0  0  0  0  0  0
   33.6280   29.0420   50.0620 C   0  0  0  0  0  0  0  0  0  0  0  0
   34.0250   28.2540   49.0040 C   0  0  0  0  0  0  0  0  0  0  0  0
   35.3330   28.3340   48.8840 O   0  0  0  0  0  0  0  0  0  0  0  0
   34.7590   30.2760   51.4250 H   0  0  0  0  0  0  0  0  0  0  0  0
   32.6170   29.1980   50.4280 H   0  0  0  0  0  0  0  0  0  0  0  0
   37.2320   29.5000   50.0340 C   0  0  0  0  0  0  0  0  0  0  0  0
   37.8700   28.9240   50.9270 O   0  0  0  0  0  0  0  0  0  0  0  0
   37.7810   30.5410   49.2090 C   0  0  0  0  0  0  0  0  0  0  0  0
   38.1360   31.7230   49.8370 C   0  0  0  0  0  0  0  0  0  0  0  0
   38.6690   32.7560   49.0610 C   0  0  0  0  0  0  0  0  0  0  0  0
   38.8140   32.5440   47.7080 N   0  0  0  0  0  0  0  0  0  0  0  0
   38.4590   31.3860   47.1390 C   0  0  0  0  0  0  0  0  0  0  0  0
   37.9480   30.3910   47.8730 N   0  0  0  0  0  0  0  0  0  0  0  0
   38.0200   31.8830   50.8960 H   0  0  0  0  0  0  0  0  0  0  0  0
   38.9570   33.6990   49.5300 H   0  0  0  0  0  0  0  0  0  0  0  0
   38.5860   31.2510   46.0680 H   0  0  0  0  0  0  0  0  0  0  0  0
   32.9820   25.7330   44.6210 C   0  0  0  0  0  2  0  0  0  0  0  0
   33.4480   26.9050   43.8740 C   0  0  0  0  0  0  0  0  0  0  0  0
   34.6520   27.0760   43.3520 C   0  0  0  0  0  0  0  0  0  0  0  0
   34.9850   28.2710   42.6550 N   0  0  0  0  0  0  0  0  0  0  0  0
   35.9620   28.9730   41.9010 C   0  0  1  0  0  0  0  0  0  0  0  0
   37.2260   29.0480   41.8540 O   0  0  0  0  0  1  0  0  0  0  0  0
   34.8680   29.6240   41.1430 C   0  0  0  0  0  3  0  0  0  0  0  0
   34.4380   29.0600   40.3070 H   0  0  0  0  0  0  0  0  0  0  0  0
   34.1800   29.4440   42.4780 C   0  0  1  0  0  0  0  0  0  0  0  0
   32.4480   29.0030   42.3880 S   0  0  0  0  0  0  0  0  0  0  0  0
   32.3500   27.8790   43.8030 C   0  0  0  0  0  3  0  0  0  0  0  0
   32.3480   28.5220   44.7250 H   0  0  0  0  0  0  0  0  0  0  0  0
   35.7180   26.0540   43.4690 C   0  0  0  0  0  0  0  0  0  0  0  0
   35.7800   24.9630   44.0370 O   0  0  0  0  0  0  0  0  0  0  0  0
   36.9500   26.1980   42.8840 O   0  0  0  0  0  0  0  0  0  0  0  0
   37.4070   25.4590   42.3990 H   0  0  0  0  0  0  0  0  0  0  0  0
  1  4  1  6  0  0  0
  1  2  1  0  0  0  0
  1  8  1  0  0  0  0
  2  5  1  0  0  0  0
  3  7  1  1  0  0  0
  3  1  1  0  0  0  0
  3  2  1  0  0  0  0
  6  2  1  0  0  0  0
  8  9  2  0  0  0  0
  8 13  1  0  0  0  0
 10 17  1  0  0  0  0
 10 11  2  0  0  0  0
 11 15  1  0  0  0  0
 12 16  1  0  0  0  0
 12 11  1  0  0  0  0
 13 12  2  0  0  0  0
 14 13  1  0  0  0  0
 14 10  1  0  0  0  0
 17 18  2  0  0  0  0
 19 20  1  0  0  0  0
 19 17  1  0  0  0  0
 20 25  1  0  0  0  0
 21 26  1  0  0  0  0
 21 20  2  0  0  0  0
 22 21  1  0  0  0  0
 23 22  2  0  0  0  0
 23 24  1  0  0  0  0
 24 19  2  0  0  0  0
 27 23  1  0  0  0  0
 28  3  1  0  0  0  0
 29 28  1  0  0  0  0
 30 40  1  0  0  0  0
 30 29  2  0  0  0  0
 31 30  1  0  0  0  0
 32 33  1  1  0  0  0
 32 36  1  0  0  0  0
 32 31  1  0  0  0  0
 34 32  1  0  0  0  0
 35 34  1  0  0  0  0
 36 34  1  6  0  0  0
 36 31  1  0  0  0  0
 37 36  1  0  0  0  0
 37 38  1  0  0  0  0
 38 29  1  0  0  0  0
 38 39  1  0  0  0  0
 40 41  2  0  0  0  0
 42 40  1  0  0  0  0
 43 42  1  0  0  0  0
M  END
>  <minimizedAffinity>
-4.85789108

>  <minimizedRMSD>
0.67042309

$$$$
