
 OpenBabel03272507333D

 43 48  0  0  1  0  0  0  0  0999 V2000
   33.2130   26.7480   47.2500 C   0  0  1  0  0  0  0  0  0  0  0  0
   33.8850   25.4250   47.7920 C   0  0  0  0  0  0  0  0  0  0  0  0
   32.5840   25.4350   47.0820 C   0  0  2  0  0  0  0  0  0  0  0  0
   33.9530   27.2360   46.5800 H   0  0  0  0  0  0  0  0  0  0  0  0
   33.8790   25.2580   48.8630 H   0  0  0  0  0  0  0  0  0  0  0  0
   34.7690   25.0660   47.2500 H   0  0  0  0  0  0  0  0  0  0  0  0
   31.6460   25.3190   47.6860 H   0  0  0  0  0  0  0  0  0  0  0  0
   32.8140   27.6150   48.4100 C   0  0  0  0  0  0  0  0  0  0  0  0
   31.6050   27.6800   48.8070 O   0  0  0  0  0  0  0  0  0  0  0  0
   35.7640   29.1600   49.7180 C   0  0  0  0  0  0  0  0  0  0  0  0
   34.8210   29.8290   50.4780 C   0  0  0  0  0  0  0  0  0  0  0  0
   33.5590   29.3470   50.0960 C   0  0  0  0  0  0  0  0  0  0  0  0
   33.8170   28.4070   49.1210 C   0  0  0  0  0  0  0  0  0  0  0  0
   35.1180   28.3360   48.9360 O   0  0  0  0  0  0  0  0  0  0  0  0
   34.8810   30.5980   51.2550 H   0  0  0  0  0  0  0  0  0  0  0  0
   32.5910   29.6480   50.4850 H   0  0  0  0  0  0  0  0  0  0  0  0
   37.1840   29.4160   49.8590 C   0  0  0  0  0  0  0  0  0  0  0  0
   37.8550   28.7130   50.6280 O   0  0  0  0  0  0  0  0  0  0  0  0
   37.7340   30.4920   49.0790 C   0  0  0  0  0  0  0  0  0  0  0  0
   38.0890   31.6450   49.7580 C   0  0  0  0  0  0  0  0  0  0  0  0
   38.6230   32.7100   49.0270 C   0  0  0  0  0  0  0  0  0  0  0  0
   38.7690   32.5570   47.6670 N   0  0  0  0  0  0  0  0  0  0  0  0
   38.4130   31.4250   47.0480 C   0  0  0  0  0  0  0  0  0  0  0  0
   37.9010   30.4000   47.7380 N   0  0  0  0  0  0  0  0  0  0  0  0
   37.9730   31.7590   50.8220 H   0  0  0  0  0  0  0  0  0  0  0  0
   38.9110   33.6320   49.5370 H   0  0  0  0  0  0  0  0  0  0  0  0
   38.5400   31.3360   45.9730 H   0  0  0  0  0  0  0  0  0  0  0  0
   32.5590   24.7100   45.7700 C   0  0  0  0  0  2  0  0  0  0  0  0
   31.8790   23.4130   45.8180 C   0  0  0  0  0  0  0  0  0  0  0  0
   30.5880   23.1930   45.6250 C   0  0  0  0  0  0  0  0  0  0  0  0
   30.0460   21.8800   45.7100 N   0  0  0  0  0  0  0  0  0  0  0  0
   28.8980   21.0580   45.5700 C   0  0  1  0  0  0  0  0  0  0  0  0
   27.6470   21.1710   45.7330 O   0  0  0  0  0  1  0  0  0  0  0  0
   29.7780   19.9500   45.1340 C   0  0  0  0  0  3  0  0  0  0  0  0
   30.0770   19.9370   44.0790 H   0  0  0  0  0  0  0  0  0  0  0  0
   30.7220   20.6690   46.0740 C   0  0  1  0  0  0  0  0  0  0  0  0
   32.4300   20.7230   45.5430 S   0  0  0  0  0  0  0  0  0  0  0  0
   32.8740   22.3770   46.1300 C   0  0  0  0  0  3  0  0  0  0  0  0
   33.0100   22.2970   47.2420 H   0  0  0  0  0  0  0  0  0  0  0  0
   29.6360   24.2870   45.3230 C   0  0  0  0  0  0  0  0  0  0  0  0
   29.6740   25.2500   44.5540 O   0  0  0  0  0  0  0  0  0  0  0  0
   28.4160   24.4010   45.9390 O   0  0  0  0  0  0  0  0  0  0  0  0
   27.5810   24.6210   45.4450 H   0  0  0  0  0  0  0  0  0  0  0  0
  1  4  1  6  0  0  0
  1  2  1  0  0  0  0
  1  8  1  0  0  0  0
  2  5  1  0  0  0  0
  3  1  1  0  0  0  0
  3  7  1  1  0  0  0
  3  2  1  0  0  0  0
  6  2  1  0  0  0  0
  8  9  2  0  0  0  0
  8 13  1  0  0  0  0
 10 17  1  0  0  0  0
 10 11  2  0  0  0  0
 11 15  1  0  0  0  0
 12 11  1  0  0  0  0
 12 16  1  0  0  0  0
 13 12  2  0  0  0  0
 14 13  1  0  0  0  0
 14 10  1  0  0  0  0
 17 18  2  0  0  0  0
 19 20  1  0  0  0  0
 19 17  1  0  0  0  0
 20 25  1  0  0  0  0
 21 26  1  0  0  0  0
 21 20  2  0  0  0  0
 22 21  1  0  0  0  0
 23 22  2  0  0  0  0
 23 24  1  0  0  0  0
 24 19  2  0  0  0  0
 27 23  1  0  0  0  0
 28 29  1  0  0  0  0
 28  3  1  0  0  0  0
 29 38  1  0  0  0  0
 30 31  1  0  0  0  0
 30 29  2  0  0  0  0
 31 36  1  0  0  0  0
 32 31  1  0  0  0  0
 32 33  1  1  0  0  0
 32 36  1  0  0  0  0
 34 32  1  0  0  0  0
 35 34  1  0  0  0  0
 36 34  1  6  0  0  0
 37 36  1  0  0  0  0
 37 38  1  0  0  0  0
 38 39  1  0  0  0  0
 40 30  1  0  0  0  0
 40 42  1  0  0  0  0
 41 40  2  0  0  0  0
 43 42  1  0  0  0  0
M  END
>  <minimizedAffinity>
-5.27262688

>  <minimizedRMSD>
1.6330719

$$$$
