
 OpenBabel03262521233D

 54 58  0  0  1  0  0  0  0  0999 V2000
   39.8700   25.1690   53.3890 C   0  0  0  0  0  0  0  0  0  0  0  0
   39.5990   26.1590   52.4520 C   0  0  0  0  0  0  0  0  0  0  0  0
   40.1830   25.9630   51.1840 C   0  0  0  0  0  0  0  0  0  0  0  0
   40.9600   24.8920   50.8690 C   0  0  0  0  0  0  0  0  0  0  0  0
   41.6190   24.4710   49.7970 N   0  0  0  0  0  0  0  0  0  0  0  0
   42.2700   23.2790   50.0420 C   0  0  0  0  0  0  0  0  0  0  0  0
   41.9830   22.9440   51.3820 C   0  0  0  0  0  0  0  0  0  0  0  0
   41.1860   23.9530   51.8400 C   0  0  0  0  0  0  0  0  0  0  0  0
   40.6500   24.0910   53.0750 C   0  0  0  0  0  0  0  0  0  0  0  0
   39.3790   25.4100   54.3260 H   0  0  0  0  0  0  0  0  0  0  0  0
   40.0370   26.6840   50.3630 H   0  0  0  0  0  0  0  0  0  0  0  0
   41.6350   24.9880   48.8830 H   0  0  0  0  0  0  0  0  0  0  0  0
   42.8630   22.7420   49.3420 H   0  0  0  0  0  0  0  0  0  0  0  0
   42.3990   22.0410   51.7910 H   0  0  0  0  0  0  0  0  0  0  0  0
   38.6310   27.6210   52.6200 S   0  0  0  0  0  0  0  0  0  0  0  0
   38.0350   28.3150   51.0970 C   0  0  0  0  0  0  0  0  0  0  0  0
   38.9090   28.8090   50.5890 H   0  0  0  0  0  0  0  0  0  0  0  0
   37.7120   27.5070   50.4050 H   0  0  0  0  0  0  0  0  0  0  0  0
   36.9510   29.3600   51.2690 C   0  0  0  0  0  0  0  0  0  0  0  0
   36.0560   28.9570   50.7420 H   0  0  0  0  0  0  0  0  0  0  0  0
   36.6570   29.2840   52.3600 H   0  0  0  0  0  0  0  0  0  0  0  0
   37.3360   30.6170   50.9190 C   0  0  0  0  0  0  0  0  0  0  0  0
   38.4510   30.7870   50.9860 H   0  0  0  0  0  0  0  0  0  0  0  0
   36.8200   31.4570   51.4300 H   0  0  0  0  0  0  0  0  0  0  0  0
   36.9760   30.5800   49.5960 O   0  0  0  0  0  0  0  0  0  0  0  0
   37.8050   31.1700   48.6880 C   0  0  0  0  0  0  0  0  0  0  0  0
   38.1800   32.4440   49.0400 C   0  0  0  0  0  0  0  0  0  0  0  0
   39.0360   33.1660   48.1880 C   0  0  0  0  0  0  0  0  0  0  0  0
   39.4470   32.5450   47.0490 N   0  0  0  0  0  0  0  0  0  0  0  0
   39.0580   31.2720   46.7220 C   0  0  0  0  0  0  0  0  0  0  0  0
   38.2370   30.6030   47.5570 N   0  0  0  0  0  0  0  0  0  0  0  0
   40.3610   31.5900   44.7480 C   0  0  0  0  0  0  0  0  0  0  0  0
   40.6730   32.7720   45.0550 O   0  0  0  0  0  0  0  0  0  0  0  0
   39.5440   30.7200   45.5120 N   0  0  0  0  0  0  0  0  0  0  0  0
   37.9210   33.0360   49.9070 H   0  0  0  0  0  0  0  0  0  0  0  0
   39.3810   34.1580   48.3760 H   0  0  0  0  0  0  0  0  0  0  0  0
   40.7970   31.2770   43.7920 H   0  0  0  0  0  0  0  0  0  0  0  0
   39.3250   29.7670   45.2090 H   0  0  0  0  0  0  0  0  0  0  0  0
   40.7480   23.1760   54.2430 C   0  0  0  0  0  2  0  0  0  0  0  0
   41.9930   23.3160   55.0340 C   0  0  0  0  0  0  0  0  0  0  0  0
   42.7510   22.2250   55.1580 C   0  0  0  0  0  0  0  0  0  0  0  0
   43.9670   22.0400   55.8320 N   0  0  0  0  0  0  0  0  0  0  0  0
   44.9520   21.2290   56.4570 C   0  0  0  0  0  0  0  0  0  0  0  0
   45.3200   20.0340   56.2090 O   0  0  0  0  0  0  0  0  0  0  0  0
   45.2270   22.3700   57.3710 C   0  0  0  0  0  3  0  0  0  0  0  0
   46.2760   22.5250   57.6650 H   0  0  0  0  0  0  0  0  0  0  0  0
   44.7870   23.1670   56.1360 C   0  0  2  0  0  3  0  0  0  0  0  0
   43.8020   24.5680   56.6720 S   0  0  0  0  0  0  0  0  0  0  0  0
   42.3240   24.6310   55.6290 C   0  0  0  0  0  3  0  0  0  0  0  0
   42.5200   25.3070   54.7570 H   0  0  0  0  0  0  0  0  0  0  0  0
   42.2410   21.0040   54.4840 C   0  0  0  0  0  0  0  0  0  0  0  0
   42.9530   20.3700   53.6280 O   0  0  0  0  0  0  0  0  0  0  0  0
   41.5330   19.9160   54.0140 O   0  0  0  0  0  0  0  0  0  0  0  0
   40.5770   19.9930   53.6930 H   0  0  0  0  0  0  0  0  0  0  0  0
  1 10  1  0  0  0  0
  2 15  1  0  0  0  0
  2  1  2  0  0  0  0
  3  2  1  0  0  0  0
  4  3  2  0  0  0  0
  4  8  1  0  0  0  0
  5  6  1  0  0  0  0
  5  4  1  0  0  0  0
  6  7  2  0  0  0  0
  7 14  1  0  0  0  0
  7  8  1  0  0  0  0
  8  9  2  0  0  0  0
  9  1  1  0  0  0  0
  9 39  1  0  0  0  0
 11  3  1  0  0  0  0
 12  5  1  0  0  0  0
 13  6  1  0  0  0  0
 16 19  1  0  0  0  0
 16 15  1  0  0  0  0
 17 16  1  0  0  0  0
 18 16  1  0  0  0  0
 19 21  1  0  0  0  0
 20 19  1  0  0  0  0
 22 23  1  0  0  0  0
 22 19  1  0  0  0  0
 22 24  1  0  0  0  0
 25 22  1  0  0  0  0
 26 27  1  0  0  0  0
 26 25  1  0  0  0  0
 27 35  1  0  0  0  0
 28 36  1  0  0  0  0
 28 27  2  0  0  0  0
 29 28  1  0  0  0  0
 30 29  2  0  0  0  0
 30 31  1  0  0  0  0
 31 26  2  0  0  0  0
 32 33  2  0  0  0  0
 32 34  1  0  0  0  0
 34 30  1  0  0  0  0
 37 32  1  0  0  0  0
 38 34  1  0  0  0  0
 39 40  1  0  0  0  0
 40 41  2  0  0  0  0
 40 49  1  0  0  0  0
 41 42  1  0  0  0  0
 42 47  1  0  0  0  0
 42 43  1  0  0  0  0
 43 45  1  0  0  0  0
 44 43  2  0  0  0  0
 45 46  1  0  0  0  0
 47 48  1  1  0  0  0
 47 45  1  0  0  0  0
 49 48  1  0  0  0  0
 50 49  1  0  0  0  0
 51 41  1  0  0  0  0
 52 51  2  0  0  0  0
 53 51  1  0  0  0  0
 54 53  1  0  0  0  0
M  END
>  <minimizedAffinity>
-4.32687855

>  <minimizedRMSD>
2.01317692

$$$$
