REMARK  Name = 
REMARK  9 active torsions:
REMARK  status: ('A' for Active; 'I' for Inactive)
REMARK    1  A    between atoms: C_3  and  C_9
REMARK    2  A    between atoms: C_5  and  O_14
REMARK    3  A    between atoms: O_14  and  C_15
REMARK    4  A    between atoms: C_15  and  C_16
REMARK    5  A    between atoms: C_16  and  C_17
REMARK    6  A    between atoms: C_21  and  C_35
REMARK    7  A    between atoms: C_35  and  C_36
REMARK    8  A    between atoms: C_37  and  C_38
REMARK    9  A    between atoms: C_38  and  O_40
REMARK                            x       y       z     vdW  Elec       q    Type
REMARK                         _______ _______ _______ _____ _____    ______ ____
ROOT
ATOM      1  C   UNL     1      33.565  27.540  47.701  0.00  0.00    +0.000 C 
ATOM      2  H   UNL     1      33.713  26.590  48.269  0.00  0.00    +0.000 HD
ATOM      3  H   UNL     1      33.832  27.301  46.643  0.00  0.00    +0.000 HD
ENDROOT
BRANCH   1   4
ATOM      4  C   UNL     1      32.132  27.904  47.698  0.00  0.00    +0.000 A 
ATOM      5  C   UNL     1      31.344  27.524  48.782  0.00  0.00    +0.000 A 
ATOM      6  C   UNL     1      30.016  27.808  48.880  0.00  0.00    +0.000 A 
ATOM      7  N   UNL     1      29.443  28.483  47.891  0.00  0.00    +0.000 NA
ATOM      8  C   UNL     1      30.201  28.863  46.820  0.00  0.00    +0.000 A 
ATOM      9  N   UNL     1      31.529  28.589  46.704  0.00  0.00    +0.000 NA
ATOM     10  H   UNL     1      31.806  26.971  49.596  0.00  0.00    +0.000 HD
ATOM     11  H   UNL     1      29.450  27.489  49.744  0.00  0.00    +0.000 HD
BRANCH   8  12
ATOM     12  C   UNL     1      29.549  29.630  45.698  0.00  0.00    +0.000 C 
BRANCH  12  13
ATOM     13  C   UNL     1      28.241  30.180  46.054  0.00  0.00    +0.000 C 
ATOM     14  C   UNL     1      27.149  29.837  45.395  0.00  0.00    +0.000 C 
ATOM     15  N   UNL     1      25.889  30.376  45.750  0.00  0.00    +0.000 N 
ATOM     16  C   UNL     1      24.653  30.892  45.284  0.00  0.00    +0.000 C 
ATOM     17  O   UNL     1      24.000  31.024  44.234  0.00  0.00    +0.000 OA
ATOM     18  C   UNL     1      24.294  31.306  46.659  0.00  0.00    +0.000 C 
ATOM     19  H   UNL     1      23.318  30.894  46.941  0.00  0.00    +0.000 HD
ATOM     20  C   UNL     1      25.513  30.562  47.162  0.00  0.00    +0.000 C 
ATOM     21  S   UNL     1      26.768  31.605  47.898  0.00  0.00    +0.000 S 
ATOM     22  C   UNL     1      28.356  31.117  47.191  0.00  0.00    +0.000 C 
ATOM     23  H   UNL     1      28.930  32.030  46.932  0.00  0.00    +0.000 HD
BRANCH  14  24
ATOM     24  C   UNL     1      27.206  28.896  44.286  0.00  0.00    +0.000 C 
ATOM     25  O   UNL     1      26.209  28.534  43.623  0.00  0.00    +0.000 OA
BRANCH  24  26
ATOM     26  O   UNL     1      27.641  28.015  43.338  0.00  0.00    +0.000 OA
ATOM     27  H   UNL     1      28.332  27.298  43.593  0.00  0.00    +0.000 HD
ENDBRANCH  24  26
ENDBRANCH  14  24
ENDBRANCH  12  13
ENDBRANCH   8  12
ENDBRANCH   1   4
BRANCH   1  28
ATOM     28  C   UNL     1      34.445  28.659  48.165  0.00  0.00    +0.000 C 
ATOM     29  H   UNL     1      35.315  28.796  47.485  0.00  0.00    +0.000 HD
ATOM     30  H   UNL     1      33.915  29.633  48.180  0.00  0.00    +0.000 HD
BRANCH  28  31
ATOM     31  O   UNL     1      34.996  28.361  49.447  0.00  0.00    +0.000 OA
BRANCH  31  36
ATOM     32  C   UNL     1      37.332  30.169  51.507  0.00  0.00    +0.000 A 
ATOM     33  C   UNL     1      38.073  30.861  50.513  0.00  0.00    +0.000 A 
ATOM     34  C   UNL     1      37.713  30.654  49.200  0.00  0.00    +0.000 A 
ATOM     35  N   UNL     1      36.664  29.792  48.970  0.00  0.00    +0.000 NA
ATOM     36  C   UNL     1      35.985  29.154  49.932  0.00  0.00    +0.000 A 
ATOM     37  N   UNL     1      36.336  29.356  51.209  0.00  0.00    +0.000 NA
ATOM     38  H   UNL     1      37.680  30.388  52.503  0.00  0.00    +0.000 HD
ATOM     39  H   UNL     1      38.885  31.529  50.676  0.00  0.00    +0.000 HD
BRANCH  34  42
ATOM     40  F   UNL     1      38.931  33.271  49.002  0.00  0.00    +0.000 F 
ATOM     41  C   UNL     1      38.915  32.483  47.936  0.00  0.00    +0.000 A 
ATOM     42  C   UNL     1      38.338  31.261  48.052  0.00  0.00    +0.000 A 
ATOM     43  C   UNL     1      38.378  30.516  46.868  0.00  0.00    +0.000 A 
ATOM     44  C   UNL     1      38.944  30.977  45.707  0.00  0.00    +0.000 A 
ATOM     45  C   UNL     1      39.515  32.227  45.646  0.00  0.00    +0.000 A 
ATOM     46  C   UNL     1      39.493  32.982  46.789  0.00  0.00    +0.000 A 
ATOM     47  H   UNL     1      37.950  29.510  46.816  0.00  0.00    +0.000 HD
ATOM     48  H   UNL     1      38.966  30.387  44.800  0.00  0.00    +0.000 HD
ATOM     49  H   UNL     1      39.960  32.596  44.743  0.00  0.00    +0.000 HD
ATOM     50  H   UNL     1      39.935  33.968  46.767  0.00  0.00    +0.000 HD
ENDBRANCH  34  42
ENDBRANCH  31  36
ENDBRANCH  28  31
ENDBRANCH   1  28
TORSDOF 9
