
 OpenBabel03272509103D

 47 52  0  0  1  0  0  0  0  0999 V2000
   36.4520   26.5860   32.0830 C   0  0  0  0  0  0  0  0  0  0  0  0
   35.2700   26.4510   31.3560 C   0  0  0  0  0  0  0  0  0  0  0  0
   34.8390   25.2210   30.8800 C   0  0  0  0  0  0  0  0  0  0  0  0
   35.5920   24.0770   31.1230 C   0  0  0  0  0  0  0  0  0  0  0  0
   36.7480   24.2210   31.8360 C   0  0  0  0  0  0  0  0  0  0  0  0
   37.1880   25.4340   32.3150 C   0  0  0  0  0  0  0  0  0  0  0  0
   34.7180   27.3810   31.1940 H   0  0  0  0  0  0  0  0  0  0  0  0
   33.9110   25.2580   30.3350 H   0  0  0  0  0  0  0  0  0  0  0  0
   35.2210   23.1410   30.7350 H   0  0  0  0  0  0  0  0  0  0  0  0
   37.3140   23.2970   32.0060 H   0  0  0  0  0  0  0  0  0  0  0  0
   36.9240   27.8880   32.6060 C   0  0  0  0  0  0  0  0  0  0  0  0
   37.8670   27.8430   33.1670 H   0  0  0  0  0  0  0  0  0  0  0  0
   37.1600   28.5130   31.6930 H   0  0  0  0  0  0  0  0  0  0  0  0
   35.4090   29.8350   33.0310 C   0  0  0  0  0  3  0  0  0  0  0  0
   35.8750   28.6520   33.3240 C   0  0  0  0  0  3  0  0  0  0  0  0
   33.1300   32.1610   34.6800 C   0  0  0  0  0  0  0  0  0  0  0  0
   32.4010   31.3010   35.5210 C   0  0  0  0  0  0  0  0  0  0  0  0
   32.7180   29.9240   35.4980 C   0  0  0  0  0  0  0  0  0  0  0  0
   33.7200   29.4990   34.6560 N   0  0  0  0  0  0  0  0  0  0  0  0
   34.3750   30.3960   33.8760 C   0  0  0  0  0  0  0  0  0  0  0  0
   34.0930   31.7000   33.8820 N   0  0  0  0  0  0  0  0  0  0  0  0
   32.8040   33.1800   34.7820 H   0  0  0  0  0  0  0  0  0  0  0  0
   31.6180   31.5160   36.2020 H   0  0  0  0  0  0  0  0  0  0  0  0
   32.0270   28.9390   36.3300 C   0  0  0  0  0  0  0  0  0  0  0  0
   31.4420   27.8040   35.7980 C   0  0  0  0  0  0  0  0  0  0  0  0
   30.8750   27.0900   36.8620 C   0  0  0  0  0  0  0  0  0  0  0  0
   31.1380   27.8150   37.9810 N   0  0  0  0  0  0  0  0  0  0  0  0
   31.8230   28.9130   37.6530 N   0  0  0  0  0  0  0  0  0  0  0  0
   31.3630   27.4230   34.7900 H   0  0  0  0  0  0  0  0  0  0  0  0
   30.3390   26.1570   36.8170 H   0  0  0  0  0  0  0  0  0  0  0  0
   30.8190   27.4960   38.9220 H   0  0  0  0  0  0  0  0  0  0  0  0
   38.4100   25.4220   33.0920 C   0  0  0  0  0  2  0  0  0  0  0  0
   38.4760   24.7760   34.3850 C   0  0  0  0  0  0  0  0  0  0  0  0
   38.3960   25.2560   35.6220 C   0  0  0  0  0  0  0  0  0  0  0  0
   38.4890   24.4930   36.8190 N   0  0  0  0  0  0  0  0  0  0  0  0
   38.1880   24.2350   38.1740 C   0  0  1  0  0  0  0  0  0  0  0  0
   37.6400   24.8930   39.0970 O   0  0  0  0  0  1  0  0  0  0  0  0
   38.7410   22.8810   38.1820 C   0  0  0  0  0  3  0  0  0  0  0  0
   39.4860   22.6690   38.9760 H   0  0  0  0  0  0  0  0  0  0  0  0
   39.2930   23.2820   36.8540 C   0  0  2  0  0  0  0  0  0  0  0  0
   38.5980   22.2480   35.5350 S   0  0  0  0  0  0  0  0  0  0  0  0
   38.6540   23.3450   34.1360 C   0  0  0  0  0  3  0  0  0  0  0  0
   38.0020   23.0000   33.2930 H   0  0  0  0  0  0  0  0  0  0  0  0
   38.2080   26.6960   35.7920 C   0  0  0  0  0  2  0  0  0  0  0  0
   39.1960   27.4790   35.6940 O   0  0  0  0  0  0  0  0  0  0  0  0
   38.0260   28.0590   35.9530 O   0  0  0  0  0  0  0  0  0  0  0  0
   37.1360   28.5200   35.6910 H   0  0  0  0  0  0  0  0  0  0  0  0
  1  6  1  0  0  0  0
  1 11  1  0  0  0  0
  2  1  2  0  0  0  0
  3  4  2  0  0  0  0
  3  2  1  0  0  0  0
  4  5  1  0  0  0  0
  5 10  1  0  0  0  0
  5  6  2  0  0  0  0
  6 32  1  0  0  0  0
  7  2  1  0  0  0  0
  8  3  1  0  0  0  0
  9  4  1  0  0  0  0
 11 12  1  0  0  0  0
 11 15  1  0  0  0  0
 13 11  1  0  0  0  0
 14 15  2  0  0  0  0
 14 20  1  0  0  0  0
 16 22  1  0  0  0  0
 16 17  1  0  0  0  0
 17 23  1  0  0  0  0
 18 17  2  0  0  0  0
 18 24  1  0  0  0  0
 19 18  1  0  0  0  0
 20 21  1  0  0  0  0
 20 19  2  0  0  0  0
 21 16  2  0  0  0  0
 24 28  2  0  0  0  0
 25 24  1  0  0  0  0
 25 26  2  0  0  0  0
 26 27  1  0  0  0  0
 27 31  1  0  0  0  0
 28 27  1  0  0  0  0
 29 25  1  0  0  0  0
 30 26  1  0  0  0  0
 32 33  1  0  0  0  0
 33 34  2  0  0  0  0
 34 44  1  0  0  0  0
 34 35  1  0  0  0  0
 35 40  1  0  0  0  0
 35 36  1  0  0  0  0
 36 38  1  0  0  0  0
 36 37  1  1  0  0  0
 38 39  1  0  0  0  0
 40 41  1  6  0  0  0
 40 36  1  0  0  0  0
 40 38  1  0  0  0  0
 42 33  1  0  0  0  0
 42 41  1  0  0  0  0
 43 42  1  0  0  0  0
 45 44  1  0  0  0  0
 45 46  1  0  0  0  0
 47 46  1  0  0  0  0
M  END
>  <minimizedAffinity>
-7.09652567

$$$$

 OpenBabel03272509103D

 47 52  0  0  1  0  0  0  0  0999 V2000
   36.6380   26.3110   31.8330 C   0  0  0  0  0  0  0  0  0  0  0  0
   35.4210   26.1750   31.1660 C   0  0  0  0  0  0  0  0  0  0  0  0
   34.8700   24.9320   30.8930 C   0  0  0  0  0  0  0  0  0  0  0  0
   35.5330   23.7740   31.2870 C   0  0  0  0  0  0  0  0  0  0  0  0
   36.7240   23.9200   31.9390 C   0  0  0  0  0  0  0  0  0  0  0  0
   37.2830   25.1460   32.2170 C   0  0  0  0  0  0  0  0  0  0  0  0
   34.9430   27.1160   30.8790 H   0  0  0  0  0  0  0  0  0  0  0  0
   33.9270   24.9680   30.3730 H   0  0  0  0  0  0  0  0  0  0  0  0
   35.0700   22.8270   31.0560 H   0  0  0  0  0  0  0  0  0  0  0  0
   37.2170   22.9840   32.2320 H   0  0  0  0  0  0  0  0  0  0  0  0
   37.2370   27.6300   32.1400 C   0  0  0  0  0  0  0  0  0  0  0  0
   38.0450   27.6050   32.8820 H   0  0  0  0  0  0  0  0  0  0  0  0
   37.7350   27.9650   31.1810 H   0  0  0  0  0  0  0  0  0  0  0  0
   36.0210   29.7860   31.7680 C   0  0  0  0  0  3  0  0  0  0  0  0
   36.2330   28.6820   32.4310 C   0  0  0  0  0  3  0  0  0  0  0  0
   33.0850   31.9510   31.9060 C   0  0  0  0  0  0  0  0  0  0  0  0
   33.0870   32.3500   33.2550 C   0  0  0  0  0  0  0  0  0  0  0  0
   34.1130   31.8570   34.0930 C   0  0  0  0  0  0  0  0  0  0  0  0
   35.0530   31.0140   33.5460 N   0  0  0  0  0  0  0  0  0  0  0  0
   34.9790   30.6780   32.2330 C   0  0  0  0  0  0  0  0  0  0  0  0
   34.0200   31.1320   31.4240 N   0  0  0  0  0  0  0  0  0  0  0  0
   32.2630   32.3870   31.3680 H   0  0  0  0  0  0  0  0  0  0  0  0
   32.4210   32.9880   33.7780 H   0  0  0  0  0  0  0  0  0  0  0  0
   34.2140   32.2070   35.5100 C   0  0  0  0  0  0  0  0  0  0  0  0
   33.3930   33.1520   36.0970 C   0  0  0  0  0  0  0  0  0  0  0  0
   33.7550   33.2380   37.4480 C   0  0  0  0  0  0  0  0  0  0  0  0
   34.7700   32.3500   37.6190 N   0  0  0  0  0  0  0  0  0  0  0  0
   35.0350   31.7420   36.4600 N   0  0  0  0  0  0  0  0  0  0  0  0
   32.5960   33.7720   35.7120 H   0  0  0  0  0  0  0  0  0  0  0  0
   33.3270   33.8720   38.2050 H   0  0  0  0  0  0  0  0  0  0  0  0
   35.2250   32.2190   38.5490 H   0  0  0  0  0  0  0  0  0  0  0  0
   38.5290   25.1420   32.9540 C   0  0  0  0  0  2  0  0  0  0  0  0
   38.6150   24.5860   34.2880 C   0  0  0  0  0  0  0  0  0  0  0  0
   38.4700   25.1360   35.4900 C   0  0  0  0  0  0  0  0  0  0  0  0
   38.5930   24.4600   36.7350 N   0  0  0  0  0  0  0  0  0  0  0  0
   38.2820   24.2650   38.0980 C   0  0  1  0  0  0  0  0  0  0  0  0
   37.6630   24.9350   38.9660 O   0  0  0  0  0  1  0  0  0  0  0  0
   38.9380   22.9620   38.2040 C   0  0  0  0  0  3  0  0  0  0  0  0
   39.6790   22.8610   39.0230 H   0  0  0  0  0  0  0  0  0  0  0  0
   39.4880   23.3210   36.8630 C   0  0  2  0  0  0  0  0  0  0  0  0
   38.9070   22.1540   35.6020 S   0  0  0  0  0  0  0  0  0  0  0  0
   38.9100   23.1610   34.1360 C   0  0  0  0  0  3  0  0  0  0  0  0
   38.3060   22.7130   33.3050 H   0  0  0  0  0  0  0  0  0  0  0  0
   38.1660   26.5650   35.5620 C   0  0  0  0  0  2  0  0  0  0  0  0
   39.0350   27.3750   35.9940 O   0  0  0  0  0  0  0  0  0  0  0  0
   37.8760   27.9160   35.6290 O   0  0  0  0  0  0  0  0  0  0  0  0
   37.2260   28.3630   34.9560 H   0  0  0  0  0  0  0  0  0  0  0  0
  1 11  1  0  0  0  0
  1  6  1  0  0  0  0
  2  1  2  0  0  0  0
  3  2  1  0  0  0  0
  3  4  2  0  0  0  0
  4  5  1  0  0  0  0
  5  6  2  0  0  0  0
  5 10  1  0  0  0  0
  6 32  1  0  0  0  0
  7  2  1  0  0  0  0
  8  3  1  0  0  0  0
  9  4  1  0  0  0  0
 11 15  1  0  0  0  0
 11 12  1  0  0  0  0
 13 11  1  0  0  0  0
 14 20  1  0  0  0  0
 14 15  2  0  0  0  0
 16 17  1  0  0  0  0
 17 23  1  0  0  0  0
 17 18  2  0  0  0  0
 18 24  1  0  0  0  0
 19 18  1  0  0  0  0
 20 19  2  0  0  0  0
 21 16  2  0  0  0  0
 21 20  1  0  0  0  0
 22 16  1  0  0  0  0
 24 25  1  0  0  0  0
 24 28  2  0  0  0  0
 25 26  2  0  0  0  0
 26 27  1  0  0  0  0
 26 30  1  0  0  0  0
 27 31  1  0  0  0  0
 28 27  1  0  0  0  0
 29 25  1  0  0  0  0
 32 33  1  0  0  0  0
 33 34  2  0  0  0  0
 34 44  1  0  0  0  0
 34 35  1  0  0  0  0
 35 40  1  0  0  0  0
 35 36  1  0  0  0  0
 36 38  1  0  0  0  0
 36 37  1  1  0  0  0
 38 39  1  0  0  0  0
 40 41  1  6  0  0  0
 40 36  1  0  0  0  0
 40 38  1  0  0  0  0
 42 33  1  0  0  0  0
 42 41  1  0  0  0  0
 43 42  1  0  0  0  0
 44 45  1  0  0  0  0
 46 45  1  0  0  0  0
 47 46  1  0  0  0  0
M  END
>  <minimizedAffinity>
-6.97846842

$$$$

 OpenBabel03272509103D

 47 52  0  0  1  0  0  0  0  0999 V2000
   36.0620   29.0700   31.5770 C   0  0  0  0  0  0  0  0  0  0  0  0
   36.6540   29.6150   30.4390 C   0  0  0  0  0  0  0  0  0  0  0  0
   36.8660   30.9800   30.3050 C   0  0  0  0  0  0  0  0  0  0  0  0
   36.4830   31.8470   31.3220 C   0  0  0  0  0  0  0  0  0  0  0  0
   35.9040   31.3030   32.4320 C   0  0  0  0  0  0  0  0  0  0  0  0
   35.6880   29.9520   32.5800 C   0  0  0  0  0  0  0  0  0  0  0  0
   36.9350   28.8890   29.6710 H   0  0  0  0  0  0  0  0  0  0  0  0
   37.3320   31.2670   29.3770 H   0  0  0  0  0  0  0  0  0  0  0  0
   36.6660   32.9010   31.1780 H   0  0  0  0  0  0  0  0  0  0  0  0
   35.6150   32.0190   33.2120 H   0  0  0  0  0  0  0  0  0  0  0  0
   35.8360   27.6160   31.7420 C   0  0  0  0  0  0  0  0  0  0  0  0
   34.8710   27.3500   32.1920 H   0  0  0  0  0  0  0  0  0  0  0  0
   35.7920   27.1970   30.6930 H   0  0  0  0  0  0  0  0  0  0  0  0
   37.1060   25.6270   32.5790 C   0  0  0  0  0  3  0  0  0  0  0  0
   36.9730   26.9110   32.3820 C   0  0  0  0  0  3  0  0  0  0  0  0
   40.5730   24.7090   33.2610 C   0  0  0  0  0  0  0  0  0  0  0  0
   40.4860   24.2250   34.5780 C   0  0  0  0  0  0  0  0  0  0  0  0
   39.2200   24.2270   35.2060 C   0  0  0  0  0  0  0  0  0  0  0  0
   38.1410   24.7030   34.4960 N   0  0  0  0  0  0  0  0  0  0  0  0
   38.3100   25.1520   33.2270 C   0  0  0  0  0  0  0  0  0  0  0  0
   39.4970   25.1580   32.6150 N   0  0  0  0  0  0  0  0  0  0  0  0
   41.5790   24.6580   32.8870 H   0  0  0  0  0  0  0  0  0  0  0  0
   41.2430   23.8390   35.2140 H   0  0  0  0  0  0  0  0  0  0  0  0
   39.0130   23.7470   36.5730 C   0  0  0  0  0  0  0  0  0  0  0  0
   37.9600   24.1820   37.3560 C   0  0  0  0  0  0  0  0  0  0  0  0
   38.0620   23.5290   38.5920 C   0  0  0  0  0  0  0  0  0  0  0  0
   39.1620   22.7340   38.5040 N   0  0  0  0  0  0  0  0  0  0  0  0
   39.7200   22.8730   37.2990 N   0  0  0  0  0  0  0  0  0  0  0  0
   37.1530   24.8780   37.1790 H   0  0  0  0  0  0  0  0  0  0  0  0
   37.4110   23.6270   39.4430 H   0  0  0  0  0  0  0  0  0  0  0  0
   39.4620   22.1340   39.3030 H   0  0  0  0  0  0  0  0  0  0  0  0
   35.1030   29.5190   33.8320 C   0  0  0  0  0  2  0  0  0  0  0  0
   33.7950   29.9740   34.2520 C   0  0  0  0  0  0  0  0  0  0  0  0
   33.4120   30.7980   35.2230 C   0  0  0  0  0  0  0  0  0  0  0  0
   32.0700   31.1530   35.5320 N   0  0  0  0  0  0  0  0  0  0  0  0
   31.0800   32.0370   36.0140 C   0  0  1  0  0  0  0  0  0  0  0  0
   31.1030   33.1260   36.6470 O   0  0  0  0  0  1  0  0  0  0  0  0
   29.9460   31.2540   35.5250 C   0  0  0  0  0  3  0  0  0  0  0  0
   29.1730   31.0010   36.2790 H   0  0  0  0  0  0  0  0  0  0  0  0
   30.9880   30.2140   35.2800 C   0  0  2  0  0  0  0  0  0  0  0  0
   31.1200   29.8460   33.5080 S   0  0  0  0  0  0  0  0  0  0  0  0
   32.8210   29.3470   33.3590 C   0  0  0  0  0  3  0  0  0  0  0  0
   33.1810   29.3610   32.2990 H   0  0  0  0  0  0  0  0  0  0  0  0
   34.4440   31.3950   36.0690 C   0  0  0  0  0  2  0  0  0  0  0  0
   34.1500   31.8160   37.2240 O   0  0  0  0  0  0  0  0  0  0  0  0
   35.4240   31.9580   36.8680 O   0  0  0  0  0  0  0  0  0  0  0  0
   36.4130   31.6570   36.8040 H   0  0  0  0  0  0  0  0  0  0  0  0
  1 11  1  0  0  0  0
  1  6  1  0  0  0  0
  2  1  2  0  0  0  0
  3  2  1  0  0  0  0
  3  4  2  0  0  0  0
  4  5  1  0  0  0  0
  5  6  2  0  0  0  0
  5 10  1  0  0  0  0
  6 32  1  0  0  0  0
  7  2  1  0  0  0  0
  8  3  1  0  0  0  0
  9  4  1  0  0  0  0
 11 12  1  0  0  0  0
 11 15  1  0  0  0  0
 13 11  1  0  0  0  0
 14 20  1  0  0  0  0
 15 14  2  0  0  0  0
 16 17  1  0  0  0  0
 17 18  2  0  0  0  0
 17 23  1  0  0  0  0
 18 24  1  0  0  0  0
 19 18  1  0  0  0  0
 20 19  2  0  0  0  0
 21 20  1  0  0  0  0
 21 16  2  0  0  0  0
 22 16  1  0  0  0  0
 24 28  2  0  0  0  0
 24 25  1  0  0  0  0
 25 26  2  0  0  0  0
 26 30  1  0  0  0  0
 27 26  1  0  0  0  0
 27 31  1  0  0  0  0
 28 27  1  0  0  0  0
 29 25  1  0  0  0  0
 32 33  1  0  0  0  0
 33 34  2  0  0  0  0
 34 35  1  0  0  0  0
 34 44  1  0  0  0  0
 35 36  1  0  0  0  0
 36 37  1  1  0  0  0
 38 36  1  0  0  0  0
 38 39  1  0  0  0  0
 40 41  1  6  0  0  0
 40 38  1  0  0  0  0
 40 35  1  0  0  0  0
 40 36  1  0  0  0  0
 42 41  1  0  0  0  0
 42 33  1  0  0  0  0
 43 42  1  0  0  0  0
 44 45  1  0  0  0  0
 46 45  1  0  0  0  0
 47 46  1  0  0  0  0
M  END
>  <minimizedAffinity>
-6.69104576

$$$$

 OpenBabel03272509103D

 47 52  0  0  1  0  0  0  0  0999 V2000
   38.7040   26.9210   31.2190 C   0  0  0  0  0  0  0  0  0  0  0  0
   39.7780   27.6170   30.6670 C   0  0  0  0  0  0  0  0  0  0  0  0
   41.0620   27.5130   31.1810 C   0  0  0  0  0  0  0  0  0  0  0  0
   41.3080   26.6960   32.2800 C   0  0  0  0  0  0  0  0  0  0  0  0
   40.2490   26.0190   32.8130 C   0  0  0  0  0  0  0  0  0  0  0  0
   38.9700   26.1120   32.3140 C   0  0  0  0  0  0  0  0  0  0  0  0
   39.5290   28.2450   29.8060 H   0  0  0  0  0  0  0  0  0  0  0  0
   41.7980   28.1030   30.6610 H   0  0  0  0  0  0  0  0  0  0  0  0
   42.3210   26.6430   32.6480 H   0  0  0  0  0  0  0  0  0  0  0  0
   40.4820   25.3860   33.6790 H   0  0  0  0  0  0  0  0  0  0  0  0
   37.3290   27.0140   30.6790 C   0  0  0  0  0  0  0  0  0  0  0  0
   37.2460   26.8280   29.6010 H   0  0  0  0  0  0  0  0  0  0  0  0
   36.7570   26.1670   31.1640 H   0  0  0  0  0  0  0  0  0  0  0  0
   35.9140   28.4250   32.1870 C   0  0  0  0  0  3  0  0  0  0  0  0
   36.6100   28.2410   31.0990 C   0  0  0  0  0  3  0  0  0  0  0  0
   34.3080   31.6560   31.6340 C   0  0  0  0  0  0  0  0  0  0  0  0
   34.1430   32.1230   32.9510 C   0  0  0  0  0  0  0  0  0  0  0  0
   34.5950   31.3020   34.0090 C   0  0  0  0  0  0  0  0  0  0  0  0
   35.1710   30.0920   33.6950 N   0  0  0  0  0  0  0  0  0  0  0  0
   35.2930   29.7150   32.3970 C   0  0  0  0  0  0  0  0  0  0  0  0
   34.8730   30.4750   31.3830 N   0  0  0  0  0  0  0  0  0  0  0  0
   33.9300   32.3600   30.9160 H   0  0  0  0  0  0  0  0  0  0  0  0
   33.7180   33.0270   33.3050 H   0  0  0  0  0  0  0  0  0  0  0  0
   34.4750   31.6860   35.4150 C   0  0  0  0  0  0  0  0  0  0  0  0
   33.2670   32.0520   35.9800 C   0  0  0  0  0  0  0  0  0  0  0  0
   33.5110   32.3550   37.3260 C   0  0  0  0  0  0  0  0  0  0  0  0
   34.8430   32.1620   37.5170 N   0  0  0  0  0  0  0  0  0  0  0  0
   35.4070   31.7660   36.3730 N   0  0  0  0  0  0  0  0  0  0  0  0
   32.2660   32.1310   35.5830 H   0  0  0  0  0  0  0  0  0  0  0  0
   32.8000   32.6750   38.0680 H   0  0  0  0  0  0  0  0  0  0  0  0
   35.2870   32.3230   38.4480 H   0  0  0  0  0  0  0  0  0  0  0  0
   37.9590   25.3000   32.9570 C   0  0  0  0  0  2  0  0  0  0  0  0
   38.1770   24.7180   34.2640 C   0  0  0  0  0  0  0  0  0  0  0  0
   38.2080   25.2530   35.4810 C   0  0  0  0  0  0  0  0  0  0  0  0
   38.4470   24.5500   36.6940 N   0  0  0  0  0  0  0  0  0  0  0  0
   38.2940   24.3460   38.0820 C   0  0  1  0  0  0  0  0  0  0  0  0
   37.8210   25.0310   39.0280 O   0  0  0  0  0  1  0  0  0  0  0  0
   38.8900   23.0100   38.0920 C   0  0  0  0  0  3  0  0  0  0  0  0
   39.7190   22.8580   38.8140 H   0  0  0  0  0  0  0  0  0  0  0  0
   39.2900   23.3650   36.6980 C   0  0  2  0  0  0  0  0  0  0  0  0
   38.5010   22.2510   35.5050 S   0  0  0  0  0  0  0  0  0  0  0  0
   38.3770   23.2830   34.0610 C   0  0  0  0  0  3  0  0  0  0  0  0
   37.6550   22.8800   33.3050 H   0  0  0  0  0  0  0  0  0  0  0  0
   37.9900   26.6930   35.6060 C   0  0  0  0  0  2  0  0  0  0  0  0
   38.9390   27.4480   35.9620 O   0  0  0  0  0  0  0  0  0  0  0  0
   37.7800   28.0560   35.7230 O   0  0  0  0  0  0  0  0  0  0  0  0
   37.0920   28.5500   35.1260 H   0  0  0  0  0  0  0  0  0  0  0  0
  1  6  1  0  0  0  0
  2  3  1  0  0  0  0
  2  1  2  0  0  0  0
  3  4  2  0  0  0  0
  4  9  1  0  0  0  0
  4  5  1  0  0  0  0
  5 10  1  0  0  0  0
  6  5  2  0  0  0  0
  6 32  1  0  0  0  0
  7  2  1  0  0  0  0
  8  3  1  0  0  0  0
 11 15  1  0  0  0  0
 11 13  1  0  0  0  0
 11  1  1  0  0  0  0
 12 11  1  0  0  0  0
 14 20  1  0  0  0  0
 15 14  2  0  0  0  0
 16 17  1  0  0  0  0
 17 23  1  0  0  0  0
 17 18  2  0  0  0  0
 18 24  1  0  0  0  0
 19 18  1  0  0  0  0
 20 19  2  0  0  0  0
 21 16  2  0  0  0  0
 21 20  1  0  0  0  0
 22 16  1  0  0  0  0
 24 25  1  0  0  0  0
 24 28  2  0  0  0  0
 25 26  2  0  0  0  0
 26 27  1  0  0  0  0
 26 30  1  0  0  0  0
 27 31  1  0  0  0  0
 28 27  1  0  0  0  0
 29 25  1  0  0  0  0
 32 33  1  0  0  0  0
 33 34  2  0  0  0  0
 34 44  1  0  0  0  0
 34 35  1  0  0  0  0
 35 40  1  0  0  0  0
 35 36  1  0  0  0  0
 36 38  1  0  0  0  0
 36 37  1  1  0  0  0
 38 39  1  0  0  0  0
 40 41  1  6  0  0  0
 40 36  1  0  0  0  0
 40 38  1  0  0  0  0
 42 33  1  0  0  0  0
 42 41  1  0  0  0  0
 43 42  1  0  0  0  0
 44 45  1  0  0  0  0
 46 45  1  0  0  0  0
 47 46  1  0  0  0  0
M  END
>  <minimizedAffinity>
-6.59971523

$$$$

 OpenBabel03272509103D

 47 52  0  0  1  0  0  0  0  0999 V2000
   36.6830   26.2960   31.8520 C   0  0  0  0  0  0  0  0  0  0  0  0
   35.4900   26.0720   31.1670 C   0  0  0  0  0  0  0  0  0  0  0  0
   35.0120   24.7920   30.9260 C   0  0  0  0  0  0  0  0  0  0  0  0
   35.7280   23.6860   31.3730 C   0  0  0  0  0  0  0  0  0  0  0  0
   36.8950   23.9170   32.0430 C   0  0  0  0  0  0  0  0  0  0  0  0
   37.3810   25.1800   32.2890 C   0  0  0  0  0  0  0  0  0  0  0  0
   34.9690   26.9760   30.8390 H   0  0  0  0  0  0  0  0  0  0  0  0
   34.0800   24.7610   30.3870 H   0  0  0  0  0  0  0  0  0  0  0  0
   35.3200   22.7080   31.1650 H   0  0  0  0  0  0  0  0  0  0  0  0
   37.4300   23.0200   32.3770 H   0  0  0  0  0  0  0  0  0  0  0  0
   37.2050   27.6540   32.1260 C   0  0  0  0  0  0  0  0  0  0  0  0
   38.2750   27.6950   32.3660 H   0  0  0  0  0  0  0  0  0  0  0  0
   37.1060   28.2170   31.1500 H   0  0  0  0  0  0  0  0  0  0  0  0
   35.8660   29.6110   32.9280 C   0  0  0  0  0  3  0  0  0  0  0  0
   36.3790   28.4220   33.0880 C   0  0  0  0  0  3  0  0  0  0  0  0
   34.6870   31.7690   35.6260 C   0  0  0  0  0  0  0  0  0  0  0  0
   33.5090   31.1120   36.0250 C   0  0  0  0  0  0  0  0  0  0  0  0
   33.1470   29.9260   35.3450 C   0  0  0  0  0  0  0  0  0  0  0  0
   33.9640   29.4800   34.3320 N   0  0  0  0  0  0  0  0  0  0  0  0
   35.0850   30.1750   34.0090 C   0  0  0  0  0  0  0  0  0  0  0  0
   35.4450   31.2960   34.6380 N   0  0  0  0  0  0  0  0  0  0  0  0
   34.8610   32.6540   36.2110 H   0  0  0  0  0  0  0  0  0  0  0  0
   32.8120   31.3620   36.7830 H   0  0  0  0  0  0  0  0  0  0  0  0
   31.9460   29.1600   35.6760 C   0  0  0  0  0  0  0  0  0  0  0  0
   31.5570   28.9240   36.9820 C   0  0  0  0  0  0  0  0  0  0  0  0
   30.3780   28.1680   36.9370 C   0  0  0  0  0  0  0  0  0  0  0  0
   30.1050   27.9810   35.6180 N   0  0  0  0  0  0  0  0  0  0  0  0
   31.0450   28.5750   34.8770 N   0  0  0  0  0  0  0  0  0  0  0  0
   31.9810   29.2040   37.9360 H   0  0  0  0  0  0  0  0  0  0  0  0
   29.7970   27.8050   37.7670 H   0  0  0  0  0  0  0  0  0  0  0  0
   29.2670   27.4420   35.3080 H   0  0  0  0  0  0  0  0  0  0  0  0
   38.6100   25.2680   33.0500 C   0  0  0  0  0  2  0  0  0  0  0  0
   38.6970   24.7640   34.4040 C   0  0  0  0  0  0  0  0  0  0  0  0
   39.3170   23.7060   34.9190 C   0  0  0  0  0  0  0  0  0  0  0  0
   39.3080   23.3210   36.2890 N   0  0  0  0  0  0  0  0  0  0  0  0
   39.8810   22.7240   37.4330 C   0  0  1  0  0  0  0  0  0  0  0  0
   40.8850   21.9920   37.6360 O   0  0  0  0  0  1  0  0  0  0  0  0
   38.8900   23.2490   38.3720 C   0  0  0  0  0  3  0  0  0  0  0  0
   38.3940   22.4970   39.0200 H   0  0  0  0  0  0  0  0  0  0  0  0
   38.1590   23.6260   37.1270 C   0  0  2  0  0  0  0  0  0  0  0  0
   37.9860   25.4280   37.0080 S   0  0  0  0  0  0  0  0  0  0  0  0
   37.9300   25.6800   35.2480 C   0  0  0  0  0  3  0  0  0  0  0  0
   38.1210   26.7460   34.9600 H   0  0  0  0  0  0  0  0  0  0  0  0
   40.0730   22.8410   34.0150 C   0  0  0  0  0  2  0  0  0  0  0  0
   39.6880   21.6550   33.8050 O   0  0  0  0  0  0  0  0  0  0  0  0
   40.7900   22.0250   33.1570 O   0  0  0  0  0  0  0  0  0  0  0  0
   41.3110   22.4140   32.3500 H   0  0  0  0  0  0  0  0  0  0  0  0
  1 11  1  0  0  0  0
  1  6  1  0  0  0  0
  2  1  2  0  0  0  0
  3  2  1  0  0  0  0
  3  4  2  0  0  0  0
  4  5  1  0  0  0  0
  5  6  2  0  0  0  0
  5 10  1  0  0  0  0
  6 32  1  0  0  0  0
  7  2  1  0  0  0  0
  8  3  1  0  0  0  0
  9  4  1  0  0  0  0
 11 12  1  0  0  0  0
 11 15  1  0  0  0  0
 13 11  1  0  0  0  0
 14 15  2  0  0  0  0
 14 20  1  0  0  0  0
 16 17  1  0  0  0  0
 16 22  1  0  0  0  0
 17 23  1  0  0  0  0
 18 24  1  0  0  0  0
 18 17  2  0  0  0  0
 19 18  1  0  0  0  0
 20 19  2  0  0  0  0
 20 21  1  0  0  0  0
 21 16  2  0  0  0  0
 24 25  1  0  0  0  0
 25 29  1  0  0  0  0
 26 25  2  0  0  0  0
 26 30  1  0  0  0  0
 27 26  1  0  0  0  0
 28 27  1  0  0  0  0
 28 24  2  0  0  0  0
 31 27  1  0  0  0  0
 32 33  1  0  0  0  0
 33 34  2  0  0  0  0
 33 42  1  0  0  0  0
 34 35  1  0  0  0  0
 35 40  1  0  0  0  0
 35 36  1  0  0  0  0
 36 37  1  6  0  0  0
 36 38  1  0  0  0  0
 38 39  1  0  0  0  0
 40 41  1  1  0  0  0
 40 36  1  0  0  0  0
 40 38  1  0  0  0  0
 42 41  1  0  0  0  0
 43 42  1  0  0  0  0
 44 34  1  0  0  0  0
 45 44  1  0  0  0  0
 46 45  1  0  0  0  0
 47 46  1  0  0  0  0
M  END
>  <minimizedAffinity>
-6.47645569

$$$$

 OpenBabel03272509103D

 47 52  0  0  1  0  0  0  0  0999 V2000
   36.5990   28.7740   30.6350 C   0  0  0  0  0  0  0  0  0  0  0  0
   37.5700   29.3300   29.8040 C   0  0  0  0  0  0  0  0  0  0  0  0
   37.7140   30.7020   29.6600 C   0  0  0  0  0  0  0  0  0  0  0  0
   36.8740   31.5670   30.3550 C   0  0  0  0  0  0  0  0  0  0  0  0
   35.9270   31.0110   31.1660 C   0  0  0  0  0  0  0  0  0  0  0  0
   35.7730   29.6530   31.3190 C   0  0  0  0  0  0  0  0  0  0  0  0
   38.2020   28.6060   29.2820 H   0  0  0  0  0  0  0  0  0  0  0  0
   38.5020   30.9980   28.9880 H   0  0  0  0  0  0  0  0  0  0  0  0
   37.0200   32.6270   30.2140 H   0  0  0  0  0  0  0  0  0  0  0  0
   35.2840   31.7260   31.6950 H   0  0  0  0  0  0  0  0  0  0  0  0
   36.4370   27.3130   30.8090 C   0  0  0  0  0  0  0  0  0  0  0  0
   35.4270   26.9940   31.0960 H   0  0  0  0  0  0  0  0  0  0  0  0
   36.5990   26.8670   29.7820 H   0  0  0  0  0  0  0  0  0  0  0  0
   37.6100   26.7700   32.9530 C   0  0  0  0  0  3  0  0  0  0  0  0
   37.4870   26.6980   31.6550 C   0  0  0  0  0  3  0  0  0  0  0  0
   40.9410   25.4680   33.6840 C   0  0  0  0  0  0  0  0  0  0  0  0
   40.7130   24.7470   34.8690 C   0  0  0  0  0  0  0  0  0  0  0  0
   39.4010   24.7280   35.3930 C   0  0  0  0  0  0  0  0  0  0  0  0
   38.4180   25.4140   34.7170 N   0  0  0  0  0  0  0  0  0  0  0  0
   38.7220   26.0860   33.5780 C   0  0  0  0  0  0  0  0  0  0  0  0
   39.9540   26.1170   33.0650 N   0  0  0  0  0  0  0  0  0  0  0  0
   41.9710   25.4120   33.3800 H   0  0  0  0  0  0  0  0  0  0  0  0
   41.3870   24.1890   35.4670 H   0  0  0  0  0  0  0  0  0  0  0  0
   39.0490   24.0100   36.6190 C   0  0  0  0  0  0  0  0  0  0  0  0
   37.8840   24.2700   37.3170 C   0  0  0  0  0  0  0  0  0  0  0  0
   37.8630   23.4140   38.4270 C   0  0  0  0  0  0  0  0  0  0  0  0
   39.0050   22.6800   38.3530 N   0  0  0  0  0  0  0  0  0  0  0  0
   39.7030   23.0440   37.2740 N   0  0  0  0  0  0  0  0  0  0  0  0
   37.0700   24.9620   37.1550 H   0  0  0  0  0  0  0  0  0  0  0  0
   37.1050   23.3420   39.1880 H   0  0  0  0  0  0  0  0  0  0  0  0
   39.2330   21.9590   39.0720 H   0  0  0  0  0  0  0  0  0  0  0  0
   34.7530   29.2140   32.2480 C   0  0  0  0  0  2  0  0  0  0  0  0
   34.4870   29.9350   33.4750 C   0  0  0  0  0  0  0  0  0  0  0  0
   33.3530   30.3370   34.0400 C   0  0  0  0  0  0  0  0  0  0  0  0
   33.2410   31.0570   35.2620 N   0  0  0  0  0  0  0  0  0  0  0  0
   32.5750   31.4230   36.4510 C   0  0  1  0  0  0  0  0  0  0  0  0
   31.4120   31.2450   36.9010 O   0  0  0  0  0  1  0  0  0  0  0  0
   33.7190   32.1150   37.0430 C   0  0  0  0  0  3  0  0  0  0  0  0
   33.5320   33.1560   37.3790 H   0  0  0  0  0  0  0  0  0  0  0  0
   34.3010   31.9630   35.6770 C   0  0  2  0  0  0  0  0  0  0  0  0
   35.7850   30.9200   35.7270 S   0  0  0  0  0  0  0  0  0  0  0  0
   35.7830   30.1940   34.1030 C   0  0  0  0  0  3  0  0  0  0  0  0
   36.4500   29.2970   34.0330 H   0  0  0  0  0  0  0  0  0  0  0  0
   32.0960   30.0330   33.3570 C   0  0  0  0  0  2  0  0  0  0  0  0
   31.2980   29.1860   33.8500 O   0  0  0  0  0  0  0  0  0  0  0  0
   30.9070   29.7480   32.7100 O   0  0  0  0  0  0  0  0  0  0  0  0
   30.4150   30.4630   32.1430 H   0  0  0  0  0  0  0  0  0  0  0  0
  1 11  1  0  0  0  0
  1  6  1  0  0  0  0
  2  1  2  0  0  0  0
  3  2  1  0  0  0  0
  3  4  2  0  0  0  0
  4  5  1  0  0  0  0
  5  6  2  0  0  0  0
  5 10  1  0  0  0  0
  6 32  1  0  0  0  0
  7  2  1  0  0  0  0
  8  3  1  0  0  0  0
  9  4  1  0  0  0  0
 11 12  1  0  0  0  0
 11 15  1  0  0  0  0
 13 11  1  0  0  0  0
 14 20  1  0  0  0  0
 15 14  2  0  0  0  0
 16 17  1  0  0  0  0
 17 18  2  0  0  0  0
 17 23  1  0  0  0  0
 18 24  1  0  0  0  0
 19 18  1  0  0  0  0
 20 19  2  0  0  0  0
 21 20  1  0  0  0  0
 21 16  2  0  0  0  0
 22 16  1  0  0  0  0
 24 28  2  0  0  0  0
 24 25  1  0  0  0  0
 25 26  2  0  0  0  0
 26 30  1  0  0  0  0
 27 26  1  0  0  0  0
 27 31  1  0  0  0  0
 28 27  1  0  0  0  0
 29 25  1  0  0  0  0
 32 33  1  0  0  0  0
 33 34  2  0  0  0  0
 33 42  1  0  0  0  0
 34 35  1  0  0  0  0
 35 40  1  0  0  0  0
 35 36  1  0  0  0  0
 36 37  1  6  0  0  0
 36 38  1  0  0  0  0
 38 39  1  0  0  0  0
 40 41  1  1  0  0  0
 40 36  1  0  0  0  0
 40 38  1  0  0  0  0
 42 41  1  0  0  0  0
 43 42  1  0  0  0  0
 44 45  1  0  0  0  0
 44 34  1  0  0  0  0
 46 45  1  0  0  0  0
 47 46  1  0  0  0  0
M  END
>  <minimizedAffinity>
-6.45194292

$$$$

 OpenBabel03272509103D

 47 52  0  0  1  0  0  0  0  0999 V2000
   38.7630   25.2320   35.8770 C   0  0  0  0  0  0  0  0  0  0  0  0
   37.7970   24.7660   36.7680 C   0  0  0  0  0  0  0  0  0  0  0  0
   37.4690   23.4210   36.8570 C   0  0  0  0  0  0  0  0  0  0  0  0
   38.1100   22.4930   36.0430 C   0  0  0  0  0  0  0  0  0  0  0  0
   39.0550   22.9600   35.1750 C   0  0  0  0  0  0  0  0  0  0  0  0
   39.3900   24.2900   35.0750 C   0  0  0  0  0  0  0  0  0  0  0  0
   37.3240   25.5380   37.3820 H   0  0  0  0  0  0  0  0  0  0  0  0
   36.7070   23.1980   37.5850 H   0  0  0  0  0  0  0  0  0  0  0  0
   37.8260   21.4570   36.1450 H   0  0  0  0  0  0  0  0  0  0  0  0
   39.5360   22.1970   34.5500 H   0  0  0  0  0  0  0  0  0  0  0  0
   39.1320   26.6610   35.7730 C   0  0  0  0  0  0  0  0  0  0  0  0
   39.6020   27.0800   36.6720 H   0  0  0  0  0  0  0  0  0  0  0  0
   39.9350   26.7090   34.9780 H   0  0  0  0  0  0  0  0  0  0  0  0
   37.3570   27.3620   34.1520 C   0  0  0  0  0  3  0  0  0  0  0  0
   38.0380   27.5180   35.2550 C   0  0  0  0  0  3  0  0  0  0  0  0
   34.7880   29.2840   32.4110 C   0  0  0  0  0  0  0  0  0  0  0  0
   34.3950   30.2000   33.4020 C   0  0  0  0  0  0  0  0  0  0  0  0
   35.0320   30.1320   34.6620 C   0  0  0  0  0  0  0  0  0  0  0  0
   36.0020   29.1740   34.8500 N   0  0  0  0  0  0  0  0  0  0  0  0
   36.3240   28.3260   33.8400 C   0  0  0  0  0  0  0  0  0  0  0  0
   35.7350   28.3740   32.6430 N   0  0  0  0  0  0  0  0  0  0  0  0
   34.2390   29.4290   31.4990 H   0  0  0  0  0  0  0  0  0  0  0  0
   33.6680   30.9710   33.3680 H   0  0  0  0  0  0  0  0  0  0  0  0
   34.7040   31.0340   35.7650 C   0  0  0  0  0  0  0  0  0  0  0  0
   33.4060   31.2200   36.2050 C   0  0  0  0  0  0  0  0  0  0  0  0
   33.4510   32.1380   37.2620 C   0  0  0  0  0  0  0  0  0  0  0  0
   34.7610   32.4670   37.4150 N   0  0  0  0  0  0  0  0  0  0  0  0
   35.4970   31.8040   36.5190 N   0  0  0  0  0  0  0  0  0  0  0  0
   32.4580   30.8060   35.8900 H   0  0  0  0  0  0  0  0  0  0  0  0
   32.6260   32.5150   37.8420 H   0  0  0  0  0  0  0  0  0  0  0  0
   35.0690   33.1440   38.1470 H   0  0  0  0  0  0  0  0  0  0  0  0
   40.4420   24.6280   34.1390 C   0  0  0  0  0  2  0  0  0  0  0  0
   40.1730   25.4140   32.9540 C   0  0  0  0  0  0  0  0  0  0  0  0
   40.7210   26.5320   32.4880 C   0  0  0  0  0  0  0  0  0  0  0  0
   40.3440   27.2100   31.2950 N   0  0  0  0  0  0  0  0  0  0  0  0
   40.6090   28.0200   30.1700 C   0  0  1  0  0  0  0  0  0  0  0  0
   41.5790   28.7370   29.8080 O   0  0  0  0  0  1  0  0  0  0  0  0
   39.3330   27.7560   29.5060 C   0  0  0  0  0  3  0  0  0  0  0  0
   38.7500   28.6520   29.2100 H   0  0  0  0  0  0  0  0  0  0  0  0
   38.9710   27.1440   30.8190 C   0  0  2  0  0  0  0  0  0  0  0  0
   38.6490   25.3700   30.6290 S   0  0  0  0  0  0  0  0  0  0  0  0
   39.0950   24.7380   32.2320 C   0  0  0  0  0  3  0  0  0  0  0  0
   39.2470   23.6290   32.2300 H   0  0  0  0  0  0  0  0  0  0  0  0
   41.8020   27.1450   33.2590 C   0  0  0  0  0  2  0  0  0  0  0  0
   42.9740   27.1810   32.7870 O   0  0  0  0  0  0  0  0  0  0  0  0
   42.8220   27.7260   33.9910 O   0  0  0  0  0  0  0  0  0  0  0  0
   42.6400   28.5110   34.6430 H   0  0  0  0  0  0  0  0  0  0  0  0
  1  2  1  0  0  0  0
  2  3  2  0  0  0  0
  2  7  1  0  0  0  0
  3  8  1  0  0  0  0
  4  9  1  0  0  0  0
  4  3  1  0  0  0  0
  5  4  2  0  0  0  0
  6  5  1  0  0  0  0
  6  1  2  0  0  0  0
 10  5  1  0  0  0  0
 11  1  1  0  0  0  0
 11 12  1  0  0  0  0
 13 11  1  0  0  0  0
 14 15  2  0  0  0  0
 15 11  1  0  0  0  0
 16 21  2  0  0  0  0
 16 17  1  0  0  0  0
 17 18  2  0  0  0  0
 18 19  1  0  0  0  0
 18 24  1  0  0  0  0
 20 14  1  0  0  0  0
 20 19  2  0  0  0  0
 21 20  1  0  0  0  0
 22 16  1  0  0  0  0
 23 17  1  0  0  0  0
 24 25  1  0  0  0  0
 24 28  2  0  0  0  0
 25 26  2  0  0  0  0
 26 27  1  0  0  0  0
 26 30  1  0  0  0  0
 27 31  1  0  0  0  0
 28 27  1  0  0  0  0
 29 25  1  0  0  0  0
 32  6  1  0  0  0  0
 33 32  1  0  0  0  0
 34 33  2  0  0  0  0
 34 44  1  0  0  0  0
 35 34  1  0  0  0  0
 36 37  1  1  0  0  0
 36 40  1  0  0  0  0
 36 35  1  0  0  0  0
 38 36  1  0  0  0  0
 39 38  1  0  0  0  0
 40 38  1  1  0  0  0
 40 35  1  0  0  0  0
 41 40  1  0  0  0  0
 41 42  1  0  0  0  0
 42 33  1  0  0  0  0
 43 42  1  0  0  0  0
 45 44  1  0  0  0  0
 45 46  1  0  0  0  0
 46 47  1  0  0  0  0
M  END
>  <minimizedAffinity>
-6.41783667

$$$$

 OpenBabel03272509103D

 47 52  0  0  1  0  0  0  0  0999 V2000
   37.4080   25.9740   32.3450 C   0  0  0  0  0  0  0  0  0  0  0  0
   36.7870   25.5410   31.1740 C   0  0  0  0  0  0  0  0  0  0  0  0
   36.6210   24.1930   30.8880 C   0  0  0  0  0  0  0  0  0  0  0  0
   37.0810   23.2300   31.7800 C   0  0  0  0  0  0  0  0  0  0  0  0
   37.6880   23.6660   32.9230 C   0  0  0  0  0  0  0  0  0  0  0  0
   37.8590   24.9990   33.2210 C   0  0  0  0  0  0  0  0  0  0  0  0
   36.4450   26.3380   30.5090 H   0  0  0  0  0  0  0  0  0  0  0  0
   36.1260   23.9960   29.9520 H   0  0  0  0  0  0  0  0  0  0  0  0
   36.9320   22.1940   31.5200 H   0  0  0  0  0  0  0  0  0  0  0  0
   38.0380   22.8770   33.6000 H   0  0  0  0  0  0  0  0  0  0  0  0
   37.5860   27.4070   32.6710 C   0  0  0  0  0  0  0  0  0  0  0  0
   38.4380   27.6260   33.3270 H   0  0  0  0  0  0  0  0  0  0  0  0
   37.8380   27.9110   31.6910 H   0  0  0  0  0  0  0  0  0  0  0  0
   35.4480   28.6790   32.3910 C   0  0  0  0  0  3  0  0  0  0  0  0
   36.3380   28.0690   33.1240 C   0  0  0  0  0  3  0  0  0  0  0  0
   32.0230   29.5700   33.2880 C   0  0  0  0  0  0  0  0  0  0  0  0
   32.2280   30.4250   34.3860 C   0  0  0  0  0  0  0  0  0  0  0  0
   33.5580   30.6760   34.7940 C   0  0  0  0  0  0  0  0  0  0  0  0
   34.5790   30.0710   34.0970 N   0  0  0  0  0  0  0  0  0  0  0  0
   34.2950   29.2590   33.0480 C   0  0  0  0  0  0  0  0  0  0  0  0
   33.0470   29.0090   32.6450 N   0  0  0  0  0  0  0  0  0  0  0  0
   30.9780   29.4550   33.0690 H   0  0  0  0  0  0  0  0  0  0  0  0
   31.5250   30.9390   34.9900 H   0  0  0  0  0  0  0  0  0  0  0  0
   33.8890   31.5470   35.9220 C   0  0  0  0  0  0  0  0  0  0  0  0
   32.9610   32.4000   36.4920 C   0  0  0  0  0  0  0  0  0  0  0  0
   33.6050   33.0800   37.5340 C   0  0  0  0  0  0  0  0  0  0  0  0
   34.8820   32.6140   37.5510 N   0  0  0  0  0  0  0  0  0  0  0  0
   35.0400   31.7040   36.5870 N   0  0  0  0  0  0  0  0  0  0  0  0
   31.9210   32.6010   36.2780 H   0  0  0  0  0  0  0  0  0  0  0  0
   33.1870   33.8200   38.1950 H   0  0  0  0  0  0  0  0  0  0  0  0
   35.5790   32.9650   38.2440 H   0  0  0  0  0  0  0  0  0  0  0  0
   38.4810   25.3070   34.4910 C   0  0  0  0  0  2  0  0  0  0  0  0
   39.7020   24.6530   34.9130 C   0  0  0  0  0  0  0  0  0  0  0  0
   39.9310   23.6900   35.8010 C   0  0  0  0  0  0  0  0  0  0  0  0
   41.2030   23.1430   36.1250 N   0  0  0  0  0  0  0  0  0  0  0  0
   42.0540   22.0980   36.5460 C   0  0  1  0  0  0  0  0  0  0  0  0
   41.8690   20.9590   37.0510 O   0  0  0  0  0  1  0  0  0  0  0  0
   43.2980   22.7840   36.1970 C   0  0  0  0  0  3  0  0  0  0  0  0
   44.0510   22.8580   37.0080 H   0  0  0  0  0  0  0  0  0  0  0  0
   42.3990   23.9640   36.0270 C   0  0  2  0  0  0  0  0  0  0  0  0
   42.4110   24.5310   34.3040 S   0  0  0  0  0  0  0  0  0  0  0  0
   40.7910   25.2480   34.1390 C   0  0  0  0  0  3  0  0  0  0  0  0
   40.4920   25.3920   33.0690 H   0  0  0  0  0  0  0  0  0  0  0  0
   38.7900   23.1370   36.5290 C   0  0  0  0  0  2  0  0  0  0  0  0
   38.1910   22.1170   36.0850 O   0  0  0  0  0  0  0  0  0  0  0  0
   37.7110   22.6150   37.2210 O   0  0  0  0  0  0  0  0  0  0  0  0
   37.6450   22.6880   38.2530 H   0  0  0  0  0  0  0  0  0  0  0  0
  1 11  1  0  0  0  0
  1  6  1  0  0  0  0
  2  1  2  0  0  0  0
  3  2  1  0  0  0  0
  3  4  2  0  0  0  0
  4  5  1  0  0  0  0
  5  6  2  0  0  0  0
  5 10  1  0  0  0  0
  6 32  1  0  0  0  0
  7  2  1  0  0  0  0
  8  3  1  0  0  0  0
  9  4  1  0  0  0  0
 11 15  1  0  0  0  0
 11 12  1  0  0  0  0
 13 11  1  0  0  0  0
 14 20  1  0  0  0  0
 14 15  2  0  0  0  0
 16 17  1  0  0  0  0
 17 18  2  0  0  0  0
 17 23  1  0  0  0  0
 18 24  1  0  0  0  0
 19 18  1  0  0  0  0
 20 19  2  0  0  0  0
 21 20  1  0  0  0  0
 21 16  2  0  0  0  0
 22 16  1  0  0  0  0
 24 25  1  0  0  0  0
 24 28  2  0  0  0  0
 25 26  2  0  0  0  0
 26 27  1  0  0  0  0
 26 30  1  0  0  0  0
 27 31  1  0  0  0  0
 28 27  1  0  0  0  0
 29 25  1  0  0  0  0
 32 33  1  0  0  0  0
 33 34  2  0  0  0  0
 34 35  1  0  0  0  0
 34 44  1  0  0  0  0
 35 36  1  0  0  0  0
 36 37  1  1  0  0  0
 38 36  1  0  0  0  0
 38 39  1  0  0  0  0
 40 41  1  6  0  0  0
 40 35  1  0  0  0  0
 40 38  1  0  0  0  0
 40 36  1  0  0  0  0
 42 41  1  0  0  0  0
 42 33  1  0  0  0  0
 43 42  1  0  0  0  0
 45 44  1  0  0  0  0
 45 46  1  0  0  0  0
 46 47  1  0  0  0  0
M  END
>  <minimizedAffinity>
-6.41601038

$$$$

 OpenBabel03272509103D

 47 52  0  0  1  0  0  0  0  0999 V2000
   36.8260   26.2340   32.1830 C   0  0  0  0  0  0  0  0  0  0  0  0
   35.9880   25.6580   31.2300 C   0  0  0  0  0  0  0  0  0  0  0  0
   35.8690   24.2820   31.0940 C   0  0  0  0  0  0  0  0  0  0  0  0
   36.5990   23.4350   31.9220 C   0  0  0  0  0  0  0  0  0  0  0  0
   37.4160   24.0110   32.8520 C   0  0  0  0  0  0  0  0  0  0  0  0
   37.5440   25.3730   32.9980 C   0  0  0  0  0  0  0  0  0  0  0  0
   35.4390   26.3680   30.6060 H   0  0  0  0  0  0  0  0  0  0  0  0
   35.1880   23.9700   30.3200 H   0  0  0  0  0  0  0  0  0  0  0  0
   36.4770   22.3720   31.7830 H   0  0  0  0  0  0  0  0  0  0  0  0
   37.9760   23.3100   33.4840 H   0  0  0  0  0  0  0  0  0  0  0  0
   36.9590   27.6990   32.3480 C   0  0  0  0  0  0  0  0  0  0  0  0
   37.7760   28.0140   33.0080 H   0  0  0  0  0  0  0  0  0  0  0  0
   37.2440   28.0940   31.3260 H   0  0  0  0  0  0  0  0  0  0  0  0
   35.1670   29.4290   32.0900 C   0  0  0  0  0  3  0  0  0  0  0  0
   35.6790   28.3770   32.6680 C   0  0  0  0  0  3  0  0  0  0  0  0
   31.9320   31.1080   32.3020 C   0  0  0  0  0  0  0  0  0  0  0  0
   31.5260   30.7840   33.6080 C   0  0  0  0  0  0  0  0  0  0  0  0
   32.3880   29.9850   34.3940 C   0  0  0  0  0  0  0  0  0  0  0  0
   33.5760   29.5670   33.8380 N   0  0  0  0  0  0  0  0  0  0  0  0
   33.8930   29.9240   32.5680 C   0  0  0  0  0  0  0  0  0  0  0  0
   33.0940   30.6790   31.8090 N   0  0  0  0  0  0  0  0  0  0  0  0
   31.2020   31.7170   31.8020 H   0  0  0  0  0  0  0  0  0  0  0  0
   30.6440   31.0470   34.1330 H   0  0  0  0  0  0  0  0  0  0  0  0
   32.0690   29.5880   35.7650 C   0  0  0  0  0  0  0  0  0  0  0  0
   31.5270   28.3520   36.0680 C   0  0  0  0  0  0  0  0  0  0  0  0
   31.3490   28.3040   37.4570 C   0  0  0  0  0  0  0  0  0  0  0  0
   31.7860   29.5010   37.9310 N   0  0  0  0  0  0  0  0  0  0  0  0
   32.2110   30.2570   36.9150 N   0  0  0  0  0  0  0  0  0  0  0  0
   31.2490   27.5040   35.4590 H   0  0  0  0  0  0  0  0  0  0  0  0
   30.9500   27.4930   38.0420 H   0  0  0  0  0  0  0  0  0  0  0  0
   31.7600   29.7230   38.9500 H   0  0  0  0  0  0  0  0  0  0  0  0
   38.4170   25.8350   34.0570 C   0  0  0  0  0  2  0  0  0  0  0  0
   39.5100   25.0210   34.5440 C   0  0  0  0  0  0  0  0  0  0  0  0
   39.6360   24.2590   35.6260 C   0  0  0  0  0  0  0  0  0  0  0  0
   40.7900   23.5110   35.9880 N   0  0  0  0  0  0  0  0  0  0  0  0
   41.4410   22.4170   36.5980 C   0  0  1  0  0  0  0  0  0  0  0  0
   41.0800   21.5020   37.3840 O   0  0  0  0  0  1  0  0  0  0  0  0
   42.7500   22.6870   36.0030 C   0  0  0  0  0  3  0  0  0  0  0  0
   43.5970   22.7610   36.7150 H   0  0  0  0  0  0  0  0  0  0  0  0
   42.1140   23.9770   35.6050 C   0  0  2  0  0  0  0  0  0  0  0  0
   42.0310   24.1180   33.7980 S   0  0  0  0  0  0  0  0  0  0  0  0
   40.5960   25.1450   33.5720 C   0  0  0  0  0  3  0  0  0  0  0  0
   40.2030   25.1090   32.5230 H   0  0  0  0  0  0  0  0  0  0  0  0
   38.5030   24.1770   36.5470 C   0  0  0  0  0  2  0  0  0  0  0  0
   37.7420   23.1680   36.5250 O   0  0  0  0  0  0  0  0  0  0  0  0
   37.4330   24.1010   37.4210 O   0  0  0  0  0  0  0  0  0  0  0  0
   37.4680   24.5420   38.3580 H   0  0  0  0  0  0  0  0  0  0  0  0
  1 11  1  0  0  0  0
  1  6  1  0  0  0  0
  2  1  2  0  0  0  0
  3  2  1  0  0  0  0
  3  4  2  0  0  0  0
  4  5  1  0  0  0  0
  5  6  2  0  0  0  0
  5 10  1  0  0  0  0
  6 32  1  0  0  0  0
  7  2  1  0  0  0  0
  8  3  1  0  0  0  0
  9  4  1  0  0  0  0
 11 15  1  0  0  0  0
 11 12  1  0  0  0  0
 13 11  1  0  0  0  0
 14 20  1  0  0  0  0
 14 15  2  0  0  0  0
 16 17  1  0  0  0  0
 17 23  1  0  0  0  0
 17 18  2  0  0  0  0
 18 24  1  0  0  0  0
 19 18  1  0  0  0  0
 20 19  2  0  0  0  0
 21 16  2  0  0  0  0
 21 20  1  0  0  0  0
 22 16  1  0  0  0  0
 24 25  1  0  0  0  0
 24 28  2  0  0  0  0
 25 26  2  0  0  0  0
 26 27  1  0  0  0  0
 26 30  1  0  0  0  0
 27 31  1  0  0  0  0
 28 27  1  0  0  0  0
 29 25  1  0  0  0  0
 32 33  1  0  0  0  0
 33 34  2  0  0  0  0
 34 35  1  0  0  0  0
 34 44  1  0  0  0  0
 35 36  1  0  0  0  0
 36 37  1  1  0  0  0
 38 36  1  0  0  0  0
 38 39  1  0  0  0  0
 40 41  1  6  0  0  0
 40 35  1  0  0  0  0
 40 38  1  0  0  0  0
 40 36  1  0  0  0  0
 42 41  1  0  0  0  0
 42 33  1  0  0  0  0
 43 42  1  0  0  0  0
 45 44  1  0  0  0  0
 45 46  1  0  0  0  0
 46 47  1  0  0  0  0
M  END
>  <minimizedAffinity>
-6.2898016

$$$$
