
 OpenBabel03272507413D

 48 52  0  0  1  0  0  0  0  0999 V2000
   36.4530   30.5400   49.2150 C   0  0  0  0  0  0  0  0  0  0  0  0
   35.2610   29.9090   49.5530 C   0  0  0  0  0  0  0  0  0  0  0  0
   35.1030   29.3050   50.7870 C   0  0  0  0  0  0  0  0  0  0  0  0
   36.1490   29.3490   51.6550 N   0  0  0  0  0  0  0  0  0  0  0  0
   37.3150   29.9760   51.3000 C   0  0  0  0  0  0  0  0  0  0  0  0
   37.4360   30.5440   50.1140 N   0  0  0  0  0  0  0  0  0  0  0  0
   34.2160   28.7950   51.1340 H   0  0  0  0  0  0  0  0  0  0  0  0
   38.1430   30.0020   52.0040 H   0  0  0  0  0  0  0  0  0  0  0  0
   33.7510   28.5580   48.1550 C   0  0  0  0  0  0  0  0  0  0  0  0
   34.3580   27.4200   48.0940 O   0  0  0  0  0  0  0  0  0  0  0  0
   34.1200   29.7860   48.7540 N   0  0  0  0  0  0  0  0  0  0  0  0
   33.6150   30.6860   48.6750 H   0  0  0  0  0  0  0  0  0  0  0  0
   29.6940   27.7970   44.7760 C   0  0  0  0  0  0  0  0  0  0  0  0
   30.7090   28.6270   44.6250 C   0  0  0  0  0  0  0  0  0  0  0  0
   31.6710   28.7970   45.6260 N   0  0  0  0  0  0  0  0  0  0  0  0
   32.4860   29.6590   46.4500 C   0  0  0  0  0  0  0  0  0  0  0  0
   32.9500   30.8130   46.2490 O   0  0  0  0  0  0  0  0  0  0  0  0
   32.4310   28.5390   47.4630 C   0  0  1  0  0  3  0  0  0  0  0  0
   32.2680   27.6270   46.2980 C   0  0  1  0  0  3  0  0  0  0  0  0
   31.0240   26.3610   46.6070 S   0  0  0  0  0  0  0  0  0  0  0  0
   29.4510   26.9830   45.9870 C   0  0  0  0  0  3  0  0  0  0  0  0
   28.9580   27.6680   46.7200 H   0  0  0  0  0  0  0  0  0  0  0  0
   28.7570   27.7090   43.6490 C   0  0  0  0  0  2  0  0  0  0  0  0
   28.1030   28.6060   43.7080 H   0  0  0  0  0  0  0  0  0  0  0  0
   30.8180   29.3760   43.3800 C   0  0  0  0  0  0  0  0  0  0  0  0
   31.6970   30.2190   43.0900 O   0  0  0  0  0  0  0  0  0  0  0  0
   30.6570   29.9210   42.1220 O   0  0  0  0  0  0  0  0  0  0  0  0
   29.8170   29.7500   41.5570 H   0  0  0  0  0  0  0  0  0  0  0  0
   36.4160   31.0690   47.9710 O   0  0  0  0  0  0  0  0  0  0  0  0
   37.8530   31.4470   45.9900 C   0  0  0  0  0  0  0  0  0  0  0  0
   37.5110   31.6170   47.3150 C   0  0  0  0  0  0  0  0  0  0  0  0
   38.2940   32.4050   48.1440 C   0  0  0  0  0  0  0  0  0  0  0  0
   39.4310   33.0210   47.6220 C   0  0  0  0  0  0  0  0  0  0  0  0
   39.7650   32.8460   46.2970 C   0  0  0  0  0  0  0  0  0  0  0  0
   38.9620   32.0570   45.5110 C   0  0  0  0  0  0  0  0  0  0  0  0
   38.0900   32.5840   49.1910 H   0  0  0  0  0  0  0  0  0  0  0  0
   40.0430   33.6360   48.2680 H   0  0  0  0  0  0  0  0  0  0  0  0
   40.6430   33.3130   45.8630 H   0  0  0  0  0  0  0  0  0  0  0  0
   39.3310   31.8750   44.0860 C   0  0  0  0  0  0  0  0  0  0  0  0
   40.1930   30.9810   43.5150 C   0  0  0  0  0  0  0  0  0  0  0  0
   40.1970   31.2100   42.1410 C   0  0  0  0  0  0  0  0  0  0  0  0
   39.3170   32.2530   41.9630 C   0  0  0  0  0  0  0  0  0  0  0  0
   38.8120   32.6350   43.1260 O   0  0  0  0  0  0  0  0  0  0  0  0
   40.7290   30.2600   44.1190 H   0  0  0  0  0  0  0  0  0  0  0  0
   40.8020   30.6290   41.4710 H   0  0  0  0  0  0  0  0  0  0  0  0
   39.0930   32.6760   40.9900 H   0  0  0  0  0  0  0  0  0  0  0  0
   36.2920   29.9700   44.5690 N   0  0  0  0  0  0  0  0  0  0  0  0
   36.9900   30.6210   45.2100 C   0  0  0  0  0  0  0  0  0  0  0  0
  1  2  2  0  0  0  0
  1  6  1  0  0  0  0
  2  3  1  0  0  0  0
  3  7  1  0  0  0  0
  3  4  2  0  0  0  0
  5  4  1  0  0  0  0
  5  8  1  0  0  0  0
  6  5  2  0  0  0  0
  9 11  1  0  0  0  0
 10  9  2  0  0  0  0
 11  2  1  0  0  0  0
 12 11  1  0  0  0  0
 13 21  1  0  0  0  0
 14 13  2  0  0  0  0
 14 15  1  0  0  0  0
 15 19  1  0  0  0  0
 15 16  1  0  0  0  0
 16 18  1  0  0  0  0
 17 16  2  0  0  0  0
 18  9  1  6  0  0  0
 19 20  1  1  0  0  0
 19 18  1  0  0  0  0
 21 20  1  0  0  0  0
 21 22  1  0  0  0  0
 23 24  1  0  0  0  0
 23 13  1  0  0  0  0
 25 14  1  0  0  0  0
 26 25  2  0  0  0  0
 27 25  1  0  0  0  0
 28 27  1  0  0  0  0
 29  1  1  0  0  0  0
 30 31  1  0  0  0  0
 31 29  1  0  0  0  0
 31 32  2  0  0  0  0
 32 36  1  0  0  0  0
 33 32  1  0  0  0  0
 33 37  1  0  0  0  0
 34 33  2  0  0  0  0
 35 30  2  0  0  0  0
 35 34  1  0  0  0  0
 38 34  1  0  0  0  0
 39 35  1  0  0  0  0
 40 39  2  0  0  0  0
 40 44  1  0  0  0  0
 41 40  1  0  0  0  0
 42 41  2  0  0  0  0
 42 43  1  0  0  0  0
 43 39  1  0  0  0  0
 45 41  1  0  0  0  0
 46 42  1  0  0  0  0
 47 48  3  0  0  0  0
 48 30  1  0  0  0  0
M  END
>  <minimizedAffinity>
-6.22253656

>  <minimizedRMSD>
2.64765334

$$$$
