
 OpenBabel03262523553D

 41 44  0  0  1  0  0  0  0  0999 V2000
   33.7960   31.0650   35.2710 C   0  0  1  0  0  0  0  0  0  0  0  0
   33.9990   31.2730   36.7090 C   0  0  0  0  0  0  0  0  0  0  0  0
   34.7340   32.5740   36.8990 C   0  0  0  0  0  0  0  0  0  0  0  0
   35.7820   32.7730   35.8770 C   0  0  0  0  0  0  0  0  0  0  0  0
   36.2530   31.5410   35.1550 C   0  0  0  0  0  0  0  0  0  0  0  0
   35.1360   30.6540   34.6600 C   0  0  1  0  0  0  0  0  0  0  0  0
   33.5490   32.0390   34.7640 H   0  0  0  0  0  0  0  0  0  0  0  0
   34.5060   30.4470   37.2280 H   0  0  0  0  0  0  0  0  0  0  0  0
   32.9770   31.3770   37.1820 H   0  0  0  0  0  0  0  0  0  0  0  0
   35.1240   32.6270   37.9570 H   0  0  0  0  0  0  0  0  0  0  0  0
   33.9570   33.3910   36.8490 H   0  0  0  0  0  0  0  0  0  0  0  0
   36.6870   33.2010   36.3710 H   0  0  0  0  0  0  0  0  0  0  0  0
   35.4960   33.5170   35.1020 H   0  0  0  0  0  0  0  0  0  0  0  0
   36.9160   31.9080   34.3360 H   0  0  0  0  0  0  0  0  0  0  0  0
   36.9400   31.0210   35.8570 H   0  0  0  0  0  0  0  0  0  0  0  0
   35.0630   30.8840   33.5750 H   0  0  0  0  0  0  0  0  0  0  0  0
   31.2140   28.3910   35.4270 C   0  0  0  0  0  0  0  0  0  0  0  0
   32.1510   29.3530   35.8580 C   0  0  0  0  0  0  0  0  0  0  0  0
   32.8060   30.0670   34.8630 C   0  0  0  0  0  0  0  0  0  0  0  0
   32.5260   29.8180   33.5400 N   0  0  0  0  0  0  0  0  0  0  0  0
   31.6220   28.8890   33.1720 C   0  0  0  0  0  0  0  0  0  0  0  0
   30.9630   28.1730   34.1230 N   0  0  0  0  0  0  0  0  0  0  0  0
   30.6650   27.7990   36.1470 H   0  0  0  0  0  0  0  0  0  0  0  0
   32.2590   29.4270   36.9040 H   0  0  0  0  0  0  0  0  0  0  0  0
   31.3830   28.6730   32.1430 H   0  0  0  0  0  0  0  0  0  0  0  0
   35.5210   29.2330   34.9610 C   0  0  0  0  0  2  0  0  0  0  0  0
   36.3140   28.6990   33.8510 C   0  0  0  0  0  0  0  0  0  0  0  0
   37.3050   27.8370   34.0080 C   0  0  0  0  0  0  0  0  0  0  0  0
   37.9890   27.3880   32.8460 N   0  0  0  0  0  0  0  0  0  0  0  0
   39.2160   27.1160   32.1360 C   0  0  0  0  0  0  0  0  0  0  0  0
   40.3380   26.6870   32.5450 O   0  0  0  0  0  0  0  0  0  0  0  0
   38.4680   27.5620   30.9100 C   0  0  0  0  0  3  0  0  0  0  0  0
   38.7450   27.0460   29.9770 H   0  0  0  0  0  0  0  0  0  0  0  0
   37.3100   26.9270   31.6440 C   0  0  2  0  0  3  0  0  0  0  0  0
   35.7860   27.8590   31.3640 S   0  0  0  0  0  0  0  0  0  0  0  0
   35.8810   29.2490   32.5630 C   0  0  0  0  0  3  0  0  0  0  0  0
   34.8820   29.6650   32.5740 H   0  0  0  0  0  0  0  0  0  0  0  0
   37.7440   27.3020   35.3170 C   0  0  0  0  0  0  0  0  0  0  0  0
   37.6010   26.2460   35.9790 O   0  0  0  0  0  0  0  0  0  0  0  0
   38.5210   27.9360   36.2320 O   0  0  0  0  0  0  0  0  0  0  0  0
   38.2660   28.1670   37.1830 H   0  0  0  0  0  0  0  0  0  0  0  0
  1  7  1  6  0  0  0
  1  2  1  0  0  0  0
  2  3  1  0  0  0  0
  2  9  1  0  0  0  0
  2  8  1  0  0  0  0
  3 10  1  0  0  0  0
  4 12  1  0  0  0  0
  4  3  1  0  0  0  0
  5 15  1  0  0  0  0
  5  4  1  0  0  0  0
  6 16  1  6  0  0  0
  6 26  1  0  0  0  0
  6  5  1  0  0  0  0
  6  1  1  0  0  0  0
 11  3  1  0  0  0  0
 13  4  1  0  0  0  0
 14  5  1  0  0  0  0
 17 18  1  0  0  0  0
 17 23  1  0  0  0  0
 18 24  1  0  0  0  0
 19  1  1  0  0  0  0
 19 18  2  0  0  0  0
 20 19  1  0  0  0  0
 21 20  2  0  0  0  0
 21 22  1  0  0  0  0
 22 17  2  0  0  0  0
 25 21  1  0  0  0  0
 27 28  2  0  0  0  0
 27 26  1  0  0  0  0
 28 38  1  0  0  0  0
 29 28  1  0  0  0  0
 30 31  2  0  0  0  0
 30 29  1  0  0  0  0
 32 30  1  0  0  0  0
 33 32  1  0  0  0  0
 34 32  1  6  0  0  0
 34 29  1  0  0  0  0
 35 34  1  0  0  0  0
 35 36  1  0  0  0  0
 36 37  1  0  0  0  0
 36 27  1  0  0  0  0
 38 39  2  0  0  0  0
 38 40  1  0  0  0  0
 40 41  1  0  0  0  0
M  END
>  <minimizedAffinity>
-5.45158863

$$$$

 OpenBabel03262523553D

 41 44  0  0  1  0  0  0  0  0999 V2000
   38.4510   22.2010   35.2160 C   0  0  1  0  0  0  0  0  0  0  0  0
   39.8080   22.0820   35.7610 C   0  0  0  0  0  0  0  0  0  0  0  0
   39.7460   22.3310   37.2450 C   0  0  0  0  0  0  0  0  0  0  0  0
   38.8100   23.4220   37.5850 C   0  0  0  0  0  0  0  0  0  0  0  0
   38.4550   24.3690   36.4710 C   0  0  0  0  0  0  0  0  0  0  0  0
   38.0870   23.6850   35.1770 C   0  0  1  0  0  0  0  0  0  0  0  0
   37.7020   21.7530   35.9260 H   0  0  0  0  0  0  0  0  0  0  0  0
   40.5580   22.7250   35.2780 H   0  0  0  0  0  0  0  0  0  0  0  0
   40.1430   21.0130   35.6000 H   0  0  0  0  0  0  0  0  0  0  0  0
   40.7910   22.4990   37.6360 H   0  0  0  0  0  0  0  0  0  0  0  0
   39.4260   21.3590   37.7200 H   0  0  0  0  0  0  0  0  0  0  0  0
   39.2680   24.0500   38.3850 H   0  0  0  0  0  0  0  0  0  0  0  0
   37.8540   23.0540   38.0180 H   0  0  0  0  0  0  0  0  0  0  0  0
   37.6380   25.0130   36.8740 H   0  0  0  0  0  0  0  0  0  0  0  0
   39.3240   25.0540   36.3670 H   0  0  0  0  0  0  0  0  0  0  0  0
   36.9770   23.7300   35.1490 H   0  0  0  0  0  0  0  0  0  0  0  0
   36.6930   20.8730   32.2190 C   0  0  0  0  0  0  0  0  0  0  0  0
   36.8910   21.4090   33.5080 C   0  0  0  0  0  0  0  0  0  0  0  0
   38.2060   21.6560   33.8800 C   0  0  0  0  0  0  0  0  0  0  0  0
   39.2310   21.3780   33.0070 N   0  0  0  0  0  0  0  0  0  0  0  0
   38.9970   20.8650   31.7830 C   0  0  0  0  0  0  0  0  0  0  0  0
   37.7190   20.6130   31.3890 N   0  0  0  0  0  0  0  0  0  0  0  0
   35.6940   20.6570   31.8610 H   0  0  0  0  0  0  0  0  0  0  0  0
   36.0070   21.5660   34.0620 H   0  0  0  0  0  0  0  0  0  0  0  0
   39.7820   20.6370   31.0790 H   0  0  0  0  0  0  0  0  0  0  0  0
   38.7590   24.4370   34.0620 C   0  0  0  0  0  2  0  0  0  0  0  0
   37.8620   25.4890   33.5770 C   0  0  0  0  0  0  0  0  0  0  0  0
   37.9090   26.7420   33.9990 C   0  0  0  0  0  0  0  0  0  0  0  0
   36.9890   27.6690   33.4400 N   0  0  0  0  0  0  0  0  0  0  0  0
   36.0130   28.7220   33.5960 C   0  0  0  0  0  0  0  0  0  0  0  0
   35.9440   29.6780   34.4270 O   0  0  0  0  0  0  0  0  0  0  0  0
   35.3180   28.0910   32.4210 C   0  0  0  0  0  3  0  0  0  0  0  0
   34.7980   28.7940   31.7500 H   0  0  0  0  0  0  0  0  0  0  0  0
   36.7410   27.7900   32.0100 C   0  0  2  0  0  3  0  0  0  0  0  0
   36.8450   26.1780   31.1990 S   0  0  0  0  0  0  0  0  0  0  0  0
   36.9110   24.9760   32.5880 C   0  0  0  0  0  3  0  0  0  0  0  0
   37.2140   24.0460   32.1260 H   0  0  0  0  0  0  0  0  0  0  0  0
   38.8640   27.2440   35.0130 C   0  0  0  0  0  0  0  0  0  0  0  0
   40.1070   27.2480   35.1910 O   0  0  0  0  0  0  0  0  0  0  0  0
   38.5590   27.9180   36.1520 O   0  0  0  0  0  0  0  0  0  0  0  0
   38.7640   27.6270   37.0980 H   0  0  0  0  0  0  0  0  0  0  0  0
  1  2  1  0  0  0  0
  1  7  1  1  0  0  0
  2  3  1  0  0  0  0
  3  4  1  0  0  0  0
  3 10  1  0  0  0  0
  3 11  1  0  0  0  0
  4 13  1  0  0  0  0
  4 12  1  0  0  0  0
  5 14  1  0  0  0  0
  5  4  1  0  0  0  0
  6 16  1  6  0  0  0
  6  1  1  0  0  0  0
  6  5  1  0  0  0  0
  8  2  1  0  0  0  0
  9  2  1  0  0  0  0
 15  5  1  0  0  0  0
 17 18  1  0  0  0  0
 18 19  2  0  0  0  0
 18 24  1  0  0  0  0
 19  1  1  0  0  0  0
 20 19  1  0  0  0  0
 21 20  2  0  0  0  0
 22 21  1  0  0  0  0
 22 17  2  0  0  0  0
 23 17  1  0  0  0  0
 25 21  1  0  0  0  0
 26  6  1  0  0  0  0
 27 28  2  0  0  0  0
 27 26  1  0  0  0  0
 28 38  1  0  0  0  0
 29 30  1  0  0  0  0
 29 28  1  0  0  0  0
 30 31  2  0  0  0  0
 32 30  1  0  0  0  0
 33 32  1  0  0  0  0
 34 35  1  6  0  0  0
 34 32  1  0  0  0  0
 34 29  1  0  0  0  0
 35 36  1  0  0  0  0
 36 27  1  0  0  0  0
 37 36  1  0  0  0  0
 38 39  2  0  0  0  0
 38 40  1  0  0  0  0
 40 41  1  0  0  0  0
M  END
>  <minimizedAffinity>
-5.44801521

$$$$

 OpenBabel03262523553D

 41 44  0  0  1  0  0  0  0  0999 V2000
   37.1350   25.5370   31.1010 C   0  0  1  0  0  0  0  0  0  0  0  0
   35.9830   26.4410   31.1930 C   0  0  0  0  0  0  0  0  0  0  0  0
   36.4250   27.8150   30.7630 C   0  0  0  0  0  0  0  0  0  0  0  0
   37.7770   28.1440   31.2600 C   0  0  0  0  0  0  0  0  0  0  0  0
   38.2750   27.3330   32.4250 C   0  0  0  0  0  0  0  0  0  0  0  0
   38.0700   25.8450   32.2710 C   0  0  1  0  0  0  0  0  0  0  0  0
   37.7480   25.7750   30.1880 H   0  0  0  0  0  0  0  0  0  0  0  0
   35.4930   26.4680   32.1770 H   0  0  0  0  0  0  0  0  0  0  0  0
   35.2090   26.0760   30.4530 H   0  0  0  0  0  0  0  0  0  0  0  0
   35.6410   28.5680   31.0680 H   0  0  0  0  0  0  0  0  0  0  0  0
   36.3940   27.8240   29.6360 H   0  0  0  0  0  0  0  0  0  0  0  0
   37.7840   29.2060   31.6030 H   0  0  0  0  0  0  0  0  0  0  0  0
   38.5550   28.0900   30.4690 H   0  0  0  0  0  0  0  0  0  0  0  0
   39.3460   27.6160   32.5530 H   0  0  0  0  0  0  0  0  0  0  0  0
   37.7690   27.7480   33.3230 H   0  0  0  0  0  0  0  0  0  0  0  0
   39.0700   25.4600   31.9760 H   0  0  0  0  0  0  0  0  0  0  0  0
   37.5470   21.8710   30.6230 C   0  0  0  0  0  0  0  0  0  0  0  0
   37.8400   23.2510   30.5990 C   0  0  0  0  0  0  0  0  0  0  0  0
   36.8710   24.0980   31.1210 C   0  0  0  0  0  0  0  0  0  0  0  0
   35.7020   23.5780   31.6240 N   0  0  0  0  0  0  0  0  0  0  0  0
   35.4620   22.2520   31.6280 C   0  0  0  0  0  0  0  0  0  0  0  0
   36.3930   21.3950   31.1240 N   0  0  0  0  0  0  0  0  0  0  0  0
   38.2570   21.1520   30.2350 H   0  0  0  0  0  0  0  0  0  0  0  0
   38.7760   23.4970   30.1790 H   0  0  0  0  0  0  0  0  0  0  0  0
   34.5550   21.8170   32.0150 H   0  0  0  0  0  0  0  0  0  0  0  0
   37.5750   25.3190   33.5890 C   0  0  0  0  0  2  0  0  0  0  0  0
   38.6230   24.5070   34.2120 C   0  0  0  0  0  0  0  0  0  0  0  0
   39.6120   25.0150   34.9290 C   0  0  0  0  0  0  0  0  0  0  0  0
   40.5600   24.1170   35.4900 N   0  0  0  0  0  0  0  0  0  0  0  0
   41.9270   23.7310   35.7460 C   0  0  0  0  0  0  0  0  0  0  0  0
   42.9600   24.4290   35.9830 O   0  0  0  0  0  0  0  0  0  0  0  0
   41.4340   22.3190   35.5870 C   0  0  0  0  0  3  0  0  0  0  0  0
   41.9400   21.5710   36.2180 H   0  0  0  0  0  0  0  0  0  0  0  0
   40.1890   22.9080   36.2100 C   0  0  2  0  0  3  0  0  0  0  0  0
   38.7040   22.1610   35.4990 S   0  0  0  0  0  0  0  0  0  0  0  0
   38.4440   23.0810   33.9300 C   0  0  0  0  0  3  0  0  0  0  0  0
   37.4400   22.8140   33.6240 H   0  0  0  0  0  0  0  0  0  0  0  0
   39.7920   26.4610   35.1930 C   0  0  0  0  0  0  0  0  0  0  0  0
   39.1530   27.3860   35.7520 O   0  0  0  0  0  0  0  0  0  0  0  0
   40.8550   27.2250   34.8340 O   0  0  0  0  0  0  0  0  0  0  0  0
   40.8380   28.0360   34.2290 H   0  0  0  0  0  0  0  0  0  0  0  0
  1  7  1  6  0  0  0
  1 19  1  0  0  0  0
  1  2  1  0  0  0  0
  1  6  1  0  0  0  0
  2  8  1  0  0  0  0
  3 10  1  0  0  0  0
  3  2  1  0  0  0  0
  3  4  1  0  0  0  0
  4 12  1  0  0  0  0
  4  5  1  0  0  0  0
  5 14  1  0  0  0  0
  5 15  1  0  0  0  0
  6 16  1  6  0  0  0
  6  5  1  0  0  0  0
  6 26  1  0  0  0  0
  9  2  1  0  0  0  0
 11  3  1  0  0  0  0
 13  4  1  0  0  0  0
 17 22  1  0  0  0  0
 18 17  2  0  0  0  0
 18 19  1  0  0  0  0
 19 20  2  0  0  0  0
 20 21  1  0  0  0  0
 21 25  1  0  0  0  0
 22 21  2  0  0  0  0
 23 17  1  0  0  0  0
 24 18  1  0  0  0  0
 26 27  1  0  0  0  0
 27 28  2  0  0  0  0
 28 38  1  0  0  0  0
 28 29  1  0  0  0  0
 29 30  1  0  0  0  0
 29 34  1  0  0  0  0
 30 31  2  0  0  0  0
 32 30  1  0  0  0  0
 32 34  1  0  0  0  0
 32 33  1  0  0  0  0
 34 35  1  6  0  0  0
 36 27  1  0  0  0  0
 36 35  1  0  0  0  0
 37 36  1  0  0  0  0
 38 39  2  0  0  0  0
 40 38  1  0  0  0  0
 41 40  1  0  0  0  0
M  END
>  <minimizedAffinity>
-5.32285357

$$$$

 OpenBabel03262523553D

 41 44  0  0  1  0  0  0  0  0999 V2000
   39.5550   26.4630   30.5090 C   0  0  1  0  0  0  0  0  0  0  0  0
   39.8200   27.8620   30.1580 C   0  0  0  0  0  0  0  0  0  0  0  0
   41.1790   27.9380   29.5130 C   0  0  0  0  0  0  0  0  0  0  0  0
   42.1570   27.0510   30.1740 C   0  0  0  0  0  0  0  0  0  0  0  0
   41.8190   26.6080   31.5720 C   0  0  0  0  0  0  0  0  0  0  0  0
   40.4020   26.1150   31.7340 C   0  0  1  0  0  0  0  0  0  0  0  0
   39.9400   25.7760   29.7050 H   0  0  0  0  0  0  0  0  0  0  0  0
   39.7330   28.5720   30.9930 H   0  0  0  0  0  0  0  0  0  0  0  0
   39.0500   28.1670   29.3870 H   0  0  0  0  0  0  0  0  0  0  0  0
   41.5090   29.0170   29.4730 H   0  0  0  0  0  0  0  0  0  0  0  0
   41.0370   27.6520   28.4310 H   0  0  0  0  0  0  0  0  0  0  0  0
   43.1320   27.5880   30.2530 H   0  0  0  0  0  0  0  0  0  0  0  0
   42.3790   26.1340   29.5860 H   0  0  0  0  0  0  0  0  0  0  0  0
   42.5830   25.8390   31.8360 H   0  0  0  0  0  0  0  0  0  0  0  0
   42.0540   27.4720   32.2300 H   0  0  0  0  0  0  0  0  0  0  0  0
   40.4950   25.0080   31.7390 H   0  0  0  0  0  0  0  0  0  0  0  0
   36.4800   24.4280   31.0060 C   0  0  0  0  0  0  0  0  0  0  0  0
   37.8230   24.7490   30.7160 C   0  0  0  0  0  0  0  0  0  0  0  0
   38.1730   26.0890   30.8140 C   0  0  0  0  0  0  0  0  0  0  0  0
   37.2300   27.0220   31.1760 N   0  0  0  0  0  0  0  0  0  0  0  0
   35.9560   26.6710   31.4440 C   0  0  0  0  0  0  0  0  0  0  0  0
   35.5820   25.3650   31.3580 N   0  0  0  0  0  0  0  0  0  0  0  0
   36.1370   23.4030   30.9520 H   0  0  0  0  0  0  0  0  0  0  0  0
   38.4270   23.9260   30.4510 H   0  0  0  0  0  0  0  0  0  0  0  0
   35.1960   27.3810   31.7290 H   0  0  0  0  0  0  0  0  0  0  0  0
   39.8670   26.6910   33.0150 C   0  0  0  0  0  2  0  0  0  0  0  0
   39.5560   25.6020   33.9440 C   0  0  0  0  0  0  0  0  0  0  0  0
   38.7460   25.7350   34.9810 C   0  0  0  0  0  0  0  0  0  0  0  0
   38.5180   24.5970   35.8010 N   0  0  0  0  0  0  0  0  0  0  0  0
   38.4340   23.9840   37.1050 C   0  0  0  0  0  0  0  0  0  0  0  0
   38.0220   24.4390   38.2160 O   0  0  0  0  0  0  0  0  0  0  0  0
   39.0070   22.7630   36.4380 C   0  0  0  0  0  3  0  0  0  0  0  0
   38.6530   21.7990   36.8380 H   0  0  0  0  0  0  0  0  0  0  0  0
   38.1970   23.2800   35.2720 C   0  0  2  0  0  3  0  0  0  0  0  0
   39.0610   22.9810   33.7120 S   0  0  0  0  0  0  0  0  0  0  0  0
   40.2600   24.3680   33.5880 C   0  0  0  0  0  3  0  0  0  0  0  0
   40.6050   24.3370   32.5630 H   0  0  0  0  0  0  0  0  0  0  0  0
   38.0520   26.9940   35.3400 C   0  0  0  0  0  0  0  0  0  0  0  0
   37.0120   27.6070   34.9980 O   0  0  0  0  0  0  0  0  0  0  0  0
   38.4510   27.9030   36.2660 O   0  0  0  0  0  0  0  0  0  0  0  0
   38.6730   28.8760   36.0990 H   0  0  0  0  0  0  0  0  0  0  0  0
  1  7  1  6  0  0  0
  1 19  1  0  0  0  0
  1  6  1  0  0  0  0
  2  1  1  0  0  0  0
  2  8  1  0  0  0  0
  3  2  1  0  0  0  0
  3  4  1  0  0  0  0
  4 12  1  0  0  0  0
  4  5  1  0  0  0  0
  5  6  1  0  0  0  0
  5 14  1  0  0  0  0
  5 15  1  0  0  0  0
  6 16  1  1  0  0  0
  6 26  1  0  0  0  0
  9  2  1  0  0  0  0
 10  3  1  0  0  0  0
 11  3  1  0  0  0  0
 13  4  1  0  0  0  0
 17 22  1  0  0  0  0
 18 19  1  0  0  0  0
 18 17  2  0  0  0  0
 19 20  2  0  0  0  0
 20 21  1  0  0  0  0
 21 25  1  0  0  0  0
 22 21  2  0  0  0  0
 23 17  1  0  0  0  0
 24 18  1  0  0  0  0
 26 27  1  0  0  0  0
 27 28  2  0  0  0  0
 28 38  1  0  0  0  0
 28 29  1  0  0  0  0
 29 30  1  0  0  0  0
 30 31  2  0  0  0  0
 32 33  1  0  0  0  0
 32 30  1  0  0  0  0
 34 35  1  6  0  0  0
 34 29  1  0  0  0  0
 34 32  1  0  0  0  0
 36 35  1  0  0  0  0
 36 27  1  0  0  0  0
 37 36  1  0  0  0  0
 38 40  1  0  0  0  0
 39 38  2  0  0  0  0
 41 40  1  0  0  0  0
M  END
>  <minimizedAffinity>
-5.29322004

$$$$

 OpenBabel03262523553D

 41 44  0  0  1  0  0  0  0  0999 V2000
   39.0030   25.6050   35.1970 C   0  0  1  0  0  0  0  0  0  0  0  0
   40.3140   26.0860   34.7490 C   0  0  0  0  0  0  0  0  0  0  0  0
   40.0990   27.2670   33.8400 C   0  0  0  0  0  0  0  0  0  0  0  0
   38.9390   27.0750   32.9460 C   0  0  0  0  0  0  0  0  0  0  0  0
   38.4760   25.6570   32.7480 C   0  0  0  0  0  0  0  0  0  0  0  0
   38.3460   24.8680   34.0280 C   0  0  1  0  0  0  0  0  0  0  0  0
   38.3140   26.4710   35.3970 H   0  0  0  0  0  0  0  0  0  0  0  0
   40.9480   25.3240   34.2730 H   0  0  0  0  0  0  0  0  0  0  0  0
   40.8700   26.4470   35.6660 H   0  0  0  0  0  0  0  0  0  0  0  0
   41.0580   27.4870   33.2870 H   0  0  0  0  0  0  0  0  0  0  0  0
   39.9530   28.1630   34.5090 H   0  0  0  0  0  0  0  0  0  0  0  0
   39.2020   27.4550   31.9310 H   0  0  0  0  0  0  0  0  0  0  0  0
   38.0510   27.6680   33.2550 H   0  0  0  0  0  0  0  0  0  0  0  0
   37.5190   25.7310   32.1800 H   0  0  0  0  0  0  0  0  0  0  0  0
   39.1910   25.2020   32.0300 H   0  0  0  0  0  0  0  0  0  0  0  0
   37.2550   24.8660   34.2390 H   0  0  0  0  0  0  0  0  0  0  0  0
   37.8740   23.9080   38.3090 C   0  0  0  0  0  0  0  0  0  0  0  0
   37.8680   24.7780   37.2000 C   0  0  0  0  0  0  0  0  0  0  0  0
   38.9670   24.7070   36.3530 C   0  0  0  0  0  0  0  0  0  0  0  0
   39.9840   23.8210   36.6180 N   0  0  0  0  0  0  0  0  0  0  0  0
   39.9490   23.0070   37.6920 C   0  0  0  0  0  0  0  0  0  0  0  0
   38.8850   23.0520   38.5410 N   0  0  0  0  0  0  0  0  0  0  0  0
   37.0490   23.9080   39.0110 H   0  0  0  0  0  0  0  0  0  0  0  0
   37.0200   25.4020   37.1300 H   0  0  0  0  0  0  0  0  0  0  0  0
   40.7320   22.3030   37.9240 H   0  0  0  0  0  0  0  0  0  0  0  0
   38.9250   23.5040   33.7780 C   0  0  0  0  0  2  0  0  0  0  0  0
   37.9260   22.6670   33.1100 C   0  0  0  0  0  0  0  0  0  0  0  0
   37.1390   21.8170   33.7490 C   0  0  0  0  0  0  0  0  0  0  0  0
   36.2030   21.0700   32.9840 N   0  0  0  0  0  0  0  0  0  0  0  0
   35.5770   19.8160   32.6390 C   0  0  0  0  0  0  0  0  0  0  0  0
   35.2780   18.8100   33.3520 O   0  0  0  0  0  0  0  0  0  0  0  0
   35.5260   20.3610   31.2380 C   0  0  0  0  0  3  0  0  0  0  0  0
   34.6520   20.0500   30.6440 H   0  0  0  0  0  0  0  0  0  0  0  0
   35.3340   21.6650   31.9790 C   0  0  2  0  0  3  0  0  0  0  0  0
   36.1710   23.0170   31.1190 S   0  0  0  0  0  0  0  0  0  0  0  0
   37.9220   22.8810   31.6610 C   0  0  0  0  0  3  0  0  0  0  0  0
   38.3740   23.8150   31.3510 H   0  0  0  0  0  0  0  0  0  0  0  0
   37.1650   21.5970   35.2130 C   0  0  0  0  0  0  0  0  0  0  0  0
   36.3360   21.5260   36.1530 O   0  0  0  0  0  0  0  0  0  0  0  0
   38.2640   21.3890   35.9820 O   0  0  0  0  0  0  0  0  0  0  0  0
   38.5790   21.9640   36.7530 H   0  0  0  0  0  0  0  0  0  0  0  0
  1  7  1  1  0  0  0
  1 19  1  0  0  0  0
  2  1  1  0  0  0  0
  2  9  1  0  0  0  0
  3 11  1  0  0  0  0
  3  2  1  0  0  0  0
  4 13  1  0  0  0  0
  4  3  1  0  0  0  0
  5  4  1  0  0  0  0
  5  6  1  0  0  0  0
  6 16  1  1  0  0  0
  6  1  1  0  0  0  0
  8  2  1  0  0  0  0
 10  3  1  0  0  0  0
 12  4  1  0  0  0  0
 14  5  1  0  0  0  0
 15  5  1  0  0  0  0
 17 22  1  0  0  0  0
 17 23  1  0  0  0  0
 18 17  2  0  0  0  0
 19 20  2  0  0  0  0
 19 18  1  0  0  0  0
 20 21  1  0  0  0  0
 21 25  1  0  0  0  0
 21 22  2  0  0  0  0
 24 18  1  0  0  0  0
 26  6  1  0  0  0  0
 27 28  2  0  0  0  0
 27 26  1  0  0  0  0
 28 38  1  0  0  0  0
 29 28  1  0  0  0  0
 30 29  1  0  0  0  0
 30 31  2  0  0  0  0
 32 34  1  0  0  0  0
 32 30  1  0  0  0  0
 33 32  1  0  0  0  0
 34 35  1  6  0  0  0
 34 29  1  0  0  0  0
 35 36  1  0  0  0  0
 36 27  1  0  0  0  0
 37 36  1  0  0  0  0
 38 40  1  0  0  0  0
 38 39  2  0  0  0  0
 40 41  1  0  0  0  0
M  END
>  <minimizedAffinity>
-5.29231453

$$$$

 OpenBabel03262523553D

 41 44  0  0  1  0  0  0  0  0999 V2000
   39.7160   25.0430   35.1840 C   0  0  1  0  0  0  0  0  0  0  0  0
   40.4270   24.5260   34.0110 C   0  0  0  0  0  0  0  0  0  0  0  0
   41.6070   25.4220   33.7410 C   0  0  0  0  0  0  0  0  0  0  0  0
   41.2810   26.8480   33.9500 C   0  0  0  0  0  0  0  0  0  0  0  0
   39.8210   27.2080   33.9290 C   0  0  0  0  0  0  0  0  0  0  0  0
   38.9500   26.2970   34.7590 C   0  0  1  0  0  0  0  0  0  0  0  0
   40.4470   25.4160   35.9540 H   0  0  0  0  0  0  0  0  0  0  0  0
   39.8060   24.4020   33.1120 H   0  0  0  0  0  0  0  0  0  0  0  0
   40.8210   23.5010   34.2800 H   0  0  0  0  0  0  0  0  0  0  0  0
   42.0110   25.2020   32.7100 H   0  0  0  0  0  0  0  0  0  0  0  0
   42.4290   25.0870   34.4370 H   0  0  0  0  0  0  0  0  0  0  0  0
   41.7550   27.4470   33.1370 H   0  0  0  0  0  0  0  0  0  0  0  0
   41.7040   27.2550   34.8940 H   0  0  0  0  0  0  0  0  0  0  0  0
   39.7700   28.2750   34.2510 H   0  0  0  0  0  0  0  0  0  0  0  0
   39.5290   27.2280   32.8570 H   0  0  0  0  0  0  0  0  0  0  0  0
   38.7590   26.8720   35.6890 H   0  0  0  0  0  0  0  0  0  0  0  0
   37.3790   23.6300   37.7110 C   0  0  0  0  0  0  0  0  0  0  0  0
   38.2890   24.5180   37.1000 C   0  0  0  0  0  0  0  0  0  0  0  0
   38.7600   24.1530   35.8460 C   0  0  0  0  0  0  0  0  0  0  0  0
   38.3380   22.9790   35.2670 N   0  0  0  0  0  0  0  0  0  0  0  0
   37.4670   22.1590   35.8880 C   0  0  0  0  0  0  0  0  0  0  0  0
   36.9860   22.4890   37.1180 N   0  0  0  0  0  0  0  0  0  0  0  0
   36.9690   23.8520   38.6890 H   0  0  0  0  0  0  0  0  0  0  0  0
   38.5190   25.3760   37.6680 H   0  0  0  0  0  0  0  0  0  0  0  0
   37.1200   21.2330   35.4580 H   0  0  0  0  0  0  0  0  0  0  0  0
   37.7140   26.0000   33.9570 C   0  0  0  0  0  2  0  0  0  0  0  0
   37.1650   27.2520   33.4300 C   0  0  0  0  0  0  0  0  0  0  0  0
   36.9720   27.4810   32.1420 C   0  0  0  0  0  0  0  0  0  0  0  0
   36.4220   28.7350   31.7620 N   0  0  0  0  0  0  0  0  0  0  0  0
   36.4370   29.9140   30.9300 C   0  0  0  0  0  0  0  0  0  0  0  0
   36.7520   30.0710   29.7110 O   0  0  0  0  0  0  0  0  0  0  0  0
   35.9550   30.6420   32.1550 C   0  0  0  0  0  3  0  0  0  0  0  0
   35.2710   31.4840   31.9630 H   0  0  0  0  0  0  0  0  0  0  0  0
   35.2550   29.3250   32.4020 C   0  0  2  0  0  3  0  0  0  0  0  0
   35.2230   28.9400   34.1690 S   0  0  0  0  0  0  0  0  0  0  0  0
   36.8760   28.2090   34.5010 C   0  0  0  0  0  3  0  0  0  0  0  0
   36.7800   27.7590   35.4810 H   0  0  0  0  0  0  0  0  0  0  0  0
   37.2850   26.5110   31.0670 C   0  0  0  0  0  0  0  0  0  0  0  0
   36.9380   25.3500   30.7400 O   0  0  0  0  0  0  0  0  0  0  0  0
   38.1500   26.6940   30.0370 O   0  0  0  0  0  0  0  0  0  0  0  0
   38.9730   26.1410   29.8360 H   0  0  0  0  0  0  0  0  0  0  0  0
  1 19  1  0  0  0  0
  1  7  1  1  0  0  0
  2  9  1  0  0  0  0
  2  1  1  0  0  0  0
  3  4  1  0  0  0  0
  3  2  1  0  0  0  0
  3 11  1  0  0  0  0
  4 13  1  0  0  0  0
  5  4  1  0  0  0  0
  5 14  1  0  0  0  0
  5  6  1  0  0  0  0
  6  1  1  0  0  0  0
  6 16  1  1  0  0  0
  8  2  1  0  0  0  0
 10  3  1  0  0  0  0
 12  4  1  0  0  0  0
 15  5  1  0  0  0  0
 17 23  1  0  0  0  0
 18 24  1  0  0  0  0
 18 17  2  0  0  0  0
 19 18  1  0  0  0  0
 20 19  2  0  0  0  0
 20 21  1  0  0  0  0
 21 22  2  0  0  0  0
 22 17  1  0  0  0  0
 25 21  1  0  0  0  0
 26  6  1  0  0  0  0
 27 26  1  0  0  0  0
 27 36  1  0  0  0  0
 28 27  2  0  0  0  0
 29 28  1  0  0  0  0
 29 34  1  0  0  0  0
 30 29  1  0  0  0  0
 30 32  1  0  0  0  0
 31 30  2  0  0  0  0
 33 32  1  0  0  0  0
 34 32  1  1  0  0  0
 34 35  1  0  0  0  0
 35 36  1  0  0  0  0
 36 37  1  0  0  0  0
 38 28  1  0  0  0  0
 39 38  2  0  0  0  0
 40 38  1  0  0  0  0
 41 40  1  0  0  0  0
M  END
>  <minimizedAffinity>
-5.28482676

$$$$

 OpenBabel03262523553D

 41 44  0  0  1  0  0  0  0  0999 V2000
   41.1270   23.2770   36.3310 C   0  0  1  0  0  0  0  0  0  0  0  0
   41.9820   22.2220   35.7770 C   0  0  0  0  0  0  0  0  0  0  0  0
   43.4090   22.5270   36.1470 C   0  0  0  0  0  0  0  0  0  0  0  0
   43.7110   23.9700   36.0540 C   0  0  0  0  0  0  0  0  0  0  0  0
   42.7770   24.7930   35.2100 C   0  0  0  0  0  0  0  0  0  0  0  0
   41.3140   24.5320   35.4780 C   0  0  1  0  0  0  0  0  0  0  0  0
   41.4900   23.5820   37.3510 H   0  0  0  0  0  0  0  0  0  0  0  0
   41.8750   22.0610   34.6950 H   0  0  0  0  0  0  0  0  0  0  0  0
   41.6890   21.2520   36.2820 H   0  0  0  0  0  0  0  0  0  0  0  0
   44.0980   21.8850   35.5250 H   0  0  0  0  0  0  0  0  0  0  0  0
   43.5550   22.1480   37.2000 H   0  0  0  0  0  0  0  0  0  0  0  0
   44.7220   24.0960   35.6010 H   0  0  0  0  0  0  0  0  0  0  0  0
   43.7750   24.4640   37.0480 H   0  0  0  0  0  0  0  0  0  0  0  0
   43.0710   25.8550   35.3850 H   0  0  0  0  0  0  0  0  0  0  0  0
   43.0660   24.5950   34.1560 H   0  0  0  0  0  0  0  0  0  0  0  0
   40.9950   25.3870   36.1130 H   0  0  0  0  0  0  0  0  0  0  0  0
   37.5830   23.3720   37.4580 C   0  0  0  0  0  0  0  0  0  0  0  0
   38.9630   23.6590   37.4040 C   0  0  0  0  0  0  0  0  0  0  0  0
   39.6890   23.0150   36.4110 C   0  0  0  0  0  0  0  0  0  0  0  0
   39.0580   22.1510   35.5460 N   0  0  0  0  0  0  0  0  0  0  0  0
   37.7350   21.9060   35.6340 C   0  0  0  0  0  0  0  0  0  0  0  0
   36.9950   22.5220   36.5970 N   0  0  0  0  0  0  0  0  0  0  0  0
   36.9540   23.8400   38.2050 H   0  0  0  0  0  0  0  0  0  0  0  0
   39.3020   24.3390   38.1350 H   0  0  0  0  0  0  0  0  0  0  0  0
   37.2150   21.2340   34.9710 H   0  0  0  0  0  0  0  0  0  0  0  0
   40.6170   24.4620   34.1480 C   0  0  0  0  0  2  0  0  0  0  0  0
   39.5330   25.4470   34.1150 C   0  0  0  0  0  0  0  0  0  0  0  0
   38.4340   25.3010   33.3940 C   0  0  0  0  0  0  0  0  0  0  0  0
   37.4520   26.3260   33.4590 N   0  0  0  0  0  0  0  0  0  0  0  0
   36.5400   27.2360   32.8080 C   0  0  0  0  0  0  0  0  0  0  0  0
   35.8400   27.1050   31.7570 O   0  0  0  0  0  0  0  0  0  0  0  0
   36.8840   28.1900   33.9190 C   0  0  0  0  0  3  0  0  0  0  0  0
   36.0640   28.8530   34.2390 H   0  0  0  0  0  0  0  0  0  0  0  0
   36.9780   26.9040   34.7080 C   0  0  2  0  0  3  0  0  0  0  0  0
   38.3120   26.9970   35.9250 S   0  0  0  0  0  0  0  0  0  0  0  0
   39.8280   26.6050   34.9630 C   0  0  0  0  0  3  0  0  0  0  0  0
   40.5850   26.4210   35.7140 H   0  0  0  0  0  0  0  0  0  0  0  0
   38.1560   24.1320   32.5280 C   0  0  0  0  0  0  0  0  0  0  0  0
   37.3800   23.1460   32.5270 O   0  0  0  0  0  0  0  0  0  0  0  0
   38.7750   23.8230   31.3600 O   0  0  0  0  0  0  0  0  0  0  0  0
   39.2990   22.9820   31.1600 H   0  0  0  0  0  0  0  0  0  0  0  0
  1 19  1  0  0  0  0
  1  7  1  1  0  0  0
  2  3  1  0  0  0  0
  2  9  1  0  0  0  0
  2  1  1  0  0  0  0
  3 11  1  0  0  0  0
  4  3  1  0  0  0  0
  4 13  1  0  0  0  0
  5 14  1  0  0  0  0
  5  6  1  0  0  0  0
  5  4  1  0  0  0  0
  6 16  1  1  0  0  0
  6  1  1  0  0  0  0
  8  2  1  0  0  0  0
 10  3  1  0  0  0  0
 12  4  1  0  0  0  0
 15  5  1  0  0  0  0
 17 23  1  0  0  0  0
 18 17  1  0  0  0  0
 18 24  1  0  0  0  0
 19 18  2  0  0  0  0
 20 21  2  0  0  0  0
 20 19  1  0  0  0  0
 21 22  1  0  0  0  0
 22 17  2  0  0  0  0
 25 21  1  0  0  0  0
 26  6  1  0  0  0  0
 27 26  1  0  0  0  0
 27 36  1  0  0  0  0
 28 29  1  0  0  0  0
 28 27  2  0  0  0  0
 29 34  1  0  0  0  0
 30 29  1  0  0  0  0
 30 32  1  0  0  0  0
 31 30  2  0  0  0  0
 32 33  1  0  0  0  0
 34 32  1  6  0  0  0
 34 35  1  0  0  0  0
 36 37  1  0  0  0  0
 36 35  1  0  0  0  0
 38 28  1  0  0  0  0
 39 38  2  0  0  0  0
 40 38  1  0  0  0  0
 41 40  1  0  0  0  0
M  END
>  <minimizedAffinity>
-5.27865601

$$$$

 OpenBabel03262523553D

 41 44  0  0  1  0  0  0  0  0999 V2000
   38.1370   27.3220   32.8370 C   0  0  1  0  0  0  0  0  0  0  0  0
   36.6720   27.2860   32.7810 C   0  0  0  0  0  0  0  0  0  0  0  0
   36.1380   28.3470   33.7070 C   0  0  0  0  0  0  0  0  0  0  0  0
   36.9170   28.4330   34.9590 C   0  0  0  0  0  0  0  0  0  0  0  0
   37.7510   27.2310   35.3110 C   0  0  0  0  0  0  0  0  0  0  0  0
   38.5740   26.6980   34.1630 C   0  0  1  0  0  0  0  0  0  0  0  0
   38.5020   28.3840   32.8990 H   0  0  0  0  0  0  0  0  0  0  0  0
   36.2250   26.3050   32.9960 H   0  0  0  0  0  0  0  0  0  0  0  0
   36.3690   27.5590   31.7260 H   0  0  0  0  0  0  0  0  0  0  0  0
   35.0360   28.1690   33.8770 H   0  0  0  0  0  0  0  0  0  0  0  0
   36.1760   29.3190   33.1370 H   0  0  0  0  0  0  0  0  0  0  0  0
   36.2100   28.5730   35.8120 H   0  0  0  0  0  0  0  0  0  0  0  0
   37.5880   29.3180   34.9920 H   0  0  0  0  0  0  0  0  0  0  0  0
   38.3690   27.5410   36.1860 H   0  0  0  0  0  0  0  0  0  0  0  0
   37.0440   26.4800   35.7220 H   0  0  0  0  0  0  0  0  0  0  0  0
   39.5990   27.0800   34.3600 H   0  0  0  0  0  0  0  0  0  0  0  0
   40.8560   26.3690   30.4830 C   0  0  0  0  0  0  0  0  0  0  0  0
   40.1810   27.0390   31.5240 C   0  0  0  0  0  0  0  0  0  0  0  0
   38.8740   26.6400   31.7710 C   0  0  0  0  0  0  0  0  0  0  0  0
   38.3050   25.6410   31.0160 N   0  0  0  0  0  0  0  0  0  0  0  0
   38.9870   25.0270   30.0290 C   0  0  0  0  0  0  0  0  0  0  0  0
   40.2710   25.3950   29.7630 N   0  0  0  0  0  0  0  0  0  0  0  0
   41.8780   26.6270   30.2360 H   0  0  0  0  0  0  0  0  0  0  0  0
   40.7480   27.7840   32.0110 H   0  0  0  0  0  0  0  0  0  0  0  0
   38.5660   24.2420   29.4220 H   0  0  0  0  0  0  0  0  0  0  0  0
   38.4630   25.2000   34.1860 C   0  0  0  0  0  2  0  0  0  0  0  0
   39.6740   24.6320   34.7830 C   0  0  0  0  0  0  0  0  0  0  0  0
   39.7380   23.4080   35.2830 C   0  0  0  0  0  0  0  0  0  0  0  0
   40.9780   22.9740   35.8250 N   0  0  0  0  0  0  0  0  0  0  0  0
   41.7380   22.3500   36.8820 C   0  0  0  0  0  0  0  0  0  0  0  0
   41.4520   21.3890   37.6590 O   0  0  0  0  0  0  0  0  0  0  0  0
   42.8130   23.3430   36.5340 C   0  0  0  0  0  3  0  0  0  0  0  0
   43.8460   22.9800   36.6580 H   0  0  0  0  0  0  0  0  0  0  0  0
   42.2540   23.1430   35.1440 C   0  0  2  0  0  3  0  0  0  0  0  0
   42.2880   24.6910   34.2120 S   0  0  0  0  0  0  0  0  0  0  0  0
   40.7840   25.5870   34.7690 C   0  0  0  0  0  3  0  0  0  0  0  0
   40.6660   26.3900   34.0520 H   0  0  0  0  0  0  0  0  0  0  0  0
   38.6030   22.4580   35.3070 C   0  0  0  0  0  0  0  0  0  0  0  0
   37.9520   21.7740   34.4800 O   0  0  0  0  0  0  0  0  0  0  0  0
   37.9090   22.0510   36.4000 O   0  0  0  0  0  0  0  0  0  0  0  0
   36.9200   22.1750   36.5670 H   0  0  0  0  0  0  0  0  0  0  0  0
  1  7  1  1  0  0  0
  1  6  1  0  0  0  0
  2  1  1  0  0  0  0
  2  8  1  0  0  0  0
  2  3  1  0  0  0  0
  3 10  1  0  0  0  0
  3  4  1  0  0  0  0
  4 13  1  0  0  0  0
  4  5  1  0  0  0  0
  4 12  1  0  0  0  0
  5 15  1  0  0  0  0
  5 14  1  0  0  0  0
  6 26  1  0  0  0  0
  6 16  1  1  0  0  0
  6  5  1  0  0  0  0
  9  2  1  0  0  0  0
 11  3  1  0  0  0  0
 17 18  1  0  0  0  0
 18 19  2  0  0  0  0
 18 24  1  0  0  0  0
 19  1  1  0  0  0  0
 20 19  1  0  0  0  0
 21 20  2  0  0  0  0
 22 21  1  0  0  0  0
 22 17  2  0  0  0  0
 23 17  1  0  0  0  0
 25 21  1  0  0  0  0
 26 27  1  0  0  0  0
 27 28  2  0  0  0  0
 28 38  1  0  0  0  0
 28 29  1  0  0  0  0
 29 30  1  0  0  0  0
 30 31  2  0  0  0  0
 32 33  1  0  0  0  0
 32 30  1  0  0  0  0
 34 35  1  6  0  0  0
 34 29  1  0  0  0  0
 34 32  1  0  0  0  0
 35 36  1  0  0  0  0
 36 27  1  0  0  0  0
 37 36  1  0  0  0  0
 38 40  1  0  0  0  0
 39 38  2  0  0  0  0
 40 41  1  0  0  0  0
M  END
>  <minimizedAffinity>
-5.25307417

$$$$

 OpenBabel03262523553D

 41 44  0  0  1  0  0  0  0  0999 V2000
   37.1730   25.1980   31.3040 C   0  0  1  0  0  0  0  0  0  0  0  0
   35.9040   25.9040   31.5080 C   0  0  0  0  0  0  0  0  0  0  0  0
   36.1000   27.3490   31.1290 C   0  0  0  0  0  0  0  0  0  0  0  0
   37.4130   27.8640   31.5660 C   0  0  0  0  0  0  0  0  0  0  0  0
   38.1040   27.0910   32.6560 C   0  0  0  0  0  0  0  0  0  0  0  0
   38.1230   25.5980   32.4340 C   0  0  1  0  0  0  0  0  0  0  0  0
   37.6840   25.5700   30.3720 H   0  0  0  0  0  0  0  0  0  0  0  0
   35.4800   25.8100   32.5180 H   0  0  0  0  0  0  0  0  0  0  0  0
   35.1500   25.4550   30.7940 H   0  0  0  0  0  0  0  0  0  0  0  0
   35.2300   27.9540   31.5170 H   0  0  0  0  0  0  0  0  0  0  0  0
   35.9960   27.4020   30.0070 H   0  0  0  0  0  0  0  0  0  0  0  0
   37.2780   28.8970   31.9650 H   0  0  0  0  0  0  0  0  0  0  0  0
   38.1390   27.9690   30.7300 H   0  0  0  0  0  0  0  0  0  0  0  0
   39.1250   27.5330   32.7380 H   0  0  0  0  0  0  0  0  0  0  0  0
   37.5980   27.3810   33.6020 H   0  0  0  0  0  0  0  0  0  0  0  0
   39.1490   25.3890   32.0630 H   0  0  0  0  0  0  0  0  0  0  0  0
   35.9050   21.7010   31.3030 C   0  0  0  0  0  0  0  0  0  0  0  0
   35.9000   23.1110   31.3360 C   0  0  0  0  0  0  0  0  0  0  0  0
   37.1380   23.7360   31.2600 C   0  0  0  0  0  0  0  0  0  0  0  0
   38.2840   22.9820   31.1610 N   0  0  0  0  0  0  0  0  0  0  0  0
   38.2430   21.6350   31.1340 C   0  0  0  0  0  0  0  0  0  0  0  0
   37.0440   20.9930   31.2060 N   0  0  0  0  0  0  0  0  0  0  0  0
   34.9760   21.1480   31.3570 H   0  0  0  0  0  0  0  0  0  0  0  0
   34.9430   23.5480   31.4170 H   0  0  0  0  0  0  0  0  0  0  0  0
   39.1250   21.0200   31.0570 H   0  0  0  0  0  0  0  0  0  0  0  0
   37.8000   24.9420   33.7470 C   0  0  0  0  0  2  0  0  0  0  0  0
   39.0350   24.4440   34.3580 C   0  0  0  0  0  0  0  0  0  0  0  0
   39.1100   23.3140   35.0410 C   0  0  0  0  0  0  0  0  0  0  0  0
   40.3720   22.9390   35.5750 N   0  0  0  0  0  0  0  0  0  0  0  0
   41.1830   22.4710   36.6730 C   0  0  0  0  0  0  0  0  0  0  0  0
   40.9290   21.6510   37.6080 O   0  0  0  0  0  0  0  0  0  0  0  0
   42.2520   23.3690   36.1120 C   0  0  0  0  0  3  0  0  0  0  0  0
   43.2850   23.0040   36.2330 H   0  0  0  0  0  0  0  0  0  0  0  0
   41.6080   22.9660   34.8050 C   0  0  2  0  0  3  0  0  0  0  0  0
   41.6120   24.3470   33.6380 S   0  0  0  0  0  0  0  0  0  0  0  0
   40.1580   25.3580   34.1300 C   0  0  0  0  0  3  0  0  0  0  0  0
   40.0110   26.0390   33.3020 H   0  0  0  0  0  0  0  0  0  0  0  0
   37.9630   22.4080   35.2800 C   0  0  0  0  0  0  0  0  0  0  0  0
   37.1660   21.7240   34.5920 O   0  0  0  0  0  0  0  0  0  0  0  0
   37.4390   22.0630   36.4840 O   0  0  0  0  0  0  0  0  0  0  0  0
   36.4930   22.2290   36.8000 H   0  0  0  0  0  0  0  0  0  0  0  0
  1  7  1  6  0  0  0
  1  2  1  0  0  0  0
  1  6  1  0  0  0  0
  2  8  1  0  0  0  0
  3  2  1  0  0  0  0
  3 10  1  0  0  0  0
  3  4  1  0  0  0  0
  4 12  1  0  0  0  0
  4  5  1  0  0  0  0
  5 14  1  0  0  0  0
  5 15  1  0  0  0  0
  6 16  1  6  0  0  0
  6  5  1  0  0  0  0
  6 26  1  0  0  0  0
  9  2  1  0  0  0  0
 11  3  1  0  0  0  0
 13  4  1  0  0  0  0
 17 18  1  0  0  0  0
 17 23  1  0  0  0  0
 18 24  1  0  0  0  0
 19  1  1  0  0  0  0
 19 18  2  0  0  0  0
 20 19  1  0  0  0  0
 21 20  2  0  0  0  0
 21 22  1  0  0  0  0
 22 17  2  0  0  0  0
 25 21  1  0  0  0  0
 26 27  1  0  0  0  0
 27 28  2  0  0  0  0
 28 38  1  0  0  0  0
 28 29  1  0  0  0  0
 29 30  1  0  0  0  0
 30 31  2  0  0  0  0
 32 33  1  0  0  0  0
 32 30  1  0  0  0  0
 34 35  1  6  0  0  0
 34 29  1  0  0  0  0
 34 32  1  0  0  0  0
 35 36  1  0  0  0  0
 36 27  1  0  0  0  0
 37 36  1  0  0  0  0
 38 40  1  0  0  0  0
 39 38  2  0  0  0  0
 40 41  1  0  0  0  0
M  END
>  <minimizedAffinity>
-5.22524881

$$$$
