REMARK  Name = 
REMARK  9 active torsions:
REMARK  status: ('A' for Active; 'I' for Inactive)
REMARK    1  A    between atoms: P_2  and  O_3
REMARK    2  A    between atoms: P_2  and  O_4
REMARK    3  A    between atoms: P_2  and  O_11
REMARK    4  A    between atoms: O_4  and  C_5
REMARK    5  A    between atoms: O_11  and  C_12
REMARK    6  A    between atoms: C_15  and  C_23
REMARK    7  A    between atoms: C_23  and  C_24
REMARK    8  A    between atoms: C_25  and  C_26
REMARK    9  A    between atoms: C_26  and  O_28
REMARK                            x       y       z     vdW  Elec       q    Type
REMARK                         _______ _______ _______ _____ _____    ______ ____
ROOT
ATOM      1  C   UNL     1      32.093  29.599  46.092  0.00  0.00    +0.000 A 
ATOM      2  C   UNL     1      31.513  29.416  44.862  0.00  0.00    +0.000 A 
ATOM      3  N   UNL     1      30.625  28.419  44.924  0.00  0.00    +0.000 N 
ATOM      4  C   UNL     1      30.618  27.943  46.191  0.00  0.00    +0.000 A 
ATOM      5  N   UNL     1      31.515  28.670  46.888  0.00  0.00    +0.000 NA
ATOM      6  H   UNL     1      31.771  30.023  43.986  0.00  0.00    +0.000 HD
ATOM      7  H   UNL     1      30.065  28.116  44.080  0.00  0.00    +0.000 HD
ENDROOT
BRANCH   1   8
ATOM      8  O   UNL     1      33.063  30.511  46.507  0.00  0.00    +0.000 OA
BRANCH   8  10
ATOM      9  O   UNL     1      35.630  30.180  46.456  0.00  0.00    +0.000 OA
ATOM     10  P   UNL     1      34.419  29.875  47.315  0.00  0.00    +0.000 P 
BRANCH  10  11
ATOM     11  O   UNL     1      34.228  28.197  47.553  0.00  0.00    +0.000 OA
ATOM     12  H   UNL     1      34.798  27.939  48.317  0.00  0.00    +0.000 HD
ENDBRANCH  10  11
BRANCH  10  13
ATOM     13  O   UNL     1      34.529  30.568  48.870  0.00  0.00    +0.000 OA
BRANCH  13  14
ATOM     14  C   UNL     1      35.682  30.465  49.645  0.00  0.00    +0.000 A 
ATOM     15  C   UNL     1      35.901  29.514  50.642  0.00  0.00    +0.000 A 
ATOM     16  C   UNL     1      37.109  29.555  51.317  0.00  0.00    +0.000 A 
ATOM     17  N   UNL     1      38.032  30.494  51.005  0.00  0.00    +0.000 NA
ATOM     18  C   UNL     1      37.782  31.421  50.011  0.00  0.00    +0.000 A 
ATOM     19  N   UNL     1      36.603  31.382  49.351  0.00  0.00    +0.000 NA
ATOM     20  H   UNL     1      35.099  28.805  50.816  0.00  0.00    +0.000 HD
ATOM     21  H   UNL     1      37.274  28.817  52.088  0.00  0.00    +0.000 HD
ATOM     22  H   UNL     1      38.534  32.163  49.778  0.00  0.00    +0.000 HD
ENDBRANCH  13  14
ENDBRANCH  10  13
ENDBRANCH   8  10
ENDBRANCH   1   8
BRANCH   4  23
ATOM     23  C   UNL     1      29.755  26.829  46.642  0.00  0.00    +0.000 C 
BRANCH  23  24
ATOM     24  C   UNL     1      28.901  26.295  45.550  0.00  0.00    +0.000 C 
ATOM     25  C   UNL     1      28.943  25.045  45.128  0.00  0.00    +0.000 C 
ATOM     26  N   UNL     1      28.128  24.534  44.085  0.00  0.00    +0.000 N 
ATOM     27  C   UNL     1      27.355  23.561  43.401  0.00  0.00    +0.000 C 
ATOM     28  O   UNL     1      27.205  22.336  43.703  0.00  0.00    +0.000 OA
ATOM     29  C   UNL     1      26.881  24.466  42.351  0.00  0.00    +0.000 C 
ATOM     30  H   UNL     1      27.108  24.202  41.304  0.00  0.00    +0.000 HD
ATOM     31  C   UNL     1      27.798  25.448  42.977  0.00  0.00    +0.000 C 
ATOM     32  S   UNL     1      26.817  26.753  43.822  0.00  0.00    +0.000 S 
ATOM     33  C   UNL     1      28.020  27.365  45.030  0.00  0.00    +0.000 C 
ATOM     34  H   UNL     1      28.704  28.020  44.414  0.00  0.00    +0.000 HD
BRANCH  25  35
ATOM     35  C   UNL     1      29.876  24.122  45.758  0.00  0.00    +0.000 C 
ATOM     36  O   UNL     1      29.999  22.914  45.435  0.00  0.00    +0.000 OA
BRANCH  35  37
ATOM     37  O   UNL     1      30.839  23.518  46.538  0.00  0.00    +0.000 OA
ATOM     38  H   UNL     1      31.577  23.998  47.038  0.00  0.00    +0.000 HD
ENDBRANCH  35  37
ENDBRANCH  25  35
ENDBRANCH  23  24
ENDBRANCH   4  23
TORSDOF 9
