
     RDKit          3D

 47 51  0  0  0  0  0  0  0  0999 V2000
   38.3592   31.6299   47.3687 C   0  0  0  0  0  0  0  0  0  0  0  0
   38.7618   32.6785   48.1857 C   0  0  0  0  0  0  0  0  0  0  0  0
   38.1875   33.0406   49.3812 C   0  0  0  0  0  0  0  0  0  0  0  0
   37.1298   32.2901   49.7818 N   0  0  0  0  0  0  0  0  0  0  0  0
   36.7058   31.2493   49.0019 C   0  0  0  0  0  0  0  0  0  0  0  0
   37.3171   30.9453   47.8330 N   0  0  0  0  0  0  0  0  0  0  0  0
   39.2360   29.9370   44.2898 C   0  0  0  0  0  0  0  0  0  0  0  0
   40.2945   30.7052   43.7472 C   0  0  0  0  0  0  0  0  0  0  0  0
   40.6828   31.8184   44.4852 C   0  0  0  0  0  0  0  0  0  0  0  0
   40.0508   32.0985   45.6420 N   0  0  0  0  0  0  0  0  0  0  0  0
   39.0577   31.3489   46.1188 C   0  0  0  0  0  0  0  0  0  0  0  0
   38.6067   30.2374   45.4658 N   0  0  0  0  0  0  0  0  0  0  0  0
   40.8955   30.3319   42.5299 N   0  0  0  0  0  0  0  0  0  0  0  0
   35.5917   30.3775   49.3197 C   0  0  0  0  0  0  0  0  0  0  0  0
   34.6309   30.2155   48.3483 C   0  0  0  0  0  0  0  0  0  0  0  0
   33.6572   29.3711   48.8005 N   0  0  0  0  0  0  0  0  0  0  0  0
   34.0389   29.0191   50.0660 C   0  0  0  0  0  0  0  0  0  0  0  0
   35.2080   29.6336   50.3665 N   0  0  0  0  0  0  0  0  0  0  0  0
   39.6066   33.2910   47.8825 H   0  0  0  0  0  0  0  0  0  0  0  0
   38.5414   33.8590   49.9682 H   0  0  0  0  0  0  0  0  0  0  0  0
   38.9424   29.0753   43.7090 H   0  0  0  0  0  0  0  0  0  0  0  0
   41.4899   32.4421   44.1139 H   0  0  0  0  0  0  0  0  0  0  0  0
   40.4289   30.4070   41.5995 H   0  0  0  0  0  0  0  0  0  0  0  0
   41.8835   29.9497   42.5512 H   0  0  0  0  0  0  0  0  0  0  0  0
   34.5132   30.6199   47.3331 H   0  0  0  0  0  0  0  0  0  0  0  0
   32.7834   29.0425   48.2998 H   0  0  0  0  0  0  0  0  0  0  0  0
   33.2146   28.0972   50.8932 C   0  0  0  0  0  0  0  0  0  0  0  0
   32.1999   27.4036   50.0850 C   0  0  0  0  0  0  0  0  0  0  0  0
   30.9039   27.4700   50.2851 C   0  0  0  0  0  0  0  0  0  0  0  0
   30.2591   28.2565   51.3585 C   0  0  0  0  0  0  0  0  0  0  0  0
   30.7053   28.9965   52.2667 O   0  0  0  0  0  0  0  0  0  0  0  0
   28.9213   28.3057   51.5507 O   0  0  0  0  0  0  0  0  0  0  0  0
   30.0551   26.7494   49.4191 N   0  0  0  0  0  0  0  0  0  0  0  0
   28.8521   25.9645   49.2955 C   0  0  0  0  0  0  0  0  0  0  0  0
   27.8247   25.6576   49.9877 O   0  0  0  0  0  0  0  0  0  0  0  0
   29.1950   25.5407   47.9092 C   0  0  2  0  0  0  0  0  0  0  0  0
   28.4195   25.7717   47.1525 H   0  0  0  0  0  0  0  0  0  0  0  0
   30.2701   26.5749   47.9746 C   0  0  2  0  0  0  0  0  0  0  0  0
   31.9160   25.7899   47.8636 S   0  0  0  0  0  0  0  0  0  0  0  0
   32.9379   26.6661   49.0569 C   0  0  2  0  0  0  0  0  0  0  0  0
   33.6823   25.9466   49.4999 H   0  0  0  0  0  0  0  0  0  0  0  0
   32.8470   28.6279   51.7810 H   0  0  0  0  0  0  0  0  0  0  0  0
   33.8975   27.3009   51.3243 H   0  0  0  0  0  0  0  0  0  0  0  0
   28.4953   28.1903   52.4594 H   0  0  0  0  0  0  0  0  0  0  0  0
   29.5382   24.4935   47.7972 H   0  0  0  0  0  0  0  0  0  0  0  0
   30.1323   27.4855   47.3942 H   0  0  0  0  0  0  0  0  0  0  0  0
   33.5685   27.3755   48.4422 H   0  0  0  0  0  0  0  0  0  0  0  0
  1  6  1  0
  1  2  2  0
  2  3  1  0
  3  4  2  0
  5 14  1  0
  5  4  1  0
  6  5  2  0
  7 12  2  0
  8  7  1  0
  8  9  2  0
  9 10  1  0
 10 11  2  0
 11  1  1  0
 12 11  1  0
 13  8  1  0
 14 18  1  0
 15 16  1  0
 15 14  2  0
 16 17  1  0
 17 18  2  0
  2 19  1  0
  3 20  1  0
  7 21  1  0
  9 22  1  0
 13 23  1  0
 13 24  1  0
 15 25  1  0
 16 26  1  0
 27 28  1  0
 28 29  2  0
 29 30  1  0
 30 31  2  0
 30 32  1  0
 29 33  1  0
 33 34  1  0
 34 35  2  0
 34 36  1  0
 36 37  1  6
 36 38  1  0
 38 39  1  0
 39 40  1  0
 40 41  1  1
 40 28  1  0
 38 33  1  0
 27 42  1  0
 27 43  1  0
 32 44  1  0
 36 45  1  0
 38 46  1  6
 40 47  1  0
 17 27  1  0
M  ISO  8  19  14  20  14  21  14  22  14  25  14  26   9  37  15  41  15
M  END
>  <DihAtoms>  (1) 
15,16,26,27

>  <DihDeg>  (1) 
88.94342376359276

$$$$
