
     RDKit          3D

 52 56  0  0  0  0  0  0  0  0999 V2000
   38.9547   32.3758   47.7928 C   0  0  2  0  0  0  0  0  0  0  0  0
   37.9983   32.7504   48.9734 C   0  0  2  0  0  0  0  0  0  0  0  0
   38.8892   33.5482   49.8004 C   0  0  0  0  0  0  0  0  0  0  0  0
   39.7241   34.2774   48.9570 O   0  0  0  0  0  0  0  0  0  0  0  0
   39.6215   33.7762   47.6955 C   0  0  0  0  0  0  0  0  0  0  0  0
   37.3634   29.6943   51.0826 C   0  0  0  0  0  0  0  0  0  0  0  0
   38.0288   30.8360   50.5583 C   0  0  0  0  0  0  0  0  0  0  0  0
   37.3779   31.5932   49.5544 C   0  0  0  0  0  0  0  0  0  0  0  0
   36.1212   31.1854   49.1294 N   0  0  0  0  0  0  0  0  0  0  0  0
   35.5346   30.0991   49.6556 C   0  0  0  0  0  0  0  0  0  0  0  0
   36.1390   29.3512   50.6242 N   0  0  0  0  0  0  0  0  0  0  0  0
   38.2806   32.1317   46.6461 O   0  0  0  0  0  0  0  0  0  0  0  0
   40.9543   31.2502   45.3856 Cl  0  0  0  0  0  0  0  0  0  0  0  0
   39.3751   30.6789   44.9063 C   0  0  0  0  0  0  0  0  0  0  0  0
   38.3343   31.2391   45.6323 C   0  0  0  0  0  0  0  0  0  0  0  0
   37.0684   30.8156   45.2669 C   0  0  0  0  0  0  0  0  0  0  0  0
   36.8504   29.8976   44.2496 C   0  0  0  0  0  0  0  0  0  0  0  0
   37.9339   29.3772   43.5661 C   0  0  0  0  0  0  0  0  0  0  0  0
   39.1942   29.7713   43.8985 C   0  0  0  0  0  0  0  0  0  0  0  0
   39.7106   31.6591   48.0932 H   0  0  0  0  0  0  0  0  0  0  0  0
   37.2088   33.3809   48.5063 H   0  0  0  0  0  0  0  0  0  0  0  0
   38.2771   34.3182   50.3560 H   0  0  0  0  0  0  0  0  0  0  0  0
   39.4554   33.0319   50.5863 H   0  0  0  0  0  0  0  0  0  0  0  0
   40.6244   33.6228   47.2682 H   0  0  0  0  0  0  0  0  0  0  0  0
   39.0533   34.4302   47.0372 H   0  0  0  0  0  0  0  0  0  0  0  0
   37.8151   29.0835   51.8483 H   0  0  0  0  0  0  0  0  0  0  0  0
   38.9884   31.0856   50.9322 H   0  0  0  0  0  0  0  0  0  0  0  0
   34.5588   29.9093   49.2205 H   0  0  0  0  0  0  0  0  0  0  0  0
   36.1384   31.1351   45.7114 H   0  0  0  0  0  0  0  0  0  0  0  0
   35.8779   29.5437   43.9363 H   0  0  0  0  0  0  0  0  0  0  0  0
   37.7898   28.6584   42.7806 H   0  0  0  0  0  0  0  0  0  0  0  0
   40.4649   29.3126   43.2828 C   0  0  0  0  0  0  0  0  0  0  0  0
   40.4503   29.0899   41.8513 C   0  0  0  0  0  0  0  0  0  0  0  0
   40.6553   27.8893   41.3917 C   0  0  0  0  0  0  0  0  0  0  0  0
   40.9110   26.6673   42.1938 C   0  0  0  0  0  0  0  0  0  0  0  0
   41.1169   25.4752   41.8911 O   0  0  0  0  0  0  0  0  0  0  0  0
   41.0589   26.1299   43.4586 O   0  0  0  0  0  0  0  0  0  0  0  0
   40.6661   27.6523   39.9724 N   0  0  0  0  0  0  0  0  0  0  0  0
   40.1805   26.8972   38.8417 C   0  0  0  0  0  0  0  0  0  0  0  0
   39.8096   25.6832   38.7086 O   0  0  0  0  0  0  0  0  0  0  0  0
   40.3372   28.1490   38.0481 C   0  0  2  0  0  0  0  0  0  0  0  0
   39.5129   28.8692   38.1762 H   0  0  0  0  0  0  0  0  0  0  0  0
   41.4695   28.4070   39.0113 C   0  0  1  0  0  0  0  0  0  0  0  0
   41.5067   30.1211   39.5825 S   0  0  0  0  0  0  0  0  0  0  0  0
   40.2272   30.2028   40.9016 C   0  0  2  0  0  0  0  0  0  0  0  0
   40.3996   31.1675   41.4083 H   0  0  0  0  0  0  0  0  0  0  0  0
   40.8035   28.3838   43.8327 H   0  0  0  0  0  0  0  0  0  0  0  0
   41.2643   30.0641   43.5887 H   0  0  0  0  0  0  0  0  0  0  0  0
   40.2822   26.0565   44.1336 H   0  0  0  0  0  0  0  0  0  0  0  0
   40.6958   27.9596   37.0203 H   0  0  0  0  0  0  0  0  0  0  0  0
   42.4303   27.9631   38.7600 H   0  0  0  0  0  0  0  0  0  0  0  0
   39.2323   30.1039   40.4590 H   0  0  0  0  0  0  0  0  0  0  0  0
  1  2  1  0
  2  8  1  0
  2  3  1  0
  4  3  1  0
  5  1  1  0
  5  4  1  0
  7  6  2  0
  8  7  1  0
  9  8  2  0
  9 10  1  0
 10 11  2  0
 11  6  1  0
 12  1  1  0
 14 13  1  0
 14 15  2  0
 15 12  1  0
 16 15  1  0
 17 16  2  0
 18 19  2  0
 18 17  1  0
 19 14  1  0
  1 20  1  1
  2 21  1  6
  3 22  1  0
  3 23  1  0
  5 24  1  0
  5 25  1  0
  6 26  1  0
  7 27  1  0
 10 28  1  0
 16 29  1  0
 17 30  1  0
 18 31  1  0
 32 33  1  0
 33 34  2  0
 34 35  1  0
 35 36  2  0
 35 37  1  0
 34 38  1  0
 38 39  1  0
 39 40  2  0
 39 41  1  0
 41 42  1  6
 41 43  1  0
 43 44  1  0
 44 45  1  0
 45 46  1  1
 45 33  1  0
 43 38  1  0
 32 47  1  0
 32 48  1  0
 37 49  1  0
 41 50  1  0
 43 51  1  6
 45 52  1  0
 19 32  1  0
M  ISO  8  20  13  21  13  22  13  23  13  24  13  25  13  26  14  27  14
M  ISO  6  28  14  29  14  30  14  31  14  42  15  46  15
M  END
>  <DihAtoms>  (1) 
17,18,31,32

>  <DihDeg>  (1) 
7.704757389262774

$$$$
