
 OpenBabel03272507323D

 43 48  0  0  1  0  0  0  0  0999 V2000
   33.7510   26.6110   46.7920 C   0  0  1  0  0  0  0  0  0  0  0  0
   33.6280   25.1710   47.4300 C   0  0  0  0  0  0  0  0  0  0  0  0
   32.8860   25.5790   46.2140 C   0  0  2  0  0  0  0  0  0  0  0  0
   34.8290   26.7830   46.5890 H   0  0  0  0  0  0  0  0  0  0  0  0
   33.0730   25.0740   48.3560 H   0  0  0  0  0  0  0  0  0  0  0  0
   34.4930   24.5060   47.3110 H   0  0  0  0  0  0  0  0  0  0  0  0
   31.7950   25.8190   46.3110 H   0  0  0  0  0  0  0  0  0  0  0  0
   33.1650   27.6240   47.7340 C   0  0  0  0  0  0  0  0  0  0  0  0
   31.9200   27.8940   47.7280 O   0  0  0  0  0  0  0  0  0  0  0  0
   35.8170   29.1340   49.6020 C   0  0  0  0  0  0  0  0  0  0  0  0
   34.7590   29.4630   50.4320 C   0  0  0  0  0  0  0  0  0  0  0  0
   33.5930   28.9430   49.8490 C   0  0  0  0  0  0  0  0  0  0  0  0
   34.0180   28.3250   48.6930 C   0  0  0  0  0  0  0  0  0  0  0  0
   35.3230   28.4650   48.5940 O   0  0  0  0  0  0  0  0  0  0  0  0
   34.6810   30.0090   51.3790 H   0  0  0  0  0  0  0  0  0  0  0  0
   32.5770   29.0120   50.2280 H   0  0  0  0  0  0  0  0  0  0  0  0
   37.1800   29.5190   49.9070 C   0  0  0  0  0  0  0  0  0  0  0  0
   37.7830   28.9430   50.8250 O   0  0  0  0  0  0  0  0  0  0  0  0
   37.7570   30.5670   49.1100 C   0  0  0  0  0  0  0  0  0  0  0  0
   38.0430   31.7610   49.7490 C   0  0  0  0  0  0  0  0  0  0  0  0
   38.6020   32.8000   48.9980 C   0  0  0  0  0  0  0  0  0  0  0  0
   38.8380   32.5810   47.6600 N   0  0  0  0  0  0  0  0  0  0  0  0
   38.5470   31.4110   47.0800 C   0  0  0  0  0  0  0  0  0  0  0  0
   38.0120   30.4110   47.7890 N   0  0  0  0  0  0  0  0  0  0  0  0
   37.8560   31.9260   50.7960 H   0  0  0  0  0  0  0  0  0  0  0  0
   38.8370   33.7530   49.4770 H   0  0  0  0  0  0  0  0  0  0  0  0
   38.7460   31.2710   46.0210 H   0  0  0  0  0  0  0  0  0  0  0  0
   33.2390   24.8340   44.9620 C   0  0  0  0  0  2  0  0  0  0  0  0
   34.3770   25.4000   44.2320 C   0  0  0  0  0  0  0  0  0  0  0  0
   35.6120   24.9230   44.2070 C   0  0  0  0  0  0  0  0  0  0  0  0
   36.6340   25.5750   43.4650 N   0  0  0  0  0  0  0  0  0  0  0  0
   37.9860   25.5500   43.0290 C   0  0  1  0  0  0  0  0  0  0  0  0
   39.1000   25.1410   43.4750 O   0  0  0  0  0  1  0  0  0  0  0  0
   37.5680   26.2270   41.7800 C   0  0  0  0  0  3  0  0  0  0  0  0
   37.1630   25.5930   40.9830 H   0  0  0  0  0  0  0  0  0  0  0  0
   36.5490   26.8080   42.7370 C   0  0  1  0  0  0  0  0  0  0  0  0
   34.9050   27.0200   42.0620 S   0  0  0  0  0  0  0  0  0  0  0  0
   33.9240   26.6070   43.5250 C   0  0  0  0  0  3  0  0  0  0  0  0
   33.9790   27.4950   44.2100 H   0  0  0  0  0  0  0  0  0  0  0  0
   36.0030   23.7040   44.9520 C   0  0  0  0  0  0  0  0  0  0  0  0
   35.4330   22.6340   45.1760 O   0  0  0  0  0  0  0  0  0  0  0  0
   37.2140   23.5760   45.5820 O   0  0  0  0  0  0  0  0  0  0  0  0
   37.7650   22.7500   45.5300 H   0  0  0  0  0  0  0  0  0  0  0  0
  1  4  1  6  0  0  0
  1  2  1  0  0  0  0
  1  8  1  0  0  0  0
  2  5  1  0  0  0  0
  3  7  1  1  0  0  0
  3  1  1  0  0  0  0
  3  2  1  0  0  0  0
  6  2  1  0  0  0  0
  8 13  1  0  0  0  0
  9  8  2  0  0  0  0
 10 17  1  0  0  0  0
 10 11  2  0  0  0  0
 11 15  1  0  0  0  0
 12 16  1  0  0  0  0
 12 11  1  0  0  0  0
 13 12  2  0  0  0  0
 14 13  1  0  0  0  0
 14 10  1  0  0  0  0
 17 18  2  0  0  0  0
 19 20  1  0  0  0  0
 19 17  1  0  0  0  0
 20 25  1  0  0  0  0
 21 26  1  0  0  0  0
 21 20  2  0  0  0  0
 22 21  1  0  0  0  0
 23 22  2  0  0  0  0
 23 24  1  0  0  0  0
 24 19  2  0  0  0  0
 27 23  1  0  0  0  0
 28  3  1  0  0  0  0
 29 28  1  0  0  0  0
 30 29  2  0  0  0  0
 30 40  1  0  0  0  0
 31 30  1  0  0  0  0
 32 31  1  0  0  0  0
 32 33  1  1  0  0  0
 34 32  1  0  0  0  0
 35 34  1  0  0  0  0
 36 34  1  6  0  0  0
 36 32  1  0  0  0  0
 36 31  1  0  0  0  0
 37 36  1  0  0  0  0
 37 38  1  0  0  0  0
 38 39  1  0  0  0  0
 38 29  1  0  0  0  0
 40 41  2  0  0  0  0
 40 42  1  0  0  0  0
 43 42  1  0  0  0  0
M  END
>  <minimizedAffinity>
-5.14255142

>  <minimizedRMSD>
0.829618633

$$$$
