
     RDKit          3D

 46 49  0  0  0  0  0  0  0  0999 V2000
   34.7589   29.4251   48.7971 C   0  0  0  0  0  0  0  0  0  0  0  0
   34.2193   30.0573   47.6627 C   0  0  0  0  0  0  0  0  0  0  0  0
   33.4867   29.2574   46.7843 C   0  0  0  0  0  0  0  0  0  0  0  0
   33.3264   27.9160   47.0581 N   0  0  0  0  0  0  0  0  0  0  0  0
   33.8728   27.3492   48.1777 C   0  0  0  0  0  0  0  0  0  0  0  0
   34.5756   28.1134   49.0211 N   0  0  0  0  0  0  0  0  0  0  0  0
   35.5302   30.3008   49.7330 C   0  0  0  0  0  0  0  0  0  0  0  0
   36.4893   31.1659   48.9391 C   0  0  0  0  0  0  0  0  0  0  0  0
   37.9248   30.7955   49.1669 C   0  0  0  0  0  0  0  0  0  0  0  0
   38.3049   30.7994   50.6251 C   0  0  0  0  0  0  0  0  0  0  0  0
   37.2903   30.1308   51.5010 C   0  0  0  0  0  0  0  0  0  0  0  0
   36.2058   29.4182   50.7249 C   0  0  0  0  0  0  0  0  0  0  0  0
   34.3176   31.1020   47.4076 H   0  0  0  0  0  0  0  0  0  0  0  0
   33.7150   26.3049   48.3373 H   0  0  0  0  0  0  0  0  0  0  0  0
   34.8107   30.9611   50.2440 H   0  0  0  0  0  0  0  0  0  0  0  0
   36.3371   32.2194   49.1942 H   0  0  0  0  0  0  0  0  0  0  0  0
   36.3043   30.9993   47.8438 H   0  0  0  0  0  0  0  0  0  0  0  0
   38.5281   31.6179   48.6850 H   0  0  0  0  0  0  0  0  0  0  0  0
   38.1253   29.8017   48.7172 H   0  0  0  0  0  0  0  0  0  0  0  0
   38.4624   31.8233   50.9916 H   0  0  0  0  0  0  0  0  0  0  0  0
   39.3069   30.2909   50.6881 H   0  0  0  0  0  0  0  0  0  0  0  0
   36.8604   30.8181   52.2445 H   0  0  0  0  0  0  0  0  0  0  0  0
   37.8124   29.3276   52.0842 H   0  0  0  0  0  0  0  0  0  0  0  0
   36.6057   28.4782   50.2912 H   0  0  0  0  0  0  0  0  0  0  0  0
   35.4560   29.0873   51.4763 H   0  0  0  0  0  0  0  0  0  0  0  0
   32.8467   29.7753   45.5307 C   0  0  0  0  0  0  0  0  0  0  0  0
   33.0046   28.8893   44.3780 C   0  0  0  0  0  0  0  0  0  0  0  0
   32.0021   28.3432   43.7065 C   0  0  0  0  0  0  0  0  0  0  0  0
   30.6042   28.5712   44.0525 C   0  0  0  0  0  0  0  0  0  0  0  0
   29.9356   29.2013   44.9014 O   0  0  0  0  0  0  0  0  0  0  0  0
   29.5629   28.0101   43.3509 O   0  0  0  0  0  0  0  0  0  0  0  0
   32.2792   27.5049   42.6112 N   0  0  0  0  0  0  0  0  0  0  0  0
   31.8933   27.0371   41.3500 C   0  0  0  0  0  0  0  0  0  0  0  0
   30.8365   26.9909   40.6455 O   0  0  0  0  0  0  0  0  0  0  0  0
   33.2345   26.5475   41.0244 C   0  0  2  0  0  0  0  0  0  0  0  0
   33.7950   27.2758   40.4129 H   0  0  0  0  0  0  0  0  0  0  0  0
   33.4418   26.6388   42.5220 C   0  0  1  0  0  0  0  0  0  0  0  0
   34.9265   27.6580   42.8246 S   0  0  0  0  0  0  0  0  0  0  0  0
   34.4661   28.7746   44.1757 C   0  0  1  0  0  0  0  0  0  0  0  0
   34.9887   29.7505   44.0974 H   0  0  0  0  0  0  0  0  0  0  0  0
   33.3171   30.7772   45.3775 H   0  0  0  0  0  0  0  0  0  0  0  0
   31.8065   29.9922   45.8118 H   0  0  0  0  0  0  0  0  0  0  0  0
   28.7233   28.4671   43.0147 H   0  0  0  0  0  0  0  0  0  0  0  0
   33.2790   25.5170   40.6158 H   0  0  0  0  0  0  0  0  0  0  0  0
   33.3971   25.6855   43.0480 H   0  0  0  0  0  0  0  0  0  0  0  0
   34.8903   28.2838   45.1038 H   0  0  0  0  0  0  0  0  0  0  0  0
  1  6  1  0
  1  7  1  0
  2  1  2  0
  3  4  2  0
  3  2  1  0
  4  5  1  0
  5  6  2  0
  7 12  1  0
  8  9  1  0
  8  7  1  0
  9 10  1  0
 10 11  1  0
 12 11  1  0
  2 13  1  0
  5 14  1  0
  7 15  1  0
  8 16  1  0
  8 17  1  0
  9 18  1  0
  9 19  1  0
 10 20  1  0
 10 21  1  0
 11 22  1  0
 11 23  1  0
 12 24  1  0
 12 25  1  0
 26 27  1  0
 27 28  2  0
 28 29  1  0
 29 30  2  0
 29 31  1  0
 28 32  1  0
 32 33  1  0
 33 34  2  0
 33 35  1  0
 35 36  1  6
 35 37  1  0
 37 38  1  0
 38 39  1  0
 39 40  1  6
 39 27  1  0
 37 32  1  0
 26 41  1  0
 26 42  1  0
 31 43  1  0
 35 44  1  0
 37 45  1  1
 39 46  1  0
  3 26  1  0
M  ISO  8  13  14  14  14  15  13  16  13  17  13  18  13  19  13  20  13
M  ISO  7  21  13  22  13  23  13  24  13  25  13  36  15  40  15
M  END
>  <DihAtoms>  (1) 
3,2,25,26

>  <DihDeg>  (1) 
-87.34709850325552

$$$$
