REMARK  Name = 
REMARK  7 active torsions:
REMARK  status: ('A' for Active; 'I' for Inactive)
REMARK    1  A    between atoms: C_1  and  C_4
REMARK    2  A    between atoms: C_2  and  O_10
REMARK    3  A    between atoms: C_8  and  C_22
REMARK    4  A    between atoms: O_10  and  C_11
REMARK    5  A    between atoms: C_22  and  C_23
REMARK    6  A    between atoms: C_24  and  C_25
REMARK    7  A    between atoms: C_25  and  O_27
REMARK                            x       y       z     vdW  Elec       q    Type
REMARK                         _______ _______ _______ _____ _____    ______ ____
ROOT
ATOM      1  C   UNL     1      37.322  31.218  49.404  0.00  0.00    +0.000 A 
ATOM      2  C   UNL     1      38.317  32.185  49.468  0.00  0.00    +0.000 A 
ATOM      3  C   UNL     1      38.801  32.602  48.214  0.00  0.00    +0.000 A 
ATOM      4  N   UNL     1      38.305  32.073  47.054  0.00  0.00    +0.000 NA
ATOM      5  C   UNL     1      37.331  31.130  47.047  0.00  0.00    +0.000 A 
ATOM      6  N   UNL     1      36.837  30.700  48.252  0.00  0.00    +0.000 NA
ATOM      7  H   UNL     1      38.692  32.587  50.377  0.00  0.00    +0.000 HD
ATOM      8  H   UNL     1      39.581  33.354  48.148  0.00  0.00    +0.000 HD
ENDROOT
BRANCH   1   9
ATOM      9  C   UNL     1      36.763  30.768  50.718  0.00  0.00    +0.000 C 
ATOM     10  C   UNL     1      36.029  29.511  50.856  0.00  0.00    +0.000 C 
ATOM     11  C   UNL     1      37.472  29.513  51.257  0.00  0.00    +0.000 C 
ATOM     12  H   UNL     1      36.654  31.593  51.480  0.00  0.00    +0.000 HD
ATOM     13  H   UNL     1      35.204  29.577  51.625  0.00  0.00    +0.000 HD
ATOM     14  H   UNL     1      37.719  29.552  52.337  0.00  0.00    +0.000 HD
ATOM     15  H   UNL     1      38.200  28.991  50.609  0.00  0.00    +0.000 HD
BRANCH  10  16
ATOM     16  O   UNL     1      35.649  28.868  49.687  0.00  0.00    +0.000 OA
BRANCH  16  17
ATOM     17  C   UNL     1      34.438  28.396  49.304  0.00  0.00    +0.000 C 
ATOM     18  O   UNL     1      34.316  27.395  48.563  0.00  0.00    +0.000 OA
ATOM     19  N   UNL     1      33.456  29.211  49.873  0.00  0.00    +0.000 N 
ATOM     20  H   UNL     1      32.736  29.951  49.686  0.00  0.00    +0.000 HD
ATOM     21  H   UNL     1      33.306  29.108  50.919  0.00  0.00    +0.000 HD
ENDBRANCH  16  17
ENDBRANCH  10  16
ENDBRANCH   1   9
BRANCH   5  22
ATOM     22  C   UNL     1      36.835  30.596  45.745  0.00  0.00    +0.000 C 
BRANCH  22  23
ATOM     23  C   UNL     1      35.416  30.190  45.826  0.00  0.00    +0.000 C 
ATOM     24  C   UNL     1      34.431  30.684  45.102  0.00  0.00    +0.000 C 
ATOM     25  N   UNL     1      33.058  30.336  45.139  0.00  0.00    +0.000 N 
ATOM     26  C   UNL     1      31.769  30.317  44.544  0.00  0.00    +0.000 C 
ATOM     27  O   UNL     1      31.221  31.067  43.716  0.00  0.00    +0.000 OA
ATOM     28  C   UNL     1      31.468  29.095  45.328  0.00  0.00    +0.000 C 
ATOM     29  H   UNL     1      31.823  28.188  44.760  0.00  0.00    +0.000 HD
ATOM     30  C   UNL     1      32.501  29.655  46.280  0.00  0.00    +0.000 C 
ATOM     31  S   UNL     1      33.648  28.459  46.954  0.00  0.00    +0.000 S 
ATOM     32  C   UNL     1      35.320  29.139  46.865  0.00  0.00    +0.000 C 
ATOM     33  H   UNL     1      35.675  29.509  47.849  0.00  0.00    +0.000 HD
BRANCH  24  34
ATOM     34  C   UNL     1      34.791  31.720  44.144  0.00  0.00    +0.000 C 
ATOM     35  O   UNL     1      33.952  32.285  43.384  0.00  0.00    +0.000 OA
BRANCH  34  36
ATOM     36  O   UNL     1      35.362  32.669  43.322  0.00  0.00    +0.000 OA
ATOM     37  H   UNL     1      36.354  32.648  43.085  0.00  0.00    +0.000 HD
ENDBRANCH  34  36
ENDBRANCH  24  34
ENDBRANCH  22  23
ENDBRANCH   5  22
TORSDOF 7
