REMARK  Name = 
REMARK  7 active torsions:
REMARK  status: ('A' for Active; 'I' for Inactive)
REMARK    1  A    between atoms: C_1  and  C_11
REMARK    2  A    between atoms: C_5  and  C_14
REMARK    3  A    between atoms: C_8  and  N_13
REMARK    4  A    between atoms: C_17  and  C_27
REMARK    5  A    between atoms: C_27  and  C_28
REMARK    6  A    between atoms: C_29  and  C_30
REMARK    7  A    between atoms: C_30  and  O_32
REMARK                            x       y       z     vdW  Elec       q    Type
REMARK                         _______ _______ _______ _____ _____    ______ ____
ROOT
ATOM      1  C   UNL     1      35.592  30.378  49.320  0.00  0.00    +0.000 A 
ATOM      2  C   UNL     1      34.631  30.215  48.348  0.00  0.00    +0.000 A 
ATOM      3  N   UNL     1      33.657  29.371  48.800  0.00  0.00    +0.000 N 
ATOM      4  C   UNL     1      34.039  29.019  50.066  0.00  0.00    +0.000 A 
ATOM      5  N   UNL     1      35.208  29.634  50.367  0.00  0.00    +0.000 NA
ATOM      6  H   UNL     1      34.513  30.620  47.333  0.00  0.00    +0.000 HD
ATOM      7  H   UNL     1      32.783  29.043  48.300  0.00  0.00    +0.000 HD
ENDROOT
BRANCH   1  12
ATOM      8  C   UNL     1      38.359  31.630  47.369  0.00  0.00    +0.000 A 
ATOM      9  C   UNL     1      38.762  32.678  48.186  0.00  0.00    +0.000 A 
ATOM     10  C   UNL     1      38.188  33.041  49.381  0.00  0.00    +0.000 A 
ATOM     11  N   UNL     1      37.130  32.290  49.782  0.00  0.00    +0.000 NA
ATOM     12  C   UNL     1      36.706  31.249  49.002  0.00  0.00    +0.000 A 
ATOM     13  N   UNL     1      37.317  30.945  47.833  0.00  0.00    +0.000 NA
ATOM     14  H   UNL     1      39.607  33.291  47.883  0.00  0.00    +0.000 HD
ATOM     15  H   UNL     1      38.541  33.859  49.968  0.00  0.00    +0.000 HD
BRANCH   8  20
ATOM     16  C   UNL     1      39.236  29.937  44.290  0.00  0.00    +0.000 A 
ATOM     17  C   UNL     1      40.294  30.705  43.747  0.00  0.00    +0.000 A 
ATOM     18  C   UNL     1      40.683  31.818  44.485  0.00  0.00    +0.000 A 
ATOM     19  N   UNL     1      40.051  32.099  45.642  0.00  0.00    +0.000 NA
ATOM     20  C   UNL     1      39.058  31.349  46.119  0.00  0.00    +0.000 A 
ATOM     21  N   UNL     1      38.607  30.237  45.466  0.00  0.00    +0.000 NA
ATOM     22  H   UNL     1      38.942  29.075  43.709  0.00  0.00    +0.000 HD
ATOM     23  H   UNL     1      41.490  32.442  44.114  0.00  0.00    +0.000 HD
BRANCH  17  24
ATOM     24  N   UNL     1      40.895  30.332  42.530  0.00  0.00    +0.000 N 
ATOM     25  H   UNL     1      40.429  30.407  41.599  0.00  0.00    +0.000 HD
ATOM     26  H   UNL     1      41.883  29.950  42.551  0.00  0.00    +0.000 HD
ENDBRANCH  17  24
ENDBRANCH   8  20
ENDBRANCH   1  12
BRANCH   4  27
ATOM     27  C   UNL     1      33.215  28.097  50.893  0.00  0.00    +0.000 C 
BRANCH  27  28
ATOM     28  C   UNL     1      32.200  27.404  50.085  0.00  0.00    +0.000 C 
ATOM     29  C   UNL     1      30.904  27.470  50.285  0.00  0.00    +0.000 C 
ATOM     30  N   UNL     1      30.055  26.749  49.419  0.00  0.00    +0.000 N 
ATOM     31  C   UNL     1      28.852  25.965  49.295  0.00  0.00    +0.000 C 
ATOM     32  O   UNL     1      27.825  25.658  49.988  0.00  0.00    +0.000 OA
ATOM     33  C   UNL     1      29.195  25.541  47.909  0.00  0.00    +0.000 C 
ATOM     34  H   UNL     1      28.419  25.772  47.153  0.00  0.00    +0.000 HD
ATOM     35  C   UNL     1      30.270  26.575  47.975  0.00  0.00    +0.000 C 
ATOM     36  S   UNL     1      31.916  25.790  47.864  0.00  0.00    +0.000 S 
ATOM     37  C   UNL     1      32.938  26.666  49.057  0.00  0.00    +0.000 C 
ATOM     38  H   UNL     1      33.682  25.947  49.500  0.00  0.00    +0.000 HD
BRANCH  29  39
ATOM     39  C   UNL     1      30.259  28.256  51.358  0.00  0.00    +0.000 C 
ATOM     40  O   UNL     1      30.705  28.997  52.267  0.00  0.00    +0.000 OA
BRANCH  39  41
ATOM     41  O   UNL     1      28.921  28.306  51.551  0.00  0.00    +0.000 OA
ATOM     42  H   UNL     1      28.495  28.190  52.459  0.00  0.00    +0.000 HD
ENDBRANCH  39  41
ENDBRANCH  29  39
ENDBRANCH  27  28
ENDBRANCH   4  27
TORSDOF 7
