
     RDKit          3D

 47 50  0  0  0  0  0  0  0  0999 V2000
   39.5166   32.8221   46.3901 N   0  0  0  0  0  0  0  0  0  0  0  0
   38.2020   32.3259   46.1368 C   0  0  1  0  0  0  0  0  0  0  0  0
   37.8758   32.3809   44.6635 C   0  0  0  0  0  0  0  0  0  0  0  0
   38.8824   31.5852   43.9670 N   0  0  0  0  0  0  0  0  0  0  0  0
   40.1307   32.3656   44.1025 C   0  0  0  0  0  0  0  0  0  0  0  0
   40.5279   32.2421   45.5671 C   0  0  2  0  0  0  0  0  0  0  0  0
   40.7867   30.8609   45.8767 N   0  0  0  0  0  0  0  0  0  0  0  0
   38.0614   30.5502   46.6042 S   0  0  0  0  0  0  0  0  0  0  0  0
   37.8706   30.8962   50.6519 C   0  0  0  0  0  0  0  0  0  0  0  0
   38.2918   31.0764   49.3357 C   0  0  0  0  0  0  0  0  0  0  0  0
   37.6407   30.4207   48.3263 C   0  0  0  0  0  0  0  0  0  0  0  0
   36.5803   29.5984   48.6659 N   0  0  0  0  0  0  0  0  0  0  0  0
   36.2171   29.4598   49.9363 C   0  0  0  0  0  0  0  0  0  0  0  0
   36.8529   30.1015   50.9328 N   0  0  0  0  0  0  0  0  0  0  0  0
   39.5435   33.8375   46.4610 H   0  0  0  0  0  0  0  0  0  0  0  0
   37.4765   32.9255   46.7290 H   0  0  0  0  0  0  0  0  0  0  0  0
   36.8801   31.8946   44.5337 H   0  0  0  0  0  0  0  0  0  0  0  0
   37.8388   33.4102   44.2560 H   0  0  0  0  0  0  0  0  0  0  0  0
   38.5909   31.5847   42.9476 H   0  0  0  0  0  0  0  0  0  0  0  0
   40.8766   31.8611   43.4693 H   0  0  0  0  0  0  0  0  0  0  0  0
   39.9497   33.4109   43.8213 H   0  0  0  0  0  0  0  0  0  0  0  0
   41.4532   32.8379   45.6840 H   0  0  0  0  0  0  0  0  0  0  0  0
   40.2714   30.1989   45.2580 H   0  0  0  0  0  0  0  0  0  0  0  0
   40.7861   30.6389   46.8773 H   0  0  0  0  0  0  0  0  0  0  0  0
   38.4380   31.4498   51.3873 H   0  0  0  0  0  0  0  0  0  0  0  0
   39.0982   31.6890   48.9749 H   0  0  0  0  0  0  0  0  0  0  0  0
   35.0535   28.5506   50.2522 C   0  0  0  0  0  0  0  0  0  0  0  0
   34.3711   28.3077   48.9855 C   0  0  0  0  0  0  0  0  0  0  0  0
   34.1981   27.1060   48.4426 C   0  0  0  0  0  0  0  0  0  0  0  0
   34.6928   25.8653   49.0828 C   0  0  0  0  0  0  0  0  0  0  0  0
   35.3026   25.5595   50.1222 O   0  0  0  0  0  0  0  0  0  0  0  0
   34.5531   24.5997   48.5710 O   0  0  0  0  0  0  0  0  0  0  0  0
   33.5051   26.9971   47.2053 N   0  0  0  0  0  0  0  0  0  0  0  0
   33.3952   26.4842   45.8818 C   0  0  0  0  0  0  0  0  0  0  0  0
   33.7257   25.3742   45.3915 O   0  0  0  0  0  0  0  0  0  0  0  0
   32.7753   27.8160   45.5369 C   0  0  2  0  0  0  0  0  0  0  0  0
   32.0255   27.7468   44.7243 H   0  0  0  0  0  0  0  0  0  0  0  0
   32.2427   27.6781   46.9459 C   0  0  2  0  0  0  0  0  0  0  0  0
   32.2018   29.2887   47.7697 S   0  0  0  0  0  0  0  0  0  0  0  0
   33.9079   29.5742   48.3697 C   0  0  2  0  0  0  0  0  0  0  0  0
   34.5186   29.8453   47.4811 H   0  0  0  0  0  0  0  0  0  0  0  0
   34.3624   29.0914   50.9529 H   0  0  0  0  0  0  0  0  0  0  0  0
   35.5035   27.6855   50.7518 H   0  0  0  0  0  0  0  0  0  0  0  0
   35.3294   23.9879   48.3695 H   0  0  0  0  0  0  0  0  0  0  0  0
   33.5771   28.5638   45.4250 H   0  0  0  0  0  0  0  0  0  0  0  0
   31.3417   27.0710   46.9825 H   0  0  0  0  0  0  0  0  0  0  0  0
   33.8296   30.3754   49.0948 H   0  0  0  0  0  0  0  0  0  0  0  0
  2  1  1  0
  2  8  1  0
  3  2  1  0
  4  5  1  0
  4  3  1  0
  5  6  1  0
  6  7  1  0
  6  1  1  0
  8 11  1  0
  9 14  2  0
 10  9  1  0
 11 12  1  0
 11 10  2  0
 12 13  2  0
 13 14  1  0
  1 15  1  0
  2 16  1  1
  3 17  1  0
  3 18  1  0
  4 19  1  0
  5 20  1  0
  5 21  1  0
  6 22  1  6
  7 23  1  0
  7 24  1  0
  9 25  1  0
 10 26  1  0
 27 28  1  0
 28 29  2  0
 29 30  1  0
 30 31  2  0
 30 32  1  0
 29 33  1  0
 33 34  1  0
 34 35  2  0
 34 36  1  0
 36 37  1  6
 36 38  1  0
 38 39  1  0
 39 40  1  0
 40 41  1  6
 40 28  1  0
 38 33  1  0
 27 42  1  0
 27 43  1  0
 32 44  1  0
 36 45  1  0
 38 46  1  6
 40 47  1  0
 13 27  1  0
M  ISO  8  15   5  16  13  17  13  18  13  19   5  20  13  21  13  22  13
M  ISO  6  23   5  24   5  25  14  26  14  37  15  41  15
M  END
>  <DihAtoms>  (1) 
11,12,26,27

>  <DihDeg>  (1) 
89.99253520787815

$$$$
