
     RDKit          3D

 42 45  0  0  0  0  0  0  0  0999 V2000
   36.7627   30.7684   50.7181 C   0  0  1  0  0  0  0  0  0  0  0  0
   36.0295   29.5113   50.8556 C   0  0  2  0  0  0  0  0  0  0  0  0
   37.4718   29.5126   51.2574 C   0  0  0  0  0  0  0  0  0  0  0  0
   37.3220   31.2183   49.4044 C   0  0  0  0  0  0  0  0  0  0  0  0
   38.3173   32.1854   49.4675 C   0  0  0  0  0  0  0  0  0  0  0  0
   38.8012   32.6020   48.2136 C   0  0  0  0  0  0  0  0  0  0  0  0
   38.3049   32.0733   47.0537 N   0  0  0  0  0  0  0  0  0  0  0  0
   37.3309   31.1295   47.0467 C   0  0  0  0  0  0  0  0  0  0  0  0
   36.8365   30.6999   48.2520 N   0  0  0  0  0  0  0  0  0  0  0  0
   35.6494   28.8678   49.6874 O   0  0  0  0  0  0  0  0  0  0  0  0
   34.4382   28.3963   49.3041 C   0  0  0  0  0  0  0  0  0  0  0  0
   34.3164   27.3954   48.5628 O   0  0  0  0  0  0  0  0  0  0  0  0
   33.4562   29.2107   49.8728 N   0  0  0  0  0  0  0  0  0  0  0  0
   36.6535   31.5935   51.4797 H   0  0  0  0  0  0  0  0  0  0  0  0
   35.2036   29.5766   51.6252 H   0  0  0  0  0  0  0  0  0  0  0  0
   37.7190   29.5524   52.3372 H   0  0  0  0  0  0  0  0  0  0  0  0
   38.1997   28.9915   50.6090 H   0  0  0  0  0  0  0  0  0  0  0  0
   38.6924   32.5869   50.3773 H   0  0  0  0  0  0  0  0  0  0  0  0
   39.5805   33.3538   48.1482 H   0  0  0  0  0  0  0  0  0  0  0  0
   32.7356   29.9515   49.6859 H   0  0  0  0  0  0  0  0  0  0  0  0
   33.3058   29.1082   50.9189 H   0  0  0  0  0  0  0  0  0  0  0  0
   36.8352   30.5962   45.7445 C   0  0  0  0  0  0  0  0  0  0  0  0
   35.7025   31.3919   45.2243 C   0  0  0  0  0  0  0  0  0  0  0  0
   35.6780   32.0353   44.0741 C   0  0  0  0  0  0  0  0  0  0  0  0
   36.8794   31.9435   43.2576 C   0  0  0  0  0  0  0  0  0  0  0  0
   36.9998   32.5090   42.1325 O   0  0  0  0  0  0  0  0  0  0  0  0
   38.1057   31.7155   42.6679 O   0  0  0  0  0  0  0  0  0  0  0  0
   34.6257   32.8123   43.5284 N   0  0  0  0  0  0  0  0  0  0  0  0
   33.9919   33.4347   42.4209 C   0  0  0  0  0  0  0  0  0  0  0  0
   34.4362   33.8719   41.3431 O   0  0  0  0  0  0  0  0  0  0  0  0
   32.7001   33.3036   43.1353 C   0  0  2  0  0  0  0  0  0  0  0  0
   32.2515   32.2923   42.9160 H   0  0  0  0  0  0  0  0  0  0  0  0
   33.5731   33.3216   44.3703 C   0  0  1  0  0  0  0  0  0  0  0  0
   33.1236   32.1478   45.6425 S   0  0  0  0  0  0  0  0  0  0  0  0
   34.6219   31.3271   46.2351 C   0  0  2  0  0  0  0  0  0  0  0  0
   34.9581   31.7252   47.2139 H   0  0  0  0  0  0  0  0  0  0  0  0
   37.6692   30.4693   45.0306 H   0  0  0  0  0  0  0  0  0  0  0  0
   36.4966   29.5377   45.9539 H   0  0  0  0  0  0  0  0  0  0  0  0
   38.6780   30.9081   42.9131 H   0  0  0  0  0  0  0  0  0  0  0  0
   31.9919   34.1416   43.0418 H   0  0  0  0  0  0  0  0  0  0  0  0
   33.6866   34.3756   44.6972 H   0  0  0  0  0  0  0  0  0  0  0  0
   34.3360   30.2449   46.3732 H   0  0  0  0  0  0  0  0  0  0  0  0
  1  2  1  0
  1  3  1  0
  2  3  1  0
  4  5  2  0
  4  1  1  0
  6  5  1  0
  7  6  2  0
  8  7  1  0
  8  9  2  0
  9  4  1  0
 10  2  1  0
 11 10  1  0
 11 13  1  0
 12 11  2  0
  1 14  1  1
  2 15  1  1
  3 16  1  0
  3 17  1  0
  5 18  1  0
  6 19  1  0
 13 20  1  0
 13 21  1  0
 22 23  1  0
 23 24  2  0
 24 25  1  0
 25 26  2  0
 25 27  1  0
 24 28  1  0
 28 29  1  0
 29 30  2  0
 29 31  1  0
 31 32  1  6
 31 33  1  0
 33 34  1  0
 34 35  1  0
 35 36  1  1
 35 23  1  0
 33 28  1  0
 22 37  1  0
 22 38  1  0
 27 39  1  0
 31 40  1  0
 33 41  1  1
 35 42  1  0
  8 22  1  0
M  ISO  8  14  13  15  13  16  13  17  13  18  14  19  14  32  15  36  15
M  END
>  <DihAtoms>  (1) 
6,7,21,22

>  <DihDeg>  (1) 
-89.7058675211848

$$$$
