
 OpenBabel03272507423D

 48 52  0  0  1  0  0  0  0  0999 V2000
   36.4510   30.5420   49.2190 C   0  0  0  0  0  0  0  0  0  0  0  0
   35.2600   29.9090   49.5540 C   0  0  0  0  0  0  0  0  0  0  0  0
   35.1010   29.3040   50.7870 C   0  0  0  0  0  0  0  0  0  0  0  0
   36.1450   29.3490   51.6570 N   0  0  0  0  0  0  0  0  0  0  0  0
   37.3100   29.9770   51.3040 C   0  0  0  0  0  0  0  0  0  0  0  0
   37.4320   30.5470   50.1200 N   0  0  0  0  0  0  0  0  0  0  0  0
   34.2140   28.7920   51.1320 H   0  0  0  0  0  0  0  0  0  0  0  0
   38.1370   30.0050   52.0100 H   0  0  0  0  0  0  0  0  0  0  0  0
   33.7520   28.5560   48.1560 C   0  0  0  0  0  0  0  0  0  0  0  0
   34.3590   27.4170   48.0980 O   0  0  0  0  0  0  0  0  0  0  0  0
   34.1200   29.7850   48.7530 N   0  0  0  0  0  0  0  0  0  0  0  0
   33.6160   30.6850   48.6710 H   0  0  0  0  0  0  0  0  0  0  0  0
   29.6990   27.7820   44.7740 C   0  0  0  0  0  0  0  0  0  0  0  0
   30.7170   28.6090   44.6190 C   0  0  0  0  0  0  0  0  0  0  0  0
   31.6780   28.7830   45.6220 N   0  0  0  0  0  0  0  0  0  0  0  0
   32.4940   29.6490   46.4410 C   0  0  0  0  0  0  0  0  0  0  0  0
   32.9600   30.7990   46.2320 O   0  0  0  0  0  0  0  0  0  0  0  0
   32.4340   28.5360   47.4600 C   0  0  1  0  0  3  0  0  0  0  0  0
   32.2700   27.6150   46.3020 C   0  0  1  0  0  3  0  0  0  0  0  0
   31.0220   26.3560   46.6170 S   0  0  0  0  0  0  0  0  0  0  0  0
   29.4510   26.9770   45.9900 C   0  0  0  0  0  3  0  0  0  0  0  0
   28.9590   27.6690   46.7170 H   0  0  0  0  0  0  0  0  0  0  0  0
   28.7650   27.6890   43.6460 C   0  0  0  0  0  2  0  0  0  0  0  0
   28.1130   28.5890   43.6980 H   0  0  0  0  0  0  0  0  0  0  0  0
   30.8300   29.3480   43.3700 C   0  0  0  0  0  0  0  0  0  0  0  0
   31.8840   29.7870   42.8520 O   0  0  0  0  0  0  0  0  0  0  0  0
   30.6190   30.0110   42.1780 O   0  0  0  0  0  0  0  0  0  0  0  0
   29.6760   30.2390   41.8390 H   0  0  0  0  0  0  0  0  0  0  0  0
   36.4160   31.0730   47.9750 O   0  0  0  0  0  0  0  0  0  0  0  0
   37.8560   31.4490   45.9970 C   0  0  0  0  0  0  0  0  0  0  0  0
   37.5120   31.6200   47.3210 C   0  0  0  0  0  0  0  0  0  0  0  0
   38.2930   32.4090   48.1500 C   0  0  0  0  0  0  0  0  0  0  0  0
   39.4310   33.0250   47.6290 C   0  0  0  0  0  0  0  0  0  0  0  0
   39.7670   32.8480   46.3050 C   0  0  0  0  0  0  0  0  0  0  0  0
   38.9650   32.0590   45.5180 C   0  0  0  0  0  0  0  0  0  0  0  0
   38.0870   32.5890   49.1970 H   0  0  0  0  0  0  0  0  0  0  0  0
   40.0420   33.6410   48.2760 H   0  0  0  0  0  0  0  0  0  0  0  0
   40.6460   33.3150   45.8730 H   0  0  0  0  0  0  0  0  0  0  0  0
   39.3370   31.8750   44.0940 C   0  0  0  0  0  0  0  0  0  0  0  0
   40.1800   30.9640   43.5230 C   0  0  0  0  0  0  0  0  0  0  0  0
   40.1960   31.2000   42.1500 C   0  0  0  0  0  0  0  0  0  0  0  0
   39.3420   32.2640   41.9740 C   0  0  0  0  0  0  0  0  0  0  0  0
   38.8410   32.6530   43.1360 O   0  0  0  0  0  0  0  0  0  0  0  0
   40.6970   30.2270   44.1250 H   0  0  0  0  0  0  0  0  0  0  0  0
   40.7900   30.6080   41.4800 H   0  0  0  0  0  0  0  0  0  0  0  0
   39.1330   32.6970   41.0020 H   0  0  0  0  0  0  0  0  0  0  0  0
   36.2960   29.9700   44.5750 N   0  0  0  0  0  0  0  0  0  0  0  0
   36.9940   30.6210   45.2160 C   0  0  0  0  0  0  0  0  0  0  0  0
  1  2  2  0  0  0  0
  1  6  1  0  0  0  0
  2  3  1  0  0  0  0
  3  7  1  0  0  0  0
  3  4  2  0  0  0  0
  5  4  1  0  0  0  0
  5  8  1  0  0  0  0
  6  5  2  0  0  0  0
  9 11  1  0  0  0  0
 10  9  2  0  0  0  0
 11  2  1  0  0  0  0
 12 11  1  0  0  0  0
 13 21  1  0  0  0  0
 14 13  2  0  0  0  0
 14 15  1  0  0  0  0
 15 19  1  0  0  0  0
 15 16  1  0  0  0  0
 16 18  1  0  0  0  0
 17 16  2  0  0  0  0
 18  9  1  6  0  0  0
 19 20  1  1  0  0  0
 19 18  1  0  0  0  0
 21 20  1  0  0  0  0
 21 22  1  0  0  0  0
 23 24  1  0  0  0  0
 23 13  1  0  0  0  0
 25 14  1  0  0  0  0
 26 25  2  0  0  0  0
 27 25  1  0  0  0  0
 28 27  1  0  0  0  0
 29  1  1  0  0  0  0
 30 31  1  0  0  0  0
 31 29  1  0  0  0  0
 31 32  2  0  0  0  0
 32 36  1  0  0  0  0
 33 32  1  0  0  0  0
 33 37  1  0  0  0  0
 34 33  2  0  0  0  0
 35 30  2  0  0  0  0
 35 34  1  0  0  0  0
 38 34  1  0  0  0  0
 39 35  1  0  0  0  0
 40 39  2  0  0  0  0
 40 44  1  0  0  0  0
 41 40  1  0  0  0  0
 42 41  2  0  0  0  0
 42 43  1  0  0  0  0
 43 39  1  0  0  0  0
 45 41  1  0  0  0  0
 46 42  1  0  0  0  0
 47 48  3  0  0  0  0
 48 30  1  0  0  0  0
M  END
>  <minimizedAffinity>
-6.2136755

>  <minimizedRMSD>
1.66840506

$$$$
