
 OpenBabel03272507333D

 43 48  0  0  1  0  0  0  0  0999 V2000
   33.0910   27.1400   47.2620 C   0  0  1  0  0  0  0  0  0  0  0  0
   33.7190   25.7180   47.5420 C   0  0  0  0  0  0  0  0  0  0  0  0
   32.3860   25.9010   46.9230 C   0  0  2  0  0  0  0  0  0  0  0  0
   33.8200   27.6970   46.6360 H   0  0  0  0  0  0  0  0  0  0  0  0
   33.7600   25.3780   48.5710 H   0  0  0  0  0  0  0  0  0  0  0  0
   34.5530   25.4140   46.8980 H   0  0  0  0  0  0  0  0  0  0  0  0
   31.4760   25.7300   47.5570 H   0  0  0  0  0  0  0  0  0  0  0  0
   32.8010   27.8220   48.5690 C   0  0  0  0  0  0  0  0  0  0  0  0
   31.6380   27.7970   49.0880 O   0  0  0  0  0  0  0  0  0  0  0  0
   35.8530   29.2110   49.8170 C   0  0  0  0  0  0  0  0  0  0  0  0
   34.9720   29.8050   50.7030 C   0  0  0  0  0  0  0  0  0  0  0  0
   33.6810   29.3710   50.3630 C   0  0  0  0  0  0  0  0  0  0  0  0
   33.8600   28.5330   49.2840 C   0  0  0  0  0  0  0  0  0  0  0  0
   35.1440   28.4730   49.0030 O   0  0  0  0  0  0  0  0  0  0  0  0
   35.0960   30.4930   51.5470 H   0  0  0  0  0  0  0  0  0  0  0  0
   32.7460   29.6380   50.8460 H   0  0  0  0  0  0  0  0  0  0  0  0
   37.2820   29.4430   49.8840 C   0  0  0  0  0  0  0  0  0  0  0  0
   37.9830   28.7180   50.6050 O   0  0  0  0  0  0  0  0  0  0  0  0
   37.8060   30.5220   49.0920 C   0  0  0  0  0  0  0  0  0  0  0  0
   38.1520   31.6840   49.7600 C   0  0  0  0  0  0  0  0  0  0  0  0
   38.6610   32.7530   49.0170 C   0  0  0  0  0  0  0  0  0  0  0  0
   38.7920   32.5950   47.6560 N   0  0  0  0  0  0  0  0  0  0  0  0
   38.4460   31.4550   47.0470 C   0  0  0  0  0  0  0  0  0  0  0  0
   37.9580   30.4260   47.7500 N   0  0  0  0  0  0  0  0  0  0  0  0
   38.0480   31.8020   50.8250 H   0  0  0  0  0  0  0  0  0  0  0  0
   38.9420   33.6820   49.5190 H   0  0  0  0  0  0  0  0  0  0  0  0
   38.5610   31.3610   45.9710 H   0  0  0  0  0  0  0  0  0  0  0  0
   32.2530   25.4030   45.5160 C   0  0  0  0  0  2  0  0  0  0  0  0
   31.0090   24.6700   45.2570 C   0  0  0  0  0  0  0  0  0  0  0  0
   30.0080   25.0670   44.4880 C   0  0  0  0  0  0  0  0  0  0  0  0
   28.8450   24.2640   44.3270 N   0  0  0  0  0  0  0  0  0  0  0  0
   27.5910   24.1040   43.6790 C   0  0  1  0  0  0  0  0  0  0  0  0
   26.6690   24.8540   43.2400 O   0  0  0  0  0  1  0  0  0  0  0  0
   27.7910   22.6370   43.7150 C   0  0  0  0  0  3  0  0  0  0  0  0
   28.4060   22.2000   42.9190 H   0  0  0  0  0  0  0  0  0  0  0  0
   28.5310   23.0250   44.9770 C   0  0  1  0  0  0  0  0  0  0  0  0
   30.0240   22.0930   45.3000 S   0  0  0  0  0  0  0  0  0  0  0  0
   31.0490   23.4070   46.0070 C   0  0  0  0  0  3  0  0  0  0  0  0
   30.6820   23.5720   47.0560 H   0  0  0  0  0  0  0  0  0  0  0  0
   30.0290   26.3610   43.7670 C   0  0  0  0  0  0  0  0  0  0  0  0
   30.8920   26.9450   43.1090 O   0  0  0  0  0  0  0  0  0  0  0  0
   28.9480   27.2030   43.7230 O   0  0  0  0  0  0  0  0  0  0  0  0
   28.6520   27.6580   42.8890 H   0  0  0  0  0  0  0  0  0  0  0  0
  1  4  1  6  0  0  0
  1  2  1  0  0  0  0
  1  8  1  0  0  0  0
  2  5  1  0  0  0  0
  3  1  1  0  0  0  0
  3  2  1  0  0  0  0
  3  7  1  1  0  0  0
  6  2  1  0  0  0  0
  8  9  2  0  0  0  0
  8 13  1  0  0  0  0
 10 17  1  0  0  0  0
 10 11  2  0  0  0  0
 11 15  1  0  0  0  0
 12 11  1  0  0  0  0
 12 16  1  0  0  0  0
 13 12  2  0  0  0  0
 14 13  1  0  0  0  0
 14 10  1  0  0  0  0
 17 18  2  0  0  0  0
 19 20  1  0  0  0  0
 19 17  1  0  0  0  0
 20 25  1  0  0  0  0
 21 26  1  0  0  0  0
 21 20  2  0  0  0  0
 22 21  1  0  0  0  0
 23 22  2  0  0  0  0
 23 24  1  0  0  0  0
 24 19  2  0  0  0  0
 27 23  1  0  0  0  0
 28  3  1  0  0  0  0
 29 28  1  0  0  0  0
 29 38  1  0  0  0  0
 30 29  2  0  0  0  0
 31 30  1  0  0  0  0
 31 36  1  0  0  0  0
 32 33  1  1  0  0  0
 32 34  1  0  0  0  0
 32 31  1  0  0  0  0
 32 36  1  0  0  0  0
 35 34  1  0  0  0  0
 36 34  1  6  0  0  0
 36 37  1  0  0  0  0
 37 38  1  0  0  0  0
 38 39  1  0  0  0  0
 40 30  1  0  0  0  0
 41 40  2  0  0  0  0
 42 40  1  0  0  0  0
 43 42  1  0  0  0  0
M  END
>  <minimizedAffinity>
-5.23370028

>  <minimizedRMSD>
1.17524493

$$$$
