
 OpenBabel03272507333D

 43 48  0  0  1  0  0  0  0  0999 V2000
   33.1600   27.1340   47.2210 C   0  0  1  0  0  0  0  0  0  0  0  0
   33.7200   25.6850   47.5080 C   0  0  0  0  0  0  0  0  0  0  0  0
   32.4140   25.9280   46.8520 C   0  0  2  0  0  0  0  0  0  0  0  0
   33.9290   27.6650   46.6210 H   0  0  0  0  0  0  0  0  0  0  0  0
   33.7170   25.3370   48.5350 H   0  0  0  0  0  0  0  0  0  0  0  0
   34.5590   25.3510   46.8860 H   0  0  0  0  0  0  0  0  0  0  0  0
   31.4800   25.7900   47.4580 H   0  0  0  0  0  0  0  0  0  0  0  0
   32.8600   27.8190   48.5240 C   0  0  0  0  0  0  0  0  0  0  0  0
   31.6990   27.7740   49.0470 O   0  0  0  0  0  0  0  0  0  0  0  0
   35.8880   29.2700   49.7590 C   0  0  0  0  0  0  0  0  0  0  0  0
   34.9960   29.8680   50.6320 C   0  0  0  0  0  0  0  0  0  0  0  0
   33.7120   29.4110   50.2950 C   0  0  0  0  0  0  0  0  0  0  0  0
   33.9070   28.5570   49.2310 C   0  0  0  0  0  0  0  0  0  0  0  0
   35.1930   28.5090   48.9560 O   0  0  0  0  0  0  0  0  0  0  0  0
   35.1070   30.5710   51.4650 H   0  0  0  0  0  0  0  0  0  0  0  0
   32.7710   29.6730   50.7700 H   0  0  0  0  0  0  0  0  0  0  0  0
   37.3140   29.5230   49.8270 C   0  0  0  0  0  0  0  0  0  0  0  0
   38.0160   28.8420   50.5890 O   0  0  0  0  0  0  0  0  0  0  0  0
   37.8320   30.5690   48.9890 C   0  0  0  0  0  0  0  0  0  0  0  0
   38.1950   31.7530   49.6100 C   0  0  0  0  0  0  0  0  0  0  0  0
   38.6990   32.7900   48.8200 C   0  0  0  0  0  0  0  0  0  0  0  0
   38.8090   32.5810   47.4640 N   0  0  0  0  0  0  0  0  0  0  0  0
   38.4480   31.4220   46.9030 C   0  0  0  0  0  0  0  0  0  0  0  0
   37.9640   30.4220   47.6490 N   0  0  0  0  0  0  0  0  0  0  0  0
   38.1070   31.9100   50.6710 H   0  0  0  0  0  0  0  0  0  0  0  0
   38.9930   33.7350   49.2830 H   0  0  0  0  0  0  0  0  0  0  0  0
   38.5460   31.2880   45.8290 H   0  0  0  0  0  0  0  0  0  0  0  0
   32.3020   25.4450   45.4380 C   0  0  0  0  0  2  0  0  0  0  0  0
   30.9810   24.9100   45.0930 C   0  0  0  0  0  0  0  0  0  0  0  0
   30.0000   25.5640   44.4930 C   0  0  0  0  0  0  0  0  0  0  0  0
   28.7550   24.9310   44.2220 N   0  0  0  0  0  0  0  0  0  0  0  0
   27.4700   25.0410   43.6270 C   0  0  1  0  0  0  0  0  0  0  0  0
   26.6150   25.9540   43.4230 O   0  0  0  0  0  1  0  0  0  0  0  0
   27.5170   23.5940   43.3210 C   0  0  0  0  0  3  0  0  0  0  0  0
   28.0550   23.2950   42.4140 H   0  0  0  0  0  0  0  0  0  0  0  0
   28.3370   23.6110   44.5930 C   0  0  1  0  0  0  0  0  0  0  0  0
   29.7360   22.4950   44.6120 S   0  0  0  0  0  0  0  0  0  0  0  0
   30.9160   23.5110   45.5360 C   0  0  0  0  0  3  0  0  0  0  0  0
   30.6050   23.4630   46.6150 H   0  0  0  0  0  0  0  0  0  0  0  0
   30.1300   26.9810   44.0800 C   0  0  0  0  0  0  0  0  0  0  0  0
   30.0150   28.0480   44.6850 O   0  0  0  0  0  0  0  0  0  0  0  0
   30.4370   27.3560   42.7970 O   0  0  0  0  0  0  0  0  0  0  0  0
   31.0950   28.0700   42.5870 H   0  0  0  0  0  0  0  0  0  0  0  0
  1  4  1  6  0  0  0
  1  2  1  0  0  0  0
  1  8  1  0  0  0  0
  2  5  1  0  0  0  0
  3  1  1  0  0  0  0
  3  7  1  1  0  0  0
  3  2  1  0  0  0  0
  6  2  1  0  0  0  0
  8  9  2  0  0  0  0
  8 13  1  0  0  0  0
 10 17  1  0  0  0  0
 10 11  2  0  0  0  0
 11 15  1  0  0  0  0
 12 11  1  0  0  0  0
 12 16  1  0  0  0  0
 13 12  2  0  0  0  0
 14 13  1  0  0  0  0
 14 10  1  0  0  0  0
 17 18  2  0  0  0  0
 19 20  1  0  0  0  0
 19 17  1  0  0  0  0
 20 25  1  0  0  0  0
 21 26  1  0  0  0  0
 21 20  2  0  0  0  0
 22 21  1  0  0  0  0
 23 22  2  0  0  0  0
 23 24  1  0  0  0  0
 24 19  2  0  0  0  0
 27 23  1  0  0  0  0
 28  3  1  0  0  0  0
 29 28  1  0  0  0  0
 29 38  1  0  0  0  0
 30 29  2  0  0  0  0
 31 30  1  0  0  0  0
 31 36  1  0  0  0  0
 32 33  1  1  0  0  0
 32 31  1  0  0  0  0
 32 36  1  0  0  0  0
 34 32  1  0  0  0  0
 35 34  1  0  0  0  0
 36 34  1  6  0  0  0
 36 37  1  0  0  0  0
 37 38  1  0  0  0  0
 38 39  1  0  0  0  0
 40 30  1  0  0  0  0
 40 41  2  0  0  0  0
 42 40  1  0  0  0  0
 43 42  1  0  0  0  0
M  END
>  <minimizedAffinity>
-5.17691469

>  <minimizedRMSD>
1.28668165

$$$$
