
 OpenBabel03272509073D

 47 52  0  0  1  0  0  0  0  0999 V2000
   32.8640   27.2250   47.6270 C   0  0  0  0  0  0  0  0  0  0  0  0
   33.6490   26.0780   47.5170 C   0  0  0  0  0  0  0  0  0  0  0  0
   33.8250   25.4230   46.3070 C   0  0  0  0  0  0  0  0  0  0  0  0
   33.2090   25.9080   45.1570 C   0  0  0  0  0  0  0  0  0  0  0  0
   32.4440   27.0320   45.2760 C   0  0  0  0  0  0  0  0  0  0  0  0
   32.2600   27.6920   46.4690 C   0  0  0  0  0  0  0  0  0  0  0  0
   34.1080   25.7410   48.4500 H   0  0  0  0  0  0  0  0  0  0  0  0
   34.4550   24.5510   46.3620 H   0  0  0  0  0  0  0  0  0  0  0  0
   33.3730   25.3690   44.2360 H   0  0  0  0  0  0  0  0  0  0  0  0
   31.9740   27.3820   44.3480 H   0  0  0  0  0  0  0  0  0  0  0  0
   32.6720   27.9420   48.9080 C   0  0  0  0  0  0  0  0  0  0  0  0
   31.7540   28.5400   48.9660 H   0  0  0  0  0  0  0  0  0  0  0  0
   32.5410   27.1350   49.6890 H   0  0  0  0  0  0  0  0  0  0  0  0
   35.0990   28.2710   49.4270 C   0  0  0  0  0  3  0  0  0  0  0  0
   33.8690   28.7000   49.3460 C   0  0  0  0  0  3  0  0  0  0  0  0
   37.3740   30.1900   51.5400 C   0  0  0  0  0  0  0  0  0  0  0  0
   38.0650   30.9620   50.5890 C   0  0  0  0  0  0  0  0  0  0  0  0
   37.7240   30.8010   49.2270 C   0  0  0  0  0  0  0  0  0  0  0  0
   36.7380   29.8970   48.9040 N   0  0  0  0  0  0  0  0  0  0  0  0
   36.1190   29.1900   49.8840 C   0  0  0  0  0  0  0  0  0  0  0  0
   36.4250   29.3280   51.1760 N   0  0  0  0  0  0  0  0  0  0  0  0
   37.7140   30.3970   52.5380 H   0  0  0  0  0  0  0  0  0  0  0  0
   38.8330   31.6800   50.7230 H   0  0  0  0  0  0  0  0  0  0  0  0
   38.3760   31.5520   48.1540 C   0  0  0  0  0  0  0  0  0  0  0  0
   38.5860   31.0130   46.8980 C   0  0  0  0  0  0  0  0  0  0  0  0
   39.2260   31.9910   46.1260 C   0  0  0  0  0  0  0  0  0  0  0  0
   39.3750   33.0710   46.9390 N   0  0  0  0  0  0  0  0  0  0  0  0
   38.8660   32.7970   48.1430 N   0  0  0  0  0  0  0  0  0  0  0  0
   38.3560   30.0500   46.4650 H   0  0  0  0  0  0  0  0  0  0  0  0
   39.5410   31.9170   45.0990 H   0  0  0  0  0  0  0  0  0  0  0  0
   39.8290   33.9470   46.6010 H   0  0  0  0  0  0  0  0  0  0  0  0
   31.4560   28.8950   46.4310 C   0  0  0  0  0  2  0  0  0  0  0  0
   31.6740   29.9170   45.4290 C   0  0  0  0  0  0  0  0  0  0  0  0
   32.7690   30.5740   45.0540 C   0  0  0  0  0  0  0  0  0  0  0  0
   32.8350   31.5750   44.0460 N   0  0  0  0  0  0  0  0  0  0  0  0
   33.4960   32.2920   43.0250 C   0  0  1  0  0  0  0  0  0  0  0  0
   34.6890   32.3670   42.6310 O   0  0  0  0  0  1  0  0  0  0  0  0
   32.2950   32.9670   42.5320 C   0  0  0  0  0  3  0  0  0  0  0  0
   32.3590   34.0730   42.4630 H   0  0  0  0  0  0  0  0  0  0  0  0
   31.6830   32.4220   43.7800 C   0  0  2  0  0  0  0  0  0  0  0  0
   30.3530   31.2560   43.3820 S   0  0  0  0  0  0  0  0  0  0  0  0
   30.3830   30.1650   44.7870 C   0  0  0  0  0  3  0  0  0  0  0  0
   29.8390   29.2050   44.5980 H   0  0  0  0  0  0  0  0  0  0  0  0
   34.0250   30.2660   45.7350 C   0  0  0  0  0  2  0  0  0  0  0  0
   34.9430   29.6510   45.1220 O   0  0  0  0  0  0  0  0  0  0  0  0
   35.2130   29.9760   46.3830 O   0  0  0  0  0  0  0  0  0  0  0  0
   35.5870   30.5920   47.1280 H   0  0  0  0  0  0  0  0  0  0  0  0
  1 11  1  0  0  0  0
  2  1  1  0  0  0  0
  2  7  1  0  0  0  0
  3  8  1  0  0  0  0
  3  2  2  0  0  0  0
  4  5  2  0  0  0  0
  4  3  1  0  0  0  0
  5  6  1  0  0  0  0
  6  1  2  0  0  0  0
  9  4  1  0  0  0  0
 10  5  1  0  0  0  0
 11 12  1  0  0  0  0
 11 15  1  0  0  0  0
 11 13  1  0  0  0  0
 14 20  1  0  0  0  0
 15 14  2  0  0  0  0
 16 22  1  0  0  0  0
 17 23  1  0  0  0  0
 17 16  2  0  0  0  0
 18 17  1  0  0  0  0
 19 18  2  0  0  0  0
 19 20  1  0  0  0  0
 20 21  2  0  0  0  0
 21 16  1  0  0  0  0
 24 18  1  0  0  0  0
 25 24  1  0  0  0  0
 26 25  2  0  0  0  0
 26 27  1  0  0  0  0
 27 28  1  0  0  0  0
 28 24  2  0  0  0  0
 29 25  1  0  0  0  0
 30 26  1  0  0  0  0
 31 27  1  0  0  0  0
 32  6  1  0  0  0  0
 33 32  1  0  0  0  0
 34 33  2  0  0  0  0
 34 44  1  0  0  0  0
 35 34  1  0  0  0  0
 36 37  1  1  0  0  0
 36 40  1  0  0  0  0
 36 35  1  0  0  0  0
 38 36  1  0  0  0  0
 39 38  1  0  0  0  0
 40 38  1  1  0  0  0
 40 35  1  0  0  0  0
 41 40  1  0  0  0  0
 41 42  1  0  0  0  0
 42 33  1  0  0  0  0
 43 42  1  0  0  0  0
 45 44  1  0  0  0  0
 45 46  1  0  0  0  0
 46 47  1  0  0  0  0
M  END
>  <minimizedAffinity>
-6.51733446

>  <minimizedRMSD>
2.99821019

$$$$
