
 OpenBabel03272509533D

 50 54  0  0  1  0  0  0  0  0999 V2000
   32.0200   28.0300   46.6770 C   0  0  0  0  0  0  0  0  0  0  0  0
   32.3120   26.9540   46.6110 H   0  0  0  0  0  0  0  0  0  0  0  0
   31.7090   28.3200   45.6440 H   0  0  0  0  0  0  0  0  0  0  0  0
   30.8200   28.1720   47.5290 C   0  0  0  0  0  0  0  0  0  0  0  0
   30.8240   27.5830   48.7910 C   0  0  0  0  0  0  0  0  0  0  0  0
   29.7730   27.6540   49.6550 C   0  0  0  0  0  0  0  0  0  0  0  0
   28.6900   28.3200   49.2740 N   0  0  0  0  0  0  0  0  0  0  0  0
   28.6690   28.9030   48.0390 C   0  0  0  0  0  0  0  0  0  0  0  0
   29.7080   28.8440   47.1620 N   0  0  0  0  0  0  0  0  0  0  0  0
   31.7070   27.0370   49.1110 H   0  0  0  0  0  0  0  0  0  0  0  0
   29.8280   27.1780   50.6240 H   0  0  0  0  0  0  0  0  0  0  0  0
   27.4380   29.6590   47.6080 C   0  0  0  0  0  2  0  0  0  0  0  0
   26.9920   29.3220   46.2560 C   0  0  0  0  0  0  0  0  0  0  0  0
   26.8350   30.2530   45.3330 C   0  0  0  0  0  0  0  0  0  0  0  0
   26.4040   29.9140   44.0270 N   0  0  0  0  0  0  0  0  0  0  0  0
   25.5870   30.2700   42.9250 C   0  0  0  0  0  0  0  0  0  0  0  0
   24.8760   31.2040   42.5170 O   0  0  0  0  0  0  0  0  0  0  0  0
   25.8750   28.9700   42.2770 C   0  0  0  0  0  3  0  0  0  0  0  0
   26.2580   29.1250   41.2610 H   0  0  0  0  0  0  0  0  0  0  0  0
   26.9040   28.7030   43.3550 C   0  0  2  0  0  3  0  0  0  0  0  0
   26.5180   27.3190   44.4220 S   0  0  0  0  0  0  0  0  0  0  0  0
   26.7670   27.8680   46.1240 C   0  0  0  0  0  3  0  0  0  0  0  0
   25.9200   27.5120   46.7450 H   0  0  0  0  0  0  0  0  0  0  0  0
   27.0980   31.6540   45.6260 C   0  0  0  0  0  0  0  0  0  0  0  0
   28.0250   32.3160   45.1080 O   0  0  0  0  0  0  0  0  0  0  0  0
   27.0350   32.9190   46.1370 O   0  0  0  0  0  0  0  0  0  0  0  0
   26.8560   33.0500   47.1410 H   0  0  0  0  0  0  0  0  0  0  0  0
   33.1390   28.9300   47.0990 C   0  0  0  0  0  0  0  0  0  0  0  0
   33.6260   29.4080   46.2200 H   0  0  0  0  0  0  0  0  0  0  0  0
   32.7900   29.7630   47.7430 H   0  0  0  0  0  0  0  0  0  0  0  0
   34.1630   28.1800   47.7500 O   0  0  0  0  0  0  0  0  0  0  0  0
   35.5090   29.2680   50.9090 C   0  0  0  0  0  0  0  0  0  0  0  0
   36.5160   30.1660   50.4660 C   0  0  0  0  0  0  0  0  0  0  0  0
   36.6590   30.3330   49.1070 C   0  0  0  0  0  0  0  0  0  0  0  0
   35.8100   29.6110   48.2980 N   0  0  0  0  0  0  0  0  0  0  0  0
   34.8690   28.7700   48.7480 C   0  0  0  0  0  0  0  0  0  0  0  0
   34.7310   28.6090   50.0710 N   0  0  0  0  0  0  0  0  0  0  0  0
   35.4680   29.1970   51.9830 H   0  0  0  0  0  0  0  0  0  0  0  0
   37.1780   30.7300   51.0790 H   0  0  0  0  0  0  0  0  0  0  0  0
   37.4790   32.9950   49.8900 F   0  0  0  0  0  0  0  0  0  0  0  0
   38.0170   32.4440   48.8110 C   0  0  0  0  0  0  0  0  0  0  0  0
   37.6160   31.1960   48.4620 C   0  0  0  0  0  0  0  0  0  0  0  0
   38.2480   30.7140   47.3100 C   0  0  0  0  0  0  0  0  0  0  0  0
   39.1780   31.4340   46.6050 C   0  0  0  0  0  0  0  0  0  0  0  0
   39.5460   32.6980   47.0040 C   0  0  0  0  0  0  0  0  0  0  0  0
   38.9460   33.1980   48.1290 C   0  0  0  0  0  0  0  0  0  0  0  0
   38.0220   29.7200   46.9130 H   0  0  0  0  0  0  0  0  0  0  0  0
   39.6570   31.0460   45.7150 H   0  0  0  0  0  0  0  0  0  0  0  0
   40.2720   33.2680   46.4590 H   0  0  0  0  0  0  0  0  0  0  0  0
   39.2180   34.1900   48.4640 H   0  0  0  0  0  0  0  0  0  0  0  0
  1 28  1  0  0  0  0
  1  4  1  0  0  0  0
  2  1  1  0  0  0  0
  3  1  1  0  0  0  0
  4  5  1  0  0  0  0
  5 10  1  0  0  0  0
  5  6  2  0  0  0  0
  6 11  1  0  0  0  0
  7  6  1  0  0  0  0
  8  7  2  0  0  0  0
  9  4  2  0  0  0  0
  9  8  1  0  0  0  0
 12  8  1  0  0  0  0
 13 12  1  0  0  0  0
 14 24  1  0  0  0  0
 14 13  2  0  0  0  0
 15 14  1  0  0  0  0
 16 15  1  0  0  0  0
 17 16  2  0  0  0  0
 18 16  1  0  0  0  0
 19 18  1  0  0  0  0
 20 18  1  6  0  0  0
 20 15  1  0  0  0  0
 20 21  1  0  0  0  0
 21 22  1  0  0  0  0
 22 13  1  0  0  0  0
 22 23  1  0  0  0  0
 24 26  1  0  0  0  0
 25 24  2  0  0  0  0
 26 27  1  0  0  0  0
 28 30  1  0  0  0  0
 28 31  1  0  0  0  0
 29 28  1  0  0  0  0
 31 36  1  0  0  0  0
 32 38  1  0  0  0  0
 33 32  1  0  0  0  0
 33 39  1  0  0  0  0
 34 33  2  0  0  0  0
 35 36  2  0  0  0  0
 35 34  1  0  0  0  0
 36 37  1  0  0  0  0
 37 32  2  0  0  0  0
 41 40  1  0  0  0  0
 42 41  1  0  0  0  0
 42 34  1  0  0  0  0
 43 42  2  0  0  0  0
 44 45  2  0  0  0  0
 44 43  1  0  0  0  0
 45 46  1  0  0  0  0
 46 50  1  0  0  0  0
 46 41  2  0  0  0  0
 47 43  1  0  0  0  0
 48 44  1  0  0  0  0
 49 45  1  0  0  0  0
M  END
>  <minimizedAffinity>
-7.32484674

>  <minimizedRMSD>
2.73536849

$$$$
