
 OpenBabel03262523353D

 41 44  0  0  1  0  0  0  0  0999 V2000
   35.4570   29.8780   49.7750 C   0  0  2  0  0  0  0  0  0  0  0  0
   35.8480   31.1760   49.1380 C   0  0  0  0  0  0  0  0  0  0  0  0
   37.3180   31.2620   48.7800 C   0  0  1  0  0  0  0  0  0  0  0  0
   38.2050   30.9670   49.9320 C   0  0  0  0  0  0  0  0  0  0  0  0
   37.7780   29.7810   50.7470 C   0  0  0  0  0  0  0  0  0  0  0  0
   36.6140   29.0320   50.1650 C   0  0  0  0  0  0  0  0  0  0  0  0
   34.7860   30.0630   50.6660 H   0  0  0  0  0  0  0  0  0  0  0  0
   35.6510   31.9880   49.8900 H   0  0  0  0  0  0  0  0  0  0  0  0
   35.2870   31.3810   48.2300 H   0  0  0  0  0  0  0  0  0  0  0  0
   37.4500   32.3920   48.6140 H   0  0  0  0  0  0  0  0  0  0  0  0
   39.2420   30.8340   49.5960 H   0  0  0  0  0  0  0  0  0  0  0  0
   38.2600   31.8730   50.6250 H   0  0  0  0  0  0  0  0  0  0  0  0
   37.4530   30.1480   51.7450 H   0  0  0  0  0  0  0  0  0  0  0  0
   38.6050   29.0640   50.9280 H   0  0  0  0  0  0  0  0  0  0  0  0
   36.8950   28.2450   49.4300 H   0  0  0  0  0  0  0  0  0  0  0  0
   36.2320   28.4010   51.0390 H   0  0  0  0  0  0  0  0  0  0  0  0
   34.5980   29.0920   48.8440 C   0  0  0  0  0  0  0  0  0  0  0  0
   33.8910   29.8240   47.8740 C   0  0  0  0  0  0  0  0  0  0  0  0
   33.0710   29.0930   47.0060 C   0  0  0  0  0  0  0  0  0  0  0  0
   33.0000   27.7280   47.1400 N   0  0  0  0  0  0  0  0  0  0  0  0
   33.7030   27.0600   48.0950 C   0  0  0  0  0  0  0  0  0  0  0  0
   34.4920   27.7530   48.9320 N   0  0  0  0  0  0  0  0  0  0  0  0
   33.9050   30.8760   47.7250 H   0  0  0  0  0  0  0  0  0  0  0  0
   32.5060   29.5850   46.2450 H   0  0  0  0  0  0  0  0  0  0  0  0
   33.5800   25.9850   48.1190 H   0  0  0  0  0  0  0  0  0  0  0  0
   37.6380   30.6730   47.4620 C   0  0  0  0  0  0  0  0  0  0  0  0
   38.3370   31.5290   46.4900 C   0  0  0  0  0  0  0  0  0  0  0  0
   37.9100   31.3480   45.2360 C   0  0  0  0  0  0  0  0  0  0  0  0
   38.4590   32.0550   44.1450 N   0  0  0  0  0  0  0  0  0  0  0  0
   38.2960   32.8770   42.9860 C   0  0  0  0  0  0  0  0  0  0  0  0
   37.3200   33.0100   42.1710 O   0  0  0  0  0  0  0  0  0  0  0  0
   39.6700   33.4540   43.1630 C   0  0  0  0  0  0  0  0  0  0  0  0
   39.7380   34.3270   43.8240 H   0  0  0  0  0  0  0  0  0  0  0  0
   39.8990   32.1170   43.8500 C   0  0  1  0  0  0  0  0  0  0  0  0
   40.7600   32.1980   45.4350 S   0  0  0  0  0  0  0  0  0  0  0  0
   39.4280   32.5170   46.6690 C   0  0  0  0  0  0  0  0  0  0  0  0
   39.1340   33.5530   46.4990 H   0  0  0  0  0  0  0  0  0  0  0  0
   36.8350   30.3720   44.9330 C   0  0  0  0  0  0  0  0  0  0  0  0
   36.8260   29.4820   44.0180 O   0  0  0  0  0  0  0  0  0  0  0  0
   35.6470   29.6750   44.9940 O   0  0  0  0  0  0  0  0  0  0  0  0
   34.7480   30.1850   45.0300 H   0  0  0  0  0  0  0  0  0  0  0  0
  1  6  1  0  0  0  0
  1  7  1  1  0  0  0
  2  1  1  0  0  0  0
  2  8  1  0  0  0  0
  3 10  1  6  0  0  0
  3  2  1  0  0  0  0
  3  4  1  0  0  0  0
  4 12  1  0  0  0  0
  4  5  1  0  0  0  0
  5 14  1  0  0  0  0
  5 13  1  0  0  0  0
  6  5  1  0  0  0  0
  6 16  1  0  0  0  0
  9  2  1  0  0  0  0
 11  4  1  0  0  0  0
 15  6  1  0  0  0  0
 17 22  1  0  0  0  0
 17  1  1  0  0  0  0
 18 17  2  0  0  0  0
 19 20  2  0  0  0  0
 19 18  1  0  0  0  0
 20 21  1  0  0  0  0
 21 25  1  0  0  0  0
 21 22  2  0  0  0  0
 23 18  1  0  0  0  0
 24 19  1  0  0  0  0
 26  3  1  0  0  0  0
 27 36  1  0  0  0  0
 27 26  1  0  0  0  0
 28 27  2  0  0  0  0
 29 28  1  0  0  0  0
 30 32  1  0  0  0  0
 30 29  1  0  0  0  0
 31 30  2  0  0  0  0
 32 33  1  0  0  0  0
 34 32  1  6  0  0  0
 34 29  1  0  0  0  0
 34 35  1  0  0  0  0
 35 36  1  0  0  0  0
 37 36  1  0  0  0  0
 38 40  1  0  0  0  0
 38 28  1  0  0  0  0
 39 38  2  0  0  0  0
 40 41  1  0  0  0  0
M  END
>  <minimizedAffinity>
-6.2757988

>  <minimizedRMSD>
3.42942142

$$$$
