
 OpenBabel03272509533D

 50 54  0  0  1  0  0  0  0  0999 V2000
   33.4720   28.4190   47.3990 C   0  0  0  0  0  0  0  0  0  0  0  0
   33.3490   27.5400   48.0770 H   0  0  0  0  0  0  0  0  0  0  0  0
   34.0680   28.0470   46.5300 H   0  0  0  0  0  0  0  0  0  0  0  0
   32.1560   28.8230   46.8600 C   0  0  0  0  0  0  0  0  0  0  0  0
   31.0220   28.1250   47.2710 C   0  0  0  0  0  0  0  0  0  0  0  0
   29.7650   28.4140   46.8370 C   0  0  0  0  0  0  0  0  0  0  0  0
   29.6110   29.4150   45.9780 N   0  0  0  0  0  0  0  0  0  0  0  0
   30.7120   30.1090   45.5640 C   0  0  0  0  0  0  0  0  0  0  0  0
   31.9760   29.8360   45.9860 N   0  0  0  0  0  0  0  0  0  0  0  0
   31.1400   27.3050   47.9740 H   0  0  0  0  0  0  0  0  0  0  0  0
   28.9190   27.8400   47.1880 H   0  0  0  0  0  0  0  0  0  0  0  0
   30.5350   31.2450   44.5880 C   0  0  0  0  0  2  0  0  0  0  0  0
   31.5890   31.3100   43.5750 C   0  0  0  0  0  0  0  0  0  0  0  0
   32.3030   32.4070   43.3960 C   0  0  0  0  0  0  0  0  0  0  0  0
   33.3190   32.4560   42.4120 N   0  0  0  0  0  0  0  0  0  0  0  0
   33.9490   33.2300   41.4050 C   0  0  0  0  0  0  0  0  0  0  0  0
   33.9640   34.3860   40.9480 O   0  0  0  0  0  0  0  0  0  0  0  0
   34.7310   32.0500   40.9710 C   0  0  0  0  0  3  0  0  0  0  0  0
   35.8040   32.2830   40.9650 H   0  0  0  0  0  0  0  0  0  0  0  0
   34.2100   31.3050   42.1810 C   0  0  2  0  0  3  0  0  0  0  0  0
   33.1590   29.9070   41.7960 S   0  0  0  0  0  0  0  0  0  0  0  0
   31.6940   30.0300   42.8450 C   0  0  0  0  0  3  0  0  0  0  0  0
   30.7950   29.8150   42.2330 H   0  0  0  0  0  0  0  0  0  0  0  0
   32.0690   33.5950   44.2030 C   0  0  0  0  0  0  0  0  0  0  0  0
   31.4140   34.5880   43.8150 O   0  0  0  0  0  0  0  0  0  0  0  0
   32.0610   34.5060   45.2200 O   0  0  0  0  0  0  0  0  0  0  0  0
   32.9250   34.6800   45.7500 H   0  0  0  0  0  0  0  0  0  0  0  0
   34.2150   29.5590   48.0230 C   0  0  0  0  0  0  0  0  0  0  0  0
   35.1970   29.7210   47.5250 H   0  0  0  0  0  0  0  0  0  0  0  0
   33.6670   30.5190   47.9330 H   0  0  0  0  0  0  0  0  0  0  0  0
   34.5150   29.2710   49.3880 O   0  0  0  0  0  0  0  0  0  0  0  0
   37.3260   30.0700   51.4930 C   0  0  0  0  0  0  0  0  0  0  0  0
   38.1570   30.7540   50.5670 C   0  0  0  0  0  0  0  0  0  0  0  0
   37.6880   30.8900   49.2790 C   0  0  0  0  0  0  0  0  0  0  0  0
   36.4510   30.3500   49.0060 N   0  0  0  0  0  0  0  0  0  0  0  0
   35.6910   29.7100   49.9040 C   0  0  0  0  0  0  0  0  0  0  0  0
   36.1480   29.5770   51.1570 N   0  0  0  0  0  0  0  0  0  0  0  0
   37.7700   30.0090   52.4730 H   0  0  0  0  0  0  0  0  0  0  0  0
   39.1140   31.1760   50.7630 H   0  0  0  0  0  0  0  0  0  0  0  0
   38.9310   33.5030   49.2800 F   0  0  0  0  0  0  0  0  0  0  0  0
   38.9680   32.7700   48.1760 C   0  0  0  0  0  0  0  0  0  0  0  0
   38.3780   31.5490   48.1990 C   0  0  0  0  0  0  0  0  0  0  0  0
   38.4770   30.8640   46.9820 C   0  0  0  0  0  0  0  0  0  0  0  0
   39.1080   31.3780   45.8790 C   0  0  0  0  0  0  0  0  0  0  0  0
   39.6890   32.6240   45.9120 C   0  0  0  0  0  0  0  0  0  0  0  0
   39.6100   33.3210   47.0890 C   0  0  0  0  0  0  0  0  0  0  0  0
   38.0470   29.8660   46.8560 H   0  0  0  0  0  0  0  0  0  0  0  0
   39.1760   30.8340   44.9450 H   0  0  0  0  0  0  0  0  0  0  0  0
   40.1850   33.0340   45.0540 H   0  0  0  0  0  0  0  0  0  0  0  0
   40.0590   34.3030   47.1410 H   0  0  0  0  0  0  0  0  0  0  0  0
  1 28  1  0  0  0  0
  1  2  1  0  0  0  0
  3  1  1  0  0  0  0
  4  5  1  0  0  0  0
  4  1  1  0  0  0  0
  5 10  1  0  0  0  0
  6 11  1  0  0  0  0
  6  5  2  0  0  0  0
  7  6  1  0  0  0  0
  8  7  2  0  0  0  0
  8  9  1  0  0  0  0
  9  4  2  0  0  0  0
 12  8  1  0  0  0  0
 13 12  1  0  0  0  0
 14 13  2  0  0  0  0
 14 24  1  0  0  0  0
 15 14  1  0  0  0  0
 16 15  1  0  0  0  0
 17 16  2  0  0  0  0
 18 16  1  0  0  0  0
 19 18  1  0  0  0  0
 20 18  1  6  0  0  0
 20 15  1  0  0  0  0
 21 20  1  0  0  0  0
 21 22  1  0  0  0  0
 22 13  1  0  0  0  0
 23 22  1  0  0  0  0
 24 26  1  0  0  0  0
 25 24  2  0  0  0  0
 26 27  1  0  0  0  0
 28 31  1  0  0  0  0
 29 28  1  0  0  0  0
 30 28  1  0  0  0  0
 31 36  1  0  0  0  0
 32 38  1  0  0  0  0
 33 39  1  0  0  0  0
 33 32  2  0  0  0  0
 34 33  1  0  0  0  0
 35 34  2  0  0  0  0
 35 36  1  0  0  0  0
 36 37  2  0  0  0  0
 37 32  1  0  0  0  0
 41 42  1  0  0  0  0
 41 40  1  0  0  0  0
 42 34  1  0  0  0  0
 43 42  2  0  0  0  0
 44 45  2  0  0  0  0
 44 43  1  0  0  0  0
 45 46  1  0  0  0  0
 46 50  1  0  0  0  0
 46 41  2  0  0  0  0
 47 43  1  0  0  0  0
 48 44  1  0  0  0  0
 49 45  1  0  0  0  0
M  END
>  <minimizedAffinity>
-6.93033886

>  <minimizedRMSD>
1.98531473

$$$$
