
 OpenBabel03272507413D

 48 52  0  0  1  0  0  0  0  0999 V2000
   36.5540   30.5750   49.2790 C   0  0  0  0  0  0  0  0  0  0  0  0
   35.3840   29.9210   49.6460 C   0  0  0  0  0  0  0  0  0  0  0  0
   35.2600   29.3320   50.8900 C   0  0  0  0  0  0  0  0  0  0  0  0
   36.3180   29.4120   51.7410 N   0  0  0  0  0  0  0  0  0  0  0  0
   37.4630   30.0600   51.3570 C   0  0  0  0  0  0  0  0  0  0  0  0
   37.5520   30.6140   50.1620 N   0  0  0  0  0  0  0  0  0  0  0  0
   34.3910   28.8060   51.2590 H   0  0  0  0  0  0  0  0  0  0  0  0
   38.3020   30.1160   52.0470 H   0  0  0  0  0  0  0  0  0  0  0  0
   33.8500   28.5030   48.3460 C   0  0  0  0  0  0  0  0  0  0  0  0
   34.4470   27.3580   48.3450 O   0  0  0  0  0  0  0  0  0  0  0  0
   34.2330   29.7610   48.8670 N   0  0  0  0  0  0  0  0  0  0  0  0
   33.7330   30.6580   48.7410 H   0  0  0  0  0  0  0  0  0  0  0  0
   29.7190   27.4850   45.1250 C   0  0  0  0  0  0  0  0  0  0  0  0
   30.7710   28.2370   44.8560 C   0  0  0  0  0  0  0  0  0  0  0  0
   31.7520   28.4950   45.8190 N   0  0  0  0  0  0  0  0  0  0  0  0
   32.6160   29.4210   46.5130 C   0  0  0  0  0  0  0  0  0  0  0  0
   33.1310   30.5130   46.1550 O   0  0  0  0  0  0  0  0  0  0  0  0
   32.5210   28.4530   47.6690 C   0  0  1  0  0  3  0  0  0  0  0  0
   32.3020   27.4000   46.6410 C   0  0  1  0  0  3  0  0  0  0  0  0
   31.0040   26.2490   47.1260 S   0  0  0  0  0  0  0  0  0  0  0  0
   29.4540   26.8560   46.4360 C   0  0  0  0  0  3  0  0  0  0  0  0
   29.0020   27.6580   47.0710 H   0  0  0  0  0  0  0  0  0  0  0  0
   28.7670   27.2900   44.0260 C   0  0  0  0  0  2  0  0  0  0  0  0
   28.1550   28.2170   43.9660 H   0  0  0  0  0  0  0  0  0  0  0  0
   30.8990   28.8020   43.5200 C   0  0  0  0  0  0  0  0  0  0  0  0
   31.9370   29.2860   43.0100 O   0  0  0  0  0  0  0  0  0  0  0  0
   30.7110   29.2630   42.2330 O   0  0  0  0  0  0  0  0  0  0  0  0
   29.7780   29.3290   41.8080 H   0  0  0  0  0  0  0  0  0  0  0  0
   36.4860   31.0860   48.0290 O   0  0  0  0  0  0  0  0  0  0  0  0
   37.8690   31.4850   46.0150 C   0  0  0  0  0  0  0  0  0  0  0  0
   37.5570   31.6490   47.3480 C   0  0  0  0  0  0  0  0  0  0  0  0
   38.3490   32.4460   48.1590 C   0  0  0  0  0  0  0  0  0  0  0  0
   39.4650   33.0780   47.6100 C   0  0  0  0  0  0  0  0  0  0  0  0
   39.7680   32.9090   46.2770 C   0  0  0  0  0  0  0  0  0  0  0  0
   38.9570   32.1110   45.5090 C   0  0  0  0  0  0  0  0  0  0  0  0
   38.1690   32.6210   49.2110 H   0  0  0  0  0  0  0  0  0  0  0  0
   40.0850   33.7000   48.2420 H   0  0  0  0  0  0  0  0  0  0  0  0
   40.6300   33.3890   45.8230 H   0  0  0  0  0  0  0  0  0  0  0  0
   39.2940   31.9360   44.0750 C   0  0  0  0  0  0  0  0  0  0  0  0
   40.1700   31.0700   43.4840 C   0  0  0  0  0  0  0  0  0  0  0  0
   40.1290   31.2930   42.1100 C   0  0  0  0  0  0  0  0  0  0  0  0
   39.2090   32.3050   41.9530 C   0  0  0  0  0  0  0  0  0  0  0  0
   38.7230   32.6740   43.1280 O   0  0  0  0  0  0  0  0  0  0  0  0
   40.7470   30.3700   44.0750 H   0  0  0  0  0  0  0  0  0  0  0  0
   40.7350   30.7310   41.4260 H   0  0  0  0  0  0  0  0  0  0  0  0
   38.9450   32.7160   40.9850 H   0  0  0  0  0  0  0  0  0  0  0  0
   36.2930   29.9900   44.6290 N   0  0  0  0  0  0  0  0  0  0  0  0
   36.9980   30.6490   45.2540 C   0  0  0  0  0  0  0  0  0  0  0  0
  1  2  2  0  0  0  0
  1  6  1  0  0  0  0
  2  3  1  0  0  0  0
  3  7  1  0  0  0  0
  3  4  2  0  0  0  0
  5  4  1  0  0  0  0
  5  8  1  0  0  0  0
  6  5  2  0  0  0  0
  9 11  1  0  0  0  0
 10  9  2  0  0  0  0
 11  2  1  0  0  0  0
 12 11  1  0  0  0  0
 13 21  1  0  0  0  0
 14 13  2  0  0  0  0
 14 15  1  0  0  0  0
 15 16  1  0  0  0  0
 15 19  1  0  0  0  0
 16 18  1  0  0  0  0
 17 16  2  0  0  0  0
 18  9  1  6  0  0  0
 19 20  1  1  0  0  0
 19 18  1  0  0  0  0
 21 22  1  0  0  0  0
 21 20  1  0  0  0  0
 23 13  1  0  0  0  0
 24 23  1  0  0  0  0
 25 14  1  0  0  0  0
 26 25  2  0  0  0  0
 27 25  1  0  0  0  0
 28 27  1  0  0  0  0
 29  1  1  0  0  0  0
 30 31  1  0  0  0  0
 31 29  1  0  0  0  0
 31 32  2  0  0  0  0
 32 36  1  0  0  0  0
 33 32  1  0  0  0  0
 33 37  1  0  0  0  0
 34 33  2  0  0  0  0
 35 30  2  0  0  0  0
 35 34  1  0  0  0  0
 38 34  1  0  0  0  0
 39 35  1  0  0  0  0
 40 39  2  0  0  0  0
 40 44  1  0  0  0  0
 41 40  1  0  0  0  0
 42 41  2  0  0  0  0
 42 43  1  0  0  0  0
 43 39  1  0  0  0  0
 45 41  1  0  0  0  0
 46 42  1  0  0  0  0
 47 48  3  0  0  0  0
 48 30  1  0  0  0  0
M  END
>  <minimizedAffinity>
-6.21053123

>  <minimizedRMSD>
1.9922787

$$$$
