
 OpenBabel03272507353D

 43 48  0  0  1  0  0  0  0  0999 V2000
   37.3630   27.6450   33.3190 C   0  0  1  0  0  0  0  0  0  0  0  0
   36.4040   28.2290   34.4300 C   0  0  0  0  0  0  0  0  0  0  0  0
   37.0850   26.9200   34.5620 C   0  0  2  0  0  0  0  0  0  0  0  0
   38.1510   28.4070   33.1390 H   0  0  0  0  0  0  0  0  0  0  0  0
   35.3380   28.2300   34.2280 H   0  0  0  0  0  0  0  0  0  0  0  0
   36.7870   29.0750   35.0140 H   0  0  0  0  0  0  0  0  0  0  0  0
   36.4840   25.9880   34.3980 H   0  0  0  0  0  0  0  0  0  0  0  0
   36.5630   27.3320   32.0860 C   0  0  0  0  0  0  0  0  0  0  0  0
   36.0790   28.2560   31.3550 O   0  0  0  0  0  0  0  0  0  0  0  0
   36.7110   23.8390   31.3260 C   0  0  0  0  0  0  0  0  0  0  0  0
   35.3990   24.0800   30.9580 C   0  0  0  0  0  0  0  0  0  0  0  0
   35.1420   25.4400   31.1930 C   0  0  0  0  0  0  0  0  0  0  0  0
   36.3240   25.9440   31.6910 C   0  0  0  0  0  0  0  0  0  0  0  0
   37.2080   24.9710   31.7500 O   0  0  0  0  0  0  0  0  0  0  0  0
   34.5980   23.4520   30.5520 H   0  0  0  0  0  0  0  0  0  0  0  0
   34.2150   25.9770   31.0190 H   0  0  0  0  0  0  0  0  0  0  0  0
   37.3110   22.5250   31.2110 C   0  0  0  0  0  0  0  0  0  0  0  0
   38.3770   22.3950   30.5920 O   0  0  0  0  0  0  0  0  0  0  0  0
   36.6150   21.4330   31.8370 C   0  0  0  0  0  0  0  0  0  0  0  0
   36.2550   20.3690   31.0280 C   0  0  0  0  0  0  0  0  0  0  0  0
   35.5740   19.2940   31.6070 C   0  0  0  0  0  0  0  0  0  0  0  0
   35.2970   19.3490   32.9540 N   0  0  0  0  0  0  0  0  0  0  0  0
   35.6630   20.3960   33.7020 C   0  0  0  0  0  0  0  0  0  0  0  0
   36.3150   21.4300   33.1570 N   0  0  0  0  0  0  0  0  0  0  0  0
   36.4740   20.3320   29.9740 H   0  0  0  0  0  0  0  0  0  0  0  0
   35.2770   18.4420   30.9920 H   0  0  0  0  0  0  0  0  0  0  0  0
   35.4290   20.4100   34.7630 H   0  0  0  0  0  0  0  0  0  0  0  0
   38.0790   26.8190   35.6790 C   0  0  0  0  0  2  0  0  0  0  0  0
   38.5900   25.4630   35.9020 C   0  0  0  0  0  0  0  0  0  0  0  0
   39.6910   24.9430   35.3830 C   0  0  0  0  0  0  0  0  0  0  0  0
   40.0750   23.6040   35.6700 N   0  0  0  0  0  0  0  0  0  0  0  0
   41.0490   22.5840   35.5020 C   0  0  1  0  0  0  0  0  0  0  0  0
   41.8760   22.2270   34.6110 O   0  0  0  0  0  1  0  0  0  0  0  0
   40.7060   22.0730   36.8480 C   0  0  0  0  0  3  0  0  0  0  0  0
   41.1800   22.5660   37.7040 H   0  0  0  0  0  0  0  0  0  0  0  0
   39.3590   22.6250   36.4360 C   0  0  1  0  0  0  0  0  0  0  0  0
   38.4290   23.4160   37.7440 S   0  0  0  0  0  0  0  0  0  0  0  0
   37.6660   24.7580   36.8000 C   0  0  0  0  0  3  0  0  0  0  0  0
   36.8290   24.2990   36.2070 H   0  0  0  0  0  0  0  0  0  0  0  0
   40.5750   25.7090   34.4740 C   0  0  0  0  0  0  0  0  0  0  0  0
   40.6520   25.7970   33.2480 O   0  0  0  0  0  0  0  0  0  0  0  0
   41.5660   26.5410   34.9310 O   0  0  0  0  0  0  0  0  0  0  0  0
   41.7310   27.4450   34.5510 H   0  0  0  0  0  0  0  0  0  0  0  0
  1  4  1  6  0  0  0
  1  2  1  0  0  0  0
  1  3  1  0  0  0  0
  2  3  1  0  0  0  0
  2  6  1  0  0  0  0
  3  7  1  6  0  0  0
  3 28  1  0  0  0  0
  5  2  1  0  0  0  0
  8  1  1  0  0  0  0
  9  8  2  0  0  0  0
 10 14  1  0  0  0  0
 11 12  1  0  0  0  0
 11 10  2  0  0  0  0
 12 13  2  0  0  0  0
 13 14  1  0  0  0  0
 13  8  1  0  0  0  0
 15 11  1  0  0  0  0
 16 12  1  0  0  0  0
 17 10  1  0  0  0  0
 17 19  1  0  0  0  0
 18 17  2  0  0  0  0
 19 24  1  0  0  0  0
 20 21  1  0  0  0  0
 20 19  2  0  0  0  0
 21 22  2  0  0  0  0
 22 23  1  0  0  0  0
 23 27  1  0  0  0  0
 24 23  2  0  0  0  0
 25 20  1  0  0  0  0
 26 21  1  0  0  0  0
 28 29  1  0  0  0  0
 29 38  1  0  0  0  0
 30 31  1  0  0  0  0
 30 29  2  0  0  0  0
 31 36  1  0  0  0  0
 32 33  1  6  0  0  0
 32 31  1  0  0  0  0
 32 36  1  0  0  0  0
 32 34  1  0  0  0  0
 34 35  1  0  0  0  0
 36 34  1  1  0  0  0
 36 37  1  0  0  0  0
 38 37  1  0  0  0  0
 39 38  1  0  0  0  0
 40 42  1  0  0  0  0
 40 30  1  0  0  0  0
 41 40  2  0  0  0  0
 43 42  1  0  0  0  0
M  END
>  <minimizedAffinity>
-6.55107832

$$$$

 OpenBabel03272507353D

 43 48  0  0  1  0  0  0  0  0999 V2000
   37.2930   27.7260   33.2780 C   0  0  1  0  0  0  0  0  0  0  0  0
   36.3390   28.2820   34.4080 C   0  0  0  0  0  0  0  0  0  0  0  0
   37.0760   27.0030   34.5340 C   0  0  2  0  0  0  0  0  0  0  0  0
   38.0460   28.5170   33.0730 H   0  0  0  0  0  0  0  0  0  0  0  0
   35.2700   28.2380   34.2330 H   0  0  0  0  0  0  0  0  0  0  0  0
   36.7020   29.1480   34.9750 H   0  0  0  0  0  0  0  0  0  0  0  0
   36.5090   26.0450   34.3940 H   0  0  0  0  0  0  0  0  0  0  0  0
   36.4770   27.3690   32.0690 C   0  0  0  0  0  0  0  0  0  0  0  0
   35.9450   28.2660   31.3370 O   0  0  0  0  0  0  0  0  0  0  0  0
   36.7190   23.8670   31.3780 C   0  0  0  0  0  0  0  0  0  0  0  0
   35.4060   24.0690   30.9890 C   0  0  0  0  0  0  0  0  0  0  0  0
   35.1140   25.4260   31.1940 C   0  0  0  0  0  0  0  0  0  0  0  0
   36.2770   25.9680   31.6980 C   0  0  0  0  0  0  0  0  0  0  0  0
   37.1830   25.0180   31.7870 O   0  0  0  0  0  0  0  0  0  0  0  0
   34.6270   23.4130   30.5860 H   0  0  0  0  0  0  0  0  0  0  0  0
   34.1760   25.9370   30.9980 H   0  0  0  0  0  0  0  0  0  0  0  0
   37.3520   22.5650   31.2960 C   0  0  0  0  0  0  0  0  0  0  0  0
   38.4550   22.4590   30.7410 O   0  0  0  0  0  0  0  0  0  0  0  0
   36.6430   21.4570   31.8760 C   0  0  0  0  0  0  0  0  0  0  0  0
   36.3060   20.4130   31.0320 C   0  0  0  0  0  0  0  0  0  0  0  0
   35.6130   19.3230   31.5670 C   0  0  0  0  0  0  0  0  0  0  0  0
   35.3020   19.3440   32.9070 N   0  0  0  0  0  0  0  0  0  0  0  0
   35.6460   20.3730   33.6900 C   0  0  0  0  0  0  0  0  0  0  0  0
   36.3090   21.4220   33.1880 N   0  0  0  0  0  0  0  0  0  0  0  0
   36.5530   20.4020   29.9850 H   0  0  0  0  0  0  0  0  0  0  0  0
   35.3350   18.4850   30.9240 H   0  0  0  0  0  0  0  0  0  0  0  0
   35.3840   20.3600   34.7440 H   0  0  0  0  0  0  0  0  0  0  0  0
   38.1000   26.9520   35.6270 C   0  0  0  0  0  2  0  0  0  0  0  0
   39.1050   25.8990   35.4550 C   0  0  0  0  0  0  0  0  0  0  0  0
   39.1130   24.7150   36.0480 C   0  0  0  0  0  0  0  0  0  0  0  0
   40.1560   23.7800   35.8040 N   0  0  0  0  0  0  0  0  0  0  0  0
   40.6650   22.4770   36.0460 C   0  0  1  0  0  0  0  0  0  0  0  0
   40.6480   21.6330   36.9910 O   0  0  0  0  0  1  0  0  0  0  0  0
   41.2550   22.4850   34.6880 C   0  0  0  0  0  3  0  0  0  0  0  0
   40.5950   22.2150   33.8570 H   0  0  0  0  0  0  0  0  0  0  0  0
   41.3360   23.9620   35.0090 C   0  0  1  0  0  0  0  0  0  0  0  0
   41.0000   25.0580   33.6360 S   0  0  0  0  0  0  0  0  0  0  0  0
   40.1250   26.3770   34.5120 C   0  0  0  0  0  3  0  0  0  0  0  0
   40.9050   26.9720   35.0590 H   0  0  0  0  0  0  0  0  0  0  0  0
   38.0550   24.3010   36.9990 C   0  0  0  0  0  0  0  0  0  0  0  0
   37.0520   23.5940   36.8890 O   0  0  0  0  0  0  0  0  0  0  0  0
   38.0410   24.6980   38.3120 O   0  0  0  0  0  0  0  0  0  0  0  0
   37.8400   24.0770   39.0620 H   0  0  0  0  0  0  0  0  0  0  0  0
  1  4  1  6  0  0  0
  1  2  1  0  0  0  0
  1  3  1  0  0  0  0
  2  3  1  0  0  0  0
  2  6  1  0  0  0  0
  3  7  1  6  0  0  0
  3 28  1  0  0  0  0
  5  2  1  0  0  0  0
  8  1  1  0  0  0  0
  9  8  2  0  0  0  0
 10 14  1  0  0  0  0
 11 12  1  0  0  0  0
 11 10  2  0  0  0  0
 12 13  2  0  0  0  0
 13 14  1  0  0  0  0
 13  8  1  0  0  0  0
 15 11  1  0  0  0  0
 16 12  1  0  0  0  0
 17 10  1  0  0  0  0
 17 19  1  0  0  0  0
 18 17  2  0  0  0  0
 19 24  1  0  0  0  0
 20 21  1  0  0  0  0
 20 19  2  0  0  0  0
 21 22  2  0  0  0  0
 22 23  1  0  0  0  0
 23 27  1  0  0  0  0
 24 23  2  0  0  0  0
 25 20  1  0  0  0  0
 26 21  1  0  0  0  0
 29 28  1  0  0  0  0
 29 30  2  0  0  0  0
 30 40  1  0  0  0  0
 31 32  1  0  0  0  0
 31 30  1  0  0  0  0
 32 33  1  1  0  0  0
 34 36  1  0  0  0  0
 34 32  1  0  0  0  0
 35 34  1  0  0  0  0
 36 37  1  1  0  0  0
 36 31  1  0  0  0  0
 36 32  1  0  0  0  0
 37 38  1  0  0  0  0
 38 39  1  0  0  0  0
 38 29  1  0  0  0  0
 40 42  1  0  0  0  0
 41 40  2  0  0  0  0
 42 43  1  0  0  0  0
M  END
>  <minimizedAffinity>
-6.38933516

$$$$

 OpenBabel03272507353D

 43 48  0  0  1  0  0  0  0  0999 V2000
   36.4960   28.4290   32.9960 C   0  0  1  0  0  0  0  0  0  0  0  0
   36.8220   28.8420   31.5070 C   0  0  0  0  0  0  0  0  0  0  0  0
   35.4390   28.7330   32.0280 C   0  0  2  0  0  0  0  0  0  0  0  0
   37.0370   29.1420   33.6550 H   0  0  0  0  0  0  0  0  0  0  0  0
   37.1750   28.0690   30.8340 H   0  0  0  0  0  0  0  0  0  0  0  0
   37.2420   29.8440   31.3560 H   0  0  0  0  0  0  0  0  0  0  0  0
   34.8330   27.8330   31.7470 H   0  0  0  0  0  0  0  0  0  0  0  0
   36.9070   27.0020   33.2180 C   0  0  0  0  0  0  0  0  0  0  0  0
   36.7770   26.1230   32.3050 O   0  0  0  0  0  0  0  0  0  0  0  0
   38.0600   25.2870   36.1390 C   0  0  0  0  0  0  0  0  0  0  0  0
   38.4620   26.5680   36.4730 C   0  0  0  0  0  0  0  0  0  0  0  0
   38.0890   27.4120   35.4160 C   0  0  0  0  0  0  0  0  0  0  0  0
   37.4770   26.5850   34.4990 C   0  0  0  0  0  0  0  0  0  0  0  0
   37.4860   25.3550   34.9660 O   0  0  0  0  0  0  0  0  0  0  0  0
   38.9740   26.9990   37.3410 H   0  0  0  0  0  0  0  0  0  0  0  0
   38.2470   28.4840   35.3390 H   0  0  0  0  0  0  0  0  0  0  0  0
   38.2900   24.1570   37.0170 C   0  0  0  0  0  0  0  0  0  0  0  0
   37.5490   23.9860   37.9950 O   0  0  0  0  0  0  0  0  0  0  0  0
   39.3880   23.2880   36.6890 C   0  0  0  0  0  0  0  0  0  0  0  0
   40.0680   22.7050   37.7450 C   0  0  0  0  0  0  0  0  0  0  0  0
   41.1420   21.8580   37.4570 C   0  0  0  0  0  0  0  0  0  0  0  0
   41.4690   21.6470   36.1370 N   0  0  0  0  0  0  0  0  0  0  0  0
   40.7860   22.2300   35.1450 C   0  0  0  0  0  0  0  0  0  0  0  0
   39.7560   23.0420   35.4090 N   0  0  0  0  0  0  0  0  0  0  0  0
   39.8080   22.8740   38.7750 H   0  0  0  0  0  0  0  0  0  0  0  0
   41.6970   21.3850   38.2710 H   0  0  0  0  0  0  0  0  0  0  0  0
   41.0690   22.0430   34.1130 H   0  0  0  0  0  0  0  0  0  0  0  0
   34.6570   30.0120   32.0570 C   0  0  0  0  0  2  0  0  0  0  0  0
   33.7150   30.1100   33.1760 C   0  0  0  0  0  0  0  0  0  0  0  0
   33.9300   30.7140   34.3340 C   0  0  0  0  0  0  0  0  0  0  0  0
   32.9340   30.7310   35.3490 N   0  0  0  0  0  0  0  0  0  0  0  0
   32.5560   31.1960   36.6360 C   0  0  1  0  0  0  0  0  0  0  0  0
   33.1320   31.4760   37.7300 O   0  0  0  0  0  1  0  0  0  0  0  0
   31.1480   31.2310   36.1800 C   0  0  0  0  0  3  0  0  0  0  0  0
   30.8280   32.1180   35.6220 H   0  0  0  0  0  0  0  0  0  0  0  0
   31.6570   30.0780   35.3420 C   0  0  1  0  0  0  0  0  0  0  0  0
   31.0050   30.0000   33.6780 S   0  0  0  0  0  0  0  0  0  0  0  0
   32.4780   29.4110   32.8070 C   0  0  0  0  0  3  0  0  0  0  0  0
   32.5710   28.3150   33.0380 H   0  0  0  0  0  0  0  0  0  0  0  0
   35.2100   31.3940   34.6450 C   0  0  0  0  0  0  0  0  0  0  0  0
   35.7760   32.3820   34.1750 O   0  0  0  0  0  0  0  0  0  0  0  0
   36.0580   30.9620   35.6320 O   0  0  0  0  0  0  0  0  0  0  0  0
   36.5000   31.5800   36.2740 H   0  0  0  0  0  0  0  0  0  0  0  0
  1  8  1  0  0  0  0
  1  4  1  1  0  0  0
  2  3  1  0  0  0  0
  2  1  1  0  0  0  0
  3  7  1  6  0  0  0
  3 28  1  0  0  0  0
  3  1  1  0  0  0  0
  5  2  1  0  0  0  0
  6  2  1  0  0  0  0
  8 13  1  0  0  0  0
  9  8  2  0  0  0  0
 10 11  2  0  0  0  0
 10 17  1  0  0  0  0
 11 15  1  0  0  0  0
 12 11  1  0  0  0  0
 13 14  1  0  0  0  0
 13 12  2  0  0  0  0
 14 10  1  0  0  0  0
 16 12  1  0  0  0  0
 17 18  2  0  0  0  0
 19 17  1  0  0  0  0
 19 20  1  0  0  0  0
 20 25  1  0  0  0  0
 21 20  2  0  0  0  0
 21 26  1  0  0  0  0
 22 21  1  0  0  0  0
 23 24  1  0  0  0  0
 23 22  2  0  0  0  0
 24 19  2  0  0  0  0
 27 23  1  0  0  0  0
 28 29  1  0  0  0  0
 29 30  2  0  0  0  0
 30 40  1  0  0  0  0
 30 31  1  0  0  0  0
 31 32  1  0  0  0  0
 32 33  1  1  0  0  0
 34 32  1  0  0  0  0
 35 34  1  0  0  0  0
 36 37  1  1  0  0  0
 36 31  1  0  0  0  0
 36 34  1  0  0  0  0
 36 32  1  0  0  0  0
 38 39  1  0  0  0  0
 38 29  1  0  0  0  0
 38 37  1  0  0  0  0
 40 42  1  0  0  0  0
 41 40  2  0  0  0  0
 42 43  1  0  0  0  0
M  END
>  <minimizedAffinity>
-6.29730177

$$$$

 OpenBabel03272507353D

 43 48  0  0  1  0  0  0  0  0999 V2000
   38.3940   26.0020   31.9670 C   0  0  1  0  0  0  0  0  0  0  0  0
   39.5720   26.4870   31.0330 C   0  0  0  0  0  0  0  0  0  0  0  0
   39.2710   27.1150   32.3410 C   0  0  2  0  0  0  0  0  0  0  0  0
   38.5550   24.9190   32.1550 H   0  0  0  0  0  0  0  0  0  0  0  0
   39.3110   27.0340   30.1340 H   0  0  0  0  0  0  0  0  0  0  0  0
   40.4460   25.8280   30.9630 H   0  0  0  0  0  0  0  0  0  0  0  0
   38.7420   28.1040   32.3480 H   0  0  0  0  0  0  0  0  0  0  0  0
   37.0790   26.2890   31.2990 C   0  0  0  0  0  0  0  0  0  0  0  0
   36.4230   25.3740   30.7010 O   0  0  0  0  0  0  0  0  0  0  0  0
   35.4070   29.3640   32.0370 C   0  0  0  0  0  0  0  0  0  0  0  0
   35.9460   29.7060   30.8090 C   0  0  0  0  0  0  0  0  0  0  0  0
   36.6640   28.5930   30.3440 C   0  0  0  0  0  0  0  0  0  0  0  0
   36.5140   27.6370   31.3250 C   0  0  0  0  0  0  0  0  0  0  0  0
   35.7740   28.1360   32.2920 O   0  0  0  0  0  0  0  0  0  0  0  0
   35.9120   30.6110   30.1930 H   0  0  0  0  0  0  0  0  0  0  0  0
   37.2160   28.5050   29.4120 H   0  0  0  0  0  0  0  0  0  0  0  0
   34.5980   30.2910   32.8040 C   0  0  0  0  0  0  0  0  0  0  0  0
   33.3670   30.2840   32.6620 O   0  0  0  0  0  0  0  0  0  0  0  0
   35.2910   31.1750   33.7000 C   0  0  0  0  0  0  0  0  0  0  0  0
   35.4190   30.7670   35.0170 C   0  0  0  0  0  0  0  0  0  0  0  0
   36.0850   31.6080   35.9130 C   0  0  0  0  0  0  0  0  0  0  0  0
   36.5810   32.8010   35.4390 N   0  0  0  0  0  0  0  0  0  0  0  0
   36.4370   33.1600   34.1580 C   0  0  0  0  0  0  0  0  0  0  0  0
   35.8010   32.3620   33.2920 N   0  0  0  0  0  0  0  0  0  0  0  0
   35.0290   29.8320   35.3820 H   0  0  0  0  0  0  0  0  0  0  0  0
   36.2000   31.3110   36.9580 H   0  0  0  0  0  0  0  0  0  0  0  0
   36.8390   34.1090   33.8150 H   0  0  0  0  0  0  0  0  0  0  0  0
   40.3430   26.9870   33.3810 C   0  0  0  0  0  2  0  0  0  0  0  0
   40.1910   25.8200   34.2550 C   0  0  0  0  0  0  0  0  0  0  0  0
   39.3020   25.6750   35.2250 C   0  0  0  0  0  0  0  0  0  0  0  0
   39.2640   24.4920   36.0130 N   0  0  0  0  0  0  0  0  0  0  0  0
   38.6040   23.7710   37.0430 C   0  0  1  0  0  0  0  0  0  0  0  0
   37.9620   24.0400   38.1020 O   0  0  0  0  0  1  0  0  0  0  0  0
   38.9770   22.5110   36.3620 C   0  0  0  0  0  3  0  0  0  0  0  0
   38.3340   22.1800   35.5390 H   0  0  0  0  0  0  0  0  0  0  0  0
   40.1580   23.3720   35.9670 C   0  0  1  0  0  0  0  0  0  0  0  0
   40.7570   23.1210   34.3000 S   0  0  0  0  0  0  0  0  0  0  0  0
   41.2050   24.8250   33.8830 C   0  0  0  0  0  3  0  0  0  0  0  0
   42.1700   25.0420   34.4150 H   0  0  0  0  0  0  0  0  0  0  0  0
   38.3120   26.7270   35.5540 C   0  0  0  0  0  0  0  0  0  0  0  0
   37.1360   26.9070   35.2350 O   0  0  0  0  0  0  0  0  0  0  0  0
   38.6030   27.7920   36.3680 O   0  0  0  0  0  0  0  0  0  0  0  0
   37.9860   28.1150   37.0770 H   0  0  0  0  0  0  0  0  0  0  0  0
  1  4  1  1  0  0  0
  1  3  1  0  0  0  0
  2  1  1  0  0  0  0
  2  3  1  0  0  0  0
  3  7  1  6  0  0  0
  3 28  1  0  0  0  0
  5  2  1  0  0  0  0
  6  2  1  0  0  0  0
  8 13  1  0  0  0  0
  8  1  1  0  0  0  0
  9  8  2  0  0  0  0
 10 14  1  0  0  0  0
 10 17  1  0  0  0  0
 11 10  2  0  0  0  0
 12 11  1  0  0  0  0
 12 13  2  0  0  0  0
 13 14  1  0  0  0  0
 15 11  1  0  0  0  0
 16 12  1  0  0  0  0
 17 19  1  0  0  0  0
 18 17  2  0  0  0  0
 19 20  1  0  0  0  0
 20 25  1  0  0  0  0
 20 21  2  0  0  0  0
 21 26  1  0  0  0  0
 22 21  1  0  0  0  0
 23 22  2  0  0  0  0
 24 19  2  0  0  0  0
 24 23  1  0  0  0  0
 27 23  1  0  0  0  0
 28 29  1  0  0  0  0
 29 30  2  0  0  0  0
 30 40  1  0  0  0  0
 30 31  1  0  0  0  0
 31 32  1  0  0  0  0
 32 33  1  1  0  0  0
 34 32  1  0  0  0  0
 35 34  1  0  0  0  0
 36 37  1  1  0  0  0
 36 31  1  0  0  0  0
 36 34  1  0  0  0  0
 36 32  1  0  0  0  0
 38 29  1  0  0  0  0
 38 37  1  0  0  0  0
 38 39  1  0  0  0  0
 40 42  1  0  0  0  0
 41 40  2  0  0  0  0
 42 43  1  0  0  0  0
M  END
>  <minimizedAffinity>
-6.14700317

$$$$

 OpenBabel03272507353D

 43 48  0  0  1  0  0  0  0  0999 V2000
   37.0390   28.2850   32.3070 C   0  0  1  0  0  0  0  0  0  0  0  0
   35.8930   28.3960   31.2270 C   0  0  0  0  0  0  0  0  0  0  0  0
   35.8040   29.0310   32.5620 C   0  0  2  0  0  0  0  0  0  0  0  0
   37.9700   28.6590   31.8310 H   0  0  0  0  0  0  0  0  0  0  0  0
   35.2880   27.5150   31.0400 H   0  0  0  0  0  0  0  0  0  0  0  0
   36.0960   29.0370   30.3600 H   0  0  0  0  0  0  0  0  0  0  0  0
   35.1550   28.5480   33.3400 H   0  0  0  0  0  0  0  0  0  0  0  0
   37.1520   26.8610   32.7700 C   0  0  0  0  0  0  0  0  0  0  0  0
   36.8740   25.8870   31.9970 O   0  0  0  0  0  0  0  0  0  0  0  0
   38.1110   25.3890   35.8870 C   0  0  0  0  0  0  0  0  0  0  0  0
   38.2950   26.7200   36.2160 C   0  0  0  0  0  0  0  0  0  0  0  0
   37.9610   27.4810   35.0840 C   0  0  0  0  0  0  0  0  0  0  0  0
   37.5920   26.5560   34.1310 C   0  0  0  0  0  0  0  0  0  0  0  0
   37.6970   25.3510   34.6480 O   0  0  0  0  0  0  0  0  0  0  0  0
   38.6240   27.2370   37.1240 H   0  0  0  0  0  0  0  0  0  0  0  0
   37.9880   28.5620   34.9830 H   0  0  0  0  0  0  0  0  0  0  0  0
   38.3650   24.3220   36.8350 C   0  0  0  0  0  0  0  0  0  0  0  0
   37.5570   24.1210   37.7540 O   0  0  0  0  0  0  0  0  0  0  0  0
   39.5620   23.5500   36.6430 C   0  0  0  0  0  0  0  0  0  0  0  0
   39.8890   22.6380   37.6330 C   0  0  0  0  0  0  0  0  0  0  0  0
   41.0500   21.8750   37.4770 C   0  0  0  0  0  0  0  0  0  0  0  0
   41.8080   22.0690   36.3440 N   0  0  0  0  0  0  0  0  0  0  0  0
   41.4570   22.9600   35.4110 C   0  0  0  0  0  0  0  0  0  0  0  0
   40.3480   23.6960   35.5500 N   0  0  0  0  0  0  0  0  0  0  0  0
   39.2920   22.4910   38.5160 H   0  0  0  0  0  0  0  0  0  0  0  0
   41.3320   21.1490   38.2420 H   0  0  0  0  0  0  0  0  0  0  0  0
   42.0780   23.0900   34.5280 H   0  0  0  0  0  0  0  0  0  0  0  0
   35.7470   30.5290   32.5630 C   0  0  0  0  0  2  0  0  0  0  0  0
   34.8960   31.0930   33.6160 C   0  0  0  0  0  0  0  0  0  0  0  0
   33.5730   31.1280   33.6230 C   0  0  0  0  0  0  0  0  0  0  0  0
   32.8610   31.7160   34.7040 N   0  0  0  0  0  0  0  0  0  0  0  0
   31.5950   31.9940   35.2820 C   0  0  1  0  0  0  0  0  0  0  0  0
   30.4210   32.2420   34.8750 O   0  0  0  0  0  1  0  0  0  0  0  0
   32.2110   31.8710   36.6230 C   0  0  0  0  0  3  0  0  0  0  0  0
   32.3210   30.8600   37.0300 H   0  0  0  0  0  0  0  0  0  0  0  0
   33.3970   32.3990   35.8460 C   0  0  1  0  0  0  0  0  0  0  0  0
   34.9790   31.7000   36.3050 S   0  0  0  0  0  0  0  0  0  0  0  0
   35.7610   31.6300   34.6750 C   0  0  0  0  0  3  0  0  0  0  0  0
   36.0700   32.6810   34.4220 H   0  0  0  0  0  0  0  0  0  0  0  0
   32.7620   30.5740   32.5140 C   0  0  0  0  0  0  0  0  0  0  0  0
   32.4270   31.0120   31.4120 O   0  0  0  0  0  0  0  0  0  0  0  0
   32.1920   29.3260   32.5630 O   0  0  0  0  0  0  0  0  0  0  0  0
   32.2130   28.6930   31.7970 H   0  0  0  0  0  0  0  0  0  0  0  0
  1  4  1  6  0  0  0
  1  3  1  0  0  0  0
  1  8  1  0  0  0  0
  2  1  1  0  0  0  0
  2  3  1  0  0  0  0
  3 28  1  0  0  0  0
  3  7  1  1  0  0  0
  5  2  1  0  0  0  0
  6  2  1  0  0  0  0
  8 13  1  0  0  0  0
  9  8  2  0  0  0  0
 10 11  2  0  0  0  0
 10 17  1  0  0  0  0
 11 15  1  0  0  0  0
 12 11  1  0  0  0  0
 13 14  1  0  0  0  0
 13 12  2  0  0  0  0
 14 10  1  0  0  0  0
 16 12  1  0  0  0  0
 17 18  2  0  0  0  0
 19 17  1  0  0  0  0
 19 20  1  0  0  0  0
 20 25  1  0  0  0  0
 21 20  2  0  0  0  0
 21 26  1  0  0  0  0
 22 21  1  0  0  0  0
 23 24  1  0  0  0  0
 23 22  2  0  0  0  0
 24 19  2  0  0  0  0
 27 23  1  0  0  0  0
 28 29  1  0  0  0  0
 29 30  2  0  0  0  0
 29 38  1  0  0  0  0
 30 31  1  0  0  0  0
 31 32  1  0  0  0  0
 31 36  1  0  0  0  0
 32 33  1  6  0  0  0
 32 36  1  0  0  0  0
 32 34  1  0  0  0  0
 34 35  1  0  0  0  0
 36 37  1  1  0  0  0
 36 34  1  0  0  0  0
 38 37  1  0  0  0  0
 39 38  1  0  0  0  0
 40 42  1  0  0  0  0
 40 30  1  0  0  0  0
 41 40  2  0  0  0  0
 43 42  1  0  0  0  0
M  END
>  <minimizedAffinity>
-6.04052639

$$$$

 OpenBabel03272507353D

 43 48  0  0  1  0  0  0  0  0999 V2000
   38.4900   26.1390   33.8380 C   0  0  1  0  0  0  0  0  0  0  0  0
   39.9400   26.5930   33.4070 C   0  0  0  0  0  0  0  0  0  0  0  0
   39.6940   25.5180   34.3960 C   0  0  2  0  0  0  0  0  0  0  0  0
   37.9500   25.8560   32.9100 H   0  0  0  0  0  0  0  0  0  0  0  0
   40.3000   27.5490   33.7710 H   0  0  0  0  0  0  0  0  0  0  0  0
   40.2650   26.3050   32.3990 H   0  0  0  0  0  0  0  0  0  0  0  0
   39.8420   25.7510   35.4840 H   0  0  0  0  0  0  0  0  0  0  0  0
   37.8210   27.2570   34.5850 C   0  0  0  0  0  0  0  0  0  0  0  0
   38.1490   27.5470   35.7820 O   0  0  0  0  0  0  0  0  0  0  0  0
   35.0000   29.2910   33.7440 C   0  0  0  0  0  0  0  0  0  0  0  0
   35.4910   29.0720   32.4690 C   0  0  0  0  0  0  0  0  0  0  0  0
   36.6350   28.2690   32.5940 C   0  0  0  0  0  0  0  0  0  0  0  0
   36.7700   28.0490   33.9480 C   0  0  0  0  0  0  0  0  0  0  0  0
   35.7920   28.6670   34.5760 O   0  0  0  0  0  0  0  0  0  0  0  0
   35.1700   29.3860   31.4700 H   0  0  0  0  0  0  0  0  0  0  0  0
   37.2750   27.9020   31.7970 H   0  0  0  0  0  0  0  0  0  0  0  0
   33.8130   30.0880   33.9830 C   0  0  0  0  0  0  0  0  0  0  0  0
   32.9270   30.1320   33.1180 O   0  0  0  0  0  0  0  0  0  0  0  0
   33.7380   30.7890   35.2350 C   0  0  0  0  0  0  0  0  0  0  0  0
   34.6890   31.7690   35.4670 C   0  0  0  0  0  0  0  0  0  0  0  0
   34.6440   32.4660   36.6780 C   0  0  0  0  0  0  0  0  0  0  0  0
   33.6560   32.1420   37.5790 N   0  0  0  0  0  0  0  0  0  0  0  0
   32.7550   31.1880   37.3170 C   0  0  0  0  0  0  0  0  0  0  0  0
   32.7890   30.5150   36.1610 N   0  0  0  0  0  0  0  0  0  0  0  0
   35.4600   32.0180   34.7580 H   0  0  0  0  0  0  0  0  0  0  0  0
   35.3820   33.2440   36.8870 H   0  0  0  0  0  0  0  0  0  0  0  0
   31.9870   30.9560   38.0500 H   0  0  0  0  0  0  0  0  0  0  0  0
   40.1620   24.1510   33.9960 C   0  0  0  0  0  2  0  0  0  0  0  0
   39.1100   23.3050   33.4230 C   0  0  0  0  0  0  0  0  0  0  0  0
   38.1710   22.6570   34.0930 C   0  0  0  0  0  0  0  0  0  0  0  0
   37.2100   21.8560   33.4170 N   0  0  0  0  0  0  0  0  0  0  0  0
   36.0480   21.0460   33.5280 C   0  0  1  0  0  0  0  0  0  0  0  0
   35.5410   20.2600   34.3820 O   0  0  0  0  0  1  0  0  0  0  0  0
   35.6340   21.5050   32.1830 C   0  0  0  0  0  3  0  0  0  0  0  0
   35.1160   22.4680   32.1220 H   0  0  0  0  0  0  0  0  0  0  0  0
   37.1380   21.5560   32.0170 C   0  0  1  0  0  0  0  0  0  0  0  0
   37.7490   22.9340   31.0530 S   0  0  0  0  0  0  0  0  0  0  0  0
   39.2730   23.2840   31.9630 C   0  0  0  0  0  3  0  0  0  0  0  0
   40.0120   22.4890   31.6710 H   0  0  0  0  0  0  0  0  0  0  0  0
   38.0700   22.7150   35.5700 C   0  0  0  0  0  0  0  0  0  0  0  0
   37.4980   23.4810   36.3470 O   0  0  0  0  0  0  0  0  0  0  0  0
   38.6820   21.8030   36.3920 O   0  0  0  0  0  0  0  0  0  0  0  0
   38.2300   21.3960   37.1790 H   0  0  0  0  0  0  0  0  0  0  0  0
  1  4  1  6  0  0  0
  1  3  1  0  0  0  0
  1  8  1  0  0  0  0
  2  5  1  0  0  0  0
  2  1  1  0  0  0  0
  2  3  1  0  0  0  0
  3  7  1  1  0  0  0
  6  2  1  0  0  0  0
  8  9  2  0  0  0  0
 10 17  1  0  0  0  0
 10 14  1  0  0  0  0
 11 12  1  0  0  0  0
 11 10  2  0  0  0  0
 12 13  2  0  0  0  0
 13 14  1  0  0  0  0
 13  8  1  0  0  0  0
 15 11  1  0  0  0  0
 16 12  1  0  0  0  0
 17 19  1  0  0  0  0
 18 17  2  0  0  0  0
 19 20  2  0  0  0  0
 19 24  1  0  0  0  0
 20 21  1  0  0  0  0
 21 26  1  0  0  0  0
 21 22  2  0  0  0  0
 23 22  1  0  0  0  0
 23 27  1  0  0  0  0
 24 23  2  0  0  0  0
 25 20  1  0  0  0  0
 28  3  1  0  0  0  0
 29 28  1  0  0  0  0
 29 30  2  0  0  0  0
 30 40  1  0  0  0  0
 31 32  1  0  0  0  0
 31 30  1  0  0  0  0
 32 33  1  1  0  0  0
 34 32  1  0  0  0  0
 35 34  1  0  0  0  0
 36 37  1  6  0  0  0
 36 34  1  0  0  0  0
 36 31  1  0  0  0  0
 36 32  1  0  0  0  0
 37 38  1  0  0  0  0
 38 29  1  0  0  0  0
 39 38  1  0  0  0  0
 40 41  2  0  0  0  0
 40 42  1  0  0  0  0
 42 43  1  0  0  0  0
M  END
>  <minimizedAffinity>
-5.88678741

$$$$

 OpenBabel03272507353D

 43 48  0  0  1  0  0  0  0  0999 V2000
   36.1770   27.5970   32.6490 C   0  0  1  0  0  0  0  0  0  0  0  0
   37.3630   27.9710   31.6750 C   0  0  0  0  0  0  0  0  0  0  0  0
   36.9830   26.5720   31.9810 C   0  0  2  0  0  0  0  0  0  0  0  0
   35.2670   28.1030   32.2600 H   0  0  0  0  0  0  0  0  0  0  0  0
   38.2740   28.3590   32.1150 H   0  0  0  0  0  0  0  0  0  0  0  0
   37.0830   28.3820   30.6970 H   0  0  0  0  0  0  0  0  0  0  0  0
   37.6250   25.9890   32.6930 H   0  0  0  0  0  0  0  0  0  0  0  0
   36.5290   28.0200   34.0470 C   0  0  0  0  0  0  0  0  0  0  0  0
   36.0910   29.1100   34.5410 O   0  0  0  0  0  0  0  0  0  0  0  0
   38.0270   25.4790   36.0710 C   0  0  0  0  0  0  0  0  0  0  0  0
   39.0650   26.3950   36.0780 C   0  0  0  0  0  0  0  0  0  0  0  0
   38.6560   27.4960   35.3100 C   0  0  0  0  0  0  0  0  0  0  0  0
   37.3850   27.1790   34.8820 C   0  0  0  0  0  0  0  0  0  0  0  0
   37.0640   25.9920   35.3520 O   0  0  0  0  0  0  0  0  0  0  0  0
   40.0590   26.4090   36.5380 H   0  0  0  0  0  0  0  0  0  0  0  0
   39.2180   28.4010   35.1000 H   0  0  0  0  0  0  0  0  0  0  0  0
   38.1150   24.2160   36.7760 C   0  0  0  0  0  0  0  0  0  0  0  0
   37.2570   23.9320   37.6250 O   0  0  0  0  0  0  0  0  0  0  0  0
   39.2140   23.3540   36.4370 C   0  0  0  0  0  0  0  0  0  0  0  0
   39.9440   22.8200   37.4850 C   0  0  0  0  0  0  0  0  0  0  0  0
   41.0210   21.9820   37.1870 C   0  0  0  0  0  0  0  0  0  0  0  0
   41.3020   21.7290   35.8640 N   0  0  0  0  0  0  0  0  0  0  0  0
   40.5720   22.2640   34.8790 C   0  0  0  0  0  0  0  0  0  0  0  0
   39.5380   23.0690   35.1530 N   0  0  0  0  0  0  0  0  0  0  0  0
   39.7190   23.0220   38.5190 H   0  0  0  0  0  0  0  0  0  0  0  0
   41.6140   21.5470   37.9950 H   0  0  0  0  0  0  0  0  0  0  0  0
   40.8200   22.0460   33.8440 H   0  0  0  0  0  0  0  0  0  0  0  0
   36.4760   25.7710   30.8200 C   0  0  0  0  0  2  0  0  0  0  0  0
   36.8240   24.3480   30.8800 C   0  0  0  0  0  0  0  0  0  0  0  0
   37.9330   23.7900   30.4230 C   0  0  0  0  0  0  0  0  0  0  0  0
   38.1480   22.3880   30.5330 N   0  0  0  0  0  0  0  0  0  0  0  0
   39.0380   21.3020   30.3220 C   0  0  1  0  0  0  0  0  0  0  0  0
   39.9450   20.9900   29.4930 O   0  0  0  0  0  1  0  0  0  0  0  0
   38.4650   20.6370   31.5140 C   0  0  0  0  0  3  0  0  0  0  0  0
   38.8590   20.9400   32.4900 H   0  0  0  0  0  0  0  0  0  0  0  0
   37.2450   21.3940   31.0340 C   0  0  1  0  0  0  0  0  0  0  0  0
   36.2190   22.0800   32.3290 S   0  0  0  0  0  0  0  0  0  0  0  0
   35.7220   23.6260   31.5300 C   0  0  0  0  0  3  0  0  0  0  0  0
   34.9380   23.3580   30.7720 H   0  0  0  0  0  0  0  0  0  0  0  0
   39.0030   24.5780   29.7670 C   0  0  0  0  0  0  0  0  0  0  0  0
   39.8630   25.3510   30.1920 O   0  0  0  0  0  0  0  0  0  0  0  0
   39.2150   24.5570   28.4120 O   0  0  0  0  0  0  0  0  0  0  0  0
   40.1210   24.4940   28.0080 H   0  0  0  0  0  0  0  0  0  0  0  0
  1  4  1  6  0  0  0
  1  8  1  0  0  0  0
  2  3  1  0  0  0  0
  2  5  1  0  0  0  0
  2  1  1  0  0  0  0
  3  1  1  0  0  0  0
  3  7  1  1  0  0  0
  6  2  1  0  0  0  0
  8  9  2  0  0  0  0
  8 13  1  0  0  0  0
 10 11  2  0  0  0  0
 10 17  1  0  0  0  0
 11 15  1  0  0  0  0
 12 11  1  0  0  0  0
 13 12  2  0  0  0  0
 13 14  1  0  0  0  0
 14 10  1  0  0  0  0
 16 12  1  0  0  0  0
 17 18  2  0  0  0  0
 19 17  1  0  0  0  0
 19 20  1  0  0  0  0
 20 25  1  0  0  0  0
 21 20  2  0  0  0  0
 21 26  1  0  0  0  0
 22 21  1  0  0  0  0
 23 24  1  0  0  0  0
 23 22  2  0  0  0  0
 24 19  2  0  0  0  0
 27 23  1  0  0  0  0
 28 29  1  0  0  0  0
 28  3  1  0  0  0  0
 29 38  1  0  0  0  0
 30 31  1  0  0  0  0
 30 29  2  0  0  0  0
 31 36  1  0  0  0  0
 32 33  1  6  0  0  0
 32 31  1  0  0  0  0
 32 36  1  0  0  0  0
 32 34  1  0  0  0  0
 34 35  1  0  0  0  0
 36 34  1  1  0  0  0
 36 37  1  0  0  0  0
 38 37  1  0  0  0  0
 39 38  1  0  0  0  0
 40 41  2  0  0  0  0
 40 30  1  0  0  0  0
 42 40  1  0  0  0  0
 43 42  1  0  0  0  0
M  END
>  <minimizedAffinity>
-5.7592802

$$$$

 OpenBabel03272507353D

 43 48  0  0  1  0  0  0  0  0999 V2000
   37.8110   27.4800   32.8490 C   0  0  1  0  0  0  0  0  0  0  0  0
   36.6560   28.0170   33.7820 C   0  0  0  0  0  0  0  0  0  0  0  0
   37.3990   26.7660   34.0610 C   0  0  2  0  0  0  0  0  0  0  0  0
   38.5640   28.2920   32.7640 H   0  0  0  0  0  0  0  0  0  0  0  0
   35.6360   27.9350   33.4230 H   0  0  0  0  0  0  0  0  0  0  0  0
   36.8870   28.9030   34.3870 H   0  0  0  0  0  0  0  0  0  0  0  0
   36.8960   25.7880   33.8420 H   0  0  0  0  0  0  0  0  0  0  0  0
   37.2330   27.0780   31.5220 C   0  0  0  0  0  0  0  0  0  0  0  0
   37.2980   27.8470   30.5080 O   0  0  0  0  0  0  0  0  0  0  0  0
   36.3440   23.6260   31.2170 C   0  0  0  0  0  0  0  0  0  0  0  0
   35.0890   24.1830   31.0510 C   0  0  0  0  0  0  0  0  0  0  0  0
   35.2340   25.5760   31.1440 C   0  0  0  0  0  0  0  0  0  0  0  0
   36.5790   25.7800   31.3610 C   0  0  0  0  0  0  0  0  0  0  0  0
   37.1840   24.6120   31.3970 O   0  0  0  0  0  0  0  0  0  0  0  0
   34.0920   23.7640   30.8750 H   0  0  0  0  0  0  0  0  0  0  0  0
   34.4550   26.3280   31.0610 H   0  0  0  0  0  0  0  0  0  0  0  0
   36.5600   22.1930   31.1770 C   0  0  0  0  0  0  0  0  0  0  0  0
   35.5920   21.4380   31.0050 O   0  0  0  0  0  0  0  0  0  0  0  0
   37.9100   21.7310   31.3430 C   0  0  0  0  0  0  0  0  0  0  0  0
   38.3530   21.5270   32.6390 C   0  0  0  0  0  0  0  0  0  0  0  0
   39.6630   21.0810   32.8330 C   0  0  0  0  0  0  0  0  0  0  0  0
   40.4480   20.8670   31.7220 N   0  0  0  0  0  0  0  0  0  0  0  0
   39.9830   21.0760   30.4860 C   0  0  0  0  0  0  0  0  0  0  0  0
   38.7300   21.5030   30.2890 N   0  0  0  0  0  0  0  0  0  0  0  0
   37.7340   21.6960   33.5040 H   0  0  0  0  0  0  0  0  0  0  0  0
   40.0380   20.9120   33.8440 H   0  0  0  0  0  0  0  0  0  0  0  0
   40.6280   20.8980   29.6290 H   0  0  0  0  0  0  0  0  0  0  0  0
   38.2150   26.7650   35.3180 C   0  0  0  0  0  2  0  0  0  0  0  0
   38.7320   25.4460   35.6930 C   0  0  0  0  0  0  0  0  0  0  0  0
   39.8930   24.9240   35.3320 C   0  0  0  0  0  0  0  0  0  0  0  0
   40.2760   23.6220   35.7560 N   0  0  0  0  0  0  0  0  0  0  0  0
   41.2870   22.6250   35.7670 C   0  0  1  0  0  0  0  0  0  0  0  0
   42.2120   22.2300   34.9960 O   0  0  0  0  0  1  0  0  0  0  0  0
   40.8150   22.2000   37.1050 C   0  0  0  0  0  3  0  0  0  0  0  0
   41.1840   22.7680   37.9660 H   0  0  0  0  0  0  0  0  0  0  0  0
   39.5060   22.6790   36.5140 C   0  0  1  0  0  0  0  0  0  0  0  0
   38.4240   23.5320   37.6560 S   0  0  0  0  0  0  0  0  0  0  0  0
   37.7340   24.7780   36.5400 C   0  0  0  0  0  3  0  0  0  0  0  0
   36.9760   24.2510   35.8990 H   0  0  0  0  0  0  0  0  0  0  0  0
   40.8510   25.6510   34.4650 C   0  0  0  0  0  0  0  0  0  0  0  0
   41.0680   25.6400   33.2530 O   0  0  0  0  0  0  0  0  0  0  0  0
   41.7520   26.5620   34.9570 O   0  0  0  0  0  0  0  0  0  0  0  0
   41.9280   27.4370   34.5200 H   0  0  0  0  0  0  0  0  0  0  0  0
  1  4  1  1  0  0  0
  1  2  1  0  0  0  0
  1  3  1  0  0  0  0
  2  3  1  0  0  0  0
  2  6  1  0  0  0  0
  3  7  1  6  0  0  0
  3 28  1  0  0  0  0
  5  2  1  0  0  0  0
  8  1  1  0  0  0  0
  9  8  2  0  0  0  0
 10 14  1  0  0  0  0
 11 12  1  0  0  0  0
 11 10  2  0  0  0  0
 12 13  2  0  0  0  0
 13 14  1  0  0  0  0
 13  8  1  0  0  0  0
 15 11  1  0  0  0  0
 16 12  1  0  0  0  0
 17 10  1  0  0  0  0
 17 19  1  0  0  0  0
 18 17  2  0  0  0  0
 19 20  1  0  0  0  0
 20 21  2  0  0  0  0
 20 25  1  0  0  0  0
 21 26  1  0  0  0  0
 22 21  1  0  0  0  0
 23 22  2  0  0  0  0
 24 23  1  0  0  0  0
 24 19  2  0  0  0  0
 27 23  1  0  0  0  0
 28 29  1  0  0  0  0
 29 38  1  0  0  0  0
 30 29  2  0  0  0  0
 30 31  1  0  0  0  0
 31 32  1  0  0  0  0
 31 36  1  0  0  0  0
 32 33  1  6  0  0  0
 32 36  1  0  0  0  0
 32 34  1  0  0  0  0
 34 35  1  0  0  0  0
 36 34  1  1  0  0  0
 36 37  1  0  0  0  0
 38 37  1  0  0  0  0
 39 38  1  0  0  0  0
 40 42  1  0  0  0  0
 40 30  1  0  0  0  0
 41 40  2  0  0  0  0
 43 42  1  0  0  0  0
M  END
>  <minimizedAffinity>
-5.74908447

$$$$

 OpenBabel03272507353D

 43 48  0  0  1  0  0  0  0  0999 V2000
   36.9400   27.8110   33.8470 C   0  0  1  0  0  0  0  0  0  0  0  0
   37.1450   26.2590   33.6370 C   0  0  0  0  0  0  0  0  0  0  0  0
   38.2470   27.1710   34.0220 C   0  0  2  0  0  0  0  0  0  0  0  0
   36.1380   27.9310   34.6060 H   0  0  0  0  0  0  0  0  0  0  0  0
   37.1280   25.8800   32.6210 H   0  0  0  0  0  0  0  0  0  0  0  0
   36.7240   25.6000   34.4070 H   0  0  0  0  0  0  0  0  0  0  0  0
   38.9890   27.4710   33.2360 H   0  0  0  0  0  0  0  0  0  0  0  0
   36.6000   28.4510   32.5310 C   0  0  0  0  0  0  0  0  0  0  0  0
   37.3660   28.3360   31.5190 O   0  0  0  0  0  0  0  0  0  0  0  0
   33.3180   29.8640   32.7000 C   0  0  0  0  0  0  0  0  0  0  0  0
   33.8500   30.6810   31.7180 C   0  0  0  0  0  0  0  0  0  0  0  0
   35.1750   30.2710   31.5060 C   0  0  0  0  0  0  0  0  0  0  0  0
   35.3670   29.2220   32.3790 C   0  0  0  0  0  0  0  0  0  0  0  0
   34.2550   29.0240   33.0530 O   0  0  0  0  0  0  0  0  0  0  0  0
   33.4520   31.5150   31.1300 H   0  0  0  0  0  0  0  0  0  0  0  0
   35.8930   30.6900   30.8060 H   0  0  0  0  0  0  0  0  0  0  0  0
   31.9530   30.0120   33.1660 C   0  0  0  0  0  0  0  0  0  0  0  0
   31.1400   30.6430   32.4740 O   0  0  0  0  0  0  0  0  0  0  0  0
   31.6240   29.4050   34.4260 C   0  0  0  0  0  0  0  0  0  0  0  0
   30.9200   28.2140   34.3880 C   0  0  0  0  0  0  0  0  0  0  0  0
   30.5820   27.6010   35.5980 C   0  0  0  0  0  0  0  0  0  0  0  0
   30.9680   28.2150   36.7680 N   0  0  0  0  0  0  0  0  0  0  0  0
   31.6480   29.3670   36.7620 C   0  0  0  0  0  0  0  0  0  0  0  0
   31.9770   29.9620   35.6100 N   0  0  0  0  0  0  0  0  0  0  0  0
   30.6210   27.7380   33.4690 H   0  0  0  0  0  0  0  0  0  0  0  0
   30.0260   26.6610   35.5970 H   0  0  0  0  0  0  0  0  0  0  0  0
   31.9380   29.8270   37.7030 H   0  0  0  0  0  0  0  0  0  0  0  0
   38.8530   26.9200   35.3690 C   0  0  0  0  0  2  0  0  0  0  0  0
   39.1120   25.5050   35.6530 C   0  0  0  0  0  0  0  0  0  0  0  0
   40.1520   24.7980   35.2400 C   0  0  0  0  0  0  0  0  0  0  0  0
   40.2840   23.4230   35.5760 N   0  0  0  0  0  0  0  0  0  0  0  0
   41.0870   22.2540   35.5070 C   0  0  1  0  0  0  0  0  0  0  0  0
   41.9170   21.7420   34.6970 O   0  0  0  0  0  1  0  0  0  0  0  0
   40.5520   21.8420   36.8240 C   0  0  0  0  0  3  0  0  0  0  0  0
   41.0270   22.2730   37.7120 H   0  0  0  0  0  0  0  0  0  0  0  0
   39.3540   22.5960   36.2880 C   0  0  1  0  0  0  0  0  0  0  0  0
   38.4600   23.5620   37.4990 S   0  0  0  0  0  0  0  0  0  0  0  0
   38.0110   24.9850   36.4750 C   0  0  0  0  0  3  0  0  0  0  0  0
   37.1640   24.6520   35.8160 H   0  0  0  0  0  0  0  0  0  0  0  0
   41.2240   25.3860   34.4030 C   0  0  0  0  0  0  0  0  0  0  0  0
   42.2880   25.9480   34.6670 O   0  0  0  0  0  0  0  0  0  0  0  0
   41.1790   25.3860   33.0310 O   0  0  0  0  0  0  0  0  0  0  0  0
   41.9640   25.1600   32.4650 H   0  0  0  0  0  0  0  0  0  0  0  0
  1  3  1  0  0  0  0
  1  4  1  1  0  0  0
  2  1  1  0  0  0  0
  2  3  1  0  0  0  0
  2  6  1  0  0  0  0
  3  7  1  6  0  0  0
  3 28  1  0  0  0  0
  5  2  1  0  0  0  0
  8  1  1  0  0  0  0
  9  8  2  0  0  0  0
 10 14  1  0  0  0  0
 10 17  1  0  0  0  0
 11 10  2  0  0  0  0
 12 11  1  0  0  0  0
 12 13  2  0  0  0  0
 13  8  1  0  0  0  0
 13 14  1  0  0  0  0
 15 11  1  0  0  0  0
 16 12  1  0  0  0  0
 17 19  1  0  0  0  0
 18 17  2  0  0  0  0
 19 24  1  0  0  0  0
 20 19  2  0  0  0  0
 20 21  1  0  0  0  0
 21 22  2  0  0  0  0
 23 22  1  0  0  0  0
 23 27  1  0  0  0  0
 24 23  2  0  0  0  0
 25 20  1  0  0  0  0
 26 21  1  0  0  0  0
 28 29  1  0  0  0  0
 29 38  1  0  0  0  0
 30 31  1  0  0  0  0
 30 29  2  0  0  0  0
 31 36  1  0  0  0  0
 32 33  1  6  0  0  0
 32 31  1  0  0  0  0
 32 36  1  0  0  0  0
 32 34  1  0  0  0  0
 34 35  1  0  0  0  0
 36 34  1  1  0  0  0
 36 37  1  0  0  0  0
 38 37  1  0  0  0  0
 39 38  1  0  0  0  0
 40 41  2  0  0  0  0
 40 30  1  0  0  0  0
 42 40  1  0  0  0  0
 43 42  1  0  0  0  0
M  END
>  <minimizedAffinity>
-5.73920059

$$$$
