
     RDKit          3D

 39 42  0  0  0  0  0  0  0  0999 V2000
   37.2127   30.4305   50.3027 C   0  0  0  0  0  0  0  0  0  0  0  0
   37.5990   30.3897   51.4943 O   0  0  0  0  0  0  0  0  0  0  0  0
   37.8881   31.1916   49.2782 C   0  0  0  0  0  0  0  0  0  0  0  0
   38.2926   32.4806   49.5964 C   0  0  0  0  0  0  0  0  0  0  0  0
   38.9449   33.2398   48.6344 C   0  0  0  0  0  0  0  0  0  0  0  0
   39.1565   32.6697   47.4091 N   0  0  0  0  0  0  0  0  0  0  0  0
   38.7552   31.4149   47.1203 C   0  0  0  0  0  0  0  0  0  0  0  0
   38.1284   30.6849   48.0445 N   0  0  0  0  0  0  0  0  0  0  0  0
   36.0314   29.6824   49.9185 C   0  0  0  0  0  0  0  0  0  0  0  0
   34.7864   30.2663   49.9022 C   0  0  0  0  0  0  0  0  0  0  0  0
   33.8942   29.2614   49.4874 C   0  0  0  0  0  0  0  0  0  0  0  0
   34.6651   28.1321   49.2802 C   0  0  0  0  0  0  0  0  0  0  0  0
   35.9026   28.4422   49.5486 O   0  0  0  0  0  0  0  0  0  0  0  0
   38.1290   32.9355   50.5594 H   0  0  0  0  0  0  0  0  0  0  0  0
   39.2720   34.2481   48.8535 H   0  0  0  0  0  0  0  0  0  0  0  0
   38.9512   31.0054   46.1183 H   0  0  0  0  0  0  0  0  0  0  0  0
   34.5234   31.2995   50.1563 H   0  0  0  0  0  0  0  0  0  0  0  0
   32.8111   29.3777   49.3623 H   0  0  0  0  0  0  0  0  0  0  0  0
   34.0513   26.8481   48.8271 C   0  0  0  0  0  0  0  0  0  0  0  0
   32.6985   27.1690   48.3376 C   0  0  0  0  0  0  0  0  0  0  0  0
   32.2740   26.9414   47.1164 C   0  0  0  0  0  0  0  0  0  0  0  0
   33.1168   26.3262   46.0678 C   0  0  0  0  0  0  0  0  0  0  0  0
   34.2822   25.8982   46.0095 O   0  0  0  0  0  0  0  0  0  0  0  0
   32.6811   26.0910   44.7880 O   0  0  0  0  0  0  0  0  0  0  0  0
   30.9457   27.2898   46.7780 N   0  0  0  0  0  0  0  0  0  0  0  0
   30.0549   27.8636   45.8003 C   0  0  0  0  0  0  0  0  0  0  0  0
   30.1135   28.2099   44.5730 O   0  0  0  0  0  0  0  0  0  0  0  0
   28.9307   27.9384   46.7503 C   0  0  2  0  0  0  0  0  0  0  0  0
   27.9772   27.4878   46.3939 H   0  0  0  0  0  0  0  0  0  0  0  0
   29.7767   27.0756   47.6287 C   0  0  2  0  0  0  0  0  0  0  0  0
   30.1850   27.8802   49.2125 S   0  0  0  0  0  0  0  0  0  0  0  0
   31.9772   27.7857   49.4722 C   0  0  1  0  0  0  0  0  0  0  0  0
   32.0930   27.1918   50.4261 H   0  0  0  0  0  0  0  0  0  0  0  0
   34.7012   26.3025   48.1541 H   0  0  0  0  0  0  0  0  0  0  0  0
   33.9613   26.2220   49.7632 H   0  0  0  0  0  0  0  0  0  0  0  0
   33.2061   26.3983   43.9807 H   0  0  0  0  0  0  0  0  0  0  0  0
   28.7854   28.9578   47.1811 H   0  0  0  0  0  0  0  0  0  0  0  0
   29.4284   26.0436   47.6865 H   0  0  0  0  0  0  0  0  0  0  0  0
   32.3219   28.8348   49.6571 H   0  0  0  0  0  0  0  0  0  0  0  0
  1  2  2  0
  3  4  2  0
  3  1  1  0
  5  4  1  0
  6  5  2  0
  7  6  1  0
  7  8  2  0
  8  3  1  0
  9  1  1  0
 10  9  2  0
 11 10  1  0
 12 11  2  0
 12 13  1  0
 13  9  1  0
  4 14  1  0
  5 15  1  0
  7 16  1  0
 10 17  1  0
 11 18  1  0
 19 20  1  0
 20 21  2  0
 21 22  1  0
 22 23  2  0
 22 24  1  0
 21 25  1  0
 25 26  1  0
 26 27  2  0
 26 28  1  0
 28 29  1  6
 28 30  1  0
 30 31  1  0
 31 32  1  0
 32 33  1  1
 32 20  1  0
 30 25  1  0
 19 34  1  0
 19 35  1  0
 24 36  1  0
 28 37  1  0
 30 38  1  1
 32 39  1  0
 12 19  1  0
M  ISO  7  14  14  15  14  16  14  17  14  18  14  29  15  33  15
M  END
>  <DihAtoms>  (1) 
10,11,18,19

>  <DihDeg>  (1) 
-90.00886595699221

$$$$
