
 OpenBabel03272509283D

 48 51  0  0  1  0  0  0  0  0999 V2000
   36.9920   26.2480   33.0480 C   0  0  2  0  0  0  0  0  0  0  0  0
   36.6370   26.9820   31.7720 C   0  0  0  0  0  0  0  0  0  0  0  0
   36.6280   28.4740   32.0730 C   0  0  0  0  0  0  0  0  0  0  0  0
   36.0510   28.7110   33.4190 C   0  0  0  0  0  0  0  0  0  0  0  0
   36.6500   27.9330   34.5430 C   0  0  0  0  0  0  0  0  0  0  0  0
   37.7430   27.0340   33.9610 C   0  0  1  0  0  0  0  0  0  0  0  0
   35.9820   25.9160   33.4520 H   0  0  0  0  0  0  0  0  0  0  0  0
   37.4300   26.8230   30.9860 H   0  0  0  0  0  0  0  0  0  0  0  0
   35.7020   26.6360   31.3460 H   0  0  0  0  0  0  0  0  0  0  0  0
   37.5420   29.0000   31.8120 H   0  0  0  0  0  0  0  0  0  0  0  0
   35.8610   28.8840   31.3400 H   0  0  0  0  0  0  0  0  0  0  0  0
   34.9460   28.4840   33.3600 H   0  0  0  0  0  0  0  0  0  0  0  0
   36.0670   29.8180   33.5860 H   0  0  0  0  0  0  0  0  0  0  0  0
   35.8880   27.2200   34.9700 H   0  0  0  0  0  0  0  0  0  0  0  0
   36.8980   28.6230   35.3050 H   0  0  0  0  0  0  0  0  0  0  0  0
   38.2730   27.7950   33.2400 H   0  0  0  0  0  0  0  0  0  0  0  0
   37.7440   24.7310   32.4830 S   0  0  0  0  0  0  0  0  0  0  0  0
   36.8120   24.0990   31.0670 C   0  0  0  0  0  0  0  0  0  0  0  0
   36.4490   25.0200   30.5030 H   0  0  0  0  0  0  0  0  0  0  0  0
   37.4920   23.6320   30.3690 H   0  0  0  0  0  0  0  0  0  0  0  0
   35.6240   23.3900   31.5450 C   0  0  0  0  0  0  0  0  0  0  0  0
   34.7480   23.5450   30.8670 H   0  0  0  0  0  0  0  0  0  0  0  0
   35.4390   23.6060   32.6130 H   0  0  0  0  0  0  0  0  0  0  0  0
   34.9970   19.7680   32.1390 C   0  0  0  0  0  0  0  0  0  0  0  0
   34.8420   21.1520   32.1910 C   0  0  0  0  0  0  0  0  0  0  0  0
   35.7060   21.9440   31.5150 C   0  0  0  0  0  0  0  0  0  0  0  0
   36.7150   21.3300   30.7960 N   0  0  0  0  0  0  0  0  0  0  0  0
   36.8320   19.9980   30.7690 C   0  0  0  0  0  0  0  0  0  0  0  0
   35.9930   19.1970   31.4270 N   0  0  0  0  0  0  0  0  0  0  0  0
   34.3240   19.1090   32.6670 H   0  0  0  0  0  0  0  0  0  0  0  0
   33.9990   21.4500   32.7920 H   0  0  0  0  0  0  0  0  0  0  0  0
   37.6500   19.6020   30.1820 H   0  0  0  0  0  0  0  0  0  0  0  0
   38.6520   27.0020   35.0240 C   0  0  0  0  0  2  0  0  0  0  0  0
   38.9540   25.6310   35.5860 C   0  0  0  0  0  0  0  0  0  0  0  0
   40.1220   25.0220   35.2960 C   0  0  0  0  0  0  0  0  0  0  0  0
   40.4280   23.7530   35.8270 N   0  0  0  0  0  0  0  0  0  0  0  0
   41.3990   22.8500   36.3150 C   0  0  0  0  0  0  0  0  0  0  0  0
   42.6510   22.7410   36.3650 O   0  0  0  0  0  0  0  0  0  0  0  0
   40.4010   21.8920   36.8500 C   0  0  0  0  0  3  0  0  0  0  0  0
   40.2930   21.8670   37.9540 H   0  0  0  0  0  0  0  0  0  0  0  0
   39.4220   22.7250   36.0810 C   0  0  1  0  0  3  0  0  0  0  0  0
   38.2550   23.5330   37.2440 S   0  0  0  0  0  0  0  0  0  0  0  0
   37.8480   25.0950   36.4240 C   0  0  0  0  0  3  0  0  0  0  0  0
   36.9160   24.8870   35.8550 H   0  0  0  0  0  0  0  0  0  0  0  0
   41.1710   25.6180   34.4380 C   0  0  0  0  0  0  0  0  0  0  0  0
   41.5500   25.7350   33.2530 O   0  0  0  0  0  0  0  0  0  0  0  0
   42.2150   26.3620   34.9220 O   0  0  0  0  0  0  0  0  0  0  0  0
   43.2080   26.2600   34.7600 H   0  0  0  0  0  0  0  0  0  0  0  0
  1  7  1  1  0  0  0
  1  6  1  0  0  0  0
  2  3  1  0  0  0  0
  2  1  1  0  0  0  0
  3  4  1  0  0  0  0
  4 13  1  0  0  0  0
  4  5  1  0  0  0  0
  5 14  1  0  0  0  0
  5 15  1  0  0  0  0
  6 16  1  6  0  0  0
  6  5  1  0  0  0  0
  6 33  1  0  0  0  0
  8  2  1  0  0  0  0
  9  2  1  0  0  0  0
 10  3  1  0  0  0  0
 11  3  1  0  0  0  0
 12  4  1  0  0  0  0
 17  1  1  0  0  0  0
 18 21  1  0  0  0  0
 18 17  1  0  0  0  0
 19 18  1  0  0  0  0
 20 18  1  0  0  0  0
 21 23  1  0  0  0  0
 22 21  1  0  0  0  0
 24 25  1  0  0  0  0
 24 30  1  0  0  0  0
 25 31  1  0  0  0  0
 26 21  1  0  0  0  0
 26 25  2  0  0  0  0
 27 26  1  0  0  0  0
 28 27  2  0  0  0  0
 28 29  1  0  0  0  0
 29 24  2  0  0  0  0
 32 28  1  0  0  0  0
 33 34  1  0  0  0  0
 34 43  1  0  0  0  0
 35 34  2  0  0  0  0
 35 36  1  0  0  0  0
 36 41  1  0  0  0  0
 36 37  1  0  0  0  0
 37 38  2  0  0  0  0
 37 39  1  0  0  0  0
 39 40  1  0  0  0  0
 41 39  1  1  0  0  0
 41 42  1  0  0  0  0
 43 42  1  0  0  0  0
 44 43  1  0  0  0  0
 45 47  1  0  0  0  0
 45 35  1  0  0  0  0
 46 45  2  0  0  0  0
 48 47  1  0  0  0  0
M  END
>  <minimizedAffinity>
-6.03199196

$$$$

 OpenBabel03272509283D

 48 51  0  0  1  0  0  0  0  0999 V2000
   36.7350   27.9820   32.6610 C   0  0  2  0  0  0  0  0  0  0  0  0
   38.0880   27.4920   32.1870 C   0  0  0  0  0  0  0  0  0  0  0  0
   38.4360   28.2330   30.9050 C   0  0  0  0  0  0  0  0  0  0  0  0
   37.2170   28.4010   30.0760 C   0  0  0  0  0  0  0  0  0  0  0  0
   36.0340   29.0100   30.7530 C   0  0  0  0  0  0  0  0  0  0  0  0
   36.4180   29.2890   32.2080 C   0  0  1  0  0  0  0  0  0  0  0  0
   36.0180   27.1800   32.2870 H   0  0  0  0  0  0  0  0  0  0  0  0
   38.8900   27.7560   32.9340 H   0  0  0  0  0  0  0  0  0  0  0  0
   38.1150   26.4140   32.0690 H   0  0  0  0  0  0  0  0  0  0  0  0
   39.0850   29.0950   31.0350 H   0  0  0  0  0  0  0  0  0  0  0  0
   39.0830   27.4880   30.3400 H   0  0  0  0  0  0  0  0  0  0  0  0
   36.9320   27.3820   29.6800 H   0  0  0  0  0  0  0  0  0  0  0  0
   37.5300   28.9480   29.1510 H   0  0  0  0  0  0  0  0  0  0  0  0
   35.1950   28.2600   30.8150 H   0  0  0  0  0  0  0  0  0  0  0  0
   35.7010   29.8070   30.1430 H   0  0  0  0  0  0  0  0  0  0  0  0
   37.4860   29.7530   32.0530 H   0  0  0  0  0  0  0  0  0  0  0  0
   36.7730   27.7280   34.4270 S   0  0  0  0  0  0  0  0  0  0  0  0
   38.4560   27.2920   34.9270 C   0  0  0  0  0  0  0  0  0  0  0  0
   38.8070   26.5120   34.1750 H   0  0  0  0  0  0  0  0  0  0  0  0
   39.1140   28.1290   34.7430 H   0  0  0  0  0  0  0  0  0  0  0  0
   38.4200   26.6400   36.2370 C   0  0  0  0  0  0  0  0  0  0  0  0
   37.5310   26.9600   36.8350 H   0  0  0  0  0  0  0  0  0  0  0  0
   39.3930   26.7330   36.7520 H   0  0  0  0  0  0  0  0  0  0  0  0
   37.6800   23.1280   37.2310 C   0  0  0  0  0  0  0  0  0  0  0  0
   37.8490   24.5090   37.3190 C   0  0  0  0  0  0  0  0  0  0  0  0
   38.2000   25.2080   36.2150 C   0  0  0  0  0  0  0  0  0  0  0  0
   38.3730   24.5060   35.0360 N   0  0  0  0  0  0  0  0  0  0  0  0
   38.2010   23.1800   34.9900 C   0  0  0  0  0  0  0  0  0  0  0  0
   37.8570   22.4700   36.0650 N   0  0  0  0  0  0  0  0  0  0  0  0
   37.4020   22.5420   38.0940 H   0  0  0  0  0  0  0  0  0  0  0  0
   37.6660   24.8840   38.3120 H   0  0  0  0  0  0  0  0  0  0  0  0
   38.3580   22.7120   34.0280 H   0  0  0  0  0  0  0  0  0  0  0  0
   35.6650   30.4400   32.4630 C   0  0  0  0  0  2  0  0  0  0  0  0
   34.4980   30.2620   33.4080 C   0  0  0  0  0  0  0  0  0  0  0  0
   34.5620   30.7520   34.6630 C   0  0  0  0  0  0  0  0  0  0  0  0
   33.4750   30.6120   35.5500 N   0  0  0  0  0  0  0  0  0  0  0  0
   32.7080   31.1400   36.6120 C   0  0  0  0  0  0  0  0  0  0  0  0
   32.7680   32.0760   37.4510 O   0  0  0  0  0  0  0  0  0  0  0  0
   31.6180   30.1450   36.4680 C   0  0  0  0  0  3  0  0  0  0  0  0
   30.6720   30.5190   36.0270 H   0  0  0  0  0  0  0  0  0  0  0  0
   32.5810   29.4570   35.5490 C   0  0  1  0  0  3  0  0  0  0  0  0
   31.8980   29.4350   33.8460 S   0  0  0  0  0  0  0  0  0  0  0  0
   33.3690   29.5130   32.7940 C   0  0  0  0  0  3  0  0  0  0  0  0
   33.6110   28.4530   32.5600 H   0  0  0  0  0  0  0  0  0  0  0  0
   35.7320   31.4770   35.2050 C   0  0  0  0  0  0  0  0  0  0  0  0
   36.3860   32.5390   35.1120 O   0  0  0  0  0  0  0  0  0  0  0  0
   36.5460   30.9770   36.1880 O   0  0  0  0  0  0  0  0  0  0  0  0
   37.5530   30.8830   36.2040 H   0  0  0  0  0  0  0  0  0  0  0  0
  1  7  1  6  0  0  0
  1 17  1  0  0  0  0
  2  1  1  0  0  0  0
  2  8  1  0  0  0  0
  3 10  1  0  0  0  0
  3  2  1  0  0  0  0
  4  5  1  0  0  0  0
  4  3  1  0  0  0  0
  5 14  1  0  0  0  0
  5  6  1  0  0  0  0
  6 16  1  6  0  0  0
  6 33  1  0  0  0  0
  6  1  1  0  0  0  0
  9  2  1  0  0  0  0
 11  3  1  0  0  0  0
 12  4  1  0  0  0  0
 13  4  1  0  0  0  0
 15  5  1  0  0  0  0
 17 18  1  0  0  0  0
 18 21  1  0  0  0  0
 19 18  1  0  0  0  0
 20 18  1  0  0  0  0
 21 23  1  0  0  0  0
 21 22  1  0  0  0  0
 24 25  1  0  0  0  0
 24 30  1  0  0  0  0
 25 31  1  0  0  0  0
 26 21  1  0  0  0  0
 26 25  2  0  0  0  0
 27 26  1  0  0  0  0
 28 27  2  0  0  0  0
 28 29  1  0  0  0  0
 29 24  2  0  0  0  0
 32 28  1  0  0  0  0
 33 34  1  0  0  0  0
 34 35  2  0  0  0  0
 35 45  1  0  0  0  0
 35 36  1  0  0  0  0
 36 37  1  0  0  0  0
 37 38  2  0  0  0  0
 39 37  1  0  0  0  0
 40 39  1  0  0  0  0
 41 42  1  6  0  0  0
 41 36  1  0  0  0  0
 41 39  1  0  0  0  0
 43 34  1  0  0  0  0
 43 42  1  0  0  0  0
 44 43  1  0  0  0  0
 45 47  1  0  0  0  0
 46 45  2  0  0  0  0
 47 48  1  0  0  0  0
M  END
>  <minimizedAffinity>
-5.88385916

$$$$

 OpenBabel03272509283D

 48 51  0  0  1  0  0  0  0  0999 V2000
   40.7670   23.9220   35.6710 C   0  0  2  0  0  0  0  0  0  0  0  0
   41.7060   22.8850   36.2530 C   0  0  0  0  0  0  0  0  0  0  0  0
   40.8840   21.9290   37.1050 C   0  0  0  0  0  0  0  0  0  0  0  0
   39.8370   22.6830   37.8370 C   0  0  0  0  0  0  0  0  0  0  0  0
   38.9620   23.5700   37.0150 C   0  0  0  0  0  0  0  0  0  0  0  0
   39.4270   23.4700   35.5600 C   0  0  1  0  0  0  0  0  0  0  0  0
   40.8950   24.8130   36.3670 H   0  0  0  0  0  0  0  0  0  0  0  0
   42.1680   22.2620   35.4340 H   0  0  0  0  0  0  0  0  0  0  0  0
   42.5260   23.3350   36.8010 H   0  0  0  0  0  0  0  0  0  0  0  0
   40.5930   21.0070   36.6090 H   0  0  0  0  0  0  0  0  0  0  0  0
   41.6210   21.5880   37.9010 H   0  0  0  0  0  0  0  0  0  0  0  0
   40.3550   23.3040   38.6270 H   0  0  0  0  0  0  0  0  0  0  0  0
   39.2670   21.9360   38.4450 H   0  0  0  0  0  0  0  0  0  0  0  0
   39.1290   24.6480   37.2970 H   0  0  0  0  0  0  0  0  0  0  0  0
   37.9600   23.3320   37.2560 H   0  0  0  0  0  0  0  0  0  0  0  0
   39.5730   22.3070   35.4710 H   0  0  0  0  0  0  0  0  0  0  0  0
   41.5710   24.4390   34.1640 S   0  0  0  0  0  0  0  0  0  0  0  0
   41.9030   26.2150   34.2480 C   0  0  0  0  0  0  0  0  0  0  0  0
   41.6900   26.5160   35.3260 H   0  0  0  0  0  0  0  0  0  0  0  0
   42.9650   26.3870   34.1470 H   0  0  0  0  0  0  0  0  0  0  0  0
   40.9440   26.9290   33.4040 C   0  0  0  0  0  0  0  0  0  0  0  0
   40.7530   26.3870   32.4450 H   0  0  0  0  0  0  0  0  0  0  0  0
   41.2260   27.9920   33.2980 H   0  0  0  0  0  0  0  0  0  0  0  0
   37.2310   27.0230   33.6840 C   0  0  0  0  0  0  0  0  0  0  0  0
   38.5030   26.9180   33.1220 C   0  0  0  0  0  0  0  0  0  0  0  0
   39.5930   27.0020   33.9200 C   0  0  0  0  0  0  0  0  0  0  0  0
   39.3860   27.1890   35.2750 N   0  0  0  0  0  0  0  0  0  0  0  0
   38.1500   27.2840   35.7780 C   0  0  0  0  0  0  0  0  0  0  0  0
   37.0620   27.2060   35.0120 N   0  0  0  0  0  0  0  0  0  0  0  0
   36.3430   26.9610   33.0740 H   0  0  0  0  0  0  0  0  0  0  0  0
   38.4710   26.7680   32.0560 H   0  0  0  0  0  0  0  0  0  0  0  0
   38.0800   27.4310   36.8480 H   0  0  0  0  0  0  0  0  0  0  0  0
   38.2130   23.6340   34.8850 C   0  0  0  0  0  2  0  0  0  0  0  0
   37.9860   22.7050   33.7130 C   0  0  0  0  0  0  0  0  0  0  0  0
   37.1730   21.6370   33.8430 C   0  0  0  0  0  0  0  0  0  0  0  0
   36.9350   20.7730   32.7550 N   0  0  0  0  0  0  0  0  0  0  0  0
   36.0470   19.9200   32.0620 C   0  0  0  0  0  0  0  0  0  0  0  0
   34.9260   19.3760   32.2360 O   0  0  0  0  0  0  0  0  0  0  0  0
   36.9140   19.8040   30.8650 C   0  0  0  0  0  3  0  0  0  0  0  0
   36.5760   20.3550   29.9630 H   0  0  0  0  0  0  0  0  0  0  0  0
   37.9360   20.4700   31.7350 C   0  0  1  0  0  3  0  0  0  0  0  0
   38.3610   22.1140   31.0390 S   0  0  0  0  0  0  0  0  0  0  0  0
   38.7470   23.1100   32.5000 C   0  0  0  0  0  3  0  0  0  0  0  0
   39.8500   23.0320   32.6180 H   0  0  0  0  0  0  0  0  0  0  0  0
   36.4600   21.2920   35.0930 C   0  0  0  0  0  0  0  0  0  0  0  0
   36.4250   21.5150   36.3220 O   0  0  0  0  0  0  0  0  0  0  0  0
   35.4080   20.4160   35.1490 O   0  0  0  0  0  0  0  0  0  0  0  0
   35.2720   19.6090   35.7440 H   0  0  0  0  0  0  0  0  0  0  0  0
  1  2  1  0  0  0  0
  1  7  1  1  0  0  0
  2  9  1  0  0  0  0
  2  3  1  0  0  0  0
  3  4  1  0  0  0  0
  3 11  1  0  0  0  0
  4 13  1  0  0  0  0
  4 12  1  0  0  0  0
  5 15  1  0  0  0  0
  5 14  1  0  0  0  0
  5  4  1  0  0  0  0
  6 16  1  6  0  0  0
  6  1  1  0  0  0  0
  6  5  1  0  0  0  0
  8  2  1  0  0  0  0
 10  3  1  0  0  0  0
 17 18  1  0  0  0  0
 17  1  1  0  0  0  0
 18 19  1  0  0  0  0
 20 18  1  0  0  0  0
 21 26  1  0  0  0  0
 21 18  1  0  0  0  0
 22 21  1  0  0  0  0
 23 21  1  0  0  0  0
 24 29  1  0  0  0  0
 25 24  2  0  0  0  0
 25 26  1  0  0  0  0
 26 27  2  0  0  0  0
 27 28  1  0  0  0  0
 28 32  1  0  0  0  0
 29 28  2  0  0  0  0
 30 24  1  0  0  0  0
 31 25  1  0  0  0  0
 33  6  1  0  0  0  0
 34 35  2  0  0  0  0
 34 33  1  0  0  0  0
 35 45  1  0  0  0  0
 36 35  1  0  0  0  0
 37 38  2  0  0  0  0
 37 36  1  0  0  0  0
 39 37  1  0  0  0  0
 40 39  1  0  0  0  0
 41 39  1  6  0  0  0
 41 36  1  0  0  0  0
 42 41  1  0  0  0  0
 42 43  1  0  0  0  0
 43 44  1  0  0  0  0
 43 34  1  0  0  0  0
 45 47  1  0  0  0  0
 45 46  2  0  0  0  0
 47 48  1  0  0  0  0
M  END
>  <minimizedAffinity>
-5.67730284

$$$$

 OpenBabel03272509283D

 48 51  0  0  1  0  0  0  0  0999 V2000
   36.7660   26.4910   32.9820 C   0  0  2  0  0  0  0  0  0  0  0  0
   36.5520   27.2110   31.6670 C   0  0  0  0  0  0  0  0  0  0  0  0
   36.6520   28.7070   31.9260 C   0  0  0  0  0  0  0  0  0  0  0  0
   36.0180   29.0340   33.2270 C   0  0  0  0  0  0  0  0  0  0  0  0
   36.4800   28.2450   34.4070 C   0  0  0  0  0  0  0  0  0  0  0  0
   37.5260   27.2400   33.9180 C   0  0  1  0  0  0  0  0  0  0  0  0
   35.7090   26.2570   33.3310 H   0  0  0  0  0  0  0  0  0  0  0  0
   37.3740   26.9600   30.9370 H   0  0  0  0  0  0  0  0  0  0  0  0
   35.6180   26.9290   31.1930 H   0  0  0  0  0  0  0  0  0  0  0  0
   37.6210   29.1470   31.7090 H   0  0  0  0  0  0  0  0  0  0  0  0
   35.9670   29.1550   31.1370 H   0  0  0  0  0  0  0  0  0  0  0  0
   34.9020   28.8980   33.1060 H   0  0  0  0  0  0  0  0  0  0  0  0
   36.1180   30.1400   33.3650 H   0  0  0  0  0  0  0  0  0  0  0  0
   35.6360   27.6120   34.8040 H   0  0  0  0  0  0  0  0  0  0  0  0
   36.7400   28.9360   35.1630 H   0  0  0  0  0  0  0  0  0  0  0  0
   38.1600   27.9320   33.2120 H   0  0  0  0  0  0  0  0  0  0  0  0
   37.4190   24.8990   32.5060 S   0  0  0  0  0  0  0  0  0  0  0  0
   36.6890   24.4080   30.9250 C   0  0  0  0  0  0  0  0  0  0  0  0
   36.2840   25.3670   30.4640 H   0  0  0  0  0  0  0  0  0  0  0  0
   37.4750   24.1160   30.2430 H   0  0  0  0  0  0  0  0  0  0  0  0
   35.5450   23.5300   31.1700 C   0  0  0  0  0  0  0  0  0  0  0  0
   34.9560   23.3450   30.2380 H   0  0  0  0  0  0  0  0  0  0  0  0
   34.9560   23.8820   32.0370 H   0  0  0  0  0  0  0  0  0  0  0  0
   35.5450   20.1620   32.7600 C   0  0  0  0  0  0  0  0  0  0  0  0
   35.1570   21.4630   32.4410 C   0  0  0  0  0  0  0  0  0  0  0  0
   35.8710   22.1660   31.5310 C   0  0  0  0  0  0  0  0  0  0  0  0
   36.9650   21.5470   30.9530 N   0  0  0  0  0  0  0  0  0  0  0  0
   37.3060   20.2970   31.2840 C   0  0  0  0  0  0  0  0  0  0  0  0
   36.6190   19.5850   32.1780 N   0  0  0  0  0  0  0  0  0  0  0  0
   34.9970   19.5760   33.4820 H   0  0  0  0  0  0  0  0  0  0  0  0
   34.2810   21.7760   32.9830 H   0  0  0  0  0  0  0  0  0  0  0  0
   38.1750   19.8910   30.7840 H   0  0  0  0  0  0  0  0  0  0  0  0
   38.3630   27.1670   35.0360 C   0  0  0  0  0  2  0  0  0  0  0  0
   39.6340   26.3690   34.8510 C   0  0  0  0  0  0  0  0  0  0  0  0
   39.7520   25.1440   35.4030 C   0  0  0  0  0  0  0  0  0  0  0  0
   40.9220   24.3790   35.2240 N   0  0  0  0  0  0  0  0  0  0  0  0
   41.5230   23.1090   35.0730 C   0  0  0  0  0  0  0  0  0  0  0  0
   41.2150   21.8950   35.1890 O   0  0  0  0  0  0  0  0  0  0  0  0
   42.8420   23.6570   34.6730 C   0  0  0  0  0  3  0  0  0  0  0  0
   43.1080   23.5510   33.6010 H   0  0  0  0  0  0  0  0  0  0  0  0
   42.2550   24.9640   35.1100 C   0  0  1  0  0  3  0  0  0  0  0  0
   42.1160   26.0910   33.6680 S   0  0  0  0  0  0  0  0  0  0  0  0
   40.6560   27.0910   34.0460 C   0  0  0  0  0  3  0  0  0  0  0  0
   41.0530   28.0040   34.5410 H   0  0  0  0  0  0  0  0  0  0  0  0
   38.6900   24.4980   36.2070 C   0  0  0  0  0  0  0  0  0  0  0  0
   38.0940   24.5450   37.3050 O   0  0  0  0  0  0  0  0  0  0  0  0
   37.9580   23.4240   35.7740 O   0  0  0  0  0  0  0  0  0  0  0  0
   37.7880   22.5350   36.2270 H   0  0  0  0  0  0  0  0  0  0  0  0
  1  7  1  1  0  0  0
  1  6  1  0  0  0  0
  2  3  1  0  0  0  0
  2  1  1  0  0  0  0
  3  4  1  0  0  0  0
  4 13  1  0  0  0  0
  4  5  1  0  0  0  0
  5 14  1  0  0  0  0
  5 15  1  0  0  0  0
  6 16  1  6  0  0  0
  6  5  1  0  0  0  0
  6 33  1  0  0  0  0
  8  2  1  0  0  0  0
  9  2  1  0  0  0  0
 10  3  1  0  0  0  0
 11  3  1  0  0  0  0
 12  4  1  0  0  0  0
 17  1  1  0  0  0  0
 18 21  1  0  0  0  0
 18 17  1  0  0  0  0
 19 18  1  0  0  0  0
 20 18  1  0  0  0  0
 21 26  1  0  0  0  0
 21 23  1  0  0  0  0
 22 21  1  0  0  0  0
 24 30  1  0  0  0  0
 25 24  1  0  0  0  0
 25 31  1  0  0  0  0
 26 25  2  0  0  0  0
 27 28  2  0  0  0  0
 27 26  1  0  0  0  0
 28 29  1  0  0  0  0
 29 24  2  0  0  0  0
 32 28  1  0  0  0  0
 34 33  1  0  0  0  0
 34 35  2  0  0  0  0
 35 45  1  0  0  0  0
 36 35  1  0  0  0  0
 37 38  2  0  0  0  0
 37 36  1  0  0  0  0
 39 37  1  0  0  0  0
 39 41  1  0  0  0  0
 40 39  1  0  0  0  0
 41 42  1  6  0  0  0
 41 36  1  0  0  0  0
 42 43  1  0  0  0  0
 43 44  1  0  0  0  0
 43 34  1  0  0  0  0
 45 46  2  0  0  0  0
 47 45  1  0  0  0  0
 47 48  1  0  0  0  0
M  END
>  <minimizedAffinity>
-5.61272001

$$$$

 OpenBabel03272509283D

 48 51  0  0  1  0  0  0  0  0999 V2000
   36.5640   28.1400   32.8930 C   0  0  2  0  0  0  0  0  0  0  0  0
   37.8490   27.4840   32.4320 C   0  0  0  0  0  0  0  0  0  0  0  0
   38.2060   28.0530   31.0670 C   0  0  0  0  0  0  0  0  0  0  0  0
   36.9730   28.2430   30.2640 C   0  0  0  0  0  0  0  0  0  0  0  0
   35.8760   29.0230   30.9090 C   0  0  0  0  0  0  0  0  0  0  0  0
   36.3420   29.4160   32.3130 C   0  0  1  0  0  0  0  0  0  0  0  0
   35.7670   27.3720   32.6310 H   0  0  0  0  0  0  0  0  0  0  0  0
   38.7020   27.7510   33.1200 H   0  0  0  0  0  0  0  0  0  0  0  0
   37.7790   26.4020   32.4290 H   0  0  0  0  0  0  0  0  0  0  0  0
   38.9320   28.8620   31.0830 H   0  0  0  0  0  0  0  0  0  0  0  0
   38.7640   27.1990   30.5650 H   0  0  0  0  0  0  0  0  0  0  0  0
   36.5850   27.2180   29.9890 H   0  0  0  0  0  0  0  0  0  0  0  0
   37.2930   28.6600   29.2760 H   0  0  0  0  0  0  0  0  0  0  0  0
   34.9790   28.3620   31.0790 H   0  0  0  0  0  0  0  0  0  0  0  0
   35.5870   29.7790   30.2290 H   0  0  0  0  0  0  0  0  0  0  0  0
   37.4390   29.7630   32.0750 H   0  0  0  0  0  0  0  0  0  0  0  0
   36.6540   28.0690   34.6750 S   0  0  0  0  0  0  0  0  0  0  0  0
   38.3110   27.5330   35.1640 C   0  0  0  0  0  0  0  0  0  0  0  0
   38.6770   26.8600   34.3210 H   0  0  0  0  0  0  0  0  0  0  0  0
   38.9870   28.3750   35.1230 H   0  0  0  0  0  0  0  0  0  0  0  0
   38.2170   26.7050   36.3670 C   0  0  0  0  0  0  0  0  0  0  0  0
   37.2070   26.7750   36.8410 H   0  0  0  0  0  0  0  0  0  0  0  0
   39.0710   26.8930   37.0430 H   0  0  0  0  0  0  0  0  0  0  0  0
   38.9740   23.3460   34.9460 C   0  0  0  0  0  0  0  0  0  0  0  0
   38.9720   24.7300   35.1140 C   0  0  0  0  0  0  0  0  0  0  0  0
   38.2870   25.2750   36.1460 C   0  0  0  0  0  0  0  0  0  0  0  0
   37.6130   24.4160   36.9960 N   0  0  0  0  0  0  0  0  0  0  0  0
   37.6380   23.0930   36.8040 C   0  0  0  0  0  0  0  0  0  0  0  0
   38.3050   22.5330   35.7940 N   0  0  0  0  0  0  0  0  0  0  0  0
   39.5100   22.8810   34.1330 H   0  0  0  0  0  0  0  0  0  0  0  0
   39.5550   25.2360   34.3630 H   0  0  0  0  0  0  0  0  0  0  0  0
   37.0830   22.4970   37.5160 H   0  0  0  0  0  0  0  0  0  0  0  0
   35.7030   30.6500   32.4670 C   0  0  0  0  0  2  0  0  0  0  0  0
   35.0480   30.8840   33.8100 C   0  0  0  0  0  0  0  0  0  0  0  0
   33.7990   30.4320   34.0430 C   0  0  0  0  0  0  0  0  0  0  0  0
   33.1820   30.6250   35.2950 N   0  0  0  0  0  0  0  0  0  0  0  0
   32.3060   30.1480   36.2970 C   0  0  0  0  0  0  0  0  0  0  0  0
   31.4520   29.2370   36.4530 O   0  0  0  0  0  0  0  0  0  0  0  0
   32.7140   31.1650   37.2960 C   0  0  0  0  0  3  0  0  0  0  0  0
   33.3470   30.8010   38.1300 H   0  0  0  0  0  0  0  0  0  0  0  0
   33.4100   31.8010   36.1310 C   0  0  1  0  0  3  0  0  0  0  0  0
   35.2230   31.7880   36.4160 S   0  0  0  0  0  0  0  0  0  0  0  0
   35.9160   31.6430   34.7500 C   0  0  0  0  0  3  0  0  0  0  0  0
   36.1160   32.6890   34.4290 H   0  0  0  0  0  0  0  0  0  0  0  0
   32.9910   29.6940   33.0460 C   0  0  0  0  0  0  0  0  0  0  0  0
   32.6640   28.5480   32.6690 O   0  0  0  0  0  0  0  0  0  0  0  0
   32.2400   30.3060   32.0760 O   0  0  0  0  0  0  0  0  0  0  0  0
   32.2290   30.1510   31.0770 H   0  0  0  0  0  0  0  0  0  0  0  0
  1  7  1  6  0  0  0
  1 17  1  0  0  0  0
  2  1  1  0  0  0  0
  2  8  1  0  0  0  0
  3 10  1  0  0  0  0
  3  2  1  0  0  0  0
  4  5  1  0  0  0  0
  4  3  1  0  0  0  0
  5 14  1  0  0  0  0
  5  6  1  0  0  0  0
  6 16  1  6  0  0  0
  6 33  1  0  0  0  0
  6  1  1  0  0  0  0
  9  2  1  0  0  0  0
 11  3  1  0  0  0  0
 12  4  1  0  0  0  0
 13  4  1  0  0  0  0
 15  5  1  0  0  0  0
 17 18  1  0  0  0  0
 18 21  1  0  0  0  0
 19 18  1  0  0  0  0
 20 18  1  0  0  0  0
 21 22  1  0  0  0  0
 21 23  1  0  0  0  0
 24 25  2  0  0  0  0
 24 29  1  0  0  0  0
 25 26  1  0  0  0  0
 26 21  1  0  0  0  0
 26 27  2  0  0  0  0
 28 27  1  0  0  0  0
 28 32  1  0  0  0  0
 29 28  2  0  0  0  0
 30 24  1  0  0  0  0
 31 25  1  0  0  0  0
 33 34  1  0  0  0  0
 34 35  2  0  0  0  0
 34 43  1  0  0  0  0
 35 36  1  0  0  0  0
 36 41  1  0  0  0  0
 36 37  1  0  0  0  0
 37 38  2  0  0  0  0
 37 39  1  0  0  0  0
 39 40  1  0  0  0  0
 41 42  1  1  0  0  0
 41 39  1  0  0  0  0
 43 42  1  0  0  0  0
 44 43  1  0  0  0  0
 45 35  1  0  0  0  0
 46 45  2  0  0  0  0
 47 45  1  0  0  0  0
 48 47  1  0  0  0  0
M  END
>  <minimizedAffinity>
-5.59027719

$$$$

 OpenBabel03272509283D

 48 51  0  0  1  0  0  0  0  0999 V2000
   37.1490   27.8510   32.8250 C   0  0  2  0  0  0  0  0  0  0  0  0
   36.1980   27.0250   31.9830 C   0  0  0  0  0  0  0  0  0  0  0  0
   36.9830   25.8660   31.3860 C   0  0  0  0  0  0  0  0  0  0  0  0
   38.3390   26.3260   30.9950 C   0  0  0  0  0  0  0  0  0  0  0  0
   39.1270   27.0320   32.0470 C   0  0  0  0  0  0  0  0  0  0  0  0
   38.2620   27.1140   33.3070 C   0  0  1  0  0  0  0  0  0  0  0  0
   37.4310   28.7120   32.1370 H   0  0  0  0  0  0  0  0  0  0  0  0
   35.3940   26.5650   32.6250 H   0  0  0  0  0  0  0  0  0  0  0  0
   35.6940   27.6210   31.2300 H   0  0  0  0  0  0  0  0  0  0  0  0
   36.9020   24.9290   31.9280 H   0  0  0  0  0  0  0  0  0  0  0  0
   36.4410   25.6610   30.4070 H   0  0  0  0  0  0  0  0  0  0  0  0
   38.2220   27.0070   30.1010 H   0  0  0  0  0  0  0  0  0  0  0  0
   38.8670   25.4390   30.5630 H   0  0  0  0  0  0  0  0  0  0  0  0
   39.3000   28.1050   31.7470 H   0  0  0  0  0  0  0  0  0  0  0  0
   40.0730   26.5620   32.0980 H   0  0  0  0  0  0  0  0  0  0  0  0
   37.8310   26.0210   33.3310 H   0  0  0  0  0  0  0  0  0  0  0  0
   36.0960   28.6130   34.0480 S   0  0  0  0  0  0  0  0  0  0  0  0
   34.6630   29.3470   33.2240 C   0  0  0  0  0  0  0  0  0  0  0  0
   34.8910   29.2950   32.1090 H   0  0  0  0  0  0  0  0  0  0  0  0
   33.8100   28.6910   33.3340 H   0  0  0  0  0  0  0  0  0  0  0  0
   34.5710   30.7630   33.5800 C   0  0  0  0  0  0  0  0  0  0  0  0
   33.7790   31.2880   32.9900 H   0  0  0  0  0  0  0  0  0  0  0  0
   35.5670   31.2400   33.5620 H   0  0  0  0  0  0  0  0  0  0  0  0
   34.2610   32.0740   37.0520 C   0  0  0  0  0  0  0  0  0  0  0  0
   34.7550   31.8750   35.7630 C   0  0  0  0  0  0  0  0  0  0  0  0
   34.1020   31.0400   34.9220 C   0  0  0  0  0  0  0  0  0  0  0  0
   32.9600   30.4170   35.3910 N   0  0  0  0  0  0  0  0  0  0  0  0
   32.5160   30.6330   36.6340 C   0  0  0  0  0  0  0  0  0  0  0  0
   33.1420   31.4510   37.4810 N   0  0  0  0  0  0  0  0  0  0  0  0
   34.7590   32.7340   37.7460 H   0  0  0  0  0  0  0  0  0  0  0  0
   35.6470   32.4470   35.5720 H   0  0  0  0  0  0  0  0  0  0  0  0
   31.6150   30.1050   36.9180 H   0  0  0  0  0  0  0  0  0  0  0  0
   39.2390   27.0340   34.3040 C   0  0  0  0  0  2  0  0  0  0  0  0
   39.3460   25.7000   35.0100 C   0  0  0  0  0  0  0  0  0  0  0  0
   40.5160   25.0300   35.0170 C   0  0  0  0  0  0  0  0  0  0  0  0
   40.6380   23.7960   35.6870 N   0  0  0  0  0  0  0  0  0  0  0  0
   41.4370   22.8990   36.4310 C   0  0  0  0  0  0  0  0  0  0  0  0
   42.6440   22.7490   36.7530 O   0  0  0  0  0  0  0  0  0  0  0  0
   40.3020   22.0220   36.8060 C   0  0  0  0  0  3  0  0  0  0  0  0
   39.9640   22.0870   37.8610 H   0  0  0  0  0  0  0  0  0  0  0  0
   39.5500   22.8270   35.7920 C   0  0  1  0  0  3  0  0  0  0  0  0
   38.2080   23.7650   36.6210 S   0  0  0  0  0  0  0  0  0  0  0  0
   38.0630   25.2720   35.6290 C   0  0  0  0  0  3  0  0  0  0  0  0
   37.2610   25.0540   34.8900 H   0  0  0  0  0  0  0  0  0  0  0  0
   41.7500   25.5190   34.3630 C   0  0  0  0  0  0  0  0  0  0  0  0
   42.3680   25.5420   33.2760 O   0  0  0  0  0  0  0  0  0  0  0  0
   42.7190   26.2390   35.0110 O   0  0  0  0  0  0  0  0  0  0  0  0
   43.7160   26.0780   35.0620 H   0  0  0  0  0  0  0  0  0  0  0  0
  1  7  1  6  0  0  0
  1  6  1  0  0  0  0
  1 17  1  0  0  0  0
  2  8  1  0  0  0  0
  2  1  1  0  0  0  0
  3 10  1  0  0  0  0
  3  2  1  0  0  0  0
  4  3  1  0  0  0  0
  4  5  1  0  0  0  0
  5 15  1  0  0  0  0
  5  6  1  0  0  0  0
  6 16  1  1  0  0  0
  6 33  1  0  0  0  0
  9  2  1  0  0  0  0
 11  3  1  0  0  0  0
 12  4  1  0  0  0  0
 13  4  1  0  0  0  0
 14  5  1  0  0  0  0
 18 20  1  0  0  0  0
 18 21  1  0  0  0  0
 18 17  1  0  0  0  0
 19 18  1  0  0  0  0
 21 26  1  0  0  0  0
 22 21  1  0  0  0  0
 23 21  1  0  0  0  0
 24 29  1  0  0  0  0
 24 30  1  0  0  0  0
 25 24  2  0  0  0  0
 26 27  2  0  0  0  0
 26 25  1  0  0  0  0
 27 28  1  0  0  0  0
 28 32  1  0  0  0  0
 28 29  2  0  0  0  0
 31 25  1  0  0  0  0
 33 34  1  0  0  0  0
 34 35  2  0  0  0  0
 34 43  1  0  0  0  0
 35 36  1  0  0  0  0
 36 41  1  0  0  0  0
 36 37  1  0  0  0  0
 37 38  2  0  0  0  0
 37 39  1  0  0  0  0
 39 40  1  0  0  0  0
 41 42  1  1  0  0  0
 41 39  1  0  0  0  0
 43 42  1  0  0  0  0
 44 43  1  0  0  0  0
 45 47  1  0  0  0  0
 45 35  1  0  0  0  0
 46 45  2  0  0  0  0
 47 48  1  0  0  0  0
M  END
>  <minimizedAffinity>
-5.39075089

$$$$

 OpenBabel03272509283D

 48 51  0  0  1  0  0  0  0  0999 V2000
   37.2820   26.1060   31.2160 C   0  0  2  0  0  0  0  0  0  0  0  0
   35.7770   25.9330   31.2210 C   0  0  0  0  0  0  0  0  0  0  0  0
   35.4710   24.4710   31.5100 C   0  0  0  0  0  0  0  0  0  0  0  0
   36.4580   23.6050   30.8180 C   0  0  0  0  0  0  0  0  0  0  0  0
   37.8970   23.9180   31.0590 C   0  0  0  0  0  0  0  0  0  0  0  0
   37.9640   25.1320   31.9900 C   0  0  1  0  0  0  0  0  0  0  0  0
   37.5460   26.0810   30.1100 H   0  0  0  0  0  0  0  0  0  0  0  0
   35.3100   26.5250   32.0600 H   0  0  0  0  0  0  0  0  0  0  0  0
   35.3200   26.2820   30.3020 H   0  0  0  0  0  0  0  0  0  0  0  0
   35.2380   24.2460   32.5470 H   0  0  0  0  0  0  0  0  0  0  0  0
   34.4870   24.2970   30.9680 H   0  0  0  0  0  0  0  0  0  0  0  0
   36.2470   23.6670   29.7100 H   0  0  0  0  0  0  0  0  0  0  0  0
   36.1860   22.5470   31.0630 H   0  0  0  0  0  0  0  0  0  0  0  0
   38.3840   24.2620   30.1030 H   0  0  0  0  0  0  0  0  0  0  0  0
   38.3700   23.0180   31.3480 H   0  0  0  0  0  0  0  0  0  0  0  0
   37.1430   24.8330   32.7760 H   0  0  0  0  0  0  0  0  0  0  0  0
   37.5250   27.8140   31.6740 S   0  0  0  0  0  0  0  0  0  0  0  0
   35.9950   28.4600   32.3910 C   0  0  0  0  0  0  0  0  0  0  0  0
   35.8630   29.5000   31.9460 H   0  0  0  0  0  0  0  0  0  0  0  0
   35.1530   27.9110   31.9940 H   0  0  0  0  0  0  0  0  0  0  0  0
   36.1680   28.6270   33.8340 C   0  0  0  0  0  0  0  0  0  0  0  0
   37.1590   29.0820   34.0830 H   0  0  0  0  0  0  0  0  0  0  0  0
   35.9310   27.6910   34.3710 H   0  0  0  0  0  0  0  0  0  0  0  0
   34.8500   31.5370   35.7490 C   0  0  0  0  0  0  0  0  0  0  0  0
   35.7540   30.6610   35.1490 C   0  0  0  0  0  0  0  0  0  0  0  0
   35.2890   29.5930   34.4600 C   0  0  0  0  0  0  0  0  0  0  0  0
   33.9190   29.4230   34.3840 N   0  0  0  0  0  0  0  0  0  0  0  0
   33.0820   30.2840   34.9720 C   0  0  0  0  0  0  0  0  0  0  0  0
   33.5160   31.3430   35.6570 N   0  0  0  0  0  0  0  0  0  0  0  0
   35.1890   32.3970   36.3060 H   0  0  0  0  0  0  0  0  0  0  0  0
   36.7780   30.9550   35.3070 H   0  0  0  0  0  0  0  0  0  0  0  0
   32.0260   30.0750   34.8630 H   0  0  0  0  0  0  0  0  0  0  0  0
   39.1310   24.8490   32.7080 C   0  0  0  0  0  2  0  0  0  0  0  0
   38.9420   24.5890   34.1860 C   0  0  0  0  0  0  0  0  0  0  0  0
   39.4670   23.4830   34.7510 C   0  0  0  0  0  0  0  0  0  0  0  0
   39.3180   23.2350   36.1310 N   0  0  0  0  0  0  0  0  0  0  0  0
   39.8510   22.7050   37.3280 C   0  0  0  0  0  0  0  0  0  0  0  0
   40.8100   21.9810   37.6990 O   0  0  0  0  0  0  0  0  0  0  0  0
   38.8180   23.3240   38.1930 C   0  0  0  0  0  3  0  0  0  0  0  0
   39.1500   24.1860   38.8080 H   0  0  0  0  0  0  0  0  0  0  0  0
   38.1360   23.6280   36.8940 C   0  0  1  0  0  3  0  0  0  0  0  0
   38.0460   25.4450   36.6560 S   0  0  0  0  0  0  0  0  0  0  0  0
   38.1410   25.6450   34.8590 C   0  0  0  0  0  3  0  0  0  0  0  0
   37.0840   25.6900   34.5180 H   0  0  0  0  0  0  0  0  0  0  0  0
   40.2440   22.4660   34.0070 C   0  0  0  0  0  0  0  0  0  0  0  0
   41.4050   22.0730   33.7600 O   0  0  0  0  0  0  0  0  0  0  0  0
   39.6720   21.4940   33.2290 O   0  0  0  0  0  0  0  0  0  0  0  0
   39.8620   21.2420   32.2680 H   0  0  0  0  0  0  0  0  0  0  0  0
  1  7  1  6  0  0  0
  1  2  1  0  0  0  0
  1 17  1  0  0  0  0
  1  6  1  0  0  0  0
  2  3  1  0  0  0  0
  2  8  1  0  0  0  0
  3 10  1  0  0  0  0
  4  5  1  0  0  0  0
  4 13  1  0  0  0  0
  4  3  1  0  0  0  0
  5 15  1  0  0  0  0
  5  6  1  0  0  0  0
  6 33  1  0  0  0  0
  6 16  1  1  0  0  0
  9  2  1  0  0  0  0
 11  3  1  0  0  0  0
 12  4  1  0  0  0  0
 14  5  1  0  0  0  0
 17 18  1  0  0  0  0
 18 21  1  0  0  0  0
 19 18  1  0  0  0  0
 20 18  1  0  0  0  0
 21 22  1  0  0  0  0
 21 23  1  0  0  0  0
 21 26  1  0  0  0  0
 24 30  1  0  0  0  0
 25 31  1  0  0  0  0
 25 24  2  0  0  0  0
 26 25  1  0  0  0  0
 27 26  2  0  0  0  0
 27 28  1  0  0  0  0
 28 29  2  0  0  0  0
 29 24  1  0  0  0  0
 32 28  1  0  0  0  0
 33 34  1  0  0  0  0
 34 35  2  0  0  0  0
 34 43  1  0  0  0  0
 35 36  1  0  0  0  0
 36 41  1  0  0  0  0
 36 37  1  0  0  0  0
 37 38  2  0  0  0  0
 37 39  1  0  0  0  0
 39 40  1  0  0  0  0
 41 42  1  1  0  0  0
 41 39  1  0  0  0  0
 43 42  1  0  0  0  0
 44 43  1  0  0  0  0
 45 35  1  0  0  0  0
 46 45  2  0  0  0  0
 47 45  1  0  0  0  0
 48 47  1  0  0  0  0
M  END
>  <minimizedAffinity>
-5.38578892

$$$$

 OpenBabel03272509283D

 48 51  0  0  1  0  0  0  0  0999 V2000
   37.2820   26.5890   31.4710 C   0  0  2  0  0  0  0  0  0  0  0  0
   35.8850   26.0150   31.5870 C   0  0  0  0  0  0  0  0  0  0  0  0
   36.0010   24.4990   31.6480 C   0  0  0  0  0  0  0  0  0  0  0  0
   37.0720   24.0410   30.7280 C   0  0  0  0  0  0  0  0  0  0  0  0
   38.4040   24.6960   30.8830 C   0  0  0  0  0  0  0  0  0  0  0  0
   38.2870   25.7380   31.9990 C   0  0  1  0  0  0  0  0  0  0  0  0
   37.3910   26.7940   30.3570 H   0  0  0  0  0  0  0  0  0  0  0  0
   35.4020   26.3340   32.5550 H   0  0  0  0  0  0  0  0  0  0  0  0
   35.2340   26.3530   30.7890 H   0  0  0  0  0  0  0  0  0  0  0  0
   35.9760   24.0760   32.6480 H   0  0  0  0  0  0  0  0  0  0  0  0
   35.0290   24.1430   31.1780 H   0  0  0  0  0  0  0  0  0  0  0  0
   36.7030   24.1990   29.6720 H   0  0  0  0  0  0  0  0  0  0  0  0
   37.1120   22.9250   30.8110 H   0  0  0  0  0  0  0  0  0  0  0  0
   38.6530   25.2910   29.9590 H   0  0  0  0  0  0  0  0  0  0  0  0
   39.1240   23.9260   30.9680 H   0  0  0  0  0  0  0  0  0  0  0  0
   37.6830   25.1200   32.7950 H   0  0  0  0  0  0  0  0  0  0  0  0
   37.1440   28.2170   32.1910 S   0  0  0  0  0  0  0  0  0  0  0  0
   35.5780   28.9630   31.6780 C   0  0  0  0  0  0  0  0  0  0  0  0
   35.8590   29.9400   31.1640 H   0  0  0  0  0  0  0  0  0  0  0  0
   35.1460   28.3760   30.8800 H   0  0  0  0  0  0  0  0  0  0  0  0
   34.7940   29.3090   32.8630 C   0  0  0  0  0  0  0  0  0  0  0  0
   34.8360   28.5040   33.6380 H   0  0  0  0  0  0  0  0  0  0  0  0
   33.7780   29.6410   32.5820 H   0  0  0  0  0  0  0  0  0  0  0  0
   36.0610   32.6570   33.8940 C   0  0  0  0  0  0  0  0  0  0  0  0
   35.5520   31.6360   33.0920 C   0  0  0  0  0  0  0  0  0  0  0  0
   35.2960   30.4250   33.6390 C   0  0  0  0  0  0  0  0  0  0  0  0
   35.5560   30.2590   34.9880 N   0  0  0  0  0  0  0  0  0  0  0  0
   36.0430   31.2630   35.7260 C   0  0  0  0  0  0  0  0  0  0  0  0
   36.3030   32.4640   35.2090 N   0  0  0  0  0  0  0  0  0  0  0  0
   36.2750   33.6330   33.4880 H   0  0  0  0  0  0  0  0  0  0  0  0
   35.4070   31.9470   32.0720 H   0  0  0  0  0  0  0  0  0  0  0  0
   36.2160   31.0460   36.7710 H   0  0  0  0  0  0  0  0  0  0  0  0
   39.5740   25.6840   32.5450 C   0  0  0  0  0  2  0  0  0  0  0  0
   39.7570   24.7150   33.6920 C   0  0  0  0  0  0  0  0  0  0  0  0
   39.2760   25.0150   34.9150 C   0  0  0  0  0  0  0  0  0  0  0  0
   39.4220   24.1140   35.9900 N   0  0  0  0  0  0  0  0  0  0  0  0
   38.9000   23.5610   37.1810 C   0  0  0  0  0  0  0  0  0  0  0  0
   37.9710   23.7790   38.0000 O   0  0  0  0  0  0  0  0  0  0  0  0
   39.8950   22.4630   37.2390 C   0  0  0  0  0  3  0  0  0  0  0  0
   39.5180   21.4510   36.9860 H   0  0  0  0  0  0  0  0  0  0  0  0
   40.5770   23.2350   36.1510 C   0  0  1  0  0  3  0  0  0  0  0  0
   40.5890   22.2430   34.6070 S   0  0  0  0  0  0  0  0  0  0  0  0
   40.5040   23.4900   33.2970 C   0  0  0  0  0  3  0  0  0  0  0  0
   41.5620   23.6830   33.0140 H   0  0  0  0  0  0  0  0  0  0  0  0
   38.5540   26.2670   35.2320 C   0  0  0  0  0  0  0  0  0  0  0  0
   38.7150   27.4740   35.5170 O   0  0  0  0  0  0  0  0  0  0  0  0
   37.1880   26.3620   35.2890 O   0  0  0  0  0  0  0  0  0  0  0  0
   36.5970   26.7280   36.0240 H   0  0  0  0  0  0  0  0  0  0  0  0
  1  7  1  6  0  0  0
  1  2  1  0  0  0  0
  1  6  1  0  0  0  0
  1 17  1  0  0  0  0
  2  3  1  0  0  0  0
  2  8  1  0  0  0  0
  3 10  1  0  0  0  0
  4 13  1  0  0  0  0
  4  5  1  0  0  0  0
  4  3  1  0  0  0  0
  5 15  1  0  0  0  0
  5  6  1  0  0  0  0
  6 33  1  0  0  0  0
  6 16  1  1  0  0  0
  9  2  1  0  0  0  0
 11  3  1  0  0  0  0
 12  4  1  0  0  0  0
 14  5  1  0  0  0  0
 18 17  1  0  0  0  0
 18 21  1  0  0  0  0
 19 18  1  0  0  0  0
 20 18  1  0  0  0  0
 21 22  1  0  0  0  0
 21 26  1  0  0  0  0
 23 21  1  0  0  0  0
 24 29  1  0  0  0  0
 25 26  1  0  0  0  0
 25 24  2  0  0  0  0
 26 27  2  0  0  0  0
 27 28  1  0  0  0  0
 28 32  1  0  0  0  0
 29 28  2  0  0  0  0
 30 24  1  0  0  0  0
 31 25  1  0  0  0  0
 33 34  1  0  0  0  0
 34 35  2  0  0  0  0
 35 45  1  0  0  0  0
 35 36  1  0  0  0  0
 36 41  1  0  0  0  0
 36 37  1  0  0  0  0
 37 39  1  0  0  0  0
 37 38  2  0  0  0  0
 40 39  1  0  0  0  0
 41 42  1  6  0  0  0
 41 39  1  0  0  0  0
 43 34  1  0  0  0  0
 43 42  1  0  0  0  0
 44 43  1  0  0  0  0
 45 47  1  0  0  0  0
 45 46  2  0  0  0  0
 47 48  1  0  0  0  0
M  END
>  <minimizedAffinity>
-5.2055912

$$$$

 OpenBabel03272509283D

 48 51  0  0  1  0  0  0  0  0999 V2000
   39.1650   27.4220   30.9520 C   0  0  2  0  0  0  0  0  0  0  0  0
   39.2530   26.5460   29.7200 C   0  0  0  0  0  0  0  0  0  0  0  0
   40.6770   26.0190   29.6170 C   0  0  0  0  0  0  0  0  0  0  0  0
   41.6350   27.0790   30.0190 C   0  0  0  0  0  0  0  0  0  0  0  0
   41.3880   27.7280   31.3400 C   0  0  0  0  0  0  0  0  0  0  0  0
   40.1280   27.1020   31.9430 C   0  0  1  0  0  0  0  0  0  0  0  0
   39.2680   28.4760   30.5350 H   0  0  0  0  0  0  0  0  0  0  0  0
   38.5880   25.6420   29.8250 H   0  0  0  0  0  0  0  0  0  0  0  0
   38.9330   27.0650   28.8230 H   0  0  0  0  0  0  0  0  0  0  0  0
   40.8270   25.0210   30.0180 H   0  0  0  0  0  0  0  0  0  0  0  0
   40.8270   25.8870   28.4980 H   0  0  0  0  0  0  0  0  0  0  0  0
   41.6260   27.8690   29.2120 H   0  0  0  0  0  0  0  0  0  0  0  0
   42.6600   26.6390   29.9240 H   0  0  0  0  0  0  0  0  0  0  0  0
   41.1280   28.8150   31.1960 H   0  0  0  0  0  0  0  0  0  0  0  0
   42.2950   27.6890   31.8820 H   0  0  0  0  0  0  0  0  0  0  0  0
   40.3340   25.9670   31.7170 H   0  0  0  0  0  0  0  0  0  0  0  0
   37.4490   27.3230   31.4340 S   0  0  0  0  0  0  0  0  0  0  0  0
   36.8580   25.6320   31.1820 C   0  0  0  0  0  0  0  0  0  0  0  0
   35.7220   25.7030   31.1720 H   0  0  0  0  0  0  0  0  0  0  0  0
   37.0970   25.3140   30.1770 H   0  0  0  0  0  0  0  0  0  0  0  0
   37.2280   24.8120   32.3350 C   0  0  0  0  0  0  0  0  0  0  0  0
   36.6370   25.0840   33.2440 H   0  0  0  0  0  0  0  0  0  0  0  0
   38.3250   24.7950   32.4730 H   0  0  0  0  0  0  0  0  0  0  0  0
   37.1480   21.1190   32.8130 C   0  0  0  0  0  0  0  0  0  0  0  0
   37.5020   22.4570   32.9820 C   0  0  0  0  0  0  0  0  0  0  0  0
   36.8930   23.4060   32.2340 C   0  0  0  0  0  0  0  0  0  0  0  0
   35.9330   22.9940   31.3270 N   0  0  0  0  0  0  0  0  0  0  0  0
   35.6190   21.7010   31.1930 C   0  0  0  0  0  0  0  0  0  0  0  0
   36.2070   20.7470   31.9180 N   0  0  0  0  0  0  0  0  0  0  0  0
   37.6160   20.3380   33.3930 H   0  0  0  0  0  0  0  0  0  0  0  0
   38.2600   22.5900   33.7360 H   0  0  0  0  0  0  0  0  0  0  0  0
   34.8590   21.4670   30.4600 H   0  0  0  0  0  0  0  0  0  0  0  0
   40.4330   27.1570   33.3070 C   0  0  0  0  0  2  0  0  0  0  0  0
   40.3290   25.8470   34.0550 C   0  0  0  0  0  0  0  0  0  0  0  0
   39.4190   25.6990   35.0390 C   0  0  0  0  0  0  0  0  0  0  0  0
   39.2960   24.4780   35.7320 N   0  0  0  0  0  0  0  0  0  0  0  0
   38.4690   23.5430   36.3940 C   0  0  0  0  0  0  0  0  0  0  0  0
   37.2930   23.4620   36.8340 O   0  0  0  0  0  0  0  0  0  0  0  0
   39.5130   22.4910   36.4520 C   0  0  0  0  0  3  0  0  0  0  0  0
   39.3790   21.6340   35.7610 H   0  0  0  0  0  0  0  0  0  0  0  0
   40.4250   23.5940   36.0110 C   0  0  1  0  0  3  0  0  0  0  0  0
   41.0980   23.2080   34.3480 S   0  0  0  0  0  0  0  0  0  0  0  0
   41.3150   24.8360   33.5860 C   0  0  0  0  0  3  0  0  0  0  0  0
   42.3720   25.1120   33.7940 H   0  0  0  0  0  0  0  0  0  0  0  0
   38.4790   26.7620   35.4580 C   0  0  0  0  0  0  0  0  0  0  0  0
   37.3360   27.2280   35.2560 O   0  0  0  0  0  0  0  0  0  0  0  0
   38.7690   27.6980   36.4160 O   0  0  0  0  0  0  0  0  0  0  0  0
   38.7010   28.7060   36.3740 H   0  0  0  0  0  0  0  0  0  0  0  0
  1  7  1  6  0  0  0
  1 17  1  0  0  0  0
  1  6  1  0  0  0  0
  2  8  1  0  0  0  0
  2  1  1  0  0  0  0
  3  2  1  0  0  0  0
  3 10  1  0  0  0  0
  3  4  1  0  0  0  0
  4  5  1  0  0  0  0
  5 15  1  0  0  0  0
  5  6  1  0  0  0  0
  6 16  1  6  0  0  0
  6 33  1  0  0  0  0
  9  2  1  0  0  0  0
 11  3  1  0  0  0  0
 12  4  1  0  0  0  0
 13  4  1  0  0  0  0
 14  5  1  0  0  0  0
 18 17  1  0  0  0  0
 18 21  1  0  0  0  0
 19 18  1  0  0  0  0
 20 18  1  0  0  0  0
 21 23  1  0  0  0  0
 21 22  1  0  0  0  0
 24 25  1  0  0  0  0
 24 30  1  0  0  0  0
 25 31  1  0  0  0  0
 26 21  1  0  0  0  0
 26 25  2  0  0  0  0
 27 26  1  0  0  0  0
 28 27  2  0  0  0  0
 28 29  1  0  0  0  0
 29 24  2  0  0  0  0
 32 28  1  0  0  0  0
 33 34  1  0  0  0  0
 34 35  2  0  0  0  0
 35 45  1  0  0  0  0
 35 36  1  0  0  0  0
 36 41  1  0  0  0  0
 36 37  1  0  0  0  0
 37 39  1  0  0  0  0
 37 38  2  0  0  0  0
 40 39  1  0  0  0  0
 41 42  1  6  0  0  0
 41 39  1  0  0  0  0
 43 44  1  0  0  0  0
 43 34  1  0  0  0  0
 43 42  1  0  0  0  0
 45 47  1  0  0  0  0
 46 45  2  0  0  0  0
 48 47  1  0  0  0  0
M  END
>  <minimizedAffinity>
-5.11597061

$$$$
