
 OpenBabel03262523543D

 41 44  0  0  1  0  0  0  0  0999 V2000
   38.7200   32.2690   46.7860 C   0  0  1  0  0  0  0  0  0  0  0  0
   40.0280   31.7700   46.3500 C   0  0  0  0  0  0  0  0  0  0  0  0
   40.5180   32.6450   45.2260 C   0  0  0  0  0  0  0  0  0  0  0  0
   39.4280   33.0260   44.3050 C   0  0  0  0  0  0  0  0  0  0  0  0
   38.1930   32.1670   44.3390 C   0  0  0  0  0  0  0  0  0  0  0  0
   37.6870   31.8730   45.7310 C   0  0  1  0  0  0  0  0  0  0  0  0
   38.7060   33.3940   46.7760 H   0  0  0  0  0  0  0  0  0  0  0  0
   40.0460   30.7080   46.0670 H   0  0  0  0  0  0  0  0  0  0  0  0
   40.7410   31.8880   47.2200 H   0  0  0  0  0  0  0  0  0  0  0  0
   41.3820   32.1350   44.7100 H   0  0  0  0  0  0  0  0  0  0  0  0
   40.9800   33.5540   45.7070 H   0  0  0  0  0  0  0  0  0  0  0  0
   39.8080   32.9710   43.2570 H   0  0  0  0  0  0  0  0  0  0  0  0
   39.0960   34.0790   44.4370 H   0  0  0  0  0  0  0  0  0  0  0  0
   37.4440   32.6930   43.7030 H   0  0  0  0  0  0  0  0  0  0  0  0
   38.4470   31.2480   43.7680 H   0  0  0  0  0  0  0  0  0  0  0  0
   36.8300   32.5670   45.8620 H   0  0  0  0  0  0  0  0  0  0  0  0
   37.1470   32.2710   50.1570 C   0  0  0  0  0  0  0  0  0  0  0  0
   37.6090   32.7460   48.9120 C   0  0  0  0  0  0  0  0  0  0  0  0
   38.2160   31.8120   48.0820 C   0  0  0  0  0  0  0  0  0  0  0  0
   38.3400   30.5050   48.4920 N   0  0  0  0  0  0  0  0  0  0  0  0
   37.8840   30.0950   49.6920 C   0  0  0  0  0  0  0  0  0  0  0  0
   37.2840   30.9860   50.5280 N   0  0  0  0  0  0  0  0  0  0  0  0
   36.6620   32.9430   50.8550 H   0  0  0  0  0  0  0  0  0  0  0  0
   37.4450   33.7730   48.7410 H   0  0  0  0  0  0  0  0  0  0  0  0
   37.9680   29.0770   50.0380 H   0  0  0  0  0  0  0  0  0  0  0  0
   37.3110   30.4190   45.7770 C   0  0  0  0  0  0  0  0  0  0  0  0
   35.9750   30.2440   45.2030 C   0  0  0  0  0  0  0  0  0  0  0  0
   34.8880   30.0430   45.9290 C   0  0  0  0  0  0  0  0  0  0  0  0
   33.6480   29.8990   45.2490 N   0  0  0  0  0  0  0  0  0  0  0  0
   32.4050   29.1980   45.0370 C   0  0  0  0  0  0  0  0  0  0  0  0
   31.6370   28.5980   45.8500 O   0  0  0  0  0  0  0  0  0  0  0  0
   32.5830   29.5600   43.5880 C   0  0  0  0  0  0  0  0  0  0  0  0
   31.6500   29.7520   43.0340 H   0  0  0  0  0  0  0  0  0  0  0  0
   33.2040   30.7980   44.1940 C   0  0  2  0  0  0  0  0  0  0  0  0
   34.6020   31.3650   43.1960 S   0  0  0  0  0  0  0  0  0  0  0  0
   36.0020   30.3060   43.7390 C   0  0  0  0  0  0  0  0  0  0  0  0
   36.8800   30.7910   43.3340 H   0  0  0  0  0  0  0  0  0  0  0  0
   34.8760   29.9660   47.4080 C   0  0  0  0  0  0  0  0  0  0  0  0
   34.6760   30.7420   48.3730 O   0  0  0  0  0  0  0  0  0  0  0  0
   35.1170   28.8640   48.1640 O   0  0  0  0  0  0  0  0  0  0  0  0
   35.8540   28.7510   48.8460 H   0  0  0  0  0  0  0  0  0  0  0  0
  1  7  1  1  0  0  0
  1 19  1  0  0  0  0
  2  1  1  0  0  0  0
  2  9  1  0  0  0  0
  3 11  1  0  0  0  0
  3  2  1  0  0  0  0
  4  5  1  0  0  0  0
  4 13  1  0  0  0  0
  4  3  1  0  0  0  0
  5  6  1  0  0  0  0
  6 26  1  0  0  0  0
  6 16  1  1  0  0  0
  6  1  1  0  0  0  0
  8  2  1  0  0  0  0
 10  3  1  0  0  0  0
 12  4  1  0  0  0  0
 14  5  1  0  0  0  0
 15  5  1  0  0  0  0
 17 22  1  0  0  0  0
 17 23  1  0  0  0  0
 18 17  2  0  0  0  0
 19 20  2  0  0  0  0
 19 18  1  0  0  0  0
 20 21  1  0  0  0  0
 21 25  1  0  0  0  0
 21 22  2  0  0  0  0
 24 18  1  0  0  0  0
 27 26  1  0  0  0  0
 27 28  2  0  0  0  0
 28 38  1  0  0  0  0
 29 28  1  0  0  0  0
 30 29  1  0  0  0  0
 30 31  2  0  0  0  0
 32 34  1  0  0  0  0
 32 30  1  0  0  0  0
 33 32  1  0  0  0  0
 34 35  1  6  0  0  0
 34 29  1  0  0  0  0
 35 36  1  0  0  0  0
 36 27  1  0  0  0  0
 37 36  1  0  0  0  0
 38 40  1  0  0  0  0
 38 39  2  0  0  0  0
 40 41  1  0  0  0  0
M  END
>  <minimizedAffinity>
-5.28177834

>  <minimizedRMSD>
4.38163471

$$$$
