
     RDKit          3D

 48 52  0  0  0  0  0  0  0  0999 V2000
   35.8266   29.1359   49.7964 C   0  0  0  0  0  0  0  0  0  0  0  0
   34.8033   29.6606   50.5651 C   0  0  0  0  0  0  0  0  0  0  0  0
   33.6005   29.1217   50.0832 C   0  0  0  0  0  0  0  0  0  0  0  0
   33.9713   28.2961   49.0442 C   0  0  0  0  0  0  0  0  0  0  0  0
   35.2796   28.3389   48.9157 O   0  0  0  0  0  0  0  0  0  0  0  0
   37.2151   29.4844   50.0257 C   0  0  0  0  0  0  0  0  0  0  0  0
   37.8582   28.8766   50.8952 O   0  0  0  0  0  0  0  0  0  0  0  0
   37.7677   30.5328   49.2143 C   0  0  0  0  0  0  0  0  0  0  0  0
   38.1108   31.7122   49.8542 C   0  0  0  0  0  0  0  0  0  0  0  0
   38.6480   32.7520   49.0898 C   0  0  0  0  0  0  0  0  0  0  0  0
   38.8085   32.5496   47.7382 N   0  0  0  0  0  0  0  0  0  0  0  0
   38.4647   31.3952   47.1573 C   0  0  0  0  0  0  0  0  0  0  0  0
   37.9498   30.3934   47.8789 N   0  0  0  0  0  0  0  0  0  0  0  0
   33.0637   27.4983   48.2201 C   0  0  0  0  0  0  0  0  0  0  0  0
   31.8460   27.4068   48.5832 O   0  0  0  0  0  0  0  0  0  0  0  0
   33.5677   26.8045   46.9865 C   0  0  1  0  0  0  0  0  0  0  0  0
   33.7896   25.2730   47.2995 C   0  0  0  0  0  0  0  0  0  0  0  0
   32.7519   25.7600   46.3625 C   0  0  2  0  0  0  0  0  0  0  0  0
   34.7714   30.3600   51.4079 H   0  0  0  0  0  0  0  0  0  0  0  0
   32.5956   29.3141   50.4502 H   0  0  0  0  0  0  0  0  0  0  0  0
   37.9825   31.8636   50.9119 H   0  0  0  0  0  0  0  0  0  0  0  0
   38.9274   33.6934   49.5693 H   0  0  0  0  0  0  0  0  0  0  0  0
   38.6042   31.2671   46.0869 H   0  0  0  0  0  0  0  0  0  0  0  0
   34.5409   27.2069   46.6319 H   0  0  0  0  0  0  0  0  0  0  0  0
   33.4687   24.9042   48.2682 H   0  0  0  0  0  0  0  0  0  0  0  0
   34.6933   24.8116   46.8808 H   0  0  0  0  0  0  0  0  0  0  0  0
   31.6853   25.7736   46.7080 H   0  0  0  0  0  0  0  0  0  0  0  0
   32.9247   25.3420   44.9329 C   0  0  0  0  0  0  0  0  0  0  0  0
   33.6021   24.0529   44.7658 C   0  0  0  0  0  0  0  0  0  0  0  0
   33.1074   22.9750   44.1787 C   0  0  0  0  0  0  0  0  0  0  0  0
   31.7458   22.9467   43.5950 C   0  0  0  0  0  0  0  0  0  0  0  0
   30.8453   23.7841   43.5149 O   0  0  0  0  0  0  0  0  0  0  0  0
   31.2256   21.8369   42.9796 O   0  0  0  0  0  0  0  0  0  0  0  0
   33.8660   21.7751   44.0898 N   0  0  0  0  0  0  0  0  0  0  0  0
   33.9324   20.4449   43.5976 C   0  0  0  0  0  0  0  0  0  0  0  0
   33.1231   19.4986   43.3614 O   0  0  0  0  0  0  0  0  0  0  0  0
   35.3987   20.5984   43.4586 C   0  0  2  0  0  0  0  0  0  0  0  0
   35.7630   21.0914   42.5498 H   0  0  0  0  0  0  0  0  0  0  0  0
   35.1596   21.5057   44.6460 C   0  0  1  0  0  0  0  0  0  0  0  0
   36.1490   22.9968   44.6758 S   0  0  0  0  0  0  0  0  0  0  0  0
   34.9374   24.1462   45.3723 C   0  0  2  0  0  0  0  0  0  0  0  0
   34.8766   23.9219   46.4715 H   0  0  0  0  0  0  0  0  0  0  0  0
   33.6042   26.1260   44.4628 H   0  0  0  0  0  0  0  0  0  0  0  0
   31.9876   25.4716   44.3663 H   0  0  0  0  0  0  0  0  0  0  0  0
   30.7216   21.8810   42.1235 H   0  0  0  0  0  0  0  0  0  0  0  0
   35.9082   19.6429   43.7008 H   0  0  0  0  0  0  0  0  0  0  0  0
   35.1170   20.9147   45.5743 H   0  0  0  0  0  0  0  0  0  0  0  0
   35.4140   25.1443   45.3287 H   0  0  0  0  0  0  0  0  0  0  0  0
  1  6  1  0
  1  2  2  0
  3  2  1  0
  4  3  2  0
  5  4  1  0
  5  1  1  0
  6  7  2  0
  8  9  2  0
  8  6  1  0
 10  9  1  0
 11 10  2  0
 12 11  1  0
 12 13  2  0
 13  8  1  0
 14 15  2  0
 14  4  1  0
 16 17  1  0
 16 14  1  0
 18 16  1  0
 18 17  1  0
  2 19  1  0
  3 20  1  0
  9 21  1  0
 10 22  1  0
 12 23  1  0
 16 24  1  6
 17 25  1  0
 17 26  1  0
 18 27  1  1
 28 29  1  0
 29 30  2  0
 30 31  1  0
 31 32  2  0
 31 33  1  0
 30 34  1  0
 34 35  1  0
 35 36  2  0
 35 37  1  0
 37 38  1  6
 37 39  1  0
 39 40  1  0
 40 41  1  0
 41 42  1  1
 41 29  1  0
 39 34  1  0
 28 43  1  0
 28 44  1  0
 33 45  1  0
 37 46  1  0
 39 47  1  1
 41 48  1  0
 18 28  1  0
M  ISO  8  19  14  20  14  21  14  22  14  23  14  24  13  25  13  26  13
M  ISO  3  27  13  38  15  42  15
M  END
>  <DihAtoms>  (1) 
15,17,27,28

>  <DihDeg>  (1) 
-60.057966562750984

$$$$
