
 OpenBabel03272509533D

 50 54  0  0  1  0  0  0  0  0999 V2000
   33.5230   27.5930   47.7930 C   0  0  0  0  0  0  0  0  0  0  0  0
   33.3830   26.8040   48.5700 H   0  0  0  0  0  0  0  0  0  0  0  0
   33.9530   27.0680   46.9060 H   0  0  0  0  0  0  0  0  0  0  0  0
   32.2080   28.1190   47.3700 C   0  0  0  0  0  0  0  0  0  0  0  0
   31.0790   27.7650   48.1050 C   0  0  0  0  0  0  0  0  0  0  0  0
   29.8220   28.1930   47.8030 C   0  0  0  0  0  0  0  0  0  0  0  0
   29.6650   28.9900   46.7530 N   0  0  0  0  0  0  0  0  0  0  0  0
   30.7610   29.3470   46.0200 C   0  0  0  0  0  0  0  0  0  0  0  0
   32.0250   28.9300   46.3060 N   0  0  0  0  0  0  0  0  0  0  0  0
   31.1990   27.1130   48.9660 H   0  0  0  0  0  0  0  0  0  0  0  0
   28.9790   27.8880   48.4070 H   0  0  0  0  0  0  0  0  0  0  0  0
   30.5810   30.2530   44.8290 C   0  0  0  0  0  2  0  0  0  0  0  0
   31.8250   30.5120   44.1030 C   0  0  0  0  0  0  0  0  0  0  0  0
   32.2670   31.7440   43.9170 C   0  0  0  0  0  0  0  0  0  0  0  0
   33.4730   31.9810   43.2130 N   0  0  0  0  0  0  0  0  0  0  0  0
   34.1460   32.7990   42.2710 C   0  0  0  0  0  0  0  0  0  0  0  0
   34.0010   33.8600   41.6410 O   0  0  0  0  0  0  0  0  0  0  0  0
   35.2840   31.8520   42.2460 C   0  0  0  0  0  3  0  0  0  0  0  0
   36.2240   32.3770   42.4590 H   0  0  0  0  0  0  0  0  0  0  0  0
   34.6470   31.1130   43.4040 C   0  0  2  0  0  3  0  0  0  0  0  0
   34.1240   29.4440   43.0210 S   0  0  0  0  0  0  0  0  0  0  0  0
   32.4430   29.2490   43.6500 C   0  0  0  0  0  3  0  0  0  0  0  0
   31.8310   28.7280   42.8860 H   0  0  0  0  0  0  0  0  0  0  0  0
   31.5320   32.8910   44.4290 C   0  0  0  0  0  0  0  0  0  0  0  0
   32.0180   34.0370   44.5480 O   0  0  0  0  0  0  0  0  0  0  0  0
   30.5560   33.7000   44.9360 O   0  0  0  0  0  0  0  0  0  0  0  0
   29.9560   33.3540   45.6950 H   0  0  0  0  0  0  0  0  0  0  0  0
   34.4740   28.6750   48.2020 C   0  0  0  0  0  0  0  0  0  0  0  0
   35.3770   28.6850   47.5520 H   0  0  0  0  0  0  0  0  0  0  0  0
   34.0250   29.6860   48.1130 H   0  0  0  0  0  0  0  0  0  0  0  0
   34.9500   28.4450   49.5270 O   0  0  0  0  0  0  0  0  0  0  0  0
   37.3720   30.1810   51.5500 C   0  0  0  0  0  0  0  0  0  0  0  0
   38.1060   30.8650   50.5450 C   0  0  0  0  0  0  0  0  0  0  0  0
   37.7120   30.6790   49.2390 C   0  0  0  0  0  0  0  0  0  0  0  0
   36.6390   29.8430   49.0250 N   0  0  0  0  0  0  0  0  0  0  0  0
   35.9670   29.2110   49.9970 C   0  0  0  0  0  0  0  0  0  0  0  0
   36.3520   29.3930   51.2670 N   0  0  0  0  0  0  0  0  0  0  0  0
   37.7480   30.3820   52.5390 H   0  0  0  0  0  0  0  0  0  0  0  0
   38.9360   31.5130   50.6960 H   0  0  0  0  0  0  0  0  0  0  0  0
   38.9540   33.2840   49.0280 F   0  0  0  0  0  0  0  0  0  0  0  0
   38.9120   32.4990   47.9610 C   0  0  0  0  0  0  0  0  0  0  0  0
   38.3240   31.2830   48.0820 C   0  0  0  0  0  0  0  0  0  0  0  0
   38.3370   30.5410   46.8960 C   0  0  0  0  0  0  0  0  0  0  0  0
   38.8880   31.0000   45.7270 C   0  0  0  0  0  0  0  0  0  0  0  0
   39.4710   32.2440   45.6600 C   0  0  0  0  0  0  0  0  0  0  0  0
   39.4760   32.9960   46.8060 C   0  0  0  0  0  0  0  0  0  0  0  0
   37.8970   29.5400   46.8480 H   0  0  0  0  0  0  0  0  0  0  0  0
   38.8890   30.4120   44.8180 H   0  0  0  0  0  0  0  0  0  0  0  0
   39.9050   32.6110   44.7510 H   0  0  0  0  0  0  0  0  0  0  0  0
   39.9280   33.9770   46.7790 H   0  0  0  0  0  0  0  0  0  0  0  0
  1 28  1  0  0  0  0
  1  2  1  0  0  0  0
  3  1  1  0  0  0  0
  4  1  1  0  0  0  0
  4  5  1  0  0  0  0
  5 10  1  0  0  0  0
  6  5  2  0  0  0  0
  6 11  1  0  0  0  0
  7  6  1  0  0  0  0
  8  9  1  0  0  0  0
  8  7  2  0  0  0  0
  9  4  2  0  0  0  0
 12  8  1  0  0  0  0
 13 12  1  0  0  0  0
 14 13  2  0  0  0  0
 14 24  1  0  0  0  0
 15 20  1  0  0  0  0
 15 14  1  0  0  0  0
 16 15  1  0  0  0  0
 17 16  2  0  0  0  0
 18 16  1  0  0  0  0
 18 19  1  0  0  0  0
 20 18  1  6  0  0  0
 21 20  1  0  0  0  0
 21 22  1  0  0  0  0
 22 13  1  0  0  0  0
 23 22  1  0  0  0  0
 24 25  2  0  0  0  0
 24 26  1  0  0  0  0
 26 27  1  0  0  0  0
 28 31  1  0  0  0  0
 29 28  1  0  0  0  0
 30 28  1  0  0  0  0
 31 36  1  0  0  0  0
 32 38  1  0  0  0  0
 33 39  1  0  0  0  0
 33 32  2  0  0  0  0
 34 33  1  0  0  0  0
 35 34  2  0  0  0  0
 35 36  1  0  0  0  0
 36 37  2  0  0  0  0
 37 32  1  0  0  0  0
 41 42  1  0  0  0  0
 41 40  1  0  0  0  0
 42 34  1  0  0  0  0
 43 42  2  0  0  0  0
 44 43  1  0  0  0  0
 45 44  2  0  0  0  0
 45 46  1  0  0  0  0
 46 41  2  0  0  0  0
 47 43  1  0  0  0  0
 48 44  1  0  0  0  0
 49 45  1  0  0  0  0
 50 46  1  0  0  0  0
M  END
>  <minimizedAffinity>
-6.95775366

>  <minimizedRMSD>
1.34925163

$$$$
