
 OpenBabel03272509533D

 50 54  0  0  1  0  0  0  0  0999 V2000
   33.5740   27.3150   48.0680 C   0  0  0  0  0  0  0  0  0  0  0  0
   33.5890   26.5450   48.8770 H   0  0  0  0  0  0  0  0  0  0  0  0
   33.9230   26.7880   47.1470 H   0  0  0  0  0  0  0  0  0  0  0  0
   32.1830   27.7390   47.8040 C   0  0  0  0  0  0  0  0  0  0  0  0
   31.1550   27.1550   48.5410 C   0  0  0  0  0  0  0  0  0  0  0  0
   29.8410   27.4730   48.3790 C   0  0  0  0  0  0  0  0  0  0  0  0
   29.5240   28.3880   47.4720 N   0  0  0  0  0  0  0  0  0  0  0  0
   30.5190   28.9710   46.7400 C   0  0  0  0  0  0  0  0  0  0  0  0
   31.8370   28.6670   46.8880 N   0  0  0  0  0  0  0  0  0  0  0  0
   31.4080   26.4050   49.2860 H   0  0  0  0  0  0  0  0  0  0  0  0
   29.0830   26.9890   48.9780 H   0  0  0  0  0  0  0  0  0  0  0  0
   30.1560   30.0110   45.7100 C   0  0  0  0  0  2  0  0  0  0  0  0
   30.9790   29.9430   44.5020 C   0  0  0  0  0  0  0  0  0  0  0  0
   31.7070   30.9730   44.1090 C   0  0  0  0  0  0  0  0  0  0  0  0
   32.4980   30.8950   42.9370 N   0  0  0  0  0  0  0  0  0  0  0  0
   32.9530   31.5660   41.7740 C   0  0  0  0  0  0  0  0  0  0  0  0
   32.9440   32.6920   41.2480 O   0  0  0  0  0  0  0  0  0  0  0  0
   33.5550   30.3100   41.2710 C   0  0  0  0  0  3  0  0  0  0  0  0
   34.6140   30.4620   41.0310 H   0  0  0  0  0  0  0  0  0  0  0  0
   33.2490   29.6710   42.6100 C   0  0  2  0  0  3  0  0  0  0  0  0
   32.0590   28.3370   42.5400 S   0  0  0  0  0  0  0  0  0  0  0  0
   30.8530   28.6230   43.8530 C   0  0  0  0  0  3  0  0  0  0  0  0
   29.8340   28.4410   43.4530 H   0  0  0  0  0  0  0  0  0  0  0  0
   31.7190   32.2170   44.8650 C   0  0  0  0  0  0  0  0  0  0  0  0
   30.9660   33.1860   44.6290 O   0  0  0  0  0  0  0  0  0  0  0  0
   32.0150   33.1960   45.7690 O   0  0  0  0  0  0  0  0  0  0  0  0
   32.9970   33.3970   45.9940 H   0  0  0  0  0  0  0  0  0  0  0  0
   34.4930   28.4700   48.3230 C   0  0  0  0  0  0  0  0  0  0  0  0
   35.5200   28.2570   47.9510 H   0  0  0  0  0  0  0  0  0  0  0  0
   34.1650   29.3920   47.8010 H   0  0  0  0  0  0  0  0  0  0  0  0
   34.6260   28.7000   49.7250 O   0  0  0  0  0  0  0  0  0  0  0  0
   37.3180   30.0450   51.7030 C   0  0  0  0  0  0  0  0  0  0  0  0
   38.0660   30.7180   50.7010 C   0  0  0  0  0  0  0  0  0  0  0  0
   37.5870   30.6590   49.4110 C   0  0  0  0  0  0  0  0  0  0  0  0
   36.4230   29.9510   49.2100 N   0  0  0  0  0  0  0  0  0  0  0  0
   35.7410   29.3270   50.1790 C   0  0  0  0  0  0  0  0  0  0  0  0
   36.2080   29.3840   51.4340 N   0  0  0  0  0  0  0  0  0  0  0  0
   37.7630   30.1420   52.6800 H   0  0  0  0  0  0  0  0  0  0  0  0
   38.9660   31.2680   50.8420 H   0  0  0  0  0  0  0  0  0  0  0  0
   38.9810   33.1900   49.2640 F   0  0  0  0  0  0  0  0  0  0  0  0
   38.8560   32.4560   48.1670 C   0  0  0  0  0  0  0  0  0  0  0  0
   38.1970   31.2740   48.2600 C   0  0  0  0  0  0  0  0  0  0  0  0
   38.1250   30.5850   47.0440 C   0  0  0  0  0  0  0  0  0  0  0  0
   38.6650   31.0590   45.8760 C   0  0  0  0  0  0  0  0  0  0  0  0
   39.3230   32.2670   45.8400 C   0  0  0  0  0  0  0  0  0  0  0  0
   39.4120   32.9670   47.0140 C   0  0  0  0  0  0  0  0  0  0  0  0
   37.6220   29.6150   46.9710 H   0  0  0  0  0  0  0  0  0  0  0  0
   38.6000   30.5120   44.9440 H   0  0  0  0  0  0  0  0  0  0  0  0
   39.7490   32.6450   44.9320 H   0  0  0  0  0  0  0  0  0  0  0  0
   39.9230   33.9190   47.0120 H   0  0  0  0  0  0  0  0  0  0  0  0
  1 28  1  0  0  0  0
  1  2  1  0  0  0  0
  3  1  1  0  0  0  0
  4  1  1  0  0  0  0
  4  5  1  0  0  0  0
  5 10  1  0  0  0  0
  6  5  2  0  0  0  0
  6 11  1  0  0  0  0
  7  6  1  0  0  0  0
  8  9  1  0  0  0  0
  8  7  2  0  0  0  0
  9  4  2  0  0  0  0
 12  8  1  0  0  0  0
 13 12  1  0  0  0  0
 14 13  2  0  0  0  0
 14 24  1  0  0  0  0
 15 14  1  0  0  0  0
 16 15  1  0  0  0  0
 17 16  2  0  0  0  0
 18 16  1  0  0  0  0
 19 18  1  0  0  0  0
 20 18  1  6  0  0  0
 20 15  1  0  0  0  0
 21 20  1  0  0  0  0
 21 22  1  0  0  0  0
 22 13  1  0  0  0  0
 23 22  1  0  0  0  0
 24 26  1  0  0  0  0
 25 24  2  0  0  0  0
 26 27  1  0  0  0  0
 28 31  1  0  0  0  0
 29 28  1  0  0  0  0
 30 28  1  0  0  0  0
 31 36  1  0  0  0  0
 32 38  1  0  0  0  0
 33 39  1  0  0  0  0
 33 32  2  0  0  0  0
 34 33  1  0  0  0  0
 35 34  2  0  0  0  0
 35 36  1  0  0  0  0
 36 37  2  0  0  0  0
 37 32  1  0  0  0  0
 41 42  1  0  0  0  0
 41 40  1  0  0  0  0
 42 34  1  0  0  0  0
 43 42  2  0  0  0  0
 44 43  1  0  0  0  0
 45 44  2  0  0  0  0
 45 46  1  0  0  0  0
 46 41  2  0  0  0  0
 47 43  1  0  0  0  0
 48 44  1  0  0  0  0
 49 45  1  0  0  0  0
 50 46  1  0  0  0  0
M  END
>  <minimizedAffinity>
-6.75785208

>  <minimizedRMSD>
1.36993396

$$$$
