REMARK  Name = 
REMARK  7 active torsions:
REMARK  status: ('A' for Active; 'I' for Inactive)
REMARK    1  A    between atoms: C_2  and  S_8
REMARK    2  A    between atoms: C_6  and  N_7
REMARK    3  A    between atoms: S_8  and  C_11
REMARK    4  A    between atoms: C_13  and  C_27
REMARK    5  A    between atoms: C_27  and  C_28
REMARK    6  A    between atoms: C_29  and  C_30
REMARK    7  A    between atoms: C_30  and  O_32
REMARK                            x       y       z     vdW  Elec       q    Type
REMARK                         _______ _______ _______ _____ _____    ______ ____
ROOT
ATOM      1  C   UNL     1      37.871  30.896  50.652  0.00  0.00    +0.000 A 
ATOM      2  C   UNL     1      38.292  31.076  49.336  0.00  0.00    +0.000 A 
ATOM      3  C   UNL     1      37.641  30.421  48.326  0.00  0.00    +0.000 A 
ATOM      4  N   UNL     1      36.580  29.598  48.666  0.00  0.00    +0.000 NA
ATOM      5  C   UNL     1      36.217  29.460  49.936  0.00  0.00    +0.000 A 
ATOM      6  N   UNL     1      36.853  30.102  50.933  0.00  0.00    +0.000 NA
ATOM      7  H   UNL     1      38.438  31.450  51.387  0.00  0.00    +0.000 HD
ATOM      8  H   UNL     1      39.098  31.689  48.975  0.00  0.00    +0.000 HD
ENDROOT
BRANCH   3   9
ATOM      9  S   UNL     1      38.061  30.550  46.604  0.00  0.00    +0.000 S 
BRANCH   9  11
ATOM     10  N   UNL     1      39.517  32.822  46.390  0.00  0.00    +0.000 NA
ATOM     11  C   UNL     1      38.202  32.326  46.137  0.00  0.00    +0.000 C 
ATOM     12  C   UNL     1      37.876  32.381  44.663  0.00  0.00    +0.000 C 
ATOM     13  N   UNL     1      38.882  31.585  43.967  0.00  0.00    +0.000 NA
ATOM     14  C   UNL     1      40.131  32.366  44.102  0.00  0.00    +0.000 C 
ATOM     15  C   UNL     1      40.528  32.242  45.567  0.00  0.00    +0.000 C 
ATOM     16  H   UNL     1      39.544  33.837  46.461  0.00  0.00    +0.000 HD
ATOM     17  H   UNL     1      37.477  32.925  46.729  0.00  0.00    +0.000 HD
ATOM     18  H   UNL     1      36.880  31.895  44.534  0.00  0.00    +0.000 HD
ATOM     19  H   UNL     1      37.839  33.410  44.256  0.00  0.00    +0.000 HD
ATOM     20  H   UNL     1      38.591  31.585  42.948  0.00  0.00    +0.000 HD
ATOM     21  H   UNL     1      40.877  31.861  43.469  0.00  0.00    +0.000 HD
ATOM     22  H   UNL     1      39.950  33.411  43.821  0.00  0.00    +0.000 HD
ATOM     23  H   UNL     1      41.453  32.838  45.684  0.00  0.00    +0.000 HD
BRANCH  15  24
ATOM     24  N   UNL     1      40.787  30.861  45.877  0.00  0.00    +0.000 NA
ATOM     25  H   UNL     1      40.271  30.199  45.258  0.00  0.00    +0.000 HD
ATOM     26  H   UNL     1      40.786  30.639  46.877  0.00  0.00    +0.000 HD
ENDBRANCH  15  24
ENDBRANCH   9  11
ENDBRANCH   3   9
BRANCH   5  27
ATOM     27  C   UNL     1      35.053  28.551  50.252  0.00  0.00    +0.000 C 
BRANCH  27  28
ATOM     28  C   UNL     1      34.371  28.308  48.986  0.00  0.00    +0.000 C 
ATOM     29  C   UNL     1      34.198  27.106  48.443  0.00  0.00    +0.000 C 
ATOM     30  N   UNL     1      33.505  26.997  47.205  0.00  0.00    +0.000 N 
ATOM     31  C   UNL     1      33.395  26.484  45.882  0.00  0.00    +0.000 C 
ATOM     32  O   UNL     1      33.726  25.374  45.392  0.00  0.00    +0.000 OA
ATOM     33  C   UNL     1      32.775  27.816  45.537  0.00  0.00    +0.000 C 
ATOM     34  H   UNL     1      32.026  27.747  44.724  0.00  0.00    +0.000 HD
ATOM     35  C   UNL     1      32.243  27.678  46.946  0.00  0.00    +0.000 C 
ATOM     36  S   UNL     1      32.202  29.289  47.770  0.00  0.00    +0.000 S 
ATOM     37  C   UNL     1      33.908  29.574  48.370  0.00  0.00    +0.000 C 
ATOM     38  H   UNL     1      34.519  29.845  47.481  0.00  0.00    +0.000 HD
BRANCH  29  39
ATOM     39  C   UNL     1      34.693  25.865  49.083  0.00  0.00    +0.000 C 
ATOM     40  O   UNL     1      35.303  25.559  50.122  0.00  0.00    +0.000 OA
BRANCH  39  41
ATOM     41  O   UNL     1      34.553  24.600  48.571  0.00  0.00    +0.000 OA
ATOM     42  H   UNL     1      35.329  23.988  48.370  0.00  0.00    +0.000 HD
ENDBRANCH  39  41
ENDBRANCH  29  39
ENDBRANCH  27  28
ENDBRANCH   5  27
TORSDOF 7
