
     RDKit          3D

 46 49  0  0  0  0  0  0  0  0999 V2000
   37.3410   30.1164   51.4316 C   0  0  0  0  0  0  0  0  0  0  0  0
   38.0366   30.5661   50.2913 C   0  0  0  0  0  0  0  0  0  0  0  0
   37.4667   30.2647   49.0612 C   0  0  0  0  0  0  0  0  0  0  0  0
   36.2862   29.5628   49.0034 N   0  0  0  0  0  0  0  0  0  0  0  0
   35.6540   29.1509   50.1205 C   0  0  0  0  0  0  0  0  0  0  0  0
   36.1872   29.4312   51.3409 N   0  0  0  0  0  0  0  0  0  0  0  0
   38.1668   30.7052   47.8529 C   0  0  1  0  0  0  0  0  0  0  0  0
   37.4075   30.7347   46.5987 C   0  0  0  0  0  0  0  0  0  0  0  0
   38.3839   30.8240   45.4556 C   0  0  0  0  0  0  0  0  0  0  0  0
   39.5135   31.7254   45.7609 C   0  0  0  0  0  0  0  0  0  0  0  0
   39.2968   32.7151   46.8731 C   0  0  0  0  0  0  0  0  0  0  0  0
   38.6927   32.1156   48.1200 C   0  0  1  0  0  0  0  0  0  0  0  0
   37.7259   30.3155   52.4240 H   0  0  0  0  0  0  0  0  0  0  0  0
   38.9297   31.0892   50.4952 H   0  0  0  0  0  0  0  0  0  0  0  0
   34.7278   28.5988   50.1042 H   0  0  0  0  0  0  0  0  0  0  0  0
   39.0972   30.0834   47.7337 H   0  0  0  0  0  0  0  0  0  0  0  0
   36.6471   31.5269   46.5381 H   0  0  0  0  0  0  0  0  0  0  0  0
   36.8590   29.7491   46.5141 H   0  0  0  0  0  0  0  0  0  0  0  0
   37.8277   31.1056   44.5151 H   0  0  0  0  0  0  0  0  0  0  0  0
   38.7439   29.7735   45.2596 H   0  0  0  0  0  0  0  0  0  0  0  0
   39.7429   32.3320   44.8532 H   0  0  0  0  0  0  0  0  0  0  0  0
   40.4550   31.1789   45.9890 H   0  0  0  0  0  0  0  0  0  0  0  0
   40.2911   33.1878   47.0524 H   0  0  0  0  0  0  0  0  0  0  0  0
   38.6763   33.5284   46.4393 H   0  0  0  0  0  0  0  0  0  0  0  0
   39.5539   31.9978   48.8115 H   0  0  0  0  0  0  0  0  0  0  0  0
   37.6374   33.0659   48.6105 C   0  0  0  0  0  0  0  0  0  0  0  0
   36.4632   32.3053   49.0450 C   0  0  0  0  0  0  0  0  0  0  0  0
   35.9739   32.3516   50.2734 C   0  0  0  0  0  0  0  0  0  0  0  0
   36.5446   33.1725   51.3659 C   0  0  0  0  0  0  0  0  0  0  0  0
   37.4997   33.9724   51.5199 O   0  0  0  0  0  0  0  0  0  0  0  0
   36.0893   33.2530   52.6420 O   0  0  0  0  0  0  0  0  0  0  0  0
   34.8218   31.5715   50.5626 N   0  0  0  0  0  0  0  0  0  0  0  0
   34.1156   30.6391   51.4085 C   0  0  0  0  0  0  0  0  0  0  0  0
   34.1076   30.4966   52.6686 O   0  0  0  0  0  0  0  0  0  0  0  0
   33.5454   30.0932   50.1283 C   0  0  2  0  0  0  0  0  0  0  0  0
   32.5130   29.7126   50.1979 H   0  0  0  0  0  0  0  0  0  0  0  0
   33.6387   31.5443   49.7152 C   0  0  2  0  0  0  0  0  0  0  0  0
   34.0910   31.6836   47.9698 S   0  0  0  0  0  0  0  0  0  0  0  0
   35.9177   31.4855   47.9603 C   0  0  1  0  0  0  0  0  0  0  0  0
   36.2191   31.8052   46.9715 H   0  0  0  0  0  0  0  0  0  0  0  0
   38.1138   33.6721   49.3941 H   0  0  0  0  0  0  0  0  0  0  0  0
   37.3230   33.8000   47.8384 H   0  0  0  0  0  0  0  0  0  0  0  0
   36.5992   33.0112   53.4809 H   0  0  0  0  0  0  0  0  0  0  0  0
   34.2769   29.4153   49.6197 H   0  0  0  0  0  0  0  0  0  0  0  0
   32.7756   32.1172   50.0378 H   0  0  0  0  0  0  0  0  0  0  0  0
   36.1079   30.4101   48.1630 H   0  0  0  0  0  0  0  0  0  0  0  0
  2  1  2  0
  3  2  1  0
  4  3  2  0
  4  5  1  0
  5  6  2  0
  6  1  1  0
  7 12  1  0
  7  3  1  0
  8  7  1  0
  9 10  1  0
  9  8  1  0
 10 11  1  0
 11 12  1  0
  1 13  1  0
  2 14  1  0
  5 15  1  0
  7 16  1  6
  8 17  1  0
  8 18  1  0
  9 19  1  0
  9 20  1  0
 10 21  1  0
 10 22  1  0
 11 23  1  0
 11 24  1  0
 12 25  1  1
 26 27  1  0
 27 28  2  0
 28 29  1  0
 29 30  2  0
 29 31  1  0
 28 32  1  0
 32 33  1  0
 33 34  2  0
 33 35  1  0
 35 36  1  1
 35 37  1  0
 37 38  1  0
 38 39  1  0
 39 40  1  6
 39 27  1  0
 37 32  1  0
 26 41  1  0
 26 42  1  0
 31 43  1  0
 35 44  1  0
 37 45  1  1
 39 46  1  0
 12 26  1  0
M  ISO  8  13  14  14  14  15  14  16  13  17  13  18  13  19  13  20  13
M  ISO  7  21  13  22  13  23  13  24  13  25  13  36  15  40  15
M  END
>  <DihAtoms>  (1) 
6,11,25,26

>  <DihDeg>  (1) 
-179.8632977269363

$$$$
