
     RDKit          3D

 39 42  0  0  0  0  0  0  0  0999 V2000
   37.2127   30.4305   50.3027 C   0  0  0  0  0  0  0  0  0  0  0  0
   37.5990   30.3897   51.4943 O   0  0  0  0  0  0  0  0  0  0  0  0
   37.8881   31.1916   49.2782 C   0  0  0  0  0  0  0  0  0  0  0  0
   38.2926   32.4806   49.5964 C   0  0  0  0  0  0  0  0  0  0  0  0
   38.9449   33.2398   48.6344 C   0  0  0  0  0  0  0  0  0  0  0  0
   39.1565   32.6697   47.4091 N   0  0  0  0  0  0  0  0  0  0  0  0
   38.7552   31.4149   47.1203 C   0  0  0  0  0  0  0  0  0  0  0  0
   38.1284   30.6849   48.0445 N   0  0  0  0  0  0  0  0  0  0  0  0
   36.0314   29.6824   49.9185 C   0  0  0  0  0  0  0  0  0  0  0  0
   34.7864   30.2663   49.9022 C   0  0  0  0  0  0  0  0  0  0  0  0
   33.8942   29.2614   49.4874 C   0  0  0  0  0  0  0  0  0  0  0  0
   34.6651   28.1321   49.2802 C   0  0  0  0  0  0  0  0  0  0  0  0
   35.9026   28.4422   49.5486 O   0  0  0  0  0  0  0  0  0  0  0  0
   38.1290   32.9355   50.5594 H   0  0  0  0  0  0  0  0  0  0  0  0
   39.2720   34.2481   48.8535 H   0  0  0  0  0  0  0  0  0  0  0  0
   38.9512   31.0054   46.1183 H   0  0  0  0  0  0  0  0  0  0  0  0
   34.5234   31.2995   50.1563 H   0  0  0  0  0  0  0  0  0  0  0  0
   32.8111   29.3777   49.3623 H   0  0  0  0  0  0  0  0  0  0  0  0
   34.0513   26.8481   48.8271 C   0  0  0  0  0  0  0  0  0  0  0  0
   32.8727   27.1997   48.0147 C   0  0  0  0  0  0  0  0  0  0  0  0
   32.7062   26.8615   46.7572 C   0  0  0  0  0  0  0  0  0  0  0  0
   33.6982   26.0749   45.9922 C   0  0  0  0  0  0  0  0  0  0  0  0
   34.8045   25.5665   46.2417 O   0  0  0  0  0  0  0  0  0  0  0  0
   33.5329   25.7233   44.6760 O   0  0  0  0  0  0  0  0  0  0  0  0
   31.5209   27.2562   46.0941 N   0  0  0  0  0  0  0  0  0  0  0  0
   30.9207   27.7714   44.8888 C   0  0  0  0  0  0  0  0  0  0  0  0
   31.2768   27.9693   43.6789 O   0  0  0  0  0  0  0  0  0  0  0  0
   29.6277   28.0298   45.5472 C   0  0  2  0  0  0  0  0  0  0  0  0
   28.7382   27.6055   45.0295 H   0  0  0  0  0  0  0  0  0  0  0  0
   30.1799   27.2197   46.6743 C   0  0  2  0  0  0  0  0  0  0  0  0
   30.3038   28.1725   48.2233 S   0  0  0  0  0  0  0  0  0  0  0  0
   31.9800   27.9896   48.8905 C   0  0  1  0  0  0  0  0  0  0  0  0
   31.8306   27.5032   49.8991 H   0  0  0  0  0  0  0  0  0  0  0  0
   34.7803   26.1865   48.3755 H   0  0  0  0  0  0  0  0  0  0  0  0
   33.7029   26.3414   49.7749 H   0  0  0  0  0  0  0  0  0  0  0  0
   34.2471   25.8999   43.9828 H   0  0  0  0  0  0  0  0  0  0  0  0
   29.4848   29.0994   45.8323 H   0  0  0  0  0  0  0  0  0  0  0  0
   29.7354   26.2266   46.7520 H   0  0  0  0  0  0  0  0  0  0  0  0
   32.3696   29.0278   49.0456 H   0  0  0  0  0  0  0  0  0  0  0  0
  1  2  2  0
  3  4  2  0
  3  1  1  0
  5  4  1  0
  6  5  2  0
  7  6  1  0
  7  8  2  0
  8  3  1  0
  9  1  1  0
 10  9  2  0
 11 10  1  0
 12 11  2  0
 12 13  1  0
 13  9  1  0
  4 14  1  0
  5 15  1  0
  7 16  1  0
 10 17  1  0
 11 18  1  0
 19 20  1  0
 20 21  2  0
 21 22  1  0
 22 23  2  0
 22 24  1  0
 21 25  1  0
 25 26  1  0
 26 27  2  0
 26 28  1  0
 28 29  1  6
 28 30  1  0
 30 31  1  0
 31 32  1  0
 32 33  1  1
 32 20  1  0
 30 25  1  0
 19 34  1  0
 19 35  1  0
 24 36  1  0
 28 37  1  0
 30 38  1  1
 32 39  1  0
 12 19  1  0
M  ISO  7  14  14  15  14  16  14  17  14  18  14  29  15  33  15
M  END
>  <DihAtoms>  (1) 
10,11,18,19

>  <DihDeg>  (1) 
-90.00886595699221

$$$$
