
 OpenBabel03262523373D

 41 44  0  0  1  0  0  0  0  0999 V2000
   33.1840   31.3730   35.4520 C   0  0  2  0  0  0  0  0  0  0  0  0
   34.1030   31.2230   34.2780 C   0  0  0  0  0  0  0  0  0  0  0  0
   35.5530   31.0060   34.6610 C   0  0  1  0  0  0  0  0  0  0  0  0
   36.0620   32.0510   35.5840 C   0  0  0  0  0  0  0  0  0  0  0  0
   35.1160   32.4030   36.6950 C   0  0  0  0  0  0  0  0  0  0  0  0
   33.8920   31.5350   36.7470 C   0  0  0  0  0  0  0  0  0  0  0  0
   32.4670   32.2310   35.2830 H   0  0  0  0  0  0  0  0  0  0  0  0
   34.0620   32.1850   33.6990 H   0  0  0  0  0  0  0  0  0  0  0  0
   33.8190   30.3990   33.6280 H   0  0  0  0  0  0  0  0  0  0  0  0
   36.0890   31.2290   33.6700 H   0  0  0  0  0  0  0  0  0  0  0  0
   37.0340   31.7560   36.0010 H   0  0  0  0  0  0  0  0  0  0  0  0
   36.2970   33.0050   35.0020 H   0  0  0  0  0  0  0  0  0  0  0  0
   34.7610   33.4430   36.5280 H   0  0  0  0  0  0  0  0  0  0  0  0
   35.6010   32.3900   37.6920 H   0  0  0  0  0  0  0  0  0  0  0  0
   34.0150   30.6020   37.3410 H   0  0  0  0  0  0  0  0  0  0  0  0
   33.1660   32.1280   37.4030 H   0  0  0  0  0  0  0  0  0  0  0  0
   32.2910   30.1830   35.5550 C   0  0  0  0  0  0  0  0  0  0  0  0
   31.9530   29.7630   36.8530 C   0  0  0  0  0  0  0  0  0  0  0  0
   31.1260   28.6370   36.9570 C   0  0  0  0  0  0  0  0  0  0  0  0
   30.6960   28.0130   35.8120 N   0  0  0  0  0  0  0  0  0  0  0  0
   31.0480   28.4550   34.5740 C   0  0  0  0  0  0  0  0  0  0  0  0
   31.8410   29.5340   34.4650 N   0  0  0  0  0  0  0  0  0  0  0  0
   32.2570   30.2020   37.7720 H   0  0  0  0  0  0  0  0  0  0  0  0
   30.8310   28.2640   37.9130 H   0  0  0  0  0  0  0  0  0  0  0  0
   30.6580   27.8950   33.7340 H   0  0  0  0  0  0  0  0  0  0  0  0
   35.8840   29.5900   34.9310 C   0  0  0  0  0  2  0  0  0  0  0  0
   35.9460   28.6780   33.7780 C   0  0  0  0  0  0  0  0  0  0  0  0
   36.8450   27.7020   33.9350 C   0  0  0  0  0  0  0  0  0  0  0  0
   37.0800   26.7280   32.9410 N   0  0  0  0  0  0  0  0  0  0  0  0
   37.1910   25.3580   32.5430 C   0  0  0  0  0  0  0  0  0  0  0  0
   37.5090   24.3070   33.1980 O   0  0  0  0  0  0  0  0  0  0  0  0
   36.7960   25.7030   31.1370 C   0  0  0  0  0  3  0  0  0  0  0  0
   35.7170   25.7170   30.9360 H   0  0  0  0  0  0  0  0  0  0  0  0
   37.3850   27.0450   31.5380 C   0  0  1  0  0  3  0  0  0  0  0  0
   36.3950   28.4890   31.0960 S   0  0  0  0  0  0  0  0  0  0  0  0
   35.2070   28.6810   32.4930 C   0  0  0  0  0  3  0  0  0  0  0  0
   34.5030   27.8570   32.3720 H   0  0  0  0  0  0  0  0  0  0  0  0
   37.6570   27.6090   35.1730 C   0  0  0  0  0  0  0  0  0  0  0  0
   37.8150   26.5900   35.9270 O   0  0  0  0  0  0  0  0  0  0  0  0
   38.4890   27.9460   36.2200 O   0  0  0  0  0  0  0  0  0  0  0  0
   38.3030   28.7980   36.7760 H   0  0  0  0  0  0  0  0  0  0  0  0
  1  7  1  6  0  0  0
  1 17  1  0  0  0  0
  1  6  1  0  0  0  0
  2  3  1  0  0  0  0
  2  1  1  0  0  0  0
  3 10  1  6  0  0  0
  3 26  1  0  0  0  0
  3  4  1  0  0  0  0
  4 11  1  0  0  0  0
  4  5  1  0  0  0  0
  5  6  1  0  0  0  0
  5 14  1  0  0  0  0
  6 15  1  0  0  0  0
  6 16  1  0  0  0  0
  8  2  1  0  0  0  0
  9  2  1  0  0  0  0
 12  4  1  0  0  0  0
 13  5  1  0  0  0  0
 17 18  1  0  0  0  0
 18 19  2  0  0  0  0
 18 23  1  0  0  0  0
 19 24  1  0  0  0  0
 20 19  1  0  0  0  0
 21 20  2  0  0  0  0
 22 21  1  0  0  0  0
 22 17  2  0  0  0  0
 25 21  1  0  0  0  0
 27 28  2  0  0  0  0
 27 26  1  0  0  0  0
 28 38  1  0  0  0  0
 29 28  1  0  0  0  0
 30 29  1  0  0  0  0
 30 31  2  0  0  0  0
 32 34  1  0  0  0  0
 32 30  1  0  0  0  0
 33 32  1  0  0  0  0
 34 35  1  6  0  0  0
 34 29  1  0  0  0  0
 35 36  1  0  0  0  0
 36 27  1  0  0  0  0
 37 36  1  0  0  0  0
 38 39  2  0  0  0  0
 38 40  1  0  0  0  0
 40 41  1  0  0  0  0
M  END
>  <minimizedAffinity>
-6.31874228

$$$$

 OpenBabel03262523373D

 41 44  0  0  1  0  0  0  0  0999 V2000
   38.3090   26.9800   32.7820 C   0  0  2  0  0  0  0  0  0  0  0  0
   39.6300   26.9800   33.4900 C   0  0  0  0  0  0  0  0  0  0  0  0
   39.5440   26.5590   34.9430 C   0  0  1  0  0  0  0  0  0  0  0  0
   38.5510   27.3520   35.7090 C   0  0  0  0  0  0  0  0  0  0  0  0
   37.2500   27.5650   34.9910 C   0  0  0  0  0  0  0  0  0  0  0  0
   37.1460   26.8200   33.6920 C   0  0  0  0  0  0  0  0  0  0  0  0
   38.1970   27.9170   32.1590 H   0  0  0  0  0  0  0  0  0  0  0  0
   40.0120   28.0360   33.4810 H   0  0  0  0  0  0  0  0  0  0  0  0
   40.3580   26.3280   33.0120 H   0  0  0  0  0  0  0  0  0  0  0  0
   40.5570   26.9220   35.3480 H   0  0  0  0  0  0  0  0  0  0  0  0
   38.3650   26.8930   36.6890 H   0  0  0  0  0  0  0  0  0  0  0  0
   38.9850   28.3760   35.9690 H   0  0  0  0  0  0  0  0  0  0  0  0
   37.1650   28.6460   34.7450 H   0  0  0  0  0  0  0  0  0  0  0  0
   36.3690   27.3130   35.6150 H   0  0  0  0  0  0  0  0  0  0  0  0
   36.7570   25.7820   33.7870 H   0  0  0  0  0  0  0  0  0  0  0  0
   36.2800   27.3370   33.1500 H   0  0  0  0  0  0  0  0  0  0  0  0
   38.2690   25.8810   31.7760 C   0  0  0  0  0  0  0  0  0  0  0  0
   37.1410   25.0420   31.8080 C   0  0  0  0  0  0  0  0  0  0  0  0
   37.1040   23.9990   30.8750 C   0  0  0  0  0  0  0  0  0  0  0  0
   38.1470   23.8490   29.9950 N   0  0  0  0  0  0  0  0  0  0  0  0
   39.2210   24.6850   30.0000 C   0  0  0  0  0  0  0  0  0  0  0  0
   39.2650   25.6890   30.8910 N   0  0  0  0  0  0  0  0  0  0  0  0
   36.3080   25.1080   32.4650 H   0  0  0  0  0  0  0  0  0  0  0  0
   36.2760   23.3240   30.8430 H   0  0  0  0  0  0  0  0  0  0  0  0
   39.9900   24.4840   29.2660 H   0  0  0  0  0  0  0  0  0  0  0  0
   39.5920   25.0940   35.1350 C   0  0  0  0  0  2  0  0  0  0  0  0
   40.9190   24.4610   35.1920 C   0  0  0  0  0  0  0  0  0  0  0  0
   40.9680   23.4300   36.0400 C   0  0  0  0  0  0  0  0  0  0  0  0
   42.1510   22.6920   36.2600 N   0  0  0  0  0  0  0  0  0  0  0  0
   42.8460   21.4430   36.3210 C   0  0  0  0  0  0  0  0  0  0  0  0
   42.4390   20.2570   36.5690 O   0  0  0  0  0  0  0  0  0  0  0  0
   44.1460   22.1140   35.9860 C   0  0  0  0  0  3  0  0  0  0  0  0
   44.3600   22.2290   34.9160 H   0  0  0  0  0  0  0  0  0  0  0  0
   43.4400   23.3000   36.6240 C   0  0  1  0  0  3  0  0  0  0  0  0
   43.5650   24.8560   35.7150 S   0  0  0  0  0  0  0  0  0  0  0  0
   42.1860   24.7910   34.4940 C   0  0  0  0  0  3  0  0  0  0  0  0
   42.5030   24.0520   33.7570 H   0  0  0  0  0  0  0  0  0  0  0  0
   39.7670   23.0190   36.8070 C   0  0  0  0  0  0  0  0  0  0  0  0
   39.6340   22.9630   38.0760 O   0  0  0  0  0  0  0  0  0  0  0  0
   38.4920   22.5900   37.1090 O   0  0  0  0  0  0  0  0  0  0  0  0
   38.1100   21.7430   36.6530 H   0  0  0  0  0  0  0  0  0  0  0  0
  1  7  1  6  0  0  0
  1  2  1  0  0  0  0
  1  6  1  0  0  0  0
  2  3  1  0  0  0  0
  3 26  1  0  0  0  0
  3 10  1  1  0  0  0
  3  4  1  0  0  0  0
  4 12  1  0  0  0  0
  4 11  1  0  0  0  0
  5 14  1  0  0  0  0
  5  4  1  0  0  0  0
  6 15  1  0  0  0  0
  6  5  1  0  0  0  0
  8  2  1  0  0  0  0
  9  2  1  0  0  0  0
 13  5  1  0  0  0  0
 16  6  1  0  0  0  0
 17 18  1  0  0  0  0
 17  1  1  0  0  0  0
 18 23  1  0  0  0  0
 19 18  2  0  0  0  0
 20 21  2  0  0  0  0
 20 19  1  0  0  0  0
 21 22  1  0  0  0  0
 22 17  2  0  0  0  0
 24 19  1  0  0  0  0
 25 21  1  0  0  0  0
 26 27  1  0  0  0  0
 27 28  2  0  0  0  0
 28 29  1  0  0  0  0
 28 38  1  0  0  0  0
 29 30  1  0  0  0  0
 29 34  1  0  0  0  0
 30 31  2  0  0  0  0
 32 30  1  0  0  0  0
 32 34  1  0  0  0  0
 33 32  1  0  0  0  0
 34 35  1  6  0  0  0
 36 27  1  0  0  0  0
 36 35  1  0  0  0  0
 37 36  1  0  0  0  0
 38 40  1  0  0  0  0
 38 39  2  0  0  0  0
 41 40  1  0  0  0  0
M  END
>  <minimizedAffinity>
-5.89129305

$$$$

 OpenBabel03262523373D

 41 44  0  0  1  0  0  0  0  0999 V2000
   37.4980   26.8550   33.2940 C   0  0  2  0  0  0  0  0  0  0  0  0
   38.9820   26.6490   33.2680 C   0  0  0  0  0  0  0  0  0  0  0  0
   39.5690   26.2670   34.6110 C   0  0  1  0  0  0  0  0  0  0  0  0
   39.2020   27.2210   35.6870 C   0  0  0  0  0  0  0  0  0  0  0  0
   37.7580   27.6330   35.6740 C   0  0  0  0  0  0  0  0  0  0  0  0
   36.9260   26.8980   34.6640 C   0  0  0  0  0  0  0  0  0  0  0  0
   37.2200   27.7890   32.7210 H   0  0  0  0  0  0  0  0  0  0  0  0
   39.4480   27.6280   32.9770 H   0  0  0  0  0  0  0  0  0  0  0  0
   39.2830   25.8810   32.5600 H   0  0  0  0  0  0  0  0  0  0  0  0
   40.6880   26.4660   34.4380 H   0  0  0  0  0  0  0  0  0  0  0  0
   39.4640   26.8120   36.6710 H   0  0  0  0  0  0  0  0  0  0  0  0
   39.8410   28.1640   35.6080 H   0  0  0  0  0  0  0  0  0  0  0  0
   37.7100   28.7100   35.4020 H   0  0  0  0  0  0  0  0  0  0  0  0
   37.2760   27.5370   36.6680 H   0  0  0  0  0  0  0  0  0  0  0  0
   36.5000   25.9380   35.0310 H   0  0  0  0  0  0  0  0  0  0  0  0
   35.9850   27.5420   34.5660 H   0  0  0  0  0  0  0  0  0  0  0  0
   36.8180   25.7630   32.5400 C   0  0  0  0  0  0  0  0  0  0  0  0
   35.8710   26.1590   31.5790 C   0  0  0  0  0  0  0  0  0  0  0  0
   35.2190   25.1380   30.8780 C   0  0  0  0  0  0  0  0  0  0  0  0
   35.5290   23.8300   31.1560 N   0  0  0  0  0  0  0  0  0  0  0  0
   36.4530   23.4910   32.0960 C   0  0  0  0  0  0  0  0  0  0  0  0
   37.0840   24.4640   32.7740 N   0  0  0  0  0  0  0  0  0  0  0  0
   35.5900   27.1520   31.3240 H   0  0  0  0  0  0  0  0  0  0  0  0
   34.4890   25.3680   30.1330 H   0  0  0  0  0  0  0  0  0  0  0  0
   36.6260   22.4330   32.2410 H   0  0  0  0  0  0  0  0  0  0  0  0
   39.5070   24.8160   34.8900 C   0  0  0  0  0  2  0  0  0  0  0  0
   40.7830   24.0880   34.9760 C   0  0  0  0  0  0  0  0  0  0  0  0
   40.8320   23.2430   36.0100 C   0  0  0  0  0  0  0  0  0  0  0  0
   41.9710   22.4580   36.2880 N   0  0  0  0  0  0  0  0  0  0  0  0
   42.5730   21.1870   36.5490 C   0  0  0  0  0  0  0  0  0  0  0  0
   42.1020   20.1140   37.0620 O   0  0  0  0  0  0  0  0  0  0  0  0
   43.8840   21.6580   35.9910 C   0  0  0  0  0  3  0  0  0  0  0  0
   44.0090   21.5400   34.9070 H   0  0  0  0  0  0  0  0  0  0  0  0
   43.3290   23.0050   36.4240 C   0  0  1  0  0  3  0  0  0  0  0  0
   43.4880   24.3340   35.2130 S   0  0  0  0  0  0  0  0  0  0  0  0
   42.0030   24.1570   34.1350 C   0  0  0  0  0  3  0  0  0  0  0  0
   42.1960   23.2640   33.5410 H   0  0  0  0  0  0  0  0  0  0  0  0
   39.6770   23.1020   36.9300 C   0  0  0  0  0  0  0  0  0  0  0  0
   39.7000   23.0380   38.2060 O   0  0  0  0  0  0  0  0  0  0  0  0
   38.3860   22.9750   37.3990 O   0  0  0  0  0  0  0  0  0  0  0  0
   37.7590   22.2570   36.9990 H   0  0  0  0  0  0  0  0  0  0  0  0
  1  7  1  6  0  0  0
  1  6  1  0  0  0  0
  2  1  1  0  0  0  0
  2  3  1  0  0  0  0
  3 10  1  6  0  0  0
  3 26  1  0  0  0  0
  3  4  1  0  0  0  0
  4 11  1  0  0  0  0
  5  4  1  0  0  0  0
  5 14  1  0  0  0  0
  6 15  1  0  0  0  0
  6  5  1  0  0  0  0
  8  2  1  0  0  0  0
  9  2  1  0  0  0  0
 12  4  1  0  0  0  0
 13  5  1  0  0  0  0
 16  6  1  0  0  0  0
 17 22  1  0  0  0  0
 17  1  1  0  0  0  0
 18 17  2  0  0  0  0
 19 20  2  0  0  0  0
 19 18  1  0  0  0  0
 20 21  1  0  0  0  0
 21 25  1  0  0  0  0
 21 22  2  0  0  0  0
 23 18  1  0  0  0  0
 24 19  1  0  0  0  0
 26 27  1  0  0  0  0
 27 28  2  0  0  0  0
 28 29  1  0  0  0  0
 28 38  1  0  0  0  0
 29 34  1  0  0  0  0
 29 30  1  0  0  0  0
 30 31  2  0  0  0  0
 32 34  1  0  0  0  0
 32 30  1  0  0  0  0
 33 32  1  0  0  0  0
 34 35  1  6  0  0  0
 36 27  1  0  0  0  0
 36 35  1  0  0  0  0
 37 36  1  0  0  0  0
 38 40  1  0  0  0  0
 38 39  2  0  0  0  0
 41 40  1  0  0  0  0
M  END
>  <minimizedAffinity>
-5.74336815

$$$$

 OpenBabel03262523373D

 41 44  0  0  1  0  0  0  0  0999 V2000
   34.7420   30.7370   32.6420 C   0  0  2  0  0  0  0  0  0  0  0  0
   34.4340   29.2850   32.4360 C   0  0  0  0  0  0  0  0  0  0  0  0
   35.6240   28.4680   31.9730 C   0  0  1  0  0  0  0  0  0  0  0  0
   36.2670   29.0340   30.7620 C   0  0  0  0  0  0  0  0  0  0  0  0
   36.4460   30.5240   30.8010 C   0  0  0  0  0  0  0  0  0  0  0  0
   36.0680   31.1460   32.1140 C   0  0  0  0  0  0  0  0  0  0  0  0
   33.9250   31.3790   32.1960 H   0  0  0  0  0  0  0  0  0  0  0  0
   33.6620   29.2200   31.6230 H   0  0  0  0  0  0  0  0  0  0  0  0
   34.0530   28.8080   33.3360 H   0  0  0  0  0  0  0  0  0  0  0  0
   35.1130   27.5120   31.5920 H   0  0  0  0  0  0  0  0  0  0  0  0
   37.2340   28.5480   30.5750 H   0  0  0  0  0  0  0  0  0  0  0  0
   35.6530   28.7740   29.8350 H   0  0  0  0  0  0  0  0  0  0  0  0
   35.7780   30.9710   30.0330 H   0  0  0  0  0  0  0  0  0  0  0  0
   37.4780   30.8390   30.5440 H   0  0  0  0  0  0  0  0  0  0  0  0
   36.8900   31.1720   32.8630 H   0  0  0  0  0  0  0  0  0  0  0  0
   35.9520   32.2570   31.8650 H   0  0  0  0  0  0  0  0  0  0  0  0
   34.6970   31.0670   34.0950 C   0  0  0  0  0  0  0  0  0  0  0  0
   35.9080   31.4710   34.6840 C   0  0  0  0  0  0  0  0  0  0  0  0
   35.8750   31.7690   36.0520 C   0  0  0  0  0  0  0  0  0  0  0  0
   34.6900   31.6540   36.7350 N   0  0  0  0  0  0  0  0  0  0  0  0
   33.5410   31.2580   36.1240 C   0  0  0  0  0  0  0  0  0  0  0  0
   33.5620   30.9710   34.8120 N   0  0  0  0  0  0  0  0  0  0  0  0
   36.8530   31.5760   34.2080 H   0  0  0  0  0  0  0  0  0  0  0  0
   36.7590   32.0830   36.5630 H   0  0  0  0  0  0  0  0  0  0  0  0
   32.6590   31.1990   36.7490 H   0  0  0  0  0  0  0  0  0  0  0  0
   36.4790   27.9930   33.0820 C   0  0  0  0  0  2  0  0  0  0  0  0
   36.8550   26.5700   33.0840 C   0  0  0  0  0  0  0  0  0  0  0  0
   37.5940   26.2290   34.1440 C   0  0  0  0  0  0  0  0  0  0  0  0
   38.0780   24.9170   34.3340 N   0  0  0  0  0  0  0  0  0  0  0  0
   38.2280   23.7530   35.1510 C   0  0  0  0  0  0  0  0  0  0  0  0
   38.2530   23.6040   36.4200 O   0  0  0  0  0  0  0  0  0  0  0  0
   38.3310   22.8760   33.9370 C   0  0  0  0  0  3  0  0  0  0  0  0
   37.3780   22.5170   33.5280 H   0  0  0  0  0  0  0  0  0  0  0  0
   38.8390   24.1700   33.3210 C   0  0  1  0  0  3  0  0  0  0  0  0
   38.1350   24.5920   31.7130 S   0  0  0  0  0  0  0  0  0  0  0  0
   36.5730   25.4860   32.1120 C   0  0  0  0  0  3  0  0  0  0  0  0
   35.8960   24.7130   32.4790 H   0  0  0  0  0  0  0  0  0  0  0  0
   37.9550   27.2350   35.1740 C   0  0  0  0  0  0  0  0  0  0  0  0
   39.0370   27.3060   35.8490 O   0  0  0  0  0  0  0  0  0  0  0  0
   37.8870   28.3190   36.0230 O   0  0  0  0  0  0  0  0  0  0  0  0
   37.0580   28.4520   36.6270 H   0  0  0  0  0  0  0  0  0  0  0  0
  1  7  1  6  0  0  0
  1 17  1  0  0  0  0
  2  1  1  0  0  0  0
  2  9  1  0  0  0  0
  3 10  1  6  0  0  0
  3  2  1  0  0  0  0
  3 26  1  0  0  0  0
  4  5  1  0  0  0  0
  4  3  1  0  0  0  0
  5  6  1  0  0  0  0
  6  1  1  0  0  0  0
  6 15  1  0  0  0  0
  8  2  1  0  0  0  0
 11  4  1  0  0  0  0
 12  4  1  0  0  0  0
 13  5  1  0  0  0  0
 14  5  1  0  0  0  0
 16  6  1  0  0  0  0
 17 18  2  0  0  0  0
 17 22  1  0  0  0  0
 18 19  1  0  0  0  0
 19 24  1  0  0  0  0
 19 20  2  0  0  0  0
 21 20  1  0  0  0  0
 21 25  1  0  0  0  0
 22 21  2  0  0  0  0
 23 18  1  0  0  0  0
 26 27  1  0  0  0  0
 27 28  2  0  0  0  0
 28 29  1  0  0  0  0
 28 38  1  0  0  0  0
 29 30  1  0  0  0  0
 30 31  2  0  0  0  0
 32 30  1  0  0  0  0
 33 32  1  0  0  0  0
 34 35  1  6  0  0  0
 34 32  1  0  0  0  0
 34 29  1  0  0  0  0
 35 36  1  0  0  0  0
 36 37  1  0  0  0  0
 36 27  1  0  0  0  0
 38 39  2  0  0  0  0
 38 40  1  0  0  0  0
 40 41  1  0  0  0  0
M  END
>  <minimizedAffinity>
-5.70810843

$$$$

 OpenBabel03262523373D

 41 44  0  0  1  0  0  0  0  0999 V2000
   35.7460   28.7580   31.2410 C   0  0  2  0  0  0  0  0  0  0  0  0
   35.8900   27.2670   31.2320 C   0  0  0  0  0  0  0  0  0  0  0  0
   37.3220   26.7900   31.3660 C   0  0  1  0  0  0  0  0  0  0  0  0
   38.2230   27.4000   30.3570 C   0  0  0  0  0  0  0  0  0  0  0  0
   38.0180   28.8740   30.1620 C   0  0  0  0  0  0  0  0  0  0  0  0
   37.0370   29.4820   31.1220 C   0  0  0  0  0  0  0  0  0  0  0  0
   35.0320   29.0890   30.4290 H   0  0  0  0  0  0  0  0  0  0  0  0
   35.5200   26.9030   30.2350 H   0  0  0  0  0  0  0  0  0  0  0  0
   35.3200   26.7880   32.0250 H   0  0  0  0  0  0  0  0  0  0  0  0
   37.2330   25.6950   31.0290 H   0  0  0  0  0  0  0  0  0  0  0  0
   39.2730   27.1990   30.6070 H   0  0  0  0  0  0  0  0  0  0  0  0
   38.0840   26.8850   29.3470 H   0  0  0  0  0  0  0  0  0  0  0  0
   37.6050   29.0320   29.1420 H   0  0  0  0  0  0  0  0  0  0  0  0
   38.9650   29.4490   30.2110 H   0  0  0  0  0  0  0  0  0  0  0  0
   37.4840   29.8170   32.0840 H   0  0  0  0  0  0  0  0  0  0  0  0
   36.7660   30.4820   30.6360 H   0  0  0  0  0  0  0  0  0  0  0  0
   35.0790   29.1980   32.4990 C   0  0  0  0  0  0  0  0  0  0  0  0
   35.9200   29.6770   33.5200 C   0  0  0  0  0  0  0  0  0  0  0  0
   35.3000   30.0780   34.7100 C   0  0  0  0  0  0  0  0  0  0  0  0
   33.9350   29.9880   34.8190 N   0  0  0  0  0  0  0  0  0  0  0  0
   33.1590   29.5190   33.8040 C   0  0  0  0  0  0  0  0  0  0  0  0
   33.7440   29.1310   32.6590 N   0  0  0  0  0  0  0  0  0  0  0  0
   36.9780   29.7670   33.4940 H   0  0  0  0  0  0  0  0  0  0  0  0
   35.8780   30.4520   35.5270 H   0  0  0  0  0  0  0  0  0  0  0  0
   32.0930   29.4870   33.9880 H   0  0  0  0  0  0  0  0  0  0  0  0
   37.7800   26.6920   32.7680 C   0  0  0  0  0  2  0  0  0  0  0  0
   37.7420   25.3640   33.4020 C   0  0  0  0  0  0  0  0  0  0  0  0
   38.1400   25.3840   34.6770 C   0  0  0  0  0  0  0  0  0  0  0  0
   38.1970   24.2160   35.4670 N   0  0  0  0  0  0  0  0  0  0  0  0
   37.8610   23.5040   36.6600 C   0  0  0  0  0  0  0  0  0  0  0  0
   37.5990   23.9080   37.8450 O   0  0  0  0  0  0  0  0  0  0  0  0
   37.9490   22.1910   35.9390 C   0  0  0  0  0  3  0  0  0  0  0  0
   37.0310   21.8630   35.4350 H   0  0  0  0  0  0  0  0  0  0  0  0
   38.9030   22.9890   35.0650 C   0  0  1  0  0  3  0  0  0  0  0  0
   38.6650   22.8020   33.2850 S   0  0  0  0  0  0  0  0  0  0  0  0
   37.3630   24.0370   32.8590 C   0  0  0  0  0  3  0  0  0  0  0  0
   36.4430   23.6230   33.2730 H   0  0  0  0  0  0  0  0  0  0  0  0
   38.5590   26.6530   35.3220 C   0  0  0  0  0  0  0  0  0  0  0  0
   39.7470   27.0980   35.4680 O   0  0  0  0  0  0  0  0  0  0  0  0
   38.5100   27.8680   35.9720 O   0  0  0  0  0  0  0  0  0  0  0  0
   37.9620   27.9660   36.8440 H   0  0  0  0  0  0  0  0  0  0  0  0
  1  7  1  6  0  0  0
  1 17  1  0  0  0  0
  2  1  1  0  0  0  0
  2  3  1  0  0  0  0
  2  9  1  0  0  0  0
  3 10  1  6  0  0  0
  3 26  1  0  0  0  0
  4 11  1  0  0  0  0
  4  3  1  0  0  0  0
  5 14  1  0  0  0  0
  5  4  1  0  0  0  0
  5  6  1  0  0  0  0
  6  1  1  0  0  0  0
  6 15  1  0  0  0  0
  8  2  1  0  0  0  0
 12  4  1  0  0  0  0
 13  5  1  0  0  0  0
 16  6  1  0  0  0  0
 17 22  2  0  0  0  0
 17 18  1  0  0  0  0
 18 19  2  0  0  0  0
 19 20  1  0  0  0  0
 19 24  1  0  0  0  0
 21 25  1  0  0  0  0
 21 20  2  0  0  0  0
 22 21  1  0  0  0  0
 23 18  1  0  0  0  0
 26 27  1  0  0  0  0
 27 28  2  0  0  0  0
 28 38  1  0  0  0  0
 28 29  1  0  0  0  0
 29 30  1  0  0  0  0
 30 31  2  0  0  0  0
 32 30  1  0  0  0  0
 33 32  1  0  0  0  0
 34 35  1  6  0  0  0
 34 29  1  0  0  0  0
 34 32  1  0  0  0  0
 36 37  1  0  0  0  0
 36 35  1  0  0  0  0
 36 27  1  0  0  0  0
 38 39  2  0  0  0  0
 38 40  1  0  0  0  0
 40 41  1  0  0  0  0
M  END
>  <minimizedAffinity>
-5.58655691

$$$$

 OpenBabel03262523373D

 41 44  0  0  1  0  0  0  0  0999 V2000
   40.1670   26.7480   34.6340 C   0  0  2  0  0  0  0  0  0  0  0  0
   40.2990   25.2650   34.8080 C   0  0  0  0  0  0  0  0  0  0  0  0
   38.9850   24.5650   35.0860 C   0  0  1  0  0  0  0  0  0  0  0  0
   38.2560   25.1540   36.2360 C   0  0  0  0  0  0  0  0  0  0  0  0
   38.2350   26.6550   36.2450 C   0  0  0  0  0  0  0  0  0  0  0  0
   38.8340   27.2770   35.0170 C   0  0  0  0  0  0  0  0  0  0  0  0
   40.9840   27.2840   35.2040 H   0  0  0  0  0  0  0  0  0  0  0  0
   40.9540   25.0920   35.7040 H   0  0  0  0  0  0  0  0  0  0  0  0
   40.7390   24.7820   33.9390 H   0  0  0  0  0  0  0  0  0  0  0  0
   39.3450   23.5470   35.4820 H   0  0  0  0  0  0  0  0  0  0  0  0
   37.2290   24.7670   36.2820 H   0  0  0  0  0  0  0  0  0  0  0  0
   38.7210   24.8000   37.2170 H   0  0  0  0  0  0  0  0  0  0  0  0
   38.8440   27.0030   37.1070 H   0  0  0  0  0  0  0  0  0  0  0  0
   37.2160   27.0690   36.3910 H   0  0  0  0  0  0  0  0  0  0  0  0
   38.1190   27.4160   34.1770 H   0  0  0  0  0  0  0  0  0  0  0  0
   39.0300   28.3610   35.3290 H   0  0  0  0  0  0  0  0  0  0  0  0
   40.4260   27.1200   33.2140 C   0  0  0  0  0  0  0  0  0  0  0  0
   41.7440   27.4870   32.8910 C   0  0  0  0  0  0  0  0  0  0  0  0
   41.9900   27.8510   31.5620 C   0  0  0  0  0  0  0  0  0  0  0  0
   40.9560   27.8320   30.6590 N   0  0  0  0  0  0  0  0  0  0  0  0
   39.6940   27.4700   31.0150 C   0  0  0  0  0  0  0  0  0  0  0  0
   39.4480   27.1190   32.2890 N   0  0  0  0  0  0  0  0  0  0  0  0
   42.5810   27.5220   33.5450 H   0  0  0  0  0  0  0  0  0  0  0  0
   42.9690   28.1400   31.2480 H   0  0  0  0  0  0  0  0  0  0  0  0
   38.9490   27.4880   30.2310 H   0  0  0  0  0  0  0  0  0  0  0  0
   38.2300   24.2200   33.8620 C   0  0  0  0  0  2  0  0  0  0  0  0
   37.6710   22.8620   33.7720 C   0  0  0  0  0  0  0  0  0  0  0  0
   37.0270   22.6400   32.6220 C   0  0  0  0  0  0  0  0  0  0  0  0
   36.3990   21.4090   32.3360 N   0  0  0  0  0  0  0  0  0  0  0  0
   36.1940   20.2880   31.4720 C   0  0  0  0  0  0  0  0  0  0  0  0
   36.3040   20.1620   30.2050 O   0  0  0  0  0  0  0  0  0  0  0  0
   35.8290   19.4160   32.6380 C   0  0  0  0  0  3  0  0  0  0  0  0
   36.6680   18.9240   33.1450 H   0  0  0  0  0  0  0  0  0  0  0  0
   35.4270   20.7580   33.2290 C   0  0  1  0  0  3  0  0  0  0  0  0
   35.9810   21.0570   34.9200 S   0  0  0  0  0  0  0  0  0  0  0  0
   37.6860   21.7360   34.7360 C   0  0  0  0  0  3  0  0  0  0  0  0
   38.2920   20.8830   34.4290 H   0  0  0  0  0  0  0  0  0  0  0  0
   36.9310   23.7000   31.5880 C   0  0  0  0  0  0  0  0  0  0  0  0
   35.9080   24.3990   31.2810 O   0  0  0  0  0  0  0  0  0  0  0  0
   37.2680   24.5730   30.5750 O   0  0  0  0  0  0  0  0  0  0  0  0
   37.7510   24.2230   29.7310 H   0  0  0  0  0  0  0  0  0  0  0  0
  1  2  1  0  0  0  0
  1  6  1  0  0  0  0
  1  7  1  1  0  0  0
  2  3  1  0  0  0  0
  2  8  1  0  0  0  0
  3 10  1  1  0  0  0
  3  4  1  0  0  0  0
  4  5  1  0  0  0  0
  4 11  1  0  0  0  0
  4 12  1  0  0  0  0
  5 14  1  0  0  0  0
  5 13  1  0  0  0  0
  6 16  1  0  0  0  0
  6  5  1  0  0  0  0
  9  2  1  0  0  0  0
 15  6  1  0  0  0  0
 17  1  1  0  0  0  0
 18 17  1  0  0  0  0
 18 23  1  0  0  0  0
 19 18  2  0  0  0  0
 20 21  2  0  0  0  0
 20 19  1  0  0  0  0
 21 22  1  0  0  0  0
 22 17  2  0  0  0  0
 24 19  1  0  0  0  0
 25 21  1  0  0  0  0
 26  3  1  0  0  0  0
 27 26  1  0  0  0  0
 27 36  1  0  0  0  0
 28 27  2  0  0  0  0
 29 28  1  0  0  0  0
 29 34  1  0  0  0  0
 30 29  1  0  0  0  0
 30 32  1  0  0  0  0
 31 30  2  0  0  0  0
 32 33  1  0  0  0  0
 34 32  1  6  0  0  0
 34 35  1  0  0  0  0
 36 35  1  0  0  0  0
 37 36  1  0  0  0  0
 38 28  1  0  0  0  0
 39 38  2  0  0  0  0
 40 38  1  0  0  0  0
 41 40  1  0  0  0  0
M  END
>  <minimizedAffinity>
-5.5493021

$$$$

 OpenBabel03262523373D

 41 44  0  0  1  0  0  0  0  0999 V2000
   40.2020   22.1800   37.2520 C   0  0  2  0  0  0  0  0  0  0  0  0
   39.2430   22.1260   36.1020 C   0  0  0  0  0  0  0  0  0  0  0  0
   38.3700   23.3580   35.9760 C   0  0  1  0  0  0  0  0  0  0  0  0
   37.6490   23.6780   37.2330 C   0  0  0  0  0  0  0  0  0  0  0  0
   38.4940   23.5740   38.4690 C   0  0  0  0  0  0  0  0  0  0  0  0
   39.9440   23.3010   38.1910 C   0  0  0  0  0  0  0  0  0  0  0  0
   40.2080   21.1940   37.8060 H   0  0  0  0  0  0  0  0  0  0  0  0
   38.5530   21.2590   36.2850 H   0  0  0  0  0  0  0  0  0  0  0  0
   39.7450   21.9930   35.1460 H   0  0  0  0  0  0  0  0  0  0  0  0
   37.5430   22.9840   35.2720 H   0  0  0  0  0  0  0  0  0  0  0  0
   37.1960   24.6770   37.1740 H   0  0  0  0  0  0  0  0  0  0  0  0
   36.7520   22.9830   37.3560 H   0  0  0  0  0  0  0  0  0  0  0  0
   38.1200   22.7170   39.0710 H   0  0  0  0  0  0  0  0  0  0  0  0
   38.4200   24.4710   39.1160 H   0  0  0  0  0  0  0  0  0  0  0  0
   40.5590   24.2130   38.0220 H   0  0  0  0  0  0  0  0  0  0  0  0
   40.3500   22.9370   39.1970 H   0  0  0  0  0  0  0  0  0  0  0  0
   41.5980   22.3090   36.7450 C   0  0  0  0  0  0  0  0  0  0  0  0
   42.3120   21.1110   36.5620 C   0  0  0  0  0  0  0  0  0  0  0  0
   43.6290   21.2260   36.0990 C   0  0  0  0  0  0  0  0  0  0  0  0
   44.1470   22.4730   35.8530 N   0  0  0  0  0  0  0  0  0  0  0  0
   43.4190   23.6070   36.0450 C   0  0  0  0  0  0  0  0  0  0  0  0
   42.1550   23.5070   36.4880 N   0  0  0  0  0  0  0  0  0  0  0  0
   41.9650   20.1220   36.7370 H   0  0  0  0  0  0  0  0  0  0  0  0
   44.2280   20.3570   35.9380 H   0  0  0  0  0  0  0  0  0  0  0  0
   43.9170   24.5420   35.8230 H   0  0  0  0  0  0  0  0  0  0  0  0
   39.0080   24.4560   35.2180 C   0  0  0  0  0  2  0  0  0  0  0  0
   38.4380   24.7930   33.9040 C   0  0  0  0  0  0  0  0  0  0  0  0
   37.9110   26.0200   33.8650 C   0  0  0  0  0  0  0  0  0  0  0  0
   37.2940   26.5380   32.7060 N   0  0  0  0  0  0  0  0  0  0  0  0
   37.1600   27.5680   31.7220 C   0  0  0  0  0  0  0  0  0  0  0  0
   37.3960   28.8240   31.7710 O   0  0  0  0  0  0  0  0  0  0  0  0
   36.6630   26.5790   30.7090 C   0  0  0  0  0  3  0  0  0  0  0  0
   37.4370   26.0660   30.1260 H   0  0  0  0  0  0  0  0  0  0  0  0
   36.2260   25.8470   31.9680 C   0  0  1  0  0  3  0  0  0  0  0  0
   36.6090   24.0830   32.0110 S   0  0  0  0  0  0  0  0  0  0  0  0
   38.3350   24.0000   32.6550 C   0  0  0  0  0  3  0  0  0  0  0  0
   38.9550   24.3640   31.8350 H   0  0  0  0  0  0  0  0  0  0  0  0
   37.9400   26.8980   35.0610 C   0  0  0  0  0  0  0  0  0  0  0  0
   37.2730   27.9700   35.2570 O   0  0  0  0  0  0  0  0  0  0  0  0
   38.2590   27.4070   36.3010 O   0  0  0  0  0  0  0  0  0  0  0  0
   39.2500   27.5260   36.5720 H   0  0  0  0  0  0  0  0  0  0  0  0
  1  7  1  1  0  0  0
  1  6  1  0  0  0  0
  2  8  1  0  0  0  0
  2  1  1  0  0  0  0
  3 10  1  6  0  0  0
  3  2  1  0  0  0  0
  3  4  1  0  0  0  0
  4 12  1  0  0  0  0
  4  5  1  0  0  0  0
  5 13  1  0  0  0  0
  5 14  1  0  0  0  0
  6  5  1  0  0  0  0
  6 16  1  0  0  0  0
  9  2  1  0  0  0  0
 11  4  1  0  0  0  0
 15  6  1  0  0  0  0
 17  1  1  0  0  0  0
 18 23  1  0  0  0  0
 18 17  1  0  0  0  0
 19 18  2  0  0  0  0
 20 21  2  0  0  0  0
 20 19  1  0  0  0  0
 21 22  1  0  0  0  0
 22 17  2  0  0  0  0
 24 19  1  0  0  0  0
 25 21  1  0  0  0  0
 26  3  1  0  0  0  0
 27 26  1  0  0  0  0
 28 27  2  0  0  0  0
 28 38  1  0  0  0  0
 29 28  1  0  0  0  0
 30 31  2  0  0  0  0
 30 29  1  0  0  0  0
 32 30  1  0  0  0  0
 33 32  1  0  0  0  0
 34 32  1  6  0  0  0
 34 35  1  0  0  0  0
 34 29  1  0  0  0  0
 35 36  1  0  0  0  0
 36 27  1  0  0  0  0
 37 36  1  0  0  0  0
 38 39  2  0  0  0  0
 38 40  1  0  0  0  0
 40 41  1  0  0  0  0
M  END
>  <minimizedAffinity>
-5.5281167

$$$$

 OpenBabel03262523373D

 41 44  0  0  1  0  0  0  0  0999 V2000
   36.3000   22.7710   30.9780 C   0  0  2  0  0  0  0  0  0  0  0  0
   37.7590   23.1070   31.0430 C   0  0  0  0  0  0  0  0  0  0  0  0
   38.0680   24.3240   31.8920 C   0  0  1  0  0  0  0  0  0  0  0  0
   37.2830   25.5160   31.4880 C   0  0  0  0  0  0  0  0  0  0  0  0
   35.8340   25.2340   31.2150 C   0  0  0  0  0  0  0  0  0  0  0  0
   35.4190   23.8270   31.5370 C   0  0  0  0  0  0  0  0  0  0  0  0
   36.0000   22.5290   29.9150 H   0  0  0  0  0  0  0  0  0  0  0  0
   38.0920   23.3500   29.9980 H   0  0  0  0  0  0  0  0  0  0  0  0
   38.3590   22.2880   31.4320 H   0  0  0  0  0  0  0  0  0  0  0  0
   39.1390   24.5730   31.5570 H   0  0  0  0  0  0  0  0  0  0  0  0
   37.3730   26.3110   32.2400 H   0  0  0  0  0  0  0  0  0  0  0  0
   37.7360   25.9830   30.5490 H   0  0  0  0  0  0  0  0  0  0  0  0
   35.6530   25.3770   30.1280 H   0  0  0  0  0  0  0  0  0  0  0  0
   35.1540   25.9330   31.7430 H   0  0  0  0  0  0  0  0  0  0  0  0
   35.1030   23.6720   32.5930 H   0  0  0  0  0  0  0  0  0  0  0  0
   34.4260   23.7030   30.9820 H   0  0  0  0  0  0  0  0  0  0  0  0
   36.0360   21.5040   31.7170 C   0  0  0  0  0  0  0  0  0  0  0  0
   36.0490   20.3200   30.9580 C   0  0  0  0  0  0  0  0  0  0  0  0
   35.7870   19.1280   31.6440 C   0  0  0  0  0  0  0  0  0  0  0  0
   35.5360   19.1720   32.9930 N   0  0  0  0  0  0  0  0  0  0  0  0
   35.5330   20.3410   33.6890 C   0  0  0  0  0  0  0  0  0  0  0  0
   35.7830   21.4900   33.0390 N   0  0  0  0  0  0  0  0  0  0  0  0
   36.2340   20.2260   29.9160 H   0  0  0  0  0  0  0  0  0  0  0  0
   35.7820   18.1930   31.1290 H   0  0  0  0  0  0  0  0  0  0  0  0
   35.3240   20.2710   34.7480 H   0  0  0  0  0  0  0  0  0  0  0  0
   38.2110   24.0160   33.3310 C   0  0  0  0  0  2  0  0  0  0  0  0
   39.5450   23.6200   33.8100 C   0  0  0  0  0  0  0  0  0  0  0  0
   39.6070   23.5000   35.1390 C   0  0  0  0  0  0  0  0  0  0  0  0
   40.7980   23.1460   35.8080 N   0  0  0  0  0  0  0  0  0  0  0  0
   41.5050   22.3160   36.7330 C   0  0  0  0  0  0  0  0  0  0  0  0
   41.1110   21.6570   37.7560 O   0  0  0  0  0  0  0  0  0  0  0  0
   42.7970   22.5570   36.0100 C   0  0  0  0  0  3  0  0  0  0  0  0
   43.0090   21.8780   35.1750 H   0  0  0  0  0  0  0  0  0  0  0  0
   42.0810   23.8400   35.6200 C   0  0  1  0  0  3  0  0  0  0  0  0
   42.1870   24.2870   33.8740 S   0  0  0  0  0  0  0  0  0  0  0  0
   40.8070   23.3630   33.0740 C   0  0  0  0  0  3  0  0  0  0  0  0
   41.1310   22.3220   33.0780 H   0  0  0  0  0  0  0  0  0  0  0  0
   38.4100   23.7500   35.9800 C   0  0  0  0  0  0  0  0  0  0  0  0
   37.6810   22.8860   36.5750 O   0  0  0  0  0  0  0  0  0  0  0  0
   37.4000   24.4000   36.6570 O   0  0  0  0  0  0  0  0  0  0  0  0
   36.8230   25.1070   36.1700 H   0  0  0  0  0  0  0  0  0  0  0  0
  1  7  1  6  0  0  0
  1  2  1  0  0  0  0
  1  6  1  0  0  0  0
  1 17  1  0  0  0  0
  2  9  1  0  0  0  0
  2  3  1  0  0  0  0
  3 10  1  6  0  0  0
  3 26  1  0  0  0  0
  4  3  1  0  0  0  0
  4 11  1  0  0  0  0
  5  4  1  0  0  0  0
  5  6  1  0  0  0  0
  5 14  1  0  0  0  0
  6 15  1  0  0  0  0
  8  2  1  0  0  0  0
 12  4  1  0  0  0  0
 13  5  1  0  0  0  0
 16  6  1  0  0  0  0
 17 22  1  0  0  0  0
 18 19  1  0  0  0  0
 18 17  2  0  0  0  0
 19 20  2  0  0  0  0
 20 21  1  0  0  0  0
 21 25  1  0  0  0  0
 22 21  2  0  0  0  0
 23 18  1  0  0  0  0
 24 19  1  0  0  0  0
 26 27  1  0  0  0  0
 27 28  2  0  0  0  0
 28 29  1  0  0  0  0
 28 38  1  0  0  0  0
 29 30  1  0  0  0  0
 30 31  2  0  0  0  0
 32 30  1  0  0  0  0
 33 32  1  0  0  0  0
 34 35  1  6  0  0  0
 34 29  1  0  0  0  0
 34 32  1  0  0  0  0
 36 37  1  0  0  0  0
 36 27  1  0  0  0  0
 36 35  1  0  0  0  0
 38 39  2  0  0  0  0
 38 40  1  0  0  0  0
 41 40  1  0  0  0  0
M  END
>  <minimizedAffinity>
-5.47080326

$$$$

 OpenBabel03262523373D

 41 44  0  0  1  0  0  0  0  0999 V2000
   39.0050   24.5550   35.9780 C   0  0  2  0  0  0  0  0  0  0  0  0
   38.1370   25.6550   36.5080 C   0  0  0  0  0  0  0  0  0  0  0  0
   38.0500   26.8590   35.5910 C   0  0  1  0  0  0  0  0  0  0  0  0
   39.3840   27.3900   35.2180 C   0  0  0  0  0  0  0  0  0  0  0  0
   40.3850   26.3340   34.8500 C   0  0  0  0  0  0  0  0  0  0  0  0
   39.8100   24.9480   34.7940 C   0  0  0  0  0  0  0  0  0  0  0  0
   39.6760   24.1540   36.7960 H   0  0  0  0  0  0  0  0  0  0  0  0
   38.6010   26.0120   37.4670 H   0  0  0  0  0  0  0  0  0  0  0  0
   37.1190   25.3270   36.6990 H   0  0  0  0  0  0  0  0  0  0  0  0
   37.6250   27.6580   36.3000 H   0  0  0  0  0  0  0  0  0  0  0  0
   39.2950   28.1190   34.4020 H   0  0  0  0  0  0  0  0  0  0  0  0
   39.8160   28.0030   36.0800 H   0  0  0  0  0  0  0  0  0  0  0  0
   41.1740   26.3180   35.6330 H   0  0  0  0  0  0  0  0  0  0  0  0
   40.8970   26.5440   33.8900 H   0  0  0  0  0  0  0  0  0  0  0  0
   39.3720   24.6720   33.8090 H   0  0  0  0  0  0  0  0  0  0  0  0
   40.7310   24.2690   34.8300 H   0  0  0  0  0  0  0  0  0  0  0  0
   38.1670   23.3810   35.6020 C   0  0  0  0  0  0  0  0  0  0  0  0
   38.1810   23.0070   34.2470 C   0  0  0  0  0  0  0  0  0  0  0  0
   37.3840   21.9140   33.8850 C   0  0  0  0  0  0  0  0  0  0  0  0
   36.6460   21.2740   34.8500 N   0  0  0  0  0  0  0  0  0  0  0  0
   36.6620   21.6700   36.1520 C   0  0  0  0  0  0  0  0  0  0  0  0
   37.4230   22.7180   36.5080 N   0  0  0  0  0  0  0  0  0  0  0  0
   38.7280   23.4640   33.4590 H   0  0  0  0  0  0  0  0  0  0  0  0
   37.3480   21.5770   32.8730 H   0  0  0  0  0  0  0  0  0  0  0  0
   36.0460   21.1010   36.8350 H   0  0  0  0  0  0  0  0  0  0  0  0
   37.0140   26.7280   34.5440 C   0  0  0  0  0  2  0  0  0  0  0  0
   37.3000   27.3260   33.2310 C   0  0  0  0  0  0  0  0  0  0  0  0
   36.5910   28.4340   32.9980 C   0  0  0  0  0  0  0  0  0  0  0  0
   36.6980   29.1570   31.7910 N   0  0  0  0  0  0  0  0  0  0  0  0
   36.9110   30.3860   31.0910 C   0  0  0  0  0  0  0  0  0  0  0  0
   36.7060   31.6020   31.4300 O   0  0  0  0  0  0  0  0  0  0  0  0
   37.4380   29.6500   29.8950 C   0  0  0  0  0  3  0  0  0  0  0  0
   38.5110   29.4240   29.9090 H   0  0  0  0  0  0  0  0  0  0  0  0
   36.5500   28.5530   30.4580 C   0  0  1  0  0  3  0  0  0  0  0  0
   37.2990   26.9120   30.5360 S   0  0  0  0  0  0  0  0  0  0  0  0
   38.2080   26.8940   32.1410 C   0  0  0  0  0  3  0  0  0  0  0  0
   39.0670   27.5470   31.9800 H   0  0  0  0  0  0  0  0  0  0  0  0
   35.6370   28.9520   34.0100 C   0  0  0  0  0  0  0  0  0  0  0  0
   35.8230   29.9020   34.8420 O   0  0  0  0  0  0  0  0  0  0  0  0
   34.4990   29.1150   34.7720 O   0  0  0  0  0  0  0  0  0  0  0  0
   34.0610   28.2970   35.2280 H   0  0  0  0  0  0  0  0  0  0  0  0
  1  2  1  0  0  0  0
  1  7  1  1  0  0  0
  2  9  1  0  0  0  0
  2  8  1  0  0  0  0
  3 10  1  1  0  0  0
  3  2  1  0  0  0  0
  4  3  1  0  0  0  0
  4 12  1  0  0  0  0
  5  4  1  0  0  0  0
  5 13  1  0  0  0  0
  6 16  1  0  0  0  0
  6  5  1  0  0  0  0
  6  1  1  0  0  0  0
 11  4  1  0  0  0  0
 14  5  1  0  0  0  0
 15  6  1  0  0  0  0
 17  1  1  0  0  0  0
 17 22  1  0  0  0  0
 18 17  2  0  0  0  0
 19 18  1  0  0  0  0
 19 20  2  0  0  0  0
 20 21  1  0  0  0  0
 21 22  2  0  0  0  0
 21 25  1  0  0  0  0
 23 18  1  0  0  0  0
 24 19  1  0  0  0  0
 26  3  1  0  0  0  0
 27 26  1  0  0  0  0
 28 27  2  0  0  0  0
 28 38  1  0  0  0  0
 29 28  1  0  0  0  0
 30 31  2  0  0  0  0
 30 29  1  0  0  0  0
 32 33  1  0  0  0  0
 32 30  1  0  0  0  0
 34 32  1  6  0  0  0
 34 35  1  0  0  0  0
 34 29  1  0  0  0  0
 35 36  1  0  0  0  0
 36 27  1  0  0  0  0
 37 36  1  0  0  0  0
 38 40  1  0  0  0  0
 38 39  2  0  0  0  0
 40 41  1  0  0  0  0
M  END
>  <minimizedAffinity>
-5.28568935

$$$$
