
 OpenBabel03272507213D

 37 40  0  0  1  0  0  0  0  0999 V2000
   36.5510   22.1660   32.1680 C   0  0  0  0  0  0  0  0  0  0  0  0
   35.5260   22.9000   31.5850 C   0  0  0  0  0  0  0  0  0  0  0  0
   35.7930   24.2770   31.4670 C   0  0  0  0  0  0  0  0  0  0  0  0
   36.9770   24.8060   31.9030 N   0  0  0  0  0  0  0  0  0  0  0  0
   37.9470   24.0440   32.4660 C   0  0  0  0  0  0  0  0  0  0  0  0
   37.7190   22.6980   32.5970 N   0  0  0  0  0  0  0  0  0  0  0  0
   34.6110   22.4750   31.2510 H   0  0  0  0  0  0  0  0  0  0  0  0
   35.0590   24.9440   31.0260 H   0  0  0  0  0  0  0  0  0  0  0  0
   36.3130   20.6930   32.2870 C   0  0  1  0  0  0  0  0  0  0  0  0
   35.6150   20.1120   33.4330 C   0  0  2  0  0  0  0  0  0  0  0  0
   34.8220   20.3300   32.1810 C   0  0  0  0  0  0  0  0  0  0  0  0
   36.9840   20.0630   31.6340 H   0  0  0  0  0  0  0  0  0  0  0  0
   36.0140   19.0920   33.7080 H   0  0  0  0  0  0  0  0  0  0  0  0
   34.6060   19.4550   31.5360 H   0  0  0  0  0  0  0  0  0  0  0  0
   34.0740   21.1430   32.1660 H   0  0  0  0  0  0  0  0  0  0  0  0
   35.3980   20.9370   34.5270 O   0  0  0  0  0  0  0  0  0  0  0  0
   36.1090   21.0730   35.6730 C   0  0  0  0  0  0  0  0  0  0  0  0
   37.2880   21.4910   35.6810 O   0  0  0  0  0  0  0  0  0  0  0  0
   35.2950   20.6720   36.7360 N   0  0  0  0  0  0  0  0  0  0  0  0
   35.1190   19.9260   37.4520 H   0  0  0  0  0  0  0  0  0  0  0  0
   34.5050   21.3310   37.0000 H   0  0  0  0  0  0  0  0  0  0  0  0
   39.2150   24.6860   32.9190 C   0  0  0  0  0  2  0  0  0  0  0  0
   39.8360   23.9410   34.0360 C   0  0  0  0  0  0  0  0  0  0  0  0
   39.5090   24.0450   35.3080 C   0  0  0  0  0  0  0  0  0  0  0  0
   40.0690   23.3610   36.4150 N   0  0  0  0  0  0  0  0  0  0  0  0
   39.9980   22.9150   37.7610 C   0  0  0  0  0  0  0  0  0  0  0  0
   39.4000   23.3620   38.7570 O   0  0  0  0  0  0  0  0  0  0  0  0
   40.8910   21.7900   37.3970 C   0  0  0  0  0  3  0  0  0  0  0  0
   40.2730   20.9330   37.0030 H   0  0  0  0  0  0  0  0  0  0  0  0
   41.3650   22.7370   36.3170 C   0  0  1  0  0  3  0  0  0  0  0  0
   41.6170   21.9990   34.7080 S   0  0  0  0  0  0  0  0  0  0  0  0
   40.8820   23.0710   33.4500 C   0  0  0  0  0  3  0  0  0  0  0  0
   41.6460   23.6640   32.9080 H   0  0  0  0  0  0  0  0  0  0  0  0
   38.4410   24.9820   35.6250 C   0  0  0  0  0  0  0  0  0  0  0  0
   37.4650   24.6950   36.3760 O   0  0  0  0  0  0  0  0  0  0  0  0
   37.5530   26.0280   35.7780 O   0  0  0  0  0  0  0  0  0  0  0  0
   37.4850   26.7790   35.0940 H   0  0  0  0  0  0  0  0  0  0  0  0
  1  9  1  0  0  0  0
  1  6  1  0  0  0  0
  2  1  2  0  0  0  0
  3  2  1  0  0  0  0
  3  4  2  0  0  0  0
  4  5  1  0  0  0  0
  5  6  2  0  0  0  0
  5 22  1  0  0  0  0
  7  2  1  0  0  0  0
  8  3  1  0  0  0  0
  9 12  1  6  0  0  0
  9 10  1  0  0  0  0
 10 13  1  1  0  0  0
 10 16  1  0  0  0  0
 11  9  1  0  0  0  0
 11 10  1  0  0  0  0
 14 11  1  0  0  0  0
 15 11  1  0  0  0  0
 16 17  1  0  0  0  0
 17 18  2  0  0  0  0
 17 19  1  0  0  0  0
 19 21  1  0  0  0  0
 19 20  1  0  0  0  0
 22 23  1  0  0  0  0
 23 24  2  0  0  0  0
 24 34  1  0  0  0  0
 24 25  1  0  0  0  0
 25 26  1  0  0  0  0
 26 27  2  0  0  0  0
 28 26  1  0  0  0  0
 29 28  1  0  0  0  0
 30 31  1  6  0  0  0
 30 25  1  0  0  0  0
 30 28  1  0  0  0  0
 32 23  1  0  0  0  0
 32 31  1  0  0  0  0
 33 32  1  0  0  0  0
 34 36  1  0  0  0  0
 34 35  2  0  0  0  0
 37 36  1  0  0  0  0
M  END
>  <minimizedAffinity>
-5.75680637

$$$$

 OpenBabel03272507213D

 37 40  0  0  1  0  0  0  0  0999 V2000
   41.1460   23.4400   35.4100 C   0  0  0  0  0  0  0  0  0  0  0  0
   40.9010   22.4650   34.4520 C   0  0  0  0  0  0  0  0  0  0  0  0
   40.6370   22.9700   33.1650 C   0  0  0  0  0  0  0  0  0  0  0  0
   40.6310   24.3160   32.9220 N   0  0  0  0  0  0  0  0  0  0  0  0
   40.8770   25.2280   33.8950 C   0  0  0  0  0  0  0  0  0  0  0  0
   41.1380   24.7700   35.1610 N   0  0  0  0  0  0  0  0  0  0  0  0
   40.9100   21.4220   34.6550 H   0  0  0  0  0  0  0  0  0  0  0  0
   40.4320   22.2940   32.3400 H   0  0  0  0  0  0  0  0  0  0  0  0
   41.4570   22.9400   36.7860 C   0  0  1  0  0  0  0  0  0  0  0  0
   40.4080   22.6950   37.7750 C   0  0  2  0  0  0  0  0  0  0  0  0
   40.9340   21.5120   37.0230 C   0  0  0  0  0  0  0  0  0  0  0  0
   42.5300   23.0910   37.1000 H   0  0  0  0  0  0  0  0  0  0  0  0
   40.7490   22.9230   38.8280 H   0  0  0  0  0  0  0  0  0  0  0  0
   41.6510   20.8390   37.5340 H   0  0  0  0  0  0  0  0  0  0  0  0
   40.2890   21.0460   36.2560 H   0  0  0  0  0  0  0  0  0  0  0  0
   39.1400   23.1760   37.4860 O   0  0  0  0  0  0  0  0  0  0  0  0
   38.1670   23.6290   38.3130 C   0  0  0  0  0  0  0  0  0  0  0  0
   38.1250   24.8160   38.7070 O   0  0  0  0  0  0  0  0  0  0  0  0
   37.3100   22.5630   38.5980 N   0  0  0  0  0  0  0  0  0  0  0  0
   37.0020   21.8770   39.3290 H   0  0  0  0  0  0  0  0  0  0  0  0
   36.6700   22.2500   37.8110 H   0  0  0  0  0  0  0  0  0  0  0  0
   40.8560   26.6820   33.5610 C   0  0  0  0  0  2  0  0  0  0  0  0
   39.5660   27.0850   32.9610 C   0  0  0  0  0  0  0  0  0  0  0  0
   38.4840   27.4390   33.6260 C   0  0  0  0  0  0  0  0  0  0  0  0
   37.2250   27.8310   33.1050 N   0  0  0  0  0  0  0  0  0  0  0  0
   35.9650   28.4660   33.2580 C   0  0  0  0  0  0  0  0  0  0  0  0
   35.2490   28.6690   34.2560 O   0  0  0  0  0  0  0  0  0  0  0  0
   35.9590   28.7230   31.7980 C   0  0  0  0  0  3  0  0  0  0  0  0
   36.5030   29.6880   31.5860 H   0  0  0  0  0  0  0  0  0  0  0  0
   36.8540   27.5050   31.7510 C   0  0  1  0  0  3  0  0  0  0  0  0
   38.2520   27.6240   30.6410 S   0  0  0  0  0  0  0  0  0  0  0  0
   39.7260   27.0120   31.4900 C   0  0  0  0  0  3  0  0  0  0  0  0
   40.0030   25.9890   31.1630 H   0  0  0  0  0  0  0  0  0  0  0  0
   38.5850   27.4250   35.0770 C   0  0  0  0  0  0  0  0  0  0  0  0
   37.9520   26.6120   35.8100 O   0  0  0  0  0  0  0  0  0  0  0  0
   38.8390   27.6010   36.4220 O   0  0  0  0  0  0  0  0  0  0  0  0
   39.1770   28.4880   36.7940 H   0  0  0  0  0  0  0  0  0  0  0  0
  1  9  1  0  0  0  0
  2  7  1  0  0  0  0
  2  1  2  0  0  0  0
  3  2  1  0  0  0  0
  4  3  2  0  0  0  0
  4  5  1  0  0  0  0
  5  6  2  0  0  0  0
  6  1  1  0  0  0  0
  8  3  1  0  0  0  0
  9 11  1  0  0  0  0
  9 12  1  1  0  0  0
  9 10  1  0  0  0  0
 10 13  1  1  0  0  0
 11 14  1  0  0  0  0
 11 10  1  0  0  0  0
 15 11  1  0  0  0  0
 16 10  1  0  0  0  0
 16 17  1  0  0  0  0
 17 19  1  0  0  0  0
 17 18  2  0  0  0  0
 19 20  1  0  0  0  0
 21 19  1  0  0  0  0
 22  5  1  0  0  0  0
 23 22  1  0  0  0  0
 23 24  2  0  0  0  0
 24 34  1  0  0  0  0
 25 26  1  0  0  0  0
 25 24  1  0  0  0  0
 26 27  2  0  0  0  0
 28 26  1  0  0  0  0
 29 28  1  0  0  0  0
 30 31  1  6  0  0  0
 30 28  1  0  0  0  0
 30 25  1  0  0  0  0
 31 32  1  0  0  0  0
 32 23  1  0  0  0  0
 33 32  1  0  0  0  0
 34 35  2  0  0  0  0
 34 36  1  0  0  0  0
 36 37  1  0  0  0  0
M  END
>  <minimizedAffinity>
-5.53668165

$$$$

 OpenBabel03272507213D

 37 40  0  0  1  0  0  0  0  0999 V2000
   37.0140   23.8250   31.9710 C   0  0  0  0  0  0  0  0  0  0  0  0
   36.4830   24.8510   31.2000 C   0  0  0  0  0  0  0  0  0  0  0  0
   36.5450   26.1210   31.8040 C   0  0  0  0  0  0  0  0  0  0  0  0
   37.0910   26.2860   33.0480 N   0  0  0  0  0  0  0  0  0  0  0  0
   37.5980   25.2490   33.7590 C   0  0  0  0  0  0  0  0  0  0  0  0
   37.5530   23.9970   33.2000 N   0  0  0  0  0  0  0  0  0  0  0  0
   36.0620   24.7080   30.2350 H   0  0  0  0  0  0  0  0  0  0  0  0
   36.1570   26.9940   31.2890 H   0  0  0  0  0  0  0  0  0  0  0  0
   36.9900   22.4630   31.3510 C   0  0  1  0  0  0  0  0  0  0  0  0
   36.4130   21.3090   32.0400 C   0  0  2  0  0  0  0  0  0  0  0  0
   35.5620   21.9960   31.0170 C   0  0  0  0  0  0  0  0  0  0  0  0
   37.7240   22.3280   30.5040 H   0  0  0  0  0  0  0  0  0  0  0  0
   36.9600   20.3490   31.8040 H   0  0  0  0  0  0  0  0  0  0  0  0
   35.4540   21.5250   30.0190 H   0  0  0  0  0  0  0  0  0  0  0  0
   34.7070   22.6040   31.3650 H   0  0  0  0  0  0  0  0  0  0  0  0
   36.1140   21.4610   33.3860 O   0  0  0  0  0  0  0  0  0  0  0  0
   35.7000   20.5470   34.2970 C   0  0  0  0  0  0  0  0  0  0  0  0
   35.6980   20.7840   35.5260 O   0  0  0  0  0  0  0  0  0  0  0  0
   35.3150   19.3940   33.6090 N   0  0  0  0  0  0  0  0  0  0  0  0
   35.5700   18.4010   33.3810 H   0  0  0  0  0  0  0  0  0  0  0  0
   34.4060   19.4500   33.0650 H   0  0  0  0  0  0  0  0  0  0  0  0
   38.1800   25.4990   35.1100 C   0  0  0  0  0  2  0  0  0  0  0  0
   39.5170   24.8840   35.2510 C   0  0  0  0  0  0  0  0  0  0  0  0
   39.8010   23.8150   35.9690 C   0  0  0  0  0  0  0  0  0  0  0  0
   41.0590   23.1860   36.1420 N   0  0  0  0  0  0  0  0  0  0  0  0
   41.8400   22.0590   36.5090 C   0  0  0  0  0  0  0  0  0  0  0  0
   41.6270   21.1170   37.2950 O   0  0  0  0  0  0  0  0  0  0  0  0
   42.8950   22.5360   35.5850 C   0  0  0  0  0  3  0  0  0  0  0  0
   42.6880   22.1470   34.5460 H   0  0  0  0  0  0  0  0  0  0  0  0
   42.2820   23.8930   35.8530 C   0  0  1  0  0  3  0  0  0  0  0  0
   42.1060   24.9500   34.4210 S   0  0  0  0  0  0  0  0  0  0  0  0
   40.4580   25.6930   34.4430 C   0  0  0  0  0  3  0  0  0  0  0  0
   40.4790   26.7490   34.7820 H   0  0  0  0  0  0  0  0  0  0  0  0
   38.6900   23.2010   36.6790 C   0  0  0  0  0  0  0  0  0  0  0  0
   38.5620   23.2380   37.9360 O   0  0  0  0  0  0  0  0  0  0  0  0
   37.5580   22.5480   37.1260 O   0  0  0  0  0  0  0  0  0  0  0  0
   37.1030   21.8220   36.5750 H   0  0  0  0  0  0  0  0  0  0  0  0
  1  6  1  0  0  0  0
  2  3  1  0  0  0  0
  2  1  2  0  0  0  0
  3  4  2  0  0  0  0
  4  5  1  0  0  0  0
  5 22  1  0  0  0  0
  6  5  2  0  0  0  0
  7  2  1  0  0  0  0
  8  3  1  0  0  0  0
  9 12  1  6  0  0  0
  9  1  1  0  0  0  0
  9 10  1  0  0  0  0
 10 13  1  6  0  0  0
 10 16  1  0  0  0  0
 11  9  1  0  0  0  0
 11 15  1  0  0  0  0
 11 10  1  0  0  0  0
 14 11  1  0  0  0  0
 16 17  1  0  0  0  0
 17 18  2  0  0  0  0
 19 17  1  0  0  0  0
 20 19  1  0  0  0  0
 21 19  1  0  0  0  0
 22 23  1  0  0  0  0
 23 24  2  0  0  0  0
 24 25  1  0  0  0  0
 24 34  1  0  0  0  0
 25 26  1  0  0  0  0
 26 27  2  0  0  0  0
 28 30  1  0  0  0  0
 28 26  1  0  0  0  0
 29 28  1  0  0  0  0
 30 31  1  6  0  0  0
 30 25  1  0  0  0  0
 31 32  1  0  0  0  0
 32 33  1  0  0  0  0
 32 23  1  0  0  0  0
 34 36  1  0  0  0  0
 34 35  2  0  0  0  0
 37 36  1  0  0  0  0
M  END
>  <minimizedAffinity>
-5.5023756

$$$$

 OpenBabel03272507213D

 37 40  0  0  1  0  0  0  0  0999 V2000
   37.1060   26.8980   33.6330 C   0  0  0  0  0  0  0  0  0  0  0  0
   37.1740   26.0910   32.5050 C   0  0  0  0  0  0  0  0  0  0  0  0
   36.5300   26.6240   31.3720 C   0  0  0  0  0  0  0  0  0  0  0  0
   35.9040   27.8390   31.4220 N   0  0  0  0  0  0  0  0  0  0  0  0
   35.8680   28.5890   32.5510 C   0  0  0  0  0  0  0  0  0  0  0  0
   36.4840   28.0990   33.6740 N   0  0  0  0  0  0  0  0  0  0  0  0
   37.6650   25.1490   32.4810 H   0  0  0  0  0  0  0  0  0  0  0  0
   36.5210   26.0750   30.4360 H   0  0  0  0  0  0  0  0  0  0  0  0
   37.8020   26.3770   34.8520 C   0  0  1  0  0  0  0  0  0  0  0  0
   39.2290   26.6000   35.0830 C   0  0  2  0  0  0  0  0  0  0  0  0
   38.2670   27.5050   35.7890 C   0  0  0  0  0  0  0  0  0  0  0  0
   37.2500   25.5450   35.3780 H   0  0  0  0  0  0  0  0  0  0  0  0
   39.7190   25.7330   35.6140 H   0  0  0  0  0  0  0  0  0  0  0  0
   38.0640   27.3240   36.8640 H   0  0  0  0  0  0  0  0  0  0  0  0
   38.1800   28.5530   35.4470 H   0  0  0  0  0  0  0  0  0  0  0  0
   39.9720   27.0940   34.0210 O   0  0  0  0  0  0  0  0  0  0  0  0
   41.3150   27.1820   33.8610 C   0  0  0  0  0  0  0  0  0  0  0  0
   41.8340   27.8300   32.9250 O   0  0  0  0  0  0  0  0  0  0  0  0
   41.9210   26.4500   34.8850 N   0  0  0  0  0  0  0  0  0  0  0  0
   42.4500   25.5750   35.1220 H   0  0  0  0  0  0  0  0  0  0  0  0
   41.8820   26.8760   35.8560 H   0  0  0  0  0  0  0  0  0  0  0  0
   35.1670   29.9060   32.5360 C   0  0  0  0  0  2  0  0  0  0  0  0
   34.0790   29.9570   33.5360 C   0  0  0  0  0  0  0  0  0  0  0  0
   34.1110   30.6160   34.6770 C   0  0  0  0  0  0  0  0  0  0  0  0
   33.1040   30.6970   35.6700 N   0  0  0  0  0  0  0  0  0  0  0  0
   32.5260   31.3350   36.7990 C   0  0  0  0  0  0  0  0  0  0  0  0
   33.0180   32.0330   37.7050 O   0  0  0  0  0  0  0  0  0  0  0  0
   31.2080   30.8020   36.3790 C   0  0  0  0  0  3  0  0  0  0  0  0
   30.7340   31.5130   35.6430 H   0  0  0  0  0  0  0  0  0  0  0  0
   32.0420   29.7230   35.7240 C   0  0  1  0  0  3  0  0  0  0  0  0
   31.5150   29.2360   34.0870 S   0  0  0  0  0  0  0  0  0  0  0  0
   32.9650   29.1330   33.0120 C   0  0  0  0  0  3  0  0  0  0  0  0
   33.2830   28.0850   32.8380 H   0  0  0  0  0  0  0  0  0  0  0  0
   35.3340   31.3510   34.9620 C   0  0  0  0  0  0  0  0  0  0  0  0
   36.2060   30.9570   35.7890 O   0  0  0  0  0  0  0  0  0  0  0  0
   36.4070   32.2140   35.0680 O   0  0  0  0  0  0  0  0  0  0  0  0
   36.3320   33.1980   34.8150 H   0  0  0  0  0  0  0  0  0  0  0  0
  1  6  1  0  0  0  0
  1  9  1  0  0  0  0
  2  1  2  0  0  0  0
  3  4  2  0  0  0  0
  3  2  1  0  0  0  0
  4  5  1  0  0  0  0
  5  6  2  0  0  0  0
  7  2  1  0  0  0  0
  8  3  1  0  0  0  0
  9 10  1  0  0  0  0
  9 12  1  1  0  0  0
  9 11  1  0  0  0  0
 10 13  1  1  0  0  0
 10 11  1  0  0  0  0
 11 14  1  0  0  0  0
 15 11  1  0  0  0  0
 16 10  1  0  0  0  0
 17 16  1  0  0  0  0
 17 19  1  0  0  0  0
 18 17  2  0  0  0  0
 19 20  1  0  0  0  0
 19 21  1  0  0  0  0
 22  5  1  0  0  0  0
 22 23  1  0  0  0  0
 23 24  2  0  0  0  0
 24 34  1  0  0  0  0
 24 25  1  0  0  0  0
 25 30  1  0  0  0  0
 25 26  1  0  0  0  0
 26 27  2  0  0  0  0
 28 26  1  0  0  0  0
 29 28  1  0  0  0  0
 30 31  1  6  0  0  0
 30 28  1  0  0  0  0
 32 23  1  0  0  0  0
 32 31  1  0  0  0  0
 33 32  1  0  0  0  0
 34 36  1  0  0  0  0
 34 35  2  0  0  0  0
 37 36  1  0  0  0  0
M  END
>  <minimizedAffinity>
-5.48720694

$$$$

 OpenBabel03272507213D

 37 40  0  0  1  0  0  0  0  0999 V2000
   38.0620   25.2200   35.9520 C   0  0  0  0  0  0  0  0  0  0  0  0
   38.3610   26.5070   36.3780 C   0  0  0  0  0  0  0  0  0  0  0  0
   38.9520   27.3210   35.3930 C   0  0  0  0  0  0  0  0  0  0  0  0
   39.1940   26.8430   34.1350 N   0  0  0  0  0  0  0  0  0  0  0  0
   38.8810   25.5750   33.7690 C   0  0  0  0  0  0  0  0  0  0  0  0
   38.3050   24.7550   34.7040 N   0  0  0  0  0  0  0  0  0  0  0  0
   38.1670   26.8640   37.3590 H   0  0  0  0  0  0  0  0  0  0  0  0
   39.2280   28.3460   35.6200 H   0  0  0  0  0  0  0  0  0  0  0  0
   37.4070   24.3320   36.9640 C   0  0  1  0  0  0  0  0  0  0  0  0
   38.0000   23.0610   37.3770 C   0  0  2  0  0  0  0  0  0  0  0  0
   38.2120   24.2430   38.2730 C   0  0  0  0  0  0  0  0  0  0  0  0
   36.3090   24.5390   37.1180 H   0  0  0  0  0  0  0  0  0  0  0  0
   37.2200   22.2780   37.6100 H   0  0  0  0  0  0  0  0  0  0  0  0
   37.6020   24.3210   39.1950 H   0  0  0  0  0  0  0  0  0  0  0  0
   39.2180   24.7000   38.3130 H   0  0  0  0  0  0  0  0  0  0  0  0
   39.0600   22.5820   36.6210 O   0  0  0  0  0  0  0  0  0  0  0  0
   40.3910   22.5990   36.8740 C   0  0  0  0  0  0  0  0  0  0  0  0
   41.1740   23.3720   36.2780 O   0  0  0  0  0  0  0  0  0  0  0  0
   40.6570   21.6430   37.8590 N   0  0  0  0  0  0  0  0  0  0  0  0
   41.0780   20.7020   38.0550 H   0  0  0  0  0  0  0  0  0  0  0  0
   40.3390   21.8800   38.8430 H   0  0  0  0  0  0  0  0  0  0  0  0
   39.1720   25.1190   32.3780 C   0  0  0  0  0  2  0  0  0  0  0  0
   39.0510   23.6510   32.2490 C   0  0  0  0  0  0  0  0  0  0  0  0
   38.0380   23.0060   31.7070 C   0  0  0  0  0  0  0  0  0  0  0  0
   37.8690   21.6070   31.5590 N   0  0  0  0  0  0  0  0  0  0  0  0
   37.2400   20.4940   30.9420 C   0  0  0  0  0  0  0  0  0  0  0  0
   36.1220   20.3550   30.4110 O   0  0  0  0  0  0  0  0  0  0  0  0
   38.4570   19.6960   31.2270 C   0  0  0  0  0  3  0  0  0  0  0  0
   39.2000   19.8350   30.3890 H   0  0  0  0  0  0  0  0  0  0  0  0
   38.6340   20.6840   32.3590 C   0  0  1  0  0  3  0  0  0  0  0  0
   40.3060   21.2650   32.6120 S   0  0  0  0  0  0  0  0  0  0  0  0
   40.2730   23.0590   32.8420 C   0  0  0  0  0  3  0  0  0  0  0  0
   40.3870   23.3460   33.9070 H   0  0  0  0  0  0  0  0  0  0  0  0
   36.9500   23.8270   31.1960 C   0  0  0  0  0  0  0  0  0  0  0  0
   35.7400   23.6580   31.5220 O   0  0  0  0  0  0  0  0  0  0  0  0
   36.0970   24.7230   30.5850 O   0  0  0  0  0  0  0  0  0  0  0  0
   36.3450   25.1950   29.7160 H   0  0  0  0  0  0  0  0  0  0  0  0
  1  2  1  0  0  0  0
  1  9  1  0  0  0  0
  2  7  1  0  0  0  0
  3  8  1  0  0  0  0
  3  2  2  0  0  0  0
  4  3  1  0  0  0  0
  5  4  2  0  0  0  0
  5  6  1  0  0  0  0
  6  1  2  0  0  0  0
  9 12  1  1  0  0  0
  9 10  1  0  0  0  0
  9 11  1  0  0  0  0
 10 13  1  1  0  0  0
 10 11  1  0  0  0  0
 11 15  1  0  0  0  0
 11 14  1  0  0  0  0
 16 17  1  0  0  0  0
 16 10  1  0  0  0  0
 17 19  1  0  0  0  0
 18 17  2  0  0  0  0
 19 20  1  0  0  0  0
 19 21  1  0  0  0  0
 22  5  1  0  0  0  0
 23 22  1  0  0  0  0
 23 32  1  0  0  0  0
 24 23  2  0  0  0  0
 25 24  1  0  0  0  0
 25 30  1  0  0  0  0
 26 28  1  0  0  0  0
 26 25  1  0  0  0  0
 27 26  2  0  0  0  0
 29 28  1  0  0  0  0
 30 28  1  6  0  0  0
 30 31  1  0  0  0  0
 31 32  1  0  0  0  0
 32 33  1  0  0  0  0
 34 35  2  0  0  0  0
 34 24  1  0  0  0  0
 36 34  1  0  0  0  0
 37 36  1  0  0  0  0
M  END
>  <minimizedAffinity>
-5.45187044

$$$$

 OpenBabel03272507213D

 37 40  0  0  1  0  0  0  0  0999 V2000
   37.7890   26.6380   33.9050 C   0  0  0  0  0  0  0  0  0  0  0  0
   38.0870   27.4270   35.0080 C   0  0  0  0  0  0  0  0  0  0  0  0
   38.3850   26.7010   36.1770 C   0  0  0  0  0  0  0  0  0  0  0  0
   38.3690   25.3330   36.1810 N   0  0  0  0  0  0  0  0  0  0  0  0
   38.0720   24.6090   35.0740 C   0  0  0  0  0  0  0  0  0  0  0  0
   37.7760   25.2860   33.9180 N   0  0  0  0  0  0  0  0  0  0  0  0
   38.0960   28.4900   34.9900 H   0  0  0  0  0  0  0  0  0  0  0  0
   38.6310   27.2190   37.0980 H   0  0  0  0  0  0  0  0  0  0  0  0
   37.4930   27.3750   32.6360 C   0  0  1  0  0  0  0  0  0  0  0  0
   36.4770   26.9120   31.6920 C   0  0  2  0  0  0  0  0  0  0  0  0
   36.0900   28.0060   32.6390 C   0  0  0  0  0  0  0  0  0  0  0  0
   38.3110   28.0830   32.3110 H   0  0  0  0  0  0  0  0  0  0  0  0
   36.7540   27.1330   30.6190 H   0  0  0  0  0  0  0  0  0  0  0  0
   36.0520   29.0460   32.2560 H   0  0  0  0  0  0  0  0  0  0  0  0
   35.3980   27.7660   33.4670 H   0  0  0  0  0  0  0  0  0  0  0  0
   35.9700   25.6360   31.8840 O   0  0  0  0  0  0  0  0  0  0  0  0
   35.3620   24.7970   31.0100 C   0  0  0  0  0  0  0  0  0  0  0  0
   35.4930   23.5550   31.0760 O   0  0  0  0  0  0  0  0  0  0  0  0
   34.6290   25.5710   30.1060 N   0  0  0  0  0  0  0  0  0  0  0  0
   34.5780   25.9270   29.1200 H   0  0  0  0  0  0  0  0  0  0  0  0
   33.7450   26.0240   30.4820 H   0  0  0  0  0  0  0  0  0  0  0  0
   38.0740   23.1190   35.1480 C   0  0  0  0  0  2  0  0  0  0  0  0
   39.3790   22.5540   34.7430 C   0  0  0  0  0  0  0  0  0  0  0  0
   40.3400   22.1710   35.5600 C   0  0  0  0  0  0  0  0  0  0  0  0
   41.6060   21.6280   35.2290 N   0  0  0  0  0  0  0  0  0  0  0  0
   42.7740   20.9040   35.5840 C   0  0  0  0  0  0  0  0  0  0  0  0
   43.3500   20.7320   36.6750 O   0  0  0  0  0  0  0  0  0  0  0  0
   42.9210   20.5160   34.1610 C   0  0  0  0  0  3  0  0  0  0  0  0
   42.3150   19.5850   33.9630 H   0  0  0  0  0  0  0  0  0  0  0  0
   42.1570   21.7960   33.9080 C   0  0  1  0  0  3  0  0  0  0  0  0
   40.8900   21.6960   32.6510 S   0  0  0  0  0  0  0  0  0  0  0  0
   39.3940   22.5070   33.2620 C   0  0  0  0  0  3  0  0  0  0  0  0
   39.2550   23.5150   32.8230 H   0  0  0  0  0  0  0  0  0  0  0  0
   40.0760   22.3270   36.9830 C   0  0  0  0  0  0  0  0  0  0  0  0
   40.8970   22.8530   37.7880 O   0  0  0  0  0  0  0  0  0  0  0  0
   39.6090   22.3640   38.2810 O   0  0  0  0  0  0  0  0  0  0  0  0
   38.8880   21.7250   38.6120 H   0  0  0  0  0  0  0  0  0  0  0  0
  1  6  2  0  0  0  0
  1  2  1  0  0  0  0
  2  3  2  0  0  0  0
  3  4  1  0  0  0  0
  3  8  1  0  0  0  0
  5 22  1  0  0  0  0
  5  4  2  0  0  0  0
  6  5  1  0  0  0  0
  7  2  1  0  0  0  0
  9 12  1  6  0  0  0
  9 11  1  0  0  0  0
  9  1  1  0  0  0  0
 10 13  1  6  0  0  0
 10 16  1  0  0  0  0
 10  9  1  0  0  0  0
 10 11  1  0  0  0  0
 11 15  1  0  0  0  0
 14 11  1  0  0  0  0
 17 18  2  0  0  0  0
 17 16  1  0  0  0  0
 19 21  1  0  0  0  0
 19 17  1  0  0  0  0
 20 19  1  0  0  0  0
 23 22  1  0  0  0  0
 23 24  2  0  0  0  0
 24 34  1  0  0  0  0
 25 24  1  0  0  0  0
 25 26  1  0  0  0  0
 26 27  2  0  0  0  0
 28 26  1  0  0  0  0
 29 28  1  0  0  0  0
 30 31  1  6  0  0  0
 30 28  1  0  0  0  0
 30 25  1  0  0  0  0
 31 32  1  0  0  0  0
 32 23  1  0  0  0  0
 33 32  1  0  0  0  0
 34 35  2  0  0  0  0
 34 36  1  0  0  0  0
 36 37  1  0  0  0  0
M  END
>  <minimizedAffinity>
-5.37602425

$$$$

 OpenBabel03272507213D

 37 40  0  0  1  0  0  0  0  0999 V2000
   39.1310   25.9390   34.7020 C   0  0  0  0  0  0  0  0  0  0  0  0
   38.9460   26.8720   35.7140 C   0  0  0  0  0  0  0  0  0  0  0  0
   37.8840   27.7680   35.4880 C   0  0  0  0  0  0  0  0  0  0  0  0
   37.1240   27.6900   34.3540 N   0  0  0  0  0  0  0  0  0  0  0  0
   37.3460   26.7570   33.3960 C   0  0  0  0  0  0  0  0  0  0  0  0
   38.3740   25.8690   33.5830 N   0  0  0  0  0  0  0  0  0  0  0  0
   39.5450   26.9200   36.5900 H   0  0  0  0  0  0  0  0  0  0  0  0
   37.6520   28.5390   36.2150 H   0  0  0  0  0  0  0  0  0  0  0  0
   40.2360   24.9510   34.9190 C   0  0  1  0  0  0  0  0  0  0  0  0
   40.0780   23.7970   35.8020 C   0  0  2  0  0  0  0  0  0  0  0  0
   39.9070   23.5670   34.3320 C   0  0  0  0  0  0  0  0  0  0  0  0
   41.2590   25.3340   34.6370 H   0  0  0  0  0  0  0  0  0  0  0  0
   41.0390   23.5270   36.3320 H   0  0  0  0  0  0  0  0  0  0  0  0
   40.7390   23.0950   33.7720 H   0  0  0  0  0  0  0  0  0  0  0  0
   38.8890   23.3800   33.9430 H   0  0  0  0  0  0  0  0  0  0  0  0
   38.9640   23.7790   36.6280 O   0  0  0  0  0  0  0  0  0  0  0  0
   38.7800   23.1900   37.8350 C   0  0  0  0  0  0  0  0  0  0  0  0
   37.7350   23.3520   38.5040 O   0  0  0  0  0  0  0  0  0  0  0  0
   39.9210   22.4380   38.1270 N   0  0  0  0  0  0  0  0  0  0  0  0
   40.7840   22.3770   38.7210 H   0  0  0  0  0  0  0  0  0  0  0  0
   40.0520   21.5440   37.5700 H   0  0  0  0  0  0  0  0  0  0  0  0
   36.4780   26.7280   32.1830 C   0  0  0  0  0  2  0  0  0  0  0  0
   36.9620   27.6610   31.1420 C   0  0  0  0  0  0  0  0  0  0  0  0
   36.4840   28.8660   30.9050 C   0  0  0  0  0  0  0  0  0  0  0  0
   36.9060   29.7980   29.9240 N   0  0  0  0  0  0  0  0  0  0  0  0
   36.9630   31.1230   29.4180 C   0  0  0  0  0  0  0  0  0  0  0  0
   36.2000   32.0980   29.5470 O   0  0  0  0  0  0  0  0  0  0  0  0
   38.2370   30.7720   28.7480 C   0  0  0  0  0  3  0  0  0  0  0  0
   39.0930   30.9310   29.4650 H   0  0  0  0  0  0  0  0  0  0  0  0
   37.6740   29.3680   28.7830 C   0  0  1  0  0  3  0  0  0  0  0  0
   38.8410   28.0860   29.2230 S   0  0  0  0  0  0  0  0  0  0  0  0
   38.0690   26.9830   30.4290 C   0  0  0  0  0  3  0  0  0  0  0  0
   37.7330   26.0300   29.9710 H   0  0  0  0  0  0  0  0  0  0  0  0
   35.3830   29.3010   31.7510 C   0  0  0  0  0  0  0  0  0  0  0  0
   35.4870   30.2230   32.6100 O   0  0  0  0  0  0  0  0  0  0  0  0
   34.2070   29.5380   32.4340 O   0  0  0  0  0  0  0  0  0  0  0  0
   33.4780   28.8300   32.5110 H   0  0  0  0  0  0  0  0  0  0  0  0
  1  9  1  0  0  0  0
  1  2  1  0  0  0  0
  2  7  1  0  0  0  0
  3  2  2  0  0  0  0
  3  8  1  0  0  0  0
  4  3  1  0  0  0  0
  5  6  1  0  0  0  0
  5  4  2  0  0  0  0
  6  1  2  0  0  0  0
  9 12  1  6  0  0  0
  9 10  1  0  0  0  0
 10 13  1  1  0  0  0
 10 16  1  0  0  0  0
 11  9  1  0  0  0  0
 11 10  1  0  0  0  0
 14 11  1  0  0  0  0
 15 11  1  0  0  0  0
 16 17  1  0  0  0  0
 17 19  1  0  0  0  0
 17 18  2  0  0  0  0
 19 20  1  0  0  0  0
 21 19  1  0  0  0  0
 22  5  1  0  0  0  0
 23 22  1  0  0  0  0
 24 23  2  0  0  0  0
 24 34  1  0  0  0  0
 25 24  1  0  0  0  0
 26 27  2  0  0  0  0
 26 25  1  0  0  0  0
 28 26  1  0  0  0  0
 28 29  1  0  0  0  0
 30 28  1  1  0  0  0
 30 31  1  0  0  0  0
 30 25  1  0  0  0  0
 31 32  1  0  0  0  0
 32 23  1  0  0  0  0
 33 32  1  0  0  0  0
 34 36  1  0  0  0  0
 34 35  2  0  0  0  0
 36 37  1  0  0  0  0
M  END
>  <minimizedAffinity>
-5.3610301

$$$$

 OpenBabel03272507213D

 37 40  0  0  1  0  0  0  0  0999 V2000
   38.1760   25.0010   36.1800 C   0  0  0  0  0  0  0  0  0  0  0  0
   38.3980   26.3330   36.5050 C   0  0  0  0  0  0  0  0  0  0  0  0
   38.8860   27.1160   35.4420 C   0  0  0  0  0  0  0  0  0  0  0  0
   39.1080   26.5700   34.2080 N   0  0  0  0  0  0  0  0  0  0  0  0
   38.8730   25.2610   33.9420 C   0  0  0  0  0  0  0  0  0  0  0  0
   38.3980   24.4700   34.9560 N   0  0  0  0  0  0  0  0  0  0  0  0
   38.2200   26.7430   37.4690 H   0  0  0  0  0  0  0  0  0  0  0  0
   39.0950   28.1710   35.5870 H   0  0  0  0  0  0  0  0  0  0  0  0
   37.6310   24.1420   37.2790 C   0  0  1  0  0  0  0  0  0  0  0  0
   38.4970   23.3030   38.1050 C   0  0  2  0  0  0  0  0  0  0  0  0
   38.0740   24.6230   38.6720 C   0  0  0  0  0  0  0  0  0  0  0  0
   36.5250   23.9360   37.1980 H   0  0  0  0  0  0  0  0  0  0  0  0
   37.9940   22.3400   38.4150 H   0  0  0  0  0  0  0  0  0  0  0  0
   37.2680   24.6360   39.4320 H   0  0  0  0  0  0  0  0  0  0  0  0
   38.8260   25.4310   38.7440 H   0  0  0  0  0  0  0  0  0  0  0  0
   39.8070   23.1340   37.6800 O   0  0  0  0  0  0  0  0  0  0  0  0
   40.3840   22.1010   37.0190 C   0  0  0  0  0  0  0  0  0  0  0  0
   40.2690   21.9540   35.7820 O   0  0  0  0  0  0  0  0  0  0  0  0
   41.0680   21.3170   37.9520 N   0  0  0  0  0  0  0  0  0  0  0  0
   41.0710   20.4080   38.4760 H   0  0  0  0  0  0  0  0  0  0  0  0
   41.9630   21.7290   38.3480 H   0  0  0  0  0  0  0  0  0  0  0  0
   39.1370   24.7310   32.5720 C   0  0  0  0  0  2  0  0  0  0  0  0
   38.0930   23.7750   32.1460 C   0  0  0  0  0  0  0  0  0  0  0  0
   38.2290   22.4660   32.0760 C   0  0  0  0  0  0  0  0  0  0  0  0
   37.2670   21.5060   31.6740 N   0  0  0  0  0  0  0  0  0  0  0  0
   36.7940   20.1690   31.6340 C   0  0  0  0  0  0  0  0  0  0  0  0
   37.3830   19.0730   31.6920 O   0  0  0  0  0  0  0  0  0  0  0  0
   35.4160   20.6990   31.5050 C   0  0  0  0  0  3  0  0  0  0  0  0
   34.9930   20.8960   32.5330 H   0  0  0  0  0  0  0  0  0  0  0  0
   36.1140   21.8970   30.9010 C   0  0  1  0  0  3  0  0  0  0  0  0
   35.4870   23.4900   31.4190 S   0  0  0  0  0  0  0  0  0  0  0  0
   36.8850   24.5670   31.8170 C   0  0  0  0  0  3  0  0  0  0  0  0
   37.0890   25.3030   31.0130 H   0  0  0  0  0  0  0  0  0  0  0  0
   39.5280   21.9320   32.4530 C   0  0  0  0  0  0  0  0  0  0  0  0
   40.2640   21.2710   31.6650 O   0  0  0  0  0  0  0  0  0  0  0  0
   40.7140   21.5270   33.0330 O   0  0  0  0  0  0  0  0  0  0  0  0
   40.8150   21.4370   34.0430 H   0  0  0  0  0  0  0  0  0  0  0  0
  1  2  1  0  0  0  0
  1  9  1  0  0  0  0
  2  7  1  0  0  0  0
  3  8  1  0  0  0  0
  3  2  2  0  0  0  0
  4  3  1  0  0  0  0
  5  4  2  0  0  0  0
  5  6  1  0  0  0  0
  6  1  2  0  0  0  0
  9 12  1  6  0  0  0
  9 10  1  0  0  0  0
  9 11  1  0  0  0  0
 10 13  1  1  0  0  0
 10 11  1  0  0  0  0
 11 15  1  0  0  0  0
 11 14  1  0  0  0  0
 16 10  1  0  0  0  0
 17 16  1  0  0  0  0
 17 19  1  0  0  0  0
 18 17  2  0  0  0  0
 19 21  1  0  0  0  0
 19 20  1  0  0  0  0
 22  5  1  0  0  0  0
 23 22  1  0  0  0  0
 24 23  2  0  0  0  0
 24 34  1  0  0  0  0
 25 24  1  0  0  0  0
 26 25  1  0  0  0  0
 26 27  2  0  0  0  0
 28 26  1  0  0  0  0
 28 29  1  0  0  0  0
 30 31  1  1  0  0  0
 30 28  1  0  0  0  0
 30 25  1  0  0  0  0
 31 32  1  0  0  0  0
 32 23  1  0  0  0  0
 33 32  1  0  0  0  0
 34 36  1  0  0  0  0
 35 34  2  0  0  0  0
 36 37  1  0  0  0  0
M  END
>  <minimizedAffinity>
-5.33201742

$$$$

 OpenBabel03272507213D

 37 40  0  0  1  0  0  0  0  0999 V2000
   37.0070   23.2080   32.2490 C   0  0  0  0  0  0  0  0  0  0  0  0
   35.7540   23.0740   31.6660 C   0  0  0  0  0  0  0  0  0  0  0  0
   35.2510   24.2580   31.0960 C   0  0  0  0  0  0  0  0  0  0  0  0
   35.9700   25.4220   31.1350 N   0  0  0  0  0  0  0  0  0  0  0  0
   37.1920   25.4980   31.7160 C   0  0  0  0  0  0  0  0  0  0  0  0
   37.7120   24.3620   32.2830 N   0  0  0  0  0  0  0  0  0  0  0  0
   35.2070   22.1640   31.6440 H   0  0  0  0  0  0  0  0  0  0  0  0
   34.2780   24.2670   30.6150 H   0  0  0  0  0  0  0  0  0  0  0  0
   37.5870   21.9620   32.8430 C   0  0  1  0  0  0  0  0  0  0  0  0
   38.0050   21.8960   34.2430 C   0  0  2  0  0  0  0  0  0  0  0  0
   36.6620   21.3310   33.8980 C   0  0  0  0  0  0  0  0  0  0  0  0
   37.9800   21.2270   32.0830 H   0  0  0  0  0  0  0  0  0  0  0  0
   38.9040   21.2280   34.3920 H   0  0  0  0  0  0  0  0  0  0  0  0
   36.5570   20.2300   33.8190 H   0  0  0  0  0  0  0  0  0  0  0  0
   35.7600   21.8840   34.2170 H   0  0  0  0  0  0  0  0  0  0  0  0
   38.0810   23.0930   34.9390 O   0  0  0  0  0  0  0  0  0  0  0  0
   38.0670   23.3310   36.2730 C   0  0  0  0  0  0  0  0  0  0  0  0
   37.4940   24.3280   36.7670 O   0  0  0  0  0  0  0  0  0  0  0  0
   38.7740   22.3030   36.9030 N   0  0  0  0  0  0  0  0  0  0  0  0
   39.6600   22.0490   37.4030 H   0  0  0  0  0  0  0  0  0  0  0  0
   38.2970   21.3560   36.9390 H   0  0  0  0  0  0  0  0  0  0  0  0
   37.9220   26.7990   31.7220 C   0  0  0  0  0  2  0  0  0  0  0  0
   37.0660   27.9040   32.2060 C   0  0  0  0  0  0  0  0  0  0  0  0
   36.5290   28.8460   31.4580 C   0  0  0  0  0  0  0  0  0  0  0  0
   35.7070   29.9260   31.8660 N   0  0  0  0  0  0  0  0  0  0  0  0
   34.7670   30.9480   31.5700 C   0  0  0  0  0  0  0  0  0  0  0  0
   34.5340   31.5910   30.5300 O   0  0  0  0  0  0  0  0  0  0  0  0
   34.2790   30.8520   32.9670 C   0  0  0  0  0  3  0  0  0  0  0  0
   33.4930   30.0460   33.0340 H   0  0  0  0  0  0  0  0  0  0  0  0
   35.6800   30.3510   33.2430 C   0  0  1  0  0  3  0  0  0  0  0  0
   35.7890   28.9600   34.3620 S   0  0  0  0  0  0  0  0  0  0  0  0
   36.9370   27.7450   33.6730 C   0  0  0  0  0  3  0  0  0  0  0  0
   37.9260   27.7740   34.1730 H   0  0  0  0  0  0  0  0  0  0  0  0
   36.8150   28.7800   30.0330 C   0  0  0  0  0  0  0  0  0  0  0  0
   37.1690   29.7820   29.3470 O   0  0  0  0  0  0  0  0  0  0  0  0
   37.0290   28.4760   28.7030 O   0  0  0  0  0  0  0  0  0  0  0  0
   36.6000   27.6640   28.2620 H   0  0  0  0  0  0  0  0  0  0  0  0
  1  6  1  0  0  0  0
  1  9  1  0  0  0  0
  2  1  2  0  0  0  0
  3  4  2  0  0  0  0
  3  2  1  0  0  0  0
  4  5  1  0  0  0  0
  5 22  1  0  0  0  0
  5  6  2  0  0  0  0
  7  2  1  0  0  0  0
  8  3  1  0  0  0  0
  9 12  1  6  0  0  0
  9 11  1  0  0  0  0
  9 10  1  0  0  0  0
 10 13  1  1  0  0  0
 10 16  1  0  0  0  0
 11 15  1  0  0  0  0
 11 10  1  0  0  0  0
 14 11  1  0  0  0  0
 16 17  1  0  0  0  0
 17 18  2  0  0  0  0
 17 19  1  0  0  0  0
 19 21  1  0  0  0  0
 19 20  1  0  0  0  0
 22 23  1  0  0  0  0
 23 32  1  0  0  0  0
 24 25  1  0  0  0  0
 24 23  2  0  0  0  0
 25 30  1  0  0  0  0
 26 25  1  0  0  0  0
 26 28  1  0  0  0  0
 27 26  2  0  0  0  0
 28 29  1  0  0  0  0
 30 28  1  1  0  0  0
 30 31  1  0  0  0  0
 32 33  1  0  0  0  0
 32 31  1  0  0  0  0
 34 24  1  0  0  0  0
 35 34  2  0  0  0  0
 36 34  1  0  0  0  0
 37 36  1  0  0  0  0
M  END
>  <minimizedAffinity>
-5.32136154

$$$$
