
 OpenBabel03272507323D

 43 48  0  0  1  0  0  0  0  0999 V2000
   34.0190   29.0310   45.2730 C   0  0  1  0  0  0  0  0  0  0  0  0
   34.0850   27.5640   44.6890 C   0  0  0  0  0  0  0  0  0  0  0  0
   33.2250   28.6230   44.1110 C   0  0  2  0  0  0  0  0  0  0  0  0
   35.0580   29.4230   45.2800 H   0  0  0  0  0  0  0  0  0  0  0  0
   33.6070   26.7730   45.2560 H   0  0  0  0  0  0  0  0  0  0  0  0
   35.0010   27.2900   44.1530 H   0  0  0  0  0  0  0  0  0  0  0  0
   32.1240   28.5910   44.3240 H   0  0  0  0  0  0  0  0  0  0  0  0
   33.4000   28.9940   46.6410 C   0  0  0  0  0  0  0  0  0  0  0  0
   32.1360   28.9770   46.7980 O   0  0  0  0  0  0  0  0  0  0  0  0
   35.9500   29.3420   49.1260 C   0  0  0  0  0  0  0  0  0  0  0  0
   35.0370   28.6060   49.8620 C   0  0  0  0  0  0  0  0  0  0  0  0
   33.9300   28.3650   49.0320 C   0  0  0  0  0  0  0  0  0  0  0  0
   34.2430   28.9730   47.8360 C   0  0  0  0  0  0  0  0  0  0  0  0
   35.4310   29.5290   47.9410 O   0  0  0  0  0  0  0  0  0  0  0  0
   35.0280   28.2150   50.8850 H   0  0  0  0  0  0  0  0  0  0  0  0
   33.0260   27.8180   49.2800 H   0  0  0  0  0  0  0  0  0  0  0  0
   37.2190   29.7660   49.6830 C   0  0  0  0  0  0  0  0  0  0  0  0
   37.6880   29.1600   50.6580 O   0  0  0  0  0  0  0  0  0  0  0  0
   37.8660   30.8850   49.0550 C   0  0  0  0  0  0  0  0  0  0  0  0
   37.8980   32.0740   49.7640 C   0  0  0  0  0  0  0  0  0  0  0  0
   38.5170   33.1820   49.1780 C   0  0  0  0  0  0  0  0  0  0  0  0
   39.0640   33.0330   47.9240 N   0  0  0  0  0  0  0  0  0  0  0  0
   39.0130   31.8660   47.2710 C   0  0  0  0  0  0  0  0  0  0  0  0
   38.4230   30.8000   47.8230 N   0  0  0  0  0  0  0  0  0  0  0  0
   37.4680   32.1840   50.7450 H   0  0  0  0  0  0  0  0  0  0  0  0
   38.5560   34.1320   49.7140 H   0  0  0  0  0  0  0  0  0  0  0  0
   39.4540   31.7810   46.2820 H   0  0  0  0  0  0  0  0  0  0  0  0
   33.5640   29.0380   42.7110 C   0  0  0  0  0  2  0  0  0  0  0  0
   34.1230   30.3900   42.6080 C   0  0  0  0  0  0  0  0  0  0  0  0
   35.4020   30.7050   42.4940 C   0  0  0  0  0  0  0  0  0  0  0  0
   35.8190   32.0630   42.4140 N   0  0  0  0  0  0  0  0  0  0  0  0
   36.9010   32.9660   42.2420 C   0  0  1  0  0  0  0  0  0  0  0  0
   38.1360   33.0040   42.5280 O   0  0  0  0  0  1  0  0  0  0  0  0
   35.9780   33.9010   41.5610 C   0  0  0  0  0  3  0  0  0  0  0  0
   35.7860   33.7240   40.4960 H   0  0  0  0  0  0  0  0  0  0  0  0
   35.0100   33.2420   42.5190 C   0  0  1  0  0  0  0  0  0  0  0  0
   33.3740   32.9380   41.8600 S   0  0  0  0  0  0  0  0  0  0  0  0
   33.0160   31.3570   42.6640 C   0  0  0  0  0  3  0  0  0  0  0  0
   32.7630   31.5900   43.7330 H   0  0  0  0  0  0  0  0  0  0  0  0
   36.4700   29.6770   42.4540 C   0  0  0  0  0  0  0  0  0  0  0  0
   36.9560   29.0020   41.5460 O   0  0  0  0  0  0  0  0  0  0  0  0
   37.1580   29.2800   43.5710 O   0  0  0  0  0  0  0  0  0  0  0  0
   38.1440   29.1500   43.5800 H   0  0  0  0  0  0  0  0  0  0  0  0
  1  4  1  6  0  0  0
  1  8  1  0  0  0  0
  2  5  1  0  0  0  0
  2  1  1  0  0  0  0
  3  7  1  1  0  0  0
  3  2  1  0  0  0  0
  3  1  1  0  0  0  0
  6  2  1  0  0  0  0
  8  9  2  0  0  0  0
  8 13  1  0  0  0  0
 10 17  1  0  0  0  0
 10 11  2  0  0  0  0
 11 15  1  0  0  0  0
 12 16  1  0  0  0  0
 12 11  1  0  0  0  0
 13 14  1  0  0  0  0
 13 12  2  0  0  0  0
 14 10  1  0  0  0  0
 17 18  2  0  0  0  0
 19 17  1  0  0  0  0
 19 20  1  0  0  0  0
 20 25  1  0  0  0  0
 21 26  1  0  0  0  0
 21 20  2  0  0  0  0
 22 21  1  0  0  0  0
 23 24  1  0  0  0  0
 23 22  2  0  0  0  0
 24 19  2  0  0  0  0
 27 23  1  0  0  0  0
 28  3  1  0  0  0  0
 29 38  1  0  0  0  0
 29 28  1  0  0  0  0
 30 29  2  0  0  0  0
 31 30  1  0  0  0  0
 31 36  1  0  0  0  0
 32 31  1  0  0  0  0
 32 36  1  0  0  0  0
 32 33  1  1  0  0  0
 34 32  1  0  0  0  0
 35 34  1  0  0  0  0
 36 34  1  6  0  0  0
 37 36  1  0  0  0  0
 37 38  1  0  0  0  0
 38 39  1  0  0  0  0
 40 30  1  0  0  0  0
 40 42  1  0  0  0  0
 41 40  2  0  0  0  0
 42 43  1  0  0  0  0
M  END
>  <minimizedAffinity>
-5.49371576

>  <minimizedRMSD>
3.4303472

$$$$
