
 OpenBabel03262521143D

 38 41  0  0  1  0  0  0  0  0999 V2000
   36.8560   27.2370   32.3160 C   0  0  0  0  0  0  0  0  0  0  0  0
   37.5990   28.1110   31.5630 C   0  0  0  0  0  0  0  0  0  0  0  0
   36.9410   29.2670   31.4300 N   0  0  0  0  0  0  0  0  0  0  0  0
   35.7660   29.1580   32.0920 C   0  0  0  0  0  0  0  0  0  0  0  0
   35.7290   27.9200   32.6250 N   0  0  0  0  0  0  0  0  0  0  0  0
   38.5830   27.8550   31.1520 H   0  0  0  0  0  0  0  0  0  0  0  0
   37.3410   30.0780   30.8820 H   0  0  0  0  0  0  0  0  0  0  0  0
   37.1300   25.9290   32.7160 O   0  0  0  0  0  0  0  0  0  0  0  0
   37.6850   26.8260   35.0800 O   0  0  0  0  0  0  0  0  0  0  0  0
   38.0900   25.7370   34.1070 P   0  0  2  0  0  0  0  0  0  0  0  0
   39.7430   25.8460   33.7000 O   0  0  0  0  0  0  0  0  0  0  0  0
   40.2520   25.3700   34.3990 H   0  0  0  0  0  0  0  0  0  0  0  0
   37.8580   24.1710   34.7440 O   0  0  0  0  0  0  0  0  0  0  0  0
   38.5260   23.7310   35.8840 C   0  0  0  0  0  0  0  0  0  0  0  0
   38.0030   23.7360   37.1780 C   0  0  0  0  0  0  0  0  0  0  0  0
   38.8060   23.2600   38.2000 C   0  0  0  0  0  0  0  0  0  0  0  0
   40.0530   22.8090   37.9310 N   0  0  0  0  0  0  0  0  0  0  0  0
   40.5400   22.8180   36.6380 C   0  0  0  0  0  0  0  0  0  0  0  0
   39.7560   23.2830   35.6390 N   0  0  0  0  0  0  0  0  0  0  0  0
   36.9930   24.1180   37.2880 H   0  0  0  0  0  0  0  0  0  0  0  0
   38.3970   23.2670   39.1990 H   0  0  0  0  0  0  0  0  0  0  0  0
   41.5400   22.4530   36.4460 H   0  0  0  0  0  0  0  0  0  0  0  0
   34.7650   30.2450   32.1670 C   0  0  0  0  0  2  0  0  0  0  0  0
   34.4360   30.6180   33.5680 C   0  0  0  0  0  0  0  0  0  0  0  0
   33.3110   30.2830   34.1730 C   0  0  0  0  0  0  0  0  0  0  0  0
   32.9960   30.6380   35.5100 N   0  0  0  0  0  0  0  0  0  0  0  0
   32.4330   30.4630   36.8010 C   0  0  0  0  0  0  0  0  0  0  0  0
   31.6890   29.5150   37.2010 O   0  0  0  0  0  0  0  0  0  0  0  0
   33.0080   31.6820   37.3730 C   0  0  0  0  0  3  0  0  0  0  0  0
   32.3130   32.4320   37.7900 H   0  0  0  0  0  0  0  0  0  0  0  0
   33.4790   31.9440   35.9930 C   0  0  1  0  0  3  0  0  0  0  0  0
   35.3050   31.7410   35.9180 S   0  0  0  0  0  0  0  0  0  0  0  0
   35.5450   31.4040   34.1550 C   0  0  0  0  0  3  0  0  0  0  0  0
   35.4540   32.4230   33.6750 H   0  0  0  0  0  0  0  0  0  0  0  0
   32.3260   29.5030   33.4400 C   0  0  0  0  0  0  0  0  0  0  0  0
   31.1110   29.8130   33.3430 O   0  0  0  0  0  0  0  0  0  0  0  0
   31.6540   28.5650   32.6820 O   0  0  0  0  0  0  0  0  0  0  0  0
   32.0810   27.9320   32.0190 H   0  0  0  0  0  0  0  0  0  0  0  0
  1  5  1  0  0  0  0
  1  8  1  0  0  0  0
  2  1  2  0  0  0  0
  3  2  1  0  0  0  0
  3  4  1  0  0  0  0
  4 23  1  0  0  0  0
  4  5  2  0  0  0  0
  6  2  1  0  0  0  0
  7  3  1  0  0  0  0
  8 10  1  0  0  0  0
 10 13  1  0  0  0  0
 10  9  2  1  0  0  0
 11 10  1  0  0  0  0
 11 12  1  0  0  0  0
 13 14  1  0  0  0  0
 14 15  1  0  0  0  0
 15 20  1  0  0  0  0
 15 16  2  0  0  0  0
 16 21  1  0  0  0  0
 17 16  1  0  0  0  0
 18 17  2  0  0  0  0
 19 14  2  0  0  0  0
 19 18  1  0  0  0  0
 22 18  1  0  0  0  0
 23 24  1  0  0  0  0
 24 33  1  0  0  0  0
 24 25  2  0  0  0  0
 25 26  1  0  0  0  0
 26 31  1  0  0  0  0
 26 27  1  0  0  0  0
 27 28  2  0  0  0  0
 27 29  1  0  0  0  0
 29 30  1  0  0  0  0
 31 32  1  1  0  0  0
 31 29  1  0  0  0  0
 33 32  1  0  0  0  0
 34 33  1  0  0  0  0
 35 25  1  0  0  0  0
 36 35  2  0  0  0  0
 37 35  1  0  0  0  0
 38 37  1  0  0  0  0
M  END
>  <minimizedAffinity>
-5.64575768

$$$$

 OpenBabel03262521143D

 38 41  0  0  1  0  0  0  0  0999 V2000
   36.7260   27.6970   31.9160 C   0  0  0  0  0  0  0  0  0  0  0  0
   37.3340   27.1390   30.8200 C   0  0  0  0  0  0  0  0  0  0  0  0
   38.5790   26.7690   31.1330 N   0  0  0  0  0  0  0  0  0  0  0  0
   38.7950   27.0810   32.4320 C   0  0  0  0  0  0  0  0  0  0  0  0
   37.6600   27.6440   32.8930 N   0  0  0  0  0  0  0  0  0  0  0  0
   36.8320   27.0330   29.8500 H   0  0  0  0  0  0  0  0  0  0  0  0
   39.2220   26.3160   30.4260 H   0  0  0  0  0  0  0  0  0  0  0  0
   35.4420   28.2210   32.0680 O   0  0  0  0  0  0  0  0  0  0  0  0
   35.8620   30.7300   32.5490 O   0  0  0  0  0  0  0  0  0  0  0  0
   35.2600   29.4930   33.1840 P   0  0  2  0  0  0  0  0  0  0  0  0
   36.0360   29.1030   34.6520 O   0  0  0  0  0  0  0  0  0  0  0  0
   35.6110   29.6390   35.3640 H   0  0  0  0  0  0  0  0  0  0  0  0
   33.6060   29.6880   33.5560 O   0  0  0  0  0  0  0  0  0  0  0  0
   33.1680   29.9690   34.8480 C   0  0  0  0  0  0  0  0  0  0  0  0
   32.2180   29.2310   35.5550 C   0  0  0  0  0  0  0  0  0  0  0  0
   31.8980   29.6520   36.8350 C   0  0  0  0  0  0  0  0  0  0  0  0
   32.4980   30.7440   37.3630 N   0  0  0  0  0  0  0  0  0  0  0  0
   33.4350   31.4510   36.6340 C   0  0  0  0  0  0  0  0  0  0  0  0
   33.7490   31.0410   35.3850 N   0  0  0  0  0  0  0  0  0  0  0  0
   31.7950   28.3730   35.0440 H   0  0  0  0  0  0  0  0  0  0  0  0
   31.1620   29.0780   37.3780 H   0  0  0  0  0  0  0  0  0  0  0  0
   33.9020   32.3210   37.0760 H   0  0  0  0  0  0  0  0  0  0  0  0
   40.0700   26.8190   33.1360 C   0  0  0  0  0  2  0  0  0  0  0  0
   40.0340   25.5580   33.9220 C   0  0  0  0  0  0  0  0  0  0  0  0
   39.5110   25.4590   35.1300 C   0  0  0  0  0  0  0  0  0  0  0  0
   39.4770   24.2560   35.8810 N   0  0  0  0  0  0  0  0  0  0  0  0
   38.9390   23.3080   36.7890 C   0  0  0  0  0  0  0  0  0  0  0  0
   37.8940   23.4230   37.5020 O   0  0  0  0  0  0  0  0  0  0  0  0
   39.9720   22.2940   36.5670 C   0  0  0  0  0  3  0  0  0  0  0  0
   40.5560   21.9570   37.4400 H   0  0  0  0  0  0  0  0  0  0  0  0
   40.6160   23.3320   35.7280 C   0  0  1  0  0  3  0  0  0  0  0  0
   40.4990   22.8520   33.9580 S   0  0  0  0  0  0  0  0  0  0  0  0
   40.6640   24.4630   33.1480 C   0  0  0  0  0  3  0  0  0  0  0  0
   41.7720   24.6780   33.2080 H   0  0  0  0  0  0  0  0  0  0  0  0
   38.9310   26.6440   35.7420 C   0  0  0  0  0  0  0  0  0  0  0  0
   38.2450   26.6300   36.7960 O   0  0  0  0  0  0  0  0  0  0  0  0
   38.5260   27.9230   36.0640 O   0  0  0  0  0  0  0  0  0  0  0  0
   38.9670   28.7760   35.7450 H   0  0  0  0  0  0  0  0  0  0  0  0
  1  8  1  0  0  0  0
  1  5  1  0  0  0  0
  2  3  1  0  0  0  0
  2  1  2  0  0  0  0
  3  4  1  0  0  0  0
  4  5  2  0  0  0  0
  4 23  1  0  0  0  0
  6  2  1  0  0  0  0
  7  3  1  0  0  0  0
  8 10  1  0  0  0  0
 10  9  2  6  0  0  0
 10 13  1  0  0  0  0
 10 11  1  0  0  0  0
 11 12  1  0  0  0  0
 13 14  1  0  0  0  0
 14 19  2  0  0  0  0
 14 15  1  0  0  0  0
 15 16  2  0  0  0  0
 16 17  1  0  0  0  0
 16 21  1  0  0  0  0
 18 22  1  0  0  0  0
 18 17  2  0  0  0  0
 19 18  1  0  0  0  0
 20 15  1  0  0  0  0
 23 24  1  0  0  0  0
 24 25  2  0  0  0  0
 25 35  1  0  0  0  0
 25 26  1  0  0  0  0
 26 27  1  0  0  0  0
 27 28  2  0  0  0  0
 29 27  1  0  0  0  0
 29 30  1  0  0  0  0
 31 32  1  6  0  0  0
 31 26  1  0  0  0  0
 31 29  1  0  0  0  0
 33 34  1  0  0  0  0
 33 24  1  0  0  0  0
 33 32  1  0  0  0  0
 35 37  1  0  0  0  0
 35 36  2  0  0  0  0
 38 37  1  0  0  0  0
M  END
>  <minimizedAffinity>
-5.60232258

$$$$

 OpenBabel03262521143D

 38 41  0  0  1  0  0  0  0  0999 V2000
   36.9700   23.7860   31.8970 C   0  0  0  0  0  0  0  0  0  0  0  0
   37.4030   23.9830   30.6100 C   0  0  0  0  0  0  0  0  0  0  0  0
   37.9100   25.2130   30.4860 N   0  0  0  0  0  0  0  0  0  0  0  0
   37.8120   25.8290   31.6870 C   0  0  0  0  0  0  0  0  0  0  0  0
   37.2390   24.9500   32.5330 N   0  0  0  0  0  0  0  0  0  0  0  0
   37.3250   23.2140   29.8320 H   0  0  0  0  0  0  0  0  0  0  0  0
   38.3000   25.5670   29.5690 H   0  0  0  0  0  0  0  0  0  0  0  0
   36.3780   22.6720   32.4910 O   0  0  0  0  0  0  0  0  0  0  0  0
   37.8780   20.5650   32.5990 O   0  0  0  0  0  0  0  0  0  0  0  0
   37.3770   21.7010   33.4680 P   0  0  2  0  0  0  0  0  0  0  0  0
   36.5010   21.1210   34.8120 O   0  0  0  0  0  0  0  0  0  0  0  0
   37.1540   20.9050   35.5210 H   0  0  0  0  0  0  0  0  0  0  0  0
   38.6470   22.6500   34.1000 O   0  0  0  0  0  0  0  0  0  0  0  0
   38.8270   22.8250   35.4710 C   0  0  0  0  0  0  0  0  0  0  0  0
   39.9190   22.3640   36.2060 C   0  0  0  0  0  0  0  0  0  0  0  0
   39.9390   22.6270   37.5650 C   0  0  0  0  0  0  0  0  0  0  0  0
   38.9220   23.3090   38.1410 N   0  0  0  0  0  0  0  0  0  0  0  0
   37.8550   23.7520   37.3820 C   0  0  0  0  0  0  0  0  0  0  0  0
   37.8350   23.4950   36.0550 N   0  0  0  0  0  0  0  0  0  0  0  0
   40.6810   21.8280   35.6510 H   0  0  0  0  0  0  0  0  0  0  0  0
   40.7860   22.2680   38.1290 H   0  0  0  0  0  0  0  0  0  0  0  0
   37.0530   24.2950   37.8630 H   0  0  0  0  0  0  0  0  0  0  0  0
   38.2730   27.2130   31.9370 C   0  0  0  0  0  2  0  0  0  0  0  0
   37.1440   28.1580   32.1440 C   0  0  0  0  0  0  0  0  0  0  0  0
   36.5330   28.3310   33.3020 C   0  0  0  0  0  0  0  0  0  0  0  0
   35.4560   29.2320   33.5000 N   0  0  0  0  0  0  0  0  0  0  0  0
   34.6610   30.1660   34.2130 C   0  0  0  0  0  0  0  0  0  0  0  0
   34.7770   30.5170   35.4280 O   0  0  0  0  0  0  0  0  0  0  0  0
   33.7810   30.4920   33.0880 C   0  0  0  0  0  3  0  0  0  0  0  0
   32.6980   30.3250   33.2180 H   0  0  0  0  0  0  0  0  0  0  0  0
   34.5150   29.4160   32.3810 C   0  0  1  0  0  3  0  0  0  0  0  0
   35.5860   30.1540   31.0820 S   0  0  0  0  0  0  0  0  0  0  0  0
   36.8280   28.8520   30.8740 C   0  0  0  0  0  3  0  0  0  0  0  0
   36.2950   28.0730   30.2530 H   0  0  0  0  0  0  0  0  0  0  0  0
   36.9790   27.5600   34.4520 C   0  0  0  0  0  0  0  0  0  0  0  0
   37.6300   28.0420   35.4140 O   0  0  0  0  0  0  0  0  0  0  0  0
   37.2510   26.5780   35.3820 O   0  0  0  0  0  0  0  0  0  0  0  0
   36.7420   25.7100   35.4840 H   0  0  0  0  0  0  0  0  0  0  0  0
  1  8  1  0  0  0  0
  1  5  1  0  0  0  0
  2  1  2  0  0  0  0
  3  2  1  0  0  0  0
  3  4  1  0  0  0  0
  4 23  1  0  0  0  0
  4  5  2  0  0  0  0
  6  2  1  0  0  0  0
  7  3  1  0  0  0  0
  8 10  1  0  0  0  0
 10  9  2  6  0  0  0
 10 13  1  0  0  0  0
 10 11  1  0  0  0  0
 11 12  1  0  0  0  0
 13 14  1  0  0  0  0
 14 19  2  0  0  0  0
 14 15  1  0  0  0  0
 15 16  2  0  0  0  0
 16 21  1  0  0  0  0
 16 17  1  0  0  0  0
 18 22  1  0  0  0  0
 18 17  2  0  0  0  0
 19 18  1  0  0  0  0
 20 15  1  0  0  0  0
 23 24  1  0  0  0  0
 24 25  2  0  0  0  0
 25 26  1  0  0  0  0
 25 35  1  0  0  0  0
 26 27  1  0  0  0  0
 27 28  2  0  0  0  0
 29 30  1  0  0  0  0
 29 27  1  0  0  0  0
 31 32  1  6  0  0  0
 31 29  1  0  0  0  0
 31 26  1  0  0  0  0
 33 32  1  0  0  0  0
 33 24  1  0  0  0  0
 34 33  1  0  0  0  0
 35 37  1  0  0  0  0
 35 36  2  0  0  0  0
 37 38  1  0  0  0  0
M  END
>  <minimizedAffinity>
-5.59496355

$$$$

 OpenBabel03262521143D

 38 41  0  0  1  0  0  0  0  0999 V2000
   37.0650   26.3860   33.3560 C   0  0  0  0  0  0  0  0  0  0  0  0
   37.0970   26.9180   34.6210 C   0  0  0  0  0  0  0  0  0  0  0  0
   36.5210   28.1240   34.6200 N   0  0  0  0  0  0  0  0  0  0  0  0
   36.1110   28.3910   33.3580 C   0  0  0  0  0  0  0  0  0  0  0  0
   36.4480   27.3260   32.6030 N   0  0  0  0  0  0  0  0  0  0  0  0
   37.5390   26.3930   35.4760 H   0  0  0  0  0  0  0  0  0  0  0  0
   36.4420   28.7070   35.4990 H   0  0  0  0  0  0  0  0  0  0  0  0
   37.5380   25.1650   32.8770 O   0  0  0  0  0  0  0  0  0  0  0  0
   38.4670   25.9260   30.5840 O   0  0  0  0  0  0  0  0  0  0  0  0
   37.4960   24.9330   31.1920 P   0  0  2  0  0  0  0  0  0  0  0  0
   35.9120   25.1690   30.6060 O   0  0  0  0  0  0  0  0  0  0  0  0
   35.8350   24.6770   29.7530 H   0  0  0  0  0  0  0  0  0  0  0  0
   37.9030   23.3160   30.8320 O   0  0  0  0  0  0  0  0  0  0  0  0
   37.0450   22.2570   31.1190 C   0  0  0  0  0  0  0  0  0  0  0  0
   37.2070   20.9450   30.6740 C   0  0  0  0  0  0  0  0  0  0  0  0
   36.2560   20.0130   31.0560 C   0  0  0  0  0  0  0  0  0  0  0  0
   35.2130   20.3840   31.8340 N   0  0  0  0  0  0  0  0  0  0  0  0
   35.0840   21.6930   32.2570 C   0  0  0  0  0  0  0  0  0  0  0  0
   36.0110   22.6040   31.8860 N   0  0  0  0  0  0  0  0  0  0  0  0
   38.0750   20.7500   30.0550 H   0  0  0  0  0  0  0  0  0  0  0  0
   36.3860   18.9990   30.7090 H   0  0  0  0  0  0  0  0  0  0  0  0
   34.2420   21.9680   32.8790 H   0  0  0  0  0  0  0  0  0  0  0  0
   35.4270   29.6430   32.9670 C   0  0  0  0  0  2  0  0  0  0  0  0
   34.7670   30.3120   34.1190 C   0  0  0  0  0  0  0  0  0  0  0  0
   33.4820   30.1920   34.4010 C   0  0  0  0  0  0  0  0  0  0  0  0
   32.8520   30.8300   35.5000 N   0  0  0  0  0  0  0  0  0  0  0  0
   31.9280   30.9600   36.5690 C   0  0  0  0  0  0  0  0  0  0  0  0
   30.9820   30.1710   36.8780 O   0  0  0  0  0  0  0  0  0  0  0  0
   32.4730   32.2210   37.0760 C   0  0  0  0  0  3  0  0  0  0  0  0
   31.7940   33.0900   37.1300 H   0  0  0  0  0  0  0  0  0  0  0  0
   33.3470   32.1650   35.8810 C   0  0  1  0  0  3  0  0  0  0  0  0
   35.0750   31.8120   36.3980 S   0  0  0  0  0  0  0  0  0  0  0  0
   35.7580   31.1120   34.8740 C   0  0  0  0  0  3  0  0  0  0  0  0
   35.9420   32.0180   34.2250 H   0  0  0  0  0  0  0  0  0  0  0  0
   32.6510   29.3590   33.5460 C   0  0  0  0  0  0  0  0  0  0  0  0
   31.3950   29.3270   33.5980 O   0  0  0  0  0  0  0  0  0  0  0  0
   32.1580   28.4740   32.6090 O   0  0  0  0  0  0  0  0  0  0  0  0
   32.6500   28.1600   31.7830 H   0  0  0  0  0  0  0  0  0  0  0  0
  1  2  2  0  0  0  0
  2  6  1  0  0  0  0
  3  2  1  0  0  0  0
  3  7  1  0  0  0  0
  4  3  1  0  0  0  0
  5  1  1  0  0  0  0
  5  4  2  0  0  0  0
  8  1  1  0  0  0  0
 10  9  2  6  0  0  0
 10  8  1  0  0  0  0
 11 10  1  0  0  0  0
 12 11  1  0  0  0  0
 13 14  1  0  0  0  0
 13 10  1  0  0  0  0
 14 19  1  0  0  0  0
 15 16  1  0  0  0  0
 15 14  2  0  0  0  0
 16 17  2  0  0  0  0
 17 18  1  0  0  0  0
 18 22  1  0  0  0  0
 19 18  2  0  0  0  0
 20 15  1  0  0  0  0
 21 16  1  0  0  0  0
 23  4  1  0  0  0  0
 23 24  1  0  0  0  0
 24 25  2  0  0  0  0
 24 33  1  0  0  0  0
 25 26  1  0  0  0  0
 26 31  1  0  0  0  0
 26 27  1  0  0  0  0
 27 28  2  0  0  0  0
 27 29  1  0  0  0  0
 29 30  1  0  0  0  0
 31 32  1  1  0  0  0
 31 29  1  0  0  0  0
 33 32  1  0  0  0  0
 34 33  1  0  0  0  0
 35 36  2  0  0  0  0
 35 25  1  0  0  0  0
 37 35  1  0  0  0  0
 38 37  1  0  0  0  0
M  END
>  <minimizedAffinity>
-5.560359

$$$$

 OpenBabel03262521143D

 38 41  0  0  1  0  0  0  0  0999 V2000
   36.7370   26.7000   32.7890 C   0  0  0  0  0  0  0  0  0  0  0  0
   36.2520   27.1870   31.6010 C   0  0  0  0  0  0  0  0  0  0  0  0
   35.9100   26.1720   30.8020 N   0  0  0  0  0  0  0  0  0  0  0  0
   36.1680   25.0170   31.4580 C   0  0  0  0  0  0  0  0  0  0  0  0
   36.6700   25.3550   32.6640 N   0  0  0  0  0  0  0  0  0  0  0  0
   36.1750   28.2590   31.3850 H   0  0  0  0  0  0  0  0  0  0  0  0
   35.5130   26.3320   29.8350 H   0  0  0  0  0  0  0  0  0  0  0  0
   37.2090   27.3720   33.9160 O   0  0  0  0  0  0  0  0  0  0  0  0
   38.9310   27.5690   35.8390 O   0  0  0  0  0  0  0  0  0  0  0  0
   38.3490   26.5520   34.8780 P   0  0  2  0  0  0  0  0  0  0  0  0
   39.5570   25.8580   33.8940 O   0  0  0  0  0  0  0  0  0  0  0  0
   39.9560   25.1090   34.3990 H   0  0  0  0  0  0  0  0  0  0  0  0
   37.5850   25.2560   35.6810 O   0  0  0  0  0  0  0  0  0  0  0  0
   38.2710   24.4270   36.5660 C   0  0  0  0  0  0  0  0  0  0  0  0
   38.0160   24.3210   37.9330 C   0  0  0  0  0  0  0  0  0  0  0  0
   38.7970   23.4440   38.6680 C   0  0  0  0  0  0  0  0  0  0  0  0
   39.7690   22.7250   38.0600 N   0  0  0  0  0  0  0  0  0  0  0  0
   39.9940   22.8550   36.7030 C   0  0  0  0  0  0  0  0  0  0  0  0
   39.2320   23.7110   35.9850 N   0  0  0  0  0  0  0  0  0  0  0  0
   37.2160   24.9400   38.3240 H   0  0  0  0  0  0  0  0  0  0  0  0
   38.5960   23.3650   39.7260 H   0  0  0  0  0  0  0  0  0  0  0  0
   40.7760   22.2710   36.2380 H   0  0  0  0  0  0  0  0  0  0  0  0
   35.9160   23.6760   30.8850 C   0  0  0  0  0  2  0  0  0  0  0  0
   37.0910   22.7740   31.0150 C   0  0  0  0  0  0  0  0  0  0  0  0
   37.0470   21.5900   31.5990 C   0  0  0  0  0  0  0  0  0  0  0  0
   38.1660   20.7290   31.7240 N   0  0  0  0  0  0  0  0  0  0  0  0
   38.8470   19.4850   31.7750 C   0  0  0  0  0  0  0  0  0  0  0  0
   38.3380   18.3210   31.7690 O   0  0  0  0  0  0  0  0  0  0  0  0
   40.1930   20.0600   31.8300 C   0  0  0  0  0  3  0  0  0  0  0  0
   40.8270   19.8010   32.6950 H   0  0  0  0  0  0  0  0  0  0  0  0
   39.4840   21.3580   31.9210 C   0  0  1  0  0  3  0  0  0  0  0  0
   39.7120   22.2940   30.3560 S   0  0  0  0  0  0  0  0  0  0  0  0
   38.2820   23.4040   30.4020 C   0  0  0  0  0  3  0  0  0  0  0  0
   38.5900   24.2030   31.1400 H   0  0  0  0  0  0  0  0  0  0  0  0
   35.7830   21.1260   32.1500 C   0  0  0  0  0  0  0  0  0  0  0  0
   35.6020   20.8480   33.3630 O   0  0  0  0  0  0  0  0  0  0  0  0
   34.4810   20.7170   32.3560 O   0  0  0  0  0  0  0  0  0  0  0  0
   33.6980   20.9250   31.7500 H   0  0  0  0  0  0  0  0  0  0  0  0
  1  8  1  0  0  0  0
  2  1  2  0  0  0  0
  3  4  1  0  0  0  0
  3  2  1  0  0  0  0
  4  5  2  0  0  0  0
  5  1  1  0  0  0  0
  6  2  1  0  0  0  0
  7  3  1  0  0  0  0
  8 10  1  0  0  0  0
 10 13  1  0  0  0  0
 10  9  2  1  0  0  0
 11 12  1  0  0  0  0
 11 10  1  0  0  0  0
 13 14  1  0  0  0  0
 14 15  1  0  0  0  0
 15 20  1  0  0  0  0
 15 16  2  0  0  0  0
 16 21  1  0  0  0  0
 17 16  1  0  0  0  0
 18 17  2  0  0  0  0
 19 14  2  0  0  0  0
 19 18  1  0  0  0  0
 22 18  1  0  0  0  0
 23 24  1  0  0  0  0
 23  4  1  0  0  0  0
 24 25  2  0  0  0  0
 25 26  1  0  0  0  0
 25 35  1  0  0  0  0
 26 27  1  0  0  0  0
 26 31  1  0  0  0  0
 27 29  1  0  0  0  0
 28 27  2  0  0  0  0
 29 31  1  0  0  0  0
 29 30  1  0  0  0  0
 31 32  1  6  0  0  0
 32 33  1  0  0  0  0
 33 24  1  0  0  0  0
 33 34  1  0  0  0  0
 35 37  1  0  0  0  0
 35 36  2  0  0  0  0
 38 37  1  0  0  0  0
M  END
>  <minimizedAffinity>
-5.53788137

$$$$

 OpenBabel03262521143D

 38 41  0  0  1  0  0  0  0  0999 V2000
   36.9210   28.9810   30.9270 C   0  0  0  0  0  0  0  0  0  0  0  0
   36.9780   29.9980   30.0080 C   0  0  0  0  0  0  0  0  0  0  0  0
   35.9290   30.8110   30.1670 N   0  0  0  0  0  0  0  0  0  0  0  0
   35.1790   30.3320   31.1870 C   0  0  0  0  0  0  0  0  0  0  0  0
   35.7960   29.2200   31.6380 N   0  0  0  0  0  0  0  0  0  0  0  0
   37.7850   30.0910   29.2710 H   0  0  0  0  0  0  0  0  0  0  0  0
   35.7830   31.6620   29.5560 H   0  0  0  0  0  0  0  0  0  0  0  0
   37.7860   27.9080   31.1420 O   0  0  0  0  0  0  0  0  0  0  0  0
   38.1040   25.4260   30.4800 O   0  0  0  0  0  0  0  0  0  0  0  0
   37.0970   26.3520   31.1320 P   0  0  2  0  0  0  0  0  0  0  0  0
   35.6200   26.3690   30.2800 O   0  0  0  0  0  0  0  0  0  0  0  0
   35.0820   25.6060   30.6030 H   0  0  0  0  0  0  0  0  0  0  0  0
   36.7210   25.8890   32.7300 O   0  0  0  0  0  0  0  0  0  0  0  0
   37.4490   26.3510   33.8240 C   0  0  0  0  0  0  0  0  0  0  0  0
   37.0660   27.3960   34.6650 C   0  0  0  0  0  0  0  0  0  0  0  0
   37.9120   27.7250   35.7100 C   0  0  0  0  0  0  0  0  0  0  0  0
   39.0670   27.0450   35.8910 N   0  0  0  0  0  0  0  0  0  0  0  0
   39.4160   26.0140   35.0390 C   0  0  0  0  0  0  0  0  0  0  0  0
   38.5910   25.6910   34.0190 N   0  0  0  0  0  0  0  0  0  0  0  0
   36.1220   27.8770   34.4350 H   0  0  0  0  0  0  0  0  0  0  0  0
   37.6110   28.5350   36.3580 H   0  0  0  0  0  0  0  0  0  0  0  0
   40.3450   25.4840   35.2020 H   0  0  0  0  0  0  0  0  0  0  0  0
   33.9310   30.9720   31.6560 C   0  0  0  0  0  2  0  0  0  0  0  0
   33.9170   31.1780   33.1280 C   0  0  0  0  0  0  0  0  0  0  0  0
   32.9340   30.7810   33.9170 C   0  0  0  0  0  0  0  0  0  0  0  0
   32.9200   30.9770   35.3210 N   0  0  0  0  0  0  0  0  0  0  0  0
   32.6360   30.6540   36.6730 C   0  0  0  0  0  0  0  0  0  0  0  0
   31.9620   29.6700   37.1110 O   0  0  0  0  0  0  0  0  0  0  0  0
   33.3580   31.7920   37.2470 C   0  0  0  0  0  3  0  0  0  0  0  0
   32.7900   32.4910   37.8850 H   0  0  0  0  0  0  0  0  0  0  0  0
   33.5360   32.2120   35.8370 C   0  0  1  0  0  3  0  0  0  0  0  0
   35.2970   32.0070   35.3520 S   0  0  0  0  0  0  0  0  0  0  0  0
   35.1490   31.8800   33.5520 C   0  0  0  0  0  3  0  0  0  0  0  0
   34.9920   32.9500   33.2220 H   0  0  0  0  0  0  0  0  0  0  0  0
   31.7920   30.1010   33.3250 C   0  0  0  0  0  0  0  0  0  0  0  0
   31.3790   28.9710   33.6890 O   0  0  0  0  0  0  0  0  0  0  0  0
   30.6950   29.7310   32.5740 O   0  0  0  0  0  0  0  0  0  0  0  0
   30.0920   30.3640   32.0660 H   0  0  0  0  0  0  0  0  0  0  0  0
  1  8  1  0  0  0  0
  1  5  1  0  0  0  0
  2  3  1  0  0  0  0
  2  1  2  0  0  0  0
  3  4  1  0  0  0  0
  4  5  2  0  0  0  0
  4 23  1  0  0  0  0
  6  2  1  0  0  0  0
  7  3  1  0  0  0  0
 10  9  2  6  0  0  0
 10  8  1  0  0  0  0
 10 13  1  0  0  0  0
 11 12  1  0  0  0  0
 11 10  1  0  0  0  0
 13 14  1  0  0  0  0
 14 19  2  0  0  0  0
 14 15  1  0  0  0  0
 15 16  2  0  0  0  0
 16 17  1  0  0  0  0
 16 21  1  0  0  0  0
 18 22  1  0  0  0  0
 18 17  2  0  0  0  0
 19 18  1  0  0  0  0
 20 15  1  0  0  0  0
 23 24  1  0  0  0  0
 24 33  1  0  0  0  0
 24 25  2  0  0  0  0
 25 26  1  0  0  0  0
 26 31  1  0  0  0  0
 26 27  1  0  0  0  0
 27 28  2  0  0  0  0
 27 29  1  0  0  0  0
 29 30  1  0  0  0  0
 31 32  1  6  0  0  0
 31 29  1  0  0  0  0
 33 32  1  0  0  0  0
 34 33  1  0  0  0  0
 35 36  2  0  0  0  0
 35 25  1  0  0  0  0
 37 35  1  0  0  0  0
 38 37  1  0  0  0  0
M  END
>  <minimizedAffinity>
-5.51357174

$$$$

 OpenBabel03262521143D

 38 41  0  0  1  0  0  0  0  0999 V2000
   37.1010   28.3890   31.4950 C   0  0  0  0  0  0  0  0  0  0  0  0
   36.7540   28.7950   30.2310 C   0  0  0  0  0  0  0  0  0  0  0  0
   35.8980   29.8180   30.3030 N   0  0  0  0  0  0  0  0  0  0  0  0
   35.6780   30.0880   31.6110 C   0  0  0  0  0  0  0  0  0  0  0  0
   36.4160   29.2120   32.3220 N   0  0  0  0  0  0  0  0  0  0  0  0
   37.1470   28.3200   29.3240 H   0  0  0  0  0  0  0  0  0  0  0  0
   35.5050   30.2810   29.4370 H   0  0  0  0  0  0  0  0  0  0  0  0
   37.9570   27.3710   31.9130 O   0  0  0  0  0  0  0  0  0  0  0  0
   36.3310   25.4110   32.3760 O   0  0  0  0  0  0  0  0  0  0  0  0
   37.3490   26.2870   33.0770 P   0  0  2  0  0  0  0  0  0  0  0  0
   36.6490   27.1470   34.3720 O   0  0  0  0  0  0  0  0  0  0  0  0
   36.6590   26.5540   35.1620 H   0  0  0  0  0  0  0  0  0  0  0  0
   38.6380   25.3880   33.7420 O   0  0  0  0  0  0  0  0  0  0  0  0
   38.4510   24.5010   34.8000 C   0  0  0  0  0  0  0  0  0  0  0  0
   38.5060   23.1100   34.7050 C   0  0  0  0  0  0  0  0  0  0  0  0
   38.2970   22.3780   35.8610 C   0  0  0  0  0  0  0  0  0  0  0  0
   38.0490   23.0090   37.0320 N   0  0  0  0  0  0  0  0  0  0  0  0
   38.0020   24.3890   37.0900 C   0  0  0  0  0  0  0  0  0  0  0  0
   38.2060   25.1050   35.9620 N   0  0  0  0  0  0  0  0  0  0  0  0
   38.7110   22.7020   33.7220 H   0  0  0  0  0  0  0  0  0  0  0  0
   38.3400   21.3010   35.7830 H   0  0  0  0  0  0  0  0  0  0  0  0
   37.8010   24.8720   38.0360 H   0  0  0  0  0  0  0  0  0  0  0  0
   34.7800   31.1640   32.0850 C   0  0  0  0  0  2  0  0  0  0  0  0
   33.8570   30.7020   33.1550 C   0  0  0  0  0  0  0  0  0  0  0  0
   34.0780   30.8820   34.4450 C   0  0  0  0  0  0  0  0  0  0  0  0
   33.1990   30.4420   35.4660 N   0  0  0  0  0  0  0  0  0  0  0  0
   32.5280   30.5000   36.7160 C   0  0  0  0  0  0  0  0  0  0  0  0
   32.7040   31.3410   37.6520 O   0  0  0  0  0  0  0  0  0  0  0  0
   31.6760   29.3340   36.4750 C   0  0  0  0  0  3  0  0  0  0  0  0
   31.7410   28.4940   37.1890 H   0  0  0  0  0  0  0  0  0  0  0  0
   32.4700   29.1820   35.2330 C   0  0  1  0  0  3  0  0  0  0  0  0
   31.4230   29.5960   33.7800 S   0  0  0  0  0  0  0  0  0  0  0  0
   32.6850   30.0260   32.5540 C   0  0  0  0  0  3  0  0  0  0  0  0
   33.0800   29.0230   32.2160 H   0  0  0  0  0  0  0  0  0  0  0  0
   35.2910   31.5720   34.8580 C   0  0  0  0  0  0  0  0  0  0  0  0
   35.9820   31.2460   35.8570 O   0  0  0  0  0  0  0  0  0  0  0  0
   36.3740   32.4170   34.9850 O   0  0  0  0  0  0  0  0  0  0  0  0
   36.7700   32.9780   34.2420 H   0  0  0  0  0  0  0  0  0  0  0  0
  1  8  1  0  0  0  0
  1  5  1  0  0  0  0
  2  3  1  0  0  0  0
  2  1  2  0  0  0  0
  3  4  1  0  0  0  0
  4 23  1  0  0  0  0
  4  5  2  0  0  0  0
  6  2  1  0  0  0  0
  7  3  1  0  0  0  0
  8 10  1  0  0  0  0
 10  9  2  6  0  0  0
 10 13  1  0  0  0  0
 10 11  1  0  0  0  0
 11 12  1  0  0  0  0
 13 14  1  0  0  0  0
 14 19  1  0  0  0  0
 15 14  2  0  0  0  0
 15 16  1  0  0  0  0
 16 17  2  0  0  0  0
 17 18  1  0  0  0  0
 18 22  1  0  0  0  0
 19 18  2  0  0  0  0
 20 15  1  0  0  0  0
 21 16  1  0  0  0  0
 23 24  1  0  0  0  0
 24 25  2  0  0  0  0
 25 35  1  0  0  0  0
 25 26  1  0  0  0  0
 26 27  1  0  0  0  0
 27 28  2  0  0  0  0
 29 27  1  0  0  0  0
 29 30  1  0  0  0  0
 31 32  1  6  0  0  0
 31 26  1  0  0  0  0
 31 29  1  0  0  0  0
 33 24  1  0  0  0  0
 33 32  1  0  0  0  0
 34 33  1  0  0  0  0
 35 37  1  0  0  0  0
 35 36  2  0  0  0  0
 38 37  1  0  0  0  0
M  END
>  <minimizedAffinity>
-5.50264597

$$$$

 OpenBabel03262521143D

 38 41  0  0  1  0  0  0  0  0999 V2000
   37.0780   26.4760   33.3280 C   0  0  0  0  0  0  0  0  0  0  0  0
   37.2310   26.9150   34.6190 C   0  0  0  0  0  0  0  0  0  0  0  0
   36.7170   28.1430   34.7430 N   0  0  0  0  0  0  0  0  0  0  0  0
   36.2260   28.5150   33.5380 C   0  0  0  0  0  0  0  0  0  0  0  0
   36.4530   27.4920   32.6890 N   0  0  0  0  0  0  0  0  0  0  0  0
   37.7100   26.3130   35.4000 H   0  0  0  0  0  0  0  0  0  0  0  0
   36.7330   28.6650   35.6630 H   0  0  0  0  0  0  0  0  0  0  0  0
   37.4530   25.2720   32.7330 O   0  0  0  0  0  0  0  0  0  0  0  0
   38.5510   26.0070   30.5070 O   0  0  0  0  0  0  0  0  0  0  0  0
   37.3810   25.2000   31.0340 P   0  0  2  0  0  0  0  0  0  0  0  0
   35.8930   25.8230   30.4810 O   0  0  0  0  0  0  0  0  0  0  0  0
   35.7210   25.4340   29.5900 H   0  0  0  0  0  0  0  0  0  0  0  0
   37.4330   23.5710   30.5330 O   0  0  0  0  0  0  0  0  0  0  0  0
   36.9000   22.5420   31.3070 C   0  0  0  0  0  0  0  0  0  0  0  0
   35.5460   22.2200   31.3980 C   0  0  0  0  0  0  0  0  0  0  0  0
   35.1890   21.1630   32.2170 C   0  0  0  0  0  0  0  0  0  0  0  0
   36.1370   20.4780   32.8980 N   0  0  0  0  0  0  0  0  0  0  0  0
   37.4700   20.8240   32.7840 C   0  0  0  0  0  0  0  0  0  0  0  0
   37.8200   21.8560   31.9840 N   0  0  0  0  0  0  0  0  0  0  0  0
   34.8650   22.8290   30.8130 H   0  0  0  0  0  0  0  0  0  0  0  0
   34.1390   20.9170   32.2840 H   0  0  0  0  0  0  0  0  0  0  0  0
   38.2120   20.2640   33.3370 H   0  0  0  0  0  0  0  0  0  0  0  0
   35.5770   29.8210   33.2870 C   0  0  0  0  0  2  0  0  0  0  0  0
   34.2700   29.9470   33.9830 C   0  0  0  0  0  0  0  0  0  0  0  0
   34.0920   30.6400   35.0930 C   0  0  0  0  0  0  0  0  0  0  0  0
   32.8460   30.7620   35.7580 N   0  0  0  0  0  0  0  0  0  0  0  0
   31.8380   31.4100   36.5190 C   0  0  0  0  0  0  0  0  0  0  0  0
   31.9000   32.5500   37.0760 O   0  0  0  0  0  0  0  0  0  0  0  0
   30.8500   30.3360   36.3930 C   0  0  0  0  0  3  0  0  0  0  0  0
   30.4660   29.8800   37.3220 H   0  0  0  0  0  0  0  0  0  0  0  0
   31.9440   29.5960   35.7210 C   0  0  1  0  0  3  0  0  0  0  0  0
   31.5720   29.4430   33.9280 S   0  0  0  0  0  0  0  0  0  0  0  0
   33.2310   29.1900   33.2480 C   0  0  0  0  0  3  0  0  0  0  0  0
   33.4520   28.1070   33.4830 H   0  0  0  0  0  0  0  0  0  0  0  0
   35.2320   31.3260   35.6820 C   0  0  0  0  0  0  0  0  0  0  0  0
   35.2070   32.5170   36.0860 O   0  0  0  0  0  0  0  0  0  0  0  0
   36.4660   31.6840   36.1860 O   0  0  0  0  0  0  0  0  0  0  0  0
   37.1740   31.0410   36.5140 H   0  0  0  0  0  0  0  0  0  0  0  0
  1  2  2  0  0  0  0
  2  3  1  0  0  0  0
  2  6  1  0  0  0  0
  3  7  1  0  0  0  0
  4  3  1  0  0  0  0
  5  1  1  0  0  0  0
  5  4  2  0  0  0  0
  8  1  1  0  0  0  0
 10  9  2  6  0  0  0
 10  8  1  0  0  0  0
 11 10  1  0  0  0  0
 12 11  1  0  0  0  0
 13 10  1  0  0  0  0
 13 14  1  0  0  0  0
 14 15  2  0  0  0  0
 14 19  1  0  0  0  0
 15 16  1  0  0  0  0
 16 21  1  0  0  0  0
 16 17  2  0  0  0  0
 18 17  1  0  0  0  0
 18 22  1  0  0  0  0
 19 18  2  0  0  0  0
 20 15  1  0  0  0  0
 23  4  1  0  0  0  0
 23 24  1  0  0  0  0
 24 25  2  0  0  0  0
 25 35  1  0  0  0  0
 25 26  1  0  0  0  0
 26 27  1  0  0  0  0
 27 28  2  0  0  0  0
 29 27  1  0  0  0  0
 29 30  1  0  0  0  0
 31 32  1  6  0  0  0
 31 26  1  0  0  0  0
 31 29  1  0  0  0  0
 33 34  1  0  0  0  0
 33 32  1  0  0  0  0
 33 24  1  0  0  0  0
 35 36  2  0  0  0  0
 35 37  1  0  0  0  0
 37 38  1  0  0  0  0
M  END
>  <minimizedAffinity>
-5.47835684

$$$$

 OpenBabel03262521143D

 38 41  0  0  1  0  0  0  0  0999 V2000
   38.0290   26.8480   32.4330 C   0  0  0  0  0  0  0  0  0  0  0  0
   37.1360   26.0490   31.7640 C   0  0  0  0  0  0  0  0  0  0  0  0
   36.7100   26.6700   30.6600 N   0  0  0  0  0  0  0  0  0  0  0  0
   37.3180   27.8780   30.5990 C   0  0  0  0  0  0  0  0  0  0  0  0
   38.1160   27.9710   31.6820 N   0  0  0  0  0  0  0  0  0  0  0  0
   36.8460   25.0530   32.1210 H   0  0  0  0  0  0  0  0  0  0  0  0
   36.0150   26.2240   30.0010 H   0  0  0  0  0  0  0  0  0  0  0  0
   38.7280   26.6270   33.6190 O   0  0  0  0  0  0  0  0  0  0  0  0
   36.7750   27.8920   34.7530 O   0  0  0  0  0  0  0  0  0  0  0  0
   37.8880   26.9120   35.0700 P   0  0  2  0  0  0  0  0  0  0  0  0
   38.9490   27.5340   36.2520 O   0  0  0  0  0  0  0  0  0  0  0  0
   38.5590   27.3320   37.1360 H   0  0  0  0  0  0  0  0  0  0  0  0
   37.3010   25.4330   35.6860 O   0  0  0  0  0  0  0  0  0  0  0  0
   38.0940   24.5890   36.4610 C   0  0  0  0  0  0  0  0  0  0  0  0
   37.8240   24.2130   37.7770 C   0  0  0  0  0  0  0  0  0  0  0  0
   38.7210   23.3630   38.4010 C   0  0  0  0  0  0  0  0  0  0  0  0
   39.8170   22.9240   37.7390 N   0  0  0  0  0  0  0  0  0  0  0  0
   40.0540   23.3180   36.4350 C   0  0  0  0  0  0  0  0  0  0  0  0
   39.1780   24.1470   35.8250 N   0  0  0  0  0  0  0  0  0  0  0  0
   36.9200   24.6180   38.2180 H   0  0  0  0  0  0  0  0  0  0  0  0
   38.5080   23.0740   39.4190 H   0  0  0  0  0  0  0  0  0  0  0  0
   40.9360   22.9550   35.9250 H   0  0  0  0  0  0  0  0  0  0  0  0
   37.0920   28.8530   29.5100 C   0  0  0  0  0  2  0  0  0  0  0  0
   36.9500   30.2440   30.0150 C   0  0  0  0  0  0  0  0  0  0  0  0
   37.8440   31.1950   29.8130 C   0  0  0  0  0  0  0  0  0  0  0  0
   37.7100   32.5220   30.2940 N   0  0  0  0  0  0  0  0  0  0  0  0
   37.8490   33.9340   30.2640 C   0  0  0  0  0  0  0  0  0  0  0  0
   38.4740   34.6330   29.4080 O   0  0  0  0  0  0  0  0  0  0  0  0
   37.0680   34.1810   31.4780 C   0  0  0  0  0  3  0  0  0  0  0  0
   37.5640   34.7150   32.3070 H   0  0  0  0  0  0  0  0  0  0  0  0
   37.0400   32.7040   31.5940 C   0  0  1  0  0  3  0  0  0  0  0  0
   35.3400   32.0930   31.2510 S   0  0  0  0  0  0  0  0  0  0  0  0
   35.6780   30.3830   30.7600 C   0  0  0  0  0  3  0  0  0  0  0  0
   35.8670   29.8570   31.7410 H   0  0  0  0  0  0  0  0  0  0  0  0
   39.0440   30.8790   29.0530 C   0  0  0  0  0  0  0  0  0  0  0  0
   39.3530   31.4250   27.9630 O   0  0  0  0  0  0  0  0  0  0  0  0
   40.2360   30.3650   28.5840 O   0  0  0  0  0  0  0  0  0  0  0  0
   40.9360   29.9000   29.1470 H   0  0  0  0  0  0  0  0  0  0  0  0
  1  8  1  0  0  0  0
  2  6  1  0  0  0  0
  2  1  2  0  0  0  0
  3  2  1  0  0  0  0
  4  3  1  0  0  0  0
  4  5  2  0  0  0  0
  5  1  1  0  0  0  0
  7  3  1  0  0  0  0
  8 10  1  0  0  0  0
 10  9  2  6  0  0  0
 10 13  1  0  0  0  0
 10 11  1  0  0  0  0
 11 12  1  0  0  0  0
 13 14  1  0  0  0  0
 14 15  1  0  0  0  0
 15 20  1  0  0  0  0
 15 16  2  0  0  0  0
 16 21  1  0  0  0  0
 17 16  1  0  0  0  0
 18 17  2  0  0  0  0
 19 18  1  0  0  0  0
 19 14  2  0  0  0  0
 22 18  1  0  0  0  0
 23 24  1  0  0  0  0
 23  4  1  0  0  0  0
 24 33  1  0  0  0  0
 25 24  2  0  0  0  0
 25 26  1  0  0  0  0
 26 31  1  0  0  0  0
 27 26  1  0  0  0  0
 27 29  1  0  0  0  0
 28 27  2  0  0  0  0
 29 31  1  0  0  0  0
 29 30  1  0  0  0  0
 31 32  1  6  0  0  0
 33 32  1  0  0  0  0
 33 34  1  0  0  0  0
 35 25  1  0  0  0  0
 36 35  2  0  0  0  0
 37 35  1  0  0  0  0
 37 38  1  0  0  0  0
M  END
>  <minimizedAffinity>
-5.38186932

$$$$
