
 OpenBabel03272503313D

 41 44  0  0  1  0  0  0  0  0999 V2000
   36.7400   23.8320   32.0010 C   0  0  0  0  0  0  0  0  0  0  0  0
   35.8250   24.3290   31.0530 C   0  0  0  0  0  0  0  0  0  0  0  0
   35.5620   25.7000   31.0840 C   0  0  0  0  0  0  0  0  0  0  0  0
   36.2110   26.4500   32.0270 N   0  0  0  0  0  0  0  0  0  0  0  0
   37.0720   25.9430   32.9090 C   0  0  0  0  0  0  0  0  0  0  0  0
   37.3440   24.6210   32.9010 N   0  0  0  0  0  0  0  0  0  0  0  0
   35.3270   23.7380   30.3250 H   0  0  0  0  0  0  0  0  0  0  0  0
   34.8700   26.1570   30.3880 H   0  0  0  0  0  0  0  0  0  0  0  0
   36.9970   22.4230   31.9560 N   0  0  0  0  0  0  0  0  0  0  0  0
   36.9740   21.4910   33.0350 C   0  0  0  0  0  0  0  0  0  0  0  0
   36.6020   20.1810   32.3620 C   0  0  2  0  0  0  0  0  0  0  0  0
   36.3310   20.5320   30.9040 C   0  0  0  0  0  0  0  0  0  0  0  0
   37.3400   21.6620   30.7670 C   0  0  0  0  0  0  0  0  0  0  0  0
   36.2320   21.7430   33.8120 H   0  0  0  0  0  0  0  0  0  0  0  0
   38.0080   21.4140   33.4410 H   0  0  0  0  0  0  0  0  0  0  0  0
   37.4740   19.4720   32.3590 H   0  0  0  0  0  0  0  0  0  0  0  0
   35.3160   20.9310   30.7640 H   0  0  0  0  0  0  0  0  0  0  0  0
   36.5770   19.6840   30.2360 H   0  0  0  0  0  0  0  0  0  0  0  0
   37.1280   22.2150   29.8480 H   0  0  0  0  0  0  0  0  0  0  0  0
   38.3590   21.2700   30.8070 H   0  0  0  0  0  0  0  0  0  0  0  0
   35.4520   19.4960   33.0110 C   0  0  0  0  0  0  0  0  0  0  0  0
   34.3000   19.9500   32.3690 F   0  0  0  0  0  0  0  0  0  0  0  0
   35.3560   19.9780   34.3040 F   0  0  0  0  0  0  0  0  0  0  0  0
   35.5440   18.1390   33.0210 F   0  0  0  0  0  0  0  0  0  0  0  0
   37.8940   26.9560   34.1200 S   0  0  0  0  0  0  0  0  0  0  0  0
   37.9490   25.9890   35.6720 C   0  0  0  0  0  2  0  0  0  0  0  0
   39.0570   25.0430   35.6820 C   0  0  0  0  0  0  0  0  0  0  0  0
   39.2320   23.8040   36.1070 C   0  0  0  0  0  0  0  0  0  0  0  0
   40.4230   23.0630   35.9890 N   0  0  0  0  0  0  0  0  0  0  0  0
   41.4390   22.2770   36.6000 C   0  0  0  0  0  0  0  0  0  0  0  0
   41.4320   21.5240   37.6280 O   0  0  0  0  0  0  0  0  0  0  0  0
   42.3470   22.7800   35.5080 C   0  0  0  0  0  3  0  0  0  0  0  0
   42.8260   23.7240   35.7790 H   0  0  0  0  0  0  0  0  0  0  0  0
   41.0880   22.9200   34.6780 C   0  0  2  0  0  3  0  0  0  0  0  0
   40.9100   24.5070   33.8090 S   0  0  0  0  0  0  0  0  0  0  0  0
   40.2510   25.6620   35.0820 C   0  0  0  0  0  3  0  0  0  0  0  0
   41.0600   25.7170   35.8450 H   0  0  0  0  0  0  0  0  0  0  0  0
   38.0570   23.1650   36.7390 C   0  0  0  0  0  0  0  0  0  0  0  0
   37.4470   23.2890   37.8070 O   0  0  0  0  0  0  0  0  0  0  0  0
   37.0450   22.2540   36.6970 O   0  0  0  0  0  0  0  0  0  0  0  0
   37.1890   21.2560   36.6370 H   0  0  0  0  0  0  0  0  0  0  0  0
  1  6  1  0  0  0  0
  2  3  1  0  0  0  0
  2  1  2  0  0  0  0
  3  4  2  0  0  0  0
  4  5  1  0  0  0  0
  5 25  1  0  0  0  0
  6  5  2  0  0  0  0
  7  2  1  0  0  0  0
  8  3  1  0  0  0  0
  9  1  1  0  0  0  0
  9 10  1  0  0  0  0
 10 15  1  0  0  0  0
 10 14  1  0  0  0  0
 11 16  1  1  0  0  0
 11 21  1  0  0  0  0
 11 10  1  0  0  0  0
 12 11  1  0  0  0  0
 13 20  1  0  0  0  0
 13 12  1  0  0  0  0
 13  9  1  0  0  0  0
 17 12  1  0  0  0  0
 18 12  1  0  0  0  0
 19 13  1  0  0  0  0
 21 24  1  0  0  0  0
 21 23  1  0  0  0  0
 22 21  1  0  0  0  0
 25 26  1  0  0  0  0
 26 27  1  0  0  0  0
 27 28  2  0  0  0  0
 28 38  1  0  0  0  0
 29 28  1  0  0  0  0
 29 30  1  0  0  0  0
 30 31  2  0  0  0  0
 32 33  1  0  0  0  0
 32 30  1  0  0  0  0
 34 35  1  6  0  0  0
 34 32  1  0  0  0  0
 34 29  1  0  0  0  0
 35 36  1  0  0  0  0
 36 27  1  0  0  0  0
 36 37  1  0  0  0  0
 38 39  2  0  0  0  0
 40 38  1  0  0  0  0
 41 40  1  0  0  0  0
M  END
>  <minimizedAffinity>
-6.42391825

$$$$

 OpenBabel03272503313D

 41 44  0  0  1  0  0  0  0  0999 V2000
   37.4890   25.3710   33.3390 C   0  0  0  0  0  0  0  0  0  0  0  0
   36.9060   24.5480   32.3570 C   0  0  0  0  0  0  0  0  0  0  0  0
   36.0540   25.1640   31.4380 C   0  0  0  0  0  0  0  0  0  0  0  0
   35.8540   26.5120   31.5620 N   0  0  0  0  0  0  0  0  0  0  0  0
   36.4240   27.2590   32.5070 C   0  0  0  0  0  0  0  0  0  0  0  0
   37.2520   26.6880   33.4080 N   0  0  0  0  0  0  0  0  0  0  0  0
   37.0680   23.5030   32.2690 H   0  0  0  0  0  0  0  0  0  0  0  0
   35.5670   24.5980   30.6530 H   0  0  0  0  0  0  0  0  0  0  0  0
   38.3600   24.7220   34.2750 N   0  0  0  0  0  0  0  0  0  0  0  0
   38.7570   25.1780   35.5660 C   0  0  0  0  0  0  0  0  0  0  0  0
   39.0260   23.8910   36.3270 C   0  0  2  0  0  0  0  0  0  0  0  0
   38.6330   22.7650   35.3780 C   0  0  0  0  0  0  0  0  0  0  0  0
   39.0180   23.4440   34.0730 C   0  0  0  0  0  0  0  0  0  0  0  0
   37.9770   25.7670   36.0790 H   0  0  0  0  0  0  0  0  0  0  0  0
   39.7100   25.7420   35.4500 H   0  0  0  0  0  0  0  0  0  0  0  0
   40.1250   23.7680   36.5260 H   0  0  0  0  0  0  0  0  0  0  0  0
   37.5480   22.5840   35.3890 H   0  0  0  0  0  0  0  0  0  0  0  0
   39.2430   21.8580   35.5610 H   0  0  0  0  0  0  0  0  0  0  0  0
   38.5840   22.8820   33.2420 H   0  0  0  0  0  0  0  0  0  0  0  0
   40.1040   23.5440   34.0020 H   0  0  0  0  0  0  0  0  0  0  0  0
   38.3100   23.8200   37.6290 C   0  0  0  0  0  0  0  0  0  0  0  0
   38.0680   25.1350   38.0260 F   0  0  0  0  0  0  0  0  0  0  0  0
   39.1980   23.3200   38.5650 F   0  0  0  0  0  0  0  0  0  0  0  0
   37.1790   23.0650   37.6040 F   0  0  0  0  0  0  0  0  0  0  0  0
   36.1340   29.0110   32.6330 S   0  0  0  0  0  0  0  0  0  0  0  0
   35.6190   29.3420   34.3570 C   0  0  0  0  0  2  0  0  0  0  0  0
   34.3400   30.0370   34.4160 C   0  0  0  0  0  0  0  0  0  0  0  0
   33.8470   31.0420   35.1190 C   0  0  0  0  0  0  0  0  0  0  0  0
   32.5490   31.5680   34.9880 N   0  0  0  0  0  0  0  0  0  0  0  0
   31.3170   31.9480   35.5900 C   0  0  0  0  0  0  0  0  0  0  0  0
   31.0300   32.3470   36.7660 O   0  0  0  0  0  0  0  0  0  0  0  0
   30.6860   31.6490   34.2540 C   0  0  0  0  0  3  0  0  0  0  0  0
   30.3930   30.6000   34.1690 H   0  0  0  0  0  0  0  0  0  0  0  0
   32.0400   31.9830   33.6650 C   0  0  2  0  0  3  0  0  0  0  0  0
   32.6670   30.7850   32.4490 S   0  0  0  0  0  0  0  0  0  0  0  0
   33.3950   29.4320   33.4630 C   0  0  0  0  0  3  0  0  0  0  0  0
   32.5270   29.0130   34.0200 H   0  0  0  0  0  0  0  0  0  0  0  0
   34.7660   31.6530   36.1060 C   0  0  0  0  0  0  0  0  0  0  0  0
   35.8670   32.2120   36.0650 O   0  0  0  0  0  0  0  0  0  0  0  0
   35.0600   31.9890   37.3920 O   0  0  0  0  0  0  0  0  0  0  0  0
   35.1800   31.3150   38.1350 H   0  0  0  0  0  0  0  0  0  0  0  0
  1  6  1  0  0  0  0
  1  9  1  0  0  0  0
  2  1  2  0  0  0  0
  3  4  2  0  0  0  0
  3  2  1  0  0  0  0
  4  5  1  0  0  0  0
  5 25  1  0  0  0  0
  5  6  2  0  0  0  0
  7  2  1  0  0  0  0
  8  3  1  0  0  0  0
  9 10  1  0  0  0  0
 10 14  1  0  0  0  0
 10 11  1  0  0  0  0
 11 16  1  1  0  0  0
 11 21  1  0  0  0  0
 12 17  1  0  0  0  0
 12 18  1  0  0  0  0
 12 11  1  0  0  0  0
 13  9  1  0  0  0  0
 13 12  1  0  0  0  0
 15 10  1  0  0  0  0
 19 13  1  0  0  0  0
 20 13  1  0  0  0  0
 21 22  1  0  0  0  0
 21 23  1  0  0  0  0
 24 21  1  0  0  0  0
 25 26  1  0  0  0  0
 26 27  1  0  0  0  0
 27 28  2  0  0  0  0
 28 38  1  0  0  0  0
 29 28  1  0  0  0  0
 29 30  1  0  0  0  0
 30 31  2  0  0  0  0
 32 30  1  0  0  0  0
 33 32  1  0  0  0  0
 34 35  1  6  0  0  0
 34 32  1  0  0  0  0
 34 29  1  0  0  0  0
 35 36  1  0  0  0  0
 36 37  1  0  0  0  0
 36 27  1  0  0  0  0
 38 40  1  0  0  0  0
 39 38  2  0  0  0  0
 40 41  1  0  0  0  0
M  END
>  <minimizedAffinity>
-6.17333126

$$$$

 OpenBabel03272503313D

 41 44  0  0  1  0  0  0  0  0999 V2000
   37.5730   23.5810   31.8400 C   0  0  0  0  0  0  0  0  0  0  0  0
   36.3470   24.2600   31.7190 C   0  0  0  0  0  0  0  0  0  0  0  0
   36.3930   25.6560   31.6990 C   0  0  0  0  0  0  0  0  0  0  0  0
   37.6220   26.2510   31.7980 N   0  0  0  0  0  0  0  0  0  0  0  0
   38.7630   25.5730   31.9110 C   0  0  0  0  0  0  0  0  0  0  0  0
   38.7460   24.2240   31.9330 N   0  0  0  0  0  0  0  0  0  0  0  0
   35.3980   23.7890   31.6430 H   0  0  0  0  0  0  0  0  0  0  0  0
   35.4920   26.2490   31.6090 H   0  0  0  0  0  0  0  0  0  0  0  0
   37.5060   22.1500   31.8600 N   0  0  0  0  0  0  0  0  0  0  0  0
   37.2960   21.2960   32.9820 C   0  0  0  0  0  0  0  0  0  0  0  0
   36.6250   20.0750   32.3760 C   0  0  2  0  0  0  0  0  0  0  0  0
   36.4120   20.4130   30.9050 C   0  0  0  0  0  0  0  0  0  0  0  0
   37.6460   21.2790   30.7060 C   0  0  0  0  0  0  0  0  0  0  0  0
   36.6450   21.7430   33.7530 H   0  0  0  0  0  0  0  0  0  0  0  0
   38.2930   21.0060   33.3820 H   0  0  0  0  0  0  0  0  0  0  0  0
   37.3160   19.1880   32.3990 H   0  0  0  0  0  0  0  0  0  0  0  0
   35.5090   21.0240   30.7560 H   0  0  0  0  0  0  0  0  0  0  0  0
   36.4480   19.5020   30.2770 H   0  0  0  0  0  0  0  0  0  0  0  0
   37.5460   21.8240   29.7640 H   0  0  0  0  0  0  0  0  0  0  0  0
   38.5510   20.6690   30.7550 H   0  0  0  0  0  0  0  0  0  0  0  0
   35.3630   19.6960   33.0670 C   0  0  0  0  0  0  0  0  0  0  0  0
   34.3260   20.3310   32.3850 F   0  0  0  0  0  0  0  0  0  0  0  0
   35.3830   20.2850   34.3200 F   0  0  0  0  0  0  0  0  0  0  0  0
   35.1710   18.3540   33.1820 F   0  0  0  0  0  0  0  0  0  0  0  0
   40.3410   26.3890   32.0380 S   0  0  0  0  0  0  0  0  0  0  0  0
   40.5190   26.9360   33.7750 C   0  0  0  0  0  2  0  0  0  0  0  0
   40.1270   25.8930   34.7140 C   0  0  0  0  0  0  0  0  0  0  0  0
   39.0530   25.6370   35.4400 C   0  0  0  0  0  0  0  0  0  0  0  0
   38.8890   24.5250   36.2880 N   0  0  0  0  0  0  0  0  0  0  0  0
   38.5670   24.0040   37.5720 C   0  0  0  0  0  0  0  0  0  0  0  0
   37.8220   24.4420   38.5080 O   0  0  0  0  0  0  0  0  0  0  0  0
   39.4690   22.8490   37.2190 C   0  0  0  0  0  3  0  0  0  0  0  0
   40.5080   23.0470   37.4900 H   0  0  0  0  0  0  0  0  0  0  0  0
   39.1160   23.1570   35.7790 C   0  0  2  0  0  3  0  0  0  0  0  0
   40.5300   23.2360   34.6390 S   0  0  0  0  0  0  0  0  0  0  0  0
   41.2230   24.9240   34.8760 C   0  0  0  0  0  3  0  0  0  0  0  0
   41.5680   24.9310   35.9340 H   0  0  0  0  0  0  0  0  0  0  0  0
   37.9430   26.6080   35.3190 C   0  0  0  0  0  0  0  0  0  0  0  0
   37.7250   27.7590   35.7120 O   0  0  0  0  0  0  0  0  0  0  0  0
   36.7050   26.9320   34.8540 O   0  0  0  0  0  0  0  0  0  0  0  0
   35.8600   26.4430   35.1160 H   0  0  0  0  0  0  0  0  0  0  0  0
  1  9  1  0  0  0  0
  1  6  1  0  0  0  0
  2  1  2  0  0  0  0
  3  2  1  0  0  0  0
  3  4  2  0  0  0  0
  4  5  1  0  0  0  0
  5  6  2  0  0  0  0
  5 25  1  0  0  0  0
  7  2  1  0  0  0  0
  8  3  1  0  0  0  0
  9 10  1  0  0  0  0
 10 15  1  0  0  0  0
 10 14  1  0  0  0  0
 11 16  1  1  0  0  0
 11 10  1  0  0  0  0
 11 21  1  0  0  0  0
 12 11  1  0  0  0  0
 13 20  1  0  0  0  0
 13 12  1  0  0  0  0
 13  9  1  0  0  0  0
 17 12  1  0  0  0  0
 18 12  1  0  0  0  0
 19 13  1  0  0  0  0
 21 24  1  0  0  0  0
 21 23  1  0  0  0  0
 22 21  1  0  0  0  0
 25 26  1  0  0  0  0
 26 27  1  0  0  0  0
 27 36  1  0  0  0  0
 27 28  2  0  0  0  0
 28 29  1  0  0  0  0
 29 30  1  0  0  0  0
 30 31  2  0  0  0  0
 32 33  1  0  0  0  0
 32 30  1  0  0  0  0
 34 35  1  6  0  0  0
 34 29  1  0  0  0  0
 34 32  1  0  0  0  0
 35 36  1  0  0  0  0
 36 37  1  0  0  0  0
 38 28  1  0  0  0  0
 38 39  2  0  0  0  0
 40 41  1  0  0  0  0
 40 38  1  0  0  0  0
M  END
>  <minimizedAffinity>
-6.10181713

$$$$

 OpenBabel03272503313D

 41 44  0  0  1  0  0  0  0  0999 V2000
   38.3630   25.1260   35.4930 C   0  0  0  0  0  0  0  0  0  0  0  0
   38.3890   26.2750   36.3060 C   0  0  0  0  0  0  0  0  0  0  0  0
   38.1430   27.5000   35.6810 C   0  0  0  0  0  0  0  0  0  0  0  0
   37.8980   27.4870   34.3350 N   0  0  0  0  0  0  0  0  0  0  0  0
   37.8830   26.3770   33.5980 C   0  0  0  0  0  0  0  0  0  0  0  0
   38.1160   25.1810   34.1770 N   0  0  0  0  0  0  0  0  0  0  0  0
   38.5800   26.2740   37.3510 H   0  0  0  0  0  0  0  0  0  0  0  0
   38.1460   28.4280   36.2390 H   0  0  0  0  0  0  0  0  0  0  0  0
   38.6180   23.8780   36.1510 N   0  0  0  0  0  0  0  0  0  0  0  0
   39.4020   22.7830   35.6830 C   0  0  0  0  0  0  0  0  0  0  0  0
   39.8970   22.1320   36.9630 C   0  0  2  0  0  0  0  0  0  0  0  0
   39.4080   23.0280   38.0950 C   0  0  0  0  0  0  0  0  0  0  0  0
   38.1080   23.4880   37.4530 C   0  0  0  0  0  0  0  0  0  0  0  0
   40.2580   23.0960   35.0610 H   0  0  0  0  0  0  0  0  0  0  0  0
   38.7230   22.0790   35.1530 H   0  0  0  0  0  0  0  0  0  0  0  0
   39.4070   21.1330   37.1180 H   0  0  0  0  0  0  0  0  0  0  0  0
   40.0690   23.8950   38.2410 H   0  0  0  0  0  0  0  0  0  0  0  0
   39.2220   22.4430   39.0160 H   0  0  0  0  0  0  0  0  0  0  0  0
   37.7180   24.3400   38.0170 H   0  0  0  0  0  0  0  0  0  0  0  0
   37.4010   22.6570   37.3880 H   0  0  0  0  0  0  0  0  0  0  0  0
   41.3710   21.9310   36.9870 C   0  0  0  0  0  0  0  0  0  0  0  0
   41.9470   23.1980   37.0870 F   0  0  0  0  0  0  0  0  0  0  0  0
   41.7470   21.4640   35.7390 F   0  0  0  0  0  0  0  0  0  0  0  0
   41.8040   21.0820   37.9570 F   0  0  0  0  0  0  0  0  0  0  0  0
   37.5600   26.4070   31.8470 S   0  0  0  0  0  0  0  0  0  0  0  0
   35.8630   27.0560   31.6300 C   0  0  0  0  0  2  0  0  0  0  0  0
   35.8330   28.5120   31.6540 C   0  0  0  0  0  0  0  0  0  0  0  0
   36.2690   29.4750   30.8620 C   0  0  0  0  0  0  0  0  0  0  0  0
   36.1040   30.8540   31.0890 N   0  0  0  0  0  0  0  0  0  0  0  0
   36.6770   32.1530   31.2000 C   0  0  0  0  0  0  0  0  0  0  0  0
   37.7160   32.6730   30.6790 O   0  0  0  0  0  0  0  0  0  0  0  0
   35.5310   32.4700   32.1270 C   0  0  0  0  0  3  0  0  0  0  0  0
   35.7620   32.2100   33.1620 H   0  0  0  0  0  0  0  0  0  0  0  0
   34.7640   31.4120   31.3600 C   0  0  2  0  0  3  0  0  0  0  0  0
   33.8780   30.2050   32.3920 S   0  0  0  0  0  0  0  0  0  0  0  0
   35.1630   28.9800   32.8790 C   0  0  0  0  0  3  0  0  0  0  0  0
   35.8830   29.5700   33.4910 H   0  0  0  0  0  0  0  0  0  0  0  0
   36.9710   29.0360   29.6350 C   0  0  0  0  0  0  0  0  0  0  0  0
   37.9200   29.4500   28.9600 O   0  0  0  0  0  0  0  0  0  0  0  0
   37.1130   28.1500   28.6110 O   0  0  0  0  0  0  0  0  0  0  0  0
   36.4020   27.9770   27.9140 H   0  0  0  0  0  0  0  0  0  0  0  0
  1  9  1  0  0  0  0
  1  2  1  0  0  0  0
  2  7  1  0  0  0  0
  3  8  1  0  0  0  0
  3  2  2  0  0  0  0
  4  3  1  0  0  0  0
  5  6  1  0  0  0  0
  5  4  2  0  0  0  0
  6  1  2  0  0  0  0
  9 13  1  0  0  0  0
 10  9  1  0  0  0  0
 10 11  1  0  0  0  0
 11 21  1  0  0  0  0
 11 16  1  1  0  0  0
 11 12  1  0  0  0  0
 12 17  1  0  0  0  0
 12 18  1  0  0  0  0
 13 19  1  0  0  0  0
 13 12  1  0  0  0  0
 14 10  1  0  0  0  0
 15 10  1  0  0  0  0
 20 13  1  0  0  0  0
 21 22  1  0  0  0  0
 21 24  1  0  0  0  0
 23 21  1  0  0  0  0
 25  5  1  0  0  0  0
 26 27  1  0  0  0  0
 26 25  1  0  0  0  0
 27 36  1  0  0  0  0
 28 29  1  0  0  0  0
 28 27  2  0  0  0  0
 29 30  1  0  0  0  0
 29 34  1  0  0  0  0
 30 32  1  0  0  0  0
 31 30  2  0  0  0  0
 32 33  1  0  0  0  0
 34 32  1  1  0  0  0
 34 35  1  0  0  0  0
 35 36  1  0  0  0  0
 36 37  1  0  0  0  0
 38 28  1  0  0  0  0
 39 38  2  0  0  0  0
 40 38  1  0  0  0  0
 41 40  1  0  0  0  0
M  END
>  <minimizedAffinity>
-6.08706999

$$$$

 OpenBabel03272503313D

 41 44  0  0  1  0  0  0  0  0999 V2000
   37.4560   25.5360   33.3050 C   0  0  0  0  0  0  0  0  0  0  0  0
   36.8890   24.7170   32.3110 C   0  0  0  0  0  0  0  0  0  0  0  0
   36.0200   25.3300   31.4050 C   0  0  0  0  0  0  0  0  0  0  0  0
   35.7900   26.6700   31.5540 N   0  0  0  0  0  0  0  0  0  0  0  0
   36.3460   27.4130   32.5100 C   0  0  0  0  0  0  0  0  0  0  0  0
   37.1890   26.8460   33.3980 N   0  0  0  0  0  0  0  0  0  0  0  0
   37.0750   23.6780   32.2030 H   0  0  0  0  0  0  0  0  0  0  0  0
   35.5440   24.7670   30.6110 H   0  0  0  0  0  0  0  0  0  0  0  0
   38.3440   24.8910   34.2270 N   0  0  0  0  0  0  0  0  0  0  0  0
   38.6900   25.3030   35.5480 C   0  0  0  0  0  0  0  0  0  0  0  0
   39.0170   23.9960   36.2500 C   0  0  2  0  0  0  0  0  0  0  0  0
   38.7080   22.8990   35.2390 C   0  0  0  0  0  0  0  0  0  0  0  0
   39.0780   23.6630   33.9770 C   0  0  0  0  0  0  0  0  0  0  0  0
   37.8680   25.8200   36.0720 H   0  0  0  0  0  0  0  0  0  0  0  0
   39.6110   25.9240   35.4810 H   0  0  0  0  0  0  0  0  0  0  0  0
   40.1170   23.9240   36.4670 H   0  0  0  0  0  0  0  0  0  0  0  0
   37.6350   22.6570   35.2170 H   0  0  0  0  0  0  0  0  0  0  0  0
   39.3640   22.0200   35.3900 H   0  0  0  0  0  0  0  0  0  0  0  0
   38.6930   23.1210   33.1100 H   0  0  0  0  0  0  0  0  0  0  0  0
   40.1580   23.8280   33.9350 H   0  0  0  0  0  0  0  0  0  0  0  0
   38.2810   23.8200   37.5310 C   0  0  0  0  0  0  0  0  0  0  0  0
   37.0250   23.3090   37.2060 F   0  0  0  0  0  0  0  0  0  0  0  0
   38.0340   25.0810   38.0450 F   0  0  0  0  0  0  0  0  0  0  0  0
   38.9340   23.0580   38.4500 F   0  0  0  0  0  0  0  0  0  0  0  0
   36.0160   29.1560   32.6680 S   0  0  0  0  0  0  0  0  0  0  0  0
   34.2900   29.3200   33.2510 C   0  0  0  0  0  2  0  0  0  0  0  0
   34.1610   30.3430   34.2800 C   0  0  0  0  0  0  0  0  0  0  0  0
   33.3260   30.5740   35.2770 C   0  0  0  0  0  0  0  0  0  0  0  0
   33.4120   31.6510   36.1800 N   0  0  0  0  0  0  0  0  0  0  0  0
   32.7940   32.7610   36.8210 C   0  0  0  0  0  0  0  0  0  0  0  0
   31.5800   33.0060   37.1180 O   0  0  0  0  0  0  0  0  0  0  0  0
   34.1780   33.3510   36.9130 C   0  0  0  0  0  3  0  0  0  0  0  0
   34.4340   33.9280   36.0210 H   0  0  0  0  0  0  0  0  0  0  0  0
   34.6680   31.9180   36.9070 C   0  0  2  0  0  3  0  0  0  0  0  0
   36.0370   31.5770   35.7590 S   0  0  0  0  0  0  0  0  0  0  0  0
   35.2240   31.3500   34.1240 C   0  0  0  0  0  3  0  0  0  0  0  0
   34.7650   32.3410   33.9080 H   0  0  0  0  0  0  0  0  0  0  0  0
   32.2290   29.5940   35.4430 C   0  0  0  0  0  0  0  0  0  0  0  0
   32.0710   28.5370   36.0650 O   0  0  0  0  0  0  0  0  0  0  0  0
   30.9610   29.1850   35.1640 O   0  0  0  0  0  0  0  0  0  0  0  0
   30.6380   28.9490   34.2360 H   0  0  0  0  0  0  0  0  0  0  0  0
  1  6  1  0  0  0  0
  1  9  1  0  0  0  0
  2  1  2  0  0  0  0
  3  4  2  0  0  0  0
  3  2  1  0  0  0  0
  4  5  1  0  0  0  0
  5 25  1  0  0  0  0
  5  6  2  0  0  0  0
  7  2  1  0  0  0  0
  8  3  1  0  0  0  0
  9 10  1  0  0  0  0
 10 14  1  0  0  0  0
 10 11  1  0  0  0  0
 11 16  1  1  0  0  0
 11 21  1  0  0  0  0
 12 18  1  0  0  0  0
 12 11  1  0  0  0  0
 13  9  1  0  0  0  0
 13 12  1  0  0  0  0
 15 10  1  0  0  0  0
 17 12  1  0  0  0  0
 19 13  1  0  0  0  0
 20 13  1  0  0  0  0
 21 23  1  0  0  0  0
 21 24  1  0  0  0  0
 22 21  1  0  0  0  0
 25 26  1  0  0  0  0
 26 27  1  0  0  0  0
 27 28  2  0  0  0  0
 28 38  1  0  0  0  0
 28 29  1  0  0  0  0
 29 30  1  0  0  0  0
 29 34  1  0  0  0  0
 30 32  1  0  0  0  0
 30 31  2  0  0  0  0
 33 32  1  0  0  0  0
 34 35  1  6  0  0  0
 34 32  1  0  0  0  0
 36 27  1  0  0  0  0
 36 35  1  0  0  0  0
 37 36  1  0  0  0  0
 38 39  2  0  0  0  0
 40 38  1  0  0  0  0
 41 40  1  0  0  0  0
M  END
>  <minimizedAffinity>
-6.08636189

$$$$

 OpenBabel03272503313D

 41 44  0  0  1  0  0  0  0  0999 V2000
   36.5950   27.8460   32.1700 C   0  0  0  0  0  0  0  0  0  0  0  0
   35.9000   26.7240   31.6790 C   0  0  0  0  0  0  0  0  0  0  0  0
   36.6700   25.6530   31.2180 C   0  0  0  0  0  0  0  0  0  0  0  0
   38.0310   25.7770   31.2800 N   0  0  0  0  0  0  0  0  0  0  0  0
   38.6530   26.8560   31.7520 C   0  0  0  0  0  0  0  0  0  0  0  0
   37.9340   27.9050   32.2040 N   0  0  0  0  0  0  0  0  0  0  0  0
   34.8430   26.6380   31.6360 H   0  0  0  0  0  0  0  0  0  0  0  0
   36.2080   24.7560   30.8260 H   0  0  0  0  0  0  0  0  0  0  0  0
   35.7900   28.9360   32.6380 N   0  0  0  0  0  0  0  0  0  0  0  0
   35.2440   29.1270   33.9410 C   0  0  0  0  0  0  0  0  0  0  0  0
   35.1500   30.6380   34.0650 C   0  0  2  0  0  0  0  0  0  0  0  0
   35.7840   31.1940   32.7950 C   0  0  0  0  0  0  0  0  0  0  0  0
   35.3710   30.0790   31.8470 C   0  0  0  0  0  0  0  0  0  0  0  0
   35.8810   28.7190   34.7440 H   0  0  0  0  0  0  0  0  0  0  0  0
   34.2180   28.6940   33.9470 H   0  0  0  0  0  0  0  0  0  0  0  0
   34.0770   30.9730   34.0540 H   0  0  0  0  0  0  0  0  0  0  0  0
   36.8810   31.2230   32.8680 H   0  0  0  0  0  0  0  0  0  0  0  0
   35.3260   32.1610   32.5100 H   0  0  0  0  0  0  0  0  0  0  0  0
   35.9430   30.1730   30.9210 H   0  0  0  0  0  0  0  0  0  0  0  0
   34.2900   30.0960   31.6860 H   0  0  0  0  0  0  0  0  0  0  0  0
   35.7860   31.1650   35.3020 C   0  0  0  0  0  0  0  0  0  0  0  0
   36.6380   30.1670   35.7720 F   0  0  0  0  0  0  0  0  0  0  0  0
   34.7970   31.2760   36.2640 F   0  0  0  0  0  0  0  0  0  0  0  0
   36.4190   32.3590   35.1390 F   0  0  0  0  0  0  0  0  0  0  0  0
   40.4290   26.9750   31.8130 S   0  0  0  0  0  0  0  0  0  0  0  0
   40.9010   26.9760   33.5800 C   0  0  0  0  0  2  0  0  0  0  0  0
   40.4430   25.7740   34.2640 C   0  0  0  0  0  0  0  0  0  0  0  0
   39.5200   25.5020   35.1700 C   0  0  0  0  0  0  0  0  0  0  0  0
   39.2360   24.2230   35.6850 N   0  0  0  0  0  0  0  0  0  0  0  0
   39.0620   23.3690   36.8100 C   0  0  0  0  0  0  0  0  0  0  0  0
   38.6850   23.5990   38.0040 O   0  0  0  0  0  0  0  0  0  0  0  0
   39.5110   22.2500   35.9040 C   0  0  0  0  0  3  0  0  0  0  0  0
   40.5970   22.1360   35.9060 H   0  0  0  0  0  0  0  0  0  0  0  0
   38.9600   23.0940   34.7740 C   0  0  2  0  0  3  0  0  0  0  0  0
   40.0650   23.2770   33.3410 S   0  0  0  0  0  0  0  0  0  0  0  0
   41.2350   24.6130   33.8250 C   0  0  0  0  0  3  0  0  0  0  0  0
   41.7840   24.1910   34.6970 H   0  0  0  0  0  0  0  0  0  0  0  0
   38.7250   26.6530   35.6510 C   0  0  0  0  0  0  0  0  0  0  0  0
   37.5600   27.0440   35.5180 O   0  0  0  0  0  0  0  0  0  0  0  0
   38.6360   27.8080   36.3670 O   0  0  0  0  0  0  0  0  0  0  0  0
   39.1740   28.6380   36.1640 H   0  0  0  0  0  0  0  0  0  0  0  0
  1  6  1  0  0  0  0
  1  9  1  0  0  0  0
  2  1  2  0  0  0  0
  3  4  2  0  0  0  0
  3  2  1  0  0  0  0
  4  5  1  0  0  0  0
  5 25  1  0  0  0  0
  5  6  2  0  0  0  0
  7  2  1  0  0  0  0
  8  3  1  0  0  0  0
  9 10  1  0  0  0  0
 10 15  1  0  0  0  0
 10 11  1  0  0  0  0
 10 14  1  0  0  0  0
 11 16  1  1  0  0  0
 11 21  1  0  0  0  0
 12 17  1  0  0  0  0
 12 11  1  0  0  0  0
 13  9  1  0  0  0  0
 13 12  1  0  0  0  0
 18 12  1  0  0  0  0
 19 13  1  0  0  0  0
 20 13  1  0  0  0  0
 21 22  1  0  0  0  0
 21 23  1  0  0  0  0
 24 21  1  0  0  0  0
 25 26  1  0  0  0  0
 26 27  1  0  0  0  0
 27 28  2  0  0  0  0
 28 38  1  0  0  0  0
 28 29  1  0  0  0  0
 29 30  1  0  0  0  0
 30 31  2  0  0  0  0
 32 33  1  0  0  0  0
 32 30  1  0  0  0  0
 34 35  1  6  0  0  0
 34 29  1  0  0  0  0
 34 32  1  0  0  0  0
 35 36  1  0  0  0  0
 36 27  1  0  0  0  0
 36 37  1  0  0  0  0
 38 40  1  0  0  0  0
 39 38  2  0  0  0  0
 41 40  1  0  0  0  0
M  END
>  <minimizedAffinity>
-6.08581209

$$$$

 OpenBabel03272503313D

 41 44  0  0  1  0  0  0  0  0999 V2000
   36.2330   29.2250   32.0510 C   0  0  0  0  0  0  0  0  0  0  0  0
   36.5540   29.3800   30.6890 C   0  0  0  0  0  0  0  0  0  0  0  0
   37.0980   28.2720   30.0360 C   0  0  0  0  0  0  0  0  0  0  0  0
   37.2760   27.1290   30.7670 N   0  0  0  0  0  0  0  0  0  0  0  0
   36.9610   27.0210   32.0570 C   0  0  0  0  0  0  0  0  0  0  0  0
   36.4330   28.0760   32.7120 N   0  0  0  0  0  0  0  0  0  0  0  0
   36.4110   30.2720   30.1310 H   0  0  0  0  0  0  0  0  0  0  0  0
   37.3710   28.3120   28.9890 H   0  0  0  0  0  0  0  0  0  0  0  0
   35.6760   30.3730   32.7060 N   0  0  0  0  0  0  0  0  0  0  0  0
   35.1750   30.4660   34.0370 C   0  0  0  0  0  0  0  0  0  0  0  0
   35.4040   31.9240   34.3990 C   0  0  2  0  0  0  0  0  0  0  0  0
   36.1510   32.5270   33.2140 C   0  0  0  0  0  0  0  0  0  0  0  0
   35.5160   31.6890   32.1160 C   0  0  0  0  0  0  0  0  0  0  0  0
   35.7050   29.8100   34.7490 H   0  0  0  0  0  0  0  0  0  0  0  0
   34.0810   30.2650   34.0040 H   0  0  0  0  0  0  0  0  0  0  0  0
   34.4280   32.4750   34.4700 H   0  0  0  0  0  0  0  0  0  0  0  0
   37.2280   32.3110   33.2610 H   0  0  0  0  0  0  0  0  0  0  0  0
   35.9110   33.6020   33.0970 H   0  0  0  0  0  0  0  0  0  0  0  0
   36.1010   31.8060   31.2000 H   0  0  0  0  0  0  0  0  0  0  0  0
   34.4640   31.9600   31.9890 H   0  0  0  0  0  0  0  0  0  0  0  0
   36.1310   32.1010   35.6850 C   0  0  0  0  0  0  0  0  0  0  0  0
   36.6250   30.8470   36.0430 F   0  0  0  0  0  0  0  0  0  0  0  0
   35.1910   32.4060   36.6540 F   0  0  0  0  0  0  0  0  0  0  0  0
   37.0990   33.0550   35.6520 F   0  0  0  0  0  0  0  0  0  0  0  0
   37.2100   25.5130   32.9700 S   0  0  0  0  0  0  0  0  0  0  0  0
   38.8980   24.9270   32.5780 C   0  0  0  0  0  2  0  0  0  0  0  0
   39.4960   24.2080   33.6950 C   0  0  0  0  0  0  0  0  0  0  0  0
   40.2780   24.5290   34.7100 C   0  0  0  0  0  0  0  0  0  0  0  0
   40.7270   23.6410   35.7060 N   0  0  0  0  0  0  0  0  0  0  0  0
   41.8040   23.0770   36.4460 C   0  0  0  0  0  0  0  0  0  0  0  0
   42.9490   23.5330   36.7660 O   0  0  0  0  0  0  0  0  0  0  0  0
   40.9340   21.8540   36.5880 C   0  0  0  0  0  3  0  0  0  0  0  0
   41.0630   21.1640   35.7520 H   0  0  0  0  0  0  0  0  0  0  0  0
   39.7640   22.8070   36.4530 C   0  0  2  0  0  3  0  0  0  0  0  0
   38.4790   22.2860   35.2770 S   0  0  0  0  0  0  0  0  0  0  0  0
   39.1290   22.7830   33.6290 C   0  0  0  0  0  3  0  0  0  0  0  0
   40.0510   22.1710   33.5040 H   0  0  0  0  0  0  0  0  0  0  0  0
   40.6860   25.9500   34.7890 C   0  0  0  0  0  0  0  0  0  0  0  0
   40.1530   27.0070   35.1430 O   0  0  0  0  0  0  0  0  0  0  0  0
   41.6260   26.9180   34.6090 O   0  0  0  0  0  0  0  0  0  0  0  0
   42.0210   27.1580   33.7110 H   0  0  0  0  0  0  0  0  0  0  0  0
  1  9  1  0  0  0  0
  1  6  1  0  0  0  0
  2  1  2  0  0  0  0
  3  2  1  0  0  0  0
  3  4  2  0  0  0  0
  4  5  1  0  0  0  0
  5  6  2  0  0  0  0
  5 25  1  0  0  0  0
  7  2  1  0  0  0  0
  8  3  1  0  0  0  0
  9 10  1  0  0  0  0
 10 11  1  0  0  0  0
 10 14  1  0  0  0  0
 11 16  1  1  0  0  0
 11 21  1  0  0  0  0
 12 17  1  0  0  0  0
 12 11  1  0  0  0  0
 13  9  1  0  0  0  0
 13 12  1  0  0  0  0
 15 10  1  0  0  0  0
 18 12  1  0  0  0  0
 19 13  1  0  0  0  0
 20 13  1  0  0  0  0
 21 22  1  0  0  0  0
 21 23  1  0  0  0  0
 24 21  1  0  0  0  0
 26 25  1  0  0  0  0
 26 27  1  0  0  0  0
 27 28  2  0  0  0  0
 28 38  1  0  0  0  0
 28 29  1  0  0  0  0
 29 30  1  0  0  0  0
 29 34  1  0  0  0  0
 30 32  1  0  0  0  0
 30 31  2  0  0  0  0
 33 32  1  0  0  0  0
 34 35  1  6  0  0  0
 34 32  1  0  0  0  0
 36 27  1  0  0  0  0
 36 35  1  0  0  0  0
 37 36  1  0  0  0  0
 38 39  2  0  0  0  0
 40 38  1  0  0  0  0
 41 40  1  0  0  0  0
M  END
>  <minimizedAffinity>
-6.01730824

$$$$

 OpenBabel03272503313D

 41 44  0  0  1  0  0  0  0  0999 V2000
   38.3360   22.5730   34.1690 C   0  0  0  0  0  0  0  0  0  0  0  0
   37.6910   22.3800   35.4050 C   0  0  0  0  0  0  0  0  0  0  0  0
   38.3630   22.8240   36.5470 C   0  0  0  0  0  0  0  0  0  0  0  0
   39.5880   23.4090   36.3750 N   0  0  0  0  0  0  0  0  0  0  0  0
   40.1670   23.5730   35.1870 C   0  0  0  0  0  0  0  0  0  0  0  0
   39.5400   23.1540   34.0680 N   0  0  0  0  0  0  0  0  0  0  0  0
   36.7400   21.9250   35.5280 H   0  0  0  0  0  0  0  0  0  0  0  0
   37.9320   22.7110   37.5340 H   0  0  0  0  0  0  0  0  0  0  0  0
   37.6330   22.1110   33.0090 N   0  0  0  0  0  0  0  0  0  0  0  0
   37.4090   20.7640   32.5970 C   0  0  0  0  0  0  0  0  0  0  0  0
   36.1070   20.8460   31.8180 C   0  0  2  0  0  0  0  0  0  0  0  0
   35.6360   22.2890   31.9580 C   0  0  0  0  0  0  0  0  0  0  0  0
   37.0030   22.9540   32.0090 C   0  0  0  0  0  0  0  0  0  0  0  0
   37.3020   20.0620   33.4420 H   0  0  0  0  0  0  0  0  0  0  0  0
   38.2320   20.4770   31.9050 H   0  0  0  0  0  0  0  0  0  0  0  0
   36.2870   20.6790   30.7210 H   0  0  0  0  0  0  0  0  0  0  0  0
   35.1140   22.4550   32.9120 H   0  0  0  0  0  0  0  0  0  0  0  0
   35.0600   22.6090   31.0690 H   0  0  0  0  0  0  0  0  0  0  0  0
   36.8820   23.9840   32.3540 H   0  0  0  0  0  0  0  0  0  0  0  0
   37.4970   22.8830   31.0370 H   0  0  0  0  0  0  0  0  0  0  0  0
   35.0880   19.8630   32.2740 C   0  0  0  0  0  0  0  0  0  0  0  0
   35.3050   19.6640   33.6370 F   0  0  0  0  0  0  0  0  0  0  0  0
   35.3880   18.6490   31.6820 F   0  0  0  0  0  0  0  0  0  0  0  0
   33.8050   20.2180   31.9950 F   0  0  0  0  0  0  0  0  0  0  0  0
   41.7650   24.3390   35.0100 S   0  0  0  0  0  0  0  0  0  0  0  0
   41.4720   26.1270   34.7520 C   0  0  0  0  0  2  0  0  0  0  0  0
   40.4980   26.3690   33.6960 C   0  0  0  0  0  0  0  0  0  0  0  0
   39.2770   26.8710   33.6390 C   0  0  0  0  0  0  0  0  0  0  0  0
   38.5140   27.0270   32.4670 N   0  0  0  0  0  0  0  0  0  0  0  0
   37.2990   26.8050   31.7610 C   0  0  0  0  0  0  0  0  0  0  0  0
   36.0980   26.6540   32.1580 O   0  0  0  0  0  0  0  0  0  0  0  0
   38.1350   26.8490   30.5080 C   0  0  0  0  0  3  0  0  0  0  0  0
   38.5370   25.8660   30.2530 H   0  0  0  0  0  0  0  0  0  0  0  0
   39.0740   27.7350   31.2990 C   0  0  2  0  0  3  0  0  0  0  0  0
   40.8330   27.2850   31.1900 S   0  0  0  0  0  0  0  0  0  0  0  0
   41.0360   25.9150   32.4020 C   0  0  0  0  0  3  0  0  0  0  0  0
   40.3940   25.0990   32.0020 H   0  0  0  0  0  0  0  0  0  0  0  0
   38.6980   27.3120   34.9280 C   0  0  0  0  0  0  0  0  0  0  0  0
   37.5890   27.6900   35.3190 O   0  0  0  0  0  0  0  0  0  0  0  0
   38.8410   27.5710   36.2570 O   0  0  0  0  0  0  0  0  0  0  0  0
   39.4610   28.2770   36.6290 H   0  0  0  0  0  0  0  0  0  0  0  0
  1  2  1  0  0  0  0
  2  7  1  0  0  0  0
  2  3  2  0  0  0  0
  3  8  1  0  0  0  0
  4  3  1  0  0  0  0
  5  4  2  0  0  0  0
  6  1  2  0  0  0  0
  6  5  1  0  0  0  0
  9  1  1  0  0  0  0
 10  9  1  0  0  0  0
 10 14  1  0  0  0  0
 11 16  1  6  0  0  0
 11 12  1  0  0  0  0
 11 21  1  0  0  0  0
 11 10  1  0  0  0  0
 12 13  1  0  0  0  0
 12 17  1  0  0  0  0
 13 19  1  0  0  0  0
 13  9  1  0  0  0  0
 15 10  1  0  0  0  0
 18 12  1  0  0  0  0
 20 13  1  0  0  0  0
 21 22  1  0  0  0  0
 23 21  1  0  0  0  0
 24 21  1  0  0  0  0
 25  5  1  0  0  0  0
 26 25  1  0  0  0  0
 27 26  1  0  0  0  0
 28 27  2  0  0  0  0
 28 38  1  0  0  0  0
 29 28  1  0  0  0  0
 30 31  2  0  0  0  0
 30 29  1  0  0  0  0
 32 30  1  0  0  0  0
 33 32  1  0  0  0  0
 34 32  1  6  0  0  0
 34 29  1  0  0  0  0
 35 34  1  0  0  0  0
 35 36  1  0  0  0  0
 36 27  1  0  0  0  0
 37 36  1  0  0  0  0
 38 39  2  0  0  0  0
 38 40  1  0  0  0  0
 40 41  1  0  0  0  0
M  END
>  <minimizedAffinity>
-5.93935156

$$$$

 OpenBabel03272503313D

 41 44  0  0  1  0  0  0  0  0999 V2000
   37.9520   24.5050   33.3720 C   0  0  0  0  0  0  0  0  0  0  0  0
   37.1810   23.6140   32.6020 C   0  0  0  0  0  0  0  0  0  0  0  0
   36.4750   24.1550   31.5250 C   0  0  0  0  0  0  0  0  0  0  0  0
   36.5870   25.5010   31.3040 N   0  0  0  0  0  0  0  0  0  0  0  0
   37.3280   26.3130   32.0570 C   0  0  0  0  0  0  0  0  0  0  0  0
   38.0210   25.8160   33.1030 N   0  0  0  0  0  0  0  0  0  0  0  0
   37.1010   22.5710   32.7820 H   0  0  0  0  0  0  0  0  0  0  0  0
   35.8590   23.5350   30.8860 H   0  0  0  0  0  0  0  0  0  0  0  0
   38.6700   23.9330   34.4740 N   0  0  0  0  0  0  0  0  0  0  0  0
   39.0860   24.5740   35.6770 C   0  0  0  0  0  0  0  0  0  0  0  0
   39.1130   23.4410   36.6890 C   0  0  2  0  0  0  0  0  0  0  0  0
   38.5790   22.2190   35.9500 C   0  0  0  0  0  0  0  0  0  0  0  0
   39.1180   22.5550   34.5680 C   0  0  0  0  0  0  0  0  0  0  0  0
   38.3940   25.3650   36.0120 H   0  0  0  0  0  0  0  0  0  0  0  0
   40.1220   24.9510   35.5220 H   0  0  0  0  0  0  0  0  0  0  0  0
   40.1690   23.1940   36.9840 H   0  0  0  0  0  0  0  0  0  0  0  0
   37.4790   22.2120   35.9200 H   0  0  0  0  0  0  0  0  0  0  0  0
   39.0250   21.2870   36.3460 H   0  0  0  0  0  0  0  0  0  0  0  0
   38.6300   21.9110   33.8330 H   0  0  0  0  0  0  0  0  0  0  0  0
   40.2080   22.4730   34.5550 H   0  0  0  0  0  0  0  0  0  0  0  0
   38.3460   23.7430   37.9280 C   0  0  0  0  0  0  0  0  0  0  0  0
   38.0260   25.0990   37.8800 F   0  0  0  0  0  0  0  0  0  0  0  0
   39.2170   23.6170   38.9960 F   0  0  0  0  0  0  0  0  0  0  0  0
   37.2550   22.9540   38.1150 F   0  0  0  0  0  0  0  0  0  0  0  0
   37.4440   28.0600   31.7340 S   0  0  0  0  0  0  0  0  0  0  0  0
   35.7550   28.7440   31.8880 C   0  0  0  0  0  2  0  0  0  0  0  0
   35.6540   29.6960   32.9850 C   0  0  0  0  0  0  0  0  0  0  0  0
   35.8390   30.9980   33.1210 C   0  0  0  0  0  0  0  0  0  0  0  0
   35.6590   31.7260   34.3120 N   0  0  0  0  0  0  0  0  0  0  0  0
   36.1720   32.6380   35.2770 C   0  0  0  0  0  0  0  0  0  0  0  0
   37.0300   33.5760   35.1920 O   0  0  0  0  0  0  0  0  0  0  0  0
   35.2630   31.9500   36.2630 C   0  0  0  0  0  3  0  0  0  0  0  0
   35.7450   31.0880   36.7280 H   0  0  0  0  0  0  0  0  0  0  0  0
   34.3940   31.6260   35.0660 C   0  0  2  0  0  3  0  0  0  0  0  0
   33.8420   29.8960   34.9620 S   0  0  0  0  0  0  0  0  0  0  0  0
   35.2680   28.9980   34.2230 C   0  0  0  0  0  3  0  0  0  0  0  0
   36.0800   29.1090   34.9770 H   0  0  0  0  0  0  0  0  0  0  0  0
   36.2530   31.7230   31.9000 C   0  0  0  0  0  0  0  0  0  0  0  0
   35.6760   32.3010   30.9720 O   0  0  0  0  0  0  0  0  0  0  0  0
   37.2370   32.1890   31.0820 O   0  0  0  0  0  0  0  0  0  0  0  0
   37.8950   31.5940   30.5980 H   0  0  0  0  0  0  0  0  0  0  0  0
  1  9  1  0  0  0  0
  2  7  1  0  0  0  0
  2  1  2  0  0  0  0
  3  2  1  0  0  0  0
  4  3  2  0  0  0  0
  4  5  1  0  0  0  0
  5  6  2  0  0  0  0
  6  1  1  0  0  0  0
  8  3  1  0  0  0  0
  9 13  1  0  0  0  0
  9 10  1  0  0  0  0
 10 14  1  0  0  0  0
 10 11  1  0  0  0  0
 11 16  1  1  0  0  0
 11 21  1  0  0  0  0
 12 18  1  0  0  0  0
 12 11  1  0  0  0  0
 13 12  1  0  0  0  0
 15 10  1  0  0  0  0
 17 12  1  0  0  0  0
 19 13  1  0  0  0  0
 20 13  1  0  0  0  0
 21 24  1  0  0  0  0
 21 23  1  0  0  0  0
 22 21  1  0  0  0  0
 25 26  1  0  0  0  0
 25  5  1  0  0  0  0
 26 27  1  0  0  0  0
 27 28  2  0  0  0  0
 27 36  1  0  0  0  0
 28 29  1  0  0  0  0
 29 34  1  0  0  0  0
 29 30  1  0  0  0  0
 30 32  1  0  0  0  0
 31 30  2  0  0  0  0
 32 33  1  0  0  0  0
 34 35  1  1  0  0  0
 34 32  1  0  0  0  0
 36 35  1  0  0  0  0
 36 37  1  0  0  0  0
 38 28  1  0  0  0  0
 39 38  2  0  0  0  0
 40 38  1  0  0  0  0
 41 40  1  0  0  0  0
M  END
>  <minimizedAffinity>
-5.84989643

$$$$
