
     RDKit          3D

 46 49  0  0  0  0  0  0  0  0999 V2000
   36.4617   29.8950   48.6777 N   0  0  0  0  0  0  0  0  0  0  0  0
   37.5825   30.6583   48.2371 C   0  0  0  0  0  0  0  0  0  0  0  0
   38.1014   31.2950   49.5152 C   0  0  2  0  0  0  0  0  0  0  0  0
   37.1086   30.8972   50.6017 C   0  0  0  0  0  0  0  0  0  0  0  0
   36.7350   29.5280   50.0561 C   0  0  0  0  0  0  0  0  0  0  0  0
   35.2874   29.5429   47.9362 C   0  0  0  0  0  0  0  0  0  0  0  0
   35.2280   30.0046   46.6079 C   0  0  0  0  0  0  0  0  0  0  0  0
   34.0896   29.6697   45.8699 C   0  0  0  0  0  0  0  0  0  0  0  0
   33.1270   28.9235   46.4927 N   0  0  0  0  0  0  0  0  0  0  0  0
   33.2191   28.5044   47.7535 C   0  0  0  0  0  0  0  0  0  0  0  0
   34.3080   28.8138   48.4885 N   0  0  0  0  0  0  0  0  0  0  0  0
   31.9405   27.5333   48.5253 S   0  0  0  0  0  0  0  0  0  0  0  0
   38.2734   32.7685   49.4074 C   0  0  0  0  0  0  0  0  0  0  0  0
   37.0961   33.3465   49.8816 F   0  0  0  0  0  0  0  0  0  0  0  0
   38.3099   33.0846   48.0603 F   0  0  0  0  0  0  0  0  0  0  0  0
   39.3808   33.2488   50.0330 F   0  0  0  0  0  0  0  0  0  0  0  0
   37.3168   31.4388   47.5035 H   0  0  0  0  0  0  0  0  0  0  0  0
   38.3465   29.9484   47.8460 H   0  0  0  0  0  0  0  0  0  0  0  0
   39.0894   30.8492   49.8109 H   0  0  0  0  0  0  0  0  0  0  0  0
   36.2206   31.5462   50.5989 H   0  0  0  0  0  0  0  0  0  0  0  0
   37.6066   30.8197   51.5882 H   0  0  0  0  0  0  0  0  0  0  0  0
   35.8402   29.1740   50.5738 H   0  0  0  0  0  0  0  0  0  0  0  0
   37.5799   28.8401   50.1409 H   0  0  0  0  0  0  0  0  0  0  0  0
   35.9812   30.5836   46.1341 H   0  0  0  0  0  0  0  0  0  0  0  0
   33.9711   29.9883   44.8423 H   0  0  0  0  0  0  0  0  0  0  0  0
   30.6277   27.2925   47.2737 C   0  0  0  0  0  0  0  0  0  0  0  0
   30.9497   26.2096   46.3538 C   0  0  0  0  0  0  0  0  0  0  0  0
   31.1249   26.1058   45.0483 C   0  0  0  0  0  0  0  0  0  0  0  0
   30.9678   27.3557   44.2726 C   0  0  0  0  0  0  0  0  0  0  0  0
   30.7054   28.5350   44.5336 O   0  0  0  0  0  0  0  0  0  0  0  0
   30.9761   28.0116   43.0796 O   0  0  0  0  0  0  0  0  0  0  0  0
   31.4569   24.9218   44.3633 N   0  0  0  0  0  0  0  0  0  0  0  0
   31.1812   23.9954   43.3184 C   0  0  0  0  0  0  0  0  0  0  0  0
   30.6181   24.1325   42.1842 O   0  0  0  0  0  0  0  0  0  0  0  0
   31.8334   22.9608   44.1998 C   0  0  1  0  0  0  0  0  0  0  0  0
   31.1165   22.4993   44.8832 H   0  0  0  0  0  0  0  0  0  0  0  0
   32.6196   24.1152   44.7841 C   0  0  2  0  0  0  0  0  0  0  0  0
   32.6783   24.1644   46.6011 S   0  0  0  0  0  0  0  0  0  0  0  0
   31.0860   24.9445   47.0954 C   0  0  2  0  0  0  0  0  0  0  0  0
   30.3109   24.2264   46.7434 H   0  0  0  0  0  0  0  0  0  0  0  0
   30.5543   28.2490   46.7417 H   0  0  0  0  0  0  0  0  0  0  0  0
   29.6449   27.1583   47.7820 H   0  0  0  0  0  0  0  0  0  0  0  0
   30.3434   27.8060   42.3201 H   0  0  0  0  0  0  0  0  0  0  0  0
   32.4305   22.2848   43.5460 H   0  0  0  0  0  0  0  0  0  0  0  0
   33.5396   24.3616   44.2566 H   0  0  0  0  0  0  0  0  0  0  0  0
   31.1201   25.0618   48.1699 H   0  0  0  0  0  0  0  0  0  0  0  0
  1  5  1  0
  2  1  1  0
  2  3  1  0
  3  4  1  0
  5  4  1  0
  6 11  1  0
  6  1  1  0
  7  6  2  0
  8  9  2  0
  8  7  1  0
  9 10  1  0
 10 11  2  0
 10 12  1  0
 13  3  1  0
 13 14  1  0
 13 16  1  0
 15 13  1  0
  2 17  1  0
  2 18  1  0
  3 19  1  1
  4 20  1  0
  4 21  1  0
  5 22  1  0
  5 23  1  0
  7 24  1  0
  8 25  1  0
 26 27  1  0
 27 28  2  0
 28 29  1  0
 29 30  2  0
 29 31  1  0
 28 32  1  0
 32 33  1  0
 33 34  2  0
 33 35  1  0
 35 36  1  1
 35 37  1  0
 37 38  1  0
 38 39  1  0
 39 40  1  1
 39 27  1  0
 37 32  1  0
 26 41  1  0
 26 42  1  0
 31 43  1  0
 35 44  1  0
 37 45  1  6
 39 46  1  0
 12 26  1  0
M  ISO  8  17  13  18  13  19  13  20  13  21  13  22  13  23  13  24  14
M  ISO  3  25  14  36  15  40  15
M  END
>  <DihAtoms>  (1) 
9,11,25,26

>  <DihDeg>  (1) 
66.27733355188752

$$$$
