
     RDKit          3D

 44 47  0  0  0  0  0  0  0  0999 V2000
   35.6485   29.3307   49.8407 C   0  0  0  0  0  0  0  0  0  0  0  0
   35.7539   30.2950   48.8005 C   0  0  0  0  0  0  0  0  0  0  0  0
   34.9059   30.1586   47.6893 C   0  0  0  0  0  0  0  0  0  0  0  0
   34.0350   29.1209   47.6636 N   0  0  0  0  0  0  0  0  0  0  0  0
   33.9461   28.2298   48.6362 C   0  0  0  0  0  0  0  0  0  0  0  0
   34.7449   28.3333   49.7141 N   0  0  0  0  0  0  0  0  0  0  0  0
   37.6508   30.0509   51.3412 C   0  0  0  0  0  0  0  0  0  0  0  0
   38.2047   30.8354   50.5435 O   0  0  0  0  0  0  0  0  0  0  0  0
   36.4319   29.3673   51.0145 N   0  0  0  0  0  0  0  0  0  0  0  0
   36.7200   31.3333   48.9573 N   0  0  0  0  0  0  0  0  0  0  0  0
   36.5466   32.3375   49.8242 C   0  0  0  0  0  0  0  0  0  0  0  0
   37.5383   33.3188   49.9248 C   0  0  0  0  0  0  0  0  0  0  0  0
   38.6105   33.1413   49.1012 C   0  0  0  0  0  0  0  0  0  0  0  0
   39.4765   34.0649   49.2388 O   0  0  0  0  0  0  0  0  0  0  0  0
   38.8135   32.1430   48.2191 N   0  0  0  0  0  0  0  0  0  0  0  0
   37.8227   31.2316   48.1718 C   0  0  0  0  0  0  0  0  0  0  0  0
   37.9903   30.2805   47.3531 O   0  0  0  0  0  0  0  0  0  0  0  0
   35.0063   30.8987   46.9212 H   0  0  0  0  0  0  0  0  0  0  0  0
   33.2557   27.3914   48.6346 H   0  0  0  0  0  0  0  0  0  0  0  0
   38.1569   29.9309   52.2832 H   0  0  0  0  0  0  0  0  0  0  0  0
   36.1022   28.8025   51.8452 H   0  0  0  0  0  0  0  0  0  0  0  0
   35.6346   32.3270   50.4026 H   0  0  0  0  0  0  0  0  0  0  0  0
   37.4002   34.1139   50.6122 H   0  0  0  0  0  0  0  0  0  0  0  0
   40.0459   32.1219   47.4440 C   0  0  0  0  0  0  0  0  0  0  0  0
   39.8973   31.9344   46.0189 C   0  0  0  0  0  0  0  0  0  0  0  0
   40.3341   32.8399   45.1267 C   0  0  0  0  0  0  0  0  0  0  0  0
   40.9991   34.1007   45.5316 C   0  0  0  0  0  0  0  0  0  0  0  0
   41.3575   34.7108   46.5445 O   0  0  0  0  0  0  0  0  0  0  0  0
   41.4778   35.1053   44.7272 O   0  0  0  0  0  0  0  0  0  0  0  0
   40.1840   32.5874   43.7123 N   0  0  0  0  0  0  0  0  0  0  0  0
   39.6561   33.1305   42.4812 C   0  0  0  0  0  0  0  0  0  0  0  0
   39.3591   34.2792   42.0347 O   0  0  0  0  0  0  0  0  0  0  0  0
   39.6334   31.7016   42.0033 C   0  0  1  0  0  0  0  0  0  0  0  0
   38.6694   31.1924   42.1007 H   0  0  0  0  0  0  0  0  0  0  0  0
   40.6887   31.3708   43.0388 C   0  0  2  0  0  0  0  0  0  0  0  0
   40.3272   30.0155   44.1496 S   0  0  0  0  0  0  0  0  0  0  0  0
   39.2470   30.7576   45.4413 C   0  0  1  0  0  0  0  0  0  0  0  0
   38.9164   29.9848   46.1085 H   0  0  0  0  0  0  0  0  0  0  0  0
   40.6848   32.9506   47.7281 H   0  0  0  0  0  0  0  0  0  0  0  0
   40.6070   31.2011   47.8298 H   0  0  0  0  0  0  0  0  0  0  0  0
   41.1092   36.0325   44.6401 H   0  0  0  0  0  0  0  0  0  0  0  0
   40.0558   31.6656   40.9721 H   0  0  0  0  0  0  0  0  0  0  0  0
   41.7045   31.4608   42.6355 H   0  0  0  0  0  0  0  0  0  0  0  0
   38.3650   31.1546   44.8516 H   0  0  0  0  0  0  0  0  0  0  0  0
  1  9  1  0
  2 10  1  0
  2  1  2  0
  3  2  1  0
  4  3  2  0
  4  5  1  0
  5  6  2  0
  6  1  1  0
  8  7  2  0
  9  7  1  0
 10 11  1  0
 11 12  2  0
 13 14  2  0
 13 12  1  0
 15 13  1  0
 16 15  1  0
 16 10  1  0
 17 16  2  0
  3 18  1  0
  5 19  1  0
  7 20  1  0
  9 21  1  0
 11 22  1  0
 12 23  1  0
 24 25  1  0
 25 26  2  0
 26 27  1  0
 27 28  2  0
 27 29  1  0
 26 30  1  0
 30 31  1  0
 31 32  2  0
 31 33  1  0
 33 34  1  6
 33 35  1  0
 35 36  1  0
 36 37  1  0
 37 38  1  1
 37 25  1  0
 35 30  1  0
 24 39  1  0
 24 40  1  0
 29 41  1  0
 33 42  1  0
 35 43  1  6
 37 44  1  0
 15 24  1  0
M  ISO  7  18  14  19  14  20   6  22  14  23  14  34  15  38  15
M  END
>  <DihAtoms>  (1) 
12,14,23,24

>  <DihDeg>  (1) 
-85.75144315476552

$$$$
