
     RDKit          3D

 46 49  0  0  0  0  0  0  0  0999 V2000
   36.4617   29.8950   48.6777 N   0  0  0  0  0  0  0  0  0  0  0  0
   37.5825   30.6583   48.2371 C   0  0  0  0  0  0  0  0  0  0  0  0
   38.1014   31.2950   49.5152 C   0  0  2  0  0  0  0  0  0  0  0  0
   37.1086   30.8972   50.6017 C   0  0  0  0  0  0  0  0  0  0  0  0
   36.7350   29.5280   50.0561 C   0  0  0  0  0  0  0  0  0  0  0  0
   35.2874   29.5429   47.9362 C   0  0  0  0  0  0  0  0  0  0  0  0
   35.2280   30.0046   46.6079 C   0  0  0  0  0  0  0  0  0  0  0  0
   34.0896   29.6697   45.8699 C   0  0  0  0  0  0  0  0  0  0  0  0
   33.1270   28.9235   46.4927 N   0  0  0  0  0  0  0  0  0  0  0  0
   33.2191   28.5044   47.7535 C   0  0  0  0  0  0  0  0  0  0  0  0
   34.3080   28.8138   48.4885 N   0  0  0  0  0  0  0  0  0  0  0  0
   31.9405   27.5333   48.5253 S   0  0  0  0  0  0  0  0  0  0  0  0
   38.2734   32.7685   49.4074 C   0  0  0  0  0  0  0  0  0  0  0  0
   37.0961   33.3465   49.8816 F   0  0  0  0  0  0  0  0  0  0  0  0
   38.3099   33.0846   48.0603 F   0  0  0  0  0  0  0  0  0  0  0  0
   39.3808   33.2488   50.0330 F   0  0  0  0  0  0  0  0  0  0  0  0
   37.3168   31.4388   47.5035 H   0  0  0  0  0  0  0  0  0  0  0  0
   38.3465   29.9484   47.8460 H   0  0  0  0  0  0  0  0  0  0  0  0
   39.0894   30.8492   49.8109 H   0  0  0  0  0  0  0  0  0  0  0  0
   36.2206   31.5462   50.5989 H   0  0  0  0  0  0  0  0  0  0  0  0
   37.6066   30.8197   51.5882 H   0  0  0  0  0  0  0  0  0  0  0  0
   35.8402   29.1740   50.5738 H   0  0  0  0  0  0  0  0  0  0  0  0
   37.5799   28.8401   50.1409 H   0  0  0  0  0  0  0  0  0  0  0  0
   35.9812   30.5836   46.1341 H   0  0  0  0  0  0  0  0  0  0  0  0
   33.9711   29.9883   44.8423 H   0  0  0  0  0  0  0  0  0  0  0  0
   30.6277   27.2925   47.2737 C   0  0  0  0  0  0  0  0  0  0  0  0
   31.1644   26.7853   46.0178 C   0  0  0  0  0  0  0  0  0  0  0  0
   31.1906   27.2099   44.7669 C   0  0  0  0  0  0  0  0  0  0  0  0
   30.5301   28.5084   44.5099 C   0  0  0  0  0  0  0  0  0  0  0  0
   29.9307   29.3489   45.1897 O   0  0  0  0  0  0  0  0  0  0  0  0
   30.1648   29.4945   43.6452 O   0  0  0  0  0  0  0  0  0  0  0  0
   31.8010   26.5370   43.6917 N   0  0  0  0  0  0  0  0  0  0  0  0
   31.7108   25.9971   42.3777 C   0  0  0  0  0  0  0  0  0  0  0  0
   30.9900   26.3096   41.3753 O   0  0  0  0  0  0  0  0  0  0  0  0
   32.7773   25.0244   42.8126 C   0  0  1  0  0  0  0  0  0  0  0  0
   32.3490   24.1324   43.2763 H   0  0  0  0  0  0  0  0  0  0  0  0
   33.2091   26.1030   43.7833 C   0  0  2  0  0  0  0  0  0  0  0  0
   33.4868   25.5367   45.4890 S   0  0  0  0  0  0  0  0  0  0  0  0
   31.8061   25.4780   46.2375 C   0  0  2  0  0  0  0  0  0  0  0  0
   31.2716   24.7015   45.6443 H   0  0  0  0  0  0  0  0  0  0  0  0
   30.1740   28.2815   47.1343 H   0  0  0  0  0  0  0  0  0  0  0  0
   29.8199   26.6512   47.6961 H   0  0  0  0  0  0  0  0  0  0  0  0
   29.5411   29.3548   42.8637 H   0  0  0  0  0  0  0  0  0  0  0  0
   33.4722   24.8758   41.9548 H   0  0  0  0  0  0  0  0  0  0  0  0
   33.9187   26.8262   43.3848 H   0  0  0  0  0  0  0  0  0  0  0  0
   31.9407   25.2194   47.2788 H   0  0  0  0  0  0  0  0  0  0  0  0
  1  5  1  0
  2  1  1  0
  2  3  1  0
  3  4  1  0
  5  4  1  0
  6 11  1  0
  6  1  1  0
  7  6  2  0
  8  9  2  0
  8  7  1  0
  9 10  1  0
 10 11  2  0
 10 12  1  0
 13  3  1  0
 13 14  1  0
 13 16  1  0
 15 13  1  0
  2 17  1  0
  2 18  1  0
  3 19  1  1
  4 20  1  0
  4 21  1  0
  5 22  1  0
  5 23  1  0
  7 24  1  0
  8 25  1  0
 26 27  1  0
 27 28  2  0
 28 29  1  0
 29 30  2  0
 29 31  1  0
 28 32  1  0
 32 33  1  0
 33 34  2  0
 33 35  1  0
 35 36  1  1
 35 37  1  0
 37 38  1  0
 38 39  1  0
 39 40  1  6
 39 27  1  0
 37 32  1  0
 26 41  1  0
 26 42  1  0
 31 43  1  0
 35 44  1  0
 37 45  1  6
 39 46  1  0
 12 26  1  0
M  ISO  8  17  13  18  13  19  13  20  13  21  13  22  13  23  13  24  14
M  ISO  3  25  14  36  15  40  15
M  END
>  <DihAtoms>  (1) 
9,11,25,26

>  <DihDeg>  (1) 
66.27733355188752

$$$$
