
     RDKit          3D

 44 47  0  0  0  0  0  0  0  0999 V2000
   35.6485   29.3307   49.8407 C   0  0  0  0  0  0  0  0  0  0  0  0
   35.7539   30.2950   48.8005 C   0  0  0  0  0  0  0  0  0  0  0  0
   34.9059   30.1586   47.6893 C   0  0  0  0  0  0  0  0  0  0  0  0
   34.0350   29.1209   47.6636 N   0  0  0  0  0  0  0  0  0  0  0  0
   33.9461   28.2298   48.6362 C   0  0  0  0  0  0  0  0  0  0  0  0
   34.7449   28.3333   49.7141 N   0  0  0  0  0  0  0  0  0  0  0  0
   37.6508   30.0509   51.3412 C   0  0  0  0  0  0  0  0  0  0  0  0
   38.2047   30.8354   50.5435 O   0  0  0  0  0  0  0  0  0  0  0  0
   36.4319   29.3673   51.0145 N   0  0  0  0  0  0  0  0  0  0  0  0
   36.7200   31.3333   48.9573 N   0  0  0  0  0  0  0  0  0  0  0  0
   36.5466   32.3375   49.8242 C   0  0  0  0  0  0  0  0  0  0  0  0
   37.5383   33.3188   49.9248 C   0  0  0  0  0  0  0  0  0  0  0  0
   38.6105   33.1413   49.1012 C   0  0  0  0  0  0  0  0  0  0  0  0
   39.4765   34.0649   49.2388 O   0  0  0  0  0  0  0  0  0  0  0  0
   38.8135   32.1430   48.2191 N   0  0  0  0  0  0  0  0  0  0  0  0
   37.8227   31.2316   48.1718 C   0  0  0  0  0  0  0  0  0  0  0  0
   37.9903   30.2805   47.3531 O   0  0  0  0  0  0  0  0  0  0  0  0
   35.0063   30.8987   46.9212 H   0  0  0  0  0  0  0  0  0  0  0  0
   33.2557   27.3914   48.6346 H   0  0  0  0  0  0  0  0  0  0  0  0
   38.1569   29.9309   52.2832 H   0  0  0  0  0  0  0  0  0  0  0  0
   36.1022   28.8025   51.8452 H   0  0  0  0  0  0  0  0  0  0  0  0
   35.6346   32.3270   50.4026 H   0  0  0  0  0  0  0  0  0  0  0  0
   37.4002   34.1139   50.6122 H   0  0  0  0  0  0  0  0  0  0  0  0
   40.0459   32.1219   47.4440 C   0  0  0  0  0  0  0  0  0  0  0  0
   39.9412   31.6078   46.0976 C   0  0  0  0  0  0  0  0  0  0  0  0
   40.2590   32.3468   45.0207 C   0  0  0  0  0  0  0  0  0  0  0  0
   40.7386   33.7448   45.1271 C   0  0  0  0  0  0  0  0  0  0  0  0
   40.9974   34.6055   45.9749 O   0  0  0  0  0  0  0  0  0  0  0  0
   41.0832   34.6045   44.1134 O   0  0  0  0  0  0  0  0  0  0  0  0
   40.1616   31.7721   43.6989 N   0  0  0  0  0  0  0  0  0  0  0  0
   39.5781   31.9541   42.3891 C   0  0  0  0  0  0  0  0  0  0  0  0
   39.1303   32.9249   41.7079 O   0  0  0  0  0  0  0  0  0  0  0  0
   39.7586   30.4659   42.2360 C   0  0  1  0  0  0  0  0  0  0  0  0
   38.8731   29.8630   42.4608 H   0  0  0  0  0  0  0  0  0  0  0  0
   40.8374   30.5185   43.2985 C   0  0  2  0  0  0  0  0  0  0  0  0
   40.6538   29.4033   44.6856 S   0  0  0  0  0  0  0  0  0  0  0  0
   39.4664   30.2551   45.8040 C   0  0  1  0  0  0  0  0  0  0  0  0
   39.2382   29.6096   46.6303 H   0  0  0  0  0  0  0  0  0  0  0  0
   40.5608   33.0725   47.5277 H   0  0  0  0  0  0  0  0  0  0  0  0
   40.7243   31.3941   48.0111 H   0  0  0  0  0  0  0  0  0  0  0  0
   40.5911   35.4303   43.8326 H   0  0  0  0  0  0  0  0  0  0  0  0
   40.1938   30.2630   41.2298 H   0  0  0  0  0  0  0  0  0  0  0  0
   41.8356   30.6565   42.8659 H   0  0  0  0  0  0  0  0  0  0  0  0
   38.5450   30.3881   45.1587 H   0  0  0  0  0  0  0  0  0  0  0  0
  1  9  1  0
  2 10  1  0
  2  1  2  0
  3  2  1  0
  4  3  2  0
  4  5  1  0
  5  6  2  0
  6  1  1  0
  8  7  2  0
  9  7  1  0
 10 11  1  0
 11 12  2  0
 13 14  2  0
 13 12  1  0
 15 13  1  0
 16 15  1  0
 16 10  1  0
 17 16  2  0
  3 18  1  0
  5 19  1  0
  7 20  1  0
  9 21  1  0
 11 22  1  0
 12 23  1  0
 24 25  1  0
 25 26  2  0
 26 27  1  0
 27 28  2  0
 27 29  1  0
 26 30  1  0
 30 31  1  0
 31 32  2  0
 31 33  1  0
 33 34  1  1
 33 35  1  0
 35 36  1  0
 36 37  1  0
 37 38  1  1
 37 25  1  0
 35 30  1  0
 24 39  1  0
 24 40  1  0
 29 41  1  0
 33 42  1  0
 35 43  1  6
 37 44  1  0
 15 24  1  0
M  ISO  7  18  14  19  14  20   6  22  14  23  14  34  15  38  15
M  END
>  <DihAtoms>  (1) 
12,14,23,24

>  <DihDeg>  (1) 
-85.75144315476552

$$$$
