REMARK  Name = 
REMARK  6 active torsions:
REMARK  status: ('A' for Active; 'I' for Inactive)
REMARK    1  A    between atoms: C_1  and  O_10
REMARK    2  A    between atoms: O_10  and  C_13
REMARK    3  A    between atoms: N_16  and  C_26
REMARK    4  A    between atoms: C_26  and  C_27
REMARK    5  A    between atoms: C_28  and  C_29
REMARK    6  A    between atoms: C_29  and  O_31
REMARK                            x       y       z     vdW  Elec       q    Type
REMARK                         _______ _______ _______ _____ _____    ______ ____
ROOT
ATOM      1  O   UNL     1      36.200  29.339  51.167  0.00  0.00    +0.000 OA
ATOM      2  C   UNL     1      35.636  29.275  50.056  0.00  0.00    +0.000 C 
ATOM      3  C   UNL     1      36.010  30.152  48.941  0.00  0.00    +0.000 C 
ATOM      4  C   UNL     1      35.175  29.562  47.792  0.00  0.00    +0.000 C 
ATOM      5  C   UNL     1      33.994  28.964  48.522  0.00  0.00    +0.000 C 
ATOM      6  N   UNL     1      34.584  28.367  49.733  0.00  0.00    +0.000 N 
ATOM      7  H   UNL     1      35.689  31.197  49.125  0.00  0.00    +0.000 HD
ATOM      8  H   UNL     1      35.741  28.854  47.180  0.00  0.00    +0.000 HD
ATOM      9  H   UNL     1      34.784  30.415  47.196  0.00  0.00    +0.000 HD
ATOM     10  H   UNL     1      33.481  28.197  47.931  0.00  0.00    +0.000 HD
ATOM     11  H   UNL     1      33.325  29.757  48.856  0.00  0.00    +0.000 HD
ENDROOT
BRANCH   3  12
ATOM     12  O   UNL     1      37.387  30.074  48.595  0.00  0.00    +0.000 OA
BRANCH  12  13
ATOM     13  C   UNL     1      38.074  31.253  48.380  0.00  0.00    +0.000 A 
ATOM     14  C   UNL     1      38.256  32.012  49.541  0.00  0.00    +0.000 A 
ATOM     15  C   UNL     1      38.937  33.225  49.446  0.00  0.00    +0.000 A 
ATOM     16  N   UNL     1      39.393  33.610  48.220  0.00  0.00    +0.000 NA
ATOM     17  C   UNL     1      39.205  32.859  47.111  0.00  0.00    +0.000 A 
ATOM     18  N   UNL     1      38.560  31.716  47.216  0.00  0.00    +0.000 NA
ATOM     19  C   UNL     1      40.635  32.382  45.277  0.00  0.00    +0.000 C 
ATOM     20  O   UNL     1      41.036  31.275  45.741  0.00  0.00    +0.000 OA
ATOM     21  N   UNL     1      39.702  33.309  45.853  0.00  0.00    +0.000 N 
ATOM     22  H   UNL     1      37.913  31.748  50.534  0.00  0.00    +0.000 HD
ATOM     23  H   UNL     1      39.090  33.831  50.336  0.00  0.00    +0.000 HD
ATOM     24  H   UNL     1      41.102  32.583  44.318  0.00  0.00    +0.000 HD
ATOM     25  H   UNL     1      39.454  34.210  45.348  0.00  0.00    +0.000 HD
ENDBRANCH  12  13
ENDBRANCH   3  12
BRANCH   6  26
ATOM     26  C   UNL     1      34.185  27.150  50.416  0.00  0.00    +0.000 C 
BRANCH  26  27
ATOM     27  C   UNL     1      33.908  26.019  49.543  0.00  0.00    +0.000 C 
ATOM     28  C   UNL     1      32.722  25.434  49.492  0.00  0.00    +0.000 C 
ATOM     29  N   UNL     1      32.568  24.310  48.599  0.00  0.00    +0.000 N 
ATOM     30  C   UNL     1      31.783  23.704  47.553  0.00  0.00    +0.000 C 
ATOM     31  O   UNL     1      30.561  23.758  47.207  0.00  0.00    +0.000 OA
ATOM     32  C   UNL     1      33.059  23.029  47.115  0.00  0.00    +0.000 C 
ATOM     33  H   UNL     1      32.906  21.990  46.774  0.00  0.00    +0.000 HD
ATOM     34  C   UNL     1      33.496  23.172  48.568  0.00  0.00    +0.000 C 
ATOM     35  S   UNL     1      35.186  23.767  48.786  0.00  0.00    +0.000 S 
ATOM     36  C   UNL     1      35.047  25.598  48.726  0.00  0.00    +0.000 C 
ATOM     37  H   UNL     1      35.997  25.975  49.083  0.00  0.00    +0.000 HD
BRANCH  28  38
ATOM     38  C   UNL     1      31.547  25.846  50.298  0.00  0.00    +0.000 C 
ATOM     39  O   UNL     1      31.291  26.712  51.150  0.00  0.00    +0.000 OA
BRANCH  38  40
ATOM     40  O   UNL     1      30.306  25.269  50.265  0.00  0.00    +0.000 OA
ATOM     41  H   UNL     1      29.490  25.794  50.006  0.00  0.00    +0.000 HD
ENDBRANCH  38  40
ENDBRANCH  28  38
ENDBRANCH  26  27
ENDBRANCH   6  26
TORSDOF 6
