
 OpenBabel03272506373D

 41 44  0  0  1  0  0  0  0  0999 V2000
   35.0630   29.9750   50.1900 O   0  0  0  0  0  0  0  0  0  0  0  0
   34.8440   29.8710   48.9660 C   0  0  0  0  0  0  0  0  0  0  0  0
   35.6270   30.6100   47.9690 C   0  0  2  0  0  0  0  0  0  0  0  0
   35.1010   30.0070   46.6560 C   0  0  0  0  0  0  0  0  0  0  0  0
   33.6970   29.5890   47.0290 C   0  0  0  0  0  0  0  0  0  0  0  0
   33.8340   29.0430   48.3910 N   0  0  0  0  0  0  0  0  0  0  0  0
   35.3900   31.6930   47.9930 H   0  0  0  0  0  0  0  0  0  0  0  0
   35.7340   29.1990   46.2800 H   0  0  0  0  0  0  0  0  0  0  0  0
   35.0030   30.8390   45.9260 H   0  0  0  0  0  0  0  0  0  0  0  0
   33.2930   28.8270   46.3530 H   0  0  0  0  0  0  0  0  0  0  0  0
   33.0560   30.4670   47.1050 H   0  0  0  0  0  0  0  0  0  0  0  0
   37.0260   30.3720   48.0560 O   0  0  0  0  0  0  0  0  0  0  0  0
   37.8770   31.4590   48.0110 C   0  0  0  0  0  0  0  0  0  0  0  0
   38.0500   32.0830   49.2510 C   0  0  0  0  0  0  0  0  0  0  0  0
   38.8890   33.1940   49.3270 C   0  0  0  0  0  0  0  0  0  0  0  0
   39.5010   33.6160   48.1840 N   0  0  0  0  0  0  0  0  0  0  0  0
   39.3180   32.9960   46.9960 C   0  0  0  0  0  0  0  0  0  0  0  0
   38.5230   31.9490   46.9390 N   0  0  0  0  0  0  0  0  0  0  0  0
   40.8340   32.4860   45.2420 C   0  0  0  0  0  0  0  0  0  0  0  0
   41.0440   31.2980   45.6260 O   0  0  0  0  0  0  0  0  0  0  0  0
   39.9810   33.4800   45.8310 N   0  0  0  0  0  0  0  0  0  0  0  0
   37.5870   31.7850   50.1830 H   0  0  0  0  0  0  0  0  0  0  0  0
   39.0390   33.6950   50.2810 H   0  0  0  0  0  0  0  0  0  0  0  0
   41.4080   32.7020   44.3470 H   0  0  0  0  0  0  0  0  0  0  0  0
   39.9000   34.4460   45.3980 H   0  0  0  0  0  0  0  0  0  0  0  0
   33.1140   27.9330   48.9870 C   0  0  0  0  0  2  0  0  0  0  0  0
   32.6730   26.9120   48.0470 C   0  0  0  0  0  0  0  0  0  0  0  0
   31.4030   26.5630   47.9220 C   0  0  0  0  0  0  0  0  0  0  0  0
   31.0850   25.5270   46.9670 N   0  0  0  0  0  0  0  0  0  0  0  0
   30.2510   25.1250   45.8630 C   0  0  0  0  0  0  0  0  0  0  0  0
   29.0780   25.4220   45.4740 O   0  0  0  0  0  0  0  0  0  0  0  0
   31.3990   24.2430   45.4390 C   0  0  0  0  0  3  0  0  0  0  0  0
   31.0720   23.2660   45.0390 H   0  0  0  0  0  0  0  0  0  0  0  0
   31.7870   24.2380   46.9130 C   0  0  1  0  0  3  0  0  0  0  0  0
   33.5460   24.4960   47.2240 S   0  0  0  0  0  0  0  0  0  0  0  0
   33.7510   26.3210   47.2530 C   0  0  0  0  0  3  0  0  0  0  0  0
   34.7370   26.4980   47.6640 H   0  0  0  0  0  0  0  0  0  0  0  0
   30.2890   27.1520   48.7030 C   0  0  0  0  0  0  0  0  0  0  0  0
   29.7690   26.9740   49.8160 O   0  0  0  0  0  0  0  0  0  0  0  0
   29.4750   28.1760   48.2980 O   0  0  0  0  0  0  0  0  0  0  0  0
   29.4230   29.0380   48.8100 H   0  0  0  0  0  0  0  0  0  0  0  0
  2  1  2  0  0  0  0
  3  7  1  1  0  0  0
  3 12  1  0  0  0  0
  3  2  1  0  0  0  0
  4  5  1  0  0  0  0
  4  3  1  0  0  0  0
  5 11  1  0  0  0  0
  5  6  1  0  0  0  0
  6  2  1  0  0  0  0
  6 26  1  0  0  0  0
  8  4  1  0  0  0  0
  9  4  1  0  0  0  0
 10  5  1  0  0  0  0
 13 12  1  0  0  0  0
 13 14  1  0  0  0  0
 14 15  2  0  0  0  0
 14 22  1  0  0  0  0
 15 23  1  0  0  0  0
 16 15  1  0  0  0  0
 17 16  2  0  0  0  0
 18 17  1  0  0  0  0
 18 13  2  0  0  0  0
 19 20  2  0  0  0  0
 19 21  1  0  0  0  0
 21 17  1  0  0  0  0
 24 19  1  0  0  0  0
 25 21  1  0  0  0  0
 27 26  1  0  0  0  0
 28 27  2  0  0  0  0
 28 38  1  0  0  0  0
 29 28  1  0  0  0  0
 30 29  1  0  0  0  0
 31 30  2  0  0  0  0
 32 30  1  0  0  0  0
 33 32  1  0  0  0  0
 34 32  1  6  0  0  0
 34 29  1  0  0  0  0
 34 35  1  0  0  0  0
 35 36  1  0  0  0  0
 36 37  1  0  0  0  0
 36 27  1  0  0  0  0
 38 39  2  0  0  0  0
 40 38  1  0  0  0  0
 40 41  1  0  0  0  0
M  END
>  <minimizedAffinity>
-6.30400705

>  <minimizedRMSD>
1.82552528

$$$$
