
 OpenBabel03262522153D

 52 56  0  0  1  0  0  0  0  0999 V2000
   38.7870   29.8300   42.3660 C   0  0  1  0  0  0  0  0  0  0  0  0
   38.9160   31.3180   42.0940 C   0  0  0  0  0  0  0  0  0  0  0  0
   39.9940   31.7110   43.0650 C   0  0  2  0  0  0  0  0  0  0  0  0
   40.2520   30.6310   43.8750 O   0  0  0  0  0  0  0  0  0  0  0  0
   39.1460   29.7870   43.8320 C   0  0  0  0  0  0  0  0  0  0  0  0
   39.4870   29.2550   41.7480 H   0  0  0  0  0  0  0  0  0  0  0  0
   37.9520   31.8500   42.2640 H   0  0  0  0  0  0  0  0  0  0  0  0
   39.1960   31.4240   41.0330 H   0  0  0  0  0  0  0  0  0  0  0  0
   40.8710   32.0060   42.4450 H   0  0  0  0  0  0  0  0  0  0  0  0
   38.3140   30.1880   44.4120 H   0  0  0  0  0  0  0  0  0  0  0  0
   39.4510   28.7630   44.1320 H   0  0  0  0  0  0  0  0  0  0  0  0
   39.6100   32.9440   43.8510 C   0  0  0  0  0  0  0  0  0  0  0  0
   38.5450   32.8890   44.0820 H   0  0  0  0  0  0  0  0  0  0  0  0
   39.7630   33.8750   43.2410 H   0  0  0  0  0  0  0  0  0  0  0  0
   40.6880   33.0280   45.3100 S   0  0  0  0  0  0  0  0  0  0  0  0
   37.7740   31.7610   47.6900 C   0  0  0  0  0  0  0  0  0  0  0  0
   37.9220   32.5540   48.8500 C   0  0  0  0  0  0  0  0  0  0  0  0
   38.9130   33.4950   48.9380 C   0  0  0  0  0  0  0  0  0  0  0  0
   39.7420   33.6210   47.8490 C   0  0  0  0  0  0  0  0  0  0  0  0
   39.5920   32.8540   46.7370 C   0  0  0  0  0  0  0  0  0  0  0  0
   38.6120   31.9150   46.6360 N   0  0  0  0  0  0  0  0  0  0  0  0
   37.2460   32.4220   49.6890 H   0  0  0  0  0  0  0  0  0  0  0  0
   39.0900   34.1310   49.7750 H   0  0  0  0  0  0  0  0  0  0  0  0
   40.5560   34.3410   47.8250 H   0  0  0  0  0  0  0  0  0  0  0  0
   36.7150   30.7990   47.6770 C   0  0  0  0  0  0  0  0  0  0  0  0
   36.2340   30.3970   46.6100 O   0  0  0  0  0  0  0  0  0  0  0  0
   37.0070   29.6290   49.8200 C   0  0  0  0  0  0  0  0  0  0  0  0
   36.1380   30.2360   48.9070 C   0  0  0  0  0  0  0  0  0  0  0  0
   34.7760   30.2830   49.1930 C   0  0  0  0  0  0  0  0  0  0  0  0
   34.3300   29.7310   50.3670 N   0  0  0  0  0  0  0  0  0  0  0  0
   35.1870   29.1540   51.2270 C   0  0  0  0  0  0  0  0  0  0  0  0
   36.4990   29.1030   50.9620 N   0  0  0  0  0  0  0  0  0  0  0  0
   38.0750   29.5600   49.6570 H   0  0  0  0  0  0  0  0  0  0  0  0
   34.1100   30.7570   48.4760 H   0  0  0  0  0  0  0  0  0  0  0  0
   34.8610   28.7120   52.1580 H   0  0  0  0  0  0  0  0  0  0  0  0
   37.4870   29.3880   42.1310 O   0  0  0  0  0  0  0  0  0  0  0  0
   37.5720   28.1690   41.4050 C   0  0  0  0  0  2  0  0  0  0  0  0
   37.8030   28.4550   39.9840 C   0  0  0  0  0  0  0  0  0  0  0  0
   38.9020   28.0650   39.3590 C   0  0  0  0  0  0  0  0  0  0  0  0
   39.0310   28.4100   37.9640 N   0  0  0  0  0  0  0  0  0  0  0  0
   39.9080   28.7350   36.9120 C   0  0  0  0  0  0  0  0  0  0  0  0
   41.1140   28.5500   36.5930 O   0  0  0  0  0  0  0  0  0  0  0  0
   38.8340   29.4520   36.2100 C   0  0  0  0  0  3  0  0  0  0  0  0
   38.7350   30.5390   36.4920 H   0  0  0  0  0  0  0  0  0  0  0  0
   37.9380   28.5440   37.0230 C   0  0  2  0  0  3  0  0  0  0  0  0
   36.5760   29.4970   37.7310 S   0  0  0  0  0  0  0  0  0  0  0  0
   36.6510   29.2010   39.4950 C   0  0  0  0  0  3  0  0  0  0  0  0
   35.7250   28.5940   39.7360 H   0  0  0  0  0  0  0  0  0  0  0  0
   40.0130   27.3220   39.9550 C   0  0  0  0  0  0  0  0  0  0  0  0
   40.2750   26.8980   41.0830 O   0  0  0  0  0  0  0  0  0  0  0  0
   41.1080   26.9220   39.2300 O   0  0  0  0  0  0  0  0  0  0  0  0
   41.5100   25.9960   39.2990 H   0  0  0  0  0  0  0  0  0  0  0  0
  1  6  1  6  0  0  0
  1  5  1  0  0  0  0
  2  7  1  0  0  0  0
  2  1  1  0  0  0  0
  2  3  1  0  0  0  0
  3  9  1  6  0  0  0
  3 12  1  0  0  0  0
  3  4  1  0  0  0  0
  5  4  1  0  0  0  0
  5 11  1  0  0  0  0
  5 10  1  0  0  0  0
  8  2  1  0  0  0  0
 12 13  1  0  0  0  0
 12 15  1  0  0  0  0
 14 12  1  0  0  0  0
 15 20  1  0  0  0  0
 16 17  1  0  0  0  0
 17 18  2  0  0  0  0
 17 22  1  0  0  0  0
 18 23  1  0  0  0  0
 19 18  1  0  0  0  0
 20 19  2  0  0  0  0
 21 20  1  0  0  0  0
 21 16  2  0  0  0  0
 24 19  1  0  0  0  0
 25 16  1  0  0  0  0
 25 28  1  0  0  0  0
 26 25  2  0  0  0  0
 27 32  1  0  0  0  0
 28 29  1  0  0  0  0
 28 27  2  0  0  0  0
 29 30  2  0  0  0  0
 30 31  1  0  0  0  0
 31 35  1  0  0  0  0
 32 31  2  0  0  0  0
 33 27  1  0  0  0  0
 34 29  1  0  0  0  0
 36  1  1  0  0  0  0
 37 36  1  0  0  0  0
 38 37  1  0  0  0  0
 39 49  1  0  0  0  0
 39 38  2  0  0  0  0
 40 39  1  0  0  0  0
 41 40  1  0  0  0  0
 42 41  2  0  0  0  0
 43 44  1  0  0  0  0
 43 41  1  0  0  0  0
 45 43  1  6  0  0  0
 45 46  1  0  0  0  0
 45 40  1  0  0  0  0
 46 47  1  0  0  0  0
 47 48  1  0  0  0  0
 47 38  1  0  0  0  0
 49 50  2  0  0  0  0
 51 52  1  0  0  0  0
 51 49  1  0  0  0  0
M  END
>  <minimizedAffinity>
-5.02324963

>  <minimizedRMSD>
0.534286261

$$$$
