
 OpenBabel03262522143D

 52 56  0  0  1  0  0  0  0  0999 V2000
   38.7720   30.3650   42.1000 C   0  0  1  0  0  0  0  0  0  0  0  0
   39.1820   31.8270   42.0410 C   0  0  0  0  0  0  0  0  0  0  0  0
   40.0180   31.9570   43.2830 C   0  0  2  0  0  0  0  0  0  0  0  0
   39.8990   30.7910   44.0000 O   0  0  0  0  0  0  0  0  0  0  0  0
   38.7320   30.1530   43.5940 C   0  0  0  0  0  0  0  0  0  0  0  0
   39.5160   29.7280   41.6070 H   0  0  0  0  0  0  0  0  0  0  0  0
   38.2940   32.5000   42.0320 H   0  0  0  0  0  0  0  0  0  0  0  0
   39.7380   31.9630   41.0980 H   0  0  0  0  0  0  0  0  0  0  0  0
   41.0590   32.1450   42.9320 H   0  0  0  0  0  0  0  0  0  0  0  0
   37.8460   30.6440   43.9980 H   0  0  0  0  0  0  0  0  0  0  0  0
   38.7970   29.0720   43.8380 H   0  0  0  0  0  0  0  0  0  0  0  0
   39.6280   33.1740   44.0890 C   0  0  0  0  0  0  0  0  0  0  0  0
   38.5580   33.1250   44.2930 H   0  0  0  0  0  0  0  0  0  0  0  0
   39.8050   34.1190   43.5060 H   0  0  0  0  0  0  0  0  0  0  0  0
   40.6720   33.2110   45.5750 S   0  0  0  0  0  0  0  0  0  0  0  0
   37.7320   31.8200   47.8520 C   0  0  0  0  0  0  0  0  0  0  0  0
   37.8300   32.5920   49.0310 C   0  0  0  0  0  0  0  0  0  0  0  0
   38.7930   33.5570   49.1630 C   0  0  0  0  0  0  0  0  0  0  0  0
   39.6450   33.7270   48.0990 C   0  0  0  0  0  0  0  0  0  0  0  0
   39.5440   32.9800   46.9690 C   0  0  0  0  0  0  0  0  0  0  0  0
   38.5930   32.0170   46.8230 N   0  0  0  0  0  0  0  0  0  0  0  0
   37.1350   32.4260   49.8480 H   0  0  0  0  0  0  0  0  0  0  0  0
   38.9310   34.1800   50.0170 H   0  0  0  0  0  0  0  0  0  0  0  0
   40.4400   34.4680   48.1110 H   0  0  0  0  0  0  0  0  0  0  0  0
   36.6990   30.8320   47.7910 C   0  0  0  0  0  0  0  0  0  0  0  0
   36.2750   30.4210   46.7040 O   0  0  0  0  0  0  0  0  0  0  0  0
   36.9250   29.6210   49.9200 C   0  0  0  0  0  0  0  0  0  0  0  0
   36.0860   30.2510   48.9940 C   0  0  0  0  0  0  0  0  0  0  0  0
   34.7160   30.3010   49.2440 C   0  0  0  0  0  0  0  0  0  0  0  0
   34.2350   29.7310   50.3950 N   0  0  0  0  0  0  0  0  0  0  0  0
   35.0640   29.1330   51.2670 C   0  0  0  0  0  0  0  0  0  0  0  0
   36.3820   29.0770   51.0380 N   0  0  0  0  0  0  0  0  0  0  0  0
   37.9960   29.5480   49.7850 H   0  0  0  0  0  0  0  0  0  0  0  0
   34.0730   30.7920   48.5180 H   0  0  0  0  0  0  0  0  0  0  0  0
   34.7100   28.6760   52.1800 H   0  0  0  0  0  0  0  0  0  0  0  0
   37.5270   30.1700   41.5070 O   0  0  0  0  0  0  0  0  0  0  0  0
   37.4210   28.7920   41.1750 C   0  0  0  0  0  2  0  0  0  0  0  0
   38.1920   28.5160   39.9580 C   0  0  0  0  0  0  0  0  0  0  0  0
   39.2090   27.6700   39.9480 C   0  0  0  0  0  0  0  0  0  0  0  0
   39.9060   27.4820   38.6990 N   0  0  0  0  0  0  0  0  0  0  0  0
   41.1330   27.1970   38.0700 C   0  0  0  0  0  0  0  0  0  0  0  0
   42.2190   26.6110   38.3340 O   0  0  0  0  0  0  0  0  0  0  0  0
   40.6940   27.8900   36.8510 C   0  0  0  0  0  3  0  0  0  0  0  0
   40.9170   28.9950   36.8340 H   0  0  0  0  0  0  0  0  0  0  0  0
   39.3140   27.5710   37.3800 C   0  0  2  0  0  3  0  0  0  0  0  0
   38.2480   29.0230   37.2360 S   0  0  0  0  0  0  0  0  0  0  0  0
   37.6260   29.3270   38.8870 C   0  0  0  0  0  3  0  0  0  0  0  0
   36.5170   29.0970   38.8360 H   0  0  0  0  0  0  0  0  0  0  0  0
   39.7050   26.9080   41.0960 C   0  0  0  0  0  0  0  0  0  0  0  0
   40.1620   27.1960   42.2040 O   0  0  0  0  0  0  0  0  0  0  0  0
   39.7390   25.5350   41.1120 O   0  0  0  0  0  0  0  0  0  0  0  0
   39.4330   24.9830   41.9010 H   0  0  0  0  0  0  0  0  0  0  0  0
  1  6  1  6  0  0  0
  1  5  1  0  0  0  0
  2  1  1  0  0  0  0
  2  3  1  0  0  0  0
  3  9  1  6  0  0  0
  3  4  1  0  0  0  0
  3 12  1  0  0  0  0
  5 11  1  0  0  0  0
  5 10  1  0  0  0  0
  5  4  1  0  0  0  0
  7  2  1  0  0  0  0
  8  2  1  0  0  0  0
 12 13  1  0  0  0  0
 12 15  1  0  0  0  0
 14 12  1  0  0  0  0
 15 20  1  0  0  0  0
 16 17  1  0  0  0  0
 17 18  2  0  0  0  0
 17 22  1  0  0  0  0
 18 23  1  0  0  0  0
 19 24  1  0  0  0  0
 19 18  1  0  0  0  0
 20 19  2  0  0  0  0
 21 20  1  0  0  0  0
 21 16  2  0  0  0  0
 25 16  1  0  0  0  0
 25 28  1  0  0  0  0
 26 25  2  0  0  0  0
 27 32  1  0  0  0  0
 28 29  1  0  0  0  0
 28 27  2  0  0  0  0
 29 30  2  0  0  0  0
 30 31  1  0  0  0  0
 31 35  1  0  0  0  0
 32 31  2  0  0  0  0
 33 27  1  0  0  0  0
 34 29  1  0  0  0  0
 36  1  1  0  0  0  0
 37 36  1  0  0  0  0
 38 37  1  0  0  0  0
 39 38  2  0  0  0  0
 39 49  1  0  0  0  0
 40 39  1  0  0  0  0
 41 42  2  0  0  0  0
 41 40  1  0  0  0  0
 43 41  1  0  0  0  0
 44 43  1  0  0  0  0
 45 43  1  6  0  0  0
 45 40  1  0  0  0  0
 46 45  1  0  0  0  0
 46 47  1  0  0  0  0
 47 38  1  0  0  0  0
 48 47  1  0  0  0  0
 49 51  1  0  0  0  0
 49 50  2  0  0  0  0
 51 52  1  0  0  0  0
M  END
>  <minimizedAffinity>
-5.30883169

>  <minimizedRMSD>
1.18045878

$$$$
