
     RDKit          3D

 57 61  0  0  0  0  0  0  0  0999 V2000
   37.7690   31.7436   47.6564 C   0  0  0  0  0  0  0  0  0  0  0  0
   37.9397   32.5339   48.8153 C   0  0  0  0  0  0  0  0  0  0  0  0
   38.9389   33.4682   48.8890 C   0  0  0  0  0  0  0  0  0  0  0  0
   39.7515   33.5890   47.7878 C   0  0  0  0  0  0  0  0  0  0  0  0
   39.5804   32.8252   46.6776 C   0  0  0  0  0  0  0  0  0  0  0  0
   38.5923   31.8930   46.5897 N   0  0  0  0  0  0  0  0  0  0  0  0
   36.7018   30.7896   47.6575 C   0  0  0  0  0  0  0  0  0  0  0  0
   36.2054   30.3905   46.5971 O   0  0  0  0  0  0  0  0  0  0  0  0
   37.0149   29.6371   49.8066 C   0  0  0  0  0  0  0  0  0  0  0  0
   36.1367   30.2326   48.8947 C   0  0  0  0  0  0  0  0  0  0  0  0
   34.7757   30.2744   49.1902 C   0  0  0  0  0  0  0  0  0  0  0  0
   34.3409   29.7276   50.3715 N   0  0  0  0  0  0  0  0  0  0  0  0
   35.2074   29.1620   51.2287 C   0  0  0  0  0  0  0  0  0  0  0  0
   36.5167   29.1155   50.9565 N   0  0  0  0  0  0  0  0  0  0  0  0
   40.6562   32.9934   45.2348 S   0  0  0  0  0  0  0  0  0  0  0  0
   39.5548   32.9316   43.7916 C   0  0  0  0  0  0  0  0  0  0  0  0
   38.7796   29.7848   42.3517 C   0  0  1  0  0  0  0  0  0  0  0  0
   38.8108   31.2790   42.0820 C   0  0  0  0  0  0  0  0  0  0  0  0
   39.9388   31.7245   42.9704 C   0  0  2  0  0  0  0  0  0  0  0  0
   40.3140   30.6554   43.7492 O   0  0  0  0  0  0  0  0  0  0  0  0
   39.2529   29.7555   43.7845 C   0  0  0  0  0  0  0  0  0  0  0  0
   37.4896   29.2783   42.2140 O   0  0  0  0  0  0  0  0  0  0  0  0
   37.2747   32.4056   49.6629 H   0  0  0  0  0  0  0  0  0  0  0  0
   39.1328   34.1010   49.7237 H   0  0  0  0  0  0  0  0  0  0  0  0
   40.5708   34.3029   47.7533 H   0  0  0  0  0  0  0  0  0  0  0  0
   38.0817   29.5721   49.6374 H   0  0  0  0  0  0  0  0  0  0  0  0
   34.1030   30.7395   48.4743 H   0  0  0  0  0  0  0  0  0  0  0  0
   34.8899   28.7247   52.1650 H   0  0  0  0  0  0  0  0  0  0  0  0
   38.4948   32.8587   44.0390 H   0  0  0  0  0  0  0  0  0  0  0  0
   39.6873   33.8796   43.2025 H   0  0  0  0  0  0  0  0  0  0  0  0
   39.4578   29.2493   41.6766 H   0  0  0  0  0  0  0  0  0  0  0  0
   37.8369   31.7598   42.3290 H   0  0  0  0  0  0  0  0  0  0  0  0
   39.0016   31.4032   41.0030 H   0  0  0  0  0  0  0  0  0  0  0  0
   40.7497   32.0665   42.2862 H   0  0  0  0  0  0  0  0  0  0  0  0
   38.4485   30.1106   44.4310 H   0  0  0  0  0  0  0  0  0  0  0  0
   39.6324   28.7482   44.0531 H   0  0  0  0  0  0  0  0  0  0  0  0
   37.5358   28.2452   41.2389 C   0  0  0  0  0  0  0  0  0  0  0  0
   38.3289   28.6873   40.0863 C   0  0  0  0  0  0  0  0  0  0  0  0
   39.4202   28.0485   39.6981 C   0  0  0  0  0  0  0  0  0  0  0  0
   39.9859   26.8527   40.3259 C   0  0  0  0  0  0  0  0  0  0  0  0
   39.6823   26.1436   41.2870 O   0  0  0  0  0  0  0  0  0  0  0  0
   41.1263   26.2443   39.8610 O   0  0  0  0  0  0  0  0  0  0  0  0
   40.1303   28.5767   38.5584 N   0  0  0  0  0  0  0  0  0  0  0  0
   41.3775   28.7510   37.9307 C   0  0  0  0  0  0  0  0  0  0  0  0
   42.5137   28.2019   37.9116 O   0  0  0  0  0  0  0  0  0  0  0  0
   40.8752   29.9286   37.2095 C   0  0  1  0  0  0  0  0  0  0  0  0
   40.9941   30.9026   37.7630 H   0  0  0  0  0  0  0  0  0  0  0  0
   39.5310   29.2746   37.4396 C   0  0  2  0  0  0  0  0  0  0  0  0
   38.3347   30.5074   38.0002 S   0  0  0  0  0  0  0  0  0  0  0  0
   37.6879   29.8802   39.5469 C   0  0  1  0  0  0  0  0  0  0  0  0
   36.6063   29.6190   39.3355 H   0  0  0  0  0  0  0  0  0  0  0  0
   37.8801   27.3437   41.7544 H   0  0  0  0  0  0  0  0  0  0  0  0
   36.4727   28.0914   40.8762 H   0  0  0  0  0  0  0  0  0  0  0  0
   41.2136   25.2434   39.7481 H   0  0  0  0  0  0  0  0  0  0  0  0
   41.1854   30.0422   36.1464 H   0  0  0  0  0  0  0  0  0  0  0  0
   39.1418   28.6726   36.6172 H   0  0  0  0  0  0  0  0  0  0  0  0
   37.6283   30.6905   40.3041 H   0  0  0  0  0  0  0  0  0  0  0  0
  1  2  2  0
  2  3  1  0
  4  3  2  0
  5  4  1  0
  6  5  2  0
  6  1  1  0
  7  1  1  0
  7 10  1  0
  8  7  2  0
  9 14  2  0
 10 11  2  0
 10  9  1  0
 11 12  1  0
 12 13  2  0
 14 13  1  0
 15  5  1  0
 16 15  1  0
 17 22  1  0
 17 21  1  0
 18 17  1  0
 18 19  1  0
 19 20  1  0
 19 16  1  0
 20 21  1  0
  2 23  1  0
  3 24  1  0
  4 25  1  0
  9 26  1  0
 11 27  1  0
 13 28  1  0
 16 29  1  0
 16 30  1  0
 17 31  1  6
 18 32  1  0
 18 33  1  0
 19 34  1  6
 21 35  1  0
 21 36  1  0
 37 38  1  0
 38 39  2  0
 39 40  1  0
 40 41  2  0
 40 42  1  0
 39 43  1  0
 43 44  1  0
 44 45  2  0
 44 46  1  0
 46 47  1  1
 46 48  1  0
 48 49  1  0
 49 50  1  0
 50 51  1  6
 50 38  1  0
 48 43  1  0
 37 52  1  0
 37 53  1  0
 42 54  1  0
 46 55  1  0
 48 56  1  6
 50 57  1  0
 22 37  1  0
M  ISO  8  23  14  24  14  25  14  26  14  27  14  28  14  29   8  30   8
M  ISO  8  31  13  32  13  33  13  34  13  35  13  36  13  47  15  51  15
M  END
>  <DihAtoms>  (1) 
16,21,36,37

>  <DihDeg>  (1) 
179.99894113485945

$$$$
