
 OpenBabel03262522183D

 52 56  0  0  1  0  0  0  0  0999 V2000
   37.5720   26.3820   31.3160 C   0  0  1  0  0  0  0  0  0  0  0  0
   36.0850   26.6540   31.4510 C   0  0  0  0  0  0  0  0  0  0  0  0
   36.0390   28.1520   31.3360 C   0  0  2  0  0  0  0  0  0  0  0  0
   37.3320   28.6180   31.3450 O   0  0  0  0  0  0  0  0  0  0  0  0
   38.1370   27.6430   31.9240 C   0  0  0  0  0  0  0  0  0  0  0  0
   37.8570   26.2610   30.2640 H   0  0  0  0  0  0  0  0  0  0  0  0
   35.6840   26.2720   32.4180 H   0  0  0  0  0  0  0  0  0  0  0  0
   35.5880   26.1160   30.6260 H   0  0  0  0  0  0  0  0  0  0  0  0
   35.5080   28.3690   30.3800 H   0  0  0  0  0  0  0  0  0  0  0  0
   38.0060   27.6050   33.0060 H   0  0  0  0  0  0  0  0  0  0  0  0
   39.1890   27.7950   31.6040 H   0  0  0  0  0  0  0  0  0  0  0  0
   35.1940   28.7670   32.4270 C   0  0  0  0  0  0  0  0  0  0  0  0
   35.2750   28.1440   33.3190 H   0  0  0  0  0  0  0  0  0  0  0  0
   34.1080   28.7800   32.1380 H   0  0  0  0  0  0  0  0  0  0  0  0
   35.7500   30.4800   32.6580 S   0  0  0  0  0  0  0  0  0  0  0  0
   33.3340   31.0180   35.7610 C   0  0  0  0  0  0  0  0  0  0  0  0
   34.1370   31.7120   36.6940 C   0  0  0  0  0  0  0  0  0  0  0  0
   35.4360   32.0350   36.4010 C   0  0  0  0  0  0  0  0  0  0  0  0
   35.9030   31.6500   35.1680 C   0  0  0  0  0  0  0  0  0  0  0  0
   35.1240   30.9820   34.2780 C   0  0  0  0  0  0  0  0  0  0  0  0
   33.8320   30.6540   34.5550 N   0  0  0  0  0  0  0  0  0  0  0  0
   33.7280   31.9980   37.6570 H   0  0  0  0  0  0  0  0  0  0  0  0
   36.1040   32.5560   37.0470 H   0  0  0  0  0  0  0  0  0  0  0  0
   36.9200   31.8620   34.8460 H   0  0  0  0  0  0  0  0  0  0  0  0
   31.9880   30.7170   36.1430 C   0  0  0  0  0  0  0  0  0  0  0  0
   31.1310   31.6070   36.2080 O   0  0  0  0  0  0  0  0  0  0  0  0
   31.1270   28.5260   35.4290 C   0  0  0  0  0  0  0  0  0  0  0  0
   31.5430   29.3560   36.4760 C   0  0  0  0  0  0  0  0  0  0  0  0
   31.5170   28.8670   37.7810 C   0  0  0  0  0  0  0  0  0  0  0  0
   31.0860   27.5820   37.9950 N   0  0  0  0  0  0  0  0  0  0  0  0
   30.6930   26.8070   36.9690 C   0  0  0  0  0  0  0  0  0  0  0  0
   30.7120   27.2660   35.7120 N   0  0  0  0  0  0  0  0  0  0  0  0
   31.1220   28.8460   34.3950 H   0  0  0  0  0  0  0  0  0  0  0  0
   31.8420   29.5200   38.5860 H   0  0  0  0  0  0  0  0  0  0  0  0
   30.3490   25.7930   37.1110 H   0  0  0  0  0  0  0  0  0  0  0  0
   37.9400   25.2440   32.0310 O   0  0  0  0  0  0  0  0  0  0  0  0
   38.8630   25.6460   33.0340 C   0  0  0  0  0  2  0  0  0  0  0  0
   38.6340   24.8680   34.2570 C   0  0  0  0  0  0  0  0  0  0  0  0
   38.2150   25.4290   35.3780 C   0  0  0  0  0  0  0  0  0  0  0  0
   38.0340   24.5710   36.5250 N   0  0  0  0  0  0  0  0  0  0  0  0
   38.0780   24.4610   37.9270 C   0  0  0  0  0  0  0  0  0  0  0  0
   37.9760   25.2080   38.9400 O   0  0  0  0  0  0  0  0  0  0  0  0
   38.3100   23.0130   37.8280 C   0  0  0  0  0  3  0  0  0  0  0  0
   39.3950   22.7180   37.7510 H   0  0  0  0  0  0  0  0  0  0  0  0
   37.6410   23.1780   36.4820 C   0  0  2  0  0  3  0  0  0  0  0  0
   38.5660   22.2740   35.2210 S   0  0  0  0  0  0  0  0  0  0  0  0
   38.9590   23.4780   33.9580 C   0  0  0  0  0  3  0  0  0  0  0  0
   38.3500   23.1740   33.0520 H   0  0  0  0  0  0  0  0  0  0  0  0
   37.9260   26.8520   35.5740 C   0  0  0  0  0  0  0  0  0  0  0  0
   37.0430   27.6220   35.1950 O   0  0  0  0  0  0  0  0  0  0  0  0
   38.7260   27.6710   36.3320 O   0  0  0  0  0  0  0  0  0  0  0  0
   38.3620   28.3300   37.0070 H   0  0  0  0  0  0  0  0  0  0  0  0
  1  6  1  6  0  0  0
  1  2  1  0  0  0  0
  1  5  1  0  0  0  0
  1 36  1  0  0  0  0
  2  7  1  0  0  0  0
  3  9  1  6  0  0  0
  3  4  1  0  0  0  0
  3  2  1  0  0  0  0
  3 12  1  0  0  0  0
  4  5  1  0  0  0  0
  5 10  1  0  0  0  0
  8  2  1  0  0  0  0
 11  5  1  0  0  0  0
 12 15  1  0  0  0  0
 12 13  1  0  0  0  0
 14 12  1  0  0  0  0
 15 20  1  0  0  0  0
 16 25  1  0  0  0  0
 16 17  1  0  0  0  0
 17 22  1  0  0  0  0
 18 17  2  0  0  0  0
 18 23  1  0  0  0  0
 19 18  1  0  0  0  0
 20 21  1  0  0  0  0
 20 19  2  0  0  0  0
 21 16  2  0  0  0  0
 24 19  1  0  0  0  0
 25 26  2  0  0  0  0
 25 28  1  0  0  0  0
 27 32  2  0  0  0  0
 27 28  1  0  0  0  0
 28 29  2  0  0  0  0
 29 30  1  0  0  0  0
 29 34  1  0  0  0  0
 31 35  1  0  0  0  0
 31 30  2  0  0  0  0
 32 31  1  0  0  0  0
 33 27  1  0  0  0  0
 36 37  1  0  0  0  0
 37 38  1  0  0  0  0
 38 39  2  0  0  0  0
 39 49  1  0  0  0  0
 39 40  1  0  0  0  0
 40 41  1  0  0  0  0
 41 42  2  0  0  0  0
 43 41  1  0  0  0  0
 44 43  1  0  0  0  0
 45 46  1  6  0  0  0
 45 40  1  0  0  0  0
 45 43  1  0  0  0  0
 47 38  1  0  0  0  0
 47 46  1  0  0  0  0
 48 47  1  0  0  0  0
 49 51  1  0  0  0  0
 50 49  2  0  0  0  0
 51 52  1  0  0  0  0
M  END
>  <minimizedAffinity>
-6.58193254

$$$$

 OpenBabel03262522183D

 52 56  0  0  1  0  0  0  0  0999 V2000
   36.7980   26.7190   33.3580 C   0  0  1  0  0  0  0  0  0  0  0  0
   36.8150   28.2030   33.6800 C   0  0  0  0  0  0  0  0  0  0  0  0
   35.8060   28.7370   32.7020 C   0  0  2  0  0  0  0  0  0  0  0  0
   35.4580   27.7160   31.8500 O   0  0  0  0  0  0  0  0  0  0  0  0
   36.4710   26.7630   31.8850 C   0  0  0  0  0  0  0  0  0  0  0  0
   36.0290   26.1990   33.9420 H   0  0  0  0  0  0  0  0  0  0  0  0
   37.8320   28.6390   33.5490 H   0  0  0  0  0  0  0  0  0  0  0  0
   36.5230   28.3020   34.7390 H   0  0  0  0  0  0  0  0  0  0  0  0
   34.9480   29.0990   33.3150 H   0  0  0  0  0  0  0  0  0  0  0  0
   37.3520   27.0950   31.3350 H   0  0  0  0  0  0  0  0  0  0  0  0
   36.0700   25.7860   31.5430 H   0  0  0  0  0  0  0  0  0  0  0  0
   36.3310   29.9490   31.9690 C   0  0  0  0  0  0  0  0  0  0  0  0
   36.5270   29.6670   30.9330 H   0  0  0  0  0  0  0  0  0  0  0  0
   37.3090   30.2920   32.4030 H   0  0  0  0  0  0  0  0  0  0  0  0
   35.1150   31.2830   32.1620 S   0  0  0  0  0  0  0  0  0  0  0  0
   33.4570   31.2920   35.7690 C   0  0  0  0  0  0  0  0  0  0  0  0
   34.4910   31.7590   36.6100 C   0  0  0  0  0  0  0  0  0  0  0  0
   35.7200   32.0840   36.1010 C   0  0  0  0  0  0  0  0  0  0  0  0
   35.8860   31.9310   34.7460 C   0  0  0  0  0  0  0  0  0  0  0  0
   34.8860   31.4810   33.9440 C   0  0  0  0  0  0  0  0  0  0  0  0
   33.6590   31.1540   34.4360 N   0  0  0  0  0  0  0  0  0  0  0  0
   34.3180   31.8660   37.6770 H   0  0  0  0  0  0  0  0  0  0  0  0
   36.5490   32.4430   36.6670 H   0  0  0  0  0  0  0  0  0  0  0  0
   36.8250   32.1640   34.2510 H   0  0  0  0  0  0  0  0  0  0  0  0
   32.2020   30.9730   36.3780 C   0  0  0  0  0  0  0  0  0  0  0  0
   31.5510   31.8340   36.9830 O   0  0  0  0  0  0  0  0  0  0  0  0
   30.9800   29.2330   35.1400 C   0  0  0  0  0  0  0  0  0  0  0  0
   31.6130   29.6270   36.3250 C   0  0  0  0  0  0  0  0  0  0  0  0
   31.6600   28.7390   37.3970 C   0  0  0  0  0  0  0  0  0  0  0  0
   31.0830   27.5020   37.2540 N   0  0  0  0  0  0  0  0  0  0  0  0
   30.4820   27.1510   36.1050 C   0  0  0  0  0  0  0  0  0  0  0  0
   30.4300   27.9960   35.0680 N   0  0  0  0  0  0  0  0  0  0  0  0
   30.9090   29.8760   34.2720 H   0  0  0  0  0  0  0  0  0  0  0  0
   32.1530   29.0550   38.3130 H   0  0  0  0  0  0  0  0  0  0  0  0
   30.0200   26.1840   35.9670 H   0  0  0  0  0  0  0  0  0  0  0  0
   38.0400   26.1390   33.6030 O   0  0  0  0  0  0  0  0  0  0  0  0
   37.9580   25.4550   34.8460 C   0  0  0  0  0  2  0  0  0  0  0  0
   39.2610   24.8680   35.1760 C   0  0  0  0  0  0  0  0  0  0  0  0
   39.3720   23.6790   35.7440 C   0  0  0  0  0  0  0  0  0  0  0  0
   40.7030   23.2020   36.0350 N   0  0  0  0  0  0  0  0  0  0  0  0
   41.5130   22.4310   36.8890 C   0  0  0  0  0  0  0  0  0  0  0  0
   41.3950   21.4540   37.6790 O   0  0  0  0  0  0  0  0  0  0  0  0
   42.6940   23.2240   36.5210 C   0  0  0  0  0  3  0  0  0  0  0  0
   42.8590   24.1390   37.1580 H   0  0  0  0  0  0  0  0  0  0  0  0
   41.8940   23.5070   35.2690 C   0  0  2  0  0  3  0  0  0  0  0  0
   41.9830   25.2670   34.8680 S   0  0  0  0  0  0  0  0  0  0  0  0
   40.2860   25.8240   34.7720 C   0  0  0  0  0  3  0  0  0  0  0  0
   40.1100   26.0680   33.6790 H   0  0  0  0  0  0  0  0  0  0  0  0
   38.2650   22.7980   36.1210 C   0  0  0  0  0  0  0  0  0  0  0  0
   37.5420   22.0000   35.5210 O   0  0  0  0  0  0  0  0  0  0  0  0
   37.7900   22.7170   37.4060 O   0  0  0  0  0  0  0  0  0  0  0  0
   37.5830   21.8400   37.8660 H   0  0  0  0  0  0  0  0  0  0  0  0
  1 36  1  0  0  0  0
  1  2  1  0  0  0  0
  1  6  1  1  0  0  0
  2  8  1  0  0  0  0
  3  9  1  1  0  0  0
  3  2  1  0  0  0  0
  4  5  1  0  0  0  0
  4  3  1  0  0  0  0
  5  1  1  0  0  0  0
  7  2  1  0  0  0  0
 10  5  1  0  0  0  0
 11  5  1  0  0  0  0
 12 15  1  0  0  0  0
 12 14  1  0  0  0  0
 12  3  1  0  0  0  0
 13 12  1  0  0  0  0
 15 20  1  0  0  0  0
 16 25  1  0  0  0  0
 16 17  1  0  0  0  0
 17 22  1  0  0  0  0
 18 17  2  0  0  0  0
 18 23  1  0  0  0  0
 19 18  1  0  0  0  0
 20 21  1  0  0  0  0
 20 19  2  0  0  0  0
 21 16  2  0  0  0  0
 24 19  1  0  0  0  0
 25 26  2  0  0  0  0
 27 28  1  0  0  0  0
 28 25  1  0  0  0  0
 28 29  2  0  0  0  0
 29 34  1  0  0  0  0
 30 29  1  0  0  0  0
 31 30  2  0  0  0  0
 32 27  2  0  0  0  0
 32 31  1  0  0  0  0
 33 27  1  0  0  0  0
 35 31  1  0  0  0  0
 36 37  1  0  0  0  0
 37 38  1  0  0  0  0
 38 39  2  0  0  0  0
 39 40  1  0  0  0  0
 39 49  1  0  0  0  0
 40 41  1  0  0  0  0
 41 42  2  0  0  0  0
 43 41  1  0  0  0  0
 43 44  1  0  0  0  0
 45 46  1  1  0  0  0
 45 40  1  0  0  0  0
 45 43  1  0  0  0  0
 47 46  1  0  0  0  0
 47 38  1  0  0  0  0
 48 47  1  0  0  0  0
 49 51  1  0  0  0  0
 50 49  2  0  0  0  0
 51 52  1  0  0  0  0
M  END
>  <minimizedAffinity>
-6.26850414

$$$$

 OpenBabel03262522183D

 52 56  0  0  1  0  0  0  0  0999 V2000
   36.8230   25.2470   31.6200 C   0  0  1  0  0  0  0  0  0  0  0  0
   37.1340   23.7850   31.8890 C   0  0  0  0  0  0  0  0  0  0  0  0
   36.1630   23.0950   30.9740 C   0  0  2  0  0  0  0  0  0  0  0  0
   35.3210   24.0480   30.4510 O   0  0  0  0  0  0  0  0  0  0  0  0
   35.3530   25.1570   31.2900 C   0  0  0  0  0  0  0  0  0  0  0  0
   37.4170   25.6280   30.7820 H   0  0  0  0  0  0  0  0  0  0  0  0
   36.9910   23.5270   32.9630 H   0  0  0  0  0  0  0  0  0  0  0  0
   38.1950   23.6340   31.6290 H   0  0  0  0  0  0  0  0  0  0  0  0
   36.7810   22.5910   30.1960 H   0  0  0  0  0  0  0  0  0  0  0  0
   34.7930   24.9800   32.2090 H   0  0  0  0  0  0  0  0  0  0  0  0
   35.0210   26.0550   30.7280 H   0  0  0  0  0  0  0  0  0  0  0  0
   35.4160   21.9920   31.6870 C   0  0  0  0  0  0  0  0  0  0  0  0
   34.7480   21.5090   30.9730 H   0  0  0  0  0  0  0  0  0  0  0  0
   34.7700   22.4070   32.5080 H   0  0  0  0  0  0  0  0  0  0  0  0
   36.6460   20.8810   32.4290 S   0  0  0  0  0  0  0  0  0  0  0  0
   37.6480   22.3210   35.9900 C   0  0  0  0  0  0  0  0  0  0  0  0
   36.6440   21.8190   36.8480 C   0  0  0  0  0  0  0  0  0  0  0  0
   35.6350   21.0280   36.3640 C   0  0  0  0  0  0  0  0  0  0  0  0
   35.6570   20.7570   35.0170 C   0  0  0  0  0  0  0  0  0  0  0  0
   36.6270   21.2440   34.2000 C   0  0  0  0  0  0  0  0  0  0  0  0
   37.6350   22.0310   34.6660 N   0  0  0  0  0  0  0  0  0  0  0  0
   36.6640   22.0570   37.9060 H   0  0  0  0  0  0  0  0  0  0  0  0
   34.8440   20.6110   36.9440 H   0  0  0  0  0  0  0  0  0  0  0  0
   34.9000   20.1380   34.5420 H   0  0  0  0  0  0  0  0  0  0  0  0
   38.6660   23.1400   36.5720 C   0  0  0  0  0  0  0  0  0  0  0  0
   39.3860   22.7100   37.4820 O   0  0  0  0  0  0  0  0  0  0  0  0
   40.0030   24.7510   35.2790 C   0  0  0  0  0  0  0  0  0  0  0  0
   38.9200   24.5210   36.1350 C   0  0  0  0  0  0  0  0  0  0  0  0
   38.1330   25.5980   36.5390 C   0  0  0  0  0  0  0  0  0  0  0  0
   38.4470   26.8520   36.0790 N   0  0  0  0  0  0  0  0  0  0  0  0
   39.4930   27.0430   35.2570 C   0  0  0  0  0  0  0  0  0  0  0  0
   40.2560   26.0160   34.8630 N   0  0  0  0  0  0  0  0  0  0  0  0
   40.6520   23.9580   34.9300 H   0  0  0  0  0  0  0  0  0  0  0  0
   37.2950   25.4080   37.2040 H   0  0  0  0  0  0  0  0  0  0  0  0
   39.7610   28.0200   34.8810 H   0  0  0  0  0  0  0  0  0  0  0  0
   37.0610   26.0260   32.7510 O   0  0  0  0  0  0  0  0  0  0  0  0
   37.7030   27.2190   32.3230 C   0  0  0  0  0  2  0  0  0  0  0  0
   36.7500   28.3340   32.3600 C   0  0  0  0  0  0  0  0  0  0  0  0
   36.5310   29.1050   31.3080 C   0  0  0  0  0  0  0  0  0  0  0  0
   35.5800   30.1810   31.4580 N   0  0  0  0  0  0  0  0  0  0  0  0
   35.2090   31.4820   31.0700 C   0  0  0  0  0  0  0  0  0  0  0  0
   35.3660   32.2580   30.0870 O   0  0  0  0  0  0  0  0  0  0  0  0
   34.4850   31.6760   32.3340 C   0  0  0  0  0  3  0  0  0  0  0  0
   35.1150   32.0850   33.1750 H   0  0  0  0  0  0  0  0  0  0  0  0
   34.4180   30.1650   32.3220 C   0  0  2  0  0  3  0  0  0  0  0  0
   34.8260   29.5180   33.9590 S   0  0  0  0  0  0  0  0  0  0  0  0
   36.1800   28.3780   33.7010 C   0  0  0  0  0  3  0  0  0  0  0  0
   35.7550   27.3510   33.9220 H   0  0  0  0  0  0  0  0  0  0  0  0
   37.1730   28.9780   29.9980 C   0  0  0  0  0  0  0  0  0  0  0  0
   38.0670   29.5820   29.4020 O   0  0  0  0  0  0  0  0  0  0  0  0
   36.8180   28.0100   29.0920 O   0  0  0  0  0  0  0  0  0  0  0  0
   37.4910   27.4570   28.5790 H   0  0  0  0  0  0  0  0  0  0  0  0
  1  6  1  6  0  0  0
  1  2  1  0  0  0  0
  1 36  1  0  0  0  0
  2  7  1  0  0  0  0
  3  9  1  6  0  0  0
  3 12  1  0  0  0  0
  3  2  1  0  0  0  0
  4  3  1  0  0  0  0
  4  5  1  0  0  0  0
  5  1  1  0  0  0  0
  5 10  1  0  0  0  0
  8  2  1  0  0  0  0
 11  5  1  0  0  0  0
 12 15  1  0  0  0  0
 12 14  1  0  0  0  0
 13 12  1  0  0  0  0
 15 20  1  0  0  0  0
 16 25  1  0  0  0  0
 16 17  1  0  0  0  0
 17 22  1  0  0  0  0
 18 17  2  0  0  0  0
 18 23  1  0  0  0  0
 19 18  1  0  0  0  0
 20 21  1  0  0  0  0
 20 19  2  0  0  0  0
 21 16  2  0  0  0  0
 24 19  1  0  0  0  0
 25 26  2  0  0  0  0
 27 28  1  0  0  0  0
 28 29  2  0  0  0  0
 28 25  1  0  0  0  0
 29 34  1  0  0  0  0
 30 29  1  0  0  0  0
 31 30  2  0  0  0  0
 32 31  1  0  0  0  0
 32 27  2  0  0  0  0
 33 27  1  0  0  0  0
 35 31  1  0  0  0  0
 37 38  1  0  0  0  0
 37 36  1  0  0  0  0
 38 47  1  0  0  0  0
 39 40  1  0  0  0  0
 39 38  2  0  0  0  0
 40 45  1  0  0  0  0
 41 40  1  0  0  0  0
 41 43  1  0  0  0  0
 42 41  2  0  0  0  0
 43 44  1  0  0  0  0
 45 43  1  1  0  0  0
 45 46  1  0  0  0  0
 47 48  1  0  0  0  0
 47 46  1  0  0  0  0
 49 39  1  0  0  0  0
 50 49  2  0  0  0  0
 51 49  1  0  0  0  0
 52 51  1  0  0  0  0
M  END
>  <minimizedAffinity>
-6.22620344

$$$$

 OpenBabel03262522183D

 52 56  0  0  1  0  0  0  0  0999 V2000
   36.0660   28.9640   31.6710 C   0  0  1  0  0  0  0  0  0  0  0  0
   37.4660   28.5760   31.2280 C   0  0  0  0  0  0  0  0  0  0  0  0
   37.2300   27.2140   30.6380 C   0  0  2  0  0  0  0  0  0  0  0  0
   35.9340   26.8490   30.9140 O   0  0  0  0  0  0  0  0  0  0  0  0
   35.4960   27.6050   31.9970 C   0  0  0  0  0  0  0  0  0  0  0  0
   35.5210   29.4630   30.8610 H   0  0  0  0  0  0  0  0  0  0  0  0
   38.1790   28.5700   32.0840 H   0  0  0  0  0  0  0  0  0  0  0  0
   37.7930   29.3390   30.5020 H   0  0  0  0  0  0  0  0  0  0  0  0
   37.4280   27.3150   29.5450 H   0  0  0  0  0  0  0  0  0  0  0  0
   35.9310   27.2520   32.9330 H   0  0  0  0  0  0  0  0  0  0  0  0
   34.3860   27.6360   32.0010 H   0  0  0  0  0  0  0  0  0  0  0  0
   38.2350   26.2060   31.1470 C   0  0  0  0  0  0  0  0  0  0  0  0
   38.7290   25.7480   30.2900 H   0  0  0  0  0  0  0  0  0  0  0  0
   37.7260   25.3780   31.7100 H   0  0  0  0  0  0  0  0  0  0  0  0
   39.3580   27.0700   32.2840 S   0  0  0  0  0  0  0  0  0  0  0  0
   38.6550   24.6650   35.3630 C   0  0  0  0  0  0  0  0  0  0  0  0
   38.2870   25.5510   36.4010 C   0  0  0  0  0  0  0  0  0  0  0  0
   38.2430   26.9030   36.1890 C   0  0  0  0  0  0  0  0  0  0  0  0
   38.5730   27.3410   34.9290 C   0  0  0  0  0  0  0  0  0  0  0  0
   38.9260   26.4820   33.9380 C   0  0  0  0  0  0  0  0  0  0  0  0
   38.9740   25.1360   34.1330 N   0  0  0  0  0  0  0  0  0  0  0  0
   38.0340   25.1630   37.3820 H   0  0  0  0  0  0  0  0  0  0  0  0
   37.9760   27.6340   36.9170 H   0  0  0  0  0  0  0  0  0  0  0  0
   38.5660   28.3960   34.6670 H   0  0  0  0  0  0  0  0  0  0  0  0
   38.6770   23.2660   35.6630 C   0  0  0  0  0  0  0  0  0  0  0  0
   37.6410   22.5910   35.6250 O   0  0  0  0  0  0  0  0  0  0  0  0
   40.7490   22.1190   34.9980 C   0  0  0  0  0  0  0  0  0  0  0  0
   39.9090   22.5530   36.0300 C   0  0  0  0  0  0  0  0  0  0  0  0
   40.2680   22.2950   37.3520 C   0  0  0  0  0  0  0  0  0  0  0  0
   41.4380   21.6220   37.5970 N   0  0  0  0  0  0  0  0  0  0  0  0
   42.2250   21.2160   36.5860 C   0  0  0  0  0  0  0  0  0  0  0  0
   41.8910   21.4580   35.3130 N   0  0  0  0  0  0  0  0  0  0  0  0
   40.5270   22.2870   33.9520 H   0  0  0  0  0  0  0  0  0  0  0  0
   39.6080   22.6360   38.1450 H   0  0  0  0  0  0  0  0  0  0  0  0
   43.1510   20.6850   36.7530 H   0  0  0  0  0  0  0  0  0  0  0  0
   36.1070   29.7970   32.7860 O   0  0  0  0  0  0  0  0  0  0  0  0
   35.4380   29.1290   33.8470 C   0  0  0  0  0  2  0  0  0  0  0  0
   34.7300   30.1080   34.6800 C   0  0  0  0  0  0  0  0  0  0  0  0
   33.4100   30.1650   34.7280 C   0  0  0  0  0  0  0  0  0  0  0  0
   32.8170   31.1750   35.5720 N   0  0  0  0  0  0  0  0  0  0  0  0
   31.7310   32.0470   35.7730 C   0  0  0  0  0  0  0  0  0  0  0  0
   30.5130   32.1330   35.4540 O   0  0  0  0  0  0  0  0  0  0  0  0
   32.5730   32.9440   36.5780 C   0  0  0  0  0  3  0  0  0  0  0  0
   33.1200   33.7300   35.9840 H   0  0  0  0  0  0  0  0  0  0  0  0
   33.3890   31.6900   36.7990 C   0  0  2  0  0  3  0  0  0  0  0  0
   35.1470   32.0570   36.6010 S   0  0  0  0  0  0  0  0  0  0  0  0
   35.7380   30.9180   35.3550 C   0  0  0  0  0  3  0  0  0  0  0  0
   36.4330   30.2090   35.9010 H   0  0  0  0  0  0  0  0  0  0  0  0
   32.4830   29.3010   33.9930 C   0  0  0  0  0  0  0  0  0  0  0  0
   32.3120   29.0150   32.8070 O   0  0  0  0  0  0  0  0  0  0  0  0
   31.5100   28.5620   34.6180 O   0  0  0  0  0  0  0  0  0  0  0  0
   31.3210   27.5930   34.3950 H   0  0  0  0  0  0  0  0  0  0  0  0
  1  6  1  6  0  0  0
  1  5  1  0  0  0  0
  1 36  1  0  0  0  0
  2  1  1  0  0  0  0
  2  7  1  0  0  0  0
  3  9  1  6  0  0  0
  3  4  1  0  0  0  0
  3 12  1  0  0  0  0
  3  2  1  0  0  0  0
  4  5  1  0  0  0  0
  5 11  1  0  0  0  0
  5 10  1  0  0  0  0
  8  2  1  0  0  0  0
 12 14  1  0  0  0  0
 12 15  1  0  0  0  0
 13 12  1  0  0  0  0
 15 20  1  0  0  0  0
 16 25  1  0  0  0  0
 16 17  1  0  0  0  0
 17 22  1  0  0  0  0
 18 17  2  0  0  0  0
 18 23  1  0  0  0  0
 19 18  1  0  0  0  0
 20 21  1  0  0  0  0
 20 19  2  0  0  0  0
 21 16  2  0  0  0  0
 24 19  1  0  0  0  0
 25 28  1  0  0  0  0
 26 25  2  0  0  0  0
 27 32  2  0  0  0  0
 27 28  1  0  0  0  0
 28 29  2  0  0  0  0
 29 30  1  0  0  0  0
 29 34  1  0  0  0  0
 31 35  1  0  0  0  0
 31 30  2  0  0  0  0
 32 31  1  0  0  0  0
 33 27  1  0  0  0  0
 36 37  1  0  0  0  0
 37 38  1  0  0  0  0
 38 39  2  0  0  0  0
 38 47  1  0  0  0  0
 39 40  1  0  0  0  0
 40 41  1  0  0  0  0
 40 45  1  0  0  0  0
 41 43  1  0  0  0  0
 42 41  2  0  0  0  0
 44 43  1  0  0  0  0
 45 43  1  6  0  0  0
 46 45  1  0  0  0  0
 47 48  1  0  0  0  0
 47 46  1  0  0  0  0
 49 51  1  0  0  0  0
 49 39  1  0  0  0  0
 50 49  2  0  0  0  0
 52 51  1  0  0  0  0
M  END
>  <minimizedAffinity>
-6.072927

$$$$

 OpenBabel03262522183D

 52 56  0  0  1  0  0  0  0  0999 V2000
   36.4680   28.9720   30.5420 C   0  0  1  0  0  0  0  0  0  0  0  0
   35.7930   29.9590   31.4780 C   0  0  0  0  0  0  0  0  0  0  0  0
   35.8650   31.2310   30.6800 C   0  0  2  0  0  0  0  0  0  0  0  0
   36.6460   30.9950   29.5740 O   0  0  0  0  0  0  0  0  0  0  0  0
   37.4420   29.8850   29.8380 C   0  0  0  0  0  0  0  0  0  0  0  0
   35.7420   28.5240   29.8530 H   0  0  0  0  0  0  0  0  0  0  0  0
   36.3190   30.0210   32.4570 H   0  0  0  0  0  0  0  0  0  0  0  0
   34.7700   29.5850   31.6500 H   0  0  0  0  0  0  0  0  0  0  0  0
   34.8120   31.4890   30.4190 H   0  0  0  0  0  0  0  0  0  0  0  0
   38.2560   30.1300   30.5210 H   0  0  0  0  0  0  0  0  0  0  0  0
   37.7790   29.4370   28.8800 H   0  0  0  0  0  0  0  0  0  0  0  0
   36.3770   32.3820   31.5150 C   0  0  0  0  0  0  0  0  0  0  0  0
   36.9750   33.0330   30.8760 H   0  0  0  0  0  0  0  0  0  0  0  0
   37.0560   32.0160   32.3330 H   0  0  0  0  0  0  0  0  0  0  0  0
   34.9430   33.1940   32.2770 S   0  0  0  0  0  0  0  0  0  0  0  0
   33.5410   31.7240   35.6870 C   0  0  0  0  0  0  0  0  0  0  0  0
   34.6920   31.6040   36.4980 C   0  0  0  0  0  0  0  0  0  0  0  0
   35.9250   31.9680   36.0270 C   0  0  0  0  0  0  0  0  0  0  0  0
   35.9760   32.4490   34.7400 C   0  0  0  0  0  0  0  0  0  0  0  0
   34.8640   32.5610   33.9690 C   0  0  0  0  0  0  0  0  0  0  0  0
   33.6320   32.2020   34.4230 N   0  0  0  0  0  0  0  0  0  0  0  0
   34.6070   31.2190   37.5090 H   0  0  0  0  0  0  0  0  0  0  0  0
   36.8380   31.9090   36.5730 H   0  0  0  0  0  0  0  0  0  0  0  0
   36.9090   32.7640   34.2800 H   0  0  0  0  0  0  0  0  0  0  0  0
   32.2890   31.3210   36.2520 C   0  0  0  0  0  0  0  0  0  0  0  0
   31.5860   32.1240   36.8800 O   0  0  0  0  0  0  0  0  0  0  0  0
   31.6790   29.1740   37.2850 C   0  0  0  0  0  0  0  0  0  0  0  0
   31.7650   29.9530   36.1260 C   0  0  0  0  0  0  0  0  0  0  0  0
   31.3560   29.4090   34.9100 C   0  0  0  0  0  0  0  0  0  0  0  0
   30.8800   28.1220   34.8910 N   0  0  0  0  0  0  0  0  0  0  0  0
   30.8090   27.3970   36.0200 C   0  0  0  0  0  0  0  0  0  0  0  0
   31.1990   27.9090   37.1940 N   0  0  0  0  0  0  0  0  0  0  0  0
   31.9810   29.5370   38.2590 H   0  0  0  0  0  0  0  0  0  0  0  0
   31.4280   30.0230   34.0160 H   0  0  0  0  0  0  0  0  0  0  0  0
   30.4390   26.3820   36.0310 H   0  0  0  0  0  0  0  0  0  0  0  0
   37.1130   27.9660   31.2560 O   0  0  0  0  0  0  0  0  0  0  0  0
   36.2840   27.6220   32.3580 C   0  0  0  0  0  2  0  0  0  0  0  0
   37.0280   26.7650   33.2880 C   0  0  0  0  0  0  0  0  0  0  0  0
   37.2210   25.4780   33.0560 C   0  0  0  0  0  0  0  0  0  0  0  0
   37.9580   24.7260   34.0430 N   0  0  0  0  0  0  0  0  0  0  0  0
   38.1440   23.4810   34.6720 C   0  0  0  0  0  0  0  0  0  0  0  0
   37.9600   22.2570   34.4240 O   0  0  0  0  0  0  0  0  0  0  0  0
   38.6930   24.1410   35.8650 C   0  0  0  0  0  3  0  0  0  0  0  0
   37.9220   24.4360   36.6320 H   0  0  0  0  0  0  0  0  0  0  0  0
   39.0130   25.2490   34.8870 C   0  0  2  0  0  3  0  0  0  0  0  0
   38.5550   26.8460   35.5960 S   0  0  0  0  0  0  0  0  0  0  0  0
   37.4450   27.5970   34.4110 C   0  0  0  0  0  3  0  0  0  0  0  0
   38.0110   28.4820   33.9870 H   0  0  0  0  0  0  0  0  0  0  0  0
   36.7450   24.7330   31.8880 C   0  0  0  0  0  0  0  0  0  0  0  0
   35.9090   23.8480   31.6990 O   0  0  0  0  0  0  0  0  0  0  0  0
   37.2410   24.9440   30.6250 O   0  0  0  0  0  0  0  0  0  0  0  0
   36.6530   25.0260   29.8060 H   0  0  0  0  0  0  0  0  0  0  0  0
  1  6  1  6  0  0  0
  1 36  1  0  0  0  0
  1  2  1  0  0  0  0
  2  8  1  0  0  0  0
  2  7  1  0  0  0  0
  3  9  1  6  0  0  0
  3  2  1  0  0  0  0
  3 12  1  0  0  0  0
  4  5  1  0  0  0  0
  4  3  1  0  0  0  0
  5 10  1  0  0  0  0
  5  1  1  0  0  0  0
 11  5  1  0  0  0  0
 12 15  1  0  0  0  0
 12 14  1  0  0  0  0
 13 12  1  0  0  0  0
 15 20  1  0  0  0  0
 16 25  1  0  0  0  0
 16 17  1  0  0  0  0
 17 22  1  0  0  0  0
 18 17  2  0  0  0  0
 18 23  1  0  0  0  0
 19 18  1  0  0  0  0
 20 21  1  0  0  0  0
 20 19  2  0  0  0  0
 21 16  2  0  0  0  0
 24 19  1  0  0  0  0
 25 26  2  0  0  0  0
 27 33  1  0  0  0  0
 28 25  1  0  0  0  0
 28 27  2  0  0  0  0
 29 28  1  0  0  0  0
 30 29  2  0  0  0  0
 30 31  1  0  0  0  0
 31 35  1  0  0  0  0
 31 32  2  0  0  0  0
 32 27  1  0  0  0  0
 34 29  1  0  0  0  0
 36 37  1  0  0  0  0
 37 38  1  0  0  0  0
 38 47  1  0  0  0  0
 39 38  2  0  0  0  0
 39 40  1  0  0  0  0
 40 41  1  0  0  0  0
 40 45  1  0  0  0  0
 41 43  1  0  0  0  0
 42 41  2  0  0  0  0
 43 44  1  0  0  0  0
 45 46  1  1  0  0  0
 45 43  1  0  0  0  0
 47 46  1  0  0  0  0
 48 47  1  0  0  0  0
 49 39  1  0  0  0  0
 50 49  2  0  0  0  0
 51 49  1  0  0  0  0
 52 51  1  0  0  0  0
M  END
>  <minimizedAffinity>
-5.98356247

$$$$

 OpenBabel03262522183D

 52 56  0  0  1  0  0  0  0  0999 V2000
   36.6690   27.2210   31.7880 C   0  0  1  0  0  0  0  0  0  0  0  0
   38.1230   27.6070   31.5740 C   0  0  0  0  0  0  0  0  0  0  0  0
   38.6640   26.3820   30.8910 C   0  0  2  0  0  0  0  0  0  0  0  0
   37.6900   25.4120   30.9230 O   0  0  0  0  0  0  0  0  0  0  0  0
   36.8040   25.7260   31.9480 C   0  0  0  0  0  0  0  0  0  0  0  0
   36.0580   27.4950   30.9200 H   0  0  0  0  0  0  0  0  0  0  0  0
   38.6310   27.8370   32.5380 H   0  0  0  0  0  0  0  0  0  0  0  0
   38.1210   28.5160   30.9500 H   0  0  0  0  0  0  0  0  0  0  0  0
   38.9230   26.7000   29.8540 H   0  0  0  0  0  0  0  0  0  0  0  0
   37.2330   25.5120   32.9280 H   0  0  0  0  0  0  0  0  0  0  0  0
   35.8320   25.2230   31.7640 H   0  0  0  0  0  0  0  0  0  0  0  0
   39.9590   25.9230   31.5180 C   0  0  0  0  0  0  0  0  0  0  0  0
   40.7200   25.8670   30.7390 H   0  0  0  0  0  0  0  0  0  0  0  0
   39.8560   24.8890   31.9470 H   0  0  0  0  0  0  0  0  0  0  0  0
   40.3570   27.0690   32.8700 S   0  0  0  0  0  0  0  0  0  0  0  0
   38.9360   24.5600   35.5970 C   0  0  0  0  0  0  0  0  0  0  0  0
   38.2440   25.4010   36.4970 C   0  0  0  0  0  0  0  0  0  0  0  0
   38.1930   26.7550   36.2960 C   0  0  0  0  0  0  0  0  0  0  0  0
   38.8430   27.2390   35.1870 C   0  0  0  0  0  0  0  0  0  0  0  0
   39.5050   26.4220   34.3270 C   0  0  0  0  0  0  0  0  0  0  0  0
   39.5650   25.0750   34.5130 N   0  0  0  0  0  0  0  0  0  0  0  0
   37.7440   24.9780   37.3620 H   0  0  0  0  0  0  0  0  0  0  0  0
   37.6940   27.4550   36.9260 H   0  0  0  0  0  0  0  0  0  0  0  0
   38.8570   28.2980   34.9440 H   0  0  0  0  0  0  0  0  0  0  0  0
   38.9430   23.1560   35.8760 C   0  0  0  0  0  0  0  0  0  0  0  0
   37.8890   22.5090   35.9160 O   0  0  0  0  0  0  0  0  0  0  0  0
   40.9420   22.0010   35.0270 C   0  0  0  0  0  0  0  0  0  0  0  0
   40.1810   22.4040   36.1300 C   0  0  0  0  0  0  0  0  0  0  0  0
   40.6200   22.0800   37.4120 C   0  0  0  0  0  0  0  0  0  0  0  0
   41.7880   21.3760   37.5500 N   0  0  0  0  0  0  0  0  0  0  0  0
   42.5000   21.0010   36.4730 C   0  0  0  0  0  0  0  0  0  0  0  0
   42.0880   21.3060   35.2360 N   0  0  0  0  0  0  0  0  0  0  0  0
   40.6560   22.2200   34.0060 H   0  0  0  0  0  0  0  0  0  0  0  0
   40.0200   22.3980   38.2620 H   0  0  0  0  0  0  0  0  0  0  0  0
   43.4230   20.4460   36.5550 H   0  0  0  0  0  0  0  0  0  0  0  0
   36.1530   27.8280   32.9300 O   0  0  0  0  0  0  0  0  0  0  0  0
   35.2560   28.8460   32.5080 C   0  0  0  0  0  2  0  0  0  0  0  0
   35.6270   30.1220   33.1300 C   0  0  0  0  0  0  0  0  0  0  0  0
   35.8980   31.1990   32.4130 C   0  0  0  0  0  0  0  0  0  0  0  0
   36.2640   32.4000   33.1270 N   0  0  0  0  0  0  0  0  0  0  0  0
   37.0170   33.5880   33.1160 C   0  0  0  0  0  0  0  0  0  0  0  0
   37.5170   34.3850   32.2750 O   0  0  0  0  0  0  0  0  0  0  0  0
   37.0400   33.6120   34.5850 C   0  0  0  0  0  3  0  0  0  0  0  0
   37.8990   33.0480   35.0480 H   0  0  0  0  0  0  0  0  0  0  0  0
   35.7880   32.7760   34.4420 C   0  0  2  0  0  3  0  0  0  0  0  0
   35.8470   31.3790   35.5860 S   0  0  0  0  0  0  0  0  0  0  0  0
   35.6310   29.9200   34.5740 C   0  0  0  0  0  3  0  0  0  0  0  0
   34.6180   29.5020   34.8610 H   0  0  0  0  0  0  0  0  0  0  0  0
   35.8740   31.2900   30.9510 C   0  0  0  0  0  0  0  0  0  0  0  0
   36.7100   31.1620   30.0550 O   0  0  0  0  0  0  0  0  0  0  0  0
   34.7300   31.5770   30.2480 O   0  0  0  0  0  0  0  0  0  0  0  0
   34.4490   31.0720   29.4170 H   0  0  0  0  0  0  0  0  0  0  0  0
  1  6  1  6  0  0  0
  1  5  1  0  0  0  0
  1 36  1  0  0  0  0
  2  1  1  0  0  0  0
  2  7  1  0  0  0  0
  3  9  1  6  0  0  0
  3  4  1  0  0  0  0
  3 12  1  0  0  0  0
  3  2  1  0  0  0  0
  4  5  1  0  0  0  0
  5 10  1  0  0  0  0
  8  2  1  0  0  0  0
 11  5  1  0  0  0  0
 12 14  1  0  0  0  0
 12 15  1  0  0  0  0
 13 12  1  0  0  0  0
 15 20  1  0  0  0  0
 16 25  1  0  0  0  0
 16 17  1  0  0  0  0
 17 22  1  0  0  0  0
 18 17  2  0  0  0  0
 18 23  1  0  0  0  0
 19 18  1  0  0  0  0
 20 21  1  0  0  0  0
 20 19  2  0  0  0  0
 21 16  2  0  0  0  0
 24 19  1  0  0  0  0
 25 26  2  0  0  0  0
 25 28  1  0  0  0  0
 27 32  2  0  0  0  0
 27 28  1  0  0  0  0
 28 29  2  0  0  0  0
 29 30  1  0  0  0  0
 29 34  1  0  0  0  0
 31 35  1  0  0  0  0
 31 30  2  0  0  0  0
 32 31  1  0  0  0  0
 33 27  1  0  0  0  0
 37 36  1  0  0  0  0
 37 38  1  0  0  0  0
 38 47  1  0  0  0  0
 39 40  1  0  0  0  0
 39 38  2  0  0  0  0
 40 45  1  0  0  0  0
 41 40  1  0  0  0  0
 41 43  1  0  0  0  0
 42 41  2  0  0  0  0
 43 44  1  0  0  0  0
 45 43  1  1  0  0  0
 45 46  1  0  0  0  0
 47 48  1  0  0  0  0
 47 46  1  0  0  0  0
 49 39  1  0  0  0  0
 50 49  2  0  0  0  0
 51 49  1  0  0  0  0
 52 51  1  0  0  0  0
M  END
>  <minimizedAffinity>
-5.96955347

$$$$

 OpenBabel03262522183D

 52 56  0  0  1  0  0  0  0  0999 V2000
   35.9320   28.8310   31.6270 C   0  0  1  0  0  0  0  0  0  0  0  0
   36.7910   28.2060   30.5420 C   0  0  0  0  0  0  0  0  0  0  0  0
   36.9670   26.8070   31.0630 C   0  0  2  0  0  0  0  0  0  0  0  0
   36.4500   26.7600   32.3360 O   0  0  0  0  0  0  0  0  0  0  0  0
   36.4090   28.0590   32.8330 C   0  0  0  0  0  0  0  0  0  0  0  0
   34.8660   28.6740   31.4250 H   0  0  0  0  0  0  0  0  0  0  0  0
   37.7520   28.7550   30.4130 H   0  0  0  0  0  0  0  0  0  0  0  0
   36.2160   28.2750   29.6030 H   0  0  0  0  0  0  0  0  0  0  0  0
   36.4230   26.1450   30.3510 H   0  0  0  0  0  0  0  0  0  0  0  0
   37.4030   28.4130   33.1100 H   0  0  0  0  0  0  0  0  0  0  0  0
   35.6670   28.1170   33.6550 H   0  0  0  0  0  0  0  0  0  0  0  0
   38.4130   26.3730   31.0100 C   0  0  0  0  0  0  0  0  0  0  0  0
   38.8260   26.4240   32.0180 H   0  0  0  0  0  0  0  0  0  0  0  0
   39.0210   27.0720   30.3730 H   0  0  0  0  0  0  0  0  0  0  0  0
   38.4670   24.7190   30.2620 S   0  0  0  0  0  0  0  0  0  0  0  0
   38.6390   22.7340   33.6960 C   0  0  0  0  0  0  0  0  0  0  0  0
   37.5340   21.8560   33.6290 C   0  0  0  0  0  0  0  0  0  0  0  0
   36.7080   21.8460   32.5370 C   0  0  0  0  0  0  0  0  0  0  0  0
   37.0120   22.7250   31.5260 C   0  0  0  0  0  0  0  0  0  0  0  0
   38.0770   23.5660   31.5990 C   0  0  0  0  0  0  0  0  0  0  0  0
   38.9060   23.5880   32.6780 N   0  0  0  0  0  0  0  0  0  0  0  0
   37.3290   21.1770   34.4510 H   0  0  0  0  0  0  0  0  0  0  0  0
   35.8580   21.2160   32.4110 H   0  0  0  0  0  0  0  0  0  0  0  0
   36.4150   22.7890   30.6200 H   0  0  0  0  0  0  0  0  0  0  0  0
   39.4540   22.6850   34.8710 C   0  0  0  0  0  0  0  0  0  0  0  0
   40.5750   22.1620   34.8470 O   0  0  0  0  0  0  0  0  0  0  0  0
   38.1840   24.3640   36.1440 C   0  0  0  0  0  0  0  0  0  0  0  0
   39.0200   23.2420   36.1610 C   0  0  0  0  0  0  0  0  0  0  0  0
   39.4070   22.7030   37.3860 C   0  0  0  0  0  0  0  0  0  0  0  0
   38.9520   23.2910   38.5390 N   0  0  0  0  0  0  0  0  0  0  0  0
   38.1490   24.3680   38.4920 C   0  0  0  0  0  0  0  0  0  0  0  0
   37.7710   24.8960   37.3210 N   0  0  0  0  0  0  0  0  0  0  0  0
   37.8480   24.8310   35.2270 H   0  0  0  0  0  0  0  0  0  0  0  0
   40.0570   21.8310   37.3880 H   0  0  0  0  0  0  0  0  0  0  0  0
   37.7770   24.8500   39.3850 H   0  0  0  0  0  0  0  0  0  0  0  0
   36.1870   30.1960   31.7430 O   0  0  0  0  0  0  0  0  0  0  0  0
   34.9560   30.8390   32.0440 C   0  0  0  0  0  2  0  0  0  0  0  0
   34.9530   31.2720   33.4450 C   0  0  0  0  0  0  0  0  0  0  0  0
   34.1240   30.7580   34.3380 C   0  0  0  0  0  0  0  0  0  0  0  0
   34.2000   31.2660   35.6870 N   0  0  0  0  0  0  0  0  0  0  0  0
   33.5010   31.5510   36.8740 C   0  0  0  0  0  0  0  0  0  0  0  0
   32.4600   31.1670   37.4770 O   0  0  0  0  0  0  0  0  0  0  0  0
   34.4960   32.5690   37.2410 C   0  0  0  0  0  3  0  0  0  0  0  0
   34.2780   33.6000   36.8410 H   0  0  0  0  0  0  0  0  0  0  0  0
   35.3970   31.7580   36.3370 C   0  0  2  0  0  3  0  0  0  0  0  0
   36.3280   32.8600   35.2490 S   0  0  0  0  0  0  0  0  0  0  0  0
   35.9740   32.3040   33.5850 C   0  0  0  0  0  3  0  0  0  0  0  0
   36.9480   31.8730   33.1980 H   0  0  0  0  0  0  0  0  0  0  0  0
   33.1210   29.7220   34.0840 C   0  0  0  0  0  0  0  0  0  0  0  0
   32.8300   29.0050   33.1250 O   0  0  0  0  0  0  0  0  0  0  0  0
   32.2070   29.3310   35.0310 O   0  0  0  0  0  0  0  0  0  0  0  0
   31.9870   28.3630   35.2230 H   0  0  0  0  0  0  0  0  0  0  0  0
  1  6  1  6  0  0  0
  1 36  1  0  0  0  0
  1  5  1  0  0  0  0
  2  3  1  0  0  0  0
  2  1  1  0  0  0  0
  3  9  1  6  0  0  0
  3  4  1  0  0  0  0
  4  5  1  0  0  0  0
  5 10  1  0  0  0  0
  5 11  1  0  0  0  0
  7  2  1  0  0  0  0
  8  2  1  0  0  0  0
 12  3  1  0  0  0  0
 12 13  1  0  0  0  0
 14 12  1  0  0  0  0
 15 12  1  0  0  0  0
 15 20  1  0  0  0  0
 16 25  1  0  0  0  0
 17 16  1  0  0  0  0
 17 22  1  0  0  0  0
 18 17  2  0  0  0  0
 19 20  2  0  0  0  0
 19 18  1  0  0  0  0
 20 21  1  0  0  0  0
 21 16  2  0  0  0  0
 23 18  1  0  0  0  0
 24 19  1  0  0  0  0
 25 28  1  0  0  0  0
 26 25  2  0  0  0  0
 27 28  2  0  0  0  0
 27 32  1  0  0  0  0
 28 29  1  0  0  0  0
 29 34  1  0  0  0  0
 29 30  2  0  0  0  0
 31 30  1  0  0  0  0
 31 35  1  0  0  0  0
 32 31  2  0  0  0  0
 33 27  1  0  0  0  0
 36 37  1  0  0  0  0
 37 38  1  0  0  0  0
 38 47  1  0  0  0  0
 38 39  2  0  0  0  0
 39 40  1  0  0  0  0
 40 45  1  0  0  0  0
 40 41  1  0  0  0  0
 41 43  1  0  0  0  0
 41 42  2  0  0  0  0
 44 43  1  0  0  0  0
 45 46  1  6  0  0  0
 45 43  1  0  0  0  0
 47 46  1  0  0  0  0
 48 47  1  0  0  0  0
 49 39  1  0  0  0  0
 49 51  1  0  0  0  0
 50 49  2  0  0  0  0
 51 52  1  0  0  0  0
M  END
>  <minimizedAffinity>
-5.94057226

$$$$

 OpenBabel03262522183D

 52 56  0  0  1  0  0  0  0  0999 V2000
   37.8040   27.3610   34.4990 C   0  0  1  0  0  0  0  0  0  0  0  0
   38.1780   26.9540   35.9130 C   0  0  0  0  0  0  0  0  0  0  0  0
   38.6860   25.5560   35.7020 C   0  0  2  0  0  0  0  0  0  0  0  0
   38.4280   25.2010   34.3990 O   0  0  0  0  0  0  0  0  0  0  0  0
   37.4090   26.0220   33.9240 C   0  0  0  0  0  0  0  0  0  0  0  0
   38.6610   27.8030   33.9770 H   0  0  0  0  0  0  0  0  0  0  0  0
   37.3020   27.0080   36.6000 H   0  0  0  0  0  0  0  0  0  0  0  0
   38.9410   27.6710   36.2590 H   0  0  0  0  0  0  0  0  0  0  0  0
   39.7760   25.5880   35.9330 H   0  0  0  0  0  0  0  0  0  0  0  0
   36.4400   25.7330   34.3320 H   0  0  0  0  0  0  0  0  0  0  0  0
   37.4410   26.0460   32.8150 H   0  0  0  0  0  0  0  0  0  0  0  0
   38.0820   24.5900   36.6950 C   0  0  0  0  0  0  0  0  0  0  0  0
   36.9970   24.6250   36.5950 H   0  0  0  0  0  0  0  0  0  0  0  0
   38.3220   24.8930   37.7500 H   0  0  0  0  0  0  0  0  0  0  0  0
   38.8080   22.9540   36.3870 S   0  0  0  0  0  0  0  0  0  0  0  0
   36.6790   21.2620   33.4960 C   0  0  0  0  0  0  0  0  0  0  0  0
   35.6410   20.6000   34.1890 C   0  0  0  0  0  0  0  0  0  0  0  0
   35.5620   20.6520   35.5550 C   0  0  0  0  0  0  0  0  0  0  0  0
   36.5360   21.3740   36.2010 C   0  0  0  0  0  0  0  0  0  0  0  0
   37.5310   22.0070   35.5270 C   0  0  0  0  0  0  0  0  0  0  0  0
   37.6220   21.9640   34.1690 N   0  0  0  0  0  0  0  0  0  0  0  0
   34.8910   20.0410   33.6390 H   0  0  0  0  0  0  0  0  0  0  0  0
   34.8130   20.1830   36.1500 H   0  0  0  0  0  0  0  0  0  0  0  0
   36.5570   21.4730   37.2840 H   0  0  0  0  0  0  0  0  0  0  0  0
   36.6920   21.1590   32.0680 C   0  0  0  0  0  0  0  0  0  0  0  0
   36.0680   20.2610   31.4890 O   0  0  0  0  0  0  0  0  0  0  0  0
   36.9430   23.4000   31.0850 C   0  0  0  0  0  0  0  0  0  0  0  0
   37.4350   22.0960   31.2120 C   0  0  0  0  0  0  0  0  0  0  0  0
   38.5950   21.7380   30.5290 C   0  0  0  0  0  0  0  0  0  0  0  0
   39.2200   22.6810   29.7530 N   0  0  0  0  0  0  0  0  0  0  0  0
   38.7250   23.9270   29.6490 C   0  0  0  0  0  0  0  0  0  0  0  0
   37.6110   24.2820   30.3010 N   0  0  0  0  0  0  0  0  0  0  0  0
   36.0470   23.7400   31.5880 H   0  0  0  0  0  0  0  0  0  0  0  0
   38.9680   20.7230   30.6340 H   0  0  0  0  0  0  0  0  0  0  0  0
   39.1980   24.6870   29.0450 H   0  0  0  0  0  0  0  0  0  0  0  0
   36.7440   28.2650   34.5010 O   0  0  0  0  0  0  0  0  0  0  0  0
   36.0360   28.0990   33.2800 C   0  0  0  0  0  2  0  0  0  0  0  0
   36.1780   29.3060   32.4580 C   0  0  0  0  0  0  0  0  0  0  0  0
   36.6900   29.2690   31.2400 C   0  0  0  0  0  0  0  0  0  0  0  0
   36.7940   30.5180   30.5230 N   0  0  0  0  0  0  0  0  0  0  0  0
   37.5140   31.2720   29.5780 C   0  0  0  0  0  0  0  0  0  0  0  0
   38.2810   31.0760   28.5950 O   0  0  0  0  0  0  0  0  0  0  0  0
   37.0250   32.5240   30.1720 C   0  0  0  0  0  3  0  0  0  0  0  0
   37.6650   32.9250   31.0090 H   0  0  0  0  0  0  0  0  0  0  0  0
   35.8940   31.6450   30.6580 C   0  0  2  0  0  3  0  0  0  0  0  0
   35.5410   31.9990   32.3940 S   0  0  0  0  0  0  0  0  0  0  0  0
   35.6780   30.4300   33.2420 C   0  0  0  0  0  3  0  0  0  0  0  0
   34.6250   30.1730   33.5710 H   0  0  0  0  0  0  0  0  0  0  0  0
   37.1760   28.0750   30.5450 C   0  0  0  0  0  0  0  0  0  0  0  0
   38.2810   27.5640   30.3570 O   0  0  0  0  0  0  0  0  0  0  0  0
   36.3350   27.2050   29.8960 O   0  0  0  0  0  0  0  0  0  0  0  0
   36.4040   26.1990   29.9820 H   0  0  0  0  0  0  0  0  0  0  0  0
  1  6  1  6  0  0  0
  1 36  1  0  0  0  0
  1  2  1  0  0  0  0
  2  8  1  0  0  0  0
  2  7  1  0  0  0  0
  3  2  1  0  0  0  0
  3  9  1  1  0  0  0
  3 12  1  0  0  0  0
  4  3  1  0  0  0  0
  5 10  1  0  0  0  0
  5  4  1  0  0  0  0
  5  1  1  0  0  0  0
 11  5  1  0  0  0  0
 12 14  1  0  0  0  0
 13 12  1  0  0  0  0
 15 12  1  0  0  0  0
 16 21  2  0  0  0  0
 16 17  1  0  0  0  0
 17 18  2  0  0  0  0
 18 23  1  0  0  0  0
 18 19  1  0  0  0  0
 19 24  1  0  0  0  0
 20 19  2  0  0  0  0
 20 15  1  0  0  0  0
 21 20  1  0  0  0  0
 22 17  1  0  0  0  0
 25 16  1  0  0  0  0
 26 25  2  0  0  0  0
 27 28  1  0  0  0  0
 27 33  1  0  0  0  0
 28 25  1  0  0  0  0
 29 34  1  0  0  0  0
 29 28  2  0  0  0  0
 30 29  1  0  0  0  0
 31 30  2  0  0  0  0
 31 32  1  0  0  0  0
 32 27  2  0  0  0  0
 35 31  1  0  0  0  0
 37 36  1  0  0  0  0
 38 47  1  0  0  0  0
 38 37  1  0  0  0  0
 39 38  2  0  0  0  0
 40 45  1  0  0  0  0
 40 39  1  0  0  0  0
 41 43  1  0  0  0  0
 41 40  1  0  0  0  0
 42 41  2  0  0  0  0
 43 44  1  0  0  0  0
 45 43  1  1  0  0  0
 45 46  1  0  0  0  0
 46 47  1  0  0  0  0
 47 48  1  0  0  0  0
 49 39  1  0  0  0  0
 50 49  2  0  0  0  0
 51 52  1  0  0  0  0
 51 49  1  0  0  0  0
M  END
>  <minimizedAffinity>
-5.91818857

$$$$

 OpenBabel03262522183D

 52 56  0  0  1  0  0  0  0  0999 V2000
   41.5890   26.3980   32.3820 C   0  0  1  0  0  0  0  0  0  0  0  0
   40.5020   26.2600   31.3300 C   0  0  0  0  0  0  0  0  0  0  0  0
   40.9190   27.2970   30.3260 C   0  0  2  0  0  0  0  0  0  0  0  0
   41.9570   28.0180   30.8650 O   0  0  0  0  0  0  0  0  0  0  0  0
   41.9140   27.8660   32.2470 C   0  0  0  0  0  0  0  0  0  0  0  0
   42.4460   25.7560   32.1490 H   0  0  0  0  0  0  0  0  0  0  0  0
   39.4900   26.4420   31.7600 H   0  0  0  0  0  0  0  0  0  0  0  0
   40.5470   25.2210   30.9620 H   0  0  0  0  0  0  0  0  0  0  0  0
   41.2140   26.7340   29.4100 H   0  0  0  0  0  0  0  0  0  0  0  0
   41.1070   28.4510   32.6900 H   0  0  0  0  0  0  0  0  0  0  0  0
   42.9140   28.0870   32.6740 H   0  0  0  0  0  0  0  0  0  0  0  0
   39.7580   28.1720   29.9160 C   0  0  0  0  0  0  0  0  0  0  0  0
   39.7300   28.2220   28.8270 H   0  0  0  0  0  0  0  0  0  0  0  0
   39.8950   29.2240   30.2870 H   0  0  0  0  0  0  0  0  0  0  0  0
   38.2550   27.4870   30.6710 S   0  0  0  0  0  0  0  0  0  0  0  0
   35.3900   29.8130   32.1340 C   0  0  0  0  0  0  0  0  0  0  0  0
   35.4670   30.9780   31.3380 C   0  0  0  0  0  0  0  0  0  0  0  0
   36.3930   31.0850   30.3350 C   0  0  0  0  0  0  0  0  0  0  0  0
   37.2300   30.0110   30.1520 C   0  0  0  0  0  0  0  0  0  0  0  0
   37.1480   28.8950   30.9220 C   0  0  0  0  0  0  0  0  0  0  0  0
   36.2330   28.7740   31.9220 N   0  0  0  0  0  0  0  0  0  0  0  0
   34.7860   31.8040   31.5170 H   0  0  0  0  0  0  0  0  0  0  0  0
   36.5140   31.9270   29.6930 H   0  0  0  0  0  0  0  0  0  0  0  0
   37.9960   30.0030   29.3800 H   0  0  0  0  0  0  0  0  0  0  0  0
   34.3950   29.7790   33.1620 C   0  0  0  0  0  0  0  0  0  0  0  0
   33.3620   29.1110   33.0260 O   0  0  0  0  0  0  0  0  0  0  0  0
   33.3660   30.9840   35.0430 C   0  0  0  0  0  0  0  0  0  0  0  0
   34.5320   30.5200   34.4240 C   0  0  0  0  0  0  0  0  0  0  0  0
   35.7660   30.7780   35.0190 C   0  0  0  0  0  0  0  0  0  0  0  0
   35.7950   31.4790   36.1980 N   0  0  0  0  0  0  0  0  0  0  0  0
   34.6590   31.9120   36.7710 C   0  0  0  0  0  0  0  0  0  0  0  0
   33.4680   31.6710   36.2090 N   0  0  0  0  0  0  0  0  0  0  0  0
   32.3790   30.8180   34.6330 H   0  0  0  0  0  0  0  0  0  0  0  0
   36.6650   30.4140   34.5290 H   0  0  0  0  0  0  0  0  0  0  0  0
   34.6550   32.4660   37.6990 H   0  0  0  0  0  0  0  0  0  0  0  0
   41.1030   26.0820   33.6490 O   0  0  0  0  0  0  0  0  0  0  0  0
   39.8210   25.4910   33.4820 C   0  0  0  0  0  2  0  0  0  0  0  0
   39.4460   24.7700   34.7040 C   0  0  0  0  0  0  0  0  0  0  0  0
   38.7180   25.3300   35.6540 C   0  0  0  0  0  0  0  0  0  0  0  0
   38.4160   24.5330   36.8190 N   0  0  0  0  0  0  0  0  0  0  0  0
   38.1700   24.5270   38.2050 C   0  0  0  0  0  0  0  0  0  0  0  0
   37.7440   25.3130   39.0950 O   0  0  0  0  0  0  0  0  0  0  0  0
   38.6230   23.1320   38.3010 C   0  0  0  0  0  3  0  0  0  0  0  0
   39.7300   23.0110   38.4760 H   0  0  0  0  0  0  0  0  0  0  0  0
   38.2460   23.0950   36.8360 C   0  0  2  0  0  3  0  0  0  0  0  0
   39.5430   22.2690   35.8880 S   0  0  0  0  0  0  0  0  0  0  0  0
   40.0240   23.4340   34.6180 C   0  0  0  0  0  3  0  0  0  0  0  0
   39.6760   22.9760   33.6420 H   0  0  0  0  0  0  0  0  0  0  0  0
   38.1920   26.6970   35.6430 C   0  0  0  0  0  0  0  0  0  0  0  0
   37.2690   27.2720   35.0640 O   0  0  0  0  0  0  0  0  0  0  0  0
   38.7380   27.7050   36.3990 O   0  0  0  0  0  0  0  0  0  0  0  0
   38.1830   28.3560   36.9390 H   0  0  0  0  0  0  0  0  0  0  0  0
  1  6  1  6  0  0  0
  1 36  1  0  0  0  0
  2  7  1  0  0  0  0
  2  1  1  0  0  0  0
  3  9  1  6  0  0  0
  3  4  1  0  0  0  0
  3  2  1  0  0  0  0
  4  5  1  0  0  0  0
  5  1  1  0  0  0  0
  5 11  1  0  0  0  0
  5 10  1  0  0  0  0
  8  2  1  0  0  0  0
 12 14  1  0  0  0  0
 12  3  1  0  0  0  0
 12 15  1  0  0  0  0
 13 12  1  0  0  0  0
 15 20  1  0  0  0  0
 16 25  1  0  0  0  0
 17 22  1  0  0  0  0
 17 16  2  0  0  0  0
 18 17  1  0  0  0  0
 19 18  2  0  0  0  0
 19 20  1  0  0  0  0
 20 21  2  0  0  0  0
 21 16  1  0  0  0  0
 23 18  1  0  0  0  0
 24 19  1  0  0  0  0
 25 28  1  0  0  0  0
 26 25  2  0  0  0  0
 27 32  1  0  0  0  0
 28 29  1  0  0  0  0
 28 27  2  0  0  0  0
 29 30  2  0  0  0  0
 30 31  1  0  0  0  0
 31 35  1  0  0  0  0
 32 31  2  0  0  0  0
 33 27  1  0  0  0  0
 34 29  1  0  0  0  0
 37 36  1  0  0  0  0
 37 38  1  0  0  0  0
 38 39  2  0  0  0  0
 39 40  1  0  0  0  0
 40 45  1  0  0  0  0
 40 41  1  0  0  0  0
 41 43  1  0  0  0  0
 41 42  2  0  0  0  0
 43 44  1  0  0  0  0
 45 46  1  6  0  0  0
 45 43  1  0  0  0  0
 47 38  1  0  0  0  0
 47 46  1  0  0  0  0
 48 47  1  0  0  0  0
 49 39  1  0  0  0  0
 49 51  1  0  0  0  0
 50 49  2  0  0  0  0
 51 52  1  0  0  0  0
M  END
>  <minimizedAffinity>
-5.88711166

$$$$
