
 OpenBabel03272502263D

 47 51  0  0  1  0  0  0  0  0999 V2000
   33.5970   26.8990   45.6390 N   0  0  0  0  0  0  0  0  0  0  0  0
   33.8670   27.3300   46.8920 C   0  0  0  0  0  0  0  0  0  0  0  0
   33.4590   28.6050   47.2610 C   0  0  0  0  0  0  0  0  0  0  0  0
   32.7910   29.3960   46.3400 C   0  0  0  0  0  0  0  0  0  0  0  0
   32.3420   30.5620   46.4790 O   0  0  0  0  0  0  0  0  0  0  0  0
   32.5430   28.9310   45.0980 N   0  0  0  0  0  0  0  0  0  0  0  0
   32.9440   27.6740   44.7380 C   0  0  0  0  0  0  0  0  0  0  0  0
   32.7510   27.1630   43.6060 O   0  0  0  0  0  0  0  0  0  0  0  0
   33.9190   25.9350   45.4030 H   0  0  0  0  0  0  0  0  0  0  0  0
   34.3790   26.7730   47.6560 H   0  0  0  0  0  0  0  0  0  0  0  0
   33.6370   29.2240   48.4820 O   0  0  0  0  0  0  0  0  0  0  0  0
   36.4830   30.6650   50.2050 C   0  0  0  0  0  0  0  0  0  0  0  0
   37.2960   31.0340   49.1260 C   0  0  0  0  0  0  0  0  0  0  0  0
   36.8250   30.7700   47.8610 C   0  0  0  0  0  0  0  0  0  0  0  0
   35.6300   30.1810   47.7380 N   0  0  0  0  0  0  0  0  0  0  0  0
   34.8570   29.8300   48.7740 C   0  0  0  0  0  0  0  0  0  0  0  0
   35.2910   30.0760   50.0170 N   0  0  0  0  0  0  0  0  0  0  0  0
   36.8810   30.8850   51.1700 H   0  0  0  0  0  0  0  0  0  0  0  0
   38.2490   31.5050   49.2460 H   0  0  0  0  0  0  0  0  0  0  0  0
   37.5610   31.1110   46.6520 C   0  0  0  0  0  0  0  0  0  0  0  0
   37.2240   30.5410   45.4250 C   0  0  0  0  0  0  0  0  0  0  0  0
   37.8870   30.8380   44.2600 C   0  0  0  0  0  0  0  0  0  0  0  0
   38.9140   31.7220   44.2940 N   0  0  0  0  0  0  0  0  0  0  0  0
   39.2220   32.2580   45.4800 C   0  0  0  0  0  0  0  0  0  0  0  0
   38.5890   31.9840   46.6370 N   0  0  0  0  0  0  0  0  0  0  0  0
   36.4200   29.8330   45.3330 H   0  0  0  0  0  0  0  0  0  0  0  0
   37.6190   30.3920   43.3110 H   0  0  0  0  0  0  0  0  0  0  0  0
   40.3440   33.2310   45.5470 C   0  0  0  0  0  0  0  0  0  0  0  0
   40.2580   33.8880   46.7970 F   0  0  0  0  0  0  0  0  0  0  0  0
   41.5500   32.6200   45.3990 F   0  0  0  0  0  0  0  0  0  0  0  0
   40.2050   34.2400   44.6070 F   0  0  0  0  0  0  0  0  0  0  0  0
   31.9090   29.6840   44.0410 C   0  0  0  0  0  2  0  0  0  0  0  0
   32.5740   30.8200   43.4750 C   0  0  0  0  0  0  0  0  0  0  0  0
   33.7220   31.0240   42.8330 C   0  0  0  0  0  0  0  0  0  0  0  0
   34.1000   32.3280   42.3550 N   0  0  0  0  0  0  0  0  0  0  0  0
   35.1550   33.2920   42.3790 C   0  0  0  0  0  0  0  0  0  0  0  0
   36.4030   33.2560   42.5500 O   0  0  0  0  0  0  0  0  0  0  0  0
   34.0640   34.3060   42.1070 C   0  0  0  0  0  3  0  0  0  0  0  0
   33.6390   34.7760   42.9970 H   0  0  0  0  0  0  0  0  0  0  0  0
   33.2420   33.1900   41.5000 C   0  0  2  0  0  3  0  0  0  0  0  0
   31.5730   32.9760   42.1390 S   0  0  0  0  0  0  0  0  0  0  0  0
   31.7640   32.0480   43.7090 C   0  0  0  0  0  3  0  0  0  0  0  0
   30.7990   31.8990   44.1900 H   0  0  0  0  0  0  0  0  0  0  0  0
   34.5550   29.8450   42.6250 C   0  0  0  0  0  0  0  0  0  0  0  0
   35.3960   29.9040   41.6980 O   0  0  0  0  0  0  0  0  0  0  0  0
   35.3340   28.7490   42.4270 O   0  0  0  0  0  0  0  0  0  0  0  0
   35.6240   28.1680   43.2000 H   0  0  0  0  0  0  0  0  0  0  0  0
  1  2  1  0  0  0  0
  2  3  2  0  0  0  0
  2 10  1  0  0  0  0
  3 11  1  0  0  0  0
  4  5  2  0  0  0  0
  4  3  1  0  0  0  0
  6  4  1  0  0  0  0
  7  6  1  0  0  0  0
  7  1  1  0  0  0  0
  8  7  2  0  0  0  0
  9  1  1  0  0  0  0
 11 16  1  0  0  0  0
 12 18  1  0  0  0  0
 13 19  1  0  0  0  0
 13 12  2  0  0  0  0
 14 13  1  0  0  0  0
 15 14  2  0  0  0  0
 15 16  1  0  0  0  0
 16 17  2  0  0  0  0
 17 12  1  0  0  0  0
 20 14  1  0  0  0  0
 21 20  2  0  0  0  0
 22 23  2  0  0  0  0
 22 21  1  0  0  0  0
 23 24  1  0  0  0  0
 24 28  1  0  0  0  0
 24 25  2  0  0  0  0
 25 20  1  0  0  0  0
 26 21  1  0  0  0  0
 27 22  1  0  0  0  0
 28 29  1  0  0  0  0
 30 28  1  0  0  0  0
 31 28  1  0  0  0  0
 32  6  1  0  0  0  0
 33 42  1  0  0  0  0
 33 32  1  0  0  0  0
 34 33  2  0  0  0  0
 35 36  1  0  0  0  0
 35 34  1  0  0  0  0
 36 37  2  0  0  0  0
 38 36  1  0  0  0  0
 38 39  1  0  0  0  0
 40 38  1  1  0  0  0
 40 41  1  0  0  0  0
 40 35  1  0  0  0  0
 41 42  1  0  0  0  0
 42 43  1  0  0  0  0
 44 34  1  0  0  0  0
 45 44  2  0  0  0  0
 46 44  1  0  0  0  0
 46 47  1  0  0  0  0
M  END
>  <minimizedAffinity>
-5.97244263

>  <minimizedRMSD>
2.18217993

$$$$
