
     RDKit          3D

 38 40  0  0  0  0  0  0  0  0999 V2000
   37.3532   30.2177   51.4013 C   0  0  0  0  0  0  0  0  0  0  0  0
   38.0002   30.7197   50.2544 C   0  0  0  0  0  0  0  0  0  0  0  0
   37.5118   30.3614   48.9994 C   0  0  0  0  0  0  0  0  0  0  0  0
   36.4309   29.5429   48.9015 N   0  0  0  0  0  0  0  0  0  0  0  0
   35.8398   29.0836   50.0285 C   0  0  0  0  0  0  0  0  0  0  0  0
   36.2889   29.4119   51.2696 N   0  0  0  0  0  0  0  0  0  0  0  0
   38.1600   30.8578   47.8236 C   0  0  0  0  0  0  0  0  0  0  0  0
   38.7767   32.0087   47.7910 C   0  0  0  0  0  0  0  0  0  0  0  0
   39.4564   32.5084   46.5592 C   0  0  0  0  0  0  0  0  0  0  0  0
   38.2810   32.2979   45.1435 S   0  0  0  0  0  0  0  0  0  0  0  0
   37.8185   30.5616   52.3099 H   0  0  0  0  0  0  0  0  0  0  0  0
   38.8561   31.3695   50.3009 H   0  0  0  0  0  0  0  0  0  0  0  0
   34.9763   28.4298   49.9394 H   0  0  0  0  0  0  0  0  0  0  0  0
   38.1311   30.2380   46.9184 H   0  0  0  0  0  0  0  0  0  0  0  0
   38.8038   32.6309   48.7010 H   0  0  0  0  0  0  0  0  0  0  0  0
   40.3122   31.8202   46.3792 H   0  0  0  0  0  0  0  0  0  0  0  0
   39.7519   33.5481   46.6849 H   0  0  0  0  0  0  0  0  0  0  0  0
   36.9147   33.3999   45.4097 C   0  0  0  0  0  0  0  0  0  0  0  0
   35.8263   33.4327   44.4245 C   0  0  0  0  0  0  0  0  0  0  0  0
   35.6073   32.6589   43.3953 C   0  0  0  0  0  0  0  0  0  0  0  0
   36.4680   31.5161   43.0030 C   0  0  0  0  0  0  0  0  0  0  0  0
   37.4346   30.7257   43.1210 O   0  0  0  0  0  0  0  0  0  0  0  0
   36.2995   30.7181   41.9116 O   0  0  0  0  0  0  0  0  0  0  0  0
   34.4504   32.8543   42.5522 N   0  0  0  0  0  0  0  0  0  0  0  0
   33.9481   32.8639   41.2224 C   0  0  0  0  0  0  0  0  0  0  0  0
   34.3870   32.5795   40.0570 O   0  0  0  0  0  0  0  0  0  0  0  0
   32.6348   33.3574   41.7031 C   0  0  2  0  0  0  0  0  0  0  0  0
   31.8067   32.6173   41.5242 H   0  0  0  0  0  0  0  0  0  0  0  0
   33.1373   33.1971   43.1206 C   0  0  2  0  0  0  0  0  0  0  0  0
   33.4194   34.7428   44.0129 S   0  0  0  0  0  0  0  0  0  0  0  0
   34.9933   34.5871   44.8655 C   0  0  2  0  0  0  0  0  0  0  0  0
   35.6201   35.5090   44.7488 H   0  0  0  0  0  0  0  0  0  0  0  0
   36.4222   33.1658   46.4107 H   0  0  0  0  0  0  0  0  0  0  0  0
   37.3074   34.4556   45.5331 H   0  0  0  0  0  0  0  0  0  0  0  0
   36.8808   30.7572   41.0506 H   0  0  0  0  0  0  0  0  0  0  0  0
   32.3887   34.4013   41.4115 H   0  0  0  0  0  0  0  0  0  0  0  0
   32.7030   32.3797   43.6914 H   0  0  0  0  0  0  0  0  0  0  0  0
   34.7190   34.4640   45.9596 H   0  0  0  0  0  0  0  0  0  0  0  0
  2  1  2  0
  3  2  1  0
  4  3  2  0
  4  5  1  0
  5  6  2  0
  6  1  1  0
  7  3  1  0
  8  7  2  0
  9  8  1  0
 10  9  1  0
  1 11  1  0
  2 12  1  0
  5 13  1  0
  7 14  1  0
  8 15  1  0
  9 16  1  0
  9 17  1  0
 18 19  1  0
 19 20  2  0
 20 21  1  0
 21 22  2  0
 21 23  1  0
 20 24  1  0
 24 25  1  0
 25 26  2  0
 25 27  1  0
 27 28  1  1
 27 29  1  0
 29 30  1  0
 30 31  1  0
 31 32  1  1
 31 19  1  0
 29 24  1  0
 18 33  1  0
 18 34  1  0
 23 35  1  0
 27 36  1  0
 29 37  1  1
 31 38  1  0
 10 18  1  0
M  ISO  7  11  14  12  14  13  14  16   8  17   8  28  15  32  15
M  END
>  <DihAtoms>  (1) 
8,9,17,18

>  <DihDeg>  (1) 
75.05576747105674

$$$$
