
     RDKit          3D

 42 45  0  0  0  0  0  0  0  0999 V2000
   36.6419   30.7285   47.5387 C   0  0  0  0  0  0  0  0  0  0  0  0
   36.0664   30.3423   46.4990 O   0  0  0  0  0  0  0  0  0  0  0  0
   36.9940   29.6461   49.7274 C   0  0  0  0  0  0  0  0  0  0  0  0
   36.1230   30.2049   48.8028 C   0  0  0  0  0  0  0  0  0  0  0  0
   34.7642   30.2374   49.1388 C   0  0  0  0  0  0  0  0  0  0  0  0
   34.3550   29.7319   50.3318 N   0  0  0  0  0  0  0  0  0  0  0  0
   35.2548   29.1944   51.2028 C   0  0  0  0  0  0  0  0  0  0  0  0
   36.5333   29.1557   50.9039 N   0  0  0  0  0  0  0  0  0  0  0  0
   37.7562   31.6421   47.4706 C   0  0  0  0  0  0  0  0  0  0  0  0
   37.9546   32.4603   48.5901 C   0  0  0  0  0  0  0  0  0  0  0  0
   38.9995   33.3582   48.5975 C   0  0  0  0  0  0  0  0  0  0  0  0
   39.7966   33.3889   47.4736 C   0  0  0  0  0  0  0  0  0  0  0  0
   39.5937   32.5876   46.3899 C   0  0  0  0  0  0  0  0  0  0  0  0
   38.5569   31.6993   46.3872 N   0  0  0  0  0  0  0  0  0  0  0  0
   40.6279   32.6194   44.9179 S   0  0  0  0  0  0  0  0  0  0  0  0
   38.0665   29.6025   49.5001 H   0  0  0  0  0  0  0  0  0  0  0  0
   34.0982   30.6764   48.4070 H   0  0  0  0  0  0  0  0  0  0  0  0
   34.7622   28.8344   52.1125 H   0  0  0  0  0  0  0  0  0  0  0  0
   37.3047   32.3965   49.4397 H   0  0  0  0  0  0  0  0  0  0  0  0
   39.2050   34.0154   49.4286 H   0  0  0  0  0  0  0  0  0  0  0  0
   40.6450   34.0503   47.3627 H   0  0  0  0  0  0  0  0  0  0  0  0
   39.8727   33.8569   43.7854 C   0  0  0  0  0  0  0  0  0  0  0  0
   38.4165   33.5993   43.7884 C   0  0  0  0  0  0  0  0  0  0  0  0
   37.7359   33.2906   42.7252 C   0  0  0  0  0  0  0  0  0  0  0  0
   38.3261   33.1556   41.3722 C   0  0  0  0  0  0  0  0  0  0  0  0
   39.4543   33.2607   40.8612 O   0  0  0  0  0  0  0  0  0  0  0  0
   37.6129   32.8348   40.2414 O   0  0  0  0  0  0  0  0  0  0  0  0
   36.3461   33.0436   42.7602 N   0  0  0  0  0  0  0  0  0  0  0  0
   35.0888   32.8112   42.1320 C   0  0  0  0  0  0  0  0  0  0  0  0
   34.5084   33.2732   41.1130 O   0  0  0  0  0  0  0  0  0  0  0  0
   34.8661   31.8114   43.2483 C   0  0  1  0  0  0  0  0  0  0  0  0
   33.8013   31.6223   43.4803 H   0  0  0  0  0  0  0  0  0  0  0  0
   35.5457   32.9064   43.9867 C   0  0  1  0  0  0  0  0  0  0  0  0
   36.6084   32.4654   45.3769 S   0  0  0  0  0  0  0  0  0  0  0  0
   37.9070   33.7551   45.1544 C   0  0  1  0  0  0  0  0  0  0  0  0
   38.6524   33.6643   45.9343 H   0  0  0  0  0  0  0  0  0  0  0  0
   40.3532   33.7216   42.8199 H   0  0  0  0  0  0  0  0  0  0  0  0
   40.1186   34.8559   44.2170 H   0  0  0  0  0  0  0  0  0  0  0  0
   37.6822   33.2471   39.3199 H   0  0  0  0  0  0  0  0  0  0  0  0
   35.5272   30.9446   43.1175 H   0  0  0  0  0  0  0  0  0  0  0  0
   34.8804   33.7808   44.1414 H   0  0  0  0  0  0  0  0  0  0  0  0
   37.4054   34.7466   45.2814 H   0  0  0  0  0  0  0  0  0  0  0  0
  1  4  1  0
  2  1  2  0
  3  8  2  0
  4  5  2  0
  4  3  1  0
  5  6  1  0
  6  7  2  0
  8  7  1  0
  9  1  1  0
  9 10  2  0
 10 11  1  0
 12 11  2  0
 13 14  2  0
 13 12  1  0
 14  9  1  0
 15 13  1  0
  3 16  1  0
  5 17  1  0
  7 18  1  0
 10 19  1  0
 11 20  1  0
 12 21  1  0
 22 23  1  0
 23 24  2  0
 24 25  1  0
 25 26  2  0
 25 27  1  0
 24 28  1  0
 28 29  1  0
 29 30  2  0
 29 31  1  0
 31 32  1  1
 31 33  1  0
 33 34  1  0
 34 35  1  0
 35 36  1  1
 35 23  1  0
 33 28  1  0
 22 37  1  0
 22 38  1  0
 27 39  1  0
 31 40  1  0
 33 41  1  1
 35 42  1  0
 15 22  1  0
M  ISO  8  16  14  17  14  18  14  19  14  20  14  21  14  32  15  36  15
M  END
>  <DihAtoms>  (1) 
12,14,21,22

>  <DihDeg>  (1) 
-179.9959480656615

$$$$
