
     RDKit          3D

 42 45  0  0  0  0  0  0  0  0999 V2000
   36.6419   30.7285   47.5387 C   0  0  0  0  0  0  0  0  0  0  0  0
   36.0664   30.3423   46.4990 O   0  0  0  0  0  0  0  0  0  0  0  0
   36.9940   29.6461   49.7274 C   0  0  0  0  0  0  0  0  0  0  0  0
   36.1230   30.2049   48.8028 C   0  0  0  0  0  0  0  0  0  0  0  0
   34.7642   30.2374   49.1388 C   0  0  0  0  0  0  0  0  0  0  0  0
   34.3550   29.7319   50.3318 N   0  0  0  0  0  0  0  0  0  0  0  0
   35.2548   29.1944   51.2028 C   0  0  0  0  0  0  0  0  0  0  0  0
   36.5333   29.1557   50.9039 N   0  0  0  0  0  0  0  0  0  0  0  0
   37.7562   31.6421   47.4706 C   0  0  0  0  0  0  0  0  0  0  0  0
   37.9546   32.4603   48.5901 C   0  0  0  0  0  0  0  0  0  0  0  0
   38.9995   33.3582   48.5975 C   0  0  0  0  0  0  0  0  0  0  0  0
   39.7966   33.3889   47.4736 C   0  0  0  0  0  0  0  0  0  0  0  0
   39.5937   32.5876   46.3899 C   0  0  0  0  0  0  0  0  0  0  0  0
   38.5569   31.6993   46.3872 N   0  0  0  0  0  0  0  0  0  0  0  0
   40.6279   32.6194   44.9179 S   0  0  0  0  0  0  0  0  0  0  0  0
   38.0665   29.6025   49.5001 H   0  0  0  0  0  0  0  0  0  0  0  0
   34.0982   30.6764   48.4070 H   0  0  0  0  0  0  0  0  0  0  0  0
   34.7622   28.8344   52.1125 H   0  0  0  0  0  0  0  0  0  0  0  0
   37.3047   32.3965   49.4397 H   0  0  0  0  0  0  0  0  0  0  0  0
   39.2050   34.0154   49.4286 H   0  0  0  0  0  0  0  0  0  0  0  0
   40.6450   34.0503   47.3627 H   0  0  0  0  0  0  0  0  0  0  0  0
   39.8727   33.8569   43.7854 C   0  0  0  0  0  0  0  0  0  0  0  0
   39.8558   33.2436   42.4399 C   0  0  0  0  0  0  0  0  0  0  0  0
   40.4628   33.7495   41.4082 C   0  0  0  0  0  0  0  0  0  0  0  0
   41.2509   35.0045   41.4421 C   0  0  0  0  0  0  0  0  0  0  0  0
   41.5619   35.8565   42.2921 O   0  0  0  0  0  0  0  0  0  0  0  0
   41.8916   35.5497   40.3548 O   0  0  0  0  0  0  0  0  0  0  0  0
   40.4342   33.1371   40.1363 N   0  0  0  0  0  0  0  0  0  0  0  0
   40.6934   33.1232   38.7355 C   0  0  0  0  0  0  0  0  0  0  0  0
   40.6115   33.9755   37.8106 O   0  0  0  0  0  0  0  0  0  0  0  0
   41.0786   31.6747   38.9561 C   0  0  1  0  0  0  0  0  0  0  0  0
   40.9704   31.0363   38.0594 H   0  0  0  0  0  0  0  0  0  0  0  0
   39.9066   31.7920   39.8609 C   0  0  1  0  0  0  0  0  0  0  0  0
   39.8951   30.8067   41.3728 S   0  0  0  0  0  0  0  0  0  0  0  0
   39.0573   32.0146   42.4855 C   0  0  1  0  0  0  0  0  0  0  0  0
   38.9363   31.5835   43.4712 H   0  0  0  0  0  0  0  0  0  0  0  0
   40.4798   34.7550   43.8646 H   0  0  0  0  0  0  0  0  0  0  0  0
   38.8420   34.0365   44.1729 H   0  0  0  0  0  0  0  0  0  0  0  0
   41.9227   36.5197   40.0682 H   0  0  0  0  0  0  0  0  0  0  0  0
   42.0179   31.6147   39.5214 H   0  0  0  0  0  0  0  0  0  0  0  0
   38.9497   31.8342   39.3007 H   0  0  0  0  0  0  0  0  0  0  0  0
   38.0353   32.1883   42.0659 H   0  0  0  0  0  0  0  0  0  0  0  0
  1  4  1  0
  2  1  2  0
  3  8  2  0
  4  5  2  0
  4  3  1  0
  5  6  1  0
  6  7  2  0
  8  7  1  0
  9  1  1  0
  9 10  2  0
 10 11  1  0
 12 11  2  0
 13 14  2  0
 13 12  1  0
 14  9  1  0
 15 13  1  0
  3 16  1  0
  5 17  1  0
  7 18  1  0
 10 19  1  0
 11 20  1  0
 12 21  1  0
 22 23  1  0
 23 24  2  0
 24 25  1  0
 25 26  2  0
 25 27  1  0
 24 28  1  0
 28 29  1  0
 29 30  2  0
 29 31  1  0
 31 32  1  6
 31 33  1  0
 33 34  1  0
 34 35  1  0
 35 36  1  1
 35 23  1  0
 33 28  1  0
 22 37  1  0
 22 38  1  0
 27 39  1  0
 31 40  1  0
 33 41  1  6
 35 42  1  0
 15 22  1  0
M  ISO  8  16  14  17  14  18  14  19  14  20  14  21  14  32  15  36  15
M  END
>  <DihAtoms>  (1) 
12,14,21,22

>  <DihDeg>  (1) 
-179.9959480656615

$$$$
