REMARK  Name = 
REMARK  7 active torsions:
REMARK  status: ('A' for Active; 'I' for Inactive)
REMARK    1  A    between atoms: C_1  and  C_4
REMARK    2  A    between atoms: C_1  and  C_9
REMARK    3  A    between atoms: C_13  and  S_15
REMARK    4  A    between atoms: S_15  and  C_22
REMARK    5  A    between atoms: C_22  and  C_23
REMARK    6  A    between atoms: C_24  and  C_25
REMARK    7  A    between atoms: C_25  and  O_27
REMARK                            x       y       z     vdW  Elec       q    Type
REMARK                         _______ _______ _______ _____ _____    ______ ____
ROOT
ATOM      1  C   UNL     1      37.756  31.642  47.471  0.00  0.00    +0.000 A 
ATOM      2  C   UNL     1      37.955  32.460  48.590  0.00  0.00    +0.000 A 
ATOM      3  C   UNL     1      38.999  33.358  48.597  0.00  0.00    +0.000 A 
ATOM      4  C   UNL     1      39.797  33.389  47.474  0.00  0.00    +0.000 A 
ATOM      5  C   UNL     1      39.594  32.588  46.390  0.00  0.00    +0.000 A 
ATOM      6  N   UNL     1      38.557  31.699  46.387  0.00  0.00    +0.000 NA
ATOM      7  H   UNL     1      37.305  32.397  49.440  0.00  0.00    +0.000 HD
ATOM      8  H   UNL     1      39.205  34.015  49.429  0.00  0.00    +0.000 HD
ATOM      9  H   UNL     1      40.645  34.050  47.363  0.00  0.00    +0.000 HD
ENDROOT
BRANCH   1  10
ATOM     10  C   UNL     1      36.642  30.729  47.539  0.00  0.00    +0.000 C 
ATOM     11  O   UNL     1      36.066  30.342  46.499  0.00  0.00    +0.000 OA
BRANCH  10  13
ATOM     12  C   UNL     1      36.994  29.646  49.727  0.00  0.00    +0.000 A 
ATOM     13  C   UNL     1      36.123  30.205  48.803  0.00  0.00    +0.000 A 
ATOM     14  C   UNL     1      34.764  30.237  49.139  0.00  0.00    +0.000 A 
ATOM     15  N   UNL     1      34.355  29.732  50.332  0.00  0.00    +0.000 NA
ATOM     16  C   UNL     1      35.255  29.194  51.203  0.00  0.00    +0.000 A 
ATOM     17  N   UNL     1      36.533  29.156  50.904  0.00  0.00    +0.000 NA
ATOM     18  H   UNL     1      38.066  29.602  49.500  0.00  0.00    +0.000 HD
ATOM     19  H   UNL     1      34.098  30.676  48.407  0.00  0.00    +0.000 HD
ATOM     20  H   UNL     1      34.762  28.834  52.112  0.00  0.00    +0.000 HD
ENDBRANCH  10  13
ENDBRANCH   1  10
BRANCH   5  21
ATOM     21  S   UNL     1      40.628  32.619  44.918  0.00  0.00    +0.000 S 
BRANCH  21  22
ATOM     22  C   UNL     1      39.873  33.857  43.785  0.00  0.00    +0.000 C 
BRANCH  22  23
ATOM     23  C   UNL     1      39.856  33.244  42.440  0.00  0.00    +0.000 C 
ATOM     24  C   UNL     1      40.463  33.749  41.408  0.00  0.00    +0.000 C 
ATOM     25  N   UNL     1      40.434  33.137  40.136  0.00  0.00    +0.000 N 
ATOM     26  C   UNL     1      40.693  33.123  38.736  0.00  0.00    +0.000 C 
ATOM     27  O   UNL     1      40.611  33.975  37.811  0.00  0.00    +0.000 OA
ATOM     28  C   UNL     1      41.079  31.675  38.956  0.00  0.00    +0.000 C 
ATOM     29  H   UNL     1      40.970  31.036  38.059  0.00  0.00    +0.000 HD
ATOM     30  C   UNL     1      39.907  31.792  39.861  0.00  0.00    +0.000 C 
ATOM     31  S   UNL     1      39.895  30.807  41.373  0.00  0.00    +0.000 S 
ATOM     32  C   UNL     1      39.057  32.015  42.486  0.00  0.00    +0.000 C 
ATOM     33  H   UNL     1      38.936  31.584  43.471  0.00  0.00    +0.000 HD
BRANCH  24  34
ATOM     34  C   UNL     1      41.251  35.005  41.442  0.00  0.00    +0.000 C 
ATOM     35  O   UNL     1      41.562  35.856  42.292  0.00  0.00    +0.000 OA
BRANCH  34  36
ATOM     36  O   UNL     1      41.892  35.550  40.355  0.00  0.00    +0.000 OA
ATOM     37  H   UNL     1      41.923  36.520  40.068  0.00  0.00    +0.000 HD
ENDBRANCH  34  36
ENDBRANCH  24  34
ENDBRANCH  22  23
ENDBRANCH  21  22
ENDBRANCH   5  21
TORSDOF 7
