
 OpenBabel03272502313D

 31 33  0  0  1  0  0  0  0  0999 V2000
   40.0320   25.5570   33.4170 C   0  0  0  0  0  2  0  0  0  0  0  0
   39.4700   24.8880   34.5980 C   0  0  0  0  0  0  0  0  0  0  0  0
   38.7010   25.3640   35.5420 C   0  0  0  0  0  0  0  0  0  0  0  0
   38.2380   24.5200   36.6190 N   0  0  0  0  0  0  0  0  0  0  0  0
   37.9750   24.4250   38.0130 C   0  0  0  0  0  0  0  0  0  0  0  0
   37.9750   25.2130   39.0180 O   0  0  0  0  0  0  0  0  0  0  0  0
   37.6770   22.9790   37.8750 C   0  0  0  0  0  3  0  0  0  0  0  0
   36.6070   22.7370   38.1200 H   0  0  0  0  0  0  0  0  0  0  0  0
   37.8140   23.1320   36.3770 C   0  0  2  0  0  3  0  0  0  0  0  0
   39.2660   22.3340   35.6540 S   0  0  0  0  0  0  0  0  0  0  0  0
   39.9880   23.4960   34.4890 C   0  0  0  0  0  3  0  0  0  0  0  0
   41.1020   23.5490   34.5940 H   0  0  0  0  0  0  0  0  0  0  0  0
   38.2080   26.7620   35.6000 C   0  0  0  0  0  0  0  0  0  0  0  0
   37.4820   27.7290   35.2640 O   0  0  0  0  0  0  0  0  0  0  0  0
   38.6700   27.7460   36.4210 O   0  0  0  0  0  0  0  0  0  0  0  0
   39.2720   28.5380   36.1200 H   0  0  0  0  0  0  0  0  0  0  0  0
   39.3010   25.2550   31.8290 S   0  0  0  0  0  0  0  0  0  0  0  0
   37.5110   25.7160   31.9370 C   0  0  0  0  0  0  0  0  0  0  0  0
   37.3890   26.3410   32.8500 H   0  0  0  0  0  0  0  0  0  0  0  0
   37.1650   26.2020   31.0260 H   0  0  0  0  0  0  0  0  0  0  0  0
   37.2480   23.2810   31.9910 C   0  0  0  0  0  3  0  0  0  0  0  0
   36.7340   24.4660   32.1850 C   0  0  0  0  0  3  0  0  0  0  0  0
   35.1790   20.2390   31.4230 C   0  0  0  0  0  0  0  0  0  0  0  0
   35.8960   21.4250   31.1680 C   0  0  0  0  0  0  0  0  0  0  0  0
   36.5200   22.0730   32.2320 C   0  0  0  0  0  0  0  0  0  0  0  0
   36.4290   21.5570   33.4860 N   0  0  0  0  0  0  0  0  0  0  0  0
   35.7300   20.4150   33.6870 C   0  0  0  0  0  0  0  0  0  0  0  0
   35.1080   19.7560   32.6730 N   0  0  0  0  0  0  0  0  0  0  0  0
   34.7420   19.8300   30.5270 H   0  0  0  0  0  0  0  0  0  0  0  0
   35.9860   21.8550   30.1860 H   0  0  0  0  0  0  0  0  0  0  0  0
   35.6640   20.0110   34.6940 H   0  0  0  0  0  0  0  0  0  0  0  0
  1  2  1  0  0  0  0
  2  3  2  0  0  0  0
  3 13  1  0  0  0  0
  3  4  1  0  0  0  0
  4  5  1  0  0  0  0
  5  6  2  0  0  0  0
  7  5  1  0  0  0  0
  7  8  1  0  0  0  0
  9 10  1  1  0  0  0
  9  4  1  0  0  0  0
  9  7  1  0  0  0  0
 11 12  1  0  0  0  0
 11  2  1  0  0  0  0
 11 10  1  0  0  0  0
 13 15  1  0  0  0  0
 14 13  2  0  0  0  0
 16 15  1  0  0  0  0
 17 18  1  0  0  0  0
 17  1  1  0  0  0  0
 18 22  1  0  0  0  0
 18 19  1  0  0  0  0
 20 18  1  0  0  0  0
 21 22  2  0  0  0  0
 21 25  1  0  0  0  0
 23 28  1  0  0  0  0
 24 23  2  0  0  0  0
 24 25  1  0  0  0  0
 25 26  2  0  0  0  0
 26 27  1  0  0  0  0
 27 31  1  0  0  0  0
 28 27  2  0  0  0  0
 29 23  1  0  0  0  0
 30 24  1  0  0  0  0
M  END
>  <minimizedAffinity>
-5.08060217

$$$$

 OpenBabel03272502313D

 31 33  0  0  1  0  0  0  0  0999 V2000
   38.4260   23.9570   30.5790 C   0  0  0  0  0  2  0  0  0  0  0  0
   38.2130   24.9060   31.6800 C   0  0  0  0  0  0  0  0  0  0  0  0
   37.1360   25.5630   32.0200 C   0  0  0  0  0  0  0  0  0  0  0  0
   37.1350   26.4450   33.1640 N   0  0  0  0  0  0  0  0  0  0  0  0
   36.6940   27.6880   33.6950 C   0  0  0  0  0  0  0  0  0  0  0  0
   35.9310   28.6420   33.3250 O   0  0  0  0  0  0  0  0  0  0  0  0
   37.4950   27.4670   34.9230 C   0  0  0  0  0  3  0  0  0  0  0  0
   36.8530   27.3680   35.8410 H   0  0  0  0  0  0  0  0  0  0  0  0
   37.8320   26.0850   34.4090 C   0  0  2  0  0  3  0  0  0  0  0  0
   39.5540   25.8510   33.9130 S   0  0  0  0  0  0  0  0  0  0  0  0
   39.5420   24.9650   32.3500 C   0  0  0  0  0  3  0  0  0  0  0  0
   40.2620   25.4120   31.6160 H   0  0  0  0  0  0  0  0  0  0  0  0
   35.8320   25.4630   31.3190 C   0  0  0  0  0  0  0  0  0  0  0  0
   34.6880   24.9960   31.1040 O   0  0  0  0  0  0  0  0  0  0  0  0
   35.4270   26.2170   30.2590 O   0  0  0  0  0  0  0  0  0  0  0  0
   35.3730   25.8820   29.2770 H   0  0  0  0  0  0  0  0  0  0  0  0
   38.8680   22.2810   30.9620 S   0  0  0  0  0  0  0  0  0  0  0  0
   37.7190   21.6860   32.2860 C   0  0  0  0  0  0  0  0  0  0  0  0
   36.8330   22.3600   32.2780 H   0  0  0  0  0  0  0  0  0  0  0  0
   37.4680   20.6350   32.1580 H   0  0  0  0  0  0  0  0  0  0  0  0
   37.7560   22.3970   34.6300 C   0  0  0  0  0  3  0  0  0  0  0  0
   38.3910   21.9030   33.6010 C   0  0  0  0  0  3  0  0  0  0  0  0
   38.3120   23.4450   38.1580 C   0  0  0  0  0  0  0  0  0  0  0  0
   37.6780   23.2470   36.9150 C   0  0  0  0  0  0  0  0  0  0  0  0
   38.3830   22.6020   35.9000 C   0  0  0  0  0  0  0  0  0  0  0  0
   39.6550   22.1790   36.1220 N   0  0  0  0  0  0  0  0  0  0  0  0
   40.2250   22.3900   37.3310 C   0  0  0  0  0  0  0  0  0  0  0  0
   39.5690   23.0160   38.3450 N   0  0  0  0  0  0  0  0  0  0  0  0
   37.6710   23.9530   38.8610 H   0  0  0  0  0  0  0  0  0  0  0  0
   36.6730   23.5700   36.7110 H   0  0  0  0  0  0  0  0  0  0  0  0
   41.2430   22.0470   37.4980 H   0  0  0  0  0  0  0  0  0  0  0  0
  1 17  1  0  0  0  0
  1  2  1  0  0  0  0
  2  3  2  0  0  0  0
  2 11  1  0  0  0  0
  3  4  1  0  0  0  0
  4  5  1  0  0  0  0
  4  9  1  0  0  0  0
  5  7  1  0  0  0  0
  6  5  2  0  0  0  0
  7  8  1  0  0  0  0
  9 10  1  6  0  0  0
  9  7  1  0  0  0  0
 11 10  1  0  0  0  0
 12 11  1  0  0  0  0
 13  3  1  0  0  0  0
 14 13  2  0  0  0  0
 15 13  1  0  0  0  0
 16 15  1  0  0  0  0
 17 18  1  0  0  0  0
 18 22  1  0  0  0  0
 19 18  1  0  0  0  0
 20 18  1  0  0  0  0
 21 25  1  0  0  0  0
 22 21  2  0  0  0  0
 23 28  1  0  0  0  0
 23 29  1  0  0  0  0
 24 23  2  0  0  0  0
 25 26  2  0  0  0  0
 25 24  1  0  0  0  0
 26 27  1  0  0  0  0
 27 31  1  0  0  0  0
 27 28  2  0  0  0  0
 30 24  1  0  0  0  0
M  END
>  <minimizedAffinity>
-4.94698811

$$$$

 OpenBabel03272502313D

 31 33  0  0  1  0  0  0  0  0999 V2000
   38.7900   25.1860   33.0560 C   0  0  0  0  0  2  0  0  0  0  0  0
   39.2880   24.3520   34.1580 C   0  0  0  0  0  0  0  0  0  0  0  0
   40.3890   24.4570   34.8540 C   0  0  0  0  0  0  0  0  0  0  0  0
   40.6840   23.5300   35.9220 N   0  0  0  0  0  0  0  0  0  0  0  0
   41.6850   22.7560   36.5700 C   0  0  0  0  0  0  0  0  0  0  0  0
   42.9520   22.6140   36.4890 O   0  0  0  0  0  0  0  0  0  0  0  0
   40.6620   22.1260   37.4370 C   0  0  0  0  0  3  0  0  0  0  0  0
   40.8030   22.3820   38.5230 H   0  0  0  0  0  0  0  0  0  0  0  0
   39.6340   23.0630   36.8420 C   0  0  2  0  0  3  0  0  0  0  0  0
   38.4090   22.2780   35.7720 S   0  0  0  0  0  0  0  0  0  0  0  0
   38.2300   23.3160   34.3160 C   0  0  0  0  0  3  0  0  0  0  0  0
   38.2190   22.7090   33.3740 H   0  0  0  0  0  0  0  0  0  0  0  0
   41.4110   25.5150   34.6590 C   0  0  0  0  0  0  0  0  0  0  0  0
   42.5340   25.9670   34.3310 O   0  0  0  0  0  0  0  0  0  0  0  0
   41.2580   26.8420   34.9290 O   0  0  0  0  0  0  0  0  0  0  0  0
   41.6790   27.3350   35.7410 H   0  0  0  0  0  0  0  0  0  0  0  0
   37.1020   25.7340   33.0880 S   0  0  0  0  0  0  0  0  0  0  0  0
   37.0880   27.5360   32.6660 C   0  0  0  0  0  0  0  0  0  0  0  0
   38.1380   27.8980   32.7400 H   0  0  0  0  0  0  0  0  0  0  0  0
   36.6320   27.7180   31.6940 H   0  0  0  0  0  0  0  0  0  0  0  0
   36.0230   29.5140   33.6440 C   0  0  0  0  0  3  0  0  0  0  0  0
   36.3300   28.2480   33.7370 C   0  0  0  0  0  3  0  0  0  0  0  0
   33.2060   30.6990   35.7690 C   0  0  0  0  0  0  0  0  0  0  0  0
   33.9150   30.0030   34.7690 C   0  0  0  0  0  0  0  0  0  0  0  0
   35.2890   30.2090   34.6560 C   0  0  0  0  0  0  0  0  0  0  0  0
   35.9170   31.0650   35.5040 N   0  0  0  0  0  0  0  0  0  0  0  0
   35.1970   31.7130   36.4500 C   0  0  0  0  0  0  0  0  0  0  0  0
   33.8560   31.5380   36.5890 N   0  0  0  0  0  0  0  0  0  0  0  0
   32.1550   30.4600   35.7580 H   0  0  0  0  0  0  0  0  0  0  0  0
   33.4450   29.3190   34.0860 H   0  0  0  0  0  0  0  0  0  0  0  0
   35.7100   32.3960   37.1220 H   0  0  0  0  0  0  0  0  0  0  0  0
  1 17  1  0  0  0  0
  1  2  1  0  0  0  0
  2 11  1  0  0  0  0
  2  3  2  0  0  0  0
  3  4  1  0  0  0  0
  4  5  1  0  0  0  0
  4  9  1  0  0  0  0
  5  7  1  0  0  0  0
  6  5  2  0  0  0  0
  7  8  1  0  0  0  0
  9 10  1  6  0  0  0
  9  7  1  0  0  0  0
 11 10  1  0  0  0  0
 12 11  1  0  0  0  0
 13  3  1  0  0  0  0
 13 15  1  0  0  0  0
 14 13  2  0  0  0  0
 15 16  1  0  0  0  0
 18 19  1  0  0  0  0
 18 17  1  0  0  0  0
 18 22  1  0  0  0  0
 20 18  1  0  0  0  0
 21 22  2  0  0  0  0
 21 25  1  0  0  0  0
 23 28  1  0  0  0  0
 24 23  2  0  0  0  0
 25 24  1  0  0  0  0
 25 26  2  0  0  0  0
 26 27  1  0  0  0  0
 27 28  2  0  0  0  0
 27 31  1  0  0  0  0
 29 23  1  0  0  0  0
 30 24  1  0  0  0  0
M  END
>  <minimizedAffinity>
-4.90574741

$$$$

 OpenBabel03272502313D

 31 33  0  0  1  0  0  0  0  0999 V2000
   38.6910   25.9730   30.8650 C   0  0  0  0  0  2  0  0  0  0  0  0
   38.2650   24.5770   31.0320 C   0  0  0  0  0  0  0  0  0  0  0  0
   37.0610   24.0700   31.0760 C   0  0  0  0  0  0  0  0  0  0  0  0
   36.8590   22.6480   31.2310 N   0  0  0  0  0  0  0  0  0  0  0  0
   36.0890   21.6270   31.8520 C   0  0  0  0  0  0  0  0  0  0  0  0
   35.0450   21.5600   32.5830 O   0  0  0  0  0  0  0  0  0  0  0  0
   36.9960   20.5880   31.3070 C   0  0  0  0  0  3  0  0  0  0  0  0
   36.4780   19.9040   30.5800 H   0  0  0  0  0  0  0  0  0  0  0  0
   37.7120   21.6730   30.5330 C   0  0  2  0  0  3  0  0  0  0  0  0
   39.3860   22.0440   31.1050 S   0  0  0  0  0  0  0  0  0  0  0  0
   39.5500   23.8330   31.1500 C   0  0  0  0  0  3  0  0  0  0  0  0
   40.0460   24.1800   32.0930 H   0  0  0  0  0  0  0  0  0  0  0  0
   35.8110   24.8590   30.9480 C   0  0  0  0  0  0  0  0  0  0  0  0
   34.5910   25.0960   31.1210 O   0  0  0  0  0  0  0  0  0  0  0  0
   35.6730   26.0510   30.3030 O   0  0  0  0  0  0  0  0  0  0  0  0
   35.2140   26.1790   29.3800 H   0  0  0  0  0  0  0  0  0  0  0  0
   38.6260   27.0640   32.2630 S   0  0  0  0  0  0  0  0  0  0  0  0
   40.2180   26.8850   33.1900 C   0  0  0  0  0  0  0  0  0  0  0  0
   40.8310   26.1310   32.6460 H   0  0  0  0  0  0  0  0  0  0  0  0
   40.7190   27.8430   33.3190 H   0  0  0  0  0  0  0  0  0  0  0  0
   39.5550   25.0280   34.6450 C   0  0  0  0  0  3  0  0  0  0  0  0
   39.9050   26.2810   34.5180 C   0  0  0  0  0  3  0  0  0  0  0  0
   39.7350   22.7920   37.6150 C   0  0  0  0  0  0  0  0  0  0  0  0
   40.0420   23.3720   36.3680 C   0  0  0  0  0  0  0  0  0  0  0  0
   39.2600   24.4310   35.9110 C   0  0  0  0  0  0  0  0  0  0  0  0
   38.2250   24.8850   36.6670 N   0  0  0  0  0  0  0  0  0  0  0  0
   37.9660   24.2990   37.8600 C   0  0  0  0  0  0  0  0  0  0  0  0
   38.7070   23.2630   38.3370 N   0  0  0  0  0  0  0  0  0  0  0  0
   40.4050   21.9850   37.8610 H   0  0  0  0  0  0  0  0  0  0  0  0
   40.8540   23.0350   35.7490 H   0  0  0  0  0  0  0  0  0  0  0  0
   37.1360   24.6700   38.4560 H   0  0  0  0  0  0  0  0  0  0  0  0
  1  2  1  0  0  0  0
  1 17  1  0  0  0  0
  2  3  2  0  0  0  0
  2 11  1  0  0  0  0
  3  4  1  0  0  0  0
  4  5  1  0  0  0  0
  5  6  2  0  0  0  0
  7  5  1  0  0  0  0
  8  7  1  0  0  0  0
  9 10  1  1  0  0  0
  9  4  1  0  0  0  0
  9  7  1  0  0  0  0
 10 11  1  0  0  0  0
 11 12  1  0  0  0  0
 13  3  1  0  0  0  0
 13 14  2  0  0  0  0
 15 13  1  0  0  0  0
 16 15  1  0  0  0  0
 17 18  1  0  0  0  0
 18 20  1  0  0  0  0
 18 22  1  0  0  0  0
 19 18  1  0  0  0  0
 21 25  1  0  0  0  0
 22 21  2  0  0  0  0
 23 29  1  0  0  0  0
 23 28  1  0  0  0  0
 24 23  2  0  0  0  0
 25 24  1  0  0  0  0
 25 26  2  0  0  0  0
 26 27  1  0  0  0  0
 27 28  2  0  0  0  0
 27 31  1  0  0  0  0
 30 24  1  0  0  0  0
M  END
>  <minimizedAffinity>
-4.83165646

$$$$

 OpenBabel03272502313D

 31 33  0  0  1  0  0  0  0  0999 V2000
   40.2750   24.9650   34.4620 C   0  0  0  0  0  2  0  0  0  0  0  0
   39.2140   24.3070   33.6890 C   0  0  0  0  0  0  0  0  0  0  0  0
   38.2680   23.4980   34.0880 C   0  0  0  0  0  0  0  0  0  0  0  0
   37.3010   22.9680   33.1540 N   0  0  0  0  0  0  0  0  0  0  0  0
   36.5490   21.8310   32.7540 C   0  0  0  0  0  0  0  0  0  0  0  0
   36.3440   20.6470   33.1880 O   0  0  0  0  0  0  0  0  0  0  0  0
   36.0460   22.5600   31.5650 C   0  0  0  0  0  3  0  0  0  0  0  0
   34.9330   22.7170   31.5960 H   0  0  0  0  0  0  0  0  0  0  0  0
   36.7320   23.8040   32.0850 C   0  0  2  0  0  3  0  0  0  0  0  0
   38.1620   24.3500   31.1260 S   0  0  0  0  0  0  0  0  0  0  0  0
   39.4590   24.7720   32.2950 C   0  0  0  0  0  3  0  0  0  0  0  0
   40.4520   24.3600   31.9790 H   0  0  0  0  0  0  0  0  0  0  0  0
   38.0650   23.0680   35.4940 C   0  0  0  0  0  0  0  0  0  0  0  0
   37.6690   23.1960   36.6770 O   0  0  0  0  0  0  0  0  0  0  0  0
   38.4620   21.8860   36.0400 O   0  0  0  0  0  0  0  0  0  0  0  0
   39.2690   21.7690   36.6850 H   0  0  0  0  0  0  0  0  0  0  0  0
   40.0740   26.6680   34.9200 S   0  0  0  0  0  0  0  0  0  0  0  0
   38.5340   26.7990   35.9380 C   0  0  0  0  0  0  0  0  0  0  0  0
   38.0290   25.8070   35.8980 H   0  0  0  0  0  0  0  0  0  0  0  0
   38.7480   27.1370   36.9500 H   0  0  0  0  0  0  0  0  0  0  0  0
   37.1500   27.5330   34.0550 C   0  0  0  0  0  3  0  0  0  0  0  0
   37.6170   27.7570   35.2540 C   0  0  0  0  0  3  0  0  0  0  0  0
   35.5930   29.6310   31.4030 C   0  0  0  0  0  0  0  0  0  0  0  0
   36.4730   28.7350   32.0430 C   0  0  0  0  0  0  0  0  0  0  0  0
   36.2630   28.4370   33.3880 C   0  0  0  0  0  0  0  0  0  0  0  0
   35.2240   29.0060   34.0540 N   0  0  0  0  0  0  0  0  0  0  0  0
   34.4030   29.8610   33.4000 C   0  0  0  0  0  0  0  0  0  0  0  0
   34.5780   30.1760   32.0890 N   0  0  0  0  0  0  0  0  0  0  0  0
   35.8560   29.7850   30.3690 H   0  0  0  0  0  0  0  0  0  0  0  0
   37.3020   28.2700   31.5420 H   0  0  0  0  0  0  0  0  0  0  0  0
   33.5750   30.3100   33.9430 H   0  0  0  0  0  0  0  0  0  0  0  0
  1 17  1  0  0  0  0
  2  3  2  0  0  0  0
  2  1  1  0  0  0  0
  3 13  1  0  0  0  0
  4  3  1  0  0  0  0
  5  4  1  0  0  0  0
  5  6  2  0  0  0  0
  7  8  1  0  0  0  0
  7  9  1  0  0  0  0
  7  5  1  0  0  0  0
  9 10  1  6  0  0  0
  9  4  1  0  0  0  0
 10 11  1  0  0  0  0
 11  2  1  0  0  0  0
 12 11  1  0  0  0  0
 13 15  1  0  0  0  0
 13 14  2  0  0  0  0
 15 16  1  0  0  0  0
 17 18  1  0  0  0  0
 18 20  1  0  0  0  0
 19 18  1  0  0  0  0
 21 22  2  0  0  0  0
 22 18  1  0  0  0  0
 23 24  2  0  0  0  0
 23 28  1  0  0  0  0
 24 25  1  0  0  0  0
 25 26  2  0  0  0  0
 25 21  1  0  0  0  0
 27 31  1  0  0  0  0
 27 26  1  0  0  0  0
 28 27  2  0  0  0  0
 29 23  1  0  0  0  0
 30 24  1  0  0  0  0
M  END
>  <minimizedAffinity>
-4.77056265

$$$$

 OpenBabel03272502313D

 31 33  0  0  1  0  0  0  0  0999 V2000
   37.7450   26.6320   32.8810 C   0  0  0  0  0  2  0  0  0  0  0  0
   37.0370   27.9130   32.7500 C   0  0  0  0  0  0  0  0  0  0  0  0
   36.9160   28.6980   31.7120 C   0  0  0  0  0  0  0  0  0  0  0  0
   36.1510   29.9210   31.7910 N   0  0  0  0  0  0  0  0  0  0  0  0
   36.0740   31.2910   31.4180 C   0  0  0  0  0  0  0  0  0  0  0  0
   36.7310   32.0930   30.6730 O   0  0  0  0  0  0  0  0  0  0  0  0
   34.8700   31.4710   32.2640 C   0  0  0  0  0  3  0  0  0  0  0  0
   33.9560   31.7280   31.6600 H   0  0  0  0  0  0  0  0  0  0  0  0
   34.8790   29.9820   32.5300 C   0  0  2  0  0  3  0  0  0  0  0  0
   35.3120   29.5080   34.2190 S   0  0  0  0  0  0  0  0  0  0  0  0
   36.4680   28.1380   34.1080 C   0  0  0  0  0  3  0  0  0  0  0  0
   37.3330   28.2670   34.8100 H   0  0  0  0  0  0  0  0  0  0  0  0
   37.5000   28.4240   30.3760 C   0  0  0  0  0  0  0  0  0  0  0  0
   38.4300   28.2980   29.5440 O   0  0  0  0  0  0  0  0  0  0  0  0
   36.8110   28.1030   29.2460 O   0  0  0  0  0  0  0  0  0  0  0  0
   36.6450   28.7480   28.4470 H   0  0  0  0  0  0  0  0  0  0  0  0
   37.5360   25.4020   31.6180 S   0  0  0  0  0  0  0  0  0  0  0  0
   35.7200   25.1230   31.4000 C   0  0  0  0  0  0  0  0  0  0  0  0
   35.2070   25.6150   32.2570 H   0  0  0  0  0  0  0  0  0  0  0  0
   35.3730   25.4710   30.4280 H   0  0  0  0  0  0  0  0  0  0  0  0
   36.2930   22.7620   31.0900 C   0  0  0  0  0  3  0  0  0  0  0  0
   35.4640   23.6600   31.5490 C   0  0  0  0  0  3  0  0  0  0  0  0
   34.8030   19.5210   32.1540 C   0  0  0  0  0  0  0  0  0  0  0  0
   35.0080   20.9090   32.0200 C   0  0  0  0  0  0  0  0  0  0  0  0
   36.0670   21.3560   31.2330 C   0  0  0  0  0  0  0  0  0  0  0  0
   36.8760   20.4570   30.6110 N   0  0  0  0  0  0  0  0  0  0  0  0
   36.6420   19.1330   30.7670 C   0  0  0  0  0  0  0  0  0  0  0  0
   35.6190   18.6600   31.5290 N   0  0  0  0  0  0  0  0  0  0  0  0
   33.9580   19.2970   32.7850 H   0  0  0  0  0  0  0  0  0  0  0  0
   34.3850   21.6420   32.4990 H   0  0  0  0  0  0  0  0  0  0  0  0
   37.2950   18.4230   30.2660 H   0  0  0  0  0  0  0  0  0  0  0  0
  2  1  1  0  0  0  0
  2 11  1  0  0  0  0
  3  4  1  0  0  0  0
  3  2  2  0  0  0  0
  4  9  1  0  0  0  0
  5  4  1  0  0  0  0
  5  7  1  0  0  0  0
  6  5  2  0  0  0  0
  8  7  1  0  0  0  0
  9  7  1  1  0  0  0
  9 10  1  0  0  0  0
 11 10  1  0  0  0  0
 11 12  1  0  0  0  0
 13  3  1  0  0  0  0
 14 13  2  0  0  0  0
 15 13  1  0  0  0  0
 16 15  1  0  0  0  0
 17  1  1  0  0  0  0
 18 22  1  0  0  0  0
 18 17  1  0  0  0  0
 18 19  1  0  0  0  0
 20 18  1  0  0  0  0
 21 25  1  0  0  0  0
 21 22  2  0  0  0  0
 23 29  1  0  0  0  0
 24 23  1  0  0  0  0
 24 30  1  0  0  0  0
 25 24  2  0  0  0  0
 26 27  2  0  0  0  0
 26 25  1  0  0  0  0
 27 28  1  0  0  0  0
 28 23  2  0  0  0  0
 31 27  1  0  0  0  0
M  END
>  <minimizedAffinity>
-4.76305151

$$$$

 OpenBabel03272502313D

 31 33  0  0  1  0  0  0  0  0999 V2000
   37.5860   25.6400   34.5620 C   0  0  0  0  0  2  0  0  0  0  0  0
   38.8640   25.0240   34.9400 C   0  0  0  0  0  0  0  0  0  0  0  0
   39.1190   23.8080   35.3440 C   0  0  0  0  0  0  0  0  0  0  0  0
   40.4690   23.3940   35.6520 N   0  0  0  0  0  0  0  0  0  0  0  0
   41.3030   22.6510   36.5310 C   0  0  0  0  0  0  0  0  0  0  0  0
   41.1450   21.8580   37.5190 O   0  0  0  0  0  0  0  0  0  0  0  0
   42.5130   23.1590   35.8400 C   0  0  0  0  0  3  0  0  0  0  0  0
   43.0920   22.3400   35.3310 H   0  0  0  0  0  0  0  0  0  0  0  0
   41.6080   23.8210   34.8240 C   0  0  2  0  0  3  0  0  0  0  0  0
   41.5690   25.6260   34.8950 S   0  0  0  0  0  0  0  0  0  0  0  0
   39.8490   26.1280   34.7620 C   0  0  0  0  0  3  0  0  0  0  0  0
   39.5910   26.9230   35.5090 H   0  0  0  0  0  0  0  0  0  0  0  0
   38.0990   22.7420   35.4990 C   0  0  0  0  0  0  0  0  0  0  0  0
   37.2800   21.8820   35.0950 O   0  0  0  0  0  0  0  0  0  0  0  0
   37.6150   22.2540   36.6760 O   0  0  0  0  0  0  0  0  0  0  0  0
   36.6760   22.4660   37.0670 H   0  0  0  0  0  0  0  0  0  0  0  0
   37.5460   26.7610   33.1860 S   0  0  0  0  0  0  0  0  0  0  0  0
   36.6390   25.9230   31.8060 C   0  0  0  0  0  0  0  0  0  0  0  0
   35.5620   26.1790   31.9180 H   0  0  0  0  0  0  0  0  0  0  0  0
   37.0510   26.1900   30.8340 H   0  0  0  0  0  0  0  0  0  0  0  0
   35.8540   23.6170   31.5450 C   0  0  0  0  0  3  0  0  0  0  0  0
   36.7390   24.4500   32.0250 C   0  0  0  0  0  3  0  0  0  0  0  0
   37.0580   20.1000   31.3540 C   0  0  0  0  0  0  0  0  0  0  0  0
   36.9910   21.4940   31.1580 C   0  0  0  0  0  0  0  0  0  0  0  0
   35.9400   22.2020   31.7380 C   0  0  0  0  0  0  0  0  0  0  0  0
   35.0070   21.5460   32.4780 N   0  0  0  0  0  0  0  0  0  0  0  0
   35.1110   20.2060   32.6410 C   0  0  0  0  0  0  0  0  0  0  0  0
   36.1210   19.4820   32.0880 N   0  0  0  0  0  0  0  0  0  0  0  0
   37.9090   19.6630   30.8580 H   0  0  0  0  0  0  0  0  0  0  0  0
   37.7140   22.0400   30.5790 H   0  0  0  0  0  0  0  0  0  0  0  0
   34.3590   19.6910   33.2340 H   0  0  0  0  0  0  0  0  0  0  0  0
  1  2  1  0  0  0  0
  2  3  2  0  0  0  0
  3 13  1  0  0  0  0
  3  4  1  0  0  0  0
  4  5  1  0  0  0  0
  5  6  2  0  0  0  0
  7  5  1  0  0  0  0
  8  7  1  0  0  0  0
  9 10  1  1  0  0  0
  9  4  1  0  0  0  0
  9  7  1  0  0  0  0
 11 10  1  0  0  0  0
 11  2  1  0  0  0  0
 11 12  1  0  0  0  0
 13 15  1  0  0  0  0
 14 13  2  0  0  0  0
 15 16  1  0  0  0  0
 17  1  1  0  0  0  0
 18 19  1  0  0  0  0
 18 22  1  0  0  0  0
 18 17  1  0  0  0  0
 20 18  1  0  0  0  0
 21 25  1  0  0  0  0
 21 22  2  0  0  0  0
 23 28  1  0  0  0  0
 24 23  2  0  0  0  0
 24 25  1  0  0  0  0
 25 26  2  0  0  0  0
 26 27  1  0  0  0  0
 27 31  1  0  0  0  0
 28 27  2  0  0  0  0
 29 23  1  0  0  0  0
 30 24  1  0  0  0  0
M  END
>  <minimizedAffinity>
-4.74701786

$$$$

 OpenBabel03272502313D

 31 33  0  0  1  0  0  0  0  0999 V2000
   35.7870   29.2820   33.2370 C   0  0  0  0  0  2  0  0  0  0  0  0
   34.5550   29.9400   33.6900 C   0  0  0  0  0  0  0  0  0  0  0  0
   34.3960   30.9370   34.5210 C   0  0  0  0  0  0  0  0  0  0  0  0
   33.0800   31.4520   34.8210 N   0  0  0  0  0  0  0  0  0  0  0  0
   32.2100   31.9510   35.8280 C   0  0  0  0  0  0  0  0  0  0  0  0
   32.2960   32.2630   37.0640 O   0  0  0  0  0  0  0  0  0  0  0  0
   31.0850   31.9840   34.8640 C   0  0  0  0  0  3  0  0  0  0  0  0
   30.7160   33.0290   34.6700 H   0  0  0  0  0  0  0  0  0  0  0  0
   32.0580   31.5970   33.7730 C   0  0  2  0  0  3  0  0  0  0  0  0
   31.8440   29.9280   33.1130 S   0  0  0  0  0  0  0  0  0  0  0  0
   33.4800   29.1960   32.9760 C   0  0  0  0  0  3  0  0  0  0  0  0
   33.4960   28.1440   33.3620 H   0  0  0  0  0  0  0  0  0  0  0  0
   35.5050   31.6480   35.2030 C   0  0  0  0  0  0  0  0  0  0  0  0
   36.4510   32.4680   35.2870 O   0  0  0  0  0  0  0  0  0  0  0  0
   35.9150   31.4580   36.4880 O   0  0  0  0  0  0  0  0  0  0  0  0
   36.7800   30.9560   36.7680 H   0  0  0  0  0  0  0  0  0  0  0  0
   36.5450   28.0630   34.2820 S   0  0  0  0  0  0  0  0  0  0  0  0
   37.0480   26.6390   33.2120 C   0  0  0  0  0  0  0  0  0  0  0  0
   36.1140   26.1810   32.8170 H   0  0  0  0  0  0  0  0  0  0  0  0
   37.7440   26.9470   32.4340 H   0  0  0  0  0  0  0  0  0  0  0  0
   37.7830   25.7740   35.3830 C   0  0  0  0  0  3  0  0  0  0  0  0
   37.6740   25.6090   34.0910 C   0  0  0  0  0  3  0  0  0  0  0  0
   40.0170   23.0740   36.6370 C   0  0  0  0  0  0  0  0  0  0  0  0
   39.4510   24.0400   35.7810 C   0  0  0  0  0  0  0  0  0  0  0  0
   38.3730   24.7930   36.2410 C   0  0  0  0  0  0  0  0  0  0  0  0
   37.8890   24.5880   37.4950 N   0  0  0  0  0  0  0  0  0  0  0  0
   38.4640   23.6500   38.2840 C   0  0  0  0  0  0  0  0  0  0  0  0
   39.5160   22.8960   37.8680 N   0  0  0  0  0  0  0  0  0  0  0  0
   40.8410   22.5560   36.1730 H   0  0  0  0  0  0  0  0  0  0  0  0
   39.8130   24.2240   34.7850 H   0  0  0  0  0  0  0  0  0  0  0  0
   38.0690   23.4950   39.2850 H   0  0  0  0  0  0  0  0  0  0  0  0
  1  2  1  0  0  0  0
  1 17  1  0  0  0  0
  2  3  2  0  0  0  0
  3  4  1  0  0  0  0
  3 13  1  0  0  0  0
  4  5  1  0  0  0  0
  5  6  2  0  0  0  0
  7  5  1  0  0  0  0
  8  7  1  0  0  0  0
  9 10  1  1  0  0  0
  9  4  1  0  0  0  0
  9  7  1  0  0  0  0
 11 10  1  0  0  0  0
 11 12  1  0  0  0  0
 11  2  1  0  0  0  0
 13 14  2  0  0  0  0
 13 15  1  0  0  0  0
 15 16  1  0  0  0  0
 18 22  1  0  0  0  0
 18 17  1  0  0  0  0
 19 18  1  0  0  0  0
 20 18  1  0  0  0  0
 21 25  1  0  0  0  0
 22 21  2  0  0  0  0
 23 28  1  0  0  0  0
 24 25  1  0  0  0  0
 24 23  2  0  0  0  0
 25 26  2  0  0  0  0
 26 27  1  0  0  0  0
 27 31  1  0  0  0  0
 28 27  2  0  0  0  0
 29 23  1  0  0  0  0
 30 24  1  0  0  0  0
M  END
>  <minimizedAffinity>
-4.68994761

$$$$

 OpenBabel03272502313D

 31 33  0  0  1  0  0  0  0  0999 V2000
   36.3600   27.1000   32.1750 C   0  0  0  0  0  2  0  0  0  0  0  0
   37.0530   26.3320   33.2170 C   0  0  0  0  0  0  0  0  0  0  0  0
   37.4590   25.0900   33.2100 C   0  0  0  0  0  0  0  0  0  0  0  0
   38.1470   24.5260   34.3480 N   0  0  0  0  0  0  0  0  0  0  0  0
   38.3060   23.3890   35.1850 C   0  0  0  0  0  0  0  0  0  0  0  0
   37.8820   22.1840   35.2140 O   0  0  0  0  0  0  0  0  0  0  0  0
   39.2080   24.1520   36.0810 C   0  0  0  0  0  3  0  0  0  0  0  0
   40.2540   23.7380   36.0910 H   0  0  0  0  0  0  0  0  0  0  0  0
   39.1460   25.3020   35.1000 C   0  0  2  0  0  3  0  0  0  0  0  0
   38.2470   26.7580   35.6820 S   0  0  0  0  0  0  0  0  0  0  0  0
   37.1970   27.3100   34.3320 C   0  0  0  0  0  3  0  0  0  0  0  0
   36.1630   27.5590   34.6870 H   0  0  0  0  0  0  0  0  0  0  0  0
   37.2950   24.1580   32.0670 C   0  0  0  0  0  0  0  0  0  0  0  0
   36.9330   23.8230   30.9140 O   0  0  0  0  0  0  0  0  0  0  0  0
   37.6950   22.8560   32.0250 O   0  0  0  0  0  0  0  0  0  0  0  0
   37.0590   22.0370   32.0910 H   0  0  0  0  0  0  0  0  0  0  0  0
   37.0760   28.6230   31.6100 S   0  0  0  0  0  0  0  0  0  0  0  0
   35.6890   29.7830   31.2130 C   0  0  0  0  0  0  0  0  0  0  0  0
   36.1480   30.7370   30.8700 H   0  0  0  0  0  0  0  0  0  0  0  0
   34.9960   29.3500   30.4930 H   0  0  0  0  0  0  0  0  0  0  0  0
   35.5880   30.6720   33.4930 C   0  0  0  0  0  3  0  0  0  0  0  0
   34.9820   30.0990   32.4880 C   0  0  0  0  0  3  0  0  0  0  0  0
   34.9280   32.0220   36.8990 C   0  0  0  0  0  0  0  0  0  0  0  0
   35.5970   31.7220   35.6950 C   0  0  0  0  0  0  0  0  0  0  0  0
   34.9230   30.9900   34.7190 C   0  0  0  0  0  0  0  0  0  0  0  0
   33.6450   30.5820   34.9400 N   0  0  0  0  0  0  0  0  0  0  0  0
   33.0410   30.8930   36.1110 C   0  0  0  0  0  0  0  0  0  0  0  0
   33.6670   31.6040   37.0860 N   0  0  0  0  0  0  0  0  0  0  0  0
   35.5480   32.5890   37.5740 H   0  0  0  0  0  0  0  0  0  0  0  0
   36.6060   32.0310   35.4920 H   0  0  0  0  0  0  0  0  0  0  0  0
   32.0180   30.5620   36.2770 H   0  0  0  0  0  0  0  0  0  0  0  0
  1  2  1  0  0  0  0
  2 11  1  0  0  0  0
  3  2  2  0  0  0  0
  3  4  1  0  0  0  0
  4  9  1  0  0  0  0
  4  5  1  0  0  0  0
  5  6  2  0  0  0  0
  5  7  1  0  0  0  0
  7  8  1  0  0  0  0
  9 10  1  1  0  0  0
  9  7  1  0  0  0  0
 11 12  1  0  0  0  0
 11 10  1  0  0  0  0
 13  3  1  0  0  0  0
 14 13  2  0  0  0  0
 15 13  1  0  0  0  0
 15 16  1  0  0  0  0
 17  1  1  0  0  0  0
 18 17  1  0  0  0  0
 18 22  1  0  0  0  0
 19 18  1  0  0  0  0
 20 18  1  0  0  0  0
 21 25  1  0  0  0  0
 22 21  2  0  0  0  0
 23 28  1  0  0  0  0
 23 29  1  0  0  0  0
 24 23  2  0  0  0  0
 25 26  2  0  0  0  0
 25 24  1  0  0  0  0
 26 27  1  0  0  0  0
 27 31  1  0  0  0  0
 27 28  2  0  0  0  0
 30 24  1  0  0  0  0
M  END
>  <minimizedAffinity>
-4.68459749

$$$$
