REMARK  Name = 
REMARK  5 active torsions:
REMARK  status: ('A' for Active; 'I' for Inactive)
REMARK    1  A    between atoms: C_11  and  C_12
REMARK    2  A    between atoms: C_11  and  C_16
REMARK    3  A    between atoms: C_16  and  O_17
REMARK    4  A    between atoms: O_17  and  C_18
REMARK    5  A    between atoms: C_18  and  C_31
REMARK                            x       y       z     vdW  Elec       q    Type
REMARK                         _______ _______ _______ _____ _____    ______ ____
ROOT
ATOM      1  C   UNL     1      36.684  29.912  49.038  0.00  0.00    +0.000 A 
ATOM      2  C   UNL     1      37.700  30.583  48.337  0.00  0.00    +0.000 A 
ATOM      3  C   UNL     1      37.472  30.896  46.989  0.00  0.00    +0.000 A 
ATOM      4  N   UNL     1      36.303  30.537  46.454  0.00  0.00    +0.000 NA
ATOM      5  C   UNL     1      35.346  29.894  47.148  0.00  0.00    +0.000 A 
ATOM      6  N   UNL     1      35.545  29.589  48.428  0.00  0.00    +0.000 NA
ATOM      7  N   UNL     1      38.457  31.565  46.242  0.00  0.00    +0.000 N 
ATOM      8  C   UNL     1      39.452  32.498  46.784  0.00  0.00    +0.000 C 
ATOM      9  C   UNL     1      40.128  33.136  45.609  0.00  0.00    +0.000 C 
ATOM     10  C   UNL     1      39.185  32.876  44.502  0.00  0.00    +0.000 C 
ATOM     11  C   UNL     1      38.706  31.490  44.832  0.00  0.00    +0.000 C 
ATOM     12  H   UNL     1      36.855  29.673  50.062  0.00  0.00    +0.000 HD
ATOM     13  H   UNL     1      38.627  30.847  48.831  0.00  0.00    +0.000 HD
ATOM     14  H   UNL     1      34.444  29.668  46.570  0.00  0.00    +0.000 HD
ATOM     15  H   UNL     1      40.176  31.990  47.445  0.00  0.00    +0.000 HD
ATOM     16  H   UNL     1      38.877  33.247  47.349  0.00  0.00    +0.000 HD
ATOM     17  H   UNL     1      40.135  34.254  45.776  0.00  0.00    +0.000 HD
ATOM     18  H   UNL     1      41.167  32.783  45.462  0.00  0.00    +0.000 HD
ATOM     19  H   UNL     1      38.373  33.616  44.499  0.00  0.00    +0.000 HD
ATOM     20  H   UNL     1      39.661  32.914  43.489  0.00  0.00    +0.000 HD
ENDROOT
BRANCH  11  21
ATOM     21  C   UNL     1      37.590  31.028  43.958  0.00  0.00    +0.000 C 
ATOM     22  F   UNL     1      36.465  31.745  44.336  0.00  0.00    +0.000 F 
ATOM     23  F   UNL     1      37.278  29.706  44.032  0.00  0.00    +0.000 F 
ATOM     24  F   UNL     1      37.904  31.462  42.678  0.00  0.00    +0.000 F 
ENDBRANCH  11  21
BRANCH  11  25
ATOM     25  C   UNL     1      39.839  30.545  44.674  0.00  0.00    +0.000 C 
ATOM     26  H   UNL     1      39.462  29.568  45.038  0.00  0.00    +0.000 HD
ATOM     27  H   UNL     1      40.612  30.826  45.453  0.00  0.00    +0.000 HD
BRANCH  25  28
ATOM     28  O   UNL     1      40.351  30.762  43.571  0.00  0.00    +0.000 OA
BRANCH  28  29
ATOM     29  C   UNL     1      40.900  30.062  42.549  0.00  0.00    +0.000 C 
ATOM     30  O   UNL     1      40.634  30.660  41.473  0.00  0.00    +0.000 OA
BRANCH  29  31
ATOM     31  C   UNL     1      41.672  28.928  42.031  0.00  0.00    +0.000 C 
ATOM     32  C   UNL     1      40.771  27.683  42.092  0.00  0.00    +0.000 C 
ATOM     33  H   UNL     1      40.759  27.237  43.093  0.00  0.00    +0.000 HD
ATOM     34  C   UNL     1      41.458  26.697  41.168  0.00  0.00    +0.000 C 
ATOM     35  H   UNL     1      41.141  25.654  41.367  0.00  0.00    +0.000 HD
ATOM     36  O   UNL     1      41.105  27.136  39.906  0.00  0.00    +0.000 OA
ATOM     37  C   UNL     1      41.782  28.273  39.576  0.00  0.00    +0.000 C 
ATOM     38  H   UNL     1      41.159  28.768  38.773  0.00  0.00    +0.000 HD
ATOM     39  C   UNL     1      42.134  29.223  40.646  0.00  0.00    +0.000 C 
ATOM     40  H   UNL     1      43.248  29.317  40.672  0.00  0.00    +0.000 HD
ENDBRANCH  29  31
ENDBRANCH  28  29
ENDBRANCH  25  28
ENDBRANCH  11  25
TORSDOF 5
