
     RDKit          3D

 38 40  0  0  0  0  0  0  0  0999 V2000
   38.4515   30.4454   47.3097 F   0  0  0  0  0  0  0  0  0  0  0  0
   38.7527   31.6699   47.7855 C   0  0  0  0  0  0  0  0  0  0  0  0
   38.2365   32.0807   48.9919 C   0  0  0  0  0  0  0  0  0  0  0  0
   38.5774   33.3387   49.4274 C   0  0  0  0  0  0  0  0  0  0  0  0
   39.4014   34.1744   48.7035 C   0  0  0  0  0  0  0  0  0  0  0  0
   39.9070   33.7471   47.5018 C   0  0  0  0  0  0  0  0  0  0  0  0
   39.5806   32.4842   47.0377 C   0  0  0  0  0  0  0  0  0  0  0  0
   36.9213   29.5992   51.5345 C   0  0  0  0  0  0  0  0  0  0  0  0
   37.7787   30.4835   50.8648 C   0  0  0  0  0  0  0  0  0  0  0  0
   37.3709   31.1543   49.7134 C   0  0  0  0  0  0  0  0  0  0  0  0
   36.0962   30.9027   49.2773 N   0  0  0  0  0  0  0  0  0  0  0  0
   35.2845   30.0464   49.9373 C   0  0  0  0  0  0  0  0  0  0  0  0
   35.6907   29.4123   51.0381 N   0  0  0  0  0  0  0  0  0  0  0  0
   39.1940   32.1656   44.6808 C   0  0  0  0  0  0  0  0  0  0  0  0
   38.0805   32.7101   44.9838 O   0  0  0  0  0  0  0  0  0  0  0  0
   40.0840   31.9886   45.7847 N   0  0  0  0  0  0  0  0  0  0  0  0
   38.1622   33.6452   50.3786 H   0  0  0  0  0  0  0  0  0  0  0  0
   39.6461   35.1603   49.0830 H   0  0  0  0  0  0  0  0  0  0  0  0
   40.5582   34.3890   46.9146 H   0  0  0  0  0  0  0  0  0  0  0  0
   37.3700   29.1499   52.4123 H   0  0  0  0  0  0  0  0  0  0  0  0
   38.7990   30.7120   51.1772 H   0  0  0  0  0  0  0  0  0  0  0  0
   34.2839   29.8879   49.5424 H   0  0  0  0  0  0  0  0  0  0  0  0
   41.0167   31.5380   45.6830 H   0  0  0  0  0  0  0  0  0  0  0  0
   39.6860   31.6974   43.3600 C   0  0  2  0  0  0  0  0  0  0  0  0
   41.1644   31.4453   43.3461 C   0  0  2  0  0  0  0  0  0  0  0  0
   41.4698   30.8414   44.2005 H   0  0  0  0  0  0  0  0  0  0  0  0
   41.4484   30.7757   41.9977 C   0  0  2  0  0  0  0  0  0  0  0  0
   40.6155   30.0355   41.8307 H   0  0  0  0  0  0  0  0  0  0  0  0
   41.2426   31.7565   41.0295 O   0  0  0  0  0  0  0  0  0  0  0  0
   39.9070   32.0911   40.9652 C   0  0  2  0  0  0  0  0  0  0  0  0
   39.2819   31.1680   40.8017 H   0  0  0  0  0  0  0  0  0  0  0  0
   39.4355   32.7289   42.2579 C   0  0  2  0  0  0  0  0  0  0  0  0
   40.0788   33.6403   42.4230 H   0  0  0  0  0  0  0  0  0  0  0  0
   39.1817   30.7792   43.0578 H   0  0  0  0  0  0  0  0  0  0  0  0
   41.6841   32.4430   43.2839 H   0  0  0  0  0  0  0  0  0  0  0  0
   42.4403   30.3309   41.9406 H   0  0  0  0  0  0  0  0  0  0  0  0
   39.7291   32.7675   40.0992 H   0  0  0  0  0  0  0  0  0  0  0  0
   38.3802   32.9895   42.1941 H   0  0  0  0  0  0  0  0  0  0  0  0
  1  2  1  0
  2  3  2  0
  3  4  1  0
  3 10  1  0
  5  4  2  0
  6  5  1  0
  7  6  2  0
  7  2  1  0
  9  8  2  0
 10  9  1  0
 11 10  2  0
 11 12  1  0
 12 13  2  0
 13  8  1  0
 14 15  2  0
 14 16  1  0
 16  7  1  0
  4 17  1  0
  5 18  1  0
  6 19  1  0
  8 20  1  0
  9 21  1  0
 12 22  1  0
 16 23  1  0
 24 25  1  0
 25 26  1  1
 25 27  1  0
 27 28  1  6
 27 29  1  0
 29 30  1  0
 30 31  1  6
 30 32  1  0
 32 33  1  1
 32 24  1  0
 24 34  1  6
 25 35  1  0
 27 36  1  0
 30 37  1  0
 32 38  1  0
 14 24  1  0
M  ISO  8  17  14  18  14  19  14  20  14  21  14  22  14  26  15  28  15
M  ISO  2  31  15  33  15
M  END
>  <DihAtoms>  (1) 
14,13,23,24

>  <DihDeg>  (1) 
0.003330803455893199

$$$$
