REMARK  Name = 
REMARK  6 active torsions:
REMARK  status: ('A' for Active; 'I' for Inactive)
REMARK    1  A    between atoms: C_1  and  C_13
REMARK    2  A    between atoms: C_2  and  O_14
REMARK    3  A    between atoms: C_6  and  C_7
REMARK    4  A    between atoms: O_14  and  C_15
REMARK    5  A    between atoms: C_16  and  N_23
REMARK    6  A    between atoms: C_21  and  C_33
REMARK                            x       y       z     vdW  Elec       q    Type
REMARK                         _______ _______ _______ _____ _____    ______ ____
ROOT
ATOM      1  C   UNL     1      36.781  31.198  50.169  0.00  0.00    +0.000 A 
ATOM      2  C   UNL     1      35.642  30.427  49.951  0.00  0.00    +0.000 A 
ATOM      3  C   UNL     1      35.442  29.254  50.646  0.00  0.00    +0.000 A 
ATOM      4  N   UNL     1      36.394  28.885  51.545  0.00  0.00    +0.000 NA
ATOM      5  C   UNL     1      37.501  29.648  51.748  0.00  0.00    +0.000 A 
ATOM      6  N   UNL     1      37.675  30.774  51.068  0.00  0.00    +0.000 NA
ATOM      7  H   UNL     1      34.583  28.607  50.527  0.00  0.00    +0.000 HD
ATOM      8  H   UNL     1      38.237  29.311  52.480  0.00  0.00    +0.000 HD
ENDROOT
BRANCH   2  11
ATOM      9  C   UNL     1      34.144  29.715  48.145  0.00  0.00    +0.000 C 
ATOM     10  O   UNL     1      34.549  28.518  47.873  0.00  0.00    +0.000 OA
ATOM     11  N   UNL     1      34.613  30.729  49.046  0.00  0.00    +0.000 N 
ATOM     12  H   UNL     1      34.101  31.632  48.917  0.00  0.00    +0.000 HD
BRANCH   9  13
ATOM     13  C   UNL     1      32.957  29.904  47.259  0.00  0.00    +0.000 C 
ATOM     14  C   UNL     1      33.436  30.123  45.869  0.00  0.00    +0.000 C 
ATOM     15  H   UNL     1      33.699  29.145  45.365  0.00  0.00    +0.000 HD
ATOM     16  C   UNL     1      32.431  30.783  44.963  0.00  0.00    +0.000 C 
ATOM     17  H   UNL     1      32.733  31.838  44.768  0.00  0.00    +0.000 HD
ATOM     18  O   UNL     1      31.172  30.880  45.562  0.00  0.00    +0.000 OA
ATOM     19  C   UNL     1      31.372  31.759  46.648  0.00  0.00    +0.000 C 
ATOM     20  H   UNL     1      30.410  32.180  47.001  0.00  0.00    +0.000 HD
ATOM     21  C   UNL     1      31.949  30.875  47.759  0.00  0.00    +0.000 C 
ATOM     22  H   UNL     1      32.285  31.564  48.549  0.00  0.00    +0.000 HD
ENDBRANCH   9  13
ENDBRANCH   2  11
BRANCH   1  23
ATOM     23  O   UNL     1      36.805  32.309  49.399  0.00  0.00    +0.000 OA
BRANCH  23  25
ATOM     24  C   UNL     1      38.268  32.295  47.394  0.00  0.00    +0.000 A 
ATOM     25  C   UNL     1      37.906  32.731  48.656  0.00  0.00    +0.000 A 
ATOM     26  C   UNL     1      38.673  33.687  49.308  0.00  0.00    +0.000 A 
ATOM     27  C   UNL     1      39.803  34.198  48.682  0.00  0.00    +0.000 A 
ATOM     28  C   UNL     1      40.156  33.755  47.422  0.00  0.00    +0.000 A 
ATOM     29  C   UNL     1      39.374  32.812  46.813  0.00  0.00    +0.000 A 
ATOM     30  H   UNL     1      38.445  34.070  50.294  0.00  0.00    +0.000 HD
ATOM     31  H   UNL     1      40.398  34.940  49.190  0.00  0.00    +0.000 HD
ATOM     32  H   UNL     1      41.029  34.131  46.906  0.00  0.00    +0.000 HD
BRANCH  29  33
ATOM     33  C   UNL     1      39.761  32.342  45.458  0.00  0.00    +0.000 A 
ATOM     34  C   UNL     1      40.610  31.343  45.096  0.00  0.00    +0.000 A 
ATOM     35  C   UNL     1      40.652  31.278  43.709  0.00  0.00    +0.000 A 
ATOM     36  C   UNL     1      39.801  32.272  43.305  0.00  0.00    +0.000 A 
ATOM     37  O   UNL     1      39.277  32.898  44.357  0.00  0.00    +0.000 OA
ATOM     38  H   UNL     1      41.159  30.706  45.779  0.00  0.00    +0.000 HD
ATOM     39  H   UNL     1      41.226  30.598  43.072  0.00  0.00    +0.000 HD
ATOM     40  H   UNL     1      39.562  32.540  42.267  0.00  0.00    +0.000 HD
ENDBRANCH  29  33
BRANCH  24  42
ATOM     41  N   UNL     1      36.752  30.532  46.299  0.00  0.00    +0.000 NA
ATOM     42  C   UNL     1      37.426  31.312  46.795  0.00  0.00    +0.000 C 
ENDBRANCH  24  42
ENDBRANCH  23  25
ENDBRANCH   1  23
TORSDOF 6
