
 OpenBabel03272503063D

 33 35  0  0  0  0  0  0  0  0999 V2000
   38.1810   30.2030   47.3890 F   0  0  0  0  0  0  0  0  0  0  0  0
   38.5510   31.4310   47.8030 C   0  0  0  0  0  0  0  0  0  0  0  0
   38.1310   31.8950   49.0280 C   0  0  0  0  0  0  0  0  0  0  0  0
   38.5390   33.1530   49.3980 C   0  0  0  0  0  0  0  0  0  0  0  0
   39.3360   33.9390   48.5930 C   0  0  0  0  0  0  0  0  0  0  0  0
   39.7450   33.4600   47.3750 C   0  0  0  0  0  0  0  0  0  0  0  0
   39.3500   32.1950   46.9750 C   0  0  0  0  0  0  0  0  0  0  0  0
   38.2000   33.5010   50.3660 H   0  0  0  0  0  0  0  0  0  0  0  0
   39.6370   34.9280   48.9240 H   0  0  0  0  0  0  0  0  0  0  0  0
   40.3740   34.0630   46.7250 H   0  0  0  0  0  0  0  0  0  0  0  0
   36.9040   29.5750   51.7610 C   0  0  0  0  0  0  0  0  0  0  0  0
   37.7400   30.4110   51.0070 C   0  0  0  0  0  0  0  0  0  0  0  0
   37.2900   31.0180   49.8350 C   0  0  0  0  0  0  0  0  0  0  0  0
   35.9970   30.7530   49.4660 N   0  0  0  0  0  0  0  0  0  0  0  0
   35.2080   29.9430   50.2060 C   0  0  0  0  0  0  0  0  0  0  0  0
   35.6540   29.3700   51.3250 N   0  0  0  0  0  0  0  0  0  0  0  0
   37.3860   29.1730   52.6440 H   0  0  0  0  0  0  0  0  0  0  0  0
   38.7730   30.6490   51.2640 H   0  0  0  0  0  0  0  0  0  0  0  0
   34.1910   29.7710   49.8610 H   0  0  0  0  0  0  0  0  0  0  0  0
   38.8060   31.8460   44.6540 C   0  0  0  0  0  0  0  0  0  0  0  0
   37.7420   32.4540   45.0090 O   0  0  0  0  0  0  0  0  0  0  0  0
   39.7510   31.6470   45.7080 N   0  0  0  0  0  0  0  0  0  0  0  0
   40.6510   31.1450   45.5620 H   0  0  0  0  0  0  0  0  0  0  0  0
   39.1920   31.3220   43.3190 C   0  0  0  0  0  3  0  0  0  0  0  0
   40.5440   30.6740   43.3170 C   0  0  0  0  0  3  0  0  0  0  0  0
   40.6460   29.9700   44.1420 H   0  0  0  0  0  0  0  0  0  0  0  0
   40.6770   30.0170   41.9390 C   0  0  0  0  0  3  0  0  0  0  0  0
   39.6790   29.5440   41.7180 H   0  0  0  0  0  0  0  0  0  0  0  0
   40.7790   31.0610   41.0220 O   0  0  0  0  0  0  0  0  0  0  0  0
   39.5880   31.7530   40.9530 C   0  0  0  0  0  3  0  0  0  0  0  0
   38.7390   31.0460   40.7290 H   0  0  0  0  0  0  0  0  0  0  0  0
   39.2690   32.4340   42.2690 C   0  0  0  0  0  3  0  0  0  0  0  0
   40.1320   33.1240   42.4960 H   0  0  0  0  0  0  0  0  0  0  0  0
  1  2  1  0  0  0  0
  2  3  1  0  0  0  0
  3  4  2  0  0  0  0
  3 13  1  0  0  0  0
  4  8  1  0  0  0  0
  5  9  1  0  0  0  0
  5  4  1  0  0  0  0
  6  5  2  0  0  0  0
  7  6  1  0  0  0  0
  7  2  2  0  0  0  0
 10  6  1  0  0  0  0
 11 17  1  0  0  0  0
 12 18  1  0  0  0  0
 12 11  2  0  0  0  0
 13 12  1  0  0  0  0
 14 13  2  0  0  0  0
 14 15  1  0  0  0  0
 15 16  2  0  0  0  0
 16 11  1  0  0  0  0
 19 15  1  0  0  0  0
 20 21  2  0  0  0  0
 20 22  1  0  0  0  0
 22  7  1  0  0  0  0
 23 22  1  0  0  0  0
 24 20  1  0  0  0  0
 25 24  1  0  0  0  0
 25 26  1  0  0  0  0
 27 25  1  0  0  0  0
 28 27  1  0  0  0  0
 29 27  1  0  0  0  0
 30 29  1  0  0  0  0
 30 32  1  0  0  0  0
 31 30  1  0  0  0  0
 32 33  1  0  0  0  0
 32 24  1  0  0  0  0
M  END
>  <minimizedAffinity>
-6.56795597

>  <minimizedRMSD>
0.542370379

$$$$
