
 OpenBabel03272509433D

 39 41  0  0  1  0  0  0  0  0999 V2000
   37.1410   30.9270   49.0630 C   0  0  0  0  0  0  0  0  0  0  0  0
   36.9010   31.8890   50.0480 C   0  0  0  0  0  0  0  0  0  0  0  0
   37.4810   33.1480   49.9940 C   0  0  0  0  0  0  0  0  0  0  0  0
   38.3270   33.4730   48.9340 C   0  0  0  0  0  0  0  0  0  0  0  0
   38.5510   32.5190   47.9780 C   0  0  0  0  0  0  0  0  0  0  0  0
   37.9570   31.2710   48.0600 C   0  0  0  0  0  0  0  0  0  0  0  0
   36.2320   31.5960   50.8630 H   0  0  0  0  0  0  0  0  0  0  0  0
   37.2100   33.7880   50.8180 H   0  0  0  0  0  0  0  0  0  0  0  0
   38.7410   34.4710   48.9600 H   0  0  0  0  0  0  0  0  0  0  0  0
   39.2320   32.9150   47.2160 H   0  0  0  0  0  0  0  0  0  0  0  0
   36.5650   29.6030   49.1360 C   0  0  2  0  0  0  0  0  0  0  0  0
   37.0410   29.0170   48.2590 H   0  0  0  0  0  0  0  0  0  0  0  0
   33.6450   29.7960   46.9800 C   0  0  0  0  0  0  0  0  0  0  0  0
   32.9090   28.6750   47.3120 C   0  0  0  0  0  0  0  0  0  0  0  0
   33.3780   27.8660   48.3310 C   0  0  0  0  0  0  0  0  0  0  0  0
   34.5500   28.2000   48.9730 N   0  0  0  0  0  0  0  0  0  0  0  0
   35.2080   29.2810   48.6090 C   0  0  0  0  0  0  0  0  0  0  0  0
   34.7650   30.0830   47.6190 N   0  0  0  0  0  0  0  0  0  0  0  0
   33.3090   30.4630   46.1810 H   0  0  0  0  0  0  0  0  0  0  0  0
   32.0100   28.5130   46.7420 H   0  0  0  0  0  0  0  0  0  0  0  0
   32.7980   26.9910   48.5890 H   0  0  0  0  0  0  0  0  0  0  0  0
   37.0690   28.8940   50.0830 O   0  0  0  0  0  0  0  0  0  0  0  0
   36.8900   29.0580   51.0330 H   0  0  0  0  0  0  0  0  0  0  0  0
   38.3080   30.3530   47.0010 C   0  0  0  0  0  3  0  0  0  0  0  0
   38.8410   30.7330   45.8350 C   0  0  0  0  0  3  0  0  0  0  0  0
   39.2790   29.8800   44.7050 C   0  0  0  0  0  0  0  0  0  0  0  0
   40.0510   29.1750   45.1180 H   0  0  0  0  0  0  0  0  0  0  0  0
   38.4240   29.3070   44.3200 H   0  0  0  0  0  0  0  0  0  0  0  0
   40.1070   30.8850   43.4700 S   0  0  0  0  0  0  0  0  0  0  0  0
   40.2360   30.0460   41.8730 C   0  0  0  0  0  3  0  0  0  0  0  0
   41.4720   29.2100   41.8360 C   0  0  0  0  0  3  0  0  0  0  0  0
   42.3560   29.7050   42.2780 H   0  0  0  0  0  0  0  0  0  0  0  0
   41.8330   28.6830   40.4900 C   0  0  0  0  0  3  0  0  0  0  0  0
   41.2650   27.7310   40.3160 H   0  0  0  0  0  0  0  0  0  0  0  0
   41.6170   29.5310   39.4340 O   0  0  0  0  0  0  0  0  0  0  0  0
   41.3520   30.8410   39.7610 C   0  0  0  0  0  3  0  0  0  0  0  0
   41.0030   31.3280   38.8050 H   0  0  0  0  0  0  0  0  0  0  0  0
   40.2470   31.0260   40.7480 C   0  0  0  0  0  3  0  0  0  0  0  0
   40.3440   32.0670   41.1730 H   0  0  0  0  0  0  0  0  0  0  0  0
  1 11  1  0  0  0  0
  1  2  1  0  0  0  0
  2  7  1  0  0  0  0
  3  2  2  0  0  0  0
  3  8  1  0  0  0  0
  4  9  1  0  0  0  0
  4  3  1  0  0  0  0
  5  6  1  0  0  0  0
  5  4  2  0  0  0  0
  6  1  2  0  0  0  0
 10  5  1  0  0  0  0
 11 12  1  6  0  0  0
 11 22  1  0  0  0  0
 13 14  2  0  0  0  0
 13 18  1  0  0  0  0
 14 15  1  0  0  0  0
 15 21  1  0  0  0  0
 15 16  2  0  0  0  0
 17 16  1  0  0  0  0
 17 11  1  0  0  0  0
 18 17  2  0  0  0  0
 19 13  1  0  0  0  0
 20 14  1  0  0  0  0
 22 23  1  0  0  0  0
 24  6  1  0  0  0  0
 25 24  2  0  0  0  0
 26 27  1  0  0  0  0
 26 25  1  0  0  0  0
 28 26  1  0  0  0  0
 29 26  1  0  0  0  0
 30 29  1  0  0  0  0
 31 30  1  0  0  0  0
 31 32  1  0  0  0  0
 33 31  1  0  0  0  0
 34 33  1  0  0  0  0
 35 36  1  0  0  0  0
 35 33  1  0  0  0  0
 36 38  1  0  0  0  0
 37 36  1  0  0  0  0
 38 39  1  0  0  0  0
 38 30  1  0  0  0  0
M  END
>  <minimizedAffinity>
-5.89641094

>  <minimizedRMSD>
0.470996618

$$$$
