
 OpenBabel03272503073D

 33 35  0  0  0  0  0  0  0  0999 V2000
   40.2460   24.0720   34.6580 F   0  0  0  0  0  0  0  0  0  0  0  0
   39.6630   23.8850   35.8580 C   0  0  0  0  0  0  0  0  0  0  0  0
   40.3180   23.1650   36.8310 C   0  0  0  0  0  0  0  0  0  0  0  0
   39.6760   23.0060   38.0360 C   0  0  0  0  0  0  0  0  0  0  0  0
   38.4280   23.5360   38.2850 C   0  0  0  0  0  0  0  0  0  0  0  0
   37.7910   24.2510   37.3030 C   0  0  0  0  0  0  0  0  0  0  0  0
   38.4130   24.4280   36.0790 C   0  0  0  0  0  0  0  0  0  0  0  0
   40.2070   22.4380   38.7890 H   0  0  0  0  0  0  0  0  0  0  0  0
   37.9570   23.3880   39.2500 H   0  0  0  0  0  0  0  0  0  0  0  0
   36.8070   24.6780   37.4780 H   0  0  0  0  0  0  0  0  0  0  0  0
   44.0400   22.8660   36.1910 C   0  0  0  0  0  0  0  0  0  0  0  0
   42.7880   23.4130   36.5040 C   0  0  0  0  0  0  0  0  0  0  0  0
   41.6360   22.6290   36.5100 C   0  0  0  0  0  0  0  0  0  0  0  0
   41.7950   21.3040   36.1960 N   0  0  0  0  0  0  0  0  0  0  0  0
   43.0120   20.7950   35.8970 C   0  0  0  0  0  0  0  0  0  0  0  0
   44.1040   21.5600   35.8960 N   0  0  0  0  0  0  0  0  0  0  0  0
   44.8440   23.5900   36.2250 H   0  0  0  0  0  0  0  0  0  0  0  0
   42.6160   24.4600   36.7590 H   0  0  0  0  0  0  0  0  0  0  0  0
   43.0750   19.7370   35.6570 H   0  0  0  0  0  0  0  0  0  0  0  0
   38.0580   26.5710   35.0370 C   0  0  0  0  0  0  0  0  0  0  0  0
   38.7890   26.9530   36.0100 O   0  0  0  0  0  0  0  0  0  0  0  0
   37.7880   25.1680   35.0160 N   0  0  0  0  0  0  0  0  0  0  0  0
   37.1870   24.7260   34.2900 H   0  0  0  0  0  0  0  0  0  0  0  0
   37.4570   27.3710   33.9380 C   0  0  0  0  0  3  0  0  0  0  0  0
   36.3200   28.2320   34.4010 C   0  0  0  0  0  3  0  0  0  0  0  0
   36.5880   28.7930   35.2960 H   0  0  0  0  0  0  0  0  0  0  0  0
   35.9770   29.1270   33.2060 C   0  0  0  0  0  3  0  0  0  0  0  0
   36.9600   29.4530   32.7620 H   0  0  0  0  0  0  0  0  0  0  0  0
   35.4220   28.2860   32.2420 O   0  0  0  0  0  0  0  0  0  0  0  0
   36.3790   27.4230   31.7540 C   0  0  0  0  0  3  0  0  0  0  0  0
   37.2700   28.0020   31.3780 H   0  0  0  0  0  0  0  0  0  0  0  0
   36.8780   26.4830   32.8350 C   0  0  0  0  0  3  0  0  0  0  0  0
   35.9770   25.9240   33.2180 H   0  0  0  0  0  0  0  0  0  0  0  0
  1  2  1  0  0  0  0
  2  7  2  0  0  0  0
  2  3  1  0  0  0  0
  3  4  2  0  0  0  0
  4  5  1  0  0  0  0
  4  8  1  0  0  0  0
  5  9  1  0  0  0  0
  6 10  1  0  0  0  0
  6  5  2  0  0  0  0
  7  6  1  0  0  0  0
 11 17  1  0  0  0  0
 11 12  1  0  0  0  0
 12 13  2  0  0  0  0
 12 18  1  0  0  0  0
 13  3  1  0  0  0  0
 14 13  1  0  0  0  0
 15 14  2  0  0  0  0
 16 15  1  0  0  0  0
 16 11  2  0  0  0  0
 19 15  1  0  0  0  0
 20 21  2  0  0  0  0
 22 20  1  0  0  0  0
 22  7  1  0  0  0  0
 23 22  1  0  0  0  0
 24 25  1  0  0  0  0
 24 20  1  0  0  0  0
 25 26  1  0  0  0  0
 27 25  1  0  0  0  0
 28 27  1  0  0  0  0
 29 27  1  0  0  0  0
 30 29  1  0  0  0  0
 30 32  1  0  0  0  0
 31 30  1  0  0  0  0
 32 33  1  0  0  0  0
 32 24  1  0  0  0  0
M  END
>  <minimizedAffinity>
-5.57214785

$$$$

 OpenBabel03272503073D

 33 35  0  0  0  0  0  0  0  0999 V2000
   35.9660   28.0590   34.5570 F   0  0  0  0  0  0  0  0  0  0  0  0
   36.1090   28.7930   33.4360 C   0  0  0  0  0  0  0  0  0  0  0  0
   35.6680   30.0960   33.4120 C   0  0  0  0  0  0  0  0  0  0  0  0
   35.8410   30.7970   32.2420 C   0  0  0  0  0  0  0  0  0  0  0  0
   36.4290   30.2410   31.1270 C   0  0  0  0  0  0  0  0  0  0  0  0
   36.8630   28.9410   31.1700 C   0  0  0  0  0  0  0  0  0  0  0  0
   36.7030   28.2100   32.3340 C   0  0  0  0  0  0  0  0  0  0  0  0
   35.4890   31.8210   32.2420 H   0  0  0  0  0  0  0  0  0  0  0  0
   36.5470   30.8300   30.2230 H   0  0  0  0  0  0  0  0  0  0  0  0
   37.3290   28.4830   30.3020 H   0  0  0  0  0  0  0  0  0  0  0  0
   35.1390   31.8930   36.7050 C   0  0  0  0  0  0  0  0  0  0  0  0
   35.7600   31.3940   35.5510 C   0  0  0  0  0  0  0  0  0  0  0  0
   35.0550   30.6300   34.6220 C   0  0  0  0  0  0  0  0  0  0  0  0
   33.7320   30.3970   34.8990 N   0  0  0  0  0  0  0  0  0  0  0  0
   33.1530   30.8860   36.0180 C   0  0  0  0  0  0  0  0  0  0  0  0
   33.8420   31.6160   36.8960 N   0  0  0  0  0  0  0  0  0  0  0  0
   35.8060   32.4680   37.3350 H   0  0  0  0  0  0  0  0  0  0  0  0
   36.8070   31.5550   35.2920 H   0  0  0  0  0  0  0  0  0  0  0  0
   32.1000   30.6670   36.1820 H   0  0  0  0  0  0  0  0  0  0  0  0
   36.2830   25.9020   31.7800 C   0  0  0  0  0  0  0  0  0  0  0  0
   35.2500   26.4190   31.2380 O   0  0  0  0  0  0  0  0  0  0  0  0
   37.1390   26.8430   32.4310 N   0  0  0  0  0  0  0  0  0  0  0  0
   38.0050   26.5550   32.9330 H   0  0  0  0  0  0  0  0  0  0  0  0
   36.7120   24.4810   31.8280 C   0  0  0  0  0  3  0  0  0  0  0  0
   37.7570   24.1540   30.8040 C   0  0  0  0  0  3  0  0  0  0  0  0
   38.5640   24.8870   30.8140 H   0  0  0  0  0  0  0  0  0  0  0  0
   38.2250   22.7350   31.1410 C   0  0  0  0  0  3  0  0  0  0  0  0
   38.3130   22.6890   32.2630 H   0  0  0  0  0  0  0  0  0  0  0  0
   37.1530   21.8950   30.8420 O   0  0  0  0  0  0  0  0  0  0  0  0
   36.1100   22.1230   31.7130 C   0  0  0  0  0  3  0  0  0  0  0  0
   36.4660   22.0270   32.7780 H   0  0  0  0  0  0  0  0  0  0  0  0
   35.5510   23.5230   31.5510 C   0  0  0  0  0  3  0  0  0  0  0  0
   35.2170   23.6160   30.4780 H   0  0  0  0  0  0  0  0  0  0  0  0
  2  1  1  0  0  0  0
  3  2  1  0  0  0  0
  3 13  1  0  0  0  0
  4  3  2  0  0  0  0
  5  6  2  0  0  0  0
  5  4  1  0  0  0  0
  6  7  1  0  0  0  0
  7 22  1  0  0  0  0
  7  2  2  0  0  0  0
  8  4  1  0  0  0  0
  9  5  1  0  0  0  0
 10  6  1  0  0  0  0
 11 16  1  0  0  0  0
 11 17  1  0  0  0  0
 12 11  2  0  0  0  0
 13 14  2  0  0  0  0
 13 12  1  0  0  0  0
 14 15  1  0  0  0  0
 15 19  1  0  0  0  0
 15 16  2  0  0  0  0
 18 12  1  0  0  0  0
 20 24  1  0  0  0  0
 20 22  1  0  0  0  0
 21 20  2  0  0  0  0
 22 23  1  0  0  0  0
 25 26  1  0  0  0  0
 25 27  1  0  0  0  0
 25 24  1  0  0  0  0
 27 28  1  0  0  0  0
 29 27  1  0  0  0  0
 29 30  1  0  0  0  0
 30 31  1  0  0  0  0
 32 30  1  0  0  0  0
 32 24  1  0  0  0  0
 33 32  1  0  0  0  0
M  END
>  <minimizedAffinity>
-5.46511221

$$$$

 OpenBabel03272503073D

 33 35  0  0  0  0  0  0  0  0999 V2000
   36.2750   27.7290   34.8750 F   0  0  0  0  0  0  0  0  0  0  0  0
   36.9970   27.7010   33.7380 C   0  0  0  0  0  0  0  0  0  0  0  0
   36.6300   28.4940   32.6750 C   0  0  0  0  0  0  0  0  0  0  0  0
   37.4030   28.4250   31.5410 C   0  0  0  0  0  0  0  0  0  0  0  0
   38.5060   27.6030   31.4470 C   0  0  0  0  0  0  0  0  0  0  0  0
   38.8570   26.8200   32.5170 C   0  0  0  0  0  0  0  0  0  0  0  0
   38.0970   26.8690   33.6730 C   0  0  0  0  0  0  0  0  0  0  0  0
   37.1000   29.0560   30.7160 H   0  0  0  0  0  0  0  0  0  0  0  0
   39.0900   27.5790   30.5340 H   0  0  0  0  0  0  0  0  0  0  0  0
   39.7220   26.1650   32.4640 H   0  0  0  0  0  0  0  0  0  0  0  0
   34.3850   31.4660   33.3720 C   0  0  0  0  0  0  0  0  0  0  0  0
   35.5360   30.6770   33.2300 C   0  0  0  0  0  0  0  0  0  0  0  0
   35.4540   29.3430   32.8340 C   0  0  0  0  0  0  0  0  0  0  0  0
   34.1980   28.8510   32.5920 N   0  0  0  0  0  0  0  0  0  0  0  0
   33.1010   29.6280   32.7350 C   0  0  0  0  0  0  0  0  0  0  0  0
   33.1960   30.9030   33.1160 N   0  0  0  0  0  0  0  0  0  0  0  0
   34.5980   32.4800   33.6860 H   0  0  0  0  0  0  0  0  0  0  0  0
   36.5530   31.0270   33.4120 H   0  0  0  0  0  0  0  0  0  0  0  0
   32.1310   29.1810   32.5280 H   0  0  0  0  0  0  0  0  0  0  0  0
   38.0820   24.6850   34.6920 C   0  0  0  0  0  0  0  0  0  0  0  0
   37.5180   24.3830   33.5890 O   0  0  0  0  0  0  0  0  0  0  0  0
   38.4210   26.0670   34.8220 N   0  0  0  0  0  0  0  0  0  0  0  0
   38.8660   26.4540   35.6800 H   0  0  0  0  0  0  0  0  0  0  0  0
   38.4280   23.8140   35.8440 C   0  0  0  0  0  3  0  0  0  0  0  0
   38.0990   24.4390   37.1670 C   0  0  0  0  0  3  0  0  0  0  0  0
   37.0860   24.8420   37.1720 H   0  0  0  0  0  0  0  0  0  0  0  0
   38.3160   23.3330   38.2040 C   0  0  0  0  0  3  0  0  0  0  0  0
   37.8900   22.3910   37.7560 H   0  0  0  0  0  0  0  0  0  0  0  0
   39.6910   23.1080   38.2450 O   0  0  0  0  0  0  0  0  0  0  0  0
   40.1190   22.5500   37.0600 C   0  0  0  0  0  3  0  0  0  0  0  0
   39.5240   21.6200   36.8310 H   0  0  0  0  0  0  0  0  0  0  0  0
   39.9250   23.5040   35.8980 C   0  0  0  0  0  3  0  0  0  0  0  0
   40.5080   24.4370   36.1450 H   0  0  0  0  0  0  0  0  0  0  0  0
  2  1  1  0  0  0  0
  3 13  1  0  0  0  0
  3  2  2  0  0  0  0
  4  3  1  0  0  0  0
  5  4  2  0  0  0  0
  5  6  1  0  0  0  0
  6  7  2  0  0  0  0
  7  2  1  0  0  0  0
  7 22  1  0  0  0  0
  8  4  1  0  0  0  0
  9  5  1  0  0  0  0
 10  6  1  0  0  0  0
 11 17  1  0  0  0  0
 12 11  1  0  0  0  0
 12 18  1  0  0  0  0
 13 12  2  0  0  0  0
 14 15  2  0  0  0  0
 14 13  1  0  0  0  0
 15 16  1  0  0  0  0
 16 11  2  0  0  0  0
 19 15  1  0  0  0  0
 20 22  1  0  0  0  0
 20 24  1  0  0  0  0
 21 20  2  0  0  0  0
 22 23  1  0  0  0  0
 24 32  1  0  0  0  0
 24 25  1  0  0  0  0
 25 26  1  0  0  0  0
 25 27  1  0  0  0  0
 27 29  1  0  0  0  0
 28 27  1  0  0  0  0
 30 29  1  0  0  0  0
 31 30  1  0  0  0  0
 32 33  1  0  0  0  0
 32 30  1  0  0  0  0
M  END
>  <minimizedAffinity>
-5.33275032

$$$$

 OpenBabel03272503073D

 33 35  0  0  0  0  0  0  0  0999 V2000
   37.3390   28.3300   35.4600 F   0  0  0  0  0  0  0  0  0  0  0  0
   36.8500   27.9980   34.2480 C   0  0  0  0  0  0  0  0  0  0  0  0
   37.1580   26.7740   33.6990 C   0  0  0  0  0  0  0  0  0  0  0  0
   36.6310   26.4890   32.4630 C   0  0  0  0  0  0  0  0  0  0  0  0
   35.8250   27.3750   31.7790 C   0  0  0  0  0  0  0  0  0  0  0  0
   35.5290   28.5900   32.3430 C   0  0  0  0  0  0  0  0  0  0  0  0
   36.0450   28.9050   33.5880 C   0  0  0  0  0  0  0  0  0  0  0  0
   36.8830   25.5220   32.0470 H   0  0  0  0  0  0  0  0  0  0  0  0
   35.4300   27.1100   30.8050 H   0  0  0  0  0  0  0  0  0  0  0  0
   34.8970   29.3030   31.8220 H   0  0  0  0  0  0  0  0  0  0  0  0
   40.1230   24.7220   34.8620 C   0  0  0  0  0  0  0  0  0  0  0  0
   39.3260   25.5870   34.0980 C   0  0  0  0  0  0  0  0  0  0  0  0
   38.0140   25.8790   34.4690 C   0  0  0  0  0  0  0  0  0  0  0  0
   37.5520   25.2790   35.6120 N   0  0  0  0  0  0  0  0  0  0  0  0
   38.3370   24.4480   36.3340 C   0  0  0  0  0  0  0  0  0  0  0  0
   39.5900   24.1780   35.9650 N   0  0  0  0  0  0  0  0  0  0  0  0
   41.1170   24.5870   34.4560 H   0  0  0  0  0  0  0  0  0  0  0  0
   39.6530   26.0850   33.1840 H   0  0  0  0  0  0  0  0  0  0  0  0
   37.9140   24.0020   37.2310 H   0  0  0  0  0  0  0  0  0  0  0  0
   34.4840   30.2390   34.8480 C   0  0  0  0  0  0  0  0  0  0  0  0
   33.7760   29.1860   34.7240 O   0  0  0  0  0  0  0  0  0  0  0  0
   35.7660   30.1650   34.2220 N   0  0  0  0  0  0  0  0  0  0  0  0
   36.4370   30.9620   34.2270 H   0  0  0  0  0  0  0  0  0  0  0  0
   34.1660   31.5130   35.5430 C   0  0  0  0  0  3  0  0  0  0  0  0
   35.3630   32.1340   36.1980 C   0  0  0  0  0  3  0  0  0  0  0  0
   36.2120   32.1720   35.5140 H   0  0  0  0  0  0  0  0  0  0  0  0
   34.8990   33.5170   36.6650 C   0  0  0  0  0  3  0  0  0  0  0  0
   34.2670   33.9370   35.8320 H   0  0  0  0  0  0  0  0  0  0  0  0
   33.9980   33.2900   37.7040 O   0  0  0  0  0  0  0  0  0  0  0  0
   32.8530   32.6940   37.2220 C   0  0  0  0  0  3  0  0  0  0  0  0
   32.4180   33.3090   36.3840 H   0  0  0  0  0  0  0  0  0  0  0  0
   33.1420   31.3140   36.6620 C   0  0  0  0  0  3  0  0  0  0  0  0
   33.5950   30.7130   37.5020 H   0  0  0  0  0  0  0  0  0  0  0  0
  2  1  1  0  0  0  0
  3  2  1  0  0  0  0
  3 13  1  0  0  0  0
  4  3  2  0  0  0  0
  5  6  2  0  0  0  0
  5  4  1  0  0  0  0
  6  7  1  0  0  0  0
  7 22  1  0  0  0  0
  7  2  2  0  0  0  0
  8  4  1  0  0  0  0
  9  5  1  0  0  0  0
 10  6  1  0  0  0  0
 11 16  1  0  0  0  0
 12 13  1  0  0  0  0
 12 11  2  0  0  0  0
 13 14  2  0  0  0  0
 14 15  1  0  0  0  0
 15 19  1  0  0  0  0
 16 15  2  0  0  0  0
 17 11  1  0  0  0  0
 18 12  1  0  0  0  0
 20 24  1  0  0  0  0
 21 20  2  0  0  0  0
 22 23  1  0  0  0  0
 22 20  1  0  0  0  0
 24 25  1  0  0  0  0
 24 32  1  0  0  0  0
 25 27  1  0  0  0  0
 26 25  1  0  0  0  0
 27 29  1  0  0  0  0
 28 27  1  0  0  0  0
 30 29  1  0  0  0  0
 31 30  1  0  0  0  0
 32 30  1  0  0  0  0
 32 33  1  0  0  0  0
M  END
>  <minimizedAffinity>
-5.26301908

$$$$

 OpenBabel03272503073D

 33 35  0  0  0  0  0  0  0  0999 V2000
   36.0760   27.7080   35.0760 F   0  0  0  0  0  0  0  0  0  0  0  0
   36.2500   28.2150   33.8400 C   0  0  0  0  0  0  0  0  0  0  0  0
   35.8250   29.4930   33.5590 C   0  0  0  0  0  0  0  0  0  0  0  0
   36.0280   29.9580   32.2820 C   0  0  0  0  0  0  0  0  0  0  0  0
   36.6300   29.1950   31.3040 C   0  0  0  0  0  0  0  0  0  0  0  0
   37.0470   27.9230   31.6020 C   0  0  0  0  0  0  0  0  0  0  0  0
   36.8550   27.4280   32.8810 C   0  0  0  0  0  0  0  0  0  0  0  0
   35.6890   30.9660   32.0800 H   0  0  0  0  0  0  0  0  0  0  0  0
   36.7720   29.6010   30.3080 H   0  0  0  0  0  0  0  0  0  0  0  0
   37.5230   27.3040   30.8470 H   0  0  0  0  0  0  0  0  0  0  0  0
   35.2740   31.8290   36.4920 C   0  0  0  0  0  0  0  0  0  0  0  0
   35.9110   31.1120   35.4680 C   0  0  0  0  0  0  0  0  0  0  0  0
   35.1960   30.2530   34.6340 C   0  0  0  0  0  0  0  0  0  0  0  0
   33.8500   30.1490   34.8700 N   0  0  0  0  0  0  0  0  0  0  0  0
   33.2560   30.8480   35.8630 C   0  0  0  0  0  0  0  0  0  0  0  0
   33.9540   31.6660   36.6520 N   0  0  0  0  0  0  0  0  0  0  0  0
   35.9510   32.4550   37.0590 H   0  0  0  0  0  0  0  0  0  0  0  0
   36.9770   31.1650   35.2460 H   0  0  0  0  0  0  0  0  0  0  0  0
   32.1840   30.7240   36.0000 H   0  0  0  0  0  0  0  0  0  0  0  0
   38.5740   26.0320   33.8320 C   0  0  0  0  0  0  0  0  0  0  0  0
   39.1730   27.1540   33.9180 O   0  0  0  0  0  0  0  0  0  0  0  0
   37.2730   26.1000   33.2440 N   0  0  0  0  0  0  0  0  0  0  0  0
   36.6830   25.2560   33.0950 H   0  0  0  0  0  0  0  0  0  0  0  0
   39.0330   24.6830   34.2520 C   0  0  0  0  0  3  0  0  0  0  0  0
   38.1460   23.5830   33.7490 C   0  0  0  0  0  3  0  0  0  0  0  0
   37.9400   23.6970   32.6850 H   0  0  0  0  0  0  0  0  0  0  0  0
   38.8820   22.2830   34.0880 C   0  0  0  0  0  3  0  0  0  0  0  0
   39.9680   22.4620   33.8500 H   0  0  0  0  0  0  0  0  0  0  0  0
   38.8430   22.1680   35.4760 O   0  0  0  0  0  0  0  0  0  0  0  0
   39.6120   23.1530   36.0580 C   0  0  0  0  0  3  0  0  0  0  0  0
   40.6590   23.1260   35.6390 H   0  0  0  0  0  0  0  0  0  0  0  0
   39.0510   24.5320   35.7750 C   0  0  0  0  0  3  0  0  0  0  0  0
   37.9980   24.5420   36.1790 H   0  0  0  0  0  0  0  0  0  0  0  0
  2  1  1  0  0  0  0
  3  2  1  0  0  0  0
  3 13  1  0  0  0  0
  4  3  2  0  0  0  0
  5  6  2  0  0  0  0
  5  4  1  0  0  0  0
  6  7  1  0  0  0  0
  7 22  1  0  0  0  0
  7  2  2  0  0  0  0
  8  4  1  0  0  0  0
  9  5  1  0  0  0  0
 10  6  1  0  0  0  0
 11 16  1  0  0  0  0
 11 17  1  0  0  0  0
 12 11  2  0  0  0  0
 13 14  2  0  0  0  0
 13 12  1  0  0  0  0
 14 15  1  0  0  0  0
 15 19  1  0  0  0  0
 15 16  2  0  0  0  0
 18 12  1  0  0  0  0
 20 21  2  0  0  0  0
 20 24  1  0  0  0  0
 22 20  1  0  0  0  0
 23 22  1  0  0  0  0
 24 32  1  0  0  0  0
 25 27  1  0  0  0  0
 25 24  1  0  0  0  0
 26 25  1  0  0  0  0
 27 29  1  0  0  0  0
 28 27  1  0  0  0  0
 29 30  1  0  0  0  0
 31 30  1  0  0  0  0
 32 30  1  0  0  0  0
 32 33  1  0  0  0  0
M  END
>  <minimizedAffinity>
-5.19352388

$$$$

 OpenBabel03272503073D

 33 35  0  0  0  0  0  0  0  0999 V2000
   35.2180   26.2090   31.5960 F   0  0  0  0  0  0  0  0  0  0  0  0
   36.5410   26.4280   31.4680 C   0  0  0  0  0  0  0  0  0  0  0  0
   37.0700   27.6470   31.8260 C   0  0  0  0  0  0  0  0  0  0  0  0
   38.4260   27.8140   31.6740 C   0  0  0  0  0  0  0  0  0  0  0  0
   39.2440   26.8180   31.1850 C   0  0  0  0  0  0  0  0  0  0  0  0
   38.6980   25.6100   30.8330 C   0  0  0  0  0  0  0  0  0  0  0  0
   37.3360   25.4120   30.9750 C   0  0  0  0  0  0  0  0  0  0  0  0
   38.8240   28.7780   31.9630 H   0  0  0  0  0  0  0  0  0  0  0  0
   40.3090   26.9910   31.0810 H   0  0  0  0  0  0  0  0  0  0  0  0
   39.3250   24.8110   30.4450 H   0  0  0  0  0  0  0  0  0  0  0  0
   35.0150   29.8150   34.1570 C   0  0  0  0  0  0  0  0  0  0  0  0
   35.8990   28.8280   33.6990 C   0  0  0  0  0  0  0  0  0  0  0  0
   36.1560   28.6610   32.3380 C   0  0  0  0  0  0  0  0  0  0  0  0
   35.5020   29.5100   31.4830 N   0  0  0  0  0  0  0  0  0  0  0  0
   34.6520   30.4540   31.9460 C   0  0  0  0  0  0  0  0  0  0  0  0
   34.4180   30.6000   33.2510 N   0  0  0  0  0  0  0  0  0  0  0  0
   34.9120   29.8290   35.2350 H   0  0  0  0  0  0  0  0  0  0  0  0
   36.4410   28.1330   34.3430 H   0  0  0  0  0  0  0  0  0  0  0  0
   34.1620   31.0970   31.2180 H   0  0  0  0  0  0  0  0  0  0  0  0
   36.6940   23.1960   31.6690 C   0  0  0  0  0  0  0  0  0  0  0  0
   37.2540   23.5780   32.7490 O   0  0  0  0  0  0  0  0  0  0  0  0
   36.7140   24.1650   30.6190 N   0  0  0  0  0  0  0  0  0  0  0  0
   36.3120   23.9760   29.6780 H   0  0  0  0  0  0  0  0  0  0  0  0
   36.0330   21.9020   31.3550 C   0  0  0  0  0  3  0  0  0  0  0  0
   35.3380   21.3020   32.5410 C   0  0  0  0  0  3  0  0  0  0  0  0
   34.7110   22.0370   33.0450 H   0  0  0  0  0  0  0  0  0  0  0  0
   34.5480   20.1120   31.9870 C   0  0  0  0  0  3  0  0  0  0  0  0
   34.0930   20.4580   31.0160 H   0  0  0  0  0  0  0  0  0  0  0  0
   35.4960   19.1630   31.6080 O   0  0  0  0  0  0  0  0  0  0  0  0
   36.2220   19.6180   30.5290 C   0  0  0  0  0  3  0  0  0  0  0  0
   35.5290   19.9130   29.6900 H   0  0  0  0  0  0  0  0  0  0  0  0
   37.0360   20.8460   30.8890 C   0  0  0  0  0  3  0  0  0  0  0  0
   37.7120   20.5470   31.7410 H   0  0  0  0  0  0  0  0  0  0  0  0
  2  1  1  0  0  0  0
  2  3  1  0  0  0  0
  3 13  1  0  0  0  0
  4  3  2  0  0  0  0
  4  8  1  0  0  0  0
  5  4  1  0  0  0  0
  6  7  1  0  0  0  0
  6  5  2  0  0  0  0
  7  2  2  0  0  0  0
  9  5  1  0  0  0  0
 10  6  1  0  0  0  0
 11 17  1  0  0  0  0
 12 11  1  0  0  0  0
 12 18  1  0  0  0  0
 13 12  2  0  0  0  0
 14 15  2  0  0  0  0
 14 13  1  0  0  0  0
 15 16  1  0  0  0  0
 16 11  2  0  0  0  0
 19 15  1  0  0  0  0
 20 21  2  0  0  0  0
 22  7  1  0  0  0  0
 22 20  1  0  0  0  0
 23 22  1  0  0  0  0
 24 20  1  0  0  0  0
 24 25  1  0  0  0  0
 25 26  1  0  0  0  0
 27 25  1  0  0  0  0
 28 27  1  0  0  0  0
 29 27  1  0  0  0  0
 30 32  1  0  0  0  0
 30 29  1  0  0  0  0
 31 30  1  0  0  0  0
 32 24  1  0  0  0  0
 32 33  1  0  0  0  0
M  END
>  <minimizedAffinity>
-5.18704891

$$$$

 OpenBabel03272503073D

 33 35  0  0  0  0  0  0  0  0999 V2000
   35.8860   27.7660   33.6260 F   0  0  0  0  0  0  0  0  0  0  0  0
   36.1720   28.3590   32.4510 C   0  0  0  0  0  0  0  0  0  0  0  0
   36.5210   27.5900   31.3640 C   0  0  0  0  0  0  0  0  0  0  0  0
   36.8020   28.2490   30.1910 C   0  0  0  0  0  0  0  0  0  0  0  0
   36.7440   29.6220   30.0820 C   0  0  0  0  0  0  0  0  0  0  0  0
   36.3950   30.3720   31.1750 C   0  0  0  0  0  0  0  0  0  0  0  0
   36.1060   29.7360   32.3710 C   0  0  0  0  0  0  0  0  0  0  0  0
   37.0740   27.6280   29.3470 H   0  0  0  0  0  0  0  0  0  0  0  0
   36.9730   30.1020   29.1370 H   0  0  0  0  0  0  0  0  0  0  0  0
   36.3430   31.4550   31.1110 H   0  0  0  0  0  0  0  0  0  0  0  0
   35.6130   23.9120   31.3010 C   0  0  0  0  0  0  0  0  0  0  0  0
   35.5380   25.3010   31.1170 C   0  0  0  0  0  0  0  0  0  0  0  0
   36.5650   26.1430   31.5410 C   0  0  0  0  0  0  0  0  0  0  0  0
   37.6410   25.5430   32.1410 N   0  0  0  0  0  0  0  0  0  0  0  0
   37.6930   24.2030   32.3090 C   0  0  0  0  0  0  0  0  0  0  0  0
   36.7020   23.4110   31.8980 N   0  0  0  0  0  0  0  0  0  0  0  0
   34.7460   23.3840   30.9240 H   0  0  0  0  0  0  0  0  0  0  0  0
   34.7020   25.8190   30.6450 H   0  0  0  0  0  0  0  0  0  0  0  0
   38.5740   23.7850   32.7930 H   0  0  0  0  0  0  0  0  0  0  0  0
   34.3270   30.6590   33.7090 C   0  0  0  0  0  0  0  0  0  0  0  0
   33.6200   30.1630   32.7700 O   0  0  0  0  0  0  0  0  0  0  0  0
   35.7350   30.4760   33.5470 N   0  0  0  0  0  0  0  0  0  0  0  0
   36.4280   30.8500   34.2280 H   0  0  0  0  0  0  0  0  0  0  0  0
   33.8970   31.3920   34.9270 C   0  0  0  0  0  3  0  0  0  0  0  0
   34.9900   31.5200   35.9450 C   0  0  0  0  0  3  0  0  0  0  0  0
   35.9150   31.8740   35.4890 H   0  0  0  0  0  0  0  0  0  0  0  0
   34.4400   32.4720   37.0130 C   0  0  0  0  0  3  0  0  0  0  0  0
   33.9060   33.2950   36.4590 H   0  0  0  0  0  0  0  0  0  0  0  0
   33.4240   31.7740   37.6640 O   0  0  0  0  0  0  0  0  0  0  0  0
   32.3610   31.5730   36.8100 C   0  0  0  0  0  3  0  0  0  0  0  0
   32.0180   32.5560   36.3780 H   0  0  0  0  0  0  0  0  0  0  0  0
   32.7480   30.6810   35.6460 C   0  0  0  0  0  3  0  0  0  0  0  0
   33.1080   29.7090   36.0900 H   0  0  0  0  0  0  0  0  0  0  0  0
  2  1  1  0  0  0  0
  3 13  1  0  0  0  0
  3  2  2  0  0  0  0
  4  3  1  0  0  0  0
  5  4  2  0  0  0  0
  5  6  1  0  0  0  0
  6  7  2  0  0  0  0
  7  2  1  0  0  0  0
  7 22  1  0  0  0  0
  8  4  1  0  0  0  0
  9  5  1  0  0  0  0
 10  6  1  0  0  0  0
 11 16  1  0  0  0  0
 12 11  2  0  0  0  0
 12 13  1  0  0  0  0
 13 14  2  0  0  0  0
 14 15  1  0  0  0  0
 15 19  1  0  0  0  0
 16 15  2  0  0  0  0
 17 11  1  0  0  0  0
 18 12  1  0  0  0  0
 20 24  1  0  0  0  0
 21 20  2  0  0  0  0
 22 20  1  0  0  0  0
 22 23  1  0  0  0  0
 24 32  1  0  0  0  0
 24 25  1  0  0  0  0
 25 27  1  0  0  0  0
 26 25  1  0  0  0  0
 27 29  1  0  0  0  0
 28 27  1  0  0  0  0
 30 29  1  0  0  0  0
 31 30  1  0  0  0  0
 32 33  1  0  0  0  0
 32 30  1  0  0  0  0
M  END
>  <minimizedAffinity>
-5.07296371

$$$$

 OpenBabel03272503073D

 33 35  0  0  0  0  0  0  0  0999 V2000
   35.3000   23.8790   31.7880 F   0  0  0  0  0  0  0  0  0  0  0  0
   36.5630   23.7820   31.3260 C   0  0  0  0  0  0  0  0  0  0  0  0
   37.2130   22.5700   31.3650 C   0  0  0  0  0  0  0  0  0  0  0  0
   38.4980   22.5300   30.8810 C   0  0  0  0  0  0  0  0  0  0  0  0
   39.1320   23.6440   30.3710 C   0  0  0  0  0  0  0  0  0  0  0  0
   38.4670   24.8430   30.3400 C   0  0  0  0  0  0  0  0  0  0  0  0
   37.1710   24.9140   30.8220 C   0  0  0  0  0  0  0  0  0  0  0  0
   38.9940   21.5690   30.9180 H   0  0  0  0  0  0  0  0  0  0  0  0
   40.1480   23.5690   29.9980 H   0  0  0  0  0  0  0  0  0  0  0  0
   38.9480   25.7330   29.9440 H   0  0  0  0  0  0  0  0  0  0  0  0
   35.2720   19.3310   31.6770 C   0  0  0  0  0  0  0  0  0  0  0  0
   35.9590   20.4170   31.1150 C   0  0  0  0  0  0  0  0  0  0  0  0
   36.4920   21.4270   31.9150 C   0  0  0  0  0  0  0  0  0  0  0  0
   36.3090   21.3000   33.2670 N   0  0  0  0  0  0  0  0  0  0  0  0
   35.6420   20.2450   33.7880 C   0  0  0  0  0  0  0  0  0  0  0  0
   35.1380   19.2870   33.0090 N   0  0  0  0  0  0  0  0  0  0  0  0
   34.9130   18.6250   30.9380 H   0  0  0  0  0  0  0  0  0  0  0  0
   36.1280   20.5580   30.0470 H   0  0  0  0  0  0  0  0  0  0  0  0
   35.5290   20.2000   34.8690 H   0  0  0  0  0  0  0  0  0  0  0  0
   36.5640   26.9230   32.0060 C   0  0  0  0  0  0  0  0  0  0  0  0
   37.2960   26.3880   32.9030 O   0  0  0  0  0  0  0  0  0  0  0  0
   36.4310   26.1470   30.8130 N   0  0  0  0  0  0  0  0  0  0  0  0
   35.8450   26.4540   30.0090 H   0  0  0  0  0  0  0  0  0  0  0  0
   35.8410   28.2200   32.0280 C   0  0  0  0  0  3  0  0  0  0  0  0
   36.3910   29.2100   31.0450 C   0  0  0  0  0  3  0  0  0  0  0  0
   36.5160   28.7600   30.0600 H   0  0  0  0  0  0  0  0  0  0  0  0
   35.4050   30.3820   31.0550 C   0  0  0  0  0  3  0  0  0  0  0  0
   34.3740   29.9290   31.0810 H   0  0  0  0  0  0  0  0  0  0  0  0
   35.5470   30.9950   32.2990 O   0  0  0  0  0  0  0  0  0  0  0  0
   35.0910   30.1600   33.2970 C   0  0  0  0  0  3  0  0  0  0  0  0
   34.0330   29.8370   33.0800 H   0  0  0  0  0  0  0  0  0  0  0  0
   35.9340   28.9030   33.3940 C   0  0  0  0  0  3  0  0  0  0  0  0
   36.9920   29.2380   33.5920 H   0  0  0  0  0  0  0  0  0  0  0  0
  2  3  1  0  0  0  0
  2  1  1  0  0  0  0
  3 13  1  0  0  0  0
  4  8  1  0  0  0  0
  4  3  2  0  0  0  0
  5  4  1  0  0  0  0
  6  5  2  0  0  0  0
  6  7  1  0  0  0  0
  7  2  2  0  0  0  0
  9  5  1  0  0  0  0
 10  6  1  0  0  0  0
 11 16  1  0  0  0  0
 12 11  2  0  0  0  0
 12 13  1  0  0  0  0
 13 14  2  0  0  0  0
 14 15  1  0  0  0  0
 15 19  1  0  0  0  0
 16 15  2  0  0  0  0
 17 11  1  0  0  0  0
 18 12  1  0  0  0  0
 20 24  1  0  0  0  0
 20 21  2  0  0  0  0
 22  7  1  0  0  0  0
 22 20  1  0  0  0  0
 23 22  1  0  0  0  0
 24 32  1  0  0  0  0
 25 27  1  0  0  0  0
 25 24  1  0  0  0  0
 26 25  1  0  0  0  0
 27 28  1  0  0  0  0
 27 29  1  0  0  0  0
 29 30  1  0  0  0  0
 30 32  1  0  0  0  0
 31 30  1  0  0  0  0
 32 33  1  0  0  0  0
M  END
>  <minimizedAffinity>
-5.06162214

$$$$

 OpenBabel03272503073D

 33 35  0  0  0  0  0  0  0  0999 V2000
   37.9750   25.1700   30.0860 F   0  0  0  0  0  0  0  0  0  0  0  0
   37.8290   25.7430   31.2980 C   0  0  0  0  0  0  0  0  0  0  0  0
   38.0680   27.0890   31.4510 C   0  0  0  0  0  0  0  0  0  0  0  0
   37.9030   27.6190   32.7080 C   0  0  0  0  0  0  0  0  0  0  0  0
   37.5160   26.8550   33.7870 C   0  0  0  0  0  0  0  0  0  0  0  0
   37.2820   25.5140   33.6160 C   0  0  0  0  0  0  0  0  0  0  0  0
   37.4400   24.9520   32.3600 C   0  0  0  0  0  0  0  0  0  0  0  0
   38.0950   28.6800   32.8090 H   0  0  0  0  0  0  0  0  0  0  0  0
   37.3970   27.3130   34.7640 H   0  0  0  0  0  0  0  0  0  0  0  0
   36.9760   24.8930   34.4530 H   0  0  0  0  0  0  0  0  0  0  0  0
   37.9890   29.2270   28.3230 C   0  0  0  0  0  0  0  0  0  0  0  0
   37.5640   28.5060   29.4480 C   0  0  0  0  0  0  0  0  0  0  0  0
   38.4750   27.8460   30.2720 C   0  0  0  0  0  0  0  0  0  0  0  0
   39.7970   27.9420   29.9230 N   0  0  0  0  0  0  0  0  0  0  0  0
   40.1860   28.6410   28.8330 C   0  0  0  0  0  0  0  0  0  0  0  0
   39.3010   29.2660   28.0550 N   0  0  0  0  0  0  0  0  0  0  0  0
   37.1750   29.6860   27.7770 H   0  0  0  0  0  0  0  0  0  0  0  0
   36.5240   28.4050   29.7620 H   0  0  0  0  0  0  0  0  0  0  0  0
   41.2490   28.6800   28.6080 H   0  0  0  0  0  0  0  0  0  0  0  0
   35.9040   23.2450   31.6320 C   0  0  0  0  0  0  0  0  0  0  0  0
   35.1380   24.2560   31.5000 O   0  0  0  0  0  0  0  0  0  0  0  0
   37.2080   23.5520   32.1280 N   0  0  0  0  0  0  0  0  0  0  0  0
   37.9260   22.8190   32.3030 H   0  0  0  0  0  0  0  0  0  0  0  0
   35.6310   21.8120   31.3480 C   0  0  0  0  0  3  0  0  0  0  0  0
   35.1210   21.0680   32.5450 C   0  0  0  0  0  3  0  0  0  0  0  0
   34.3110   21.6110   33.0330 H   0  0  0  0  0  0  0  0  0  0  0  0
   34.6980   19.6930   32.0180 C   0  0  0  0  0  3  0  0  0  0  0  0
   34.1710   19.8780   31.0390 H   0  0  0  0  0  0  0  0  0  0  0  0
   35.8750   19.0380   31.6630 O   0  0  0  0  0  0  0  0  0  0  0  0
   36.4540   19.6530   30.5740 C   0  0  0  0  0  3  0  0  0  0  0  0
   35.7120   19.7250   29.7280 H   0  0  0  0  0  0  0  0  0  0  0  0
   36.8920   21.0660   30.9070 C   0  0  0  0  0  3  0  0  0  0  0  0
   37.6180   20.9860   31.7670 H   0  0  0  0  0  0  0  0  0  0  0  0
  1  2  1  0  0  0  0
  2  3  2  0  0  0  0
  2  7  1  0  0  0  0
  3  4  1  0  0  0  0
  4  8  1  0  0  0  0
  4  5  2  0  0  0  0
  5  9  1  0  0  0  0
  6  5  1  0  0  0  0
  6 10  1  0  0  0  0
  7  6  2  0  0  0  0
 11 12  1  0  0  0  0
 12 18  1  0  0  0  0
 12 13  2  0  0  0  0
 13  3  1  0  0  0  0
 14 13  1  0  0  0  0
 15 14  2  0  0  0  0
 16 11  2  0  0  0  0
 16 15  1  0  0  0  0
 17 11  1  0  0  0  0
 19 15  1  0  0  0  0
 20 22  1  0  0  0  0
 21 20  2  0  0  0  0
 22 23  1  0  0  0  0
 22  7  1  0  0  0  0
 24 20  1  0  0  0  0
 24 25  1  0  0  0  0
 25 26  1  0  0  0  0
 27 25  1  0  0  0  0
 28 27  1  0  0  0  0
 29 27  1  0  0  0  0
 30 32  1  0  0  0  0
 30 29  1  0  0  0  0
 31 30  1  0  0  0  0
 32 24  1  0  0  0  0
 32 33  1  0  0  0  0
M  END
>  <minimizedAffinity>
-4.99218321

$$$$
