
 OpenBabel03272508573D

 41 44  0  0  1  0  0  0  0  0999 V2000
   39.1360   31.4700   43.3090 C   0  0  0  0  0  0  0  0  0  0  0  0
   40.1310   30.5320   43.4560 C   0  0  0  0  0  0  0  0  0  0  0  0
   40.8580   30.1840   42.3250 C   0  0  0  0  0  0  0  0  0  0  0  0
   40.5330   30.8050   41.1320 C   0  0  0  0  0  0  0  0  0  0  0  0
   39.5250   31.7530   40.9900 C   0  0  0  0  0  0  0  0  0  0  0  0
   38.8470   32.0570   42.1140 N   0  0  0  0  0  0  0  0  0  0  0  0
   40.3740   30.0550   44.3950 H   0  0  0  0  0  0  0  0  0  0  0  0
   41.6410   29.4580   42.3960 H   0  0  0  0  0  0  0  0  0  0  0  0
   41.0810   30.5560   40.2320 H   0  0  0  0  0  0  0  0  0  0  0  0
   38.3500   31.8750   44.4930 C   0  0  0  0  0  0  0  0  0  0  0  0
   37.2640   32.4550   44.4010 O   0  0  0  0  0  0  0  0  0  0  0  0
   38.9220   31.5540   45.7940 N   0  0  0  0  0  0  0  0  0  0  0  0
   39.8940   31.2470   45.9510 H   0  0  0  0  0  0  0  0  0  0  0  0
   38.4250   31.0700   48.1820 C   0  0  2  0  0  0  0  0  0  0  0  0
   38.6770   32.5320   48.0900 C   0  0  0  0  0  0  0  0  0  0  0  0
   38.0560   31.6800   46.9480 C   0  0  1  0  0  0  0  0  0  0  0  0
   39.3550   30.4670   48.2730 H   0  0  0  0  0  0  0  0  0  0  0  0
   38.0160   33.2490   48.6030 H   0  0  0  0  0  0  0  0  0  0  0  0
   39.6950   32.8980   47.9480 H   0  0  0  0  0  0  0  0  0  0  0  0
   36.9880   31.9410   46.7550 H   0  0  0  0  0  0  0  0  0  0  0  0
   35.0650   30.2340   49.5220 C   0  0  0  0  0  0  0  0  0  0  0  0
   35.3950   29.5520   50.7390 C   0  0  0  0  0  0  0  0  0  0  0  0
   36.7810   29.4040   51.0720 C   0  0  0  0  0  0  0  0  0  0  0  0
   37.7410   29.9110   50.2300 N   0  0  0  0  0  0  0  0  0  0  0  0
   37.3470   30.5440   49.0970 C   0  0  0  0  0  0  0  0  0  0  0  0
   36.0240   30.7250   48.7100 N   0  0  0  0  0  0  0  0  0  0  0  0
   34.0060   30.3190   49.3170 H   0  0  0  0  0  0  0  0  0  0  0  0
   34.6340   29.1590   51.3910 H   0  0  0  0  0  0  0  0  0  0  0  0
   37.0410   28.8920   51.9870 H   0  0  0  0  0  0  0  0  0  0  0  0
   39.2380   32.3630   39.6980 C   0  0  0  0  0  0  0  0  0  0  0  0
   38.4480   33.3350   39.6580 O   0  0  0  0  0  0  0  0  0  0  0  0
   39.7850   31.9570   38.4050 C   0  0  0  0  0  3  0  0  0  0  0  0
   40.0150   33.2420   37.6000 C   0  0  0  0  0  3  0  0  0  0  0  0
   40.6380   33.8780   38.2550 H   0  0  0  0  0  0  0  0  0  0  0  0
   40.6540   32.9320   36.2800 C   0  0  0  0  0  3  0  0  0  0  0  0
   41.7080   32.6160   36.4060 H   0  0  0  0  0  0  0  0  0  0  0  0
   39.8710   32.0180   35.6040 O   0  0  0  0  0  0  0  0  0  0  0  0
   39.7020   30.8230   36.2770 C   0  0  0  0  0  3  0  0  0  0  0  0
   40.7370   30.5250   36.6120 H   0  0  0  0  0  0  0  0  0  0  0  0
   38.9220   31.0680   37.5760 C   0  0  0  0  0  3  0  0  0  0  0  0
   37.9510   31.4870   37.3020 H   0  0  0  0  0  0  0  0  0  0  0  0
  1  2  1  0  0  0  0
  1 10  1  0  0  0  0
  2  7  1  0  0  0  0
  3  8  1  0  0  0  0
  3  2  2  0  0  0  0
  4  3  1  0  0  0  0
  5  4  2  0  0  0  0
  5  6  1  0  0  0  0
  6  1  2  0  0  0  0
  9  4  1  0  0  0  0
 10 12  1  0  0  0  0
 11 10  2  0  0  0  0
 12 13  1  0  0  0  0
 12 16  1  0  0  0  0
 14 17  1  6  0  0  0
 14 25  1  0  0  0  0
 15 14  1  0  0  0  0
 15 18  1  0  0  0  0
 16 20  1  6  0  0  0
 16 15  1  0  0  0  0
 16 14  1  0  0  0  0
 19 15  1  0  0  0  0
 21 22  1  0  0  0  0
 22 23  2  0  0  0  0
 22 28  1  0  0  0  0
 23 29  1  0  0  0  0
 24 23  1  0  0  0  0
 25 24  2  0  0  0  0
 26 25  1  0  0  0  0
 26 21  2  0  0  0  0
 27 21  1  0  0  0  0
 30  5  1  0  0  0  0
 31 30  2  0  0  0  0
 32 30  1  0  0  0  0
 33 34  1  0  0  0  0
 33 32  1  0  0  0  0
 35 36  1  0  0  0  0
 35 33  1  0  0  0  0
 37 38  1  0  0  0  0
 37 35  1  0  0  0  0
 38 39  1  0  0  0  0
 38 40  1  0  0  0  0
 40 32  1  0  0  0  0
 41 40  1  0  0  0  0
M  END
>  <minimizedAffinity>
-4.90950537

>  <minimizedRMSD>
0.523712277

$$$$
