
 OpenBabel03272503063D

 33 35  0  0  0  0  0  0  0  0999 V2000
   38.1000   30.1510   47.3910 F   0  0  0  0  0  0  0  0  0  0  0  0
   38.4740   31.3770   47.8100 C   0  0  0  0  0  0  0  0  0  0  0  0
   38.0390   31.8450   49.0280 C   0  0  0  0  0  0  0  0  0  0  0  0
   38.4520   33.1000   49.4050 C   0  0  0  0  0  0  0  0  0  0  0  0
   39.2690   33.8780   48.6130 C   0  0  0  0  0  0  0  0  0  0  0  0
   39.6940   33.3940   47.4010 C   0  0  0  0  0  0  0  0  0  0  0  0
   39.2930   32.1330   46.9960 C   0  0  0  0  0  0  0  0  0  0  0  0
   38.1010   33.4510   50.3670 H   0  0  0  0  0  0  0  0  0  0  0  0
   39.5730   34.8640   48.9470 H   0  0  0  0  0  0  0  0  0  0  0  0
   40.3380   33.9910   46.7610 H   0  0  0  0  0  0  0  0  0  0  0  0
   36.7510   29.5270   51.7350 C   0  0  0  0  0  0  0  0  0  0  0  0
   37.6070   30.3550   50.9950 C   0  0  0  0  0  0  0  0  0  0  0  0
   37.1770   30.9760   49.8230 C   0  0  0  0  0  0  0  0  0  0  0  0
   35.8830   30.7340   49.4400 N   0  0  0  0  0  0  0  0  0  0  0  0
   35.0750   29.9310   50.1680 C   0  0  0  0  0  0  0  0  0  0  0  0
   35.5020   29.3450   51.2870 N   0  0  0  0  0  0  0  0  0  0  0  0
   37.2180   29.1130   52.6200 H   0  0  0  0  0  0  0  0  0  0  0  0
   38.6410   30.5750   51.2630 H   0  0  0  0  0  0  0  0  0  0  0  0
   34.0590   29.7780   49.8130 H   0  0  0  0  0  0  0  0  0  0  0  0
   38.7960   31.8120   44.6600 C   0  0  0  0  0  0  0  0  0  0  0  0
   37.7420   32.4480   44.9920 O   0  0  0  0  0  0  0  0  0  0  0  0
   39.7090   31.5800   45.7350 N   0  0  0  0  0  0  0  0  0  0  0  0
   40.5980   31.0540   45.6080 H   0  0  0  0  0  0  0  0  0  0  0  0
   39.2010   31.2850   43.3310 C   0  0  0  0  0  3  0  0  0  0  0  0
   40.5650   30.6600   43.3440 C   0  0  0  0  0  3  0  0  0  0  0  0
   40.6720   29.9640   44.1760 H   0  0  0  0  0  0  0  0  0  0  0  0
   40.7170   29.9940   41.9730 C   0  0  0  0  0  3  0  0  0  0  0  0
   39.7290   29.5020   41.7480 H   0  0  0  0  0  0  0  0  0  0  0  0
   40.8070   31.0330   41.0470 O   0  0  0  0  0  0  0  0  0  0  0  0
   39.6070   31.7030   40.9640 C   0  0  0  0  0  3  0  0  0  0  0  0
   38.7720   30.9800   40.7400 H   0  0  0  0  0  0  0  0  0  0  0  0
   39.2670   32.3900   42.2740 C   0  0  0  0  0  3  0  0  0  0  0  0
   40.1160   33.0960   42.5000 H   0  0  0  0  0  0  0  0  0  0  0  0
  1  2  1  0  0  0  0
  2  3  1  0  0  0  0
  3  4  2  0  0  0  0
  3 13  1  0  0  0  0
  4  8  1  0  0  0  0
  5  9  1  0  0  0  0
  5  4  1  0  0  0  0
  6  5  2  0  0  0  0
  7  6  1  0  0  0  0
  7  2  2  0  0  0  0
 10  6  1  0  0  0  0
 11 17  1  0  0  0  0
 12 18  1  0  0  0  0
 12 11  2  0  0  0  0
 13 12  1  0  0  0  0
 14 13  2  0  0  0  0
 14 15  1  0  0  0  0
 15 16  2  0  0  0  0
 16 11  1  0  0  0  0
 19 15  1  0  0  0  0
 20 21  2  0  0  0  0
 20 22  1  0  0  0  0
 22  7  1  0  0  0  0
 23 22  1  0  0  0  0
 24 25  1  0  0  0  0
 24 20  1  0  0  0  0
 25 26  1  0  0  0  0
 27 25  1  0  0  0  0
 28 27  1  0  0  0  0
 29 27  1  0  0  0  0
 30 29  1  0  0  0  0
 30 32  1  0  0  0  0
 31 30  1  0  0  0  0
 32 33  1  0  0  0  0
 32 24  1  0  0  0  0
M  END
>  <minimizedAffinity>
-6.55812454

>  <minimizedRMSD>
0.635499358

$$$$
