
 OpenBabel03272509433D

 39 41  0  0  1  0  0  0  0  0999 V2000
   37.1230   30.9080   49.0640 C   0  0  0  0  0  0  0  0  0  0  0  0
   36.8600   31.8600   50.0520 C   0  0  0  0  0  0  0  0  0  0  0  0
   37.4310   33.1240   50.0160 C   0  0  0  0  0  0  0  0  0  0  0  0
   38.2910   33.4640   48.9720 C   0  0  0  0  0  0  0  0  0  0  0  0
   38.5380   32.5190   48.0130 C   0  0  0  0  0  0  0  0  0  0  0  0
   37.9520   31.2650   48.0770 C   0  0  0  0  0  0  0  0  0  0  0  0
   36.1800   31.5570   50.8540 H   0  0  0  0  0  0  0  0  0  0  0  0
   37.1420   33.7560   50.8400 H   0  0  0  0  0  0  0  0  0  0  0  0
   38.6970   34.4640   49.0120 H   0  0  0  0  0  0  0  0  0  0  0  0
   39.2270   32.9260   47.2650 H   0  0  0  0  0  0  0  0  0  0  0  0
   36.5560   29.5790   49.1180 C   0  0  2  0  0  0  0  0  0  0  0  0
   37.0320   29.0110   48.2290 H   0  0  0  0  0  0  0  0  0  0  0  0
   33.6370   29.7650   46.9600 C   0  0  0  0  0  0  0  0  0  0  0  0
   32.8990   28.6470   47.2990 C   0  0  0  0  0  0  0  0  0  0  0  0
   33.3660   27.8440   48.3230 C   0  0  0  0  0  0  0  0  0  0  0  0
   34.5380   28.1800   48.9630 N   0  0  0  0  0  0  0  0  0  0  0  0
   35.1980   29.2570   48.5930 C   0  0  0  0  0  0  0  0  0  0  0  0
   34.7570   30.0530   47.5970 N   0  0  0  0  0  0  0  0  0  0  0  0
   33.3030   30.4280   46.1570 H   0  0  0  0  0  0  0  0  0  0  0  0
   31.9990   28.4830   46.7300 H   0  0  0  0  0  0  0  0  0  0  0  0
   32.7840   26.9720   48.5860 H   0  0  0  0  0  0  0  0  0  0  0  0
   37.0700   28.8580   50.0510 O   0  0  0  0  0  0  0  0  0  0  0  0
   36.8940   29.0050   51.0040 H   0  0  0  0  0  0  0  0  0  0  0  0
   38.3270   30.3580   47.0160 C   0  0  0  0  0  3  0  0  0  0  0  0
   38.6870   30.7550   45.7910 C   0  0  0  0  0  3  0  0  0  0  0  0
   39.1310   29.9210   44.6500 C   0  0  0  0  0  0  0  0  0  0  0  0
   40.2270   29.7250   44.8060 H   0  0  0  0  0  0  0  0  0  0  0  0
   38.5820   28.9700   44.6500 H   0  0  0  0  0  0  0  0  0  0  0  0
   38.9860   30.8530   43.1240 S   0  0  0  0  0  0  0  0  0  0  0  0
   40.4990   30.7920   42.1340 C   0  0  0  0  0  3  0  0  0  0  0  0
   40.1710   30.9930   40.6920 C   0  0  0  0  0  3  0  0  0  0  0  0
   39.2680   30.4470   40.3620 H   0  0  0  0  0  0  0  0  0  0  0  0
   41.2870   30.7010   39.7480 C   0  0  0  0  0  3  0  0  0  0  0  0
   41.9270   31.6180   39.6600 H   0  0  0  0  0  0  0  0  0  0  0  0
   42.0800   29.6280   40.0680 O   0  0  0  0  0  0  0  0  0  0  0  0
   41.6010   28.8020   41.0580 C   0  0  0  0  0  3  0  0  0  0  0  0
   42.4580   28.1190   41.3240 H   0  0  0  0  0  0  0  0  0  0  0  0
   41.2160   29.4970   42.3200 C   0  0  0  0  0  3  0  0  0  0  0  0
   40.5530   28.7960   42.9050 H   0  0  0  0  0  0  0  0  0  0  0  0
  1 11  1  0  0  0  0
  1  2  1  0  0  0  0
  2  7  1  0  0  0  0
  3  2  2  0  0  0  0
  3  8  1  0  0  0  0
  4  9  1  0  0  0  0
  4  3  1  0  0  0  0
  5  6  1  0  0  0  0
  5  4  2  0  0  0  0
  6  1  2  0  0  0  0
 10  5  1  0  0  0  0
 11 12  1  6  0  0  0
 11 22  1  0  0  0  0
 13 14  2  0  0  0  0
 13 18  1  0  0  0  0
 14 15  1  0  0  0  0
 15 21  1  0  0  0  0
 15 16  2  0  0  0  0
 17 16  1  0  0  0  0
 17 11  1  0  0  0  0
 18 17  2  0  0  0  0
 19 13  1  0  0  0  0
 20 14  1  0  0  0  0
 22 23  1  0  0  0  0
 24  6  1  0  0  0  0
 25 24  2  0  0  0  0
 26 27  1  0  0  0  0
 26 25  1  0  0  0  0
 28 26  1  0  0  0  0
 29 26  1  0  0  0  0
 30 38  1  0  0  0  0
 30 29  1  0  0  0  0
 31 30  1  0  0  0  0
 32 31  1  0  0  0  0
 33 35  1  0  0  0  0
 33 31  1  0  0  0  0
 34 33  1  0  0  0  0
 35 36  1  0  0  0  0
 36 37  1  0  0  0  0
 36 38  1  0  0  0  0
 38 39  1  0  0  0  0
M  END
>  <minimizedAffinity>
-5.94257259

>  <minimizedRMSD>
1.17352509

$$$$
