
 OpenBabel03272509433D

 39 41  0  0  1  0  0  0  0  0999 V2000
   37.1590   30.9550   49.0200 C   0  0  0  0  0  0  0  0  0  0  0  0
   36.9330   31.9170   50.0080 C   0  0  0  0  0  0  0  0  0  0  0  0
   37.5500   33.1590   49.9700 C   0  0  0  0  0  0  0  0  0  0  0  0
   38.4200   33.4660   48.9230 C   0  0  0  0  0  0  0  0  0  0  0  0
   38.6290   32.5110   47.9650 C   0  0  0  0  0  0  0  0  0  0  0  0
   37.9980   31.2800   48.0310 C   0  0  0  0  0  0  0  0  0  0  0  0
   36.2440   31.6390   50.8130 H   0  0  0  0  0  0  0  0  0  0  0  0
   37.2860   33.8020   50.7940 H   0  0  0  0  0  0  0  0  0  0  0  0
   38.8620   34.4500   48.9610 H   0  0  0  0  0  0  0  0  0  0  0  0
   39.3310   32.8920   47.2140 H   0  0  0  0  0  0  0  0  0  0  0  0
   36.5440   29.6470   49.0770 C   0  0  2  0  0  0  0  0  0  0  0  0
   37.0400   29.0420   48.2250 H   0  0  0  0  0  0  0  0  0  0  0  0
   33.6530   30.0170   46.9050 C   0  0  0  0  0  0  0  0  0  0  0  0
   32.9350   28.8530   47.1020 C   0  0  0  0  0  0  0  0  0  0  0  0
   33.4040   27.9480   48.0360 C   0  0  0  0  0  0  0  0  0  0  0  0
   34.5590   28.2330   48.7300 N   0  0  0  0  0  0  0  0  0  0  0  0
   35.2010   29.3590   48.4950 C   0  0  0  0  0  0  0  0  0  0  0  0
   34.7570   30.2540   47.5900 N   0  0  0  0  0  0  0  0  0  0  0  0
   33.3160   30.7600   46.1760 H   0  0  0  0  0  0  0  0  0  0  0  0
   32.0480   28.7370   46.5020 H   0  0  0  0  0  0  0  0  0  0  0  0
   32.8390   27.0400   48.1880 H   0  0  0  0  0  0  0  0  0  0  0  0
   36.9870   28.9320   50.0490 O   0  0  0  0  0  0  0  0  0  0  0  0
   36.7730   29.1070   50.9900 H   0  0  0  0  0  0  0  0  0  0  0  0
   38.3360   30.3580   46.9710 C   0  0  0  0  0  3  0  0  0  0  0  0
   38.8530   30.7350   45.7960 C   0  0  0  0  0  3  0  0  0  0  0  0
   39.2780   29.8780   44.6640 C   0  0  0  0  0  0  0  0  0  0  0  0
   40.0290   29.1520   45.0780 H   0  0  0  0  0  0  0  0  0  0  0  0
   38.4120   29.3290   44.2700 H   0  0  0  0  0  0  0  0  0  0  0  0
   40.1380   30.8700   43.4410 S   0  0  0  0  0  0  0  0  0  0  0  0
   40.2570   30.0380   41.8400 C   0  0  0  0  0  3  0  0  0  0  0  0
   41.4900   29.1980   41.7930 C   0  0  0  0  0  3  0  0  0  0  0  0
   42.3780   29.6880   42.2330 H   0  0  0  0  0  0  0  0  0  0  0  0
   41.8440   28.6760   40.4430 C   0  0  0  0  0  3  0  0  0  0  0  0
   41.2710   27.7260   40.2680 H   0  0  0  0  0  0  0  0  0  0  0  0
   41.6250   29.5290   39.3910 O   0  0  0  0  0  0  0  0  0  0  0  0
   41.3650   30.8380   39.7260 C   0  0  0  0  0  3  0  0  0  0  0  0
   41.0140   31.3300   38.7740 H   0  0  0  0  0  0  0  0  0  0  0  0
   40.2670   31.0220   40.7190 C   0  0  0  0  0  3  0  0  0  0  0  0
   40.3680   32.0600   41.1470 H   0  0  0  0  0  0  0  0  0  0  0  0
  1 11  1  0  0  0  0
  1  2  1  0  0  0  0
  2  7  1  0  0  0  0
  3  2  2  0  0  0  0
  3  8  1  0  0  0  0
  4  9  1  0  0  0  0
  4  3  1  0  0  0  0
  5  6  1  0  0  0  0
  5  4  2  0  0  0  0
  6  1  2  0  0  0  0
 10  5  1  0  0  0  0
 11 12  1  6  0  0  0
 11 22  1  0  0  0  0
 13 14  2  0  0  0  0
 13 18  1  0  0  0  0
 14 15  1  0  0  0  0
 15 21  1  0  0  0  0
 15 16  2  0  0  0  0
 17 16  1  0  0  0  0
 17 11  1  0  0  0  0
 18 17  2  0  0  0  0
 19 13  1  0  0  0  0
 20 14  1  0  0  0  0
 22 23  1  0  0  0  0
 24  6  1  0  0  0  0
 25 24  2  0  0  0  0
 26 27  1  0  0  0  0
 26 25  1  0  0  0  0
 28 26  1  0  0  0  0
 29 26  1  0  0  0  0
 30 29  1  0  0  0  0
 31 30  1  0  0  0  0
 31 32  1  0  0  0  0
 33 31  1  0  0  0  0
 34 33  1  0  0  0  0
 35 36  1  0  0  0  0
 35 33  1  0  0  0  0
 36 38  1  0  0  0  0
 37 36  1  0  0  0  0
 38 39  1  0  0  0  0
 38 30  1  0  0  0  0
M  END
>  <minimizedAffinity>
-5.91462708

>  <minimizedRMSD>
0.342083961

$$$$
