
     RDKit          3D

 46 49  0  0  0  0  0  0  0  0999 V2000
   38.4469   31.1069   48.1594 C   0  0  2  0  0  0  0  0  0  0  0  0
   38.7083   32.5690   48.0844 C   0  0  0  0  0  0  0  0  0  0  0  0
   38.0754   31.7364   46.9346 C   0  0  1  0  0  0  0  0  0  0  0  0
   35.0878   30.2767   49.5064 C   0  0  0  0  0  0  0  0  0  0  0  0
   35.4199   29.5751   50.7112 C   0  0  0  0  0  0  0  0  0  0  0  0
   36.8068   29.4121   51.0341 C   0  0  0  0  0  0  0  0  0  0  0  0
   37.7660   29.9243   50.1939 N   0  0  0  0  0  0  0  0  0  0  0  0
   37.3699   30.5762   49.0717 C   0  0  0  0  0  0  0  0  0  0  0  0
   36.0459   30.7716   48.6959 N   0  0  0  0  0  0  0  0  0  0  0  0
   38.3370   31.8889   44.4733 C   0  0  0  0  0  0  0  0  0  0  0  0
   37.2277   32.4226   44.3796 O   0  0  0  0  0  0  0  0  0  0  0  0
   38.9344   31.6203   45.7751 N   0  0  0  0  0  0  0  0  0  0  0  0
   39.1280   31.4900   43.2901 C   0  0  0  0  0  0  0  0  0  0  0  0
   40.1429   30.5749   43.4417 C   0  0  0  0  0  0  0  0  0  0  0  0
   40.8733   30.2334   42.3109 C   0  0  0  0  0  0  0  0  0  0  0  0
   40.5309   30.8349   41.1141 C   0  0  0  0  0  0  0  0  0  0  0  0
   39.5017   31.7603   40.9668 C   0  0  0  0  0  0  0  0  0  0  0  0
   38.8217   32.0601   42.0911 N   0  0  0  0  0  0  0  0  0  0  0  0
   39.1972   32.3518   39.6699 C   0  0  0  0  0  0  0  0  0  0  0  0
   38.8302   33.5495   39.6310 O   0  0  0  0  0  0  0  0  0  0  0  0
   39.3729   30.4965   48.2373 H   0  0  0  0  0  0  0  0  0  0  0  0
   38.0542   33.2829   48.6100 H   0  0  0  0  0  0  0  0  0  0  0  0
   39.7275   32.9298   47.9416 H   0  0  0  0  0  0  0  0  0  0  0  0
   37.0080   32.0059   46.7510 H   0  0  0  0  0  0  0  0  0  0  0  0
   34.0295   30.3721   49.3093 H   0  0  0  0  0  0  0  0  0  0  0  0
   34.6595   29.1776   51.3625 H   0  0  0  0  0  0  0  0  0  0  0  0
   37.0688   28.8851   51.9396 H   0  0  0  0  0  0  0  0  0  0  0  0
   39.9195   31.3552   45.9277 H   0  0  0  0  0  0  0  0  0  0  0  0
   40.4003   30.1117   44.3838 H   0  0  0  0  0  0  0  0  0  0  0  0
   41.6725   29.5244   42.3858 H   0  0  0  0  0  0  0  0  0  0  0  0
   41.0808   30.5905   40.2144 H   0  0  0  0  0  0  0  0  0  0  0  0
   39.2738   31.6864   38.3720 C   0  0  2  0  0  0  0  0  0  0  0  0
   40.0825   30.4014   38.5820 C   0  0  2  0  0  0  0  0  0  0  0  0
   39.5692   29.8767   39.4090 H   0  0  0  0  0  0  0  0  0  0  0  0
   40.1472   29.6033   37.3144 C   0  0  2  0  0  0  0  0  0  0  0  0
   39.1652   29.1523   37.0710 H   0  0  0  0  0  0  0  0  0  0  0  0
   40.6662   30.3951   36.3091 O   0  0  0  0  0  0  0  0  0  0  0  0
   39.9186   31.5301   36.0518 C   0  0  2  0  0  0  0  0  0  0  0  0
   38.8517   31.1685   35.9782 H   0  0  0  0  0  0  0  0  0  0  0  0
   39.9392   32.4512   37.2790 C   0  0  2  0  0  0  0  0  0  0  0  0
   40.9820   32.7213   37.4697 H   0  0  0  0  0  0  0  0  0  0  0  0
   38.2390   31.4561   38.0255 H   0  0  0  0  0  0  0  0  0  0  0  0
   41.0895   30.6994   38.8941 H   0  0  0  0  0  0  0  0  0  0  0  0
   40.8767   28.7806   37.4867 H   0  0  0  0  0  0  0  0  0  0  0  0
   40.2753   32.0131   35.1430 H   0  0  0  0  0  0  0  0  0  0  0  0
   39.3973   33.3552   36.9601 H   0  0  0  0  0  0  0  0  0  0  0  0
  1  8  1  0
  2  1  1  0
  3  2  1  0
  3  1  1  0
  4  5  2  0
  5  6  1  0
  7  6  2  0
  8  7  1  0
  9  8  2  0
  9  4  1  0
 10 12  1  0
 11 10  2  0
 12  3  1  0
 13 14  2  0
 13 10  1  0
 15 14  1  0
 16 15  2  0
 17 16  1  0
 17 18  2  0
 18 13  1  0
 19 17  1  0
 20 19  2  0
  1 21  1  6
  2 22  1  0
  2 23  1  0
  3 24  1  6
  4 25  1  0
  5 26  1  0
  6 27  1  0
 12 28  1  0
 14 29  1  0
 15 30  1  0
 16 31  1  0
 32 33  1  0
 33 34  1  1
 33 35  1  0
 35 36  1  6
 35 37  1  0
 37 38  1  0
 38 39  1  6
 38 40  1  0
 40 41  1  1
 40 32  1  0
 32 42  1  6
 33 43  1  0
 35 44  1  0
 38 45  1  0
 40 46  1  0
 19 32  1  0
M  ISO  8  21  13  22  13  23  13  24  13  25  14  26  14  27  14  29  14
M  ISO  6  30  14  31  14  34  15  36  15  39  15  41  15
M  END
>  <DihAtoms>  (1) 
16,18,31,32

>  <DihDeg>  (1) 
179.99945801409726

$$$$
