
     RDKit          3D

 38 40  0  0  0  0  0  0  0  0999 V2000
   38.4515   30.4454   47.3097 F   0  0  0  0  0  0  0  0  0  0  0  0
   38.7527   31.6699   47.7855 C   0  0  0  0  0  0  0  0  0  0  0  0
   38.2365   32.0807   48.9919 C   0  0  0  0  0  0  0  0  0  0  0  0
   38.5774   33.3387   49.4274 C   0  0  0  0  0  0  0  0  0  0  0  0
   39.4014   34.1744   48.7035 C   0  0  0  0  0  0  0  0  0  0  0  0
   39.9070   33.7471   47.5018 C   0  0  0  0  0  0  0  0  0  0  0  0
   39.5806   32.4842   47.0377 C   0  0  0  0  0  0  0  0  0  0  0  0
   36.9213   29.5992   51.5345 C   0  0  0  0  0  0  0  0  0  0  0  0
   37.7787   30.4835   50.8648 C   0  0  0  0  0  0  0  0  0  0  0  0
   37.3709   31.1543   49.7134 C   0  0  0  0  0  0  0  0  0  0  0  0
   36.0962   30.9027   49.2773 N   0  0  0  0  0  0  0  0  0  0  0  0
   35.2845   30.0464   49.9373 C   0  0  0  0  0  0  0  0  0  0  0  0
   35.6907   29.4123   51.0381 N   0  0  0  0  0  0  0  0  0  0  0  0
   39.1940   32.1656   44.6808 C   0  0  0  0  0  0  0  0  0  0  0  0
   38.0805   32.7101   44.9838 O   0  0  0  0  0  0  0  0  0  0  0  0
   40.0840   31.9886   45.7847 N   0  0  0  0  0  0  0  0  0  0  0  0
   38.1622   33.6452   50.3786 H   0  0  0  0  0  0  0  0  0  0  0  0
   39.6461   35.1603   49.0830 H   0  0  0  0  0  0  0  0  0  0  0  0
   40.5582   34.3890   46.9146 H   0  0  0  0  0  0  0  0  0  0  0  0
   37.3700   29.1499   52.4123 H   0  0  0  0  0  0  0  0  0  0  0  0
   38.7990   30.7120   51.1772 H   0  0  0  0  0  0  0  0  0  0  0  0
   34.2839   29.8879   49.5424 H   0  0  0  0  0  0  0  0  0  0  0  0
   41.0167   31.5380   45.6830 H   0  0  0  0  0  0  0  0  0  0  0  0
   39.6860   31.6974   43.3600 C   0  0  2  0  0  0  0  0  0  0  0  0
   38.8751   32.2287   42.2156 C   0  0  2  0  0  0  0  0  0  0  0  0
   38.7243   33.3045   42.3047 H   0  0  0  0  0  0  0  0  0  0  0  0
   39.6443   31.8266   40.9532 C   0  0  2  0  0  0  0  0  0  0  0  0
   40.7339   32.0073   41.1759 H   0  0  0  0  0  0  0  0  0  0  0  0
   39.5328   30.4407   40.8590 O   0  0  0  0  0  0  0  0  0  0  0  0
   40.2271   29.8352   41.8842 C   0  0  2  0  0  0  0  0  0  0  0  0
   41.2949   30.1947   41.8966 H   0  0  0  0  0  0  0  0  0  0  0  0
   39.6241   30.1737   43.2339 C   0  0  2  0  0  0  0  0  0  0  0  0
   38.5512   29.8279   43.2054 H   0  0  0  0  0  0  0  0  0  0  0  0
   40.7252   31.9881   43.2042 H   0  0  0  0  0  0  0  0  0  0  0  0
   37.9177   31.6367   42.1668 H   0  0  0  0  0  0  0  0  0  0  0  0
   39.2952   32.3377   40.0576 H   0  0  0  0  0  0  0  0  0  0  0  0
   40.2518   28.7339   41.7238 H   0  0  0  0  0  0  0  0  0  0  0  0
   40.1804   29.6888   44.0347 H   0  0  0  0  0  0  0  0  0  0  0  0
  1  2  1  0
  2  3  2  0
  3  4  1  0
  3 10  1  0
  5  4  2  0
  6  5  1  0
  7  6  2  0
  7  2  1  0
  9  8  2  0
 10  9  1  0
 11 10  2  0
 11 12  1  0
 12 13  2  0
 13  8  1  0
 14 15  2  0
 14 16  1  0
 16  7  1  0
  4 17  1  0
  5 18  1  0
  6 19  1  0
  8 20  1  0
  9 21  1  0
 12 22  1  0
 16 23  1  0
 24 25  1  0
 25 26  1  1
 25 27  1  0
 27 28  1  1
 27 29  1  0
 29 30  1  0
 30 31  1  1
 30 32  1  0
 32 33  1  6
 32 24  1  0
 24 34  1  6
 25 35  1  0
 27 36  1  0
 30 37  1  0
 32 38  1  0
 14 24  1  0
M  ISO  8  17  14  18  14  19  14  20  14  21  14  22  14  26  15  28  15
M  ISO  2  31  15  33  15
M  END
>  <DihAtoms>  (1) 
14,13,23,24

>  <DihDeg>  (1) 
0.003330803455893199

$$$$
