
     RDKit          3D

 45 47  0  0  0  0  0  0  0  0999 V2000
   36.6836   29.9117   49.0375 C   0  0  0  0  0  0  0  0  0  0  0  0
   37.6998   30.5831   48.3371 C   0  0  0  0  0  0  0  0  0  0  0  0
   37.4718   30.8962   46.9891 C   0  0  0  0  0  0  0  0  0  0  0  0
   36.3035   30.5373   46.4541 N   0  0  0  0  0  0  0  0  0  0  0  0
   35.3458   29.8941   47.1479 C   0  0  0  0  0  0  0  0  0  0  0  0
   35.5451   29.5890   48.4278 N   0  0  0  0  0  0  0  0  0  0  0  0
   38.4569   31.5649   46.2420 N   0  0  0  0  0  0  0  0  0  0  0  0
   39.4524   32.4978   46.7844 C   0  0  0  0  0  0  0  0  0  0  0  0
   40.1282   33.1361   45.6092 C   0  0  0  0  0  0  0  0  0  0  0  0
   39.1854   32.8762   44.5023 C   0  0  0  0  0  0  0  0  0  0  0  0
   38.7055   31.4902   44.8323 C   0  0  2  0  0  0  0  0  0  0  0  0
   37.5896   31.0281   43.9581 C   0  0  0  0  0  0  0  0  0  0  0  0
   36.4650   31.7451   44.3355 F   0  0  0  0  0  0  0  0  0  0  0  0
   37.2783   29.7058   44.0317 F   0  0  0  0  0  0  0  0  0  0  0  0
   37.9043   31.4620   42.6785 F   0  0  0  0  0  0  0  0  0  0  0  0
   39.8386   30.5446   44.6741 C   0  0  0  0  0  0  0  0  0  0  0  0
   40.3509   30.7621   43.5712 O   0  0  0  0  0  0  0  0  0  0  0  0
   40.9000   30.0616   42.5493 C   0  0  0  0  0  0  0  0  0  0  0  0
   40.6341   30.6601   41.4727 O   0  0  0  0  0  0  0  0  0  0  0  0
   36.8552   29.6729   50.0619 H   0  0  0  0  0  0  0  0  0  0  0  0
   38.6270   30.8466   48.8313 H   0  0  0  0  0  0  0  0  0  0  0  0
   34.4439   29.6677   46.5704 H   0  0  0  0  0  0  0  0  0  0  0  0
   40.1763   31.9900   47.4454 H   0  0  0  0  0  0  0  0  0  0  0  0
   38.8765   33.2467   47.3488 H   0  0  0  0  0  0  0  0  0  0  0  0
   40.1350   34.2544   45.7759 H   0  0  0  0  0  0  0  0  0  0  0  0
   41.1669   32.7826   45.4625 H   0  0  0  0  0  0  0  0  0  0  0  0
   38.3730   33.6159   44.4990 H   0  0  0  0  0  0  0  0  0  0  0  0
   39.6611   32.9143   43.4891 H   0  0  0  0  0  0  0  0  0  0  0  0
   39.4625   29.5677   45.0377 H   0  0  0  0  0  0  0  0  0  0  0  0
   40.6116   30.8263   45.4526 H   0  0  0  0  0  0  0  0  0  0  0  0
   41.6722   28.9276   42.0306 C   0  0  1  0  0  0  0  0  0  0  0  0
   40.6841   27.7873   41.7347 C   0  0  1  0  0  0  0  0  0  0  0  0
   40.4308   27.2214   42.6385 H   0  0  0  0  0  0  0  0  0  0  0  0
   41.4676   26.8593   40.8272 C   0  0  2  0  0  0  0  0  0  0  0  0
   41.0369   25.8389   40.8073 H   0  0  0  0  0  0  0  0  0  0  0  0
   41.4182   27.4899   39.5981 O   0  0  0  0  0  0  0  0  0  0  0  0
   42.2357   28.5819   39.5752 C   0  0  2  0  0  0  0  0  0  0  0  0
   41.8313   29.2380   38.7478 H   0  0  0  0  0  0  0  0  0  0  0  0
   42.4318   29.3462   40.8199 C   0  0  2  0  0  0  0  0  0  0  0  0
   43.5199   29.3184   41.0740 H   0  0  0  0  0  0  0  0  0  0  0  0
   42.3311   28.4276   42.7700 H   0  0  0  0  0  0  0  0  0  0  0  0
   39.8050   28.1682   41.1886 H   0  0  0  0  0  0  0  0  0  0  0  0
   42.5378   26.8460   41.1500 H   0  0  0  0  0  0  0  0  0  0  0  0
   43.2098   28.2215   39.1288 H   0  0  0  0  0  0  0  0  0  0  0  0
   42.2639   30.4432   40.6035 H   0  0  0  0  0  0  0  0  0  0  0  0
  2  1  2  0
  3  2  1  0
  4  3  2  0
  4  5  1  0
  5  6  2  0
  6  1  1  0
  7  8  1  0
  7  3  1  0
  9  8  1  0
 10 11  1  0
 10  9  1  0
 11 12  1  6
 11  7  1  0
 12 14  1  0
 12 13  1  0
 15 12  1  0
 16 11  1  0
 17 16  1  0
 18 17  1  0
 19 18  2  0
  1 20  1  0
  2 21  1  0
  5 22  1  0
  8 23  1  0
  8 24  1  0
  9 25  1  0
  9 26  1  0
 10 27  1  0
 10 28  1  0
 16 29  1  0
 16 30  1  0
 31 32  1  0
 32 33  1  1
 32 34  1  0
 34 35  1  6
 34 36  1  0
 36 37  1  0
 37 38  1  6
 37 39  1  0
 39 40  1  1
 39 31  1  0
 31 41  1  1
 32 42  1  0
 34 43  1  0
 37 44  1  0
 39 45  1  0
 18 31  1  0
M  ISO  8  20  14  21  14  22  14  23  13  24  13  25  13  26  13  27  13
M  ISO  7  28  13  29   8  30   8  33  15  35  15  38  15  40  15
M  END
>  <DihAtoms>  (1) 
16,17,30,31

>  <DihDeg>  (1) 
-179.81582233411677

$$$$
