REMARK  Name = 
REMARK  5 active torsions:
REMARK  status: ('A' for Active; 'I' for Inactive)
REMARK    1  A    between atoms: C_1  and  C_8
REMARK    2  A    between atoms: C_3  and  N_12
REMARK    3  A    between atoms: C_10  and  C_13
REMARK    4  A    between atoms: C_17  and  C_19
REMARK    5  A    between atoms: C_19  and  C_32
REMARK                            x       y       z     vdW  Elec       q    Type
REMARK                         _______ _______ _______ _____ _____    ______ ____
ROOT
ATOM      1  C   UNL     1      39.128  31.490  43.290  0.00  0.00    +0.000 A 
ATOM      2  C   UNL     1      40.143  30.575  43.442  0.00  0.00    +0.000 A 
ATOM      3  C   UNL     1      40.873  30.233  42.311  0.00  0.00    +0.000 A 
ATOM      4  C   UNL     1      40.531  30.835  41.114  0.00  0.00    +0.000 A 
ATOM      5  C   UNL     1      39.502  31.760  40.967  0.00  0.00    +0.000 A 
ATOM      6  N   UNL     1      38.822  32.060  42.091  0.00  0.00    +0.000 NA
ATOM      7  H   UNL     1      40.400  30.112  44.384  0.00  0.00    +0.000 HD
ATOM      8  H   UNL     1      41.672  29.524  42.386  0.00  0.00    +0.000 HD
ATOM      9  H   UNL     1      41.081  30.590  40.214  0.00  0.00    +0.000 HD
ENDROOT
BRANCH   1  10
ATOM     10  C   UNL     1      38.337  31.889  44.473  0.00  0.00    +0.000 C 
ATOM     11  O   UNL     1      37.228  32.423  44.380  0.00  0.00    +0.000 OA
ATOM     12  N   UNL     1      38.934  31.620  45.775  0.00  0.00    +0.000 N 
ATOM     13  H   UNL     1      39.919  31.355  45.928  0.00  0.00    +0.000 HD
BRANCH  12  16
ATOM     14  C   UNL     1      38.447  31.107  48.159  0.00  0.00    +0.000 C 
ATOM     15  C   UNL     1      38.708  32.569  48.084  0.00  0.00    +0.000 C 
ATOM     16  C   UNL     1      38.075  31.736  46.935  0.00  0.00    +0.000 C 
ATOM     17  H   UNL     1      39.373  30.497  48.237  0.00  0.00    +0.000 HD
ATOM     18  H   UNL     1      38.054  33.283  48.610  0.00  0.00    +0.000 HD
ATOM     19  H   UNL     1      39.727  32.930  47.942  0.00  0.00    +0.000 HD
ATOM     20  H   UNL     1      37.008  32.006  46.751  0.00  0.00    +0.000 HD
BRANCH  14  25
ATOM     21  C   UNL     1      35.088  30.277  49.506  0.00  0.00    +0.000 A 
ATOM     22  C   UNL     1      35.420  29.575  50.711  0.00  0.00    +0.000 A 
ATOM     23  C   UNL     1      36.807  29.412  51.034  0.00  0.00    +0.000 A 
ATOM     24  N   UNL     1      37.766  29.924  50.194  0.00  0.00    +0.000 NA
ATOM     25  C   UNL     1      37.370  30.576  49.072  0.00  0.00    +0.000 A 
ATOM     26  N   UNL     1      36.046  30.772  48.696  0.00  0.00    +0.000 NA
ATOM     27  H   UNL     1      34.029  30.372  49.309  0.00  0.00    +0.000 HD
ATOM     28  H   UNL     1      34.660  29.178  51.362  0.00  0.00    +0.000 HD
ATOM     29  H   UNL     1      37.069  28.885  51.940  0.00  0.00    +0.000 HD
ENDBRANCH  14  25
ENDBRANCH  12  16
ENDBRANCH   1  10
BRANCH   5  30
ATOM     30  C   UNL     1      39.197  32.352  39.670  0.00  0.00    +0.000 C 
ATOM     31  O   UNL     1      38.830  33.550  39.631  0.00  0.00    +0.000 OA
BRANCH  30  32
ATOM     32  C   UNL     1      39.274  31.686  38.372  0.00  0.00    +0.000 C 
ATOM     33  C   UNL     1      37.998  32.059  37.609  0.00  0.00    +0.000 C 
ATOM     34  H   UNL     1      37.970  33.165  37.629  0.00  0.00    +0.000 HD
ATOM     35  C   UNL     1      38.022  31.485  36.224  0.00  0.00    +0.000 C 
ATOM     36  H   UNL     1      38.764  32.004  35.585  0.00  0.00    +0.000 HD
ATOM     37  O   UNL     1      38.208  30.119  36.305  0.00  0.00    +0.000 OA
ATOM     38  C   UNL     1      39.386  29.754  36.931  0.00  0.00    +0.000 C 
ATOM     39  H   UNL     1      40.184  30.395  36.453  0.00  0.00    +0.000 HD
ATOM     40  C   UNL     1      39.351  30.198  38.399  0.00  0.00    +0.000 C 
ATOM     41  H   UNL     1      38.501  29.698  38.873  0.00  0.00    +0.000 HD
ENDBRANCH  30  32
ENDBRANCH   5  30
TORSDOF 5
