
 OpenBabel03272507423D

 42 45  0  0  0  0  0  0  0  0999 V2000
   36.6630   31.1970   50.1090 C   0  0  0  0  0  0  0  0  0  0  0  0
   35.5600   30.3780   49.8850 C   0  0  0  0  0  0  0  0  0  0  0  0
   35.3550   29.2470   50.6450 C   0  0  0  0  0  0  0  0  0  0  0  0
   36.2670   28.9680   51.6150 N   0  0  0  0  0  0  0  0  0  0  0  0
   37.3400   29.7760   51.8240 C   0  0  0  0  0  0  0  0  0  0  0  0
   37.5190   30.8600   51.0800 N   0  0  0  0  0  0  0  0  0  0  0  0
   34.5220   28.5670   50.5260 H   0  0  0  0  0  0  0  0  0  0  0  0
   38.0440   29.5110   52.6140 H   0  0  0  0  0  0  0  0  0  0  0  0
   34.1740   29.5000   48.0620 C   0  0  0  0  0  0  0  0  0  0  0  0
   34.6190   28.2970   47.8990 O   0  0  0  0  0  0  0  0  0  0  0  0
   34.5730   30.5880   48.9090 N   0  0  0  0  0  0  0  0  0  0  0  0
   34.0490   31.4660   48.6890 H   0  0  0  0  0  0  0  0  0  0  0  0
   33.0310   29.5950   47.1060 C   0  0  0  0  0  3  0  0  0  0  0  0
   32.2260   28.3480   47.2080 C   0  0  0  0  0  3  0  0  0  0  0  0
   31.5290   28.3800   48.0970 H   0  0  0  0  0  0  0  0  0  0  0  0
   31.3440   28.0810   46.0170 C   0  0  0  0  0  3  0  0  0  0  0  0
   31.7650   27.2410   45.4160 H   0  0  0  0  0  0  0  0  0  0  0  0
   31.3120   29.1650   45.1360 O   0  0  0  0  0  0  0  0  0  0  0  0
   32.6330   29.2520   44.6470 C   0  0  0  0  0  3  0  0  0  0  0  0
   32.6720   29.8410   43.7090 H   0  0  0  0  0  0  0  0  0  0  0  0
   33.3970   30.0210   45.7300 C   0  0  0  0  0  3  0  0  0  0  0  0
   34.4630   29.9430   45.4620 H   0  0  0  0  0  0  0  0  0  0  0  0
   36.6980   32.2550   49.2690 O   0  0  0  0  0  0  0  0  0  0  0  0
   38.2320   32.2050   47.3190 C   0  0  0  0  0  0  0  0  0  0  0  0
   37.8260   32.6630   48.5590 C   0  0  0  0  0  0  0  0  0  0  0  0
   38.5710   33.6290   49.2220 C   0  0  0  0  0  0  0  0  0  0  0  0
   39.7240   34.1280   48.6280 C   0  0  0  0  0  0  0  0  0  0  0  0
   40.1210   33.6620   47.3890 C   0  0  0  0  0  0  0  0  0  0  0  0
   39.3590   32.7100   46.7690 C   0  0  0  0  0  0  0  0  0  0  0  0
   38.3080   34.0290   50.1920 H   0  0  0  0  0  0  0  0  0  0  0  0
   40.3010   34.8770   49.1440 H   0  0  0  0  0  0  0  0  0  0  0  0
   41.0130   34.0280   46.8990 H   0  0  0  0  0  0  0  0  0  0  0  0
   39.7940   32.2160   45.4370 C   0  0  0  0  0  0  0  0  0  0  0  0
   40.6600   31.2150   45.1230 C   0  0  0  0  0  0  0  0  0  0  0  0
   40.7490   31.1240   43.7400 C   0  0  0  0  0  0  0  0  0  0  0  0
   39.9070   32.1050   43.2880 C   0  0  0  0  0  0  0  0  0  0  0  0
   39.3450   32.7480   44.3100 O   0  0  0  0  0  0  0  0  0  0  0  0
   41.1890   30.5950   45.8360 H   0  0  0  0  0  0  0  0  0  0  0  0
   41.3470   30.4350   43.1360 H   0  0  0  0  0  0  0  0  0  0  0  0
   39.7010   32.3510   42.2380 H   0  0  0  0  0  0  0  0  0  0  0  0
   36.7530   30.4250   46.2000 N   0  0  0  0  0  0  0  0  0  0  0  0
   37.4110   31.2120   46.7070 C   0  0  0  0  0  0  0  0  0  0  0  0
  1  6  1  0  0  0  0
  2  1  2  0  0  0  0
  2  3  1  0  0  0  0
  3  4  2  0  0  0  0
  4  5  1  0  0  0  0
  5  8  1  0  0  0  0
  6  5  2  0  0  0  0
  7  3  1  0  0  0  0
  9 11  1  0  0  0  0
 10  9  2  0  0  0  0
 11  2  1  0  0  0  0
 12 11  1  0  0  0  0
 13 14  1  0  0  0  0
 13  9  1  0  0  0  0
 14 15  1  0  0  0  0
 16 14  1  0  0  0  0
 17 16  1  0  0  0  0
 18 16  1  0  0  0  0
 19 18  1  0  0  0  0
 19 21  1  0  0  0  0
 20 19  1  0  0  0  0
 21 13  1  0  0  0  0
 22 21  1  0  0  0  0
 23  1  1  0  0  0  0
 24 25  1  0  0  0  0
 25 26  2  0  0  0  0
 25 23  1  0  0  0  0
 26 30  1  0  0  0  0
 27 31  1  0  0  0  0
 27 26  1  0  0  0  0
 28 27  2  0  0  0  0
 29 24  2  0  0  0  0
 29 28  1  0  0  0  0
 32 28  1  0  0  0  0
 33 29  1  0  0  0  0
 34 33  2  0  0  0  0
 34 38  1  0  0  0  0
 35 34  1  0  0  0  0
 36 35  2  0  0  0  0
 36 37  1  0  0  0  0
 37 33  1  0  0  0  0
 39 35  1  0  0  0  0
 40 36  1  0  0  0  0
 41 42  3  0  0  0  0
 42 24  1  0  0  0  0
M  END
>  <minimizedAffinity>
-5.95260382

>  <minimizedRMSD>
0.296137661

$$$$
