
 OpenBabel03272504413D

 46 48  0  0  0  0  0  0  0  0999 V2000
   34.8080   29.3820   48.8320 C   0  0  0  0  0  0  0  0  0  0  0  0
   34.1850   30.1970   49.2940 H   0  0  0  0  0  0  0  0  0  0  0  0
   35.7340   29.3870   49.4790 H   0  0  0  0  0  0  0  0  0  0  0  0
   37.5640   30.4350   48.5280 Cl  0  0  0  0  0  0  0  0  0  0  0  0
   36.4120   30.2900   47.1900 C   0  0  0  0  0  0  0  0  0  0  0  0
   36.7900   30.6740   45.9510 C   0  0  0  0  0  0  0  0  0  0  0  0
   35.9030   30.5670   44.9040 C   0  0  0  0  0  0  0  0  0  0  0  0
   34.6380   30.0630   45.1600 C   0  0  0  0  0  0  0  0  0  0  0  0
   34.3160   29.6840   46.4680 C   0  0  0  0  0  0  0  0  0  0  0  0
   35.1740   29.7830   47.5030 C   0  0  0  0  0  0  0  0  0  0  0  0
   36.2250   30.8820   43.9090 H   0  0  0  0  0  0  0  0  0  0  0  0
   34.0090   30.0120   44.2900 H   0  0  0  0  0  0  0  0  0  0  0  0
   33.3370   29.3280   46.4870 H   0  0  0  0  0  0  0  0  0  0  0  0
   39.7760   32.8330   45.9970 C   0  0  0  0  0  0  0  0  0  0  0  0
   40.6450   32.1160   45.1240 C   0  0  0  0  0  0  0  0  0  0  0  0
   40.1720   30.9140   44.5510 C   0  0  0  0  0  0  0  0  0  0  0  0
   38.9170   30.4980   44.8560 N   0  0  0  0  0  0  0  0  0  0  0  0
   38.1190   31.2060   45.6910 C   0  0  0  0  0  0  0  0  0  0  0  0
   38.5500   32.3530   46.2470 N   0  0  0  0  0  0  0  0  0  0  0  0
   40.1430   33.7540   46.4360 H   0  0  0  0  0  0  0  0  0  0  0  0
   41.6190   32.5560   44.9650 H   0  0  0  0  0  0  0  0  0  0  0  0
   41.0440   30.2330   43.7000 N   0  0  0  0  0  0  0  0  0  0  0  0
   41.6090   30.6650   42.9630 H   0  0  0  0  0  0  0  0  0  0  0  0
   41.1460   29.1950   43.8020 H   0  0  0  0  0  0  0  0  0  0  0  0
   34.1200   28.0950   49.0360 C   0  0  0  0  0  0  0  0  0  0  0  0
   34.5510   27.5070   49.8800 H   0  0  0  0  0  0  0  0  0  0  0  0
   34.2650   27.4580   48.1290 H   0  0  0  0  0  0  0  0  0  0  0  0
   32.7940   28.2790   49.3260 O   0  0  0  0  0  0  0  0  0  0  0  0
   32.6310   26.5810   47.3260 O   0  0  0  0  0  0  0  0  0  0  0  0
   31.8210   27.4500   48.2380 P   0  0  2  0  0  0  0  0  0  0  0  0
   30.9840   28.6440   47.3180 O   0  0  0  0  0  0  0  0  0  0  0  0
   30.7960   28.1480   46.0300 C   0  0  0  0  0  3  0  0  0  0  0  0
   29.4730   27.4740   45.7920 C   0  0  0  0  0  3  0  0  0  0  0  0
   29.5220   27.0290   44.7650 H   0  0  0  0  0  0  0  0  0  0  0  0
   28.3280   28.4460   45.7760 C   0  0  0  0  0  3  0  0  0  0  0  0
   27.5030   27.9290   45.1920 H   0  0  0  0  0  0  0  0  0  0  0  0
   28.6450   29.6140   45.0820 O   0  0  0  0  0  0  0  0  0  0  0  0
   29.7030   29.4250   44.2130 C   0  0  0  0  0  3  0  0  0  0  0  0
   29.4510   28.5950   43.5310 H   0  0  0  0  0  0  0  0  0  0  0  0
   30.9690   29.2040   44.9910 C   0  0  0  0  0  3  0  0  0  0  0  0
   31.8410   29.0010   44.3280 H   0  0  0  0  0  0  0  0  0  0  0  0
   30.6520   26.5460   48.9930 O   0  0  0  0  0  0  0  0  0  0  0  0
   29.8240   27.3280   49.7680 C   0  0  0  0  0  0  0  0  0  0  0  0
   29.3110   26.6360   50.8670 F   0  0  0  0  0  0  0  0  0  0  0  0
   30.5030   28.4230   50.2850 F   0  0  0  0  0  0  0  0  0  0  0  0
   28.7660   27.7940   49.0310 F   0  0  0  0  0  0  0  0  0  0  0  0
  1 25  1  0  0  0  0
  1  2  1  0  0  0  0
  1  3  1  0  0  0  0
  5 10  1  0  0  0  0
  5  4  1  0  0  0  0
  6  5  2  0  0  0  0
  7  8  2  0  0  0  0
  7  6  1  0  0  0  0
  8  9  1  0  0  0  0
  9 13  1  0  0  0  0
  9 10  2  0  0  0  0
 10  1  1  0  0  0  0
 11  7  1  0  0  0  0
 12  8  1  0  0  0  0
 14 19  1  0  0  0  0
 14 20  1  0  0  0  0
 15 14  2  0  0  0  0
 16 17  2  0  0  0  0
 16 15  1  0  0  0  0
 17 18  1  0  0  0  0
 18  6  1  0  0  0  0
 18 19  2  0  0  0  0
 21 15  1  0  0  0  0
 22 24  1  0  0  0  0
 22 16  1  0  0  0  0
 23 22  1  0  0  0  0
 25 28  1  0  0  0  0
 25 26  1  0  0  0  0
 27 25  1  0  0  0  0
 30 29  2  6  0  0  0
 30 42  1  0  0  0  0
 30 28  1  0  0  0  0
 31 30  1  0  0  0  0
 32 31  1  0  0  0  0
 33 32  1  0  0  0  0
 34 33  1  0  0  0  0
 35 33  1  0  0  0  0
 36 35  1  0  0  0  0
 37 35  1  0  0  0  0
 38 40  1  0  0  0  0
 38 37  1  0  0  0  0
 39 38  1  0  0  0  0
 40 32  1  0  0  0  0
 41 40  1  0  0  0  0
 42 43  1  0  0  0  0
 43 45  1  0  0  0  0
 43 44  1  0  0  0  0
 46 43  1  0  0  0  0
M  END
>  <minimizedAffinity>
-5.74627018

>  <minimizedRMSD>
0.163019896

$$$$
