
     RDKit          3D

 51 53  0  0  0  0  0  0  0  0999 V2000
   37.6020   30.4633   48.5288 Cl  0  0  0  0  0  0  0  0  0  0  0  0
   36.4439   30.3187   47.1955 C   0  0  0  0  0  0  0  0  0  0  0  0
   36.8199   30.6951   45.9541 C   0  0  0  0  0  0  0  0  0  0  0  0
   35.9287   30.5883   44.9104 C   0  0  0  0  0  0  0  0  0  0  0  0
   34.6617   30.0927   45.1728 C   0  0  0  0  0  0  0  0  0  0  0  0
   34.3416   29.7225   46.4839 C   0  0  0  0  0  0  0  0  0  0  0  0
   35.2036   29.8210   47.5161 C   0  0  0  0  0  0  0  0  0  0  0  0
   39.8191   32.8365   45.9785 C   0  0  0  0  0  0  0  0  0  0  0  0
   40.6811   32.1093   45.1072 C   0  0  0  0  0  0  0  0  0  0  0  0
   40.1992   30.9066   44.5423 C   0  0  0  0  0  0  0  0  0  0  0  0
   38.9425   30.5002   44.8538 N   0  0  0  0  0  0  0  0  0  0  0  0
   38.1505   31.2184   45.6870 C   0  0  0  0  0  0  0  0  0  0  0  0
   38.5912   32.3646   46.2339 N   0  0  0  0  0  0  0  0  0  0  0  0
   41.0647   30.2148   43.6925 N   0  0  0  0  0  0  0  0  0  0  0  0
   34.8405   29.4278   48.8480 C   0  0  0  0  0  0  0  0  0  0  0  0
   34.1711   28.1329   49.0631 C   0  0  0  0  0  0  0  0  0  0  0  0
   32.8486   28.3020   49.3797 O   0  0  0  0  0  0  0  0  0  0  0  0
   32.6589   26.7043   47.3018 O   0  0  0  0  0  0  0  0  0  0  0  0
   31.8619   27.5304   48.2626 P   0  0  2  0  0  0  0  0  0  0  0  0
   31.0199   28.7711   47.4114 O   0  0  0  0  0  0  0  0  0  0  0  0
   30.6973   26.5949   48.9860 O   0  0  0  0  0  0  0  0  0  0  0  0
   29.8479   27.3497   49.7650 C   0  0  0  0  0  0  0  0  0  0  0  0
   29.3248   26.6274   50.8386 F   0  0  0  0  0  0  0  0  0  0  0  0
   30.5065   28.4401   50.3176 F   0  0  0  0  0  0  0  0  0  0  0  0
   28.7958   27.8213   49.0222 F   0  0  0  0  0  0  0  0  0  0  0  0
   36.2490   30.8969   43.9130 H   0  0  0  0  0  0  0  0  0  0  0  0
   34.0288   30.0418   44.3056 H   0  0  0  0  0  0  0  0  0  0  0  0
   33.3612   29.3734   46.5075 H   0  0  0  0  0  0  0  0  0  0  0  0
   40.1918   33.7582   46.4098 H   0  0  0  0  0  0  0  0  0  0  0  0
   41.6573   32.5426   44.9421 H   0  0  0  0  0  0  0  0  0  0  0  0
   41.6304   30.6404   42.9515 H   0  0  0  0  0  0  0  0  0  0  0  0
   41.1606   29.1770   43.8014 H   0  0  0  0  0  0  0  0  0  0  0  0
   34.2043   30.2393   49.2994 H   0  0  0  0  0  0  0  0  0  0  0  0
   35.7635   29.4539   49.4970 H   0  0  0  0  0  0  0  0  0  0  0  0
   34.6260   27.5487   49.8981 H   0  0  0  0  0  0  0  0  0  0  0  0
   34.3062   27.4988   48.1532 H   0  0  0  0  0  0  0  0  0  0  0  0
   30.7550   28.3107   46.1227 C   0  0  1  0  0  0  0  0  0  0  0  0
   31.0399   26.8512   45.8966 C   0  0  1  0  0  0  0  0  0  0  0  0
   30.8953   26.6650   44.8006 H   0  0  0  0  0  0  0  0  0  0  0  0
   30.0645   25.9585   46.6078 C   0  0  1  0  0  0  0  0  0  0  0  0
   30.0985   24.9703   46.0507 H   0  0  0  0  0  0  0  0  0  0  0  0
   28.7561   26.4331   46.5094 O   0  0  0  0  0  0  0  0  0  0  0  0
   28.6017   27.2986   45.4442 C   0  0  1  0  0  0  0  0  0  0  0  0
   28.9229   26.7816   44.5237 H   0  0  0  0  0  0  0  0  0  0  0  0
   29.3470   28.5752   45.7115 C   0  0  2  0  0  0  0  0  0  0  0  0
   29.2863   29.2847   44.8542 H   0  0  0  0  0  0  0  0  0  0  0  0
   31.4537   28.8913   45.4365 H   0  0  0  0  0  0  0  0  0  0  0  0
   32.0693   26.5389   46.1077 H   0  0  0  0  0  0  0  0  0  0  0  0
   30.3325   25.7037   47.6347 H   0  0  0  0  0  0  0  0  0  0  0  0
   27.5022   27.5127   45.2847 H   0  0  0  0  0  0  0  0  0  0  0  0
   28.8023   29.0811   46.5413 H   0  0  0  0  0  0  0  0  0  0  0  0
  2  7  2  0
  2  1  1  0
  3  2  1  0
  4  5  1  0
  4  3  2  0
  5  6  2  0
  6  7  1  0
  7 15  1  0
  8 13  2  0
  9  8  1  0
 10 11  1  0
 10  9  2  0
 11 12  2  0
 12  3  1  0
 12 13  1  0
 14 10  1  0
 15 16  1  0
 16 17  1  0
 19 18  2  0
 19 21  1  1
 19 17  1  0
 20 19  1  0
 21 22  1  0
 22 24  1  0
 22 23  1  0
 25 22  1  0
  4 26  1  0
  5 27  1  0
  6 28  1  0
  8 29  1  0
  9 30  1  0
 14 31  1  0
 14 32  1  0
 15 33  1  0
 15 34  1  0
 16 35  1  0
 16 36  1  0
 37 38  1  0
 38 39  1  6
 38 40  1  0
 40 41  1  6
 40 42  1  0
 42 43  1  0
 43 44  1  6
 43 45  1  0
 45 46  1  6
 45 37  1  0
 37 47  1  6
 38 48  1  0
 40 49  1  0
 43 50  1  0
 45 51  1  0
 20 37  1  0
M  ISO  8  26  14  27  14  28  14  29  14  30  14  33   8  34   8  35   8
M  ISO  5  36   8  39  15  41  15  44  15  46  15
M  END
>  <DihAtoms>  (1) 
18,19,36,37

>  <DihDeg>  (1) 
99.72066690243408

$$$$
