
     RDKit          3D

 45 47  0  0  0  0  0  0  0  0999 V2000
   36.6836   29.9117   49.0375 C   0  0  0  0  0  0  0  0  0  0  0  0
   37.6998   30.5831   48.3371 C   0  0  0  0  0  0  0  0  0  0  0  0
   37.4718   30.8962   46.9891 C   0  0  0  0  0  0  0  0  0  0  0  0
   36.3035   30.5373   46.4541 N   0  0  0  0  0  0  0  0  0  0  0  0
   35.3458   29.8941   47.1479 C   0  0  0  0  0  0  0  0  0  0  0  0
   35.5451   29.5890   48.4278 N   0  0  0  0  0  0  0  0  0  0  0  0
   38.4569   31.5649   46.2420 N   0  0  0  0  0  0  0  0  0  0  0  0
   39.4524   32.4978   46.7844 C   0  0  0  0  0  0  0  0  0  0  0  0
   40.1282   33.1361   45.6092 C   0  0  0  0  0  0  0  0  0  0  0  0
   39.1854   32.8762   44.5023 C   0  0  0  0  0  0  0  0  0  0  0  0
   38.7055   31.4902   44.8323 C   0  0  2  0  0  0  0  0  0  0  0  0
   37.5896   31.0281   43.9581 C   0  0  0  0  0  0  0  0  0  0  0  0
   36.4650   31.7451   44.3355 F   0  0  0  0  0  0  0  0  0  0  0  0
   37.2783   29.7058   44.0317 F   0  0  0  0  0  0  0  0  0  0  0  0
   37.9043   31.4620   42.6785 F   0  0  0  0  0  0  0  0  0  0  0  0
   39.8386   30.5446   44.6741 C   0  0  0  0  0  0  0  0  0  0  0  0
   40.3509   30.7621   43.5712 O   0  0  0  0  0  0  0  0  0  0  0  0
   40.9000   30.0616   42.5493 C   0  0  0  0  0  0  0  0  0  0  0  0
   40.6341   30.6601   41.4727 O   0  0  0  0  0  0  0  0  0  0  0  0
   36.8552   29.6729   50.0619 H   0  0  0  0  0  0  0  0  0  0  0  0
   38.6270   30.8466   48.8313 H   0  0  0  0  0  0  0  0  0  0  0  0
   34.4439   29.6677   46.5704 H   0  0  0  0  0  0  0  0  0  0  0  0
   40.1763   31.9900   47.4454 H   0  0  0  0  0  0  0  0  0  0  0  0
   38.8765   33.2467   47.3488 H   0  0  0  0  0  0  0  0  0  0  0  0
   40.1350   34.2544   45.7759 H   0  0  0  0  0  0  0  0  0  0  0  0
   41.1669   32.7826   45.4625 H   0  0  0  0  0  0  0  0  0  0  0  0
   38.3730   33.6159   44.4990 H   0  0  0  0  0  0  0  0  0  0  0  0
   39.6611   32.9143   43.4891 H   0  0  0  0  0  0  0  0  0  0  0  0
   39.4625   29.5677   45.0377 H   0  0  0  0  0  0  0  0  0  0  0  0
   40.6116   30.8263   45.4526 H   0  0  0  0  0  0  0  0  0  0  0  0
   41.6722   28.9276   42.0306 C   0  0  1  0  0  0  0  0  0  0  0  0
   40.7713   27.6832   42.0923 C   0  0  1  0  0  0  0  0  0  0  0  0
   40.7590   27.2368   43.0932 H   0  0  0  0  0  0  0  0  0  0  0  0
   41.4575   26.6966   41.1679 C   0  0  2  0  0  0  0  0  0  0  0  0
   41.1411   25.6539   41.3670 H   0  0  0  0  0  0  0  0  0  0  0  0
   41.1047   27.1358   39.9056 O   0  0  0  0  0  0  0  0  0  0  0  0
   41.7825   28.2730   39.5759 C   0  0  2  0  0  0  0  0  0  0  0  0
   41.1586   28.7682   38.7734 H   0  0  0  0  0  0  0  0  0  0  0  0
   42.1344   29.2232   40.6460 C   0  0  2  0  0  0  0  0  0  0  0  0
   43.2479   29.3173   40.6715 H   0  0  0  0  0  0  0  0  0  0  0  0
   42.5108   28.5933   42.6754 H   0  0  0  0  0  0  0  0  0  0  0  0
   39.7678   27.9110   41.6956 H   0  0  0  0  0  0  0  0  0  0  0  0
   42.5653   26.8136   41.2618 H   0  0  0  0  0  0  0  0  0  0  0  0
   42.6841   27.9282   38.9875 H   0  0  0  0  0  0  0  0  0  0  0  0
   41.8131   30.2607   40.3315 H   0  0  0  0  0  0  0  0  0  0  0  0
  2  1  2  0
  3  2  1  0
  4  3  2  0
  4  5  1  0
  5  6  2  0
  6  1  1  0
  7  8  1  0
  7  3  1  0
  9  8  1  0
 10 11  1  0
 10  9  1  0
 11 12  1  6
 11  7  1  0
 12 14  1  0
 12 13  1  0
 15 12  1  0
 16 11  1  0
 17 16  1  0
 18 17  1  0
 19 18  2  0
  1 20  1  0
  2 21  1  0
  5 22  1  0
  8 23  1  0
  8 24  1  0
  9 25  1  0
  9 26  1  0
 10 27  1  0
 10 28  1  0
 16 29  1  0
 16 30  1  0
 31 32  1  0
 32 33  1  1
 32 34  1  0
 34 35  1  1
 34 36  1  0
 36 37  1  0
 37 38  1  6
 37 39  1  0
 39 40  1  1
 39 31  1  0
 31 41  1  1
 32 42  1  0
 34 43  1  0
 37 44  1  0
 39 45  1  0
 18 31  1  0
M  ISO  8  20  14  21  14  22  14  23  13  24  13  25  13  26  13  27  13
M  ISO  7  28  13  29   8  30   8  33  15  35  15  38  15  40  15
M  END
>  <DihAtoms>  (1) 
16,17,30,31

>  <DihDeg>  (1) 
-179.81582233411677

$$$$
