
 OpenBabel03272507283D

 40 42  0  0  1  0  0  0  0  0999 V2000
   37.1920   26.2740   31.1450 C   0  0  0  0  0  0  0  0  0  0  0  0
   37.8480   25.0330   31.0790 C   0  0  0  0  0  0  0  0  0  0  0  0
   37.0590   23.8740   31.0390 C   0  0  0  0  0  0  0  0  0  0  0  0
   35.7330   24.0210   31.0660 N   0  0  0  0  0  0  0  0  0  0  0  0
   35.1290   25.2220   31.1300 C   0  0  0  0  0  0  0  0  0  0  0  0
   35.8620   26.3320   31.1680 N   0  0  0  0  0  0  0  0  0  0  0  0
   37.6650   22.6080   30.9750 N   0  0  0  0  0  0  0  0  0  0  0  0
   38.9690   22.3150   30.3660 C   0  0  0  0  0  0  0  0  0  0  0  0
   39.0970   20.8230   30.3210 C   0  0  0  0  0  0  0  0  0  0  0  0
   37.7020   20.3650   30.4790 C   0  0  0  0  0  0  0  0  0  0  0  0
   37.1680   21.3580   31.4720 C   0  0  2  0  0  0  0  0  0  0  0  0
   37.7900   27.1550   31.1760 H   0  0  0  0  0  0  0  0  0  0  0  0
   38.9300   24.9830   31.0590 H   0  0  0  0  0  0  0  0  0  0  0  0
   34.0350   25.1780   31.1440 H   0  0  0  0  0  0  0  0  0  0  0  0
   39.7990   22.7800   30.9280 H   0  0  0  0  0  0  0  0  0  0  0  0
   38.9170   22.7270   29.3470 H   0  0  0  0  0  0  0  0  0  0  0  0
   39.4200   20.5330   29.2770 H   0  0  0  0  0  0  0  0  0  0  0  0
   39.8290   20.4290   31.0520 H   0  0  0  0  0  0  0  0  0  0  0  0
   37.1690   20.3980   29.5180 H   0  0  0  0  0  0  0  0  0  0  0  0
   37.6150   19.3160   30.8610 H   0  0  0  0  0  0  0  0  0  0  0  0
   35.6980   21.2400   31.6930 C   0  0  0  0  0  0  0  0  0  0  0  0
   35.0890   21.5350   30.4830 F   0  0  0  0  0  0  0  0  0  0  0  0
   35.1640   22.0650   32.6330 F   0  0  0  0  0  0  0  0  0  0  0  0
   35.4540   19.8930   31.9220 F   0  0  0  0  0  0  0  0  0  0  0  0
   37.8490   21.1440   32.7730 C   0  0  0  0  0  0  0  0  0  0  0  0
   38.8490   20.7360   32.5190 H   0  0  0  0  0  0  0  0  0  0  0  0
   37.3350   20.2660   33.2720 H   0  0  0  0  0  0  0  0  0  0  0  0
   37.6250   22.1340   33.4760 O   0  0  0  0  0  0  0  0  0  0  0  0
   37.8210   22.5390   34.7540 C   0  0  0  0  0  0  0  0  0  0  0  0
   37.2080   21.7470   35.5180 O   0  0  0  0  0  0  0  0  0  0  0  0
   38.3990   23.4560   35.7420 C   0  0  0  0  0  3  0  0  0  0  0  0
   37.4170   23.5510   36.9220 C   0  0  0  0  0  3  0  0  0  0  0  0
   36.6040   24.2570   36.7190 H   0  0  0  0  0  0  0  0  0  0  0  0
   38.2550   24.1360   38.0410 C   0  0  0  0  0  3  0  0  0  0  0  0
   37.6280   24.5870   38.8350 H   0  0  0  0  0  0  0  0  0  0  0  0
   38.9990   23.0600   38.4870 O   0  0  0  0  0  0  0  0  0  0  0  0
   39.9850   22.7450   37.5990 C   0  0  0  0  0  3  0  0  0  0  0  0
   40.2450   21.6660   37.8140 H   0  0  0  0  0  0  0  0  0  0  0  0
   39.7410   22.9640   36.1620 C   0  0  0  0  0  3  0  0  0  0  0  0
   40.5030   23.6920   35.7890 H   0  0  0  0  0  0  0  0  0  0  0  0
  1  6  1  0  0  0  0
  1 12  1  0  0  0  0
  2  1  2  0  0  0  0
  3  4  2  0  0  0  0
  3  2  1  0  0  0  0
  4  5  1  0  0  0  0
  5 14  1  0  0  0  0
  5  6  2  0  0  0  0
  7  3  1  0  0  0  0
  7 11  1  0  0  0  0
  8 15  1  0  0  0  0
  8  7  1  0  0  0  0
  9  8  1  0  0  0  0
  9 10  1  0  0  0  0
  9 18  1  0  0  0  0
 10 20  1  0  0  0  0
 10 11  1  0  0  0  0
 11 21  1  1  0  0  0
 11 25  1  0  0  0  0
 13  2  1  0  0  0  0
 16  8  1  0  0  0  0
 17  9  1  0  0  0  0
 19 10  1  0  0  0  0
 21 24  1  0  0  0  0
 21 23  1  0  0  0  0
 22 21  1  0  0  0  0
 25 27  1  0  0  0  0
 25 28  1  0  0  0  0
 26 25  1  0  0  0  0
 28 29  1  0  0  0  0
 29 30  2  0  0  0  0
 29 31  1  0  0  0  0
 31 39  1  0  0  0  0
 31 32  1  0  0  0  0
 32 34  1  0  0  0  0
 33 32  1  0  0  0  0
 34 36  1  0  0  0  0
 34 35  1  0  0  0  0
 37 38  1  0  0  0  0
 37 36  1  0  0  0  0
 39 37  1  0  0  0  0
 40 39  1  0  0  0  0
M  END
>  <minimizedAffinity>
-5.52390718

$$$$

 OpenBabel03272507283D

 40 42  0  0  1  0  0  0  0  0999 V2000
   37.4370   27.1830   34.2840 C   0  0  0  0  0  0  0  0  0  0  0  0
   37.4620   26.2030   35.2900 C   0  0  0  0  0  0  0  0  0  0  0  0
   38.6120   25.4080   35.4040 C   0  0  0  0  0  0  0  0  0  0  0  0
   39.6120   25.6310   34.5500 N   0  0  0  0  0  0  0  0  0  0  0  0
   39.5630   26.5770   33.5940 C   0  0  0  0  0  0  0  0  0  0  0  0
   38.4800   27.3410   33.4710 N   0  0  0  0  0  0  0  0  0  0  0  0
   38.6870   24.4110   36.3930 N   0  0  0  0  0  0  0  0  0  0  0  0
   38.0010   24.4420   37.6900 C   0  0  0  0  0  0  0  0  0  0  0  0
   38.5520   23.3050   38.4950 C   0  0  0  0  0  0  0  0  0  0  0  0
   39.8140   22.9850   37.7980 C   0  0  0  0  0  0  0  0  0  0  0  0
   39.4230   23.1810   36.3600 C   0  0  2  0  0  0  0  0  0  0  0  0
   36.5640   27.7880   34.1950 H   0  0  0  0  0  0  0  0  0  0  0  0
   36.6150   26.0720   35.9530 H   0  0  0  0  0  0  0  0  0  0  0  0
   40.4620   26.6380   32.9730 H   0  0  0  0  0  0  0  0  0  0  0  0
   36.9050   24.3690   37.5780 H   0  0  0  0  0  0  0  0  0  0  0  0
   38.2760   25.4040   38.1460 H   0  0  0  0  0  0  0  0  0  0  0  0
   38.8340   23.7050   39.5140 H   0  0  0  0  0  0  0  0  0  0  0  0
   37.8330   22.4710   38.6170 H   0  0  0  0  0  0  0  0  0  0  0  0
   40.6180   23.6640   38.1150 H   0  0  0  0  0  0  0  0  0  0  0  0
   40.1780   21.9430   37.9850 H   0  0  0  0  0  0  0  0  0  0  0  0
   40.5750   23.0920   35.4180 C   0  0  0  0  0  0  0  0  0  0  0  0
   41.5330   23.9840   35.8750 F   0  0  0  0  0  0  0  0  0  0  0  0
   40.3140   23.4010   34.1190 F   0  0  0  0  0  0  0  0  0  0  0  0
   41.1170   21.8270   35.5980 F   0  0  0  0  0  0  0  0  0  0  0  0
   38.4390   22.1340   35.9880 C   0  0  0  0  0  0  0  0  0  0  0  0
   37.8360   21.9580   36.9010 H   0  0  0  0  0  0  0  0  0  0  0  0
   39.0170   21.1660   35.8730 H   0  0  0  0  0  0  0  0  0  0  0  0
   38.0000   22.4200   34.8690 O   0  0  0  0  0  0  0  0  0  0  0  0
   37.4860   21.7880   33.7860 C   0  0  0  0  0  0  0  0  0  0  0  0
   38.4220   21.1780   33.2050 O   0  0  0  0  0  0  0  0  0  0  0  0
   36.3640   21.4350   32.9110 C   0  0  0  0  0  3  0  0  0  0  0  0
   36.9430   21.0690   31.5340 C   0  0  0  0  0  3  0  0  0  0  0  0
   37.1530   21.9600   30.9310 H   0  0  0  0  0  0  0  0  0  0  0  0
   35.8120   20.3210   30.8560 C   0  0  0  0  0  3  0  0  0  0  0  0
   35.9340   20.2970   29.7550 H   0  0  0  0  0  0  0  0  0  0  0  0
   35.8610   19.0660   31.4310 O   0  0  0  0  0  0  0  0  0  0  0  0
   35.3870   19.0950   32.7100 C   0  0  0  0  0  3  0  0  0  0  0  0
   35.8360   18.1890   33.2150 H   0  0  0  0  0  0  0  0  0  0  0  0
   35.5880   20.3140   33.5130 C   0  0  0  0  0  3  0  0  0  0  0  0
   34.5830   20.7110   33.7980 H   0  0  0  0  0  0  0  0  0  0  0  0
  1  2  1  0  0  0  0
  2  3  2  0  0  0  0
  2 13  1  0  0  0  0
  3  7  1  0  0  0  0
  4  3  1  0  0  0  0
  5  4  2  0  0  0  0
  6  5  1  0  0  0  0
  6  1  2  0  0  0  0
  7  8  1  0  0  0  0
  8 16  1  0  0  0  0
  8  9  1  0  0  0  0
  9 18  1  0  0  0  0
  9 17  1  0  0  0  0
 10 20  1  0  0  0  0
 10 19  1  0  0  0  0
 10  9  1  0  0  0  0
 11 21  1  6  0  0  0
 11  7  1  0  0  0  0
 11 10  1  0  0  0  0
 12  1  1  0  0  0  0
 14  5  1  0  0  0  0
 15  8  1  0  0  0  0
 21 24  1  0  0  0  0
 21 22  1  0  0  0  0
 23 21  1  0  0  0  0
 25 11  1  0  0  0  0
 25 26  1  0  0  0  0
 27 25  1  0  0  0  0
 28 25  1  0  0  0  0
 29 28  1  0  0  0  0
 30 29  2  0  0  0  0
 31 39  1  0  0  0  0
 31 29  1  0  0  0  0
 32 31  1  0  0  0  0
 33 32  1  0  0  0  0
 34 36  1  0  0  0  0
 34 32  1  0  0  0  0
 35 34  1  0  0  0  0
 36 37  1  0  0  0  0
 37 38  1  0  0  0  0
 37 39  1  0  0  0  0
 39 40  1  0  0  0  0
M  END
>  <minimizedAffinity>
-5.51573515

$$$$

 OpenBabel03272507283D

 40 42  0  0  1  0  0  0  0  0999 V2000
   42.5890   21.7850   36.0180 C   0  0  0  0  0  0  0  0  0  0  0  0
   42.1790   22.9750   35.3950 C   0  0  0  0  0  0  0  0  0  0  0  0
   41.0080   23.5920   35.8600 C   0  0  0  0  0  0  0  0  0  0  0  0
   40.3540   23.0090   36.8670 N   0  0  0  0  0  0  0  0  0  0  0  0
   40.7680   21.8670   37.4470 C   0  0  0  0  0  0  0  0  0  0  0  0
   41.8770   21.2690   37.0190 N   0  0  0  0  0  0  0  0  0  0  0  0
   40.5540   24.7830   35.2690 N   0  0  0  0  0  0  0  0  0  0  0  0
   41.4020   25.7970   34.6310 C   0  0  0  0  0  0  0  0  0  0  0  0
   40.5260   26.9820   34.3600 C   0  0  0  0  0  0  0  0  0  0  0  0
   39.3720   26.7530   35.2530 C   0  0  0  0  0  0  0  0  0  0  0  0
   39.2070   25.2620   35.1580 C   0  0  2  0  0  0  0  0  0  0  0  0
   43.4770   21.3150   35.6660 H   0  0  0  0  0  0  0  0  0  0  0  0
   42.7560   23.3970   34.5810 H   0  0  0  0  0  0  0  0  0  0  0  0
   40.1250   21.5150   38.2600 H   0  0  0  0  0  0  0  0  0  0  0  0
   41.8730   25.4180   33.7070 H   0  0  0  0  0  0  0  0  0  0  0  0
   42.1700   26.0510   35.3770 H   0  0  0  0  0  0  0  0  0  0  0  0
   41.0580   27.9030   34.7430 H   0  0  0  0  0  0  0  0  0  0  0  0
   40.2960   27.1140   33.2850 H   0  0  0  0  0  0  0  0  0  0  0  0
   39.5960   27.0910   36.2750 H   0  0  0  0  0  0  0  0  0  0  0  0
   38.4430   27.2890   34.9320 H   0  0  0  0  0  0  0  0  0  0  0  0
   38.2000   24.7180   36.1140 C   0  0  0  0  0  0  0  0  0  0  0  0
   37.0740   25.5210   36.0060 F   0  0  0  0  0  0  0  0  0  0  0  0
   38.5660   24.6990   37.4240 F   0  0  0  0  0  0  0  0  0  0  0  0
   37.8310   23.4780   35.6140 F   0  0  0  0  0  0  0  0  0  0  0  0
   38.7710   24.9190   33.7820 C   0  0  0  0  0  0  0  0  0  0  0  0
   39.0030   23.8420   33.6590 H   0  0  0  0  0  0  0  0  0  0  0  0
   39.4980   25.4200   33.0730 H   0  0  0  0  0  0  0  0  0  0  0  0
   37.6710   25.4520   33.5990 O   0  0  0  0  0  0  0  0  0  0  0  0
   37.1450   26.4800   32.8900 C   0  0  0  0  0  0  0  0  0  0  0  0
   36.4530   26.0000   31.9530 O   0  0  0  0  0  0  0  0  0  0  0  0
   36.9580   27.9130   32.6430 C   0  0  0  0  0  3  0  0  0  0  0  0
   36.2000   28.0620   31.3120 C   0  0  0  0  0  3  0  0  0  0  0  0
   36.8720   27.9850   30.4500 H   0  0  0  0  0  0  0  0  0  0  0  0
   35.6790   29.4850   31.3530 C   0  0  0  0  0  3  0  0  0  0  0  0
   35.4200   29.8590   30.3430 H   0  0  0  0  0  0  0  0  0  0  0  0
   34.5870   29.4070   32.1960 O   0  0  0  0  0  0  0  0  0  0  0  0
   34.9810   29.2660   33.4950 C   0  0  0  0  0  3  0  0  0  0  0  0
   34.0950   28.8050   34.0250 H   0  0  0  0  0  0  0  0  0  0  0  0
   36.2240   28.5300   33.7830 C   0  0  0  0  0  3  0  0  0  0  0  0
   36.9270   29.2270   34.3020 H   0  0  0  0  0  0  0  0  0  0  0  0
  1  6  1  0  0  0  0
  2  3  1  0  0  0  0
  2  1  2  0  0  0  0
  3  4  2  0  0  0  0
  4  5  1  0  0  0  0
  5 14  1  0  0  0  0
  6  5  2  0  0  0  0
  7  3  1  0  0  0  0
  8  7  1  0  0  0  0
  8 16  1  0  0  0  0
  9  8  1  0  0  0  0
  9 17  1  0  0  0  0
  9 10  1  0  0  0  0
 10 19  1  0  0  0  0
 11 25  1  6  0  0  0
 11 10  1  0  0  0  0
 11  7  1  0  0  0  0
 11 21  1  0  0  0  0
 12  1  1  0  0  0  0
 13  2  1  0  0  0  0
 15  8  1  0  0  0  0
 18  9  1  0  0  0  0
 20 10  1  0  0  0  0
 21 23  1  0  0  0  0
 22 21  1  0  0  0  0
 24 21  1  0  0  0  0
 26 25  1  0  0  0  0
 27 25  1  0  0  0  0
 28 25  1  0  0  0  0
 29 28  1  0  0  0  0
 30 29  2  0  0  0  0
 31 29  1  0  0  0  0
 31 39  1  0  0  0  0
 32 34  1  0  0  0  0
 32 31  1  0  0  0  0
 33 32  1  0  0  0  0
 34 36  1  0  0  0  0
 35 34  1  0  0  0  0
 36 37  1  0  0  0  0
 37 39  1  0  0  0  0
 37 38  1  0  0  0  0
 39 40  1  0  0  0  0
M  END
>  <minimizedAffinity>
-5.48805189

$$$$

 OpenBabel03272507283D

 40 42  0  0  1  0  0  0  0  0999 V2000
   34.6490   29.9030   32.3860 C   0  0  0  0  0  0  0  0  0  0  0  0
   35.3790   29.1170   33.2940 C   0  0  0  0  0  0  0  0  0  0  0  0
   36.5890   28.5600   32.8560 C   0  0  0  0  0  0  0  0  0  0  0  0
   36.9740   28.8090   31.6020 N   0  0  0  0  0  0  0  0  0  0  0  0
   36.2560   29.5660   30.7520 C   0  0  0  0  0  0  0  0  0  0  0  0
   35.1050   30.1030   31.1500 N   0  0  0  0  0  0  0  0  0  0  0  0
   37.3560   27.7640   33.7240 N   0  0  0  0  0  0  0  0  0  0  0  0
   37.3920   27.8870   35.1860 C   0  0  0  0  0  0  0  0  0  0  0  0
   38.5060   27.0070   35.6650 C   0  0  0  0  0  0  0  0  0  0  0  0
   39.3120   26.7990   34.4450 C   0  0  0  0  0  0  0  0  0  0  0  0
   38.2450   26.6890   33.3920 C   0  0  2  0  0  0  0  0  0  0  0  0
   33.7300   30.3270   32.7160 H   0  0  0  0  0  0  0  0  0  0  0  0
   35.0100   28.9530   34.2990 H   0  0  0  0  0  0  0  0  0  0  0  0
   36.7030   29.6780   29.7590 H   0  0  0  0  0  0  0  0  0  0  0  0
   36.4270   27.6110   35.6470 H   0  0  0  0  0  0  0  0  0  0  0  0
   37.6240   28.9440   35.3880 H   0  0  0  0  0  0  0  0  0  0  0  0
   39.1430   27.6090   36.3790 H   0  0  0  0  0  0  0  0  0  0  0  0
   38.1480   26.0940   36.1780 H   0  0  0  0  0  0  0  0  0  0  0  0
   39.9900   27.6470   34.2750 H   0  0  0  0  0  0  0  0  0  0  0  0
   39.9490   25.8780   34.4790 H   0  0  0  0  0  0  0  0  0  0  0  0
   38.7880   26.6470   32.0040 C   0  0  0  0  0  0  0  0  0  0  0  0
   39.8070   25.7070   32.0030 F   0  0  0  0  0  0  0  0  0  0  0  0
   39.3030   27.8110   31.5260 F   0  0  0  0  0  0  0  0  0  0  0  0
   37.7780   26.1120   31.2170 F   0  0  0  0  0  0  0  0  0  0  0  0
   37.4730   25.4430   33.6250 C   0  0  0  0  0  0  0  0  0  0  0  0
   36.7190   25.4060   32.8140 H   0  0  0  0  0  0  0  0  0  0  0  0
   36.8430   25.6160   34.5510 H   0  0  0  0  0  0  0  0  0  0  0  0
   38.2830   24.5540   33.9070 O   0  0  0  0  0  0  0  0  0  0  0  0
   38.3220   23.4040   34.6230 C   0  0  0  0  0  0  0  0  0  0  0  0
   37.9080   22.4680   33.8890 O   0  0  0  0  0  0  0  0  0  0  0  0
   38.6090   22.6600   35.8530 C   0  0  0  0  0  3  0  0  0  0  0  0
   39.9760   23.1330   36.3770 C   0  0  0  0  0  3  0  0  0  0  0  0
   40.8050   22.6340   35.8630 H   0  0  0  0  0  0  0  0  0  0  0  0
   39.9900   22.6650   37.8190 C   0  0  0  0  0  3  0  0  0  0  0  0
   41.0190   22.6150   38.2260 H   0  0  0  0  0  0  0  0  0  0  0  0
   39.1960   23.5910   38.4690 O   0  0  0  0  0  0  0  0  0  0  0  0
   37.8780   23.3970   38.1750 C   0  0  0  0  0  3  0  0  0  0  0  0
   37.3790   24.3900   38.3820 H   0  0  0  0  0  0  0  0  0  0  0  0
   37.5170   22.8810   36.8430 C   0  0  0  0  0  3  0  0  0  0  0  0
   36.9820   21.9100   36.9810 H   0  0  0  0  0  0  0  0  0  0  0  0
  1 12  1  0  0  0  0
  1  2  1  0  0  0  0
  2 13  1  0  0  0  0
  3  2  2  0  0  0  0
  3  7  1  0  0  0  0
  4  3  1  0  0  0  0
  5  6  1  0  0  0  0
  5  4  2  0  0  0  0
  6  1  2  0  0  0  0
  7  8  1  0  0  0  0
  8 16  1  0  0  0  0
  8 15  1  0  0  0  0
  8  9  1  0  0  0  0
  9 18  1  0  0  0  0
  9 17  1  0  0  0  0
 10 20  1  0  0  0  0
 10  9  1  0  0  0  0
 11 21  1  6  0  0  0
 11 25  1  0  0  0  0
 11  7  1  0  0  0  0
 11 10  1  0  0  0  0
 14  5  1  0  0  0  0
 19 10  1  0  0  0  0
 22 21  1  0  0  0  0
 23 21  1  0  0  0  0
 24 21  1  0  0  0  0
 25 28  1  0  0  0  0
 25 27  1  0  0  0  0
 26 25  1  0  0  0  0
 28 29  1  0  0  0  0
 29 31  1  0  0  0  0
 30 29  2  0  0  0  0
 31 32  1  0  0  0  0
 31 39  1  0  0  0  0
 32 34  1  0  0  0  0
 33 32  1  0  0  0  0
 34 35  1  0  0  0  0
 34 36  1  0  0  0  0
 37 38  1  0  0  0  0
 37 36  1  0  0  0  0
 39 40  1  0  0  0  0
 39 37  1  0  0  0  0
M  END
>  <minimizedAffinity>
-5.38026571

$$$$

 OpenBabel03272507283D

 40 42  0  0  1  0  0  0  0  0999 V2000
   38.2870   22.2000   35.5590 C   0  0  0  0  0  0  0  0  0  0  0  0
   38.5900   23.0060   34.4490 C   0  0  0  0  0  0  0  0  0  0  0  0
   38.4250   24.3930   34.5800 C   0  0  0  0  0  0  0  0  0  0  0  0
   37.9920   24.8620   35.7520 N   0  0  0  0  0  0  0  0  0  0  0  0
   37.7080   24.0670   36.8000 C   0  0  0  0  0  0  0  0  0  0  0  0
   37.8580   22.7490   36.6940 N   0  0  0  0  0  0  0  0  0  0  0  0
   38.7120   25.2440   33.4990 N   0  0  0  0  0  0  0  0  0  0  0  0
   39.6970   24.9810   32.4430 C   0  0  0  0  0  0  0  0  0  0  0  0
   39.8280   26.2460   31.6520 C   0  0  0  0  0  0  0  0  0  0  0  0
   39.2680   27.2660   32.5620 C   0  0  0  0  0  0  0  0  0  0  0  0
   38.1280   26.5170   33.1910 C   0  0  2  0  0  0  0  0  0  0  0  0
   38.4110   21.1460   35.4620 H   0  0  0  0  0  0  0  0  0  0  0  0
   38.9390   22.5620   33.5250 H   0  0  0  0  0  0  0  0  0  0  0  0
   37.3630   24.6010   37.6910 H   0  0  0  0  0  0  0  0  0  0  0  0
   39.4010   24.1300   31.8060 H   0  0  0  0  0  0  0  0  0  0  0  0
   40.6390   24.7570   32.9670 H   0  0  0  0  0  0  0  0  0  0  0  0
   40.9300   26.4760   31.5420 H   0  0  0  0  0  0  0  0  0  0  0  0
   39.3680   26.1790   30.6470 H   0  0  0  0  0  0  0  0  0  0  0  0
   40.0200   27.5900   33.2950 H   0  0  0  0  0  0  0  0  0  0  0  0
   38.9120   28.1890   32.0360 H   0  0  0  0  0  0  0  0  0  0  0  0
   37.4740   27.2630   34.3040 C   0  0  0  0  0  0  0  0  0  0  0  0
   38.4790   27.6100   35.1950 F   0  0  0  0  0  0  0  0  0  0  0  0
   36.5220   26.5870   35.0020 F   0  0  0  0  0  0  0  0  0  0  0  0
   37.0280   28.4560   33.7530 F   0  0  0  0  0  0  0  0  0  0  0  0
   37.1040   26.2480   32.1510 C   0  0  0  0  0  0  0  0  0  0  0  0
   37.5650   26.5630   31.1940 H   0  0  0  0  0  0  0  0  0  0  0  0
   36.2780   27.0090   32.2990 H   0  0  0  0  0  0  0  0  0  0  0  0
   36.6130   25.1400   32.3920 O   0  0  0  0  0  0  0  0  0  0  0  0
   36.0290   24.1190   31.7210 C   0  0  0  0  0  0  0  0  0  0  0  0
   34.9800   24.5540   31.1750 O   0  0  0  0  0  0  0  0  0  0  0  0
   35.9850   22.7190   31.2860 C   0  0  0  0  0  3  0  0  0  0  0  0
   37.4310   22.2680   31.0180 C   0  0  0  0  0  3  0  0  0  0  0  0
   37.7790   22.5820   30.0280 H   0  0  0  0  0  0  0  0  0  0  0  0
   37.3400   20.7550   31.0070 C   0  0  0  0  0  3  0  0  0  0  0  0
   38.2040   20.2930   30.4900 H   0  0  0  0  0  0  0  0  0  0  0  0
   37.2740   20.4240   32.3470 O   0  0  0  0  0  0  0  0  0  0  0  0
   36.0480   20.7270   32.8660 C   0  0  0  0  0  3  0  0  0  0  0  0
   36.2130   20.8230   33.9800 H   0  0  0  0  0  0  0  0  0  0  0  0
   35.3180   21.8870   32.3270 C   0  0  0  0  0  3  0  0  0  0  0  0
   34.3510   21.5220   31.9020 H   0  0  0  0  0  0  0  0  0  0  0  0
  1  6  1  0  0  0  0
  2  3  1  0  0  0  0
  2  1  2  0  0  0  0
  3  4  2  0  0  0  0
  4  5  1  0  0  0  0
  5 14  1  0  0  0  0
  6  5  2  0  0  0  0
  7  3  1  0  0  0  0
  8 16  1  0  0  0  0
  8  7  1  0  0  0  0
  9  8  1  0  0  0  0
  9 10  1  0  0  0  0
 10 11  1  0  0  0  0
 10 19  1  0  0  0  0
 11 25  1  6  0  0  0
 11  7  1  0  0  0  0
 11 21  1  0  0  0  0
 12  1  1  0  0  0  0
 13  2  1  0  0  0  0
 15  8  1  0  0  0  0
 17  9  1  0  0  0  0
 18  9  1  0  0  0  0
 20 10  1  0  0  0  0
 21 23  1  0  0  0  0
 21 22  1  0  0  0  0
 24 21  1  0  0  0  0
 25 27  1  0  0  0  0
 25 28  1  0  0  0  0
 26 25  1  0  0  0  0
 29 28  1  0  0  0  0
 30 29  2  0  0  0  0
 31 29  1  0  0  0  0
 31 39  1  0  0  0  0
 32 31  1  0  0  0  0
 33 32  1  0  0  0  0
 34 32  1  0  0  0  0
 34 36  1  0  0  0  0
 35 34  1  0  0  0  0
 36 37  1  0  0  0  0
 37 38  1  0  0  0  0
 39 37  1  0  0  0  0
 40 39  1  0  0  0  0
M  END
>  <minimizedAffinity>
-5.37254858

$$$$

 OpenBabel03272507283D

 40 42  0  0  1  0  0  0  0  0999 V2000
   41.4700   21.8790   36.1550 C   0  0  0  0  0  0  0  0  0  0  0  0
   41.2500   22.9440   35.2660 C   0  0  0  0  0  0  0  0  0  0  0  0
   40.2730   23.8920   35.6050 C   0  0  0  0  0  0  0  0  0  0  0  0
   39.6120   23.7240   36.7520 N   0  0  0  0  0  0  0  0  0  0  0  0
   39.8410   22.6930   37.5860 C   0  0  0  0  0  0  0  0  0  0  0  0
   40.7640   21.7840   37.2800 N   0  0  0  0  0  0  0  0  0  0  0  0
   40.0130   24.9760   34.7490 N   0  0  0  0  0  0  0  0  0  0  0  0
   40.9840   25.5990   33.8420 C   0  0  0  0  0  0  0  0  0  0  0  0
   40.3410   26.8450   33.3130 C   0  0  0  0  0  0  0  0  0  0  0  0
   39.2520   27.0920   34.2800 C   0  0  0  0  0  0  0  0  0  0  0  0
   38.7840   25.6940   34.5730 C   0  0  2  0  0  0  0  0  0  0  0  0
   42.2110   21.1570   35.8990 H   0  0  0  0  0  0  0  0  0  0  0  0
   41.8230   23.0230   34.3500 H   0  0  0  0  0  0  0  0  0  0  0  0
   39.2180   22.6930   38.4860 H   0  0  0  0  0  0  0  0  0  0  0  0
   41.2830   24.9170   33.0270 H   0  0  0  0  0  0  0  0  0  0  0  0
   41.8530   25.8530   34.4680 H   0  0  0  0  0  0  0  0  0  0  0  0
   41.0780   27.6940   33.4280 H   0  0  0  0  0  0  0  0  0  0  0  0
   40.0440   26.7620   32.2500 H   0  0  0  0  0  0  0  0  0  0  0  0
   39.6310   27.6080   35.1720 H   0  0  0  0  0  0  0  0  0  0  0  0
   38.4220   27.7230   33.8700 H   0  0  0  0  0  0  0  0  0  0  0  0
   37.7820   25.6260   35.6750 C   0  0  0  0  0  0  0  0  0  0  0  0
   38.3430   26.2750   36.7640 F   0  0  0  0  0  0  0  0  0  0  0  0
   37.4210   24.3790   36.0810 F   0  0  0  0  0  0  0  0  0  0  0  0
   36.7160   26.4170   35.2690 F   0  0  0  0  0  0  0  0  0  0  0  0
   38.1640   25.1330   33.3480 C   0  0  0  0  0  0  0  0  0  0  0  0
   38.7950   25.4870   32.5080 H   0  0  0  0  0  0  0  0  0  0  0  0
   37.1910   25.6910   33.1870 H   0  0  0  0  0  0  0  0  0  0  0  0
   37.8650   23.9590   33.5880 O   0  0  0  0  0  0  0  0  0  0  0  0
   37.4660   22.8520   32.9150 C   0  0  0  0  0  0  0  0  0  0  0  0
   37.9100   21.8410   33.5210 O   0  0  0  0  0  0  0  0  0  0  0  0
   36.7600   22.2010   31.8070 C   0  0  0  0  0  3  0  0  0  0  0  0
   37.5280   20.9170   31.4540 C   0  0  0  0  0  3  0  0  0  0  0  0
   38.3890   21.1210   30.8070 H   0  0  0  0  0  0  0  0  0  0  0  0
   36.5320   20.1130   30.6420 C   0  0  0  0  0  3  0  0  0  0  0  0
   37.0300   19.3380   30.0270 H   0  0  0  0  0  0  0  0  0  0  0  0
   35.6860   19.5830   31.5980 O   0  0  0  0  0  0  0  0  0  0  0  0
   34.8560   20.5410   32.1020 C   0  0  0  0  0  3  0  0  0  0  0  0
   34.5260   20.1480   33.1090 H   0  0  0  0  0  0  0  0  0  0  0  0
   35.3490   21.9260   32.2000 C   0  0  0  0  0  3  0  0  0  0  0  0
   34.6890   22.5740   31.5740 H   0  0  0  0  0  0  0  0  0  0  0  0
  1  6  1  0  0  0  0
  2  3  1  0  0  0  0
  2  1  2  0  0  0  0
  3  4  2  0  0  0  0
  4  5  1  0  0  0  0
  5 14  1  0  0  0  0
  6  5  2  0  0  0  0
  7  3  1  0  0  0  0
  8 16  1  0  0  0  0
  8  7  1  0  0  0  0
  9 17  1  0  0  0  0
  9  8  1  0  0  0  0
  9 10  1  0  0  0  0
 10 11  1  0  0  0  0
 10 19  1  0  0  0  0
 11 25  1  6  0  0  0
 11  7  1  0  0  0  0
 11 21  1  0  0  0  0
 12  1  1  0  0  0  0
 13  2  1  0  0  0  0
 15  8  1  0  0  0  0
 18  9  1  0  0  0  0
 20 10  1  0  0  0  0
 21 23  1  0  0  0  0
 21 22  1  0  0  0  0
 24 21  1  0  0  0  0
 25 28  1  0  0  0  0
 26 25  1  0  0  0  0
 27 25  1  0  0  0  0
 29 30  2  0  0  0  0
 29 28  1  0  0  0  0
 31 39  1  0  0  0  0
 31 29  1  0  0  0  0
 32 31  1  0  0  0  0
 33 32  1  0  0  0  0
 34 32  1  0  0  0  0
 34 36  1  0  0  0  0
 35 34  1  0  0  0  0
 36 37  1  0  0  0  0
 37 39  1  0  0  0  0
 37 38  1  0  0  0  0
 40 39  1  0  0  0  0
M  END
>  <minimizedAffinity>
-5.28645372

$$$$

 OpenBabel03272507283D

 40 42  0  0  1  0  0  0  0  0999 V2000
   35.9400   22.4320   31.2650 C   0  0  0  0  0  0  0  0  0  0  0  0
   35.8390   23.8030   31.5530 C   0  0  0  0  0  0  0  0  0  0  0  0
   36.9670   24.6070   31.3310 C   0  0  0  0  0  0  0  0  0  0  0  0
   38.0680   24.0190   30.8580 N   0  0  0  0  0  0  0  0  0  0  0  0
   38.1380   22.7020   30.5900 C   0  0  0  0  0  0  0  0  0  0  0  0
   37.0780   21.9250   30.7950 N   0  0  0  0  0  0  0  0  0  0  0  0
   36.9190   25.9840   31.6050 N   0  0  0  0  0  0  0  0  0  0  0  0
   35.7180   26.8250   31.5440 C   0  0  0  0  0  0  0  0  0  0  0  0
   36.1790   28.2440   31.6810 C   0  0  0  0  0  0  0  0  0  0  0  0
   37.6180   28.1580   31.3580 C   0  0  0  0  0  0  0  0  0  0  0  0
   37.9930   26.8500   31.9950 C   0  0  2  0  0  0  0  0  0  0  0  0
   35.0840   21.8200   31.4330 H   0  0  0  0  0  0  0  0  0  0  0  0
   34.9140   24.2180   31.9350 H   0  0  0  0  0  0  0  0  0  0  0  0
   39.1090   22.3710   30.2080 H   0  0  0  0  0  0  0  0  0  0  0  0
   34.9860   26.5570   32.3260 H   0  0  0  0  0  0  0  0  0  0  0  0
   35.2900   26.6560   30.5440 H   0  0  0  0  0  0  0  0  0  0  0  0
   35.6950   28.8490   30.8570 H   0  0  0  0  0  0  0  0  0  0  0  0
   35.9210   28.6910   32.6600 H   0  0  0  0  0  0  0  0  0  0  0  0
   37.7740   28.1610   30.2700 H   0  0  0  0  0  0  0  0  0  0  0  0
   38.2220   29.0040   31.7740 H   0  0  0  0  0  0  0  0  0  0  0  0
   39.3820   26.4140   31.6730 C   0  0  0  0  0  0  0  0  0  0  0  0
   39.4650   26.3360   30.2910 F   0  0  0  0  0  0  0  0  0  0  0  0
   39.7640   25.2090   32.1750 F   0  0  0  0  0  0  0  0  0  0  0  0
   40.2070   27.4660   32.0440 F   0  0  0  0  0  0  0  0  0  0  0  0
   37.8820   26.9890   33.4680 C   0  0  0  0  0  0  0  0  0  0  0  0
   36.8640   27.3880   33.6510 H   0  0  0  0  0  0  0  0  0  0  0  0
   38.5520   27.8530   33.7680 H   0  0  0  0  0  0  0  0  0  0  0  0
   38.3670   25.9720   33.9740 O   0  0  0  0  0  0  0  0  0  0  0  0
   38.1420   25.1560   35.0330 C   0  0  0  0  0  0  0  0  0  0  0  0
   37.5730   25.8270   35.9340 O   0  0  0  0  0  0  0  0  0  0  0  0
   38.2220   23.8500   35.6930 C   0  0  0  0  0  3  0  0  0  0  0  0
   39.6960   23.4120   35.6850 C   0  0  0  0  0  3  0  0  0  0  0  0
   39.9830   22.9630   34.7270 H   0  0  0  0  0  0  0  0  0  0  0  0
   39.7520   22.3170   36.7320 C   0  0  0  0  0  3  0  0  0  0  0  0
   40.6410   21.6680   36.6050 H   0  0  0  0  0  0  0  0  0  0  0  0
   39.7570   23.0100   37.9270 O   0  0  0  0  0  0  0  0  0  0  0  0
   38.5240   23.5280   38.1980 C   0  0  0  0  0  3  0  0  0  0  0  0
   38.7100   24.3810   38.9150 H   0  0  0  0  0  0  0  0  0  0  0  0
   37.6690   23.9470   37.0730 C   0  0  0  0  0  3  0  0  0  0  0  0
   36.7300   23.3410   37.1070 H   0  0  0  0  0  0  0  0  0  0  0  0
  1 12  1  0  0  0  0
  1  2  1  0  0  0  0
  2 13  1  0  0  0  0
  3  2  2  0  0  0  0
  3  7  1  0  0  0  0
  4  3  1  0  0  0  0
  5  6  1  0  0  0  0
  5  4  2  0  0  0  0
  6  1  2  0  0  0  0
  7 11  1  0  0  0  0
  8  7  1  0  0  0  0
  8  9  1  0  0  0  0
  8 15  1  0  0  0  0
  9 18  1  0  0  0  0
 10  9  1  0  0  0  0
 10 20  1  0  0  0  0
 10 11  1  0  0  0  0
 11 21  1  6  0  0  0
 11 25  1  0  0  0  0
 14  5  1  0  0  0  0
 16  8  1  0  0  0  0
 17  9  1  0  0  0  0
 19 10  1  0  0  0  0
 21 24  1  0  0  0  0
 21 23  1  0  0  0  0
 22 21  1  0  0  0  0
 25 26  1  0  0  0  0
 25 27  1  0  0  0  0
 25 28  1  0  0  0  0
 28 29  1  0  0  0  0
 29 31  1  0  0  0  0
 29 30  2  0  0  0  0
 31 39  1  0  0  0  0
 32 31  1  0  0  0  0
 32 34  1  0  0  0  0
 33 32  1  0  0  0  0
 34 36  1  0  0  0  0
 35 34  1  0  0  0  0
 36 37  1  0  0  0  0
 37 38  1  0  0  0  0
 39 40  1  0  0  0  0
 39 37  1  0  0  0  0
M  END
>  <minimizedAffinity>
-5.18105698

$$$$

 OpenBabel03272507283D

 40 42  0  0  1  0  0  0  0  0999 V2000
   37.4260   23.7950   37.1470 C   0  0  0  0  0  0  0  0  0  0  0  0
   38.2040   23.3970   36.0460 C   0  0  0  0  0  0  0  0  0  0  0  0
   39.4780   22.8680   36.2990 C   0  0  0  0  0  0  0  0  0  0  0  0
   39.8740   22.7760   37.5700 N   0  0  0  0  0  0  0  0  0  0  0  0
   39.1100   23.1650   38.6070 C   0  0  0  0  0  0  0  0  0  0  0  0
   37.8980   23.6690   38.3860 N   0  0  0  0  0  0  0  0  0  0  0  0
   40.2970   22.4560   35.2330 N   0  0  0  0  0  0  0  0  0  0  0  0
   39.8230   21.9550   33.9380 C   0  0  0  0  0  0  0  0  0  0  0  0
   41.0240   21.4240   33.2170 C   0  0  0  0  0  0  0  0  0  0  0  0
   42.0090   21.2400   34.3030 C   0  0  0  0  0  0  0  0  0  0  0  0
   41.7290   22.4350   35.1710 C   0  0  2  0  0  0  0  0  0  0  0  0
   36.4580   24.1980   36.9570 H   0  0  0  0  0  0  0  0  0  0  0  0
   37.8220   23.4980   35.0380 H   0  0  0  0  0  0  0  0  0  0  0  0
   39.5750   23.0260   39.5880 H   0  0  0  0  0  0  0  0  0  0  0  0
   39.3110   22.7400   33.3540 H   0  0  0  0  0  0  0  0  0  0  0  0
   39.1260   21.1370   34.1750 H   0  0  0  0  0  0  0  0  0  0  0  0
   40.7700   20.3930   32.8290 H   0  0  0  0  0  0  0  0  0  0  0  0
   41.3410   22.0640   32.3710 H   0  0  0  0  0  0  0  0  0  0  0  0
   41.8400   20.2880   34.8260 H   0  0  0  0  0  0  0  0  0  0  0  0
   43.0710   21.2310   33.9490 H   0  0  0  0  0  0  0  0  0  0  0  0
   42.4760   22.4150   36.4610 C   0  0  0  0  0  0  0  0  0  0  0  0
   42.1250   23.5710   37.1420 F   0  0  0  0  0  0  0  0  0  0  0  0
   43.8330   22.3890   36.3680 F   0  0  0  0  0  0  0  0  0  0  0  0
   41.9410   21.3660   37.1940 F   0  0  0  0  0  0  0  0  0  0  0  0
   42.1170   23.6610   34.4300 C   0  0  0  0  0  0  0  0  0  0  0  0
   42.1500   23.3640   33.3630 H   0  0  0  0  0  0  0  0  0  0  0  0
   43.2050   23.8610   34.6730 H   0  0  0  0  0  0  0  0  0  0  0  0
   41.4690   24.6000   34.9040 O   0  0  0  0  0  0  0  0  0  0  0  0
   41.0580   25.8380   34.5390 C   0  0  0  0  0  0  0  0  0  0  0  0
   42.0730   26.5740   34.4250 O   0  0  0  0  0  0  0  0  0  0  0  0
   40.0030   26.7980   34.1950 C   0  0  0  0  0  3  0  0  0  0  0  0
   39.1100   26.1460   33.1260 C   0  0  0  0  0  3  0  0  0  0  0  0
   39.5420   26.2370   32.1220 H   0  0  0  0  0  0  0  0  0  0  0  0
   37.8470   26.9840   33.1520 C   0  0  0  0  0  3  0  0  0  0  0  0
   37.2570   26.8710   32.2210 H   0  0  0  0  0  0  0  0  0  0  0  0
   37.1790   26.5300   34.2730 O   0  0  0  0  0  0  0  0  0  0  0  0
   37.7780   26.9770   35.4140 C   0  0  0  0  0  3  0  0  0  0  0  0
   37.4530   26.2570   36.2220 H   0  0  0  0  0  0  0  0  0  0  0  0
   39.2390   27.1690   35.4190 C   0  0  0  0  0  3  0  0  0  0  0  0
   39.4470   28.2450   35.6360 H   0  0  0  0  0  0  0  0  0  0  0  0
  1  6  1  0  0  0  0
  2  3  1  0  0  0  0
  2  1  2  0  0  0  0
  3  4  2  0  0  0  0
  4  5  1  0  0  0  0
  5 14  1  0  0  0  0
  6  5  2  0  0  0  0
  7  3  1  0  0  0  0
  8 16  1  0  0  0  0
  8  7  1  0  0  0  0
  9  8  1  0  0  0  0
  9 10  1  0  0  0  0
 10 19  1  0  0  0  0
 10 11  1  0  0  0  0
 11 25  1  6  0  0  0
 11  7  1  0  0  0  0
 11 21  1  0  0  0  0
 12  1  1  0  0  0  0
 13  2  1  0  0  0  0
 15  8  1  0  0  0  0
 17  9  1  0  0  0  0
 18  9  1  0  0  0  0
 20 10  1  0  0  0  0
 21 22  1  0  0  0  0
 21 24  1  0  0  0  0
 23 21  1  0  0  0  0
 25 27  1  0  0  0  0
 25 28  1  0  0  0  0
 26 25  1  0  0  0  0
 29 28  1  0  0  0  0
 30 29  2  0  0  0  0
 31 29  1  0  0  0  0
 31 39  1  0  0  0  0
 32 34  1  0  0  0  0
 32 31  1  0  0  0  0
 33 32  1  0  0  0  0
 34 36  1  0  0  0  0
 35 34  1  0  0  0  0
 36 37  1  0  0  0  0
 37 39  1  0  0  0  0
 37 38  1  0  0  0  0
 39 40  1  0  0  0  0
M  END
>  <minimizedAffinity>
-5.13856316

$$$$

 OpenBabel03272507283D

 40 42  0  0  1  0  0  0  0  0999 V2000
   39.3080   27.1340   33.8250 C   0  0  0  0  0  0  0  0  0  0  0  0
   38.7550   26.3050   34.8160 C   0  0  0  0  0  0  0  0  0  0  0  0
   39.5710   25.3080   35.3690 C   0  0  0  0  0  0  0  0  0  0  0  0
   40.8240   25.2070   34.9200 N   0  0  0  0  0  0  0  0  0  0  0  0
   41.3290   26.0140   33.9690 C   0  0  0  0  0  0  0  0  0  0  0  0
   40.5690   26.9660   33.4330 N   0  0  0  0  0  0  0  0  0  0  0  0
   39.0660   24.4500   36.3610 N   0  0  0  0  0  0  0  0  0  0  0  0
   38.0110   24.7880   37.3240 C   0  0  0  0  0  0  0  0  0  0  0  0
   37.9670   23.6720   38.3230 C   0  0  0  0  0  0  0  0  0  0  0  0
   39.2740   23.0090   38.1380 C   0  0  0  0  0  0  0  0  0  0  0  0
   39.4510   23.0990   36.6480 C   0  0  2  0  0  0  0  0  0  0  0  0
   38.6890   27.8930   33.4040 H   0  0  0  0  0  0  0  0  0  0  0  0
   37.7290   26.4400   35.1360 H   0  0  0  0  0  0  0  0  0  0  0  0
   42.3720   25.8060   33.7080 H   0  0  0  0  0  0  0  0  0  0  0  0
   37.0340   24.9330   36.8310 H   0  0  0  0  0  0  0  0  0  0  0  0
   38.3390   25.7210   37.8070 H   0  0  0  0  0  0  0  0  0  0  0  0
   37.9760   24.1290   39.3570 H   0  0  0  0  0  0  0  0  0  0  0  0
   37.0710   23.0300   38.2160 H   0  0  0  0  0  0  0  0  0  0  0  0
   40.0620   23.5390   38.6910 H   0  0  0  0  0  0  0  0  0  0  0  0
   39.2910   21.9460   38.4890 H   0  0  0  0  0  0  0  0  0  0  0  0
   40.7960   22.6520   36.1860 C   0  0  0  0  0  0  0  0  0  0  0  0
   41.7250   23.4560   36.8290 F   0  0  0  0  0  0  0  0  0  0  0  0
   41.0310   22.7420   34.8490 F   0  0  0  0  0  0  0  0  0  0  0  0
   40.9730   21.3780   36.7040 F   0  0  0  0  0  0  0  0  0  0  0  0
   38.4290   22.2440   35.9950 C   0  0  0  0  0  0  0  0  0  0  0  0
   37.7360   21.9410   36.8060 H   0  0  0  0  0  0  0  0  0  0  0  0
   38.9420   21.2710   35.7220 H   0  0  0  0  0  0  0  0  0  0  0  0
   38.1130   22.7890   34.9330 O   0  0  0  0  0  0  0  0  0  0  0  0
   37.9740   22.4650   33.6250 C   0  0  0  0  0  0  0  0  0  0  0  0
   38.5830   21.3810   33.4200 O   0  0  0  0  0  0  0  0  0  0  0  0
   37.4630   22.7340   32.2770 C   0  0  0  0  0  3  0  0  0  0  0  0
   36.0220   22.2000   32.2100 C   0  0  0  0  0  3  0  0  0  0  0  0
   35.9950   21.1200   32.0220 H   0  0  0  0  0  0  0  0  0  0  0  0
   35.4410   22.8850   30.9890 C   0  0  0  0  0  3  0  0  0  0  0  0
   34.5480   22.3560   30.6030 H   0  0  0  0  0  0  0  0  0  0  0  0
   35.1600   24.1620   31.4360 O   0  0  0  0  0  0  0  0  0  0  0  0
   36.3040   24.8900   31.5890 C   0  0  0  0  0  3  0  0  0  0  0  0
   36.0380   25.7110   32.3190 H   0  0  0  0  0  0  0  0  0  0  0  0
   37.5390   24.1930   31.9900 C   0  0  0  0  0  3  0  0  0  0  0  0
   38.2980   24.3420   31.1840 H   0  0  0  0  0  0  0  0  0  0  0  0
  1  2  1  0  0  0  0
  2 13  1  0  0  0  0
  2  3  2  0  0  0  0
  3  7  1  0  0  0  0
  4  3  1  0  0  0  0
  5  4  2  0  0  0  0
  6  1  2  0  0  0  0
  6  5  1  0  0  0  0
  7 11  1  0  0  0  0
  7  8  1  0  0  0  0
  8 16  1  0  0  0  0
  8  9  1  0  0  0  0
  9 17  1  0  0  0  0
 10  9  1  0  0  0  0
 10 20  1  0  0  0  0
 10 19  1  0  0  0  0
 11 25  1  6  0  0  0
 11 10  1  0  0  0  0
 12  1  1  0  0  0  0
 14  5  1  0  0  0  0
 15  8  1  0  0  0  0
 18  9  1  0  0  0  0
 21 11  1  0  0  0  0
 21 24  1  0  0  0  0
 21 22  1  0  0  0  0
 23 21  1  0  0  0  0
 25 26  1  0  0  0  0
 27 25  1  0  0  0  0
 28 25  1  0  0  0  0
 29 28  1  0  0  0  0
 30 29  2  0  0  0  0
 31 29  1  0  0  0  0
 32 31  1  0  0  0  0
 33 32  1  0  0  0  0
 34 36  1  0  0  0  0
 34 32  1  0  0  0  0
 35 34  1  0  0  0  0
 36 37  1  0  0  0  0
 37 39  1  0  0  0  0
 37 38  1  0  0  0  0
 39 31  1  0  0  0  0
 40 39  1  0  0  0  0
M  END
>  <minimizedAffinity>
-5.12606573

$$$$
