
 OpenBabel03272502303D

 25 26  0  0  0  0  0  0  0  0999 V2000
   36.6010   28.0010   33.0290 C   0  0  0  0  0  0  0  0  0  0  0  0
   37.3900   28.6390   32.5760 H   0  0  0  0  0  0  0  0  0  0  0  0
   35.8440   27.7500   32.2600 H   0  0  0  0  0  0  0  0  0  0  0  0
   35.5120   29.9450   34.0330 C   0  0  0  0  0  3  0  0  0  0  0  0
   35.9690   28.7330   34.1800 C   0  0  0  0  0  3  0  0  0  0  0  0
   35.0130   32.2730   36.8980 C   0  0  0  0  0  0  0  0  0  0  0  0
   35.6490   31.5820   35.8480 C   0  0  0  0  0  0  0  0  0  0  0  0
   34.9020   30.6680   35.1080 C   0  0  0  0  0  0  0  0  0  0  0  0
   33.5940   30.4710   35.4180 N   0  0  0  0  0  0  0  0  0  0  0  0
   33.0280   31.1460   36.4240 C   0  0  0  0  0  0  0  0  0  0  0  0
   33.7100   32.0400   37.1670 N   0  0  0  0  0  0  0  0  0  0  0  0
   35.5440   32.9980   37.5090 H   0  0  0  0  0  0  0  0  0  0  0  0
   36.7050   31.7900   35.6520 H   0  0  0  0  0  0  0  0  0  0  0  0
   31.9760   30.9200   36.5950 H   0  0  0  0  0  0  0  0  0  0  0  0
   37.2980   26.4280   33.6170 S   0  0  0  0  0  0  0  0  0  0  0  0
   37.7020   26.5850   35.3690 C   0  0  0  0  0  3  0  0  0  0  0  0
   37.8240   25.1930   35.9300 C   0  0  0  0  0  3  0  0  0  0  0  0
   36.9010   24.6350   35.6140 H   0  0  0  0  0  0  0  0  0  0  0  0
   38.9980   24.4400   35.3520 C   0  0  0  0  0  3  0  0  0  0  0  0
   38.7650   23.9840   34.3640 H   0  0  0  0  0  0  0  0  0  0  0  0
   40.1610   25.2030   35.3030 O   0  0  0  0  0  0  0  0  0  0  0  0
   39.9840   26.3870   34.5820 C   0  0  0  0  0  3  0  0  0  0  0  0
   39.5310   26.2020   33.5910 H   0  0  0  0  0  0  0  0  0  0  0  0
   39.0680   27.2430   35.4670 C   0  0  0  0  0  3  0  0  0  0  0  0
   39.0530   28.2950   35.1230 H   0  0  0  0  0  0  0  0  0  0  0  0
  1 15  1  0  0  0  0
  1  5  1  0  0  0  0
  2  1  1  0  0  0  0
  3  1  1  0  0  0  0
  4  5  2  0  0  0  0
  4  8  1  0  0  0  0
  6 11  1  0  0  0  0
  6 12  1  0  0  0  0
  7  6  2  0  0  0  0
  8  9  2  0  0  0  0
  8  7  1  0  0  0  0
  9 10  1  0  0  0  0
 10 14  1  0  0  0  0
 10 11  2  0  0  0  0
 13  7  1  0  0  0  0
 15 16  1  0  0  0  0
 16 24  1  0  0  0  0
 16 17  1  0  0  0  0
 18 17  1  0  0  0  0
 19 17  1  0  0  0  0
 20 19  1  0  0  0  0
 21 19  1  0  0  0  0
 22 21  1  0  0  0  0
 22 24  1  0  0  0  0
 23 22  1  0  0  0  0
 25 24  1  0  0  0  0
M  END
>  <minimizedAffinity>
-4.28814268

$$$$

 OpenBabel03272502303D

 25 26  0  0  0  0  0  0  0  0999 V2000
   37.2460   27.8370   34.7960 C   0  0  0  0  0  0  0  0  0  0  0  0
   37.6040   28.8650   35.0170 H   0  0  0  0  0  0  0  0  0  0  0  0
   36.1540   27.7800   34.9810 H   0  0  0  0  0  0  0  0  0  0  0  0
   37.7800   25.5720   35.5430 C   0  0  0  0  0  3  0  0  0  0  0  0
   37.9840   26.8550   35.6610 C   0  0  0  0  0  3  0  0  0  0  0  0
   38.7470   23.4040   38.4140 C   0  0  0  0  0  0  0  0  0  0  0  0
   38.0420   24.3560   37.6510 C   0  0  0  0  0  0  0  0  0  0  0  0
   38.4690   24.6110   36.3500 C   0  0  0  0  0  0  0  0  0  0  0  0
   39.5440   23.9400   35.8580 N   0  0  0  0  0  0  0  0  0  0  0  0
   40.1860   23.0440   36.6150 C   0  0  0  0  0  0  0  0  0  0  0  0
   39.8090   22.7640   37.8790 N   0  0  0  0  0  0  0  0  0  0  0  0
   38.4600   23.1630   39.4340 H   0  0  0  0  0  0  0  0  0  0  0  0
   37.1850   24.8590   38.1090 H   0  0  0  0  0  0  0  0  0  0  0  0
   41.0340   22.5590   36.1340 H   0  0  0  0  0  0  0  0  0  0  0  0
   37.5060   27.4220   33.0450 S   0  0  0  0  0  0  0  0  0  0  0  0
   35.9130   27.4330   32.1980 C   0  0  0  0  0  3  0  0  0  0  0  0
   35.3830   28.8410   32.2530 C   0  0  0  0  0  3  0  0  0  0  0  0
   35.4510   29.1710   33.3260 H   0  0  0  0  0  0  0  0  0  0  0  0
   36.2260   29.8060   31.4550 C   0  0  0  0  0  3  0  0  0  0  0  0
   37.1180   30.1570   32.0180 H   0  0  0  0  0  0  0  0  0  0  0  0
   36.5730   29.3130   30.2000 O   0  0  0  0  0  0  0  0  0  0  0  0
   37.2410   28.0890   30.2820 C   0  0  0  0  0  3  0  0  0  0  0  0
   38.0850   28.1270   30.9940 H   0  0  0  0  0  0  0  0  0  0  0  0
   36.1670   27.0930   30.7390 C   0  0  0  0  0  3  0  0  0  0  0  0
   36.5090   26.0490   30.6050 H   0  0  0  0  0  0  0  0  0  0  0  0
  1  3  1  0  0  0  0
  1  2  1  0  0  0  0
  1  5  1  0  0  0  0
  4  5  2  0  0  0  0
  4  8  1  0  0  0  0
  6 12  1  0  0  0  0
  7 13  1  0  0  0  0
  7  6  2  0  0  0  0
  8  7  1  0  0  0  0
  9  8  2  0  0  0  0
  9 10  1  0  0  0  0
 10 11  2  0  0  0  0
 11  6  1  0  0  0  0
 14 10  1  0  0  0  0
 15  1  1  0  0  0  0
 16 17  1  0  0  0  0
 16 15  1  0  0  0  0
 17 18  1  0  0  0  0
 19 20  1  0  0  0  0
 19 17  1  0  0  0  0
 21 22  1  0  0  0  0
 21 19  1  0  0  0  0
 22 24  1  0  0  0  0
 22 23  1  0  0  0  0
 24 16  1  0  0  0  0
 25 24  1  0  0  0  0
M  END
>  <minimizedAffinity>
-4.19876003

$$$$

 OpenBabel03272502303D

 25 26  0  0  0  0  0  0  0  0999 V2000
   37.7120   23.4130   32.1670 C   0  0  0  0  0  0  0  0  0  0  0  0
   38.5560   23.9060   31.6380 H   0  0  0  0  0  0  0  0  0  0  0  0
   36.7540   23.8440   31.8130 H   0  0  0  0  0  0  0  0  0  0  0  0
   38.5580   22.7680   34.3670 C   0  0  0  0  0  3  0  0  0  0  0  0
   37.8690   23.6110   33.6480 C   0  0  0  0  0  3  0  0  0  0  0  0
   40.0540   22.7320   37.7790 C   0  0  0  0  0  0  0  0  0  0  0  0
   39.9250   22.5580   36.3870 C   0  0  0  0  0  0  0  0  0  0  0  0
   38.7280   22.9310   35.7800 C   0  0  0  0  0  0  0  0  0  0  0  0
   37.7280   23.4490   36.5410 N   0  0  0  0  0  0  0  0  0  0  0  0
   37.8900   23.5970   37.8600 C   0  0  0  0  0  0  0  0  0  0  0  0
   39.0300   23.2500   38.4910 N   0  0  0  0  0  0  0  0  0  0  0  0
   40.9630   22.4600   38.3070 H   0  0  0  0  0  0  0  0  0  0  0  0
   40.7700   22.1360   35.8350 H   0  0  0  0  0  0  0  0  0  0  0  0
   37.0330   24.0200   38.3840 H   0  0  0  0  0  0  0  0  0  0  0  0
   37.6620   21.6340   31.7920 S   0  0  0  0  0  0  0  0  0  0  0  0
   36.0070   21.2050   31.2130 C   0  0  0  0  0  3  0  0  0  0  0  0
   36.0260   19.7480   30.8360 C   0  0  0  0  0  3  0  0  0  0  0  0
   36.9130   19.6000   30.1610 H   0  0  0  0  0  0  0  0  0  0  0  0
   36.2400   18.8470   32.0280 C   0  0  0  0  0  3  0  0  0  0  0  0
   37.3130   18.7540   32.3030 H   0  0  0  0  0  0  0  0  0  0  0  0
   35.4590   19.2030   33.1240 O   0  0  0  0  0  0  0  0  0  0  0  0
   35.6730   20.5280   33.5140 C   0  0  0  0  0  3  0  0  0  0  0  0
   36.7470   20.7510   33.6420 H   0  0  0  0  0  0  0  0  0  0  0  0
   35.0550   21.3660   32.3870 C   0  0  0  0  0  3  0  0  0  0  0  0
   34.9410   22.4220   32.6930 H   0  0  0  0  0  0  0  0  0  0  0  0
  1  5  1  0  0  0  0
  2  1  1  0  0  0  0
  3  1  1  0  0  0  0
  4  8  1  0  0  0  0
  5  4  2  0  0  0  0
  6 12  1  0  0  0  0
  6 11  1  0  0  0  0
  7  6  2  0  0  0  0
  8  7  1  0  0  0  0
  8  9  2  0  0  0  0
  9 10  1  0  0  0  0
 10 14  1  0  0  0  0
 10 11  2  0  0  0  0
 13  7  1  0  0  0  0
 15  1  1  0  0  0  0
 16 15  1  0  0  0  0
 16 24  1  0  0  0  0
 17 16  1  0  0  0  0
 17 19  1  0  0  0  0
 18 17  1  0  0  0  0
 19 20  1  0  0  0  0
 19 21  1  0  0  0  0
 21 22  1  0  0  0  0
 22 23  1  0  0  0  0
 24 25  1  0  0  0  0
 24 22  1  0  0  0  0
M  END
>  <minimizedAffinity>
-4.14570045

$$$$

 OpenBabel03272502303D

 25 26  0  0  0  0  0  0  0  0999 V2000
   37.5470   26.0960   35.3780 C   0  0  0  0  0  0  0  0  0  0  0  0
   36.5730   25.5900   35.5530 H   0  0  0  0  0  0  0  0  0  0  0  0
   37.6860   26.8960   36.1330 H   0  0  0  0  0  0  0  0  0  0  0  0
   36.8850   27.7360   33.6920 C   0  0  0  0  0  3  0  0  0  0  0  0
   37.5700   26.6670   33.9880 C   0  0  0  0  0  3  0  0  0  0  0  0
   35.9800   29.8060   30.7290 C   0  0  0  0  0  0  0  0  0  0  0  0
   35.9440   29.2700   32.0310 C   0  0  0  0  0  0  0  0  0  0  0  0
   36.8880   28.3060   32.3780 C   0  0  0  0  0  0  0  0  0  0  0  0
   37.8090   27.9140   31.4580 N   0  0  0  0  0  0  0  0  0  0  0  0
   37.8080   28.4470   30.2310 C   0  0  0  0  0  0  0  0  0  0  0  0
   36.9140   29.3820   29.8510 N   0  0  0  0  0  0  0  0  0  0  0  0
   35.2690   30.5600   30.4020 H   0  0  0  0  0  0  0  0  0  0  0  0
   35.1760   29.6310   32.7220 H   0  0  0  0  0  0  0  0  0  0  0  0
   38.5830   28.0700   29.5650 H   0  0  0  0  0  0  0  0  0  0  0  0
   38.9290   24.9330   35.5820 S   0  0  0  0  0  0  0  0  0  0  0  0
   38.2650   23.2830   35.8900 C   0  0  0  0  0  3  0  0  0  0  0  0
   39.4250   22.3860   36.2280 C   0  0  0  0  0  3  0  0  0  0  0  0
   40.1970   22.5400   35.4250 H   0  0  0  0  0  0  0  0  0  0  0  0
   40.0840   22.7620   37.5330 C   0  0  0  0  0  3  0  0  0  0  0  0
   40.8080   23.5980   37.4170 H   0  0  0  0  0  0  0  0  0  0  0  0
   39.1670   23.0160   38.5500 O   0  0  0  0  0  0  0  0  0  0  0  0
   38.2540   24.0130   38.1990 C   0  0  0  0  0  3  0  0  0  0  0  0
   38.7600   24.9200   37.8210 H   0  0  0  0  0  0  0  0  0  0  0  0
   37.3750   23.3700   37.1190 C   0  0  0  0  0  3  0  0  0  0  0  0
   36.4640   23.9700   36.9360 H   0  0  0  0  0  0  0  0  0  0  0  0
  1  2  1  0  0  0  0
  1 15  1  0  0  0  0
  1  3  1  0  0  0  0
  4  5  2  0  0  0  0
  5  1  1  0  0  0  0
  6  7  1  0  0  0  0
  7  8  2  0  0  0  0
  7 13  1  0  0  0  0
  8  4  1  0  0  0  0
  9  8  1  0  0  0  0
 10  9  2  0  0  0  0
 11 10  1  0  0  0  0
 11  6  2  0  0  0  0
 12  6  1  0  0  0  0
 14 10  1  0  0  0  0
 15 16  1  0  0  0  0
 16 17  1  0  0  0  0
 16 24  1  0  0  0  0
 17 19  1  0  0  0  0
 18 17  1  0  0  0  0
 19 21  1  0  0  0  0
 20 19  1  0  0  0  0
 22 21  1  0  0  0  0
 23 22  1  0  0  0  0
 24 22  1  0  0  0  0
 25 24  1  0  0  0  0
M  END
>  <minimizedAffinity>
-4.0937295

$$$$

 OpenBabel03272502303D

 25 26  0  0  0  0  0  0  0  0999 V2000
   37.9990   24.5100   32.3410 C   0  0  0  0  0  0  0  0  0  0  0  0
   37.7310   23.6850   31.6470 H   0  0  0  0  0  0  0  0  0  0  0  0
   38.9590   24.9630   32.0210 H   0  0  0  0  0  0  0  0  0  0  0  0
   38.6230   24.6890   34.6970 C   0  0  0  0  0  3  0  0  0  0  0  0
   38.1050   23.9710   33.7400 C   0  0  0  0  0  3  0  0  0  0  0  0
   38.0200   24.1790   38.3380 C   0  0  0  0  0  0  0  0  0  0  0  0
   37.8780   24.6800   37.0290 C   0  0  0  0  0  0  0  0  0  0  0  0
   38.7360   24.2050   36.0400 C   0  0  0  0  0  0  0  0  0  0  0  0
   39.6770   23.2790   36.3630 N   0  0  0  0  0  0  0  0  0  0  0  0
   39.7810   22.8300   37.6190 C   0  0  0  0  0  0  0  0  0  0  0  0
   38.9730   23.2610   38.6080 N   0  0  0  0  0  0  0  0  0  0  0  0
   37.3800   24.5130   39.1500 H   0  0  0  0  0  0  0  0  0  0  0  0
   37.0980   25.4230   36.8380 H   0  0  0  0  0  0  0  0  0  0  0  0
   40.5640   22.0910   37.7800 H   0  0  0  0  0  0  0  0  0  0  0  0
   36.7500   25.8300   32.2910 S   0  0  0  0  0  0  0  0  0  0  0  0
   37.5620   27.4160   32.5820 C   0  0  0  0  0  3  0  0  0  0  0  0
   37.9810   27.9600   31.2420 C   0  0  0  0  0  3  0  0  0  0  0  0
   38.5330   27.1340   30.7160 H   0  0  0  0  0  0  0  0  0  0  0  0
   36.8020   28.3110   30.3680 C   0  0  0  0  0  3  0  0  0  0  0  0
   36.3860   27.4240   29.8400 H   0  0  0  0  0  0  0  0  0  0  0  0
   35.8100   29.0110   31.0510 O   0  0  0  0  0  0  0  0  0  0  0  0
   35.3520   28.3160   32.1720 C   0  0  0  0  0  3  0  0  0  0  0  0
   35.0720   27.2760   31.9260 H   0  0  0  0  0  0  0  0  0  0  0  0
   36.5240   28.3620   33.1610 C   0  0  0  0  0  3  0  0  0  0  0  0
   36.2020   28.0620   34.1750 H   0  0  0  0  0  0  0  0  0  0  0  0
  1  5  1  0  0  0  0
  2  1  1  0  0  0  0
  3  1  1  0  0  0  0
  4  8  1  0  0  0  0
  5  4  2  0  0  0  0
  6 11  1  0  0  0  0
  6 12  1  0  0  0  0
  7  6  2  0  0  0  0
  8  9  2  0  0  0  0
  8  7  1  0  0  0  0
  9 10  1  0  0  0  0
 10 14  1  0  0  0  0
 10 11  2  0  0  0  0
 13  7  1  0  0  0  0
 15  1  1  0  0  0  0
 15 16  1  0  0  0  0
 16 24  1  0  0  0  0
 17 16  1  0  0  0  0
 18 17  1  0  0  0  0
 19 21  1  0  0  0  0
 19 17  1  0  0  0  0
 20 19  1  0  0  0  0
 21 22  1  0  0  0  0
 22 24  1  0  0  0  0
 23 22  1  0  0  0  0
 24 25  1  0  0  0  0
M  END
>  <minimizedAffinity>
-4.07966471

$$$$

 OpenBabel03272502303D

 25 26  0  0  0  0  0  0  0  0999 V2000
   36.6110   25.3400   31.5930 C   0  0  0  0  0  0  0  0  0  0  0  0
   35.5790   25.6060   31.2780 H   0  0  0  0  0  0  0  0  0  0  0  0
   37.3220   25.6070   30.7850 H   0  0  0  0  0  0  0  0  0  0  0  0
   35.6800   23.0800   31.6010 C   0  0  0  0  0  3  0  0  0  0  0  0
   36.6760   23.8690   31.8950 C   0  0  0  0  0  3  0  0  0  0  0  0
   36.0250   19.3970   31.1600 C   0  0  0  0  0  0  0  0  0  0  0  0
   36.0020   20.7720   30.8530 C   0  0  0  0  0  0  0  0  0  0  0  0
   35.7140   21.6750   31.8730 C   0  0  0  0  0  0  0  0  0  0  0  0
   35.4650   21.2080   33.1250 N   0  0  0  0  0  0  0  0  0  0  0  0
   35.4960   19.8950   33.3760 C   0  0  0  0  0  0  0  0  0  0  0  0
   35.7700   18.9840   32.4200 N   0  0  0  0  0  0  0  0  0  0  0  0
   36.2440   18.6470   30.4050 H   0  0  0  0  0  0  0  0  0  0  0  0
   36.2130   21.0790   29.8230 H   0  0  0  0  0  0  0  0  0  0  0  0
   35.2830   19.6180   34.4070 H   0  0  0  0  0  0  0  0  0  0  0  0
   37.1040   26.2870   33.0650 S   0  0  0  0  0  0  0  0  0  0  0  0
   38.0330   25.2060   34.1720 C   0  0  0  0  0  3  0  0  0  0  0  0
   39.4960   25.4640   33.9300 C   0  0  0  0  0  3  0  0  0  0  0  0
   39.6570   25.4020   32.8200 H   0  0  0  0  0  0  0  0  0  0  0  0
   39.9120   26.8540   34.3460 C   0  0  0  0  0  3  0  0  0  0  0  0
   39.6850   27.6160   33.5690 H   0  0  0  0  0  0  0  0  0  0  0  0
   39.4040   27.2230   35.5890 O   0  0  0  0  0  0  0  0  0  0  0  0
   38.0100   27.1350   35.6350 C   0  0  0  0  0  3  0  0  0  0  0  0
   37.5360   27.6600   34.7870 H   0  0  0  0  0  0  0  0  0  0  0  0
   37.7180   25.6290   35.5960 C   0  0  0  0  0  3  0  0  0  0  0  0
   36.6680   25.4200   35.8740 H   0  0  0  0  0  0  0  0  0  0  0  0
  1  5  1  0  0  0  0
  1 15  1  0  0  0  0
  2  1  1  0  0  0  0
  3  1  1  0  0  0  0
  4  8  1  0  0  0  0
  4  5  2  0  0  0  0
  6 11  1  0  0  0  0
  7  6  2  0  0  0  0
  7  8  1  0  0  0  0
  8  9  2  0  0  0  0
  9 10  1  0  0  0  0
 10 14  1  0  0  0  0
 11 10  2  0  0  0  0
 12  6  1  0  0  0  0
 13  7  1  0  0  0  0
 15 16  1  0  0  0  0
 16 24  1  0  0  0  0
 17 16  1  0  0  0  0
 17 19  1  0  0  0  0
 18 17  1  0  0  0  0
 19 21  1  0  0  0  0
 20 19  1  0  0  0  0
 21 22  1  0  0  0  0
 23 22  1  0  0  0  0
 24 22  1  0  0  0  0
 24 25  1  0  0  0  0
M  END
>  <minimizedAffinity>
-4.00307512

$$$$

 OpenBabel03272502303D

 25 26  0  0  0  0  0  0  0  0999 V2000
   34.5280   30.1590   33.4290 C   0  0  0  0  0  0  0  0  0  0  0  0
   33.5980   29.6800   33.0540 H   0  0  0  0  0  0  0  0  0  0  0  0
   35.1040   30.5630   32.5720 H   0  0  0  0  0  0  0  0  0  0  0  0
   36.2990   28.4850   33.6020 C   0  0  0  0  0  3  0  0  0  0  0  0
   35.3390   29.1460   34.1870 C   0  0  0  0  0  3  0  0  0  0  0  0
   38.0130   25.3010   34.5000 C   0  0  0  0  0  0  0  0  0  0  0  0
   37.2250   26.2260   33.7880 C   0  0  0  0  0  0  0  0  0  0  0  0
   37.0920   27.5150   34.2970 C   0  0  0  0  0  0  0  0  0  0  0  0
   37.7220   27.8420   35.4570 N   0  0  0  0  0  0  0  0  0  0  0  0
   38.4610   26.9340   36.1040 C   0  0  0  0  0  0  0  0  0  0  0  0
   38.6170   25.6750   35.6490 N   0  0  0  0  0  0  0  0  0  0  0  0
   38.1530   24.2810   34.1520 H   0  0  0  0  0  0  0  0  0  0  0  0
   36.7470   25.8970   32.8600 H   0  0  0  0  0  0  0  0  0  0  0  0
   38.9250   27.2890   37.0230 H   0  0  0  0  0  0  0  0  0  0  0  0
   34.1400   31.5650   34.5150 S   0  0  0  0  0  0  0  0  0  0  0  0
   35.2600   31.5380   35.9300 C   0  0  0  0  0  3  0  0  0  0  0  0
   36.4160   32.4470   35.6070 C   0  0  0  0  0  3  0  0  0  0  0  0
   36.7890   32.1470   34.5900 H   0  0  0  0  0  0  0  0  0  0  0  0
   35.9990   33.8930   35.5020 C   0  0  0  0  0  3  0  0  0  0  0  0
   35.5710   34.1410   34.5050 H   0  0  0  0  0  0  0  0  0  0  0  0
   35.1540   34.2910   36.5350 O   0  0  0  0  0  0  0  0  0  0  0  0
   34.0090   33.4940   36.6140 C   0  0  0  0  0  3  0  0  0  0  0  0
   33.5030   33.4020   35.6360 H   0  0  0  0  0  0  0  0  0  0  0  0
   34.5180   32.1360   37.1130 C   0  0  0  0  0  3  0  0  0  0  0  0
   33.6810   31.4960   37.4500 H   0  0  0  0  0  0  0  0  0  0  0  0
  1  5  1  0  0  0  0
  1 15  1  0  0  0  0
  2  1  1  0  0  0  0
  3  1  1  0  0  0  0
  4  5  2  0  0  0  0
  4  8  1  0  0  0  0
  6 11  1  0  0  0  0
  7  8  1  0  0  0  0
  7  6  2  0  0  0  0
  8  9  2  0  0  0  0
  9 10  1  0  0  0  0
 10 14  1  0  0  0  0
 11 10  2  0  0  0  0
 12  6  1  0  0  0  0
 13  7  1  0  0  0  0
 15 16  1  0  0  0  0
 16 24  1  0  0  0  0
 17 16  1  0  0  0  0
 18 17  1  0  0  0  0
 19 17  1  0  0  0  0
 19 21  1  0  0  0  0
 20 19  1  0  0  0  0
 21 22  1  0  0  0  0
 22 24  1  0  0  0  0
 23 22  1  0  0  0  0
 24 25  1  0  0  0  0
M  END
>  <minimizedAffinity>
-3.94479132

$$$$

 OpenBabel03272502303D

 25 26  0  0  0  0  0  0  0  0999 V2000
   36.0030   25.1450   31.5570 C   0  0  0  0  0  0  0  0  0  0  0  0
   35.1210   25.7540   31.8510 H   0  0  0  0  0  0  0  0  0  0  0  0
   36.3710   25.4850   30.5690 H   0  0  0  0  0  0  0  0  0  0  0  0
   36.5210   22.7580   31.4750 C   0  0  0  0  0  3  0  0  0  0  0  0
   35.6130   23.6940   31.5100 C   0  0  0  0  0  3  0  0  0  0  0  0
   34.7860   19.5170   32.0820 C   0  0  0  0  0  0  0  0  0  0  0  0
   35.0870   20.8920   32.1490 C   0  0  0  0  0  0  0  0  0  0  0  0
   36.1820   21.3670   31.4320 C   0  0  0  0  0  0  0  0  0  0  0  0
   36.9230   20.4990   30.6930 N   0  0  0  0  0  0  0  0  0  0  0  0
   36.6040   19.2000   30.6570 C   0  0  0  0  0  0  0  0  0  0  0  0
   35.5540   18.6960   31.3340 N   0  0  0  0  0  0  0  0  0  0  0  0
   33.9440   19.0900   32.6200 H   0  0  0  0  0  0  0  0  0  0  0  0
   34.4480   21.5350   32.7630 H   0  0  0  0  0  0  0  0  0  0  0  0
   37.2560   18.5840   30.0390 H   0  0  0  0  0  0  0  0  0  0  0  0
   37.3690   25.3710   32.7360 S   0  0  0  0  0  0  0  0  0  0  0  0
   37.9890   27.0600   32.5970 C   0  0  0  0  0  3  0  0  0  0  0  0
   36.9390   27.9740   33.1710 C   0  0  0  0  0  3  0  0  0  0  0  0
   35.9640   27.6910   32.6870 H   0  0  0  0  0  0  0  0  0  0  0  0
   36.7530   27.7760   34.6560 C   0  0  0  0  0  3  0  0  0  0  0  0
   36.0850   26.9180   34.8890 H   0  0  0  0  0  0  0  0  0  0  0  0
   37.9590   27.6890   35.3460 O   0  0  0  0  0  0  0  0  0  0  0  0
   38.7760   26.6690   34.8530 C   0  0  0  0  0  3  0  0  0  0  0  0
   38.2360   25.7080   34.7790 H   0  0  0  0  0  0  0  0  0  0  0  0
   39.2250   27.1680   33.4730 C   0  0  0  0  0  3  0  0  0  0  0  0
   40.0680   26.5650   33.0860 H   0  0  0  0  0  0  0  0  0  0  0  0
  1  2  1  0  0  0  0
  1 15  1  0  0  0  0
  3  1  1  0  0  0  0
  4  5  2  0  0  0  0
  5  1  1  0  0  0  0
  6  7  1  0  0  0  0
  6 12  1  0  0  0  0
  7 13  1  0  0  0  0
  8  4  1  0  0  0  0
  8  7  2  0  0  0  0
  9  8  1  0  0  0  0
 10  9  2  0  0  0  0
 10 11  1  0  0  0  0
 11  6  2  0  0  0  0
 14 10  1  0  0  0  0
 16 15  1  0  0  0  0
 16 17  1  0  0  0  0
 16 24  1  0  0  0  0
 17 19  1  0  0  0  0
 18 17  1  0  0  0  0
 19 20  1  0  0  0  0
 19 21  1  0  0  0  0
 22 21  1  0  0  0  0
 23 22  1  0  0  0  0
 24 22  1  0  0  0  0
 25 24  1  0  0  0  0
M  END
>  <minimizedAffinity>
-3.94207501

$$$$

 OpenBabel03272502303D

 25 26  0  0  0  0  0  0  0  0999 V2000
   37.5680   24.8500   30.8070 C   0  0  0  0  0  0  0  0  0  0  0  0
   37.2830   25.0730   29.7560 H   0  0  0  0  0  0  0  0  0  0  0  0
   38.6290   25.1280   30.9670 H   0  0  0  0  0  0  0  0  0  0  0  0
   36.2470   22.9660   31.6300 C   0  0  0  0  0  3  0  0  0  0  0  0
   37.3520   23.3890   31.0820 C   0  0  0  0  0  3  0  0  0  0  0  0
   35.8810   19.2850   31.1900 C   0  0  0  0  0  0  0  0  0  0  0  0
   36.1210   20.6380   30.8820 C   0  0  0  0  0  0  0  0  0  0  0  0
   36.0110   21.5800   31.9030 C   0  0  0  0  0  0  0  0  0  0  0  0
   35.6780   21.1700   33.1550 N   0  0  0  0  0  0  0  0  0  0  0  0
   35.4570   19.8750   33.4060 C   0  0  0  0  0  0  0  0  0  0  0  0
   35.5520   18.9280   32.4500 N   0  0  0  0  0  0  0  0  0  0  0  0
   35.9520   18.5060   30.4350 H   0  0  0  0  0  0  0  0  0  0  0  0
   36.3860   20.8990   29.8530 H   0  0  0  0  0  0  0  0  0  0  0  0
   35.1960   19.6440   34.4370 H   0  0  0  0  0  0  0  0  0  0  0  0
   36.5820   25.8410   31.9700 S   0  0  0  0  0  0  0  0  0  0  0  0
   37.5020   27.3350   32.3920 C   0  0  0  0  0  3  0  0  0  0  0  0
   37.9160   27.9890   31.1010 C   0  0  0  0  0  3  0  0  0  0  0  0
   38.3980   27.1910   30.4740 H   0  0  0  0  0  0  0  0  0  0  0  0
   36.7360   28.5000   30.3100 C   0  0  0  0  0  3  0  0  0  0  0  0
   36.2500   27.7010   29.7090 H   0  0  0  0  0  0  0  0  0  0  0  0
   35.8120   29.1850   31.0960 O   0  0  0  0  0  0  0  0  0  0  0  0
   35.3430   28.4050   32.1560 C   0  0  0  0  0  3  0  0  0  0  0  0
   34.9900   27.4160   31.8150 H   0  0  0  0  0  0  0  0  0  0  0  0
   36.5450   28.2770   33.1020 C   0  0  0  0  0  3  0  0  0  0  0  0
   36.2340   27.8930   34.0910 H   0  0  0  0  0  0  0  0  0  0  0  0
  1  3  1  0  0  0  0
  1  5  1  0  0  0  0
  1 15  1  0  0  0  0
  2  1  1  0  0  0  0
  4  8  1  0  0  0  0
  5  4  2  0  0  0  0
  6 11  1  0  0  0  0
  7  6  2  0  0  0  0
  7  8  1  0  0  0  0
  8  9  2  0  0  0  0
  9 10  1  0  0  0  0
 10 14  1  0  0  0  0
 11 10  2  0  0  0  0
 12  6  1  0  0  0  0
 13  7  1  0  0  0  0
 15 16  1  0  0  0  0
 16 24  1  0  0  0  0
 17 16  1  0  0  0  0
 18 17  1  0  0  0  0
 19 21  1  0  0  0  0
 19 17  1  0  0  0  0
 20 19  1  0  0  0  0
 21 22  1  0  0  0  0
 22 24  1  0  0  0  0
 23 22  1  0  0  0  0
 24 25  1  0  0  0  0
M  END
>  <minimizedAffinity>
-3.77882719

$$$$
