
 OpenBabel03272510133D

 42 45  0  0  0  0  0  0  0  0999 V2000
   38.4620   31.5110   48.7830 C   0  0  0  0  0  0  0  0  0  0  0  0
   38.5480   32.7510   49.3850 C   0  0  0  0  0  0  0  0  0  0  0  0
   39.1400   33.6110   48.4700 C   0  0  0  0  0  0  0  0  0  0  0  0
   39.3860   32.8790   47.3660 N   0  0  0  0  0  0  0  0  0  0  0  0
   38.9890   31.6540   47.5520 N   0  0  0  0  0  0  0  0  0  0  0  0
   38.2810   33.1780   50.3410 H   0  0  0  0  0  0  0  0  0  0  0  0
   39.3940   34.6720   48.5330 H   0  0  0  0  0  0  0  0  0  0  0  0
   40.0050   33.3750   46.1410 C   0  0  0  0  0  0  0  0  0  0  0  0
   39.2570   33.8070   45.4600 H   0  0  0  0  0  0  0  0  0  0  0  0
   40.6520   34.2360   46.4510 H   0  0  0  0  0  0  0  0  0  0  0  0
   40.8040   32.2440   45.5600 C   0  0  0  0  0  0  0  0  0  0  0  0
   40.6090   31.3540   46.1850 H   0  0  0  0  0  0  0  0  0  0  0  0
   41.8620   32.5140   45.5420 H   0  0  0  0  0  0  0  0  0  0  0  0
   40.3430   31.9170   44.1410 C   0  0  0  0  0  3  0  0  0  0  0  0
   39.5110   33.0050   43.5490 C   0  0  0  0  0  3  0  0  0  0  0  0
   39.3720   33.7790   44.3590 H   0  0  0  0  0  0  0  0  0  0  0  0
   38.1480   32.6120   43.0980 C   0  0  0  0  0  3  0  0  0  0  0  0
   37.8670   33.1820   42.1920 H   0  0  0  0  0  0  0  0  0  0  0  0
   38.0110   31.2690   42.7540 O   0  0  0  0  0  0  0  0  0  0  0  0
   38.2400   30.5650   43.9590 C   0  0  0  0  0  3  0  0  0  0  0  0
   37.8820   29.5350   43.8990 H   0  0  0  0  0  0  0  0  0  0  0  0
   39.7490   30.5510   44.1060 C   0  0  0  0  0  3  0  0  0  0  0  0
   39.9680   30.0350   45.0530 H   0  0  0  0  0  0  0  0  0  0  0  0
   37.8850   30.5300   49.5820 O   0  0  0  0  0  0  0  0  0  0  0  0
   34.1820   28.9220   48.3640 C   0  0  0  0  0  0  0  0  0  0  0  0
   34.8640   28.4140   49.4270 C   0  0  0  0  0  0  0  0  0  0  0  0
   36.0770   28.8810   49.8900 C   0  0  0  0  0  0  0  0  0  0  0  0
   36.6760   29.9320   49.2610 C   0  0  0  0  0  0  0  0  0  0  0  0
   35.9890   30.4620   48.1700 C   0  0  0  0  0  0  0  0  0  0  0  0
   34.8070   29.9670   47.7610 N   0  0  0  0  0  0  0  0  0  0  0  0
   34.4670   27.5770   49.9910 H   0  0  0  0  0  0  0  0  0  0  0  0
   36.6080   28.4670   50.7370 H   0  0  0  0  0  0  0  0  0  0  0  0
   36.3250   31.2970   47.5600 H   0  0  0  0  0  0  0  0  0  0  0  0
   32.0620   27.6440   48.6620 C   0  0  0  0  0  0  0  0  0  0  0  0
   32.9330   28.4280   47.9020 C   0  0  0  0  0  0  0  0  0  0  0  0
   32.5210   28.7200   46.6260 C   0  0  0  0  0  0  0  0  0  0  0  0
   31.3220   28.2560   46.1550 N   0  0  0  0  0  0  0  0  0  0  0  0
   30.5220   27.5000   46.9440 C   0  0  0  0  0  0  0  0  0  0  0  0
   30.8790   27.1770   48.2190 N   0  0  0  0  0  0  0  0  0  0  0  0
   32.3440   27.3890   49.6720 H   0  0  0  0  0  0  0  0  0  0  0  0
   33.0880   29.3160   45.9200 H   0  0  0  0  0  0  0  0  0  0  0  0
   29.5710   27.1070   46.6300 H   0  0  0  0  0  0  0  0  0  0  0  0
  1  2  1  0  0  0  0
  1 24  1  0  0  0  0
  2  6  1  0  0  0  0
  3  7  1  0  0  0  0
  3  2  2  0  0  0  0
  4  5  1  0  0  0  0
  4  3  1  0  0  0  0
  5  1  2  0  0  0  0
  8 10  1  0  0  0  0
  8  4  1  0  0  0  0
  9  8  1  0  0  0  0
 11  8  1  0  0  0  0
 11 12  1  0  0  0  0
 13 11  1  0  0  0  0
 14 11  1  0  0  0  0
 15 14  1  0  0  0  0
 15 16  1  0  0  0  0
 17 15  1  0  0  0  0
 18 17  1  0  0  0  0
 19 17  1  0  0  0  0
 19 20  1  0  0  0  0
 20 22  1  0  0  0  0
 21 20  1  0  0  0  0
 22 14  1  0  0  0  0
 22 23  1  0  0  0  0
 25 26  1  0  0  0  0
 26 27  2  0  0  0  0
 26 31  1  0  0  0  0
 27 32  1  0  0  0  0
 28 24  1  0  0  0  0
 28 27  1  0  0  0  0
 29 28  2  0  0  0  0
 30 29  1  0  0  0  0
 30 25  2  0  0  0  0
 33 29  1  0  0  0  0
 34 40  1  0  0  0  0
 35 25  1  0  0  0  0
 35 34  2  0  0  0  0
 36 35  1  0  0  0  0
 37 36  2  0  0  0  0
 37 38  1  0  0  0  0
 38 39  2  0  0  0  0
 39 34  1  0  0  0  0
 41 36  1  0  0  0  0
 42 38  1  0  0  0  0
M  END
>  <minimizedAffinity>
-6.28705835

>  <minimizedRMSD>
1.19236827

$$$$
