
 OpenBabel03272504423D

 46 48  0  0  0  0  0  0  0  0999 V2000
   34.8010   29.4020   48.8450 C   0  0  0  0  0  0  0  0  0  0  0  0
   34.1710   30.2190   49.2950 H   0  0  0  0  0  0  0  0  0  0  0  0
   35.7250   29.4210   49.4930 H   0  0  0  0  0  0  0  0  0  0  0  0
   37.5550   30.4590   48.5320 Cl  0  0  0  0  0  0  0  0  0  0  0  0
   36.4040   30.2980   47.1950 C   0  0  0  0  0  0  0  0  0  0  0  0
   36.7830   30.6710   45.9530 C   0  0  0  0  0  0  0  0  0  0  0  0
   35.8970   30.5510   44.9050 C   0  0  0  0  0  0  0  0  0  0  0  0
   34.6330   30.0460   45.1650 C   0  0  0  0  0  0  0  0  0  0  0  0
   34.3110   29.6800   46.4770 C   0  0  0  0  0  0  0  0  0  0  0  0
   35.1670   29.7910   47.5120 C   0  0  0  0  0  0  0  0  0  0  0  0
   36.2190   30.8570   43.9080 H   0  0  0  0  0  0  0  0  0  0  0  0
   34.0050   29.9850   44.2960 H   0  0  0  0  0  0  0  0  0  0  0  0
   33.3330   29.3220   46.4990 H   0  0  0  0  0  0  0  0  0  0  0  0
   39.7660   32.8340   45.9860 C   0  0  0  0  0  0  0  0  0  0  0  0
   40.6350   32.1140   45.1140 C   0  0  0  0  0  0  0  0  0  0  0  0
   40.1620   30.9100   44.5460 C   0  0  0  0  0  0  0  0  0  0  0  0
   38.9080   30.4930   44.8550 N   0  0  0  0  0  0  0  0  0  0  0  0
   38.1100   31.2040   45.6890 C   0  0  0  0  0  0  0  0  0  0  0  0
   38.5410   32.3520   46.2390 N   0  0  0  0  0  0  0  0  0  0  0  0
   40.1320   33.7560   46.4210 H   0  0  0  0  0  0  0  0  0  0  0  0
   41.6080   32.5550   44.9520 H   0  0  0  0  0  0  0  0  0  0  0  0
   41.0340   30.2260   43.6960 N   0  0  0  0  0  0  0  0  0  0  0  0
   41.5970   30.6570   42.9570 H   0  0  0  0  0  0  0  0  0  0  0  0
   41.1370   29.1890   43.8020 H   0  0  0  0  0  0  0  0  0  0  0  0
   34.1210   28.1130   49.0610 C   0  0  0  0  0  0  0  0  0  0  0  0
   34.5440   27.5450   49.9240 H   0  0  0  0  0  0  0  0  0  0  0  0
   34.2890   27.4600   48.1700 H   0  0  0  0  0  0  0  0  0  0  0  0
   32.7890   28.2900   49.3250 O   0  0  0  0  0  0  0  0  0  0  0  0
   32.6790   26.5120   47.3920 O   0  0  0  0  0  0  0  0  0  0  0  0
   31.8440   27.4050   48.2560 P   0  0  2  0  0  0  0  0  0  0  0  0
   31.0060   28.5510   47.2760 O   0  0  0  0  0  0  0  0  0  0  0  0
   30.8690   28.0130   45.9980 C   0  0  0  0  0  3  0  0  0  0  0  0
   29.6070   27.2260   45.7700 C   0  0  0  0  0  3  0  0  0  0  0  0
   29.7000   26.7650   44.7530 H   0  0  0  0  0  0  0  0  0  0  0  0
   28.3870   28.1000   45.7260 C   0  0  0  0  0  3  0  0  0  0  0  0
   27.6110   27.5050   45.1500 H   0  0  0  0  0  0  0  0  0  0  0  0
   28.6110   29.2750   45.0080 O   0  0  0  0  0  0  0  0  0  0  0  0
   29.6860   29.1550   44.1490 C   0  0  0  0  0  3  0  0  0  0  0  0
   29.5090   28.2920   43.4840 H   0  0  0  0  0  0  0  0  0  0  0  0
   30.9610   29.0570   44.9380 C   0  0  0  0  0  3  0  0  0  0  0  0
   31.8510   28.9120   44.2830 H   0  0  0  0  0  0  0  0  0  0  0  0
   30.6750   26.5170   49.0290 O   0  0  0  0  0  0  0  0  0  0  0  0
   29.8340   27.3170   49.7710 C   0  0  0  0  0  0  0  0  0  0  0  0
   29.2980   26.6500   50.8740 F   0  0  0  0  0  0  0  0  0  0  0  0
   30.5050   28.4220   50.2770 F   0  0  0  0  0  0  0  0  0  0  0  0
   28.7900   27.7690   49.0040 F   0  0  0  0  0  0  0  0  0  0  0  0
  1 25  1  0  0  0  0
  1  2  1  0  0  0  0
  1  3  1  0  0  0  0
  5 10  1  0  0  0  0
  5  4  1  0  0  0  0
  6  5  2  0  0  0  0
  7  8  2  0  0  0  0
  7  6  1  0  0  0  0
  8  9  1  0  0  0  0
  9 13  1  0  0  0  0
  9 10  2  0  0  0  0
 10  1  1  0  0  0  0
 11  7  1  0  0  0  0
 12  8  1  0  0  0  0
 14 19  1  0  0  0  0
 14 20  1  0  0  0  0
 15 14  2  0  0  0  0
 16 17  2  0  0  0  0
 16 15  1  0  0  0  0
 17 18  1  0  0  0  0
 18  6  1  0  0  0  0
 18 19  2  0  0  0  0
 21 15  1  0  0  0  0
 22 24  1  0  0  0  0
 22 16  1  0  0  0  0
 23 22  1  0  0  0  0
 25 28  1  0  0  0  0
 25 26  1  0  0  0  0
 27 25  1  0  0  0  0
 30 29  2  6  0  0  0
 30 42  1  0  0  0  0
 30 28  1  0  0  0  0
 31 30  1  0  0  0  0
 32 31  1  0  0  0  0
 33 32  1  0  0  0  0
 34 33  1  0  0  0  0
 35 33  1  0  0  0  0
 36 35  1  0  0  0  0
 37 35  1  0  0  0  0
 38 40  1  0  0  0  0
 38 37  1  0  0  0  0
 39 38  1  0  0  0  0
 40 32  1  0  0  0  0
 41 40  1  0  0  0  0
 42 43  1  0  0  0  0
 43 45  1  0  0  0  0
 43 44  1  0  0  0  0
 46 43  1  0  0  0  0
M  END
>  <minimizedAffinity>
-5.75213385

>  <minimizedRMSD>
0.491662234

$$$$
