
 OpenBabel03272509433D

 39 41  0  0  1  0  0  0  0  0999 V2000
   37.0210   30.9230   49.0830 C   0  0  0  0  0  0  0  0  0  0  0  0
   36.7060   31.8330   50.0960 C   0  0  0  0  0  0  0  0  0  0  0  0
   37.2810   33.0940   50.1480 C   0  0  0  0  0  0  0  0  0  0  0  0
   38.1990   33.4740   49.1690 C   0  0  0  0  0  0  0  0  0  0  0  0
   38.4960   32.5710   48.1850 C   0  0  0  0  0  0  0  0  0  0  0  0
   37.9050   31.3190   48.1610 C   0  0  0  0  0  0  0  0  0  0  0  0
   35.9810   31.4980   50.8450 H   0  0  0  0  0  0  0  0  0  0  0  0
   36.9480   33.6910   50.9820 H   0  0  0  0  0  0  0  0  0  0  0  0
   38.6050   34.4700   49.2760 H   0  0  0  0  0  0  0  0  0  0  0  0
   39.2280   33.0070   47.4950 H   0  0  0  0  0  0  0  0  0  0  0  0
   36.4480   29.5960   49.0470 C   0  0  2  0  0  0  0  0  0  0  0  0
   36.9500   29.0740   48.1440 H   0  0  0  0  0  0  0  0  0  0  0  0
   33.5900   29.9300   46.8260 C   0  0  0  0  0  0  0  0  0  0  0  0
   32.8470   28.7900   47.0630 C   0  0  0  0  0  0  0  0  0  0  0  0
   33.2880   27.9160   48.0400 C   0  0  0  0  0  0  0  0  0  0  0  0
   34.4400   28.2080   48.7350 N   0  0  0  0  0  0  0  0  0  0  0  0
   35.1070   29.3100   48.4620 C   0  0  0  0  0  0  0  0  0  0  0  0
   34.6910   30.1750   47.5140 N   0  0  0  0  0  0  0  0  0  0  0  0
   33.2760   30.6480   46.0630 H   0  0  0  0  0  0  0  0  0  0  0  0
   31.9640   28.6650   46.4580 H   0  0  0  0  0  0  0  0  0  0  0  0
   32.7020   27.0260   48.2230 H   0  0  0  0  0  0  0  0  0  0  0  0
   36.9290   28.8230   49.9560 O   0  0  0  0  0  0  0  0  0  0  0  0
   36.7220   28.9190   50.9090 H   0  0  0  0  0  0  0  0  0  0  0  0
   38.3350   30.4570   47.0840 C   0  0  0  0  0  3  0  0  0  0  0  0
   38.9220   30.9000   45.9670 C   0  0  0  0  0  3  0  0  0  0  0  0
   39.4420   30.1080   44.8270 C   0  0  0  0  0  0  0  0  0  0  0  0
   40.5550   30.2650   44.8110 H   0  0  0  0  0  0  0  0  0  0  0  0
   39.2210   29.0440   44.9840 H   0  0  0  0  0  0  0  0  0  0  0  0
   38.8060   30.7720   43.2860 S   0  0  0  0  0  0  0  0  0  0  0  0
   39.3430   29.8130   41.8500 C   0  0  0  0  0  3  0  0  0  0  0  0
   39.3980   28.3630   42.1980 C   0  0  0  0  0  3  0  0  0  0  0  0
   39.8310   28.1610   43.1940 H   0  0  0  0  0  0  0  0  0  0  0  0
   40.0780   27.5010   41.1900 C   0  0  0  0  0  3  0  0  0  0  0  0
   39.3290   27.2150   40.4030 H   0  0  0  0  0  0  0  0  0  0  0  0
   41.1820   28.0420   40.5810 O   0  0  0  0  0  0  0  0  0  0  0  0
   41.6810   29.1890   41.1550 C   0  0  0  0  0  3  0  0  0  0  0  0
   42.4330   29.5940   40.4200 H   0  0  0  0  0  0  0  0  0  0  0  0
   40.6760   30.2720   41.3610 C   0  0  0  0  0  3  0  0  0  0  0  0
   41.1080   30.9970   42.1100 H   0  0  0  0  0  0  0  0  0  0  0  0
  1  2  1  0  0  0  0
  2  3  2  0  0  0  0
  2  7  1  0  0  0  0
  3  8  1  0  0  0  0
  4  9  1  0  0  0  0
  4  3  1  0  0  0  0
  5  4  2  0  0  0  0
  6  5  1  0  0  0  0
  6  1  2  0  0  0  0
 10  5  1  0  0  0  0
 11 12  1  6  0  0  0
 11  1  1  0  0  0  0
 11 22  1  0  0  0  0
 13 14  2  0  0  0  0
 13 18  1  0  0  0  0
 14 15  1  0  0  0  0
 15 21  1  0  0  0  0
 15 16  2  0  0  0  0
 17 16  1  0  0  0  0
 17 11  1  0  0  0  0
 18 17  2  0  0  0  0
 19 13  1  0  0  0  0
 20 14  1  0  0  0  0
 22 23  1  0  0  0  0
 24  6  1  0  0  0  0
 25 24  2  0  0  0  0
 26 28  1  0  0  0  0
 26 25  1  0  0  0  0
 27 26  1  0  0  0  0
 29 26  1  0  0  0  0
 30 31  1  0  0  0  0
 30 29  1  0  0  0  0
 31 32  1  0  0  0  0
 33 31  1  0  0  0  0
 34 33  1  0  0  0  0
 35 36  1  0  0  0  0
 35 33  1  0  0  0  0
 36 38  1  0  0  0  0
 37 36  1  0  0  0  0
 38 30  1  0  0  0  0
 38 39  1  0  0  0  0
M  END
>  <minimizedAffinity>
-5.76410532

>  <minimizedRMSD>
0.36650309

$$$$
