
 OpenBabel03272503053D

 33 35  0  0  0  0  0  0  0  0999 V2000
   38.0780   30.0710   47.3490 F   0  0  0  0  0  0  0  0  0  0  0  0
   38.4740   31.3030   47.7260 C   0  0  0  0  0  0  0  0  0  0  0  0
   38.0870   31.8010   48.9490 C   0  0  0  0  0  0  0  0  0  0  0  0
   38.5210   33.0620   49.2800 C   0  0  0  0  0  0  0  0  0  0  0  0
   39.3120   33.8160   48.4410 C   0  0  0  0  0  0  0  0  0  0  0  0
   39.6890   33.3030   47.2260 C   0  0  0  0  0  0  0  0  0  0  0  0
   39.2660   32.0350   46.8650 C   0  0  0  0  0  0  0  0  0  0  0  0
   38.2080   33.4370   50.2460 H   0  0  0  0  0  0  0  0  0  0  0  0
   39.6340   34.8080   48.7420 H   0  0  0  0  0  0  0  0  0  0  0  0
   40.3120   33.8810   46.5490 H   0  0  0  0  0  0  0  0  0  0  0  0
   36.8760   29.5850   51.7740 C   0  0  0  0  0  0  0  0  0  0  0  0
   37.7080   30.3920   50.9840 C   0  0  0  0  0  0  0  0  0  0  0  0
   37.2500   30.9570   49.7940 C   0  0  0  0  0  0  0  0  0  0  0  0
   35.9540   30.6820   49.4440 N   0  0  0  0  0  0  0  0  0  0  0  0
   35.1690   29.9000   50.2200 C   0  0  0  0  0  0  0  0  0  0  0  0
   35.6230   29.3680   51.3550 N   0  0  0  0  0  0  0  0  0  0  0  0
   37.3640   29.2150   52.6670 H   0  0  0  0  0  0  0  0  0  0  0  0
   38.7440   30.6370   51.2240 H   0  0  0  0  0  0  0  0  0  0  0  0
   34.1490   29.7180   49.8890 H   0  0  0  0  0  0  0  0  0  0  0  0
   38.6680   31.6390   44.5640 C   0  0  0  0  0  0  0  0  0  0  0  0
   37.6210   32.2710   44.9270 O   0  0  0  0  0  0  0  0  0  0  0  0
   39.6320   31.4510   45.6020 N   0  0  0  0  0  0  0  0  0  0  0  0
   40.5220   30.9330   45.4500 H   0  0  0  0  0  0  0  0  0  0  0  0
   39.0180   31.0780   43.2340 C   0  0  0  0  0  3  0  0  0  0  0  0
   39.8220   32.0290   42.3970 C   0  0  0  0  0  3  0  0  0  0  0  0
   40.6540   32.4470   42.9640 H   0  0  0  0  0  0  0  0  0  0  0  0
   40.2670   31.2170   41.1760 C   0  0  0  0  0  3  0  0  0  0  0  0
   40.5710   30.2040   41.5640 H   0  0  0  0  0  0  0  0  0  0  0  0
   39.1120   30.9730   40.4340 O   0  0  0  0  0  0  0  0  0  0  0  0
   38.2750   30.1200   41.1200 C   0  0  0  0  0  3  0  0  0  0  0  0
   38.8250   29.1800   41.4060 H   0  0  0  0  0  0  0  0  0  0  0  0
   37.7740   30.7530   42.4050 C   0  0  0  0  0  3  0  0  0  0  0  0
   37.2410   31.7020   42.1120 H   0  0  0  0  0  0  0  0  0  0  0  0
  1  2  1  0  0  0  0
  2  3  1  0  0  0  0
  3  4  2  0  0  0  0
  3 13  1  0  0  0  0
  4  8  1  0  0  0  0
  5  9  1  0  0  0  0
  5  4  1  0  0  0  0
  6  5  2  0  0  0  0
  7  6  1  0  0  0  0
  7  2  2  0  0  0  0
 10  6  1  0  0  0  0
 11 17  1  0  0  0  0
 12 18  1  0  0  0  0
 12 11  2  0  0  0  0
 13 12  1  0  0  0  0
 14 13  2  0  0  0  0
 14 15  1  0  0  0  0
 15 16  2  0  0  0  0
 16 11  1  0  0  0  0
 19 15  1  0  0  0  0
 20 21  2  0  0  0  0
 20 22  1  0  0  0  0
 22  7  1  0  0  0  0
 23 22  1  0  0  0  0
 24 20  1  0  0  0  0
 25 26  1  0  0  0  0
 25 24  1  0  0  0  0
 27 28  1  0  0  0  0
 27 25  1  0  0  0  0
 29 30  1  0  0  0  0
 29 27  1  0  0  0  0
 30 31  1  0  0  0  0
 30 32  1  0  0  0  0
 32 24  1  0  0  0  0
 33 32  1  0  0  0  0
M  END
>  <minimizedAffinity>
-6.15435314

>  <minimizedRMSD>
0.745781004

$$$$
