
 OpenBabel03272507533D

 33 35  0  0  0  0  0  0  0  0999 V2000
   36.5340   31.2220   48.6880 N   0  0  0  0  0  0  0  0  0  0  0  0
   36.8280   32.0440   49.6890 C   0  0  0  0  0  0  0  0  0  0  0  0
   37.8980   32.9330   49.5570 C   0  0  0  0  0  0  0  0  0  0  0  0
   38.5620   32.8660   48.3710 C   0  0  0  0  0  0  0  0  0  0  0  0
   39.5300   33.6880   48.2860 O   0  0  0  0  0  0  0  0  0  0  0  0
   38.3000   32.0610   47.3490 N   0  0  0  0  0  0  0  0  0  0  0  0
   37.2560   31.2230   47.5290 C   0  0  0  0  0  0  0  0  0  0  0  0
   36.9850   30.4380   46.5560 O   0  0  0  0  0  0  0  0  0  0  0  0
   36.2120   31.9860   50.5750 H   0  0  0  0  0  0  0  0  0  0  0  0
   38.0970   33.5720   50.3810 H   0  0  0  0  0  0  0  0  0  0  0  0
   39.0960   32.1220   46.1770 C   0  0  0  0  0  3  0  0  0  0  0  0
   40.1830   31.0860   46.0790 C   0  0  0  0  0  3  0  0  0  0  0  0
   40.8150   31.2120   46.9930 H   0  0  0  0  0  0  0  0  0  0  0  0
   41.0500   31.4130   44.8840 C   0  0  0  0  0  3  0  0  0  0  0  0
   42.0670   31.7690   45.1660 H   0  0  0  0  0  0  0  0  0  0  0  0
   40.4420   32.2680   43.9740 O   0  0  0  0  0  0  0  0  0  0  0  0
   40.1310   33.5130   44.4800 C   0  0  0  0  0  3  0  0  0  0  0  0
   39.2370   33.8770   43.8930 H   0  0  0  0  0  0  0  0  0  0  0  0
   39.7820   33.4510   45.9670 C   0  0  0  0  0  3  0  0  0  0  0  0
   40.7840   33.4050   46.4730 H   0  0  0  0  0  0  0  0  0  0  0  0
   35.2850   29.5620   49.9500 C   0  0  0  0  0  0  0  0  0  0  0  0
   35.4540   30.2810   48.7470 C   0  0  0  0  0  0  0  0  0  0  0  0
   34.5740   30.0420   47.6880 C   0  0  0  0  0  0  0  0  0  0  0  0
   33.5910   29.1200   47.8750 N   0  0  0  0  0  0  0  0  0  0  0  0
   33.4370   28.4490   49.0050 C   0  0  0  0  0  0  0  0  0  0  0  0
   34.2780   28.6660   50.0360 N   0  0  0  0  0  0  0  0  0  0  0  0
   34.7180   30.6000   46.7790 H   0  0  0  0  0  0  0  0  0  0  0  0
   32.6460   27.7210   49.1270 H   0  0  0  0  0  0  0  0  0  0  0  0
   37.3840   29.1930   51.4440 C   0  0  0  0  0  0  0  0  0  0  0  0
   38.0610   28.5030   50.6630 O   0  0  0  0  0  0  0  0  0  0  0  0
   36.1070   29.7380   51.0840 N   0  0  0  0  0  0  0  0  0  0  0  0
   37.8510   29.3350   52.3940 H   0  0  0  0  0  0  0  0  0  0  0  0
   35.7720   30.3870   51.8510 H   0  0  0  0  0  0  0  0  0  0  0  0
  1 22  1  0  0  0  0
  1  2  1  0  0  0  0
  2  9  1  0  0  0  0
  3  2  2  0  0  0  0
  3 10  1  0  0  0  0
  4  3  1  0  0  0  0
  5  4  2  0  0  0  0
  6  7  1  0  0  0  0
  6  4  1  0  0  0  0
  7  1  1  0  0  0  0
  8  7  2  0  0  0  0
 11  6  1  0  0  0  0
 12 11  1  0  0  0  0
 12 13  1  0  0  0  0
 14 15  1  0  0  0  0
 14 12  1  0  0  0  0
 16 17  1  0  0  0  0
 16 14  1  0  0  0  0
 17 19  1  0  0  0  0
 18 17  1  0  0  0  0
 19 11  1  0  0  0  0
 19 20  1  0  0  0  0
 21 26  1  0  0  0  0
 21 31  1  0  0  0  0
 22 21  2  0  0  0  0
 23 24  2  0  0  0  0
 23 22  1  0  0  0  0
 24 25  1  0  0  0  0
 25 28  1  0  0  0  0
 25 26  2  0  0  0  0
 27 23  1  0  0  0  0
 29 32  1  0  0  0  0
 30 29  2  0  0  0  0
 31 29  1  0  0  0  0
 31 33  1  0  0  0  0
M  END
>  <minimizedAffinity>
-6.3238554

>  <minimizedRMSD>
1.33290243

$$$$
