
 OpenBabel03262522433D

 26 28  0  0  1  0  0  0  0  0999 V2000
   37.1120   31.3790   46.8240 C   0  0  1  0  0  0  0  0  0  0  0  0
   37.0170   29.9290   46.6590 C   0  0  0  0  0  0  0  0  0  0  0  0
   37.4790   30.4700   47.9760 C   0  0  2  0  0  0  0  0  0  0  0  0
   36.1590   31.9460   46.9830 H   0  0  0  0  0  0  0  0  0  0  0  0
   36.0270   29.4160   46.7290 H   0  0  0  0  0  0  0  0  0  0  0  0
   37.7450   29.3670   46.0600 H   0  0  0  0  0  0  0  0  0  0  0  0
   38.5730   30.4860   48.2230 H   0  0  0  0  0  0  0  0  0  0  0  0
   36.5550   30.5080   49.1700 C   0  0  0  0  0  0  0  0  0  0  0  0
   37.3680   30.9160   50.3770 C   0  0  0  0  0  0  0  0  0  0  0  0
   36.9410   31.8070   50.8780 H   0  0  0  0  0  0  0  0  0  0  0  0
   37.4060   29.8240   51.4270 C   0  0  0  0  0  0  0  0  0  0  0  0
   38.0680   28.9830   51.1320 H   0  0  0  0  0  0  0  0  0  0  0  0
   36.1570   29.4170   51.8260 O   0  0  0  0  0  0  0  0  0  0  0  0
   35.2520   29.2400   50.7940 C   0  0  0  0  0  0  0  0  0  0  0  0
   34.5560   30.0840   50.8200 H   0  0  0  0  0  0  0  0  0  0  0  0
   35.9690   29.1610   49.4670 C   0  0  0  0  0  0  0  0  0  0  0  0
   36.7890   28.4100   49.5400 H   0  0  0  0  0  0  0  0  0  0  0  0
   38.2030   32.3570   44.7560 C   0  0  0  0  0  0  0  0  0  0  0  0
   38.2100   32.1410   46.1570 C   0  0  0  0  0  0  0  0  0  0  0  0
   39.2680   32.6480   46.9090 C   0  0  0  0  0  0  0  0  0  0  0  0
   40.2670   33.3390   46.2590 N   0  0  0  0  0  0  0  0  0  0  0  0
   40.2240   33.5240   44.9070 C   0  0  0  0  0  0  0  0  0  0  0  0
   39.1960   33.0330   44.1690 N   0  0  0  0  0  0  0  0  0  0  0  0
   37.4070   31.9850   44.1300 H   0  0  0  0  0  0  0  0  0  0  0  0
   39.3280   32.5170   47.9800 H   0  0  0  0  0  0  0  0  0  0  0  0
   41.0090   34.0670   44.3960 H   0  0  0  0  0  0  0  0  0  0  0  0
  1  4  1  1  0  0  0
  1  3  1  0  0  0  0
  2  5  1  0  0  0  0
  2  1  1  0  0  0  0
  2  3  1  0  0  0  0
  3  7  1  1  0  0  0
  3  8  1  0  0  0  0
  6  2  1  0  0  0  0
  8 16  1  0  0  0  0
  8  9  1  0  0  0  0
  9 10  1  0  0  0  0
  9 11  1  0  0  0  0
 11 13  1  0  0  0  0
 12 11  1  0  0  0  0
 14 15  1  0  0  0  0
 14 13  1  0  0  0  0
 16 17  1  0  0  0  0
 16 14  1  0  0  0  0
 18 19  1  0  0  0  0
 19  1  1  0  0  0  0
 19 20  2  0  0  0  0
 20 25  1  0  0  0  0
 21 20  1  0  0  0  0
 22 21  2  0  0  0  0
 23 18  2  0  0  0  0
 23 22  1  0  0  0  0
 24 18  1  0  0  0  0
 26 22  1  0  0  0  0
M  END
>  <minimizedAffinity>
-4.82632017

>  <minimizedRMSD>
3.71848607

$$$$
