
 OpenBabel03272505273D

 32 34  0  0  0  0  0  0  0  0999 V2000
   37.5360   31.0400   47.0540 N   0  0  0  0  0  0  0  0  0  0  0  0
   37.0550   30.5440   45.8820 C   0  0  0  0  0  0  0  0  0  0  0  0
   37.5740   30.9300   44.6520 C   0  0  0  0  0  0  0  0  0  0  0  0
   38.6260   31.8620   44.6620 C   0  0  0  0  0  0  0  0  0  0  0  0
   39.1230   32.2360   43.5760 O   0  0  0  0  0  0  0  0  0  0  0  0
   39.1030   32.3530   45.8500 N   0  0  0  0  0  0  0  0  0  0  0  0
   38.5220   31.9060   46.9550 C   0  0  0  0  0  0  0  0  0  0  0  0
   38.9860   32.3820   48.0190 O   0  0  0  0  0  0  0  0  0  0  0  0
   36.2430   29.8270   45.8990 H   0  0  0  0  0  0  0  0  0  0  0  0
   37.0230   30.3710   43.4270 C   0  0  0  0  0  3  0  0  0  0  0  0
   35.5250   30.1250   43.4990 C   0  0  0  0  0  3  0  0  0  0  0  0
   35.3150   29.3110   44.2430 H   0  0  0  0  0  0  0  0  0  0  0  0
   35.1090   29.5790   42.1500 C   0  0  0  0  0  3  0  0  0  0  0  0
   34.8550   28.4900   42.1920 H   0  0  0  0  0  0  0  0  0  0  0  0
   36.0940   29.7010   41.1810 O   0  0  0  0  0  0  0  0  0  0  0  0
   37.2320   28.9690   41.4710 C   0  0  0  0  0  3  0  0  0  0  0  0
   37.1490   27.9210   41.1600 H   0  0  0  0  0  0  0  0  0  0  0  0
   37.6480   29.1010   42.9420 C   0  0  0  0  0  3  0  0  0  0  0  0
   38.7510   29.0780   43.0500 H   0  0  0  0  0  0  0  0  0  0  0  0
   37.2360   29.7060   50.5040 C   0  0  0  0  0  0  0  0  0  0  0  0
   37.7790   30.1020   49.2710 C   0  0  0  0  0  0  0  0  0  0  0  0
   36.9970   30.6390   48.2800 C   0  0  0  0  0  0  0  0  0  0  0  0
   35.6610   30.7770   48.5320 N   0  0  0  0  0  0  0  0  0  0  0  0
   35.1140   30.4000   49.7180 C   0  0  0  0  0  0  0  0  0  0  0  0
   35.8920   29.8660   50.7010 N   0  0  0  0  0  0  0  0  0  0  0  0
   37.7850   29.2810   51.3220 H   0  0  0  0  0  0  0  0  0  0  0  0
   38.8290   29.9060   49.2620 H   0  0  0  0  0  0  0  0  0  0  0  0
   34.0480   30.5430   49.8340 H   0  0  0  0  0  0  0  0  0  0  0  0
   40.1940   33.3100   45.8530 C   0  0  0  0  0  0  0  0  0  0  0  0
   40.0030   34.2540   44.8980 F   0  0  0  0  0  0  0  0  0  0  0  0
   41.4160   32.7190   45.5780 F   0  0  0  0  0  0  0  0  0  0  0  0
   40.2300   33.9450   47.0890 F   0  0  0  0  0  0  0  0  0  0  0  0
  1 22  1  0  0  0  0
  2  9  1  0  0  0  0
  2  1  1  0  0  0  0
  3  4  1  0  0  0  0
  3  2  2  0  0  0  0
  4  6  1  0  0  0  0
  5  4  2  0  0  0  0
  6 29  1  0  0  0  0
  6  7  1  0  0  0  0
  7  1  1  0  0  0  0
  7  8  2  0  0  0  0
 10 11  1  0  0  0  0
 10  3  1  0  0  0  0
 11 12  1  0  0  0  0
 13 14  1  0  0  0  0
 13 11  1  0  0  0  0
 15 16  1  0  0  0  0
 15 13  1  0  0  0  0
 16 18  1  0  0  0  0
 17 16  1  0  0  0  0
 18 19  1  0  0  0  0
 18 10  1  0  0  0  0
 20 25  1  0  0  0  0
 20 26  1  0  0  0  0
 21 20  2  0  0  0  0
 22 23  2  0  0  0  0
 22 21  1  0  0  0  0
 23 24  1  0  0  0  0
 24 28  1  0  0  0  0
 24 25  2  0  0  0  0
 27 21  1  0  0  0  0
 29 32  1  0  0  0  0
 30 29  1  0  0  0  0
 31 29  1  0  0  0  0
M  END
>  <minimizedAffinity>
-6.01805353

>  <minimizedRMSD>
0.728025556

$$$$
