
     RDKit          3D

 46 50  0  0  0  0  0  0  0  0999 V2000
   35.8449   29.1333   49.8136 C   0  0  0  0  0  0  0  0  0  0  0  0
   34.8207   29.6225   50.5480 C   0  0  0  0  0  0  0  0  0  0  0  0
   33.6536   29.0375   50.0501 C   0  0  0  0  0  0  0  0  0  0  0  0
   34.0679   28.1996   49.0053 C   0  0  0  0  0  0  0  0  0  0  0  0
   35.3582   28.3063   48.9248 O   0  0  0  0  0  0  0  0  0  0  0  0
   33.5299   26.4242   47.3423 C   0  0  0  0  0  0  0  0  0  0  0  0
   33.1163   27.4082   48.2324 C   0  0  0  0  0  0  0  0  0  0  0  0
   31.7738   27.6815   48.4295 C   0  0  0  0  0  0  0  0  0  0  0  0
   30.8557   26.9501   47.7184 C   0  0  0  0  0  0  0  0  0  0  0  0
   29.5114   26.9890   47.7048 N   0  0  0  0  0  0  0  0  0  0  0  0
   29.0937   26.0667   46.8416 N   0  0  0  0  0  0  0  0  0  0  0  0
   30.1460   25.4416   46.3057 C   0  0  0  0  0  0  0  0  0  0  0  0
   31.3188   25.9756   46.8393 C   0  0  0  0  0  0  0  0  0  0  0  0
   32.6471   25.6892   46.6292 C   0  0  0  0  0  0  0  0  0  0  0  0
   37.2291   29.5276   50.0543 C   0  0  0  0  0  0  0  0  0  0  0  0
   37.8753   28.9555   50.9673 O   0  0  0  0  0  0  0  0  0  0  0  0
   37.7805   30.5648   49.2181 C   0  0  0  0  0  0  0  0  0  0  0  0
   38.1369   31.7528   49.8212 C   0  0  0  0  0  0  0  0  0  0  0  0
   38.6714   32.7771   49.0522 C   0  0  0  0  0  0  0  0  0  0  0  0
   38.8139   32.5423   47.7252 N   0  0  0  0  0  0  0  0  0  0  0  0
   38.4681   31.3937   47.1486 C   0  0  0  0  0  0  0  0  0  0  0  0
   37.9558   30.4188   47.9011 N   0  0  0  0  0  0  0  0  0  0  0  0
   34.8320   30.3396   51.3841 H   0  0  0  0  0  0  0  0  0  0  0  0
   32.6634   29.2594   50.4668 H   0  0  0  0  0  0  0  0  0  0  0  0
   34.6016   26.2818   47.2546 H   0  0  0  0  0  0  0  0  0  0  0  0
   31.3832   28.4359   49.1083 H   0  0  0  0  0  0  0  0  0  0  0  0
   28.8674   27.6085   48.2504 H   0  0  0  0  0  0  0  0  0  0  0  0
   30.1634   24.6302   45.5606 H   0  0  0  0  0  0  0  0  0  0  0  0
   32.9400   24.9315   45.9427 H   0  0  0  0  0  0  0  0  0  0  0  0
   38.0331   31.9716   50.8943 H   0  0  0  0  0  0  0  0  0  0  0  0
   38.9558   33.7054   49.4902 H   0  0  0  0  0  0  0  0  0  0  0  0
   38.6200   31.1241   45.6909 C   0  0  1  0  0  0  0  0  0  0  0  0
   39.2024   29.7595   45.4116 C   0  0  2  0  0  0  0  0  0  0  0  0
   38.4615   28.9462   45.6366 H   0  0  0  0  0  0  0  0  0  0  0  0
   39.5996   29.7690   43.9496 C   0  0  2  0  0  0  0  0  0  0  0  0
   39.9265   28.7698   43.6015 H   0  0  0  0  0  0  0  0  0  0  0  0
   38.6550   30.3554   43.1497 O   0  0  0  0  0  0  0  0  0  0  0  0
   37.3751   30.3904   43.6917 C   0  0  1  0  0  0  0  0  0  0  0  0
   36.7185   30.8725   42.9380 H   0  0  0  0  0  0  0  0  0  0  0  0
   37.3059   31.2122   44.9513 C   0  0  1  0  0  0  0  0  0  0  0  0
   36.4611   30.8067   45.5634 H   0  0  0  0  0  0  0  0  0  0  0  0
   39.2927   31.8693   45.1887 H   0  0  0  0  0  0  0  0  0  0  0  0
   40.1005   29.5525   46.0297 H   0  0  0  0  0  0  0  0  0  0  0  0
   40.5300   30.4039   43.8929 H   0  0  0  0  0  0  0  0  0  0  0  0
   36.9483   29.3702   43.8273 H   0  0  0  0  0  0  0  0  0  0  0  0
   37.1039   32.2628   44.6684 H   0  0  0  0  0  0  0  0  0  0  0  0
  1 15  1  0
  1  2  2  0
  3  2  1  0
  4  3  2  0
  5  4  1  0
  5  1  1  0
  6  7  2  0
  7  8  1  0
  7  4  1  0
  9  8  2  0
 10  9  1  0
 11 10  1  0
 12 13  1  0
 12 11  2  0
 13  9  1  0
 14 13  2  0
 14  6  1  0
 15 16  2  0
 17 18  2  0
 17 15  1  0
 19 18  1  0
 20 19  2  0
 21 20  1  0
 21 22  2  0
 22 17  1  0
  2 23  1  0
  3 24  1  0
  6 25  1  0
  8 26  1  0
 10 27  1  0
 12 28  1  0
 14 29  1  0
 18 30  1  0
 19 31  1  0
 32 33  1  0
 33 34  1  6
 33 35  1  0
 35 36  1  6
 35 37  1  0
 37 38  1  0
 38 39  1  6
 38 40  1  0
 40 41  1  1
 40 32  1  0
 32 42  1  6
 33 43  1  0
 35 44  1  0
 38 45  1  0
 40 46  1  0
 21 32  1  0
M  ISO  8  23  14  24  14  25  14  26  14  27   9  28  14  29  14  30  14
M  ISO  5  31  14  34  15  36  15  39  15  41  15
M  END
>  <DihAtoms>  (1) 
19,20,31,32

>  <DihDeg>  (1) 
-59.608519430355706

$$$$
