
 OpenBabel03272505273D

 32 34  0  0  0  0  0  0  0  0999 V2000
   37.4420   31.1280   46.9630 N   0  0  0  0  0  0  0  0  0  0  0  0
   36.8840   30.7640   45.7780 C   0  0  0  0  0  0  0  0  0  0  0  0
   37.3730   31.2230   44.5610 C   0  0  0  0  0  0  0  0  0  0  0  0
   38.4790   32.0900   44.6000 C   0  0  0  0  0  0  0  0  0  0  0  0
   38.9520   32.5280   43.5270 O   0  0  0  0  0  0  0  0  0  0  0  0
   39.0330   32.4500   45.8010 N   0  0  0  0  0  0  0  0  0  0  0  0
   38.4730   31.9430   46.8910 C   0  0  0  0  0  0  0  0  0  0  0  0
   39.0090   32.2990   47.9680 O   0  0  0  0  0  0  0  0  0  0  0  0
   36.0310   30.0940   45.7730 H   0  0  0  0  0  0  0  0  0  0  0  0
   36.7380   30.8040   43.3210 C   0  0  0  0  0  3  0  0  0  0  0  0
   35.3620   31.4150   43.1130 C   0  0  0  0  0  3  0  0  0  0  0  0
   34.6540   31.0110   43.8850 H   0  0  0  0  0  0  0  0  0  0  0  0
   34.8600   30.9080   41.7770 C   0  0  0  0  0  3  0  0  0  0  0  0
   34.0370   30.1580   41.8900 H   0  0  0  0  0  0  0  0  0  0  0  0
   35.8420   30.2850   41.0220 O   0  0  0  0  0  0  0  0  0  0  0  0
   36.3370   29.1380   41.6190 C   0  0  0  0  0  3  0  0  0  0  0  0
   35.7150   28.2590   41.4170 H   0  0  0  0  0  0  0  0  0  0  0  0
   36.5940   29.3290   43.1190 C   0  0  0  0  0  3  0  0  0  0  0  0
   37.4750   28.7450   43.4510 H   0  0  0  0  0  0  0  0  0  0  0  0
   37.2250   29.6050   50.3400 C   0  0  0  0  0  0  0  0  0  0  0  0
   37.7380   30.0730   49.1210 C   0  0  0  0  0  0  0  0  0  0  0  0
   36.9310   30.6550   48.1760 C   0  0  0  0  0  0  0  0  0  0  0  0
   35.5990   30.7620   48.4600 N   0  0  0  0  0  0  0  0  0  0  0  0
   35.0790   30.3140   49.6340 C   0  0  0  0  0  0  0  0  0  0  0  0
   35.8830   29.7370   50.5710 N   0  0  0  0  0  0  0  0  0  0  0  0
   37.7940   29.1420   51.1230 H   0  0  0  0  0  0  0  0  0  0  0  0
   38.7900   29.8910   49.0810 H   0  0  0  0  0  0  0  0  0  0  0  0
   34.0150   30.4380   49.7770 H   0  0  0  0  0  0  0  0  0  0  0  0
   40.1790   33.3390   45.8330 C   0  0  0  0  0  0  0  0  0  0  0  0
   40.0590   34.3070   44.8900 F   0  0  0  0  0  0  0  0  0  0  0  0
   41.3680   32.6810   45.5650 F   0  0  0  0  0  0  0  0  0  0  0  0
   40.2360   33.9530   47.0790 F   0  0  0  0  0  0  0  0  0  0  0  0
  1 22  1  0  0  0  0
  2  1  1  0  0  0  0
  3  4  1  0  0  0  0
  3  2  2  0  0  0  0
  4  6  1  0  0  0  0
  5  4  2  0  0  0  0
  6 29  1  0  0  0  0
  6  7  1  0  0  0  0
  7  1  1  0  0  0  0
  7  8  2  0  0  0  0
  9  2  1  0  0  0  0
 10  3  1  0  0  0  0
 11 10  1  0  0  0  0
 11 12  1  0  0  0  0
 13 14  1  0  0  0  0
 13 11  1  0  0  0  0
 15 16  1  0  0  0  0
 15 13  1  0  0  0  0
 16 18  1  0  0  0  0
 17 16  1  0  0  0  0
 18 10  1  0  0  0  0
 18 19  1  0  0  0  0
 20 25  1  0  0  0  0
 20 26  1  0  0  0  0
 21 20  2  0  0  0  0
 22 23  2  0  0  0  0
 22 21  1  0  0  0  0
 23 24  1  0  0  0  0
 24 28  1  0  0  0  0
 24 25  2  0  0  0  0
 27 21  1  0  0  0  0
 29 32  1  0  0  0  0
 30 29  1  0  0  0  0
 31 29  1  0  0  0  0
M  END
>  <minimizedAffinity>
-6.08672285

>  <minimizedRMSD>
0.270203203

$$$$
