REMARK  Name = 
REMARK  4 active torsions:
REMARK  status: ('A' for Active; 'I' for Inactive)
REMARK    1  A    between atoms: C_1  and  C_8
REMARK    2  A    between atoms: C_4  and  O_13
REMARK    3  A    between atoms: O_13  and  C_14
REMARK    4  A    between atoms: N_17  and  C_27
REMARK                            x       y       z     vdW  Elec       q    Type
REMARK                         _______ _______ _______ _____ _____    ______ ____
ROOT
ATOM      1  C   UNL     1      33.842  28.793  48.265  0.00  0.00    +0.000 A 
ATOM      2  C   UNL     1      34.439  28.419  49.431  0.00  0.00    +0.000 A 
ATOM      3  C   UNL     1      35.709  28.787  49.812  0.00  0.00    +0.000 A 
ATOM      4  C   UNL     1      36.453  29.581  48.990  0.00  0.00    +0.000 A 
ATOM      5  C   UNL     1      35.845  29.968  47.794  0.00  0.00    +0.000 A 
ATOM      6  N   UNL     1      34.598  29.584  47.460  0.00  0.00    +0.000 NA
ATOM      7  H   UNL     1      33.924  27.787  50.147  0.00  0.00    +0.000 HD
ATOM      8  H   UNL     1      36.187  28.492  50.736  0.00  0.00    +0.000 HD
ATOM      9  H   UNL     1      36.361  30.598  47.082  0.00  0.00    +0.000 HD
ENDROOT
BRANCH   1  11
ATOM     10  C   UNL     1      31.634  27.657  48.704  0.00  0.00    +0.000 A 
ATOM     11  C   UNL     1      32.512  28.393  47.893  0.00  0.00    +0.000 A 
ATOM     12  C   UNL     1      32.038  28.752  46.641  0.00  0.00    +0.000 A 
ATOM     13  N   UNL     1      30.776  28.382  46.266  0.00  0.00    +0.000 NA
ATOM     14  C   UNL     1      29.977  27.669  47.099  0.00  0.00    +0.000 A 
ATOM     15  N   UNL     1      30.403  27.302  48.323  0.00  0.00    +0.000 NA
ATOM     16  H   UNL     1      31.984  27.373  49.671  0.00  0.00    +0.000 HD
ATOM     17  H   UNL     1      32.672  29.319  45.977  0.00  0.00    +0.000 HD
ATOM     18  H   UNL     1      29.024  27.474  46.629  0.00  0.00    +0.000 HD
ENDBRANCH   1  11
BRANCH   4  19
ATOM     19  O   UNL     1      37.748  30.052  49.206  0.00  0.00    +0.000 OA
BRANCH  19  20
ATOM     20  C   UNL     1      38.160  31.312  48.782  0.00  0.00    +0.000 A 
ATOM     21  C   UNL     1      37.878  32.329  49.674  0.00  0.00    +0.000 A 
ATOM     22  C   UNL     1      38.346  33.509  49.112  0.00  0.00    +0.000 A 
ATOM     23  N   UNL     1      38.880  33.174  47.932  0.00  0.00    +0.000 N 
ATOM     24  N   UNL     1      38.771  31.885  47.738  0.00  0.00    +0.000 NA
ATOM     25  H   UNL     1      37.403  32.421  50.658  0.00  0.00    +0.000 HD
ATOM     26  H   UNL     1      38.348  34.542  49.440  0.00  0.00    +0.000 HD
BRANCH  23  27
ATOM     27  C   UNL     1      39.510  34.007  46.933  0.00  0.00    +0.000 C 
ATOM     28  C   UNL     1      40.665  34.787  47.484  0.00  0.00    +0.000 C 
ATOM     29  H   UNL     1      41.508  34.085  47.732  0.00  0.00    +0.000 HD
ATOM     30  C   UNL     1      41.185  35.655  46.338  0.00  0.00    +0.000 C 
ATOM     31  H   UNL     1      42.006  36.301  46.657  0.00  0.00    +0.000 HD
ATOM     32  O   UNL     1      41.602  34.866  45.280  0.00  0.00    +0.000 OA
ATOM     33  C   UNL     1      40.483  34.232  44.731  0.00  0.00    +0.000 C 
ATOM     34  H   UNL     1      40.810  33.736  43.779  0.00  0.00    +0.000 HD
ATOM     35  C   UNL     1      40.020  33.200  45.759  0.00  0.00    +0.000 C 
ATOM     36  H   UNL     1      40.953  32.640  46.050  0.00  0.00    +0.000 HD
ENDBRANCH  23  27
ENDBRANCH  19  20
ENDBRANCH   4  19
TORSDOF 4
