
 OpenBabel03272501583D

 32 34  0  0  0  0  0  0  0  0999 V2000
   32.9510   28.2660   47.8570 C   0  0  0  0  0  0  0  0  0  0  0  0
   32.1140   27.6020   48.7090 C   0  0  0  0  0  0  0  0  0  0  0  0
   30.7950   27.6770   48.2870 C   0  0  0  0  0  0  0  0  0  0  0  0
   30.8850   28.4160   47.1440 N   0  0  0  0  0  0  0  0  0  0  0  0
   32.1420   28.7470   46.9110 N   0  0  0  0  0  0  0  0  0  0  0  0
   32.4570   27.0810   49.6100 H   0  0  0  0  0  0  0  0  0  0  0  0
   29.9080   27.2490   48.7560 H   0  0  0  0  0  0  0  0  0  0  0  0
   29.7130   28.7570   46.3350 C   0  0  0  0  0  3  0  0  0  0  0  0
   29.2720   27.5760   45.5460 C   0  0  0  0  0  3  0  0  0  0  0  0
   28.1930   27.3130   45.7090 H   0  0  0  0  0  0  0  0  0  0  0  0
   29.4990   27.6530   44.0700 C   0  0  0  0  0  3  0  0  0  0  0  0
   30.5200   27.3690   43.7530 H   0  0  0  0  0  0  0  0  0  0  0  0
   29.1030   28.8880   43.6130 O   0  0  0  0  0  0  0  0  0  0  0  0
   30.0340   29.8050   44.0770 C   0  0  0  0  0  3  0  0  0  0  0  0
   31.0620   29.5520   43.7450 H   0  0  0  0  0  0  0  0  0  0  0  0
   29.9600   30.0050   45.5650 C   0  0  0  0  0  3  0  0  0  0  0  0
   30.9170   30.4750   45.8810 H   0  0  0  0  0  0  0  0  0  0  0  0
   34.4410   28.3850   48.0130 C   0  0  0  0  0  0  0  0  0  0  0  0
   34.8570   27.4760   47.5380 H   0  0  0  0  0  0  0  0  0  0  0  0
   34.7760   29.3140   47.5400 H   0  0  0  0  0  0  0  0  0  0  0  0
   34.7170   28.3050   49.4960 C   0  0  0  0  0  0  0  0  0  0  0  0
   34.9900   27.2630   49.7940 H   0  0  0  0  0  0  0  0  0  0  0  0
   33.8360   28.6070   50.1010 H   0  0  0  0  0  0  0  0  0  0  0  0
   37.2650   30.1710   51.4180 C   0  0  0  0  0  0  0  0  0  0  0  0
   38.0710   30.7030   50.4070 C   0  0  0  0  0  0  0  0  0  0  0  0
   37.7390   30.4200   49.0590 C   0  0  0  0  0  0  0  0  0  0  0  0
   36.6490   29.6430   48.8280 N   0  0  0  0  0  0  0  0  0  0  0  0
   35.8980   29.1510   49.8350 C   0  0  0  0  0  0  0  0  0  0  0  0
   36.2040   29.4120   51.1100 N   0  0  0  0  0  0  0  0  0  0  0  0
   37.4480   30.3380   52.4760 H   0  0  0  0  0  0  0  0  0  0  0  0
   38.9220   31.3130   50.6810 H   0  0  0  0  0  0  0  0  0  0  0  0
   38.3560   30.8270   48.2780 H   0  0  0  0  0  0  0  0  0  0  0  0
  1 18  1  0  0  0  0
  1  2  1  0  0  0  0
  2  6  1  0  0  0  0
  3  2  2  0  0  0  0
  3  7  1  0  0  0  0
  4  3  1  0  0  0  0
  5  4  1  0  0  0  0
  5  1  2  0  0  0  0
  8  4  1  0  0  0  0
  9 10  1  0  0  0  0
  9  8  1  0  0  0  0
 11  9  1  0  0  0  0
 12 11  1  0  0  0  0
 13 11  1  0  0  0  0
 13 14  1  0  0  0  0
 14 16  1  0  0  0  0
 15 14  1  0  0  0  0
 16 17  1  0  0  0  0
 16  8  1  0  0  0  0
 18 21  1  0  0  0  0
 19 18  1  0  0  0  0
 20 18  1  0  0  0  0
 21 22  1  0  0  0  0
 21 28  1  0  0  0  0
 21 23  1  0  0  0  0
 24 30  1  0  0  0  0
 25 31  1  0  0  0  0
 25 24  2  0  0  0  0
 26 25  1  0  0  0  0
 27 26  2  0  0  0  0
 27 28  1  0  0  0  0
 28 29  2  0  0  0  0
 29 24  1  0  0  0  0
 32 26  1  0  0  0  0
M  END
>  <minimizedAffinity>
-4.54141808

>  <minimizedRMSD>
0.982891202

$$$$
