
 OpenBabel03272501583D

 32 34  0  0  0  0  0  0  0  0999 V2000
   32.7840   27.9110   47.8710 C   0  0  0  0  0  0  0  0  0  0  0  0
   32.4520   26.5980   48.0530 C   0  0  0  0  0  0  0  0  0  0  0  0
   31.0980   26.3830   47.8460 C   0  0  0  0  0  0  0  0  0  0  0  0
   30.6380   27.6280   47.5320 N   0  0  0  0  0  0  0  0  0  0  0  0
   31.6290   28.5000   47.5510 N   0  0  0  0  0  0  0  0  0  0  0  0
   33.1770   25.8250   48.3290 H   0  0  0  0  0  0  0  0  0  0  0  0
   30.5420   25.4470   47.9180 H   0  0  0  0  0  0  0  0  0  0  0  0
   29.2310   27.8920   47.2260 C   0  0  0  0  0  0  0  0  0  0  0  0
   28.7510   29.0700   47.9950 C   0  0  0  0  0  0  0  0  0  0  0  0
   28.3000   29.8690   47.3460 H   0  0  0  0  0  0  0  0  0  0  0  0
   27.7800   28.7840   49.0950 C   0  0  0  0  0  0  0  0  0  0  0  0
   28.2510   28.4720   50.0450 H   0  0  0  0  0  0  0  0  0  0  0  0
   26.8230   27.9070   48.6390 O   0  0  0  0  0  0  0  0  0  0  0  0
   27.4420   26.6750   48.4980 C   0  0  0  0  0  0  0  0  0  0  0  0
   27.8980   26.3320   49.4510 H   0  0  0  0  0  0  0  0  0  0  0  0
   28.4280   26.6470   47.3640 C   0  0  0  0  0  0  0  0  0  0  0  0
   29.0920   25.7710   47.5290 H   0  0  0  0  0  0  0  0  0  0  0  0
   34.1620   28.4920   48.0140 C   0  0  0  0  0  0  0  0  0  0  0  0
   34.8090   27.8740   47.3610 H   0  0  0  0  0  0  0  0  0  0  0  0
   34.1370   29.5480   47.7260 H   0  0  0  0  0  0  0  0  0  0  0  0
   34.5760   28.2460   49.4470 C   0  0  0  0  0  0  0  0  0  0  0  0
   34.9000   27.1870   49.5900 H   0  0  0  0  0  0  0  0  0  0  0  0
   33.7480   28.4430   50.1590 H   0  0  0  0  0  0  0  0  0  0  0  0
   37.1240   30.1270   51.3540 C   0  0  0  0  0  0  0  0  0  0  0  0
   37.9450   30.6290   50.3410 C   0  0  0  0  0  0  0  0  0  0  0  0
   37.6240   30.3210   48.9960 C   0  0  0  0  0  0  0  0  0  0  0  0
   36.5290   29.5500   48.7700 N   0  0  0  0  0  0  0  0  0  0  0  0
   35.7630   29.0870   49.7790 C   0  0  0  0  0  0  0  0  0  0  0  0
   36.0580   29.3730   51.0520 N   0  0  0  0  0  0  0  0  0  0  0  0
   37.2970   30.3160   52.4100 H   0  0  0  0  0  0  0  0  0  0  0  0
   38.8000   31.2360   50.6100 H   0  0  0  0  0  0  0  0  0  0  0  0
   38.2540   30.7040   48.2130 H   0  0  0  0  0  0  0  0  0  0  0  0
  1 18  1  0  0  0  0
  1  2  1  0  0  0  0
  2  6  1  0  0  0  0
  3  7  1  0  0  0  0
  3  2  2  0  0  0  0
  4  5  1  0  0  0  0
  4  3  1  0  0  0  0
  5  1  2  0  0  0  0
  8 16  1  0  0  0  0
  8  4  1  0  0  0  0
  8  9  1  0  0  0  0
  9 11  1  0  0  0  0
 10  9  1  0  0  0  0
 11 12  1  0  0  0  0
 13 11  1  0  0  0  0
 14 13  1  0  0  0  0
 14 15  1  0  0  0  0
 16 17  1  0  0  0  0
 16 14  1  0  0  0  0
 18 21  1  0  0  0  0
 19 18  1  0  0  0  0
 20 18  1  0  0  0  0
 21 22  1  0  0  0  0
 21 28  1  0  0  0  0
 21 23  1  0  0  0  0
 24 30  1  0  0  0  0
 25 31  1  0  0  0  0
 25 24  2  0  0  0  0
 26 25  1  0  0  0  0
 27 26  2  0  0  0  0
 27 28  1  0  0  0  0
 28 29  2  0  0  0  0
 29 24  1  0  0  0  0
 32 26  1  0  0  0  0
M  END
>  <minimizedAffinity>
-5.21787119

>  <minimizedRMSD>
2.10517597

$$$$
