
 OpenBabel03272500453D

 26 28  0  0  0  0  0  0  0  0999 V2000
   36.4190   30.2820   47.4900 C   0  0  0  0  0  0  0  0  0  0  0  0
   35.6240   30.0960   46.3700 C   0  0  0  0  0  0  0  0  0  0  0  0
   36.3210   30.5220   45.2510 C   0  0  0  0  0  0  0  0  0  0  0  0
   37.5190   30.9580   45.7060 N   0  0  0  0  0  0  0  0  0  0  0  0
   37.5300   30.7980   47.0160 N   0  0  0  0  0  0  0  0  0  0  0  0
   34.6070   29.6850   46.3100 H   0  0  0  0  0  0  0  0  0  0  0  0
   36.0080   30.5220   44.2260 H   0  0  0  0  0  0  0  0  0  0  0  0
   38.6370   31.5100   44.9720 C   0  0  0  0  0  0  0  0  0  0  0  0
   38.1750   32.4380   43.8810 C   0  0  0  0  0  0  0  0  0  0  0  0
   37.7200   31.8270   43.0730 H   0  0  0  0  0  0  0  0  0  0  0  0
   39.3720   33.1410   43.2830 C   0  0  0  0  0  0  0  0  0  0  0  0
   39.9820   32.4680   42.6490 H   0  0  0  0  0  0  0  0  0  0  0  0
   40.1920   33.7050   44.2320 O   0  0  0  0  0  0  0  0  0  0  0  0
   40.6790   32.7860   45.1610 C   0  0  0  0  0  0  0  0  0  0  0  0
   41.0460   31.8510   44.6570 H   0  0  0  0  0  0  0  0  0  0  0  0
   39.4640   32.3250   45.9710 C   0  0  0  0  0  0  0  0  0  0  0  0
   39.7660   31.6890   46.8040 H   0  0  0  0  0  0  0  0  0  0  0  0
   36.9010   29.7410   49.8890 C   0  0  0  0  0  0  0  0  0  0  0  0
   36.0010   29.9430   48.8230 C   0  0  0  0  0  0  0  0  0  0  0  0
   34.6450   29.7990   49.1110 C   0  0  0  0  0  0  0  0  0  0  0  0
   34.2710   29.4760   50.3880 N   0  0  0  0  0  0  0  0  0  0  0  0
   35.1680   29.2920   51.3750 C   0  0  0  0  0  0  0  0  0  0  0  0
   36.4940   29.4260   51.1220 N   0  0  0  0  0  0  0  0  0  0  0  0
   37.9420   29.8710   49.5890 H   0  0  0  0  0  0  0  0  0  0  0  0
   33.8850   29.9400   48.3330 H   0  0  0  0  0  0  0  0  0  0  0  0
   34.8720   29.0390   52.3730 H   0  0  0  0  0  0  0  0  0  0  0  0
  1 19  1  0  0  0  0
  2  1  1  0  0  0  0
  3  4  1  0  0  0  0
  3  2  2  0  0  0  0
  4  5  1  0  0  0  0
  5  1  2  0  0  0  0
  6  2  1  0  0  0  0
  7  3  1  0  0  0  0
  8  4  1  0  0  0  0
  8 16  1  0  0  0  0
  9  8  1  0  0  0  0
 10  9  1  0  0  0  0
 11  9  1  0  0  0  0
 11 13  1  0  0  0  0
 12 11  1  0  0  0  0
 13 14  1  0  0  0  0
 14 16  1  0  0  0  0
 15 14  1  0  0  0  0
 16 17  1  0  0  0  0
 18 23  1  0  0  0  0
 19 20  1  0  0  0  0
 19 18  2  0  0  0  0
 20 21  2  0  0  0  0
 21 22  1  0  0  0  0
 22 26  1  0  0  0  0
 23 22  2  0  0  0  0
 24 18  1  0  0  0  0
 25 20  1  0  0  0  0
M  END
>  <minimizedAffinity>
-4.66365623

>  <minimizedRMSD>
3.85951495

$$$$
