
 OpenBabel03272501583D

 32 34  0  0  0  0  0  0  0  0999 V2000
   32.9380   28.2410   47.8750 C   0  0  0  0  0  0  0  0  0  0  0  0
   32.1280   27.7420   48.8560 C   0  0  0  0  0  0  0  0  0  0  0  0
   30.8180   27.6190   48.4200 C   0  0  0  0  0  0  0  0  0  0  0  0
   30.8840   28.0680   47.1340 N   0  0  0  0  0  0  0  0  0  0  0  0
   32.1200   28.4230   46.8360 N   0  0  0  0  0  0  0  0  0  0  0  0
   32.4850   27.4770   49.8570 H   0  0  0  0  0  0  0  0  0  0  0  0
   29.9510   27.2540   48.9720 H   0  0  0  0  0  0  0  0  0  0  0  0
   29.7110   28.1220   46.2590 C   0  0  0  0  0  3  0  0  0  0  0  0
   30.1190   27.9310   44.8420 C   0  0  0  0  0  3  0  0  0  0  0  0
   29.5700   27.0940   44.3330 H   0  0  0  0  0  0  0  0  0  0  0  0
   30.0150   29.1370   43.9630 C   0  0  0  0  0  3  0  0  0  0  0  0
   30.8830   29.8190   44.0250 H   0  0  0  0  0  0  0  0  0  0  0  0
   28.8080   29.7580   44.1840 O   0  0  0  0  0  0  0  0  0  0  0  0
   28.8830   30.3440   45.4380 C   0  0  0  0  0  3  0  0  0  0  0  0
   29.7330   31.0540   45.5110 H   0  0  0  0  0  0  0  0  0  0  0  0
   28.9000   29.3340   46.5510 C   0  0  0  0  0  3  0  0  0  0  0  0
   29.2860   29.8500   47.4570 H   0  0  0  0  0  0  0  0  0  0  0  0
   34.4120   28.5000   48.0070 C   0  0  0  0  0  0  0  0  0  0  0  0
   34.9040   27.6840   47.4420 H   0  0  0  0  0  0  0  0  0  0  0  0
   34.6370   29.4970   47.6130 H   0  0  0  0  0  0  0  0  0  0  0  0
   34.7420   28.3180   49.4700 C   0  0  0  0  0  0  0  0  0  0  0  0
   35.0450   27.2640   49.6820 H   0  0  0  0  0  0  0  0  0  0  0  0
   33.8780   28.5570   50.1250 H   0  0  0  0  0  0  0  0  0  0  0  0
   37.2670   30.1700   51.4370 C   0  0  0  0  0  0  0  0  0  0  0  0
   38.0830   30.7130   50.4400 C   0  0  0  0  0  0  0  0  0  0  0  0
   37.7650   30.4420   49.0860 C   0  0  0  0  0  0  0  0  0  0  0  0
   36.6800   29.6660   48.8360 N   0  0  0  0  0  0  0  0  0  0  0  0
   35.9190   29.1630   49.8300 C   0  0  0  0  0  0  0  0  0  0  0  0
   36.2110   29.4120   51.1100 N   0  0  0  0  0  0  0  0  0  0  0  0
   37.4380   30.3270   52.4980 H   0  0  0  0  0  0  0  0  0  0  0  0
   38.9300   31.3210   50.7280 H   0  0  0  0  0  0  0  0  0  0  0  0
   38.3900   30.8570   48.3150 H   0  0  0  0  0  0  0  0  0  0  0  0
  1 18  1  0  0  0  0
  1  2  1  0  0  0  0
  2  6  1  0  0  0  0
  3  2  2  0  0  0  0
  3  7  1  0  0  0  0
  4  3  1  0  0  0  0
  5  4  1  0  0  0  0
  5  1  2  0  0  0  0
  8 16  1  0  0  0  0
  8  4  1  0  0  0  0
  9  8  1  0  0  0  0
 10  9  1  0  0  0  0
 11 12  1  0  0  0  0
 11 13  1  0  0  0  0
 11  9  1  0  0  0  0
 13 14  1  0  0  0  0
 14 15  1  0  0  0  0
 14 16  1  0  0  0  0
 16 17  1  0  0  0  0
 18 21  1  0  0  0  0
 19 18  1  0  0  0  0
 20 18  1  0  0  0  0
 21 22  1  0  0  0  0
 21 28  1  0  0  0  0
 21 23  1  0  0  0  0
 24 30  1  0  0  0  0
 25 31  1  0  0  0  0
 25 24  2  0  0  0  0
 26 25  1  0  0  0  0
 27 26  2  0  0  0  0
 27 28  1  0  0  0  0
 28 29  2  0  0  0  0
 29 24  1  0  0  0  0
 32 26  1  0  0  0  0
M  END
>  <minimizedAffinity>
-4.60733032

>  <minimizedRMSD>
0.830953002

$$$$
