
 OpenBabel03272508503D

 41 45  0  0  0  0  0  0  0  0999 V2000
   37.1780   27.8890   31.9730 C   0  0  0  0  0  0  0  0  0  0  0  0
   36.6020   28.5970   30.9370 C   0  0  0  0  0  0  0  0  0  0  0  0
   35.7010   29.4370   31.5820 C   0  0  0  0  0  0  0  0  0  0  0  0
   35.7690   29.2070   32.9340 C   0  0  0  0  0  0  0  0  0  0  0  0
   36.6660   28.2720   33.1330 O   0  0  0  0  0  0  0  0  0  0  0  0
   36.7610   28.5630   29.8690 H   0  0  0  0  0  0  0  0  0  0  0  0
   35.0680   30.1430   31.0560 H   0  0  0  0  0  0  0  0  0  0  0  0
   33.6400   29.6590   34.0690 C   0  0  0  0  0  0  0  0  0  0  0  0
   34.9990   29.8660   33.9780 C   0  0  0  0  0  0  0  0  0  0  0  0
   35.6650   30.7040   34.8760 C   0  0  0  0  0  0  0  0  0  0  0  0
   34.9420   31.3430   35.8810 C   0  0  0  0  0  0  0  0  0  0  0  0
   35.2850   32.1930   36.8780 N   0  0  0  0  0  0  0  0  0  0  0  0
   34.1720   32.4810   37.5380 N   0  0  0  0  0  0  0  0  0  0  0  0
   33.1340   31.8370   36.9850 C   0  0  0  0  0  0  0  0  0  0  0  0
   33.5960   31.0870   35.9070 C   0  0  0  0  0  0  0  0  0  0  0  0
   32.8810   30.2820   35.0650 C   0  0  0  0  0  0  0  0  0  0  0  0
   33.1680   29.0030   33.3550 H   0  0  0  0  0  0  0  0  0  0  0  0
   36.7360   30.8550   34.7880 H   0  0  0  0  0  0  0  0  0  0  0  0
   36.2540   32.5520   37.0820 H   0  0  0  0  0  0  0  0  0  0  0  0
   32.0930   31.8920   37.3290 H   0  0  0  0  0  0  0  0  0  0  0  0
   31.8350   30.1090   35.1180 H   0  0  0  0  0  0  0  0  0  0  0  0
   38.2080   26.8640   31.7870 C   0  0  0  0  0  0  0  0  0  0  0  0
   39.0800   27.0620   30.9250 O   0  0  0  0  0  0  0  0  0  0  0  0
   37.6440   23.3920   32.7360 C   0  0  0  0  0  0  0  0  0  0  0  0
   38.0770   23.3570   34.0660 C   0  0  0  0  0  0  0  0  0  0  0  0
   38.5650   24.5200   34.6510 C   0  0  0  0  0  0  0  0  0  0  0  0
   38.5970   25.6330   33.8990 N   0  0  0  0  0  0  0  0  0  0  0  0
   38.1760   25.6600   32.6100 C   0  0  0  0  0  0  0  0  0  0  0  0
   37.7050   24.5260   32.0500 N   0  0  0  0  0  0  0  0  0  0  0  0
   37.2640   22.4920   32.2750 H   0  0  0  0  0  0  0  0  0  0  0  0
   38.0190   22.4180   34.6110 H   0  0  0  0  0  0  0  0  0  0  0  0
   39.0270   24.4940   36.0650 C   0  0  0  0  0  3  0  0  0  0  0  0
   39.9960   23.3630   36.2240 C   0  0  0  0  0  3  0  0  0  0  0  0
   39.8460   22.6150   35.3940 H   0  0  0  0  0  0  0  0  0  0  0  0
   39.9240   22.6080   37.4980 C   0  0  0  0  0  3  0  0  0  0  0  0
   40.9390   22.3240   37.8600 H   0  0  0  0  0  0  0  0  0  0  0  0
   39.2460   23.3490   38.4680 O   0  0  0  0  0  0  0  0  0  0  0  0
   37.9100   23.3900   38.0250 C   0  0  0  0  0  3  0  0  0  0  0  0
   37.6020   22.4350   37.5680 H   0  0  0  0  0  0  0  0  0  0  0  0
   37.8480   24.4530   36.9570 C   0  0  0  0  0  3  0  0  0  0  0  0
   36.9040   24.2450   36.3790 H   0  0  0  0  0  0  0  0  0  0  0  0
  1  5  1  0  0  0  0
  2  3  1  0  0  0  0
  2  1  2  0  0  0  0
  3  4  2  0  0  0  0
  4  5  1  0  0  0  0
  4  9  1  0  0  0  0
  6  2  1  0  0  0  0
  7  3  1  0  0  0  0
  8 16  1  0  0  0  0
  9  8  2  0  0  0  0
  9 10  1  0  0  0  0
 10 11  2  0  0  0  0
 11 15  1  0  0  0  0
 11 12  1  0  0  0  0
 12 19  1  0  0  0  0
 12 13  1  0  0  0  0
 14 20  1  0  0  0  0
 14 13  2  0  0  0  0
 15 14  1  0  0  0  0
 16 21  1  0  0  0  0
 16 15  2  0  0  0  0
 17  8  1  0  0  0  0
 18 10  1  0  0  0  0
 22  1  1  0  0  0  0
 22 28  1  0  0  0  0
 23 22  2  0  0  0  0
 24 25  1  0  0  0  0
 25 31  1  0  0  0  0
 25 26  2  0  0  0  0
 26 32  1  0  0  0  0
 27 26  1  0  0  0  0
 28 27  2  0  0  0  0
 29 28  1  0  0  0  0
 29 24  2  0  0  0  0
 30 24  1  0  0  0  0
 32 33  1  0  0  0  0
 32 40  1  0  0  0  0
 33 35  1  0  0  0  0
 34 33  1  0  0  0  0
 35 36  1  0  0  0  0
 35 37  1  0  0  0  0
 38 37  1  0  0  0  0
 39 38  1  0  0  0  0
 40 38  1  0  0  0  0
 41 40  1  0  0  0  0
M  END
>  <minimizedAffinity>
-6.65031242

$$$$

 OpenBabel03272508503D

 41 45  0  0  0  0  0  0  0  0999 V2000
   38.2600   24.6070   35.4590 C   0  0  0  0  0  0  0  0  0  0  0  0
   38.5220   25.5190   36.4610 C   0  0  0  0  0  0  0  0  0  0  0  0
   38.1490   26.7350   35.8960 C   0  0  0  0  0  0  0  0  0  0  0  0
   37.6930   26.5100   34.6210 C   0  0  0  0  0  0  0  0  0  0  0  0
   37.7740   25.2220   34.3910 O   0  0  0  0  0  0  0  0  0  0  0  0
   38.9170   25.3960   37.4590 H   0  0  0  0  0  0  0  0  0  0  0  0
   38.2260   27.6800   36.4220 H   0  0  0  0  0  0  0  0  0  0  0  0
   36.2450   28.4110   34.0610 C   0  0  0  0  0  0  0  0  0  0  0  0
   37.2040   27.5020   33.6740 C   0  0  0  0  0  0  0  0  0  0  0  0
   37.7280   27.5080   32.3790 C   0  0  0  0  0  0  0  0  0  0  0  0
   37.2710   28.4510   31.4610 C   0  0  0  0  0  0  0  0  0  0  0  0
   37.5700   28.7110   30.1660 N   0  0  0  0  0  0  0  0  0  0  0  0
   36.8160   29.7370   29.7960 N   0  0  0  0  0  0  0  0  0  0  0  0
   36.0480   30.1320   30.8210 C   0  0  0  0  0  0  0  0  0  0  0  0
   36.3170   29.3210   31.9190 C   0  0  0  0  0  0  0  0  0  0  0  0
   35.7620   29.3720   33.1670 C   0  0  0  0  0  0  0  0  0  0  0  0
   35.8700   28.3690   35.0710 H   0  0  0  0  0  0  0  0  0  0  0  0
   38.4830   26.7840   32.0930 H   0  0  0  0  0  0  0  0  0  0  0  0
   38.2690   28.1910   29.5740 H   0  0  0  0  0  0  0  0  0  0  0  0
   35.3280   30.9610   30.7950 H   0  0  0  0  0  0  0  0  0  0  0  0
   35.0220   30.0640   33.4850 H   0  0  0  0  0  0  0  0  0  0  0  0
   38.4950   23.1660   35.5860 C   0  0  0  0  0  0  0  0  0  0  0  0
   39.5730   22.7910   36.0760 O   0  0  0  0  0  0  0  0  0  0  0  0
   35.7640   20.7590   35.7460 C   0  0  0  0  0  0  0  0  0  0  0  0
   35.5240   20.4680   34.3990 C   0  0  0  0  0  0  0  0  0  0  0  0
   36.2930   21.0920   33.4230 C   0  0  0  0  0  0  0  0  0  0  0  0
   37.2400   21.9530   33.8290 N   0  0  0  0  0  0  0  0  0  0  0  0
   37.4680   22.2310   35.1370 C   0  0  0  0  0  0  0  0  0  0  0  0
   36.7170   21.6220   36.0770 N   0  0  0  0  0  0  0  0  0  0  0  0
   35.1700   20.2790   36.5100 H   0  0  0  0  0  0  0  0  0  0  0  0
   34.7390   19.7590   34.1490 H   0  0  0  0  0  0  0  0  0  0  0  0
   36.0460   20.7890   31.9880 C   0  0  0  0  0  3  0  0  0  0  0  0
   35.8100   19.3160   31.8500 C   0  0  0  0  0  3  0  0  0  0  0  0
   36.2420   18.7780   32.7410 H   0  0  0  0  0  0  0  0  0  0  0  0
   36.3780   18.6690   30.6420 C   0  0  0  0  0  3  0  0  0  0  0  0
   35.6890   17.8910   30.2370 H   0  0  0  0  0  0  0  0  0  0  0  0
   36.6700   19.6240   29.6670 O   0  0  0  0  0  0  0  0  0  0  0  0
   37.7490   20.3610   30.1930 C   0  0  0  0  0  3  0  0  0  0  0  0
   38.4570   19.7150   30.7380 H   0  0  0  0  0  0  0  0  0  0  0  0
   37.1580   21.3350   31.1810 C   0  0  0  0  0  3  0  0  0  0  0  0
   38.0160   21.6610   31.8340 H   0  0  0  0  0  0  0  0  0  0  0  0
  1 22  1  0  0  0  0
  1  2  2  0  0  0  0
  2  6  1  0  0  0  0
  3  7  1  0  0  0  0
  3  2  1  0  0  0  0
  4  3  2  0  0  0  0
  5  4  1  0  0  0  0
  5  1  1  0  0  0  0
  8 17  1  0  0  0  0
  9  8  1  0  0  0  0
  9  4  1  0  0  0  0
 10  9  2  0  0  0  0
 11 15  2  0  0  0  0
 11 10  1  0  0  0  0
 12 11  1  0  0  0  0
 13 12  1  0  0  0  0
 13 14  2  0  0  0  0
 14 15  1  0  0  0  0
 15 16  1  0  0  0  0
 16 21  1  0  0  0  0
 16  8  2  0  0  0  0
 18 10  1  0  0  0  0
 19 12  1  0  0  0  0
 20 14  1  0  0  0  0
 22 23  2  0  0  0  0
 24 29  1  0  0  0  0
 24 30  1  0  0  0  0
 25 24  2  0  0  0  0
 26 27  2  0  0  0  0
 26 25  1  0  0  0  0
 27 28  1  0  0  0  0
 28 22  1  0  0  0  0
 28 29  2  0  0  0  0
 31 25  1  0  0  0  0
 32 26  1  0  0  0  0
 33 32  1  0  0  0  0
 33 34  1  0  0  0  0
 35 33  1  0  0  0  0
 36 35  1  0  0  0  0
 37 38  1  0  0  0  0
 37 35  1  0  0  0  0
 38 39  1  0  0  0  0
 38 40  1  0  0  0  0
 40 41  1  0  0  0  0
 40 32  1  0  0  0  0
M  END
>  <minimizedAffinity>
-6.5939579

$$$$

 OpenBabel03272508503D

 41 45  0  0  0  0  0  0  0  0999 V2000
   37.1660   28.0830   32.0150 C   0  0  0  0  0  0  0  0  0  0  0  0
   36.5660   28.7940   30.9960 C   0  0  0  0  0  0  0  0  0  0  0  0
   35.6460   29.5970   31.6610 C   0  0  0  0  0  0  0  0  0  0  0  0
   35.7280   29.3430   33.0080 C   0  0  0  0  0  0  0  0  0  0  0  0
   36.6500   28.4300   33.1850 O   0  0  0  0  0  0  0  0  0  0  0  0
   36.7210   28.7840   29.9260 H   0  0  0  0  0  0  0  0  0  0  0  0
   34.9920   30.2950   31.1500 H   0  0  0  0  0  0  0  0  0  0  0  0
   33.6090   29.6590   34.2070 C   0  0  0  0  0  0  0  0  0  0  0  0
   34.9450   29.9620   34.0680 C   0  0  0  0  0  0  0  0  0  0  0  0
   35.5770   30.8610   34.9300 C   0  0  0  0  0  0  0  0  0  0  0  0
   34.8430   31.4620   35.9500 C   0  0  0  0  0  0  0  0  0  0  0  0
   35.1540   32.3510   36.9230 N   0  0  0  0  0  0  0  0  0  0  0  0
   34.0460   32.5690   37.6150 N   0  0  0  0  0  0  0  0  0  0  0  0
   33.0400   31.8420   37.1070 C   0  0  0  0  0  0  0  0  0  0  0  0
   33.5200   31.1100   36.0250 C   0  0  0  0  0  0  0  0  0  0  0  0
   32.8390   30.2420   35.2180 C   0  0  0  0  0  0  0  0  0  0  0  0
   33.1630   28.9590   33.5180 H   0  0  0  0  0  0  0  0  0  0  0  0
   36.6300   31.0870   34.8050 H   0  0  0  0  0  0  0  0  0  0  0  0
   36.1010   32.7830   37.0900 H   0  0  0  0  0  0  0  0  0  0  0  0
   32.0090   31.8270   37.4850 H   0  0  0  0  0  0  0  0  0  0  0  0
   31.8110   29.9950   35.3080 H   0  0  0  0  0  0  0  0  0  0  0  0
   38.2230   27.0890   31.8050 C   0  0  0  0  0  0  0  0  0  0  0  0
   38.4390   26.7030   30.6450 O   0  0  0  0  0  0  0  0  0  0  0  0
   40.9380   26.7280   34.2080 C   0  0  0  0  0  0  0  0  0  0  0  0
   40.4620   25.7340   35.0700 C   0  0  0  0  0  0  0  0  0  0  0  0
   39.2090   25.1780   34.8380 C   0  0  0  0  0  0  0  0  0  0  0  0
   38.5100   25.6300   33.7840 N   0  0  0  0  0  0  0  0  0  0  0  0
   38.9770   26.5930   32.9520 C   0  0  0  0  0  0  0  0  0  0  0  0
   40.1930   27.1280   33.1850 N   0  0  0  0  0  0  0  0  0  0  0  0
   41.9110   27.1650   34.3820 H   0  0  0  0  0  0  0  0  0  0  0  0
   41.0870   25.4200   35.9020 H   0  0  0  0  0  0  0  0  0  0  0  0
   38.6950   24.1210   35.7490 C   0  0  0  0  0  3  0  0  0  0  0  0
   37.9640   24.7830   36.8770 C   0  0  0  0  0  3  0  0  0  0  0  0
   38.3010   25.8550   36.9680 H   0  0  0  0  0  0  0  0  0  0  0  0
   38.1250   24.1680   38.2170 C   0  0  0  0  0  3  0  0  0  0  0  0
   37.1710   24.1940   38.7930 H   0  0  0  0  0  0  0  0  0  0  0  0
   38.5940   22.8580   38.1000 O   0  0  0  0  0  0  0  0  0  0  0  0
   39.9150   22.9860   37.6290 C   0  0  0  0  0  3  0  0  0  0  0  0
   40.4290   23.8490   38.0830 H   0  0  0  0  0  0  0  0  0  0  0  0
   39.8140   23.2390   36.1450 C   0  0  0  0  0  3  0  0  0  0  0  0
   40.8070   23.6780   35.8460 H   0  0  0  0  0  0  0  0  0  0  0  0
  1  5  1  0  0  0  0
  2  3  1  0  0  0  0
  2  1  2  0  0  0  0
  3  4  2  0  0  0  0
  4  5  1  0  0  0  0
  4  9  1  0  0  0  0
  6  2  1  0  0  0  0
  7  3  1  0  0  0  0
  8 16  1  0  0  0  0
  9  8  2  0  0  0  0
  9 10  1  0  0  0  0
 10 11  2  0  0  0  0
 11 15  1  0  0  0  0
 11 12  1  0  0  0  0
 12 19  1  0  0  0  0
 12 13  1  0  0  0  0
 14 20  1  0  0  0  0
 14 13  2  0  0  0  0
 15 14  1  0  0  0  0
 16 21  1  0  0  0  0
 16 15  2  0  0  0  0
 17  8  1  0  0  0  0
 18 10  1  0  0  0  0
 22  1  1  0  0  0  0
 22 28  1  0  0  0  0
 23 22  2  0  0  0  0
 24 30  1  0  0  0  0
 24 25  1  0  0  0  0
 25 31  1  0  0  0  0
 26 25  2  0  0  0  0
 26 32  1  0  0  0  0
 27 26  1  0  0  0  0
 28 29  1  0  0  0  0
 28 27  2  0  0  0  0
 29 24  2  0  0  0  0
 32 40  1  0  0  0  0
 32 33  1  0  0  0  0
 33 34  1  0  0  0  0
 33 35  1  0  0  0  0
 35 36  1  0  0  0  0
 37 35  1  0  0  0  0
 38 39  1  0  0  0  0
 38 37  1  0  0  0  0
 40 38  1  0  0  0  0
 41 40  1  0  0  0  0
M  END
>  <minimizedAffinity>
-6.59365416

$$$$

 OpenBabel03272508503D

 41 45  0  0  0  0  0  0  0  0999 V2000
   37.0430   27.3930   32.9620 C   0  0  0  0  0  0  0  0  0  0  0  0
   37.1000   28.3340   31.9540 C   0  0  0  0  0  0  0  0  0  0  0  0
   36.3470   29.3900   32.4560 C   0  0  0  0  0  0  0  0  0  0  0  0
   35.8830   29.0510   33.7030 C   0  0  0  0  0  0  0  0  0  0  0  0
   36.3200   27.8460   33.9750 O   0  0  0  0  0  0  0  0  0  0  0  0
   37.5880   28.3250   30.9900 H   0  0  0  0  0  0  0  0  0  0  0  0
   36.1820   30.3120   31.9090 H   0  0  0  0  0  0  0  0  0  0  0  0
   33.7000   29.6340   34.6620 C   0  0  0  0  0  0  0  0  0  0  0  0
   35.0560   29.8620   34.5840 C   0  0  0  0  0  0  0  0  0  0  0  0
   35.6660   30.8670   35.3390 C   0  0  0  0  0  0  0  0  0  0  0  0
   34.8890   31.6530   36.1870 C   0  0  0  0  0  0  0  0  0  0  0  0
   35.1710   32.6770   37.0270 N   0  0  0  0  0  0  0  0  0  0  0  0
   34.0270   33.0440   37.5840 N   0  0  0  0  0  0  0  0  0  0  0  0
   33.0270   32.2810   37.1200 C   0  0  0  0  0  0  0  0  0  0  0  0
   33.5490   31.3650   36.2110 C   0  0  0  0  0  0  0  0  0  0  0  0
   32.8880   30.4020   35.5020 C   0  0  0  0  0  0  0  0  0  0  0  0
   33.2720   28.8470   34.0610 H   0  0  0  0  0  0  0  0  0  0  0  0
   36.7350   31.0320   35.2640 H   0  0  0  0  0  0  0  0  0  0  0  0
   36.1230   33.0960   37.1970 H   0  0  0  0  0  0  0  0  0  0  0  0
   31.9710   32.3660   37.4110 H   0  0  0  0  0  0  0  0  0  0  0  0
   31.8450   30.2100   35.5480 H   0  0  0  0  0  0  0  0  0  0  0  0
   37.6990   26.0840   32.8940 C   0  0  0  0  0  0  0  0  0  0  0  0
   38.8660   25.9940   33.3080 O   0  0  0  0  0  0  0  0  0  0  0  0
   35.1960   24.2140   31.0190 C   0  0  0  0  0  0  0  0  0  0  0  0
   35.5390   22.8830   31.2800 C   0  0  0  0  0  0  0  0  0  0  0  0
   36.6280   22.6130   32.1010 C   0  0  0  0  0  0  0  0  0  0  0  0
   37.3050   23.6570   32.6060 N   0  0  0  0  0  0  0  0  0  0  0  0
   36.9680   24.9440   32.3480 C   0  0  0  0  0  0  0  0  0  0  0  0
   35.9100   25.1980   31.5510 N   0  0  0  0  0  0  0  0  0  0  0  0
   34.3510   24.4320   30.3820 H   0  0  0  0  0  0  0  0  0  0  0  0
   34.9410   22.0920   30.8350 H   0  0  0  0  0  0  0  0  0  0  0  0
   37.0000   21.2010   32.3850 C   0  0  0  0  0  3  0  0  0  0  0  0
   37.1620   20.4830   31.0800 C   0  0  0  0  0  3  0  0  0  0  0  0
   36.6110   21.0410   30.2700 H   0  0  0  0  0  0  0  0  0  0  0  0
   36.6810   19.0800   31.0370 C   0  0  0  0  0  3  0  0  0  0  0  0
   37.3590   18.4370   30.4300 H   0  0  0  0  0  0  0  0  0  0  0  0
   36.5450   18.5700   32.3290 O   0  0  0  0  0  0  0  0  0  0  0  0
   35.4630   19.2790   32.8870 C   0  0  0  0  0  3  0  0  0  0  0  0
   34.6680   19.4600   32.1460 H   0  0  0  0  0  0  0  0  0  0  0  0
   36.0090   20.6190   33.3150 C   0  0  0  0  0  3  0  0  0  0  0  0
   35.1100   21.2880   33.4270 H   0  0  0  0  0  0  0  0  0  0  0  0
  1  5  1  0  0  0  0
  2  3  1  0  0  0  0
  2  1  2  0  0  0  0
  3  4  2  0  0  0  0
  4  5  1  0  0  0  0
  4  9  1  0  0  0  0
  6  2  1  0  0  0  0
  7  3  1  0  0  0  0
  8 16  1  0  0  0  0
  9  8  2  0  0  0  0
  9 10  1  0  0  0  0
 10 11  2  0  0  0  0
 11 15  1  0  0  0  0
 11 12  1  0  0  0  0
 12 19  1  0  0  0  0
 12 13  1  0  0  0  0
 14 20  1  0  0  0  0
 14 13  2  0  0  0  0
 15 14  1  0  0  0  0
 16 21  1  0  0  0  0
 16 15  2  0  0  0  0
 17  8  1  0  0  0  0
 18 10  1  0  0  0  0
 22  1  1  0  0  0  0
 22 23  2  0  0  0  0
 24 25  2  0  0  0  0
 24 29  1  0  0  0  0
 25 26  1  0  0  0  0
 26 32  1  0  0  0  0
 26 27  2  0  0  0  0
 28 27  1  0  0  0  0
 28 22  1  0  0  0  0
 29 28  2  0  0  0  0
 30 24  1  0  0  0  0
 31 25  1  0  0  0  0
 32 40  1  0  0  0  0
 33 32  1  0  0  0  0
 34 33  1  0  0  0  0
 35 33  1  0  0  0  0
 35 37  1  0  0  0  0
 36 35  1  0  0  0  0
 37 38  1  0  0  0  0
 38 40  1  0  0  0  0
 39 38  1  0  0  0  0
 40 41  1  0  0  0  0
M  END
>  <minimizedAffinity>
-6.57620668

$$$$

 OpenBabel03272508503D

 41 45  0  0  0  0  0  0  0  0999 V2000
   38.8190   26.2800   33.8710 C   0  0  0  0  0  0  0  0  0  0  0  0
   39.8390   27.1970   34.0320 C   0  0  0  0  0  0  0  0  0  0  0  0
   40.8700   26.4400   34.5790 C   0  0  0  0  0  0  0  0  0  0  0  0
   40.4410   25.1440   34.7210 C   0  0  0  0  0  0  0  0  0  0  0  0
   39.2060   25.0830   34.2860 O   0  0  0  0  0  0  0  0  0  0  0  0
   39.8960   28.2530   33.8100 H   0  0  0  0  0  0  0  0  0  0  0  0
   41.8380   26.8560   34.8350 H   0  0  0  0  0  0  0  0  0  0  0  0
   42.4380   23.7160   34.7360 C   0  0  0  0  0  0  0  0  0  0  0  0
   41.1990   24.0200   35.2540 C   0  0  0  0  0  0  0  0  0  0  0  0
   40.6420   23.2680   36.2910 C   0  0  0  0  0  0  0  0  0  0  0  0
   41.3540   22.1900   36.8120 C   0  0  0  0  0  0  0  0  0  0  0  0
   41.0980   21.2900   37.7920 N   0  0  0  0  0  0  0  0  0  0  0  0
   42.1450   20.4810   37.8550 N   0  0  0  0  0  0  0  0  0  0  0  0
   43.0580   20.8440   36.9420 C   0  0  0  0  0  0  0  0  0  0  0  0
   42.5790   21.9500   36.2470 C   0  0  0  0  0  0  0  0  0  0  0  0
   43.1830   22.6420   35.2340 C   0  0  0  0  0  0  0  0  0  0  0  0
   42.8280   24.3250   33.9360 H   0  0  0  0  0  0  0  0  0  0  0  0
   39.6650   23.5230   36.6860 H   0  0  0  0  0  0  0  0  0  0  0  0
   40.2270   21.2490   38.3840 H   0  0  0  0  0  0  0  0  0  0  0  0
   44.0240   20.3480   36.7740 H   0  0  0  0  0  0  0  0  0  0  0  0
   44.1360   22.4240   34.8210 H   0  0  0  0  0  0  0  0  0  0  0  0
   37.5040   26.6120   33.3170 C   0  0  0  0  0  0  0  0  0  0  0  0
   37.0480   27.7460   33.5350 O   0  0  0  0  0  0  0  0  0  0  0  0
   35.1980   25.1960   30.8770 C   0  0  0  0  0  0  0  0  0  0  0  0
   35.3850   23.8180   31.0320 C   0  0  0  0  0  0  0  0  0  0  0  0
   36.3010   23.3600   31.9730 C   0  0  0  0  0  0  0  0  0  0  0  0
   36.9680   24.2760   32.6940 N   0  0  0  0  0  0  0  0  0  0  0  0
   36.7820   25.6110   32.5380 C   0  0  0  0  0  0  0  0  0  0  0  0
   35.8920   26.0460   31.6230 N   0  0  0  0  0  0  0  0  0  0  0  0
   34.4890   25.5590   30.1470 H   0  0  0  0  0  0  0  0  0  0  0  0
   34.8070   23.1390   30.4120 H   0  0  0  0  0  0  0  0  0  0  0  0
   36.5070   21.8980   32.1460 C   0  0  0  0  0  3  0  0  0  0  0  0
   36.9570   21.3260   30.8360 C   0  0  0  0  0  3  0  0  0  0  0  0
   36.6650   22.0220   29.9990 H   0  0  0  0  0  0  0  0  0  0  0  0
   36.4240   19.9870   30.4850 C   0  0  0  0  0  3  0  0  0  0  0  0
   37.1980   19.3610   29.9830 H   0  0  0  0  0  0  0  0  0  0  0  0
   35.9330   19.3420   31.6220 O   0  0  0  0  0  0  0  0  0  0  0  0
   34.7860   20.0750   31.9860 C   0  0  0  0  0  3  0  0  0  0  0  0
   34.2190   20.4120   31.1030 H   0  0  0  0  0  0  0  0  0  0  0  0
   35.2780   21.3010   32.7130 C   0  0  0  0  0  3  0  0  0  0  0  0
   34.4200   22.0310   32.6900 H   0  0  0  0  0  0  0  0  0  0  0  0
  1  2  2  0  0  0  0
  1  5  1  0  0  0  0
  2  3  1  0  0  0  0
  3  4  2  0  0  0  0
  3  7  1  0  0  0  0
  4  9  1  0  0  0  0
  5  4  1  0  0  0  0
  6  2  1  0  0  0  0
  8 16  2  0  0  0  0
  8  9  1  0  0  0  0
  9 10  2  0  0  0  0
 10 18  1  0  0  0  0
 10 11  1  0  0  0  0
 11 12  1  0  0  0  0
 12 13  1  0  0  0  0
 12 19  1  0  0  0  0
 14 13  2  0  0  0  0
 15 11  2  0  0  0  0
 15 14  1  0  0  0  0
 16 15  1  0  0  0  0
 17  8  1  0  0  0  0
 20 14  1  0  0  0  0
 21 16  1  0  0  0  0
 22 23  2  0  0  0  0
 22  1  1  0  0  0  0
 24 25  2  0  0  0  0
 24 29  1  0  0  0  0
 25 26  1  0  0  0  0
 26 32  1  0  0  0  0
 26 27  2  0  0  0  0
 28 27  1  0  0  0  0
 28 22  1  0  0  0  0
 29 28  2  0  0  0  0
 30 24  1  0  0  0  0
 31 25  1  0  0  0  0
 32 40  1  0  0  0  0
 33 32  1  0  0  0  0
 34 33  1  0  0  0  0
 35 33  1  0  0  0  0
 35 37  1  0  0  0  0
 36 35  1  0  0  0  0
 37 38  1  0  0  0  0
 38 40  1  0  0  0  0
 39 38  1  0  0  0  0
 41 40  1  0  0  0  0
M  END
>  <minimizedAffinity>
-6.52203512

$$$$

 OpenBabel03272508503D

 41 45  0  0  0  0  0  0  0  0999 V2000
   37.3150   26.3780   33.8530 C   0  0  0  0  0  0  0  0  0  0  0  0
   37.4230   27.2530   34.9140 C   0  0  0  0  0  0  0  0  0  0  0  0
   38.1860   26.5470   35.8390 C   0  0  0  0  0  0  0  0  0  0  0  0
   38.4940   25.3170   35.3130 C   0  0  0  0  0  0  0  0  0  0  0  0
   37.9560   25.2490   34.1200 O   0  0  0  0  0  0  0  0  0  0  0  0
   37.0390   28.2530   35.0620 H   0  0  0  0  0  0  0  0  0  0  0  0
   38.4640   26.9490   36.8070 H   0  0  0  0  0  0  0  0  0  0  0  0
   38.9280   23.7990   37.1920 C   0  0  0  0  0  0  0  0  0  0  0  0
   39.2750   24.2620   35.9430 C   0  0  0  0  0  0  0  0  0  0  0  0
   40.3720   23.7380   35.2540 C   0  0  0  0  0  0  0  0  0  0  0  0
   41.1300   22.7280   35.8430 C   0  0  0  0  0  0  0  0  0  0  0  0
   42.2220   22.0320   35.4470 N   0  0  0  0  0  0  0  0  0  0  0  0
   42.5130   21.1850   36.4240 N   0  0  0  0  0  0  0  0  0  0  0  0
   41.6360   21.3270   37.4280 C   0  0  0  0  0  0  0  0  0  0  0  0
   40.7230   22.3200   37.0860 C   0  0  0  0  0  0  0  0  0  0  0  0
   39.6640   22.7860   37.8150 C   0  0  0  0  0  0  0  0  0  0  0  0
   38.0730   24.2320   37.6860 H   0  0  0  0  0  0  0  0  0  0  0  0
   40.6290   24.1160   34.2710 H   0  0  0  0  0  0  0  0  0  0  0  0
   42.7350   22.1480   34.5340 H   0  0  0  0  0  0  0  0  0  0  0  0
   41.6400   20.7530   38.3640 H   0  0  0  0  0  0  0  0  0  0  0  0
   39.3800   22.4430   38.7780 H   0  0  0  0  0  0  0  0  0  0  0  0
   36.5880   26.6790   32.6170 C   0  0  0  0  0  0  0  0  0  0  0  0
   36.1410   25.7280   31.9560 O   0  0  0  0  0  0  0  0  0  0  0  0
   36.5850   29.6380   30.4900 C   0  0  0  0  0  0  0  0  0  0  0  0
   36.1260   30.6410   31.3510 C   0  0  0  0  0  0  0  0  0  0  0  0
   35.8140   30.3160   32.6660 C   0  0  0  0  0  0  0  0  0  0  0  0
   35.9710   29.0380   33.0480 N   0  0  0  0  0  0  0  0  0  0  0  0
   36.4160   28.0700   32.2090 C   0  0  0  0  0  0  0  0  0  0  0  0
   36.7160   28.3940   30.9340 N   0  0  0  0  0  0  0  0  0  0  0  0
   36.8290   29.8830   29.4670 H   0  0  0  0  0  0  0  0  0  0  0  0
   36.0260   31.6530   30.9680 H   0  0  0  0  0  0  0  0  0  0  0  0
   35.3270   31.3750   33.5890 C   0  0  0  0  0  3  0  0  0  0  0  0
   36.1860   32.5890   33.4110 C   0  0  0  0  0  3  0  0  0  0  0  0
   37.1690   32.2930   32.9460 H   0  0  0  0  0  0  0  0  0  0  0  0
   36.5080   33.3550   34.6400 C   0  0  0  0  0  3  0  0  0  0  0  0
   36.5030   34.4530   34.4470 H   0  0  0  0  0  0  0  0  0  0  0  0
   35.6160   33.0320   35.6640 O   0  0  0  0  0  0  0  0  0  0  0  0
   35.9250   31.7010   36.0070 C   0  0  0  0  0  3  0  0  0  0  0  0
   37.0100   31.5110   35.9720 H   0  0  0  0  0  0  0  0  0  0  0  0
   35.2710   30.8300   34.9630 C   0  0  0  0  0  3  0  0  0  0  0  0
   35.7930   29.8350   35.0300 H   0  0  0  0  0  0  0  0  0  0  0  0
  1  5  1  0  0  0  0
  1  2  2  0  0  0  0
  2  6  1  0  0  0  0
  2  3  1  0  0  0  0
  3  7  1  0  0  0  0
  4  3  2  0  0  0  0
  4  9  1  0  0  0  0
  5  4  1  0  0  0  0
  8 17  1  0  0  0  0
  8 16  1  0  0  0  0
  9  8  2  0  0  0  0
 10 11  2  0  0  0  0
 10  9  1  0  0  0  0
 11 15  1  0  0  0  0
 12 11  1  0  0  0  0
 12 13  1  0  0  0  0
 13 14  2  0  0  0  0
 14 20  1  0  0  0  0
 15 14  1  0  0  0  0
 15 16  2  0  0  0  0
 16 21  1  0  0  0  0
 18 10  1  0  0  0  0
 19 12  1  0  0  0  0
 22  1  1  0  0  0  0
 23 22  2  0  0  0  0
 24 29  2  0  0  0  0
 24 25  1  0  0  0  0
 25 26  2  0  0  0  0
 26 27  1  0  0  0  0
 26 32  1  0  0  0  0
 28 22  1  0  0  0  0
 28 27  2  0  0  0  0
 29 28  1  0  0  0  0
 30 24  1  0  0  0  0
 31 25  1  0  0  0  0
 32 40  1  0  0  0  0
 33 32  1  0  0  0  0
 33 35  1  0  0  0  0
 34 33  1  0  0  0  0
 35 37  1  0  0  0  0
 36 35  1  0  0  0  0
 37 38  1  0  0  0  0
 39 38  1  0  0  0  0
 40 41  1  0  0  0  0
 40 38  1  0  0  0  0
M  END
>  <minimizedAffinity>
-6.51461411

$$$$

 OpenBabel03272508503D

 41 45  0  0  0  0  0  0  0  0999 V2000
   37.0150   28.0840   32.3600 C   0  0  0  0  0  0  0  0  0  0  0  0
   38.1450   27.8760   31.5950 C   0  0  0  0  0  0  0  0  0  0  0  0
   38.8420   26.9050   32.3050 C   0  0  0  0  0  0  0  0  0  0  0  0
   38.1270   26.5800   33.4310 C   0  0  0  0  0  0  0  0  0  0  0  0
   37.0360   27.3060   33.4330 O   0  0  0  0  0  0  0  0  0  0  0  0
   38.4740   28.3190   30.6650 H   0  0  0  0  0  0  0  0  0  0  0  0
   39.7950   26.5020   31.9790 H   0  0  0  0  0  0  0  0  0  0  0  0
   39.4370   24.6460   34.1870 C   0  0  0  0  0  0  0  0  0  0  0  0
   38.4900   25.6100   34.4540 C   0  0  0  0  0  0  0  0  0  0  0  0
   37.8590   25.6800   35.6990 C   0  0  0  0  0  0  0  0  0  0  0  0
   38.1950   24.7580   36.6880 C   0  0  0  0  0  0  0  0  0  0  0  0
   37.7760   24.5650   37.9620 N   0  0  0  0  0  0  0  0  0  0  0  0
   38.4490   23.5270   38.4350 N   0  0  0  0  0  0  0  0  0  0  0  0
   39.2830   23.0570   37.4960 C   0  0  0  0  0  0  0  0  0  0  0  0
   39.1460   23.8320   36.3480 C   0  0  0  0  0  0  0  0  0  0  0  0
   39.8010   23.7050   35.1550 C   0  0  0  0  0  0  0  0  0  0  0  0
   39.8980   24.6310   33.2120 H   0  0  0  0  0  0  0  0  0  0  0  0
   37.1150   26.4450   35.8900 H   0  0  0  0  0  0  0  0  0  0  0  0
   37.0520   25.1370   38.4710 H   0  0  0  0  0  0  0  0  0  0  0  0
   39.9620   22.2010   37.6160 H   0  0  0  0  0  0  0  0  0  0  0  0
   40.5330   22.9710   34.9290 H   0  0  0  0  0  0  0  0  0  0  0  0
   35.9580   29.0370   32.0120 C   0  0  0  0  0  0  0  0  0  0  0  0
   35.9030   29.4460   30.8420 O   0  0  0  0  0  0  0  0  0  0  0  0
   32.8240   29.4040   33.8350 C   0  0  0  0  0  0  0  0  0  0  0  0
   33.1830   30.2190   34.9140 C   0  0  0  0  0  0  0  0  0  0  0  0
   34.5000   30.6510   35.0280 C   0  0  0  0  0  0  0  0  0  0  0  0
   35.3710   30.2590   34.0850 N   0  0  0  0  0  0  0  0  0  0  0  0
   35.0170   29.4680   33.0410 C   0  0  0  0  0  0  0  0  0  0  0  0
   33.7370   29.0530   32.9380 N   0  0  0  0  0  0  0  0  0  0  0  0
   31.8030   29.0630   33.7400 H   0  0  0  0  0  0  0  0  0  0  0  0
   32.4200   30.4950   35.6370 H   0  0  0  0  0  0  0  0  0  0  0  0
   34.8910   31.5190   36.1710 C   0  0  0  0  0  3  0  0  0  0  0  0
   33.6540   31.8850   36.9320 C   0  0  0  0  0  3  0  0  0  0  0  0
   32.7500   31.7530   36.2710 H   0  0  0  0  0  0  0  0  0  0  0  0
   33.5950   33.2660   37.4680 C   0  0  0  0  0  3  0  0  0  0  0  0
   33.1200   33.2910   38.4770 H   0  0  0  0  0  0  0  0  0  0  0  0
   34.8720   33.8280   37.5120 O   0  0  0  0  0  0  0  0  0  0  0  0
   35.2360   34.0070   36.1630 C   0  0  0  0  0  3  0  0  0  0  0  0
   34.3790   34.3260   35.5470 H   0  0  0  0  0  0  0  0  0  0  0  0
   35.6870   32.6570   35.6630 C   0  0  0  0  0  3  0  0  0  0  0  0
   35.6390   32.7210   34.5390 H   0  0  0  0  0  0  0  0  0  0  0  0
  1  5  1  0  0  0  0
  2  3  1  0  0  0  0
  2  1  2  0  0  0  0
  3  4  2  0  0  0  0
  4  5  1  0  0  0  0
  4  9  1  0  0  0  0
  6  2  1  0  0  0  0
  7  3  1  0  0  0  0
  8  9  2  0  0  0  0
  8 16  1  0  0  0  0
  9 10  1  0  0  0  0
 10 18  1  0  0  0  0
 10 11  2  0  0  0  0
 11 12  1  0  0  0  0
 12 13  1  0  0  0  0
 12 19  1  0  0  0  0
 14 20  1  0  0  0  0
 14 13  2  0  0  0  0
 15 11  1  0  0  0  0
 15 14  1  0  0  0  0
 16 15  2  0  0  0  0
 17  8  1  0  0  0  0
 21 16  1  0  0  0  0
 22  1  1  0  0  0  0
 22 28  1  0  0  0  0
 23 22  2  0  0  0  0
 24 25  1  0  0  0  0
 25 26  2  0  0  0  0
 25 31  1  0  0  0  0
 26 32  1  0  0  0  0
 27 26  1  0  0  0  0
 28 27  2  0  0  0  0
 29 28  1  0  0  0  0
 29 24  2  0  0  0  0
 30 24  1  0  0  0  0
 32 33  1  0  0  0  0
 33 35  1  0  0  0  0
 34 33  1  0  0  0  0
 35 37  1  0  0  0  0
 35 36  1  0  0  0  0
 38 37  1  0  0  0  0
 39 38  1  0  0  0  0
 40 38  1  0  0  0  0
 40 32  1  0  0  0  0
 41 40  1  0  0  0  0
M  END
>  <minimizedAffinity>
-6.49492168

$$$$

 OpenBabel03272508503D

 41 45  0  0  0  0  0  0  0  0999 V2000
   38.5920   24.8740   35.4350 C   0  0  0  0  0  0  0  0  0  0  0  0
   38.3380   26.0730   36.0700 C   0  0  0  0  0  0  0  0  0  0  0  0
   38.3850   27.0020   35.0370 C   0  0  0  0  0  0  0  0  0  0  0  0
   38.6580   26.3460   33.8620 C   0  0  0  0  0  0  0  0  0  0  0  0
   38.7770   25.0700   34.1380 O   0  0  0  0  0  0  0  0  0  0  0  0
   38.1400   26.3080   37.1070 H   0  0  0  0  0  0  0  0  0  0  0  0
   38.2250   28.0640   35.1870 H   0  0  0  0  0  0  0  0  0  0  0  0
   40.0490   27.1580   32.0090 C   0  0  0  0  0  0  0  0  0  0  0  0
   38.7970   26.9340   32.5380 C   0  0  0  0  0  0  0  0  0  0  0  0
   37.6400   27.2620   31.8260 C   0  0  0  0  0  0  0  0  0  0  0  0
   37.7550   27.8260   30.5570 C   0  0  0  0  0  0  0  0  0  0  0  0
   36.8520   28.2430   29.6380 N   0  0  0  0  0  0  0  0  0  0  0  0
   37.5400   28.6980   28.6010 N   0  0  0  0  0  0  0  0  0  0  0  0
   38.8550   28.5810   28.8390 C   0  0  0  0  0  0  0  0  0  0  0  0
   39.0320   28.0170   30.0990 C   0  0  0  0  0  0  0  0  0  0  0  0
   40.2030   27.7220   30.7390 C   0  0  0  0  0  0  0  0  0  0  0  0
   40.9130   26.8890   32.5950 H   0  0  0  0  0  0  0  0  0  0  0  0
   36.6630   27.0780   32.2590 H   0  0  0  0  0  0  0  0  0  0  0  0
   35.8040   28.2090   29.7380 H   0  0  0  0  0  0  0  0  0  0  0  0
   39.6560   28.8800   28.1500 H   0  0  0  0  0  0  0  0  0  0  0  0
   41.1770   27.8870   30.3490 H   0  0  0  0  0  0  0  0  0  0  0  0
   38.6470   23.5820   36.1230 C   0  0  0  0  0  0  0  0  0  0  0  0
   39.5910   23.3740   36.9020 O   0  0  0  0  0  0  0  0  0  0  0  0
   35.8330   21.3550   36.7560 C   0  0  0  0  0  0  0  0  0  0  0  0
   35.6200   20.7580   35.5090 C   0  0  0  0  0  0  0  0  0  0  0  0
   36.4360   21.1100   34.4400 C   0  0  0  0  0  0  0  0  0  0  0  0
   37.4000   22.0180   34.6620 N   0  0  0  0  0  0  0  0  0  0  0  0
   37.6010   22.5940   35.8740 C   0  0  0  0  0  0  0  0  0  0  0  0
   36.8040   22.2460   36.9050 N   0  0  0  0  0  0  0  0  0  0  0  0
   35.2020   21.0860   37.5910 H   0  0  0  0  0  0  0  0  0  0  0  0
   34.8190   20.0300   35.4070 H   0  0  0  0  0  0  0  0  0  0  0  0
   36.2180   20.4810   33.1100 C   0  0  0  0  0  3  0  0  0  0  0  0
   37.5360   20.4040   32.4020 C   0  0  0  0  0  3  0  0  0  0  0  0
   38.2520   21.1510   32.8510 H   0  0  0  0  0  0  0  0  0  0  0  0
   37.5140   20.6580   30.9410 C   0  0  0  0  0  3  0  0  0  0  0  0
   38.2200   19.9840   30.4010 H   0  0  0  0  0  0  0  0  0  0  0  0
   36.2190   20.5160   30.4390 O   0  0  0  0  0  0  0  0  0  0  0  0
   35.5010   21.6010   30.9790 C   0  0  0  0  0  3  0  0  0  0  0  0
   36.1140   22.5170   31.0190 H   0  0  0  0  0  0  0  0  0  0  0  0
   35.1530   21.2180   32.3960 C   0  0  0  0  0  3  0  0  0  0  0  0
   34.9040   22.1840   32.9180 H   0  0  0  0  0  0  0  0  0  0  0  0
  1  2  2  0  0  0  0
  1 22  1  0  0  0  0
  2  6  1  0  0  0  0
  3  7  1  0  0  0  0
  3  2  1  0  0  0  0
  4  5  1  0  0  0  0
  4  3  2  0  0  0  0
  5  1  1  0  0  0  0
  8  9  1  0  0  0  0
  8 17  1  0  0  0  0
  9  4  1  0  0  0  0
 10 18  1  0  0  0  0
 10  9  2  0  0  0  0
 11 10  1  0  0  0  0
 12 19  1  0  0  0  0
 12 11  1  0  0  0  0
 13 14  2  0  0  0  0
 13 12  1  0  0  0  0
 14 15  1  0  0  0  0
 15 11  2  0  0  0  0
 15 16  1  0  0  0  0
 16  8  2  0  0  0  0
 20 14  1  0  0  0  0
 21 16  1  0  0  0  0
 22 23  2  0  0  0  0
 24 29  1  0  0  0  0
 24 30  1  0  0  0  0
 25 24  2  0  0  0  0
 26 27  2  0  0  0  0
 26 25  1  0  0  0  0
 27 28  1  0  0  0  0
 28 22  1  0  0  0  0
 28 29  2  0  0  0  0
 31 25  1  0  0  0  0
 32 26  1  0  0  0  0
 33 34  1  0  0  0  0
 33 32  1  0  0  0  0
 35 33  1  0  0  0  0
 36 35  1  0  0  0  0
 37 35  1  0  0  0  0
 37 38  1  0  0  0  0
 38 39  1  0  0  0  0
 38 40  1  0  0  0  0
 40 41  1  0  0  0  0
 40 32  1  0  0  0  0
M  END
>  <minimizedAffinity>
-6.40005922

$$$$

 OpenBabel03272508503D

 41 45  0  0  0  0  0  0  0  0999 V2000
   36.5290   28.0130   31.6540 C   0  0  0  0  0  0  0  0  0  0  0  0
   36.0230   26.9110   30.9950 C   0  0  0  0  0  0  0  0  0  0  0  0
   36.3750   25.8500   31.8230 C   0  0  0  0  0  0  0  0  0  0  0  0
   37.0560   26.3420   32.9090 C   0  0  0  0  0  0  0  0  0  0  0  0
   37.1300   27.6440   32.7750 O   0  0  0  0  0  0  0  0  0  0  0  0
   35.4780   26.8170   30.0660 H   0  0  0  0  0  0  0  0  0  0  0  0
   36.1270   24.8180   31.6010 H   0  0  0  0  0  0  0  0  0  0  0  0
   37.6730   26.1420   35.2770 C   0  0  0  0  0  0  0  0  0  0  0  0
   37.6060   25.5800   34.0210 C   0  0  0  0  0  0  0  0  0  0  0  0
   38.0590   24.2800   33.7830 C   0  0  0  0  0  0  0  0  0  0  0  0
   38.5880   23.5370   34.8370 C   0  0  0  0  0  0  0  0  0  0  0  0
   39.0980   22.2860   34.9300 N   0  0  0  0  0  0  0  0  0  0  0  0
   39.4540   22.1090   36.1940 N   0  0  0  0  0  0  0  0  0  0  0  0
   39.1850   23.2150   36.9030 C   0  0  0  0  0  0  0  0  0  0  0  0
   38.6210   24.1630   36.0550 C   0  0  0  0  0  0  0  0  0  0  0  0
   38.1980   25.4270   36.3580 C   0  0  0  0  0  0  0  0  0  0  0  0
   37.3110   27.1480   35.4130 H   0  0  0  0  0  0  0  0  0  0  0  0
   37.9980   23.8550   32.7870 H   0  0  0  0  0  0  0  0  0  0  0  0
   39.1900   21.5930   34.1420 H   0  0  0  0  0  0  0  0  0  0  0  0
   39.3770   23.3460   37.9770 H   0  0  0  0  0  0  0  0  0  0  0  0
   38.2400   25.8780   37.3180 H   0  0  0  0  0  0  0  0  0  0  0  0
   36.4050   29.3870   31.1600 C   0  0  0  0  0  0  0  0  0  0  0  0
   36.4810   29.5760   29.9350 O   0  0  0  0  0  0  0  0  0  0  0  0
   36.3690   32.7610   32.5340 C   0  0  0  0  0  0  0  0  0  0  0  0
   35.8460   32.5710   33.8180 C   0  0  0  0  0  0  0  0  0  0  0  0
   35.5010   31.2870   34.2260 C   0  0  0  0  0  0  0  0  0  0  0  0
   35.6900   30.2820   33.3550 N   0  0  0  0  0  0  0  0  0  0  0  0
   36.1970   30.4740   32.1120 C   0  0  0  0  0  0  0  0  0  0  0  0
   36.5290   31.7230   31.7240 N   0  0  0  0  0  0  0  0  0  0  0  0
   36.6400   33.7560   32.2110 H   0  0  0  0  0  0  0  0  0  0  0  0
   35.7240   33.4350   34.4660 H   0  0  0  0  0  0  0  0  0  0  0  0
   34.9450   31.0740   35.5880 C   0  0  0  0  0  3  0  0  0  0  0  0
   33.5030   30.6910   35.4550 C   0  0  0  0  0  3  0  0  0  0  0  0
   33.1140   31.0230   34.4510 H   0  0  0  0  0  0  0  0  0  0  0  0
   32.5780   31.2410   36.4760 C   0  0  0  0  0  3  0  0  0  0  0  0
   31.8040   30.4930   36.7680 H   0  0  0  0  0  0  0  0  0  0  0  0
   33.2890   31.6760   37.5960 O   0  0  0  0  0  0  0  0  0  0  0  0
   34.0090   32.8030   37.1530 C   0  0  0  0  0  3  0  0  0  0  0  0
   33.4200   33.4130   36.4480 H   0  0  0  0  0  0  0  0  0  0  0  0
   35.2110   32.2740   36.4110 C   0  0  0  0  0  3  0  0  0  0  0  0
   35.5770   33.1310   35.7790 H   0  0  0  0  0  0  0  0  0  0  0  0
  1  5  1  0  0  0  0
  2  1  2  0  0  0  0
  2  3  1  0  0  0  0
  3  4  2  0  0  0  0
  4  9  1  0  0  0  0
  5  4  1  0  0  0  0
  6  2  1  0  0  0  0
  7  3  1  0  0  0  0
  8 17  1  0  0  0  0
  8 16  1  0  0  0  0
  9  8  2  0  0  0  0
 10  9  1  0  0  0  0
 10 11  2  0  0  0  0
 11 12  1  0  0  0  0
 11 15  1  0  0  0  0
 12 13  1  0  0  0  0
 13 14  2  0  0  0  0
 14 20  1  0  0  0  0
 15 16  2  0  0  0  0
 15 14  1  0  0  0  0
 16 21  1  0  0  0  0
 18 10  1  0  0  0  0
 19 12  1  0  0  0  0
 22  1  1  0  0  0  0
 22 28  1  0  0  0  0
 23 22  2  0  0  0  0
 24 25  1  0  0  0  0
 25 26  2  0  0  0  0
 25 31  1  0  0  0  0
 26 32  1  0  0  0  0
 27 26  1  0  0  0  0
 28 27  2  0  0  0  0
 29 28  1  0  0  0  0
 29 24  2  0  0  0  0
 30 24  1  0  0  0  0
 32 40  1  0  0  0  0
 33 32  1  0  0  0  0
 33 35  1  0  0  0  0
 34 33  1  0  0  0  0
 35 36  1  0  0  0  0
 35 37  1  0  0  0  0
 38 37  1  0  0  0  0
 39 38  1  0  0  0  0
 40 38  1  0  0  0  0
 41 40  1  0  0  0  0
M  END
>  <minimizedAffinity>
-6.37212944

$$$$
