
     RDKit          3D

 43 45  0  0  0  0  0  0  0  0999 V2000
   37.1329   30.9634   49.0142 C   0  0  0  0  0  0  0  0  0  0  0  0
   36.9136   31.9342   49.9958 C   0  0  0  0  0  0  0  0  0  0  0  0
   37.5526   33.1585   49.9800 C   0  0  0  0  0  0  0  0  0  0  0  0
   38.4530   33.4586   48.9577 C   0  0  0  0  0  0  0  0  0  0  0  0
   38.6589   32.4989   48.0023 C   0  0  0  0  0  0  0  0  0  0  0  0
   38.0141   31.2828   48.0319 C   0  0  0  0  0  0  0  0  0  0  0  0
   36.4138   29.7099   49.1193 C   0  0  0  0  0  0  0  0  0  0  0  0
   36.9249   28.8713   49.9566 O   0  0  0  0  0  0  0  0  0  0  0  0
   33.6254   30.1759   46.8506 C   0  0  0  0  0  0  0  0  0  0  0  0
   32.9632   28.9560   46.8736 C   0  0  0  0  0  0  0  0  0  0  0  0
   33.4757   27.9503   47.6790 C   0  0  0  0  0  0  0  0  0  0  0  0
   34.5950   28.1874   48.4106 N   0  0  0  0  0  0  0  0  0  0  0  0
   35.2050   29.3653   48.3665 C   0  0  0  0  0  0  0  0  0  0  0  0
   34.7169   30.3464   47.5897 N   0  0  0  0  0  0  0  0  0  0  0  0
   38.3343   30.3711   46.9535 C   0  0  0  0  0  0  0  0  0  0  0  0
   38.8080   30.7118   45.7657 C   0  0  0  0  0  0  0  0  0  0  0  0
   39.1715   29.9150   44.5989 C   0  0  0  0  0  0  0  0  0  0  0  0
   36.2099   31.7097   50.8017 H   0  0  0  0  0  0  0  0  0  0  0  0
   37.3336   33.8613   50.7732 H   0  0  0  0  0  0  0  0  0  0  0  0
   38.9401   34.4127   48.9603 H   0  0  0  0  0  0  0  0  0  0  0  0
   39.3694   32.7962   47.2381 H   0  0  0  0  0  0  0  0  0  0  0  0
   33.2375   30.9618   46.2306 H   0  0  0  0  0  0  0  0  0  0  0  0
   32.0758   28.8112   46.2754 H   0  0  0  0  0  0  0  0  0  0  0  0
   32.9909   26.9891   47.7245 H   0  0  0  0  0  0  0  0  0  0  0  0
   38.2153   29.2772   47.0093 H   0  0  0  0  0  0  0  0  0  0  0  0
   38.9912   31.7545   45.5255 H   0  0  0  0  0  0  0  0  0  0  0  0
   38.5401   30.1996   43.7147 H   0  0  0  0  0  0  0  0  0  0  0  0
   38.9334   28.8502   44.7818 H   0  0  0  0  0  0  0  0  0  0  0  0
   40.5955   30.0337   44.1693 C   0  0  2  0  0  0  0  0  0  0  0  0
   41.3211   30.9982   45.1054 C   0  0  1  0  0  0  0  0  0  0  0  0
   40.9074   32.0241   45.0162 H   0  0  0  0  0  0  0  0  0  0  0  0
   42.7937   31.0711   44.7696 C   0  0  2  0  0  0  0  0  0  0  0  0
   43.3342   30.1421   44.9493 H   0  0  0  0  0  0  0  0  0  0  0  0
   42.8751   31.5315   43.4441 O   0  0  0  0  0  0  0  0  0  0  0  0
   42.3116   30.5909   42.5782 C   0  0  1  0  0  0  0  0  0  0  0  0
   42.6031   30.7587   41.5439 H   0  0  0  0  0  0  0  0  0  0  0  0
   40.7903   30.5074   42.7720 C   0  0  2  0  0  0  0  0  0  0  0  0
   40.3686   31.5005   42.5650 H   0  0  0  0  0  0  0  0  0  0  0  0
   41.1329   29.0715   44.2912 H   0  0  0  0  0  0  0  0  0  0  0  0
   41.1973   30.6437   46.1432 H   0  0  0  0  0  0  0  0  0  0  0  0
   43.2248   31.8737   45.3996 H   0  0  0  0  0  0  0  0  0  0  0  0
   42.7706   29.6105   42.8856 H   0  0  0  0  0  0  0  0  0  0  0  0
   40.4669   29.7570   42.0145 H   0  0  0  0  0  0  0  0  0  0  0  0
  1  7  1  0
  1  2  2  0
  3  2  1  0
  4  3  2  0
  5  6  2  0
  5  4  1  0
  6  1  1  0
  7  8  2  0
  9 10  2  0
  9 14  1  0
 10 11  1  0
 11 12  2  0
 13 12  1  0
 13  7  1  0
 14 13  2  0
 15  6  1  0
 16 15  2  0
 17 16  1  0
  2 18  1  0
  3 19  1  0
  4 20  1  0
  5 21  1  0
  9 22  1  0
 10 23  1  0
 11 24  1  0
 15 25  1  0
 16 26  1  0
 17 27  1  0
 17 28  1  0
 29 30  1  0
 30 31  1  1
 30 32  1  0
 32 33  1  6
 32 34  1  0
 34 35  1  0
 35 36  1  6
 35 37  1  0
 37 38  1  1
 37 29  1  0
 29 39  1  6
 30 40  1  0
 32 41  1  0
 35 42  1  0
 37 43  1  0
 17 29  1  0
M  ISO  8  18  14  19  14  20  14  21  14  22  14  23  14  24  14  27   8
M  ISO  5  28   8  31  15  33  15  36  15  38  15
M  END
>  <DihAtoms>  (1) 
15,16,28,29

>  <DihDeg>  (1) 
59.98937464200634

$$$$
