
 OpenBabel03272503383D

 27 29  0  0  0  0  0  0  0  0999 V2000
   38.7280   31.8290   47.7010 C   0  0  0  0  0  0  0  0  0  0  0  0
   37.7080   30.9150   47.9750 C   0  0  0  0  0  0  0  0  0  0  0  0
   36.8490   31.1930   49.0330 C   0  0  0  0  0  0  0  0  0  0  0  0
   37.0410   32.3300   49.7430 N   0  0  0  0  0  0  0  0  0  0  0  0
   38.0420   33.2020   49.4540 C   0  0  0  0  0  0  0  0  0  0  0  0
   38.8810   32.9380   48.4270 N   0  0  0  0  0  0  0  0  0  0  0  0
   37.5110   30.0070   47.4510 H   0  0  0  0  0  0  0  0  0  0  0  0
   38.1890   34.1090   50.0260 H   0  0  0  0  0  0  0  0  0  0  0  0
   35.7570   30.2880   49.3830 C   0  0  0  0  0  0  0  0  0  0  0  0
   35.8580   28.9220   49.4340 C   0  0  0  0  0  0  0  0  0  0  0  0
   34.5840   28.5050   49.8060 C   0  0  0  0  0  0  0  0  0  0  0  0
   33.7740   29.5750   49.9660 N   0  0  0  0  0  0  0  0  0  0  0  0
   34.5040   30.6640   49.7030 N   0  0  0  0  0  0  0  0  0  0  0  0
   36.7600   28.3630   49.2210 H   0  0  0  0  0  0  0  0  0  0  0  0
   34.3750   27.4330   49.9260 H   0  0  0  0  0  0  0  0  0  0  0  0
   32.7670   29.4800   50.2460 H   0  0  0  0  0  0  0  0  0  0  0  0
   39.5020   31.4250   46.6270 O   0  0  0  0  0  0  0  0  0  0  0  0
   39.6700   32.3540   45.5670 C   0  0  0  0  0  3  0  0  0  0  0  0
   38.3390   32.5100   44.8750 C   0  0  0  0  0  3  0  0  0  0  0  0
   38.2650   33.5280   44.4240 H   0  0  0  0  0  0  0  0  0  0  0  0
   38.1630   31.5370   43.7560 C   0  0  0  0  0  3  0  0  0  0  0  0
   37.2040   31.8330   43.2410 H   0  0  0  0  0  0  0  0  0  0  0  0
   39.2200   31.6940   42.8660 O   0  0  0  0  0  0  0  0  0  0  0  0
   40.3610   31.1710   43.4680 C   0  0  0  0  0  3  0  0  0  0  0  0
   40.2400   30.1080   43.7350 H   0  0  0  0  0  0  0  0  0  0  0  0
   40.7940   31.9700   44.6700 C   0  0  0  0  0  3  0  0  0  0  0  0
   41.4580   31.2750   45.2600 H   0  0  0  0  0  0  0  0  0  0  0  0
  1  2  2  0  0  0  0
  1  6  1  0  0  0  0
  2  3  1  0  0  0  0
  3  9  1  0  0  0  0
  3  4  2  0  0  0  0
  5  4  1  0  0  0  0
  5  8  1  0  0  0  0
  6  5  2  0  0  0  0
  7  2  1  0  0  0  0
  9 10  1  0  0  0  0
  9 13  2  0  0  0  0
 10 11  2  0  0  0  0
 11 15  1  0  0  0  0
 11 12  1  0  0  0  0
 12 16  1  0  0  0  0
 13 12  1  0  0  0  0
 14 10  1  0  0  0  0
 17  1  1  0  0  0  0
 18 17  1  0  0  0  0
 19 18  1  0  0  0  0
 20 19  1  0  0  0  0
 21 19  1  0  0  0  0
 22 21  1  0  0  0  0
 23 24  1  0  0  0  0
 23 21  1  0  0  0  0
 24 25  1  0  0  0  0
 24 26  1  0  0  0  0
 26 27  1  0  0  0  0
 26 18  1  0  0  0  0
M  END
>  <minimizedAffinity>
-5.88577843

>  <minimizedRMSD>
7.08644724

$$$$
