
 OpenBabel03272507133D

 41 45  0  0  0  0  0  0  0  0999 V2000
   35.9600   29.1190   49.8100 C   0  0  0  0  0  0  0  0  0  0  0  0
   34.9800   29.6360   50.5840 C   0  0  0  0  0  0  0  0  0  0  0  0
   33.7750   29.1140   50.1100 C   0  0  0  0  0  0  0  0  0  0  0  0
   34.1210   28.2820   49.0360 C   0  0  0  0  0  0  0  0  0  0  0  0
   35.4120   28.3330   48.9200 O   0  0  0  0  0  0  0  0  0  0  0  0
   35.0470   30.3350   51.4340 H   0  0  0  0  0  0  0  0  0  0  0  0
   32.8070   29.3690   50.5610 H   0  0  0  0  0  0  0  0  0  0  0  0
   33.4570   26.6620   47.2630 C   0  0  0  0  0  0  0  0  0  0  0  0
   33.1130   27.5490   48.2760 C   0  0  0  0  0  0  0  0  0  0  0  0
   31.7910   27.7760   48.6140 C   0  0  0  0  0  0  0  0  0  0  0  0
   30.8220   27.0980   47.9190 C   0  0  0  0  0  0  0  0  0  0  0  0
   29.4800   27.1120   48.0270 N   0  0  0  0  0  0  0  0  0  0  0  0
   28.9990   26.2680   47.1180 N   0  0  0  0  0  0  0  0  0  0  0  0
   30.0060   25.7180   46.4350 C   0  0  0  0  0  0  0  0  0  0  0  0
   31.2160   26.2210   46.9130 C   0  0  0  0  0  0  0  0  0  0  0  0
   32.5230   25.9810   46.5620 C   0  0  0  0  0  0  0  0  0  0  0  0
   34.5190   26.5500   47.0700 H   0  0  0  0  0  0  0  0  0  0  0  0
   31.4530   28.4550   49.3950 H   0  0  0  0  0  0  0  0  0  0  0  0
   28.8800   27.6640   48.6830 H   0  0  0  0  0  0  0  0  0  0  0  0
   29.9660   24.9810   45.6170 H   0  0  0  0  0  0  0  0  0  0  0  0
   32.7620   25.2980   45.7830 H   0  0  0  0  0  0  0  0  0  0  0  0
   37.3670   29.4490   50.0170 C   0  0  0  0  0  0  0  0  0  0  0  0
   38.0640   28.7050   50.7500 O   0  0  0  0  0  0  0  0  0  0  0  0
   37.8800   30.6240   49.3580 C   0  0  0  0  0  0  0  0  0  0  0  0
   38.1200   31.7400   50.1320 C   0  0  0  0  0  0  0  0  0  0  0  0
   38.6130   32.8920   49.5360 C   0  0  0  0  0  0  0  0  0  0  0  0
   38.8340   32.8490   48.2000 N   0  0  0  0  0  0  0  0  0  0  0  0
   38.6010   31.7700   47.4590 C   0  0  0  0  0  0  0  0  0  0  0  0
   38.1260   30.6700   48.0450 N   0  0  0  0  0  0  0  0  0  0  0  0
   37.9500   31.8030   51.2170 H   0  0  0  0  0  0  0  0  0  0  0  0
   38.8080   33.7680   50.1090 H   0  0  0  0  0  0  0  0  0  0  0  0
   38.8400   31.7120   45.9890 C   0  0  0  0  0  3  0  0  0  0  0  0
   40.1640   32.3190   45.5930 C   0  0  0  0  0  3  0  0  0  0  0  0
   41.0230   31.6670   45.9090 H   0  0  0  0  0  0  0  0  0  0  0  0
   40.1110   32.4860   44.0880 C   0  0  0  0  0  3  0  0  0  0  0  0
   41.0840   32.8100   43.6710 H   0  0  0  0  0  0  0  0  0  0  0  0
   39.5680   31.4000   43.4550 O   0  0  0  0  0  0  0  0  0  0  0  0
   39.6150   30.2180   44.1850 C   0  0  0  0  0  3  0  0  0  0  0  0
   39.1600   29.4280   43.5520 H   0  0  0  0  0  0  0  0  0  0  0  0
   38.8170   30.2980   45.4590 C   0  0  0  0  0  3  0  0  0  0  0  0
   39.2800   29.5790   46.1830 H   0  0  0  0  0  0  0  0  0  0  0  0
  1 22  1  0  0  0  0
  1  2  2  0  0  0  0
  2  6  1  0  0  0  0
  3  7  1  0  0  0  0
  3  2  1  0  0  0  0
  4  3  2  0  0  0  0
  5  4  1  0  0  0  0
  5  1  1  0  0  0  0
  8  9  1  0  0  0  0
  9 10  2  0  0  0  0
  9  4  1  0  0  0  0
 10 18  1  0  0  0  0
 11 12  1  0  0  0  0
 11 10  1  0  0  0  0
 12 19  1  0  0  0  0
 13 12  1  0  0  0  0
 14 15  1  0  0  0  0
 14 13  2  0  0  0  0
 15 11  2  0  0  0  0
 16 15  1  0  0  0  0
 16  8  2  0  0  0  0
 17  8  1  0  0  0  0
 20 14  1  0  0  0  0
 21 16  1  0  0  0  0
 22 23  2  0  0  0  0
 24 22  1  0  0  0  0
 24 25  1  0  0  0  0
 25 30  1  0  0  0  0
 26 31  1  0  0  0  0
 26 25  2  0  0  0  0
 27 26  1  0  0  0  0
 28 29  1  0  0  0  0
 28 27  2  0  0  0  0
 29 24  2  0  0  0  0
 32 28  1  0  0  0  0
 33 34  1  0  0  0  0
 33 32  1  0  0  0  0
 35 33  1  0  0  0  0
 36 35  1  0  0  0  0
 37 35  1  0  0  0  0
 37 38  1  0  0  0  0
 38 40  1  0  0  0  0
 39 38  1  0  0  0  0
 40 32  1  0  0  0  0
 40 41  1  0  0  0  0
M  END
>  <minimizedAffinity>
-6.9658556

>  <minimizedRMSD>
0.506949663

$$$$
