
 OpenBabel03272507143D

 41 45  0  0  0  0  0  0  0  0999 V2000
   35.8630   29.1080   49.8720 C   0  0  0  0  0  0  0  0  0  0  0  0
   34.8360   29.6370   50.5740 C   0  0  0  0  0  0  0  0  0  0  0  0
   33.6650   29.0810   50.0540 C   0  0  0  0  0  0  0  0  0  0  0  0
   34.0790   28.2180   49.0310 C   0  0  0  0  0  0  0  0  0  0  0  0
   35.3730   28.2840   48.9810 O   0  0  0  0  0  0  0  0  0  0  0  0
   34.8480   30.3650   51.4010 H   0  0  0  0  0  0  0  0  0  0  0  0
   32.6710   29.3370   50.4440 H   0  0  0  0  0  0  0  0  0  0  0  0
   33.5320   26.5020   47.3090 C   0  0  0  0  0  0  0  0  0  0  0  0
   33.1230   27.4440   48.2440 C   0  0  0  0  0  0  0  0  0  0  0  0
   31.7810   27.6920   48.4760 C   0  0  0  0  0  0  0  0  0  0  0  0
   30.8590   26.9770   47.7530 C   0  0  0  0  0  0  0  0  0  0  0  0
   29.5140   26.9990   47.7660 N   0  0  0  0  0  0  0  0  0  0  0  0
   29.0930   26.1060   46.8740 N   0  0  0  0  0  0  0  0  0  0  0  0
   30.1420   25.5170   46.2950 C   0  0  0  0  0  0  0  0  0  0  0  0
   31.3180   26.0450   46.8280 C   0  0  0  0  0  0  0  0  0  0  0  0
   32.6460   25.7840   46.5830 C   0  0  0  0  0  0  0  0  0  0  0  0
   34.6040   26.3770   47.1970 H   0  0  0  0  0  0  0  0  0  0  0  0
   31.3930   28.4140   49.1910 H   0  0  0  0  0  0  0  0  0  0  0  0
   28.8720   27.5880   48.3460 H   0  0  0  0  0  0  0  0  0  0  0  0
   30.1560   24.7350   45.5190 H   0  0  0  0  0  0  0  0  0  0  0  0
   32.9350   25.0570   45.8630 H   0  0  0  0  0  0  0  0  0  0  0  0
   37.2510   29.4650   50.1410 C   0  0  0  0  0  0  0  0  0  0  0  0
   37.8910   28.8120   51.0030 O   0  0  0  0  0  0  0  0  0  0  0  0
   37.8160   30.5600   49.3920 C   0  0  0  0  0  0  0  0  0  0  0  0
   38.1080   31.7220   50.0770 C   0  0  0  0  0  0  0  0  0  0  0  0
   38.6510   32.8000   49.3930 C   0  0  0  0  0  0  0  0  0  0  0  0
   38.8670   32.6430   48.0650 N   0  0  0  0  0  0  0  0  0  0  0  0
   38.5820   31.5200   47.4100 C   0  0  0  0  0  0  0  0  0  0  0  0
   38.0610   30.4930   48.0800 N   0  0  0  0  0  0  0  0  0  0  0  0
   37.9440   31.8780   51.1530 H   0  0  0  0  0  0  0  0  0  0  0  0
   38.8880   33.7090   49.8950 H   0  0  0  0  0  0  0  0  0  0  0  0
   38.8150   31.3360   45.9490 C   0  0  0  0  0  3  0  0  0  0  0  0
   37.6780   30.6120   45.2680 C   0  0  0  0  0  3  0  0  0  0  0  0
   36.7670   31.2650   45.1920 H   0  0  0  0  0  0  0  0  0  0  0  0
   38.1980   30.2150   43.9020 C   0  0  0  0  0  3  0  0  0  0  0  0
   37.4020   29.7830   43.2640 H   0  0  0  0  0  0  0  0  0  0  0  0
   38.9160   31.2130   43.2990 O   0  0  0  0  0  0  0  0  0  0  0  0
   38.6480   32.4900   43.7760 C   0  0  0  0  0  3  0  0  0  0  0  0
   39.2810   33.1910   43.1920 H   0  0  0  0  0  0  0  0  0  0  0  0
   39.0080   32.6500   45.2290 C   0  0  0  0  0  3  0  0  0  0  0  0
   38.3450   33.4490   45.6470 H   0  0  0  0  0  0  0  0  0  0  0  0
  1 22  1  0  0  0  0
  1  2  2  0  0  0  0
  2  6  1  0  0  0  0
  3  7  1  0  0  0  0
  3  2  1  0  0  0  0
  4  3  2  0  0  0  0
  5  4  1  0  0  0  0
  5  1  1  0  0  0  0
  8  9  1  0  0  0  0
  9 10  2  0  0  0  0
  9  4  1  0  0  0  0
 10 18  1  0  0  0  0
 11 12  1  0  0  0  0
 11 10  1  0  0  0  0
 12 19  1  0  0  0  0
 13 12  1  0  0  0  0
 14 15  1  0  0  0  0
 14 13  2  0  0  0  0
 15 11  2  0  0  0  0
 16 15  1  0  0  0  0
 16  8  2  0  0  0  0
 17  8  1  0  0  0  0
 20 14  1  0  0  0  0
 21 16  1  0  0  0  0
 22 23  2  0  0  0  0
 24 25  1  0  0  0  0
 24 22  1  0  0  0  0
 25 30  1  0  0  0  0
 26 31  1  0  0  0  0
 26 25  2  0  0  0  0
 27 26  1  0  0  0  0
 28 27  2  0  0  0  0
 28 29  1  0  0  0  0
 29 24  2  0  0  0  0
 32 28  1  0  0  0  0
 33 32  1  0  0  0  0
 34 33  1  0  0  0  0
 35 33  1  0  0  0  0
 36 35  1  0  0  0  0
 37 38  1  0  0  0  0
 37 35  1  0  0  0  0
 38 40  1  0  0  0  0
 39 38  1  0  0  0  0
 40 41  1  0  0  0  0
 40 32  1  0  0  0  0
M  END
>  <minimizedAffinity>
-6.88120794

>  <minimizedRMSD>
0.304432392

$$$$
