
 OpenBabel03272500243D

 32 34  0  0  0  0  0  0  0  0999 V2000
   37.2300   27.2440   34.5320 C   0  0  0  0  0  0  0  0  0  0  0  0
   38.0870   27.8700   35.4180 C   0  0  0  0  0  0  0  0  0  0  0  0
   38.5200   26.9510   36.3300 C   0  0  0  0  0  0  0  0  0  0  0  0
   37.9340   25.7970   35.9990 N   0  0  0  0  0  0  0  0  0  0  0  0
   37.1820   25.9750   34.9480 N   0  0  0  0  0  0  0  0  0  0  0  0
   38.4130   28.9020   35.4550 H   0  0  0  0  0  0  0  0  0  0  0  0
   39.1740   26.9880   37.1720 H   0  0  0  0  0  0  0  0  0  0  0  0
   37.9500   24.4270   36.5360 C   0  0  0  0  0  3  0  0  0  0  0  0
   39.0270   23.6370   35.8720 C   0  0  0  0  0  3  0  0  0  0  0  0
   39.8670   24.3220   35.5740 H   0  0  0  0  0  0  0  0  0  0  0  0
   39.6290   22.5490   36.7040 C   0  0  0  0  0  3  0  0  0  0  0  0
   40.5890   22.2540   36.2430 H   0  0  0  0  0  0  0  0  0  0  0  0
   39.8570   23.0200   38.0130 O   0  0  0  0  0  0  0  0  0  0  0  0
   38.5570   23.1500   38.5560 C   0  0  0  0  0  3  0  0  0  0  0  0
   37.9810   22.2570   38.2910 H   0  0  0  0  0  0  0  0  0  0  0  0
   37.9820   24.4240   38.0320 C   0  0  0  0  0  3  0  0  0  0  0  0
   38.5210   25.2770   38.4670 H   0  0  0  0  0  0  0  0  0  0  0  0
   36.5850   27.9790   33.4270 C   0  0  0  0  0  0  0  0  0  0  0  0
   35.4780   27.7290   33.3900 H   0  0  0  0  0  0  0  0  0  0  0  0
   36.5810   29.0370   33.7080 H   0  0  0  0  0  0  0  0  0  0  0  0
   37.1220   27.6170   32.0960 C   0  0  0  0  0  0  0  0  0  0  0  0
   36.6020   28.3010   31.3530 H   0  0  0  0  0  0  0  0  0  0  0  0
   38.2060   27.9290   31.9680 H   0  0  0  0  0  0  0  0  0  0  0  0
   36.9070   26.2750   31.6130 C   0  0  0  0  0  0  0  0  0  0  0  0
   37.9520   25.4600   31.2770 C   0  0  0  0  0  0  0  0  0  0  0  0
   37.7170   24.1430   30.8190 C   0  0  0  0  0  0  0  0  0  0  0  0
   36.3830   23.7710   30.7440 N   0  0  0  0  0  0  0  0  0  0  0  0
   35.3760   24.6210   31.0900 C   0  0  0  0  0  0  0  0  0  0  0  0
   35.6520   25.8670   31.5220 N   0  0  0  0  0  0  0  0  0  0  0  0
   39.0100   25.6460   31.3010 H   0  0  0  0  0  0  0  0  0  0  0  0
   38.4510   23.4240   30.5310 H   0  0  0  0  0  0  0  0  0  0  0  0
   34.3600   24.2410   31.0000 H   0  0  0  0  0  0  0  0  0  0  0  0
  1  5  2  0  0  0  0
  1  2  1  0  0  0  0
  2  6  1  0  0  0  0
  2  3  2  0  0  0  0
  3  7  1  0  0  0  0
  4  3  1  0  0  0  0
  4  8  1  0  0  0  0
  5  4  1  0  0  0  0
  8 16  1  0  0  0  0
  9  8  1  0  0  0  0
  9 11  1  0  0  0  0
 10  9  1  0  0  0  0
 11 13  1  0  0  0  0
 12 11  1  0  0  0  0
 13 14  1  0  0  0  0
 15 14  1  0  0  0  0
 16 17  1  0  0  0  0
 16 14  1  0  0  0  0
 18 20  1  0  0  0  0
 18  1  1  0  0  0  0
 19 18  1  0  0  0  0
 21 18  1  0  0  0  0
 22 21  1  0  0  0  0
 23 21  1  0  0  0  0
 24 21  1  0  0  0  0
 25 30  1  0  0  0  0
 25 24  2  0  0  0  0
 26 25  1  0  0  0  0
 27 26  2  0  0  0  0
 27 28  1  0  0  0  0
 28 29  2  0  0  0  0
 29 24  1  0  0  0  0
 31 26  1  0  0  0  0
 32 28  1  0  0  0  0
M  END
>  <minimizedAffinity>
-5.04592609

$$$$

 OpenBabel03272500243D

 32 34  0  0  0  0  0  0  0  0999 V2000
   37.1300   27.3390   34.6360 C   0  0  0  0  0  0  0  0  0  0  0  0
   38.1250   27.8990   35.4150 C   0  0  0  0  0  0  0  0  0  0  0  0
   38.6200   26.9370   36.2490 C   0  0  0  0  0  0  0  0  0  0  0  0
   37.9350   25.8230   35.9760 N   0  0  0  0  0  0  0  0  0  0  0  0
   37.0660   26.0640   35.0330 N   0  0  0  0  0  0  0  0  0  0  0  0
   38.5100   28.9110   35.4270 H   0  0  0  0  0  0  0  0  0  0  0  0
   39.3770   26.9200   37.0000 H   0  0  0  0  0  0  0  0  0  0  0  0
   37.9430   24.4420   36.4840 C   0  0  0  0  0  3  0  0  0  0  0  0
   39.0550   23.6780   35.8480 C   0  0  0  0  0  3  0  0  0  0  0  0
   39.8990   24.3770   35.6000 H   0  0  0  0  0  0  0  0  0  0  0  0
   39.6350   22.5780   36.6800 C   0  0  0  0  0  3  0  0  0  0  0  0
   40.6160   22.3020   36.2520 H   0  0  0  0  0  0  0  0  0  0  0  0
   39.8040   23.0220   38.0070 O   0  0  0  0  0  0  0  0  0  0  0  0
   38.4820   23.1280   38.4990 C   0  0  0  0  0  3  0  0  0  0  0  0
   37.9270   22.2350   38.1920 H   0  0  0  0  0  0  0  0  0  0  0  0
   37.9140   24.4070   37.9790 C   0  0  0  0  0  3  0  0  0  0  0  0
   38.4260   25.2560   38.4540 H   0  0  0  0  0  0  0  0  0  0  0  0
   36.3910   28.1320   33.6350 C   0  0  0  0  0  0  0  0  0  0  0  0
   37.1040   28.8200   33.0830 H   0  0  0  0  0  0  0  0  0  0  0  0
   36.0720   27.4390   32.8500 H   0  0  0  0  0  0  0  0  0  0  0  0
   35.3660   29.0170   34.2360 C   0  0  0  0  0  0  0  0  0  0  0  0
   34.4530   28.9370   33.5640 H   0  0  0  0  0  0  0  0  0  0  0  0
   34.9620   28.6070   35.2140 H   0  0  0  0  0  0  0  0  0  0  0  0
   35.6550   30.4260   34.3410 C   0  0  0  0  0  0  0  0  0  0  0  0
   35.6220   31.2460   33.2480 C   0  0  0  0  0  0  0  0  0  0  0  0
   35.8960   32.6270   33.3780 C   0  0  0  0  0  0  0  0  0  0  0  0
   36.1890   33.0540   34.6640 N   0  0  0  0  0  0  0  0  0  0  0  0
   36.2100   32.1970   35.7240 C   0  0  0  0  0  0  0  0  0  0  0  0
   35.9410   30.8870   35.5470 N   0  0  0  0  0  0  0  0  0  0  0  0
   35.4050   31.0210   32.2200 H   0  0  0  0  0  0  0  0  0  0  0  0
   35.8990   33.3560   32.5990 H   0  0  0  0  0  0  0  0  0  0  0  0
   36.4500   32.6220   36.6960 H   0  0  0  0  0  0  0  0  0  0  0  0
  1  5  2  0  0  0  0
  1  2  1  0  0  0  0
  2  6  1  0  0  0  0
  2  3  2  0  0  0  0
  3  7  1  0  0  0  0
  4  3  1  0  0  0  0
  4  8  1  0  0  0  0
  5  4  1  0  0  0  0
  8 16  1  0  0  0  0
  9  8  1  0  0  0  0
  9 11  1  0  0  0  0
 10  9  1  0  0  0  0
 11 13  1  0  0  0  0
 12 11  1  0  0  0  0
 13 14  1  0  0  0  0
 15 14  1  0  0  0  0
 16 17  1  0  0  0  0
 16 14  1  0  0  0  0
 18 21  1  0  0  0  0
 18  1  1  0  0  0  0
 19 18  1  0  0  0  0
 20 18  1  0  0  0  0
 21 24  1  0  0  0  0
 21 23  1  0  0  0  0
 22 21  1  0  0  0  0
 24 29  1  0  0  0  0
 25 26  1  0  0  0  0
 25 24  2  0  0  0  0
 26 27  2  0  0  0  0
 27 28  1  0  0  0  0
 28 32  1  0  0  0  0
 29 28  2  0  0  0  0
 30 25  1  0  0  0  0
 31 26  1  0  0  0  0
M  END
>  <minimizedAffinity>
-4.99448919

$$$$

 OpenBabel03272500243D

 32 34  0  0  0  0  0  0  0  0999 V2000
   35.9700   24.5500   31.5540 C   0  0  0  0  0  0  0  0  0  0  0  0
   35.2880   25.5990   30.9660 C   0  0  0  0  0  0  0  0  0  0  0  0
   35.7650   26.7720   31.4790 C   0  0  0  0  0  0  0  0  0  0  0  0
   36.7120   26.4330   32.3560 N   0  0  0  0  0  0  0  0  0  0  0  0
   36.8280   25.1340   32.3950 N   0  0  0  0  0  0  0  0  0  0  0  0
   34.5010   25.5850   30.2220 H   0  0  0  0  0  0  0  0  0  0  0  0
   35.5370   27.8020   31.3190 H   0  0  0  0  0  0  0  0  0  0  0  0
   37.6180   27.1710   33.2510 C   0  0  0  0  0  3  0  0  0  0  0  0
   37.0890   27.1360   34.6460 C   0  0  0  0  0  3  0  0  0  0  0  0
   36.5070   26.1870   34.8040 H   0  0  0  0  0  0  0  0  0  0  0  0
   38.1230   27.1940   35.7250 C   0  0  0  0  0  3  0  0  0  0  0  0
   37.6560   26.8560   36.6690 H   0  0  0  0  0  0  0  0  0  0  0  0
   39.2020   26.3480   35.3990 O   0  0  0  0  0  0  0  0  0  0  0  0
   39.8340   27.0060   34.3190 C   0  0  0  0  0  3  0  0  0  0  0  0
   39.9110   28.0710   34.5620 H   0  0  0  0  0  0  0  0  0  0  0  0
   39.0350   26.7180   33.0920 C   0  0  0  0  0  3  0  0  0  0  0  0
   39.1360   25.6550   32.8300 H   0  0  0  0  0  0  0  0  0  0  0  0
   35.6740   23.1460   31.2120 C   0  0  0  0  0  0  0  0  0  0  0  0
   34.5840   23.0410   30.9140 H   0  0  0  0  0  0  0  0  0  0  0  0
   36.1990   22.9280   30.2770 H   0  0  0  0  0  0  0  0  0  0  0  0
   35.8690   22.2170   32.3490 C   0  0  0  0  0  0  0  0  0  0  0  0
   36.8810   22.4770   32.7940 H   0  0  0  0  0  0  0  0  0  0  0  0
   35.1760   22.4460   33.2180 H   0  0  0  0  0  0  0  0  0  0  0  0
   35.9100   20.8010   32.0770 C   0  0  0  0  0  0  0  0  0  0  0  0
   35.4770   19.8840   32.9930 C   0  0  0  0  0  0  0  0  0  0  0  0
   35.5150   18.5020   32.6980 C   0  0  0  0  0  0  0  0  0  0  0  0
   36.0120   18.1770   31.4460 N   0  0  0  0  0  0  0  0  0  0  0  0
   36.4340   19.1280   30.5660 C   0  0  0  0  0  0  0  0  0  0  0  0
   36.3770   20.4340   30.8950 N   0  0  0  0  0  0  0  0  0  0  0  0
   35.0740   20.0270   33.9790 H   0  0  0  0  0  0  0  0  0  0  0  0
   35.2040   17.7020   33.3330 H   0  0  0  0  0  0  0  0  0  0  0  0
   36.8090   18.7790   29.6060 H   0  0  0  0  0  0  0  0  0  0  0  0
  1  5  2  0  0  0  0
  2  3  2  0  0  0  0
  2  1  1  0  0  0  0
  3  4  1  0  0  0  0
  4  5  1  0  0  0  0
  4  8  1  0  0  0  0
  6  2  1  0  0  0  0
  7  3  1  0  0  0  0
  8  9  1  0  0  0  0
  9 10  1  0  0  0  0
  9 11  1  0  0  0  0
 11 12  1  0  0  0  0
 13 11  1  0  0  0  0
 14 15  1  0  0  0  0
 14 13  1  0  0  0  0
 16  8  1  0  0  0  0
 16 14  1  0  0  0  0
 17 16  1  0  0  0  0
 18  1  1  0  0  0  0
 18 21  1  0  0  0  0
 19 18  1  0  0  0  0
 20 18  1  0  0  0  0
 21 22  1  0  0  0  0
 21 23  1  0  0  0  0
 24 21  1  0  0  0  0
 24 25  1  0  0  0  0
 25 30  1  0  0  0  0
 26 25  2  0  0  0  0
 26 31  1  0  0  0  0
 27 26  1  0  0  0  0
 28 29  1  0  0  0  0
 28 27  2  0  0  0  0
 29 24  2  0  0  0  0
 32 28  1  0  0  0  0
M  END
>  <minimizedAffinity>
-4.95504856

$$$$

 OpenBabel03272500243D

 32 34  0  0  0  0  0  0  0  0999 V2000
   37.0990   27.2760   34.6050 C   0  0  0  0  0  0  0  0  0  0  0  0
   38.0330   27.8770   35.4290 C   0  0  0  0  0  0  0  0  0  0  0  0
   38.5250   26.9370   36.2890 C   0  0  0  0  0  0  0  0  0  0  0  0
   37.9000   25.7970   35.9880 N   0  0  0  0  0  0  0  0  0  0  0  0
   37.0690   26.0010   35.0030 N   0  0  0  0  0  0  0  0  0  0  0  0
   38.3740   28.9040   35.4570 H   0  0  0  0  0  0  0  0  0  0  0  0
   39.2450   26.9520   37.0770 H   0  0  0  0  0  0  0  0  0  0  0  0
   37.9400   24.4170   36.4990 C   0  0  0  0  0  3  0  0  0  0  0  0
   39.0500   23.6680   35.8440 C   0  0  0  0  0  3  0  0  0  0  0  0
   39.8780   24.3800   35.5760 H   0  0  0  0  0  0  0  0  0  0  0  0
   39.6640   22.5800   36.6670 C   0  0  0  0  0  3  0  0  0  0  0  0
   40.6410   22.3190   36.2210 H   0  0  0  0  0  0  0  0  0  0  0  0
   39.8520   23.0310   37.9890 O   0  0  0  0  0  0  0  0  0  0  0  0
   38.5390   23.1190   38.5070 C   0  0  0  0  0  3  0  0  0  0  0  0
   37.9920   22.2160   38.2140 H   0  0  0  0  0  0  0  0  0  0  0  0
   37.9410   24.3870   37.9950 C   0  0  0  0  0  3  0  0  0  0  0  0
   38.4490   25.2450   38.4570 H   0  0  0  0  0  0  0  0  0  0  0  0
   36.3780   28.0380   33.5680 C   0  0  0  0  0  0  0  0  0  0  0  0
   37.0800   28.2870   32.7110 H   0  0  0  0  0  0  0  0  0  0  0  0
   35.6680   27.3480   33.1010 H   0  0  0  0  0  0  0  0  0  0  0  0
   35.8630   29.3390   34.0530 C   0  0  0  0  0  0  0  0  0  0  0  0
   36.1720   29.4090   35.1440 H   0  0  0  0  0  0  0  0  0  0  0  0
   36.4200   30.2190   33.6040 H   0  0  0  0  0  0  0  0  0  0  0  0
   34.4380   29.5610   34.0330 C   0  0  0  0  0  0  0  0  0  0  0  0
   33.7970   30.1850   35.0670 C   0  0  0  0  0  0  0  0  0  0  0  0
   32.4010   30.4040   35.0180 C   0  0  0  0  0  0  0  0  0  0  0  0
   31.7690   29.9440   33.8730 N   0  0  0  0  0  0  0  0  0  0  0  0
   32.4510   29.3260   32.8690 C   0  0  0  0  0  0  0  0  0  0  0  0
   33.7840   29.1410   32.9630 N   0  0  0  0  0  0  0  0  0  0  0  0
   34.1880   30.5790   35.9870 H   0  0  0  0  0  0  0  0  0  0  0  0
   31.8010   30.8780   35.7620 H   0  0  0  0  0  0  0  0  0  0  0  0
   31.8710   28.9990   32.0090 H   0  0  0  0  0  0  0  0  0  0  0  0
  1  5  2  0  0  0  0
  1  2  1  0  0  0  0
  2  6  1  0  0  0  0
  2  3  2  0  0  0  0
  3  7  1  0  0  0  0
  4  3  1  0  0  0  0
  4  8  1  0  0  0  0
  5  4  1  0  0  0  0
  8 16  1  0  0  0  0
  9  8  1  0  0  0  0
  9 11  1  0  0  0  0
 10  9  1  0  0  0  0
 11 13  1  0  0  0  0
 12 11  1  0  0  0  0
 13 14  1  0  0  0  0
 15 14  1  0  0  0  0
 16 17  1  0  0  0  0
 16 14  1  0  0  0  0
 18 21  1  0  0  0  0
 18  1  1  0  0  0  0
 19 18  1  0  0  0  0
 20 18  1  0  0  0  0
 21 22  1  0  0  0  0
 23 21  1  0  0  0  0
 24 21  1  0  0  0  0
 24 25  1  0  0  0  0
 25 30  1  0  0  0  0
 26 25  2  0  0  0  0
 26 31  1  0  0  0  0
 27 26  1  0  0  0  0
 28 29  1  0  0  0  0
 28 27  2  0  0  0  0
 29 24  2  0  0  0  0
 32 28  1  0  0  0  0
M  END
>  <minimizedAffinity>
-4.92771244

$$$$

 OpenBabel03272500243D

 32 34  0  0  0  0  0  0  0  0999 V2000
   37.4000   24.1150   32.7800 C   0  0  0  0  0  0  0  0  0  0  0  0
   36.5430   24.7940   31.9340 C   0  0  0  0  0  0  0  0  0  0  0  0
   35.6540   23.9020   31.4050 C   0  0  0  0  0  0  0  0  0  0  0  0
   35.9720   22.7130   31.9230 N   0  0  0  0  0  0  0  0  0  0  0  0
   36.9920   22.8440   32.7260 N   0  0  0  0  0  0  0  0  0  0  0  0
   36.5110   25.8460   31.6780 H   0  0  0  0  0  0  0  0  0  0  0  0
   34.8380   23.9800   30.7230 H   0  0  0  0  0  0  0  0  0  0  0  0
   35.4470   21.3440   31.7940 C   0  0  0  0  0  3  0  0  0  0  0  0
   36.1720   20.6260   30.7070 C   0  0  0  0  0  3  0  0  0  0  0  0
   37.2200   21.0240   30.6250 H   0  0  0  0  0  0  0  0  0  0  0  0
   36.2850   19.1440   30.8810 C   0  0  0  0  0  3  0  0  0  0  0  0
   37.0800   18.7770   30.2070 H   0  0  0  0  0  0  0  0  0  0  0  0
   36.6190   18.8450   32.2170 O   0  0  0  0  0  0  0  0  0  0  0  0
   35.4450   19.1610   32.9390 C   0  0  0  0  0  3  0  0  0  0  0  0
   34.5850   18.7580   32.3920 H   0  0  0  0  0  0  0  0  0  0  0  0
   35.4150   20.6420   33.1150 C   0  0  0  0  0  3  0  0  0  0  0  0
   36.2180   20.9470   33.8000 H   0  0  0  0  0  0  0  0  0  0  0  0
   38.4860   24.8070   33.5010 C   0  0  0  0  0  0  0  0  0  0  0  0
   39.3770   24.1130   33.6190 H   0  0  0  0  0  0  0  0  0  0  0  0
   38.8740   25.5790   32.8290 H   0  0  0  0  0  0  0  0  0  0  0  0
   38.1080   25.2090   34.8750 C   0  0  0  0  0  0  0  0  0  0  0  0
   38.5380   26.2500   35.0240 H   0  0  0  0  0  0  0  0  0  0  0  0
   36.9960   25.4080   34.9760 H   0  0  0  0  0  0  0  0  0  0  0  0
   38.5970   24.4200   35.9780 C   0  0  0  0  0  0  0  0  0  0  0  0
   37.9340   24.3720   37.1730 C   0  0  0  0  0  0  0  0  0  0  0  0
   38.4260   23.5800   38.2360 C   0  0  0  0  0  0  0  0  0  0  0  0
   39.5950   22.8850   37.9660 N   0  0  0  0  0  0  0  0  0  0  0  0
   40.2210   22.9660   36.7580 C   0  0  0  0  0  0  0  0  0  0  0  0
   39.7110   23.7360   35.7750 N   0  0  0  0  0  0  0  0  0  0  0  0
   37.0290   24.8620   37.4820 H   0  0  0  0  0  0  0  0  0  0  0  0
   37.9930   23.4680   39.2040 H   0  0  0  0  0  0  0  0  0  0  0  0
   41.1330   22.3860   36.6370 H   0  0  0  0  0  0  0  0  0  0  0  0
  1 18  1  0  0  0  0
  2  1  1  0  0  0  0
  3  4  1  0  0  0  0
  3  2  2  0  0  0  0
  4  5  1  0  0  0  0
  5  1  2  0  0  0  0
  6  2  1  0  0  0  0
  7  3  1  0  0  0  0
  8  4  1  0  0  0  0
  8 16  1  0  0  0  0
  9 11  1  0  0  0  0
  9  8  1  0  0  0  0
 10  9  1  0  0  0  0
 11 13  1  0  0  0  0
 12 11  1  0  0  0  0
 13 14  1  0  0  0  0
 14 16  1  0  0  0  0
 15 14  1  0  0  0  0
 16 17  1  0  0  0  0
 18 19  1  0  0  0  0
 18 21  1  0  0  0  0
 20 18  1  0  0  0  0
 21 23  1  0  0  0  0
 21 22  1  0  0  0  0
 21 24  1  0  0  0  0
 24 25  1  0  0  0  0
 25 30  1  0  0  0  0
 25 26  2  0  0  0  0
 26 31  1  0  0  0  0
 27 26  1  0  0  0  0
 28 27  2  0  0  0  0
 29 24  2  0  0  0  0
 29 28  1  0  0  0  0
 32 28  1  0  0  0  0
M  END
>  <minimizedAffinity>
-4.87628269

$$$$

 OpenBabel03272500243D

 32 34  0  0  0  0  0  0  0  0999 V2000
   38.1190   25.1950   36.4090 C   0  0  0  0  0  0  0  0  0  0  0  0
   37.9900   24.6310   37.6650 C   0  0  0  0  0  0  0  0  0  0  0  0
   37.7720   23.2900   37.5210 C   0  0  0  0  0  0  0  0  0  0  0  0
   37.7700   23.0550   36.2070 N   0  0  0  0  0  0  0  0  0  0  0  0
   37.9740   24.1710   35.5620 N   0  0  0  0  0  0  0  0  0  0  0  0
   38.0390   25.0950   38.6420 H   0  0  0  0  0  0  0  0  0  0  0  0
   37.6190   22.4830   38.2020 H   0  0  0  0  0  0  0  0  0  0  0  0
   37.5980   21.8640   35.3600 C   0  0  0  0  0  3  0  0  0  0  0  0
   36.2630   21.2500   35.6180 C   0  0  0  0  0  3  0  0  0  0  0  0
   35.5340   22.0490   35.9250 H   0  0  0  0  0  0  0  0  0  0  0  0
   35.6530   20.5310   34.4570 C   0  0  0  0  0  3  0  0  0  0  0  0
   34.5750   20.3970   34.6620 H   0  0  0  0  0  0  0  0  0  0  0  0
   35.8210   21.2910   33.2820 O   0  0  0  0  0  0  0  0  0  0  0  0
   37.2080   21.2000   33.0170 C   0  0  0  0  0  3  0  0  0  0  0  0
   37.5180   20.1590   33.1520 H   0  0  0  0  0  0  0  0  0  0  0  0
   37.8980   22.1640   33.9250 C   0  0  0  0  0  3  0  0  0  0  0  0
   37.6530   23.1920   33.6240 H   0  0  0  0  0  0  0  0  0  0  0  0
   38.3540   26.6400   36.2290 C   0  0  0  0  0  0  0  0  0  0  0  0
   37.4250   27.2230   36.5220 H   0  0  0  0  0  0  0  0  0  0  0  0
   39.0760   26.9430   36.9940 H   0  0  0  0  0  0  0  0  0  0  0  0
   38.6350   27.0140   34.8240 C   0  0  0  0  0  0  0  0  0  0  0  0
   39.3530   27.8930   34.8730 H   0  0  0  0  0  0  0  0  0  0  0  0
   39.2660   26.2370   34.2890 H   0  0  0  0  0  0  0  0  0  0  0  0
   37.5350   27.4490   33.9990 C   0  0  0  0  0  0  0  0  0  0  0  0
   36.6130   28.3490   34.4540 C   0  0  0  0  0  0  0  0  0  0  0  0
   35.5500   28.7710   33.6210 C   0  0  0  0  0  0  0  0  0  0  0  0
   35.5320   28.2090   32.3540 N   0  0  0  0  0  0  0  0  0  0  0  0
   36.4750   27.3140   31.9460 C   0  0  0  0  0  0  0  0  0  0  0  0
   37.4690   26.9440   32.7780 N   0  0  0  0  0  0  0  0  0  0  0  0
   36.5380   28.8420   35.4050 H   0  0  0  0  0  0  0  0  0  0  0  0
   34.7790   29.4640   33.8690 H   0  0  0  0  0  0  0  0  0  0  0  0
   36.3800   26.9260   30.9340 H   0  0  0  0  0  0  0  0  0  0  0  0
  1  2  1  0  0  0  0
  2  6  1  0  0  0  0
  3  2  2  0  0  0  0
  3  7  1  0  0  0  0
  4  3  1  0  0  0  0
  5  4  1  0  0  0  0
  5  1  2  0  0  0  0
  8  9  1  0  0  0  0
  8  4  1  0  0  0  0
  9 10  1  0  0  0  0
 11 12  1  0  0  0  0
 11  9  1  0  0  0  0
 13 11  1  0  0  0  0
 14 15  1  0  0  0  0
 14 13  1  0  0  0  0
 14 16  1  0  0  0  0
 16  8  1  0  0  0  0
 17 16  1  0  0  0  0
 18  1  1  0  0  0  0
 18 19  1  0  0  0  0
 18 20  1  0  0  0  0
 21 22  1  0  0  0  0
 21 18  1  0  0  0  0
 23 21  1  0  0  0  0
 24 25  1  0  0  0  0
 24 21  1  0  0  0  0
 25 30  1  0  0  0  0
 26 31  1  0  0  0  0
 26 25  2  0  0  0  0
 27 26  1  0  0  0  0
 28 27  2  0  0  0  0
 28 29  1  0  0  0  0
 29 24  2  0  0  0  0
 32 28  1  0  0  0  0
M  END
>  <minimizedAffinity>
-4.82838821

$$$$

 OpenBabel03272500243D

 32 34  0  0  0  0  0  0  0  0999 V2000
   38.9660   25.4460   35.6990 C   0  0  0  0  0  0  0  0  0  0  0  0
   37.9210   25.0230   36.4990 C   0  0  0  0  0  0  0  0  0  0  0  0
   38.1390   23.7220   36.8510 C   0  0  0  0  0  0  0  0  0  0  0  0
   39.2900   23.3710   36.2720 N   0  0  0  0  0  0  0  0  0  0  0  0
   39.7690   24.3820   35.6010 N   0  0  0  0  0  0  0  0  0  0  0  0
   37.0450   25.5620   36.8380 H   0  0  0  0  0  0  0  0  0  0  0  0
   37.6080   23.0110   37.4430 H   0  0  0  0  0  0  0  0  0  0  0  0
   40.1050   22.1460   36.2270 C   0  0  0  0  0  3  0  0  0  0  0  0
   40.9060   22.1190   34.9690 C   0  0  0  0  0  3  0  0  0  0  0  0
   41.1370   23.1700   34.6470 H   0  0  0  0  0  0  0  0  0  0  0  0
   42.2130   21.3960   35.0570 C   0  0  0  0  0  3  0  0  0  0  0  0
   42.8340   21.7010   34.1940 H   0  0  0  0  0  0  0  0  0  0  0  0
   42.8680   21.7370   36.2570 O   0  0  0  0  0  0  0  0  0  0  0  0
   42.0900   21.1080   37.2570 C   0  0  0  0  0  3  0  0  0  0  0  0
   41.8590   20.0900   36.9250 H   0  0  0  0  0  0  0  0  0  0  0  0
   40.8880   21.9610   37.4890 C   0  0  0  0  0  3  0  0  0  0  0  0
   41.1920   22.9040   37.9660 H   0  0  0  0  0  0  0  0  0  0  0  0
   39.0150   26.8140   35.1470 C   0  0  0  0  0  0  0  0  0  0  0  0
   39.8380   27.4070   35.6560 H   0  0  0  0  0  0  0  0  0  0  0  0
   39.3830   26.7300   34.1190 H   0  0  0  0  0  0  0  0  0  0  0  0
   37.7680   27.5790   35.3770 C   0  0  0  0  0  0  0  0  0  0  0  0
   37.1580   26.9660   36.1140 H   0  0  0  0  0  0  0  0  0  0  0  0
   37.9480   28.5300   35.9690 H   0  0  0  0  0  0  0  0  0  0  0  0
   36.8980   27.8220   34.2530 C   0  0  0  0  0  0  0  0  0  0  0  0
   35.9720   28.8280   34.2710 C   0  0  0  0  0  0  0  0  0  0  0  0
   35.1380   29.0560   33.1510 C   0  0  0  0  0  0  0  0  0  0  0  0
   35.3400   28.2010   32.0790 N   0  0  0  0  0  0  0  0  0  0  0  0
   36.2770   27.2110   32.1090 C   0  0  0  0  0  0  0  0  0  0  0  0
   37.0470   27.0350   33.2010 N   0  0  0  0  0  0  0  0  0  0  0  0
   35.7390   29.5410   35.0400 H   0  0  0  0  0  0  0  0  0  0  0  0
   34.3870   29.8060   33.0550 H   0  0  0  0  0  0  0  0  0  0  0  0
   36.3630   26.5890   31.2210 H   0  0  0  0  0  0  0  0  0  0  0  0
  1  2  1  0  0  0  0
  2  6  1  0  0  0  0
  2  3  2  0  0  0  0
  3  7  1  0  0  0  0
  4  3  1  0  0  0  0
  5  1  2  0  0  0  0
  5  4  1  0  0  0  0
  8  4  1  0  0  0  0
  8 16  1  0  0  0  0
  9 11  1  0  0  0  0
  9  8  1  0  0  0  0
 10  9  1  0  0  0  0
 11 13  1  0  0  0  0
 12 11  1  0  0  0  0
 13 14  1  0  0  0  0
 14 16  1  0  0  0  0
 15 14  1  0  0  0  0
 16 17  1  0  0  0  0
 18 21  1  0  0  0  0
 18 19  1  0  0  0  0
 18  1  1  0  0  0  0
 20 18  1  0  0  0  0
 21 23  1  0  0  0  0
 21 22  1  0  0  0  0
 24 25  1  0  0  0  0
 24 21  1  0  0  0  0
 25 30  1  0  0  0  0
 26 25  2  0  0  0  0
 27 28  2  0  0  0  0
 27 26  1  0  0  0  0
 28 29  1  0  0  0  0
 29 24  2  0  0  0  0
 31 26  1  0  0  0  0
 32 28  1  0  0  0  0
M  END
>  <minimizedAffinity>
-4.81218433

$$$$

 OpenBabel03272500243D

 32 34  0  0  0  0  0  0  0  0999 V2000
   36.9520   27.0750   33.5570 C   0  0  0  0  0  0  0  0  0  0  0  0
   36.4650   27.9570   32.6100 C   0  0  0  0  0  0  0  0  0  0  0  0
   36.1920   27.2620   31.4660 C   0  0  0  0  0  0  0  0  0  0  0  0
   36.5090   25.9900   31.7210 N   0  0  0  0  0  0  0  0  0  0  0  0
   36.9520   25.8870   32.9450 N   0  0  0  0  0  0  0  0  0  0  0  0
   36.2970   29.0240   32.6780 H   0  0  0  0  0  0  0  0  0  0  0  0
   35.8110   27.5280   30.5060 H   0  0  0  0  0  0  0  0  0  0  0  0
   36.4710   24.7320   30.9600 C   0  0  0  0  0  3  0  0  0  0  0  0
   37.8550   24.2080   30.7790 C   0  0  0  0  0  3  0  0  0  0  0  0
   38.4940   24.5250   31.6480 H   0  0  0  0  0  0  0  0  0  0  0  0
   37.9700   22.7200   30.6780 C   0  0  0  0  0  3  0  0  0  0  0  0
   39.0250   22.4420   30.8570 H   0  0  0  0  0  0  0  0  0  0  0  0
   37.1480   22.1110   31.6460 O   0  0  0  0  0  0  0  0  0  0  0  0
   35.8360   22.3590   31.1810 C   0  0  0  0  0  3  0  0  0  0  0  0
   35.8080   22.1590   30.1050 H   0  0  0  0  0  0  0  0  0  0  0  0
   35.4920   23.7650   31.5480 C   0  0  0  0  0  3  0  0  0  0  0  0
   35.3890   23.8440   32.6400 H   0  0  0  0  0  0  0  0  0  0  0  0
   37.3490   27.5260   34.9040 C   0  0  0  0  0  0  0  0  0  0  0  0
   37.3620   28.6600   34.9450 H   0  0  0  0  0  0  0  0  0  0  0  0
   36.5270   27.2730   35.5810 H   0  0  0  0  0  0  0  0  0  0  0  0
   38.7150   27.0970   35.2830 C   0  0  0  0  0  0  0  0  0  0  0  0
   39.3490   27.2160   34.3480 H   0  0  0  0  0  0  0  0  0  0  0  0
   39.2170   27.8280   35.9910 H   0  0  0  0  0  0  0  0  0  0  0  0
   38.9080   25.7360   35.7180 C   0  0  0  0  0  0  0  0  0  0  0  0
   38.0600   25.1440   36.6120 C   0  0  0  0  0  0  0  0  0  0  0  0
   38.2620   23.8030   37.0140 C   0  0  0  0  0  0  0  0  0  0  0  0
   39.3550   23.1710   36.4410 N   0  0  0  0  0  0  0  0  0  0  0  0
   40.1730   23.8050   35.5540 C   0  0  0  0  0  0  0  0  0  0  0  0
   39.9380   25.0850   35.2020 N   0  0  0  0  0  0  0  0  0  0  0  0
   37.1920   25.5380   37.1080 H   0  0  0  0  0  0  0  0  0  0  0  0
   37.6670   23.2440   37.7010 H   0  0  0  0  0  0  0  0  0  0  0  0
   41.0060   23.2290   35.1550 H   0  0  0  0  0  0  0  0  0  0  0  0
  1 18  1  0  0  0  0
  2  6  1  0  0  0  0
  2  1  1  0  0  0  0
  3  4  1  0  0  0  0
  3  2  2  0  0  0  0
  4  5  1  0  0  0  0
  5  1  2  0  0  0  0
  7  3  1  0  0  0  0
  8 16  1  0  0  0  0
  8  4  1  0  0  0  0
  9  8  1  0  0  0  0
  9 10  1  0  0  0  0
 11  9  1  0  0  0  0
 11 12  1  0  0  0  0
 11 13  1  0  0  0  0
 14 16  1  0  0  0  0
 14 13  1  0  0  0  0
 15 14  1  0  0  0  0
 16 17  1  0  0  0  0
 18 19  1  0  0  0  0
 18 21  1  0  0  0  0
 18 20  1  0  0  0  0
 21 24  1  0  0  0  0
 21 23  1  0  0  0  0
 22 21  1  0  0  0  0
 24 25  1  0  0  0  0
 25 26  2  0  0  0  0
 25 30  1  0  0  0  0
 26 31  1  0  0  0  0
 27 26  1  0  0  0  0
 28 27  2  0  0  0  0
 29 28  1  0  0  0  0
 29 24  2  0  0  0  0
 32 28  1  0  0  0  0
M  END
>  <minimizedAffinity>
-4.79737902

$$$$

 OpenBabel03272500243D

 32 34  0  0  0  0  0  0  0  0999 V2000
   37.5000   26.9880   34.2020 C   0  0  0  0  0  0  0  0  0  0  0  0
   38.0570   27.7300   35.2270 C   0  0  0  0  0  0  0  0  0  0  0  0
   38.3580   26.8900   36.2610 C   0  0  0  0  0  0  0  0  0  0  0  0
   37.9890   25.6700   35.8650 N   0  0  0  0  0  0  0  0  0  0  0  0
   37.4890   25.7330   34.6610 N   0  0  0  0  0  0  0  0  0  0  0  0
   38.2560   28.7930   35.2850 H   0  0  0  0  0  0  0  0  0  0  0  0
   38.7900   27.0230   37.2280 H   0  0  0  0  0  0  0  0  0  0  0  0
   38.0210   24.3240   36.4610 C   0  0  0  0  0  3  0  0  0  0  0  0
   39.1570   23.5460   35.8890 C   0  0  0  0  0  3  0  0  0  0  0  0
   39.9890   24.2470   35.6060 H   0  0  0  0  0  0  0  0  0  0  0  0
   39.7500   22.5160   36.7980 C   0  0  0  0  0  3  0  0  0  0  0  0
   40.7430   22.2360   36.4010 H   0  0  0  0  0  0  0  0  0  0  0  0
   39.8920   23.0480   38.0950 O   0  0  0  0  0  0  0  0  0  0  0  0
   38.5610   23.1560   38.5640 C   0  0  0  0  0  3  0  0  0  0  0  0
   38.0300   22.2330   38.3080 H   0  0  0  0  0  0  0  0  0  0  0  0
   37.9730   24.3850   37.9550 C   0  0  0  0  0  3  0  0  0  0  0  0
   38.4600   25.2750   38.3800 H   0  0  0  0  0  0  0  0  0  0  0  0
   37.0580   27.6160   32.9420 C   0  0  0  0  0  0  0  0  0  0  0  0
   35.9360   27.7860   32.9670 H   0  0  0  0  0  0  0  0  0  0  0  0
   37.4540   28.6370   32.9390 H   0  0  0  0  0  0  0  0  0  0  0  0
   37.3090   26.7710   31.7520 C   0  0  0  0  0  0  0  0  0  0  0  0
   38.1420   26.0570   32.0470 H   0  0  0  0  0  0  0  0  0  0  0  0
   36.4570   26.0510   31.5460 H   0  0  0  0  0  0  0  0  0  0  0  0
   37.7520   27.4130   30.5390 C   0  0  0  0  0  0  0  0  0  0  0  0
   37.0860   28.4850   30.0130 C   0  0  0  0  0  0  0  0  0  0  0  0
   37.5470   29.1060   28.8300 C   0  0  0  0  0  0  0  0  0  0  0  0
   38.6900   28.5500   28.2750 N   0  0  0  0  0  0  0  0  0  0  0  0
   39.3190   27.4800   28.8370 C   0  0  0  0  0  0  0  0  0  0  0  0
   38.8390   26.9230   29.9670 N   0  0  0  0  0  0  0  0  0  0  0  0
   36.2040   28.9910   30.3610 H   0  0  0  0  0  0  0  0  0  0  0  0
   37.1100   29.9440   28.3340 H   0  0  0  0  0  0  0  0  0  0  0  0
   40.2090   27.1120   28.3310 H   0  0  0  0  0  0  0  0  0  0  0  0
  1  5  2  0  0  0  0
  1  2  1  0  0  0  0
  2  6  1  0  0  0  0
  2  3  2  0  0  0  0
  3  7  1  0  0  0  0
  4  3  1  0  0  0  0
  4  8  1  0  0  0  0
  5  4  1  0  0  0  0
  8 16  1  0  0  0  0
  9  8  1  0  0  0  0
  9 11  1  0  0  0  0
 10  9  1  0  0  0  0
 11 13  1  0  0  0  0
 12 11  1  0  0  0  0
 13 14  1  0  0  0  0
 15 14  1  0  0  0  0
 16 17  1  0  0  0  0
 16 14  1  0  0  0  0
 18 19  1  0  0  0  0
 18  1  1  0  0  0  0
 20 18  1  0  0  0  0
 21 22  1  0  0  0  0
 21 18  1  0  0  0  0
 23 21  1  0  0  0  0
 24 21  1  0  0  0  0
 25 30  1  0  0  0  0
 25 24  1  0  0  0  0
 26 25  2  0  0  0  0
 27 26  1  0  0  0  0
 27 28  2  0  0  0  0
 28 29  1  0  0  0  0
 29 24  2  0  0  0  0
 31 26  1  0  0  0  0
 32 28  1  0  0  0  0
M  END
>  <minimizedAffinity>
-4.77486134

$$$$
