
 OpenBabel03262523333D

 41 45  0  0  1  0  0  0  0  0999 V2000
   35.1330   28.9150   50.1940 C   0  0  0  0  0  0  0  0  0  0  0  0
   36.0470   29.6380   49.4540 C   0  0  0  0  0  0  0  0  0  0  0  0
   35.7610   29.9170   48.1150 C   0  0  0  0  0  0  0  0  0  0  0  0
   34.5730   29.4560   47.5860 N   0  0  0  0  0  0  0  0  0  0  0  0
   33.7150   28.7520   48.3640 C   0  0  0  0  0  0  0  0  0  0  0  0
   33.9750   28.4800   49.6360 N   0  0  0  0  0  0  0  0  0  0  0  0
   35.3910   28.7170   51.2310 H   0  0  0  0  0  0  0  0  0  0  0  0
   36.9740   29.9940   49.8770 H   0  0  0  0  0  0  0  0  0  0  0  0
   36.4500   30.5050   45.8730 C   0  0  0  0  0  0  0  0  0  0  0  0
   36.6440   30.6650   47.2500 C   0  0  0  0  0  0  0  0  0  0  0  0
   37.6360   31.5020   47.6880 C   0  0  0  0  0  0  0  0  0  0  0  0
   38.4180   32.1660   46.7750 C   0  0  0  0  0  0  0  0  0  0  0  0
   39.4390   33.0280   46.9990 N   0  0  0  0  0  0  0  0  0  0  0  0
   39.8900   33.4110   45.7890 C   0  0  0  0  0  0  0  0  0  0  0  0
   39.1890   32.8230   44.8240 N   0  0  0  0  0  0  0  0  0  0  0  0
   38.2610   32.0360   45.4120 C   0  0  0  0  0  0  0  0  0  0  0  0
   37.2620   31.1930   44.9680 C   0  0  0  0  0  0  0  0  0  0  0  0
   35.6990   29.8720   45.4210 H   0  0  0  0  0  0  0  0  0  0  0  0
   37.7930   31.6330   48.7290 H   0  0  0  0  0  0  0  0  0  0  0  0
   39.8650   33.3850   47.8950 H   0  0  0  0  0  0  0  0  0  0  0  0
   40.6910   34.0900   45.5350 H   0  0  0  0  0  0  0  0  0  0  0  0
   37.1300   31.0860   43.8980 H   0  0  0  0  0  0  0  0  0  0  0  0
   32.4690   28.3010   47.7600 C   0  0  0  0  0  0  0  0  0  0  0  0
   32.0370   28.7630   46.6780 O   0  0  0  0  0  0  0  0  0  0  0  0
   31.6530   27.2450   48.4480 C   0  0  1  0  0  0  0  0  0  0  0  0
   30.6530   27.7590   49.4990 C   0  0  0  0  0  0  0  0  0  0  0  0
   30.2300   27.1160   48.2400 C   0  0  1  0  0  0  0  0  0  0  0  0
   32.2540   26.4300   48.8690 H   0  0  0  0  0  0  0  0  0  0  0  0
   30.5850   27.2390   50.4620 H   0  0  0  0  0  0  0  0  0  0  0  0
   30.6080   28.8670   49.6110 H   0  0  0  0  0  0  0  0  0  0  0  0
   29.8120   26.0700   48.4100 H   0  0  0  0  0  0  0  0  0  0  0  0
   29.3690   27.9420   47.3650 C   0  0  0  0  0  0  0  0  0  0  0  0
   28.7580   29.0410   48.2160 C   0  0  0  0  0  0  0  0  0  0  0  0
   29.5320   29.8630   48.2570 H   0  0  0  0  0  0  0  0  0  0  0  0
   27.5590   29.6800   47.5520 C   0  0  0  0  0  0  0  0  0  0  0  0
   27.1030   30.3670   48.2850 H   0  0  0  0  0  0  0  0  0  0  0  0
   26.5980   28.7790   47.1740 O   0  0  0  0  0  0  0  0  0  0  0  0
   26.9320   27.5280   47.6530 C   0  0  0  0  0  0  0  0  0  0  0  0
   26.1290   26.7920   47.4370 H   0  0  0  0  0  0  0  0  0  0  0  0
   28.2030   27.0820   46.9160 C   0  0  0  0  0  0  0  0  0  0  0  0
   28.3270   26.0170   47.2040 H   0  0  0  0  0  0  0  0  0  0  0  0
  1  7  1  0  0  0  0
  2  8  1  0  0  0  0
  2  1  2  0  0  0  0
  3  2  1  0  0  0  0
  4  3  2  0  0  0  0
  4  5  1  0  0  0  0
  5  6  2  0  0  0  0
  6  1  1  0  0  0  0
  9 10  1  0  0  0  0
 10 11  2  0  0  0  0
 10  3  1  0  0  0  0
 11 19  1  0  0  0  0
 12 13  1  0  0  0  0
 12 11  1  0  0  0  0
 13 20  1  0  0  0  0
 14 13  1  0  0  0  0
 15 16  1  0  0  0  0
 15 14  2  0  0  0  0
 16 12  2  0  0  0  0
 17 16  1  0  0  0  0
 17  9  2  0  0  0  0
 18  9  1  0  0  0  0
 21 14  1  0  0  0  0
 22 17  1  0  0  0  0
 23  5  1  0  0  0  0
 23 25  1  0  0  0  0
 24 23  2  0  0  0  0
 25 28  1  1  0  0  0
 25 26  1  0  0  0  0
 26 30  1  0  0  0  0
 26 29  1  0  0  0  0
 27 31  1  1  0  0  0
 27 25  1  0  0  0  0
 27 26  1  0  0  0  0
 32 33  1  0  0  0  0
 32 27  1  0  0  0  0
 33 34  1  0  0  0  0
 35 33  1  0  0  0  0
 35 36  1  0  0  0  0
 37 35  1  0  0  0  0
 37 38  1  0  0  0  0
 39 38  1  0  0  0  0
 40 41  1  0  0  0  0
 40 32  1  0  0  0  0
 40 38  1  0  0  0  0
M  END
>  <minimizedAffinity>
-6.70757914

>  <minimizedRMSD>
2.96950364

$$$$
