
     RDKit          3D

 32 34  0  0  0  0  0  0  0  0999 V2000
   37.3491   29.8312   50.9628 C   0  0  0  0  0  0  0  0  0  0  0  0
   38.1057   30.7231   50.2003 C   0  0  0  0  0  0  0  0  0  0  0  0
   37.7988   30.8512   48.8504 C   0  0  0  0  0  0  0  0  0  0  0  0
   36.7863   30.1094   48.3409 N   0  0  0  0  0  0  0  0  0  0  0  0
   36.0665   29.2488   49.1074 C   0  0  0  0  0  0  0  0  0  0  0  0
   36.3595   29.1193   50.4208 N   0  0  0  0  0  0  0  0  0  0  0  0
   38.5426   31.7628   47.9849 C   0  0  0  0  0  0  0  0  0  0  0  0
   39.0195   31.4471   46.7398 C   0  0  0  0  0  0  0  0  0  0  0  0
   39.6470   32.6141   46.3143 C   0  0  0  0  0  0  0  0  0  0  0  0
   39.5434   33.5687   47.2642 N   0  0  0  0  0  0  0  0  0  0  0  0
   38.8640   33.0371   48.2857 N   0  0  0  0  0  0  0  0  0  0  0  0
   37.7645   29.8063   52.2834 O   0  0  0  0  0  0  0  0  0  0  0  0
   38.9107   31.3303   50.5466 H   0  0  0  0  0  0  0  0  0  0  0  0
   35.2581   28.6585   48.6936 H   0  0  0  0  0  0  0  0  0  0  0  0
   38.8974   30.4853   46.2592 H   0  0  0  0  0  0  0  0  0  0  0  0
   40.1275   32.6446   45.3271 H   0  0  0  0  0  0  0  0  0  0  0  0
   39.9511   34.5292   47.1429 H   0  0  0  0  0  0  0  0  0  0  0  0
   37.0684   28.9337   53.1607 C   0  0  0  0  0  0  0  0  0  0  0  0
   35.6045   28.9898   52.8051 C   0  0  2  0  0  0  0  0  0  0  0  0
   35.1154   28.0212   53.0630 H   0  0  0  0  0  0  0  0  0  0  0  0
   34.8751   30.0489   53.5659 C   0  0  2  0  0  0  0  0  0  0  0  0
   33.7835   29.9076   53.3152 H   0  0  0  0  0  0  0  0  0  0  0  0
   35.0585   29.8179   54.9250 O   0  0  0  0  0  0  0  0  0  0  0  0
   36.3724   30.1547   55.2375 C   0  0  1  0  0  0  0  0  0  0  0  0
   36.6020   31.2052   54.9928 H   0  0  0  0  0  0  0  0  0  0  0  0
   37.3714   29.2323   54.5885 C   0  0  2  0  0  0  0  0  0  0  0  0
   38.3461   29.7991   54.6024 H   0  0  0  0  0  0  0  0  0  0  0  0
   37.3684   27.8594   52.9823 H   0  0  0  0  0  0  0  0  0  0  0  0
   35.5340   29.1738   51.7203 H   0  0  0  0  0  0  0  0  0  0  0  0
   35.1675   31.0728   53.2508 H   0  0  0  0  0  0  0  0  0  0  0  0
   36.4894   30.0401   56.3362 H   0  0  0  0  0  0  0  0  0  0  0  0
   37.5479   28.3181   55.2018 H   0  0  0  0  0  0  0  0  0  0  0  0
  1 12  1  0
  2  1  2  0
  3  2  1  0
  4  3  2  0
  4  5  1  0
  5  6  2  0
  6  1  1  0
  7 11  2  0
  7  3  1  0
  8  7  1  0
  9  8  2  0
  9 10  1  0
 10 11  1  0
  2 13  1  0
  5 14  1  0
  8 15  1  0
  9 16  1  0
 10 17  1  0
 18 19  1  0
 19 20  1  6
 19 21  1  0
 21 22  1  1
 21 23  1  0
 23 24  1  0
 24 25  1  1
 24 26  1  0
 26 27  1  6
 26 18  1  0
 18 28  1  0
 19 29  1  0
 21 30  1  0
 24 31  1  0
 26 32  1  0
 12 18  1  0
M  ISO  8  13  14  14  14  15  14  16  14  17   9  20  15  22  15  25  15
M  ISO  1  27  15
M  END
>  <DihAtoms>  (1) 
0,11,17,18

>  <DihDeg>  (1) 
-114.2976833685385

$$$$
