
 OpenBabel03272510123D

 36 39  0  0  0  0  0  0  0  0999 V2000
   35.6280   29.3070   34.0180 C   0  0  0  0  0  0  0  0  0  0  0  0
   36.5050   28.3260   34.3710 C   0  0  0  0  0  0  0  0  0  0  0  0
   36.9970   27.3720   33.5110 C   0  0  0  0  0  0  0  0  0  0  0  0
   36.6020   27.3760   32.2060 C   0  0  0  0  0  0  0  0  0  0  0  0
   35.7040   28.3810   31.8390 C   0  0  0  0  0  0  0  0  0  0  0  0
   35.2460   29.2960   32.7140 N   0  0  0  0  0  0  0  0  0  0  0  0
   36.8740   28.2430   35.3880 H   0  0  0  0  0  0  0  0  0  0  0  0
   37.6930   26.5910   33.7870 H   0  0  0  0  0  0  0  0  0  0  0  0
   35.3380   28.4610   30.8240 H   0  0  0  0  0  0  0  0  0  0  0  0
   35.9250   31.1900   35.6700 C   0  0  0  0  0  0  0  0  0  0  0  0
   35.1300   30.2920   34.9400 C   0  0  0  0  0  0  0  0  0  0  0  0
   33.7610   30.3820   35.1370 C   0  0  0  0  0  0  0  0  0  0  0  0
   33.2650   31.3110   36.0090 N   0  0  0  0  0  0  0  0  0  0  0  0
   34.0890   32.1500   36.6850 C   0  0  0  0  0  0  0  0  0  0  0  0
   35.4250   32.0930   36.5190 N   0  0  0  0  0  0  0  0  0  0  0  0
   36.9810   31.1330   35.5280 H   0  0  0  0  0  0  0  0  0  0  0  0
   33.1030   29.7160   34.6010 H   0  0  0  0  0  0  0  0  0  0  0  0
   33.5160   32.8080   37.3210 H   0  0  0  0  0  0  0  0  0  0  0  0
   36.9920   26.4960   31.1960 O   0  0  0  0  0  0  0  0  0  0  0  0
   36.8550   25.1170   31.3200 C   0  0  0  0  0  0  0  0  0  0  0  0
   37.7720   24.3890   30.5870 C   0  0  0  0  0  0  0  0  0  0  0  0
   37.5060   23.0460   30.8140 C   0  0  0  0  0  0  0  0  0  0  0  0
   36.4650   23.0080   31.6540 N   0  0  0  0  0  0  0  0  0  0  0  0
   36.0830   24.2230   31.9510 N   0  0  0  0  0  0  0  0  0  0  0  0
   38.6090   24.6050   29.9110 H   0  0  0  0  0  0  0  0  0  0  0  0
   37.9570   22.1260   30.4600 H   0  0  0  0  0  0  0  0  0  0  0  0
   35.7750   21.8720   32.2200 C   0  0  0  0  0  3  0  0  0  0  0  0
   35.6440   20.7390   31.2470 C   0  0  0  0  0  3  0  0  0  0  0  0
   36.6570   20.2920   31.0520 H   0  0  0  0  0  0  0  0  0  0  0  0
   34.8510   19.6460   31.9620 C   0  0  0  0  0  3  0  0  0  0  0  0
   34.6600   18.7890   31.3120 H   0  0  0  0  0  0  0  0  0  0  0  0
   35.5180   19.2260   33.0990 O   0  0  0  0  0  0  0  0  0  0  0  0
   35.5330   20.2780   34.0210 C   0  0  0  0  0  3  0  0  0  0  0  0
   35.9230   19.8700   34.9910 H   0  0  0  0  0  0  0  0  0  0  0  0
   36.4730   21.3390   33.4520 C   0  0  0  0  0  3  0  0  0  0  0  0
   37.4040   20.7760   33.1570 H   0  0  0  0  0  0  0  0  0  0  0  0
  1  2  1  0  0  0  0
  1 11  1  0  0  0  0
  2  7  1  0  0  0  0
  3  8  1  0  0  0  0
  3  2  2  0  0  0  0
  4  3  1  0  0  0  0
  5  4  2  0  0  0  0
  5  6  1  0  0  0  0
  6  1  2  0  0  0  0
  9  5  1  0  0  0  0
 10 15  1  0  0  0  0
 11 12  1  0  0  0  0
 11 10  2  0  0  0  0
 12 13  2  0  0  0  0
 13 14  1  0  0  0  0
 14 18  1  0  0  0  0
 15 14  2  0  0  0  0
 16 10  1  0  0  0  0
 17 12  1  0  0  0  0
 19 20  1  0  0  0  0
 19  4  1  0  0  0  0
 20 24  2  0  0  0  0
 21 22  2  0  0  0  0
 21 20  1  0  0  0  0
 22 23  1  0  0  0  0
 23 24  1  0  0  0  0
 23 27  1  0  0  0  0
 25 21  1  0  0  0  0
 26 22  1  0  0  0  0
 27 35  1  0  0  0  0
 28 30  1  0  0  0  0
 28 27  1  0  0  0  0
 29 28  1  0  0  0  0
 30 32  1  0  0  0  0
 31 30  1  0  0  0  0
 32 33  1  0  0  0  0
 33 34  1  0  0  0  0
 35 33  1  0  0  0  0
 36 35  1  0  0  0  0
M  END
>  <minimizedAffinity>
-5.75941944

$$$$

 OpenBabel03272510123D

 36 39  0  0  0  0  0  0  0  0999 V2000
   38.7230   24.9470   35.1740 C   0  0  0  0  0  0  0  0  0  0  0  0
   38.5920   26.2560   35.5260 C   0  0  0  0  0  0  0  0  0  0  0  0
   37.8860   27.1920   34.8040 C   0  0  0  0  0  0  0  0  0  0  0  0
   37.2610   26.8190   33.6510 C   0  0  0  0  0  0  0  0  0  0  0  0
   37.3910   25.4770   33.2880 C   0  0  0  0  0  0  0  0  0  0  0  0
   38.0920   24.5940   34.0240 N   0  0  0  0  0  0  0  0  0  0  0  0
   39.0550   26.6440   36.4270 H   0  0  0  0  0  0  0  0  0  0  0  0
   37.7800   28.2330   35.0790 H   0  0  0  0  0  0  0  0  0  0  0  0
   36.9280   25.0940   32.3890 H   0  0  0  0  0  0  0  0  0  0  0  0
   40.7030   23.4380   35.5770 C   0  0  0  0  0  0  0  0  0  0  0  0
   39.4670   23.9900   35.9480 C   0  0  0  0  0  0  0  0  0  0  0  0
   38.9430   23.5670   37.1600 C   0  0  0  0  0  0  0  0  0  0  0  0
   39.6330   22.6580   37.9130 N   0  0  0  0  0  0  0  0  0  0  0  0
   40.8250   22.1620   37.4950 C   0  0  0  0  0  0  0  0  0  0  0  0
   41.3660   22.5490   36.3240 N   0  0  0  0  0  0  0  0  0  0  0  0
   41.1190   23.7540   34.6470 H   0  0  0  0  0  0  0  0  0  0  0  0
   37.9950   23.9600   37.4940 H   0  0  0  0  0  0  0  0  0  0  0  0
   41.2150   21.4620   38.2200 H   0  0  0  0  0  0  0  0  0  0  0  0
   36.5060   27.6210   32.7950 O   0  0  0  0  0  0  0  0  0  0  0  0
   35.9510   28.8290   33.2070 C   0  0  0  0  0  0  0  0  0  0  0  0
   36.0220   29.8360   32.2630 C   0  0  0  0  0  0  0  0  0  0  0  0
   35.4320   30.9630   32.8190 C   0  0  0  0  0  0  0  0  0  0  0  0
   35.0360   30.6090   34.0470 N   0  0  0  0  0  0  0  0  0  0  0  0
   35.3400   29.3570   34.2750 N   0  0  0  0  0  0  0  0  0  0  0  0
   36.4080   29.9490   31.2430 H   0  0  0  0  0  0  0  0  0  0  0  0
   35.2600   31.9700   32.4580 H   0  0  0  0  0  0  0  0  0  0  0  0
   34.3670   31.3890   35.0630 C   0  0  0  0  0  3  0  0  0  0  0  0
   33.1680   30.6870   35.6270 C   0  0  0  0  0  3  0  0  0  0  0  0
   33.5020   29.8000   36.2320 H   0  0  0  0  0  0  0  0  0  0  0  0
   32.5390   31.6490   36.6340 C   0  0  0  0  0  3  0  0  0  0  0  0
   31.6230   31.2430   37.0680 H   0  0  0  0  0  0  0  0  0  0  0  0
   33.4350   31.9520   37.6430 O   0  0  0  0  0  0  0  0  0  0  0  0
   34.4890   32.6910   37.0960 C   0  0  0  0  0  3  0  0  0  0  0  0
   35.1130   33.0700   37.9490 H   0  0  0  0  0  0  0  0  0  0  0  0
   35.2850   31.7270   36.2170 C   0  0  0  0  0  3  0  0  0  0  0  0
   35.4510   30.8160   36.8600 H   0  0  0  0  0  0  0  0  0  0  0  0
  1  2  1  0  0  0  0
  1 11  1  0  0  0  0
  2  7  1  0  0  0  0
  3  8  1  0  0  0  0
  3  2  2  0  0  0  0
  4  3  1  0  0  0  0
  5  4  2  0  0  0  0
  5  6  1  0  0  0  0
  6  1  2  0  0  0  0
  9  5  1  0  0  0  0
 10 11  2  0  0  0  0
 10 15  1  0  0  0  0
 11 12  1  0  0  0  0
 12 17  1  0  0  0  0
 12 13  2  0  0  0  0
 14 13  1  0  0  0  0
 14 18  1  0  0  0  0
 15 14  2  0  0  0  0
 16 10  1  0  0  0  0
 19 20  1  0  0  0  0
 19  4  1  0  0  0  0
 20 24  2  0  0  0  0
 21 22  2  0  0  0  0
 21 20  1  0  0  0  0
 22 23  1  0  0  0  0
 23 24  1  0  0  0  0
 23 27  1  0  0  0  0
 25 21  1  0  0  0  0
 26 22  1  0  0  0  0
 27 28  1  0  0  0  0
 27 35  1  0  0  0  0
 28 29  1  0  0  0  0
 28 30  1  0  0  0  0
 30 31  1  0  0  0  0
 30 32  1  0  0  0  0
 33 32  1  0  0  0  0
 33 34  1  0  0  0  0
 35 36  1  0  0  0  0
 35 33  1  0  0  0  0
M  END
>  <minimizedAffinity>
-5.67793608

$$$$

 OpenBabel03272510123D

 36 39  0  0  0  0  0  0  0  0999 V2000
   36.2930   22.9720   32.0070 C   0  0  0  0  0  0  0  0  0  0  0  0
   35.4970   23.8460   31.3300 C   0  0  0  0  0  0  0  0  0  0  0  0
   35.7500   25.1920   31.1980 C   0  0  0  0  0  0  0  0  0  0  0  0
   36.8670   25.7250   31.7710 C   0  0  0  0  0  0  0  0  0  0  0  0
   37.6870   24.8320   32.4650 C   0  0  0  0  0  0  0  0  0  0  0  0
   37.4010   23.5200   32.5700 N   0  0  0  0  0  0  0  0  0  0  0  0
   34.5860   23.5130   30.8430 H   0  0  0  0  0  0  0  0  0  0  0  0
   35.1210   25.8900   30.6630 H   0  0  0  0  0  0  0  0  0  0  0  0
   38.5940   25.1670   32.9500 H   0  0  0  0  0  0  0  0  0  0  0  0
   35.6730   20.9140   33.3250 C   0  0  0  0  0  0  0  0  0  0  0  0
   36.0030   21.5690   32.1290 C   0  0  0  0  0  0  0  0  0  0  0  0
   36.0450   20.7820   30.9880 C   0  0  0  0  0  0  0  0  0  0  0  0
   35.7730   19.4450   31.0810 N   0  0  0  0  0  0  0  0  0  0  0  0
   35.4610   18.8730   32.2710 C   0  0  0  0  0  0  0  0  0  0  0  0
   35.4100   19.6050   33.4000 N   0  0  0  0  0  0  0  0  0  0  0  0
   35.6360   21.5060   34.2120 H   0  0  0  0  0  0  0  0  0  0  0  0
   36.2930   21.2350   30.0410 H   0  0  0  0  0  0  0  0  0  0  0  0
   35.2800   17.8160   32.1420 H   0  0  0  0  0  0  0  0  0  0  0  0
   37.2850   27.0550   31.7430 O   0  0  0  0  0  0  0  0  0  0  0  0
   36.5780   28.0690   32.3810 C   0  0  0  0  0  0  0  0  0  0  0  0
   36.0700   29.0290   31.5260 C   0  0  0  0  0  0  0  0  0  0  0  0
   35.3990   29.9600   32.3070 C   0  0  0  0  0  0  0  0  0  0  0  0
   35.5200   29.5430   33.5720 N   0  0  0  0  0  0  0  0  0  0  0  0
   36.2120   28.4340   33.6160 N   0  0  0  0  0  0  0  0  0  0  0  0
   36.0710   29.2190   30.4470 H   0  0  0  0  0  0  0  0  0  0  0  0
   34.8530   30.8690   32.0810 H   0  0  0  0  0  0  0  0  0  0  0  0
   35.0150   30.1310   34.7920 C   0  0  0  0  0  3  0  0  0  0  0  0
   35.7960   31.3410   35.2100 C   0  0  0  0  0  3  0  0  0  0  0  0
   35.6100   32.1780   34.4820 H   0  0  0  0  0  0  0  0  0  0  0  0
   35.1880   31.8120   36.5300 C   0  0  0  0  0  3  0  0  0  0  0  0
   35.7250   32.6690   36.9430 H   0  0  0  0  0  0  0  0  0  0  0  0
   33.8540   32.1370   36.3640 O   0  0  0  0  0  0  0  0  0  0  0  0
   33.1440   30.9680   36.0730 C   0  0  0  0  0  3  0  0  0  0  0  0
   32.0510   31.2200   36.1090 H   0  0  0  0  0  0  0  0  0  0  0  0
   33.5650   30.5430   34.6670 C   0  0  0  0  0  3  0  0  0  0  0  0
   33.4790   31.4760   34.0420 H   0  0  0  0  0  0  0  0  0  0  0  0
  1 11  1  0  0  0  0
  1  6  1  0  0  0  0
  2  1  2  0  0  0  0
  3  2  1  0  0  0  0
  3  4  2  0  0  0  0
  4  5  1  0  0  0  0
  5  6  2  0  0  0  0
  5  9  1  0  0  0  0
  7  2  1  0  0  0  0
  8  3  1  0  0  0  0
 10 15  1  0  0  0  0
 10 16  1  0  0  0  0
 11 10  2  0  0  0  0
 12 13  2  0  0  0  0
 12 11  1  0  0  0  0
 13 14  1  0  0  0  0
 14 15  2  0  0  0  0
 17 12  1  0  0  0  0
 18 14  1  0  0  0  0
 19  4  1  0  0  0  0
 19 20  1  0  0  0  0
 20 24  2  0  0  0  0
 21 22  2  0  0  0  0
 21 20  1  0  0  0  0
 22 23  1  0  0  0  0
 23 24  1  0  0  0  0
 23 27  1  0  0  0  0
 25 21  1  0  0  0  0
 26 22  1  0  0  0  0
 27 28  1  0  0  0  0
 28 30  1  0  0  0  0
 29 28  1  0  0  0  0
 30 31  1  0  0  0  0
 32 30  1  0  0  0  0
 33 34  1  0  0  0  0
 33 32  1  0  0  0  0
 35 27  1  0  0  0  0
 35 33  1  0  0  0  0
 36 35  1  0  0  0  0
M  END
>  <minimizedAffinity>
-5.63116646

$$$$

 OpenBabel03272510123D

 36 39  0  0  0  0  0  0  0  0999 V2000
   38.5170   25.4500   35.4700 C   0  0  0  0  0  0  0  0  0  0  0  0
   38.4890   26.6850   36.0440 C   0  0  0  0  0  0  0  0  0  0  0  0
   37.7900   27.7620   35.5480 C   0  0  0  0  0  0  0  0  0  0  0  0
   37.0630   27.6210   34.4030 C   0  0  0  0  0  0  0  0  0  0  0  0
   37.0880   26.3560   33.8110 C   0  0  0  0  0  0  0  0  0  0  0  0
   37.7870   25.3290   34.3310 N   0  0  0  0  0  0  0  0  0  0  0  0
   39.0370   26.8920   36.9570 H   0  0  0  0  0  0  0  0  0  0  0  0
   37.7660   28.7440   36.0000 H   0  0  0  0  0  0  0  0  0  0  0  0
   36.5400   26.1530   32.9010 H   0  0  0  0  0  0  0  0  0  0  0  0
   40.4200   23.7960   35.4480 C   0  0  0  0  0  0  0  0  0  0  0  0
   39.2560   24.3430   36.0120 C   0  0  0  0  0  0  0  0  0  0  0  0
   38.8040   23.7530   37.1820 C   0  0  0  0  0  0  0  0  0  0  0  0
   39.4920   22.6980   37.7150 N   0  0  0  0  0  0  0  0  0  0  0  0
   40.6120   22.2170   37.1180 C   0  0  0  0  0  0  0  0  0  0  0  0
   41.0810   22.7640   35.9810 N   0  0  0  0  0  0  0  0  0  0  0  0
   40.7810   24.2390   34.5470 H   0  0  0  0  0  0  0  0  0  0  0  0
   37.9140   24.1340   37.6580 H   0  0  0  0  0  0  0  0  0  0  0  0
   41.0110   21.3880   37.6840 H   0  0  0  0  0  0  0  0  0  0  0  0
   36.2980   28.5910   33.7560 O   0  0  0  0  0  0  0  0  0  0  0  0
   35.6500   29.6090   34.4490 C   0  0  0  0  0  0  0  0  0  0  0  0
   34.2760   29.4740   34.4980 C   0  0  0  0  0  0  0  0  0  0  0  0
   33.7820   30.5550   35.2160 C   0  0  0  0  0  0  0  0  0  0  0  0
   34.8460   31.2870   35.5660 N   0  0  0  0  0  0  0  0  0  0  0  0
   35.9420   30.7320   35.1170 N   0  0  0  0  0  0  0  0  0  0  0  0
   33.5290   28.7610   34.1290 H   0  0  0  0  0  0  0  0  0  0  0  0
   32.7850   30.8650   35.5050 H   0  0  0  0  0  0  0  0  0  0  0  0
   34.9120   32.5170   36.3220 C   0  0  0  0  0  3  0  0  0  0  0  0
   35.2750   33.6940   35.4670 C   0  0  0  0  0  3  0  0  0  0  0  0
   34.4260   33.9260   34.7670 H   0  0  0  0  0  0  0  0  0  0  0  0
   35.3640   34.8970   36.4050 C   0  0  0  0  0  3  0  0  0  0  0  0
   35.6720   35.8030   35.8790 H   0  0  0  0  0  0  0  0  0  0  0  0
   34.1500   35.1160   37.0320 O   0  0  0  0  0  0  0  0  0  0  0  0
   33.8940   34.0450   37.8940 C   0  0  0  0  0  3  0  0  0  0  0  0
   33.0000   34.3170   38.5140 H   0  0  0  0  0  0  0  0  0  0  0  0
   33.6020   32.8350   37.0080 C   0  0  0  0  0  3  0  0  0  0  0  0
   32.8490   33.2010   36.2540 H   0  0  0  0  0  0  0  0  0  0  0  0
  1 11  1  0  0  0  0
  1  2  1  0  0  0  0
  2  7  1  0  0  0  0
  3  8  1  0  0  0  0
  3  2  2  0  0  0  0
  4  3  1  0  0  0  0
  5  6  1  0  0  0  0
  5  4  2  0  0  0  0
  6  1  2  0  0  0  0
  9  5  1  0  0  0  0
 10 15  2  0  0  0  0
 10 11  1  0  0  0  0
 11 12  2  0  0  0  0
 12 17  1  0  0  0  0
 12 13  1  0  0  0  0
 14 18  1  0  0  0  0
 14 13  2  0  0  0  0
 15 14  1  0  0  0  0
 16 10  1  0  0  0  0
 19  4  1  0  0  0  0
 19 20  1  0  0  0  0
 20 21  1  0  0  0  0
 20 24  2  0  0  0  0
 21 22  2  0  0  0  0
 22 26  1  0  0  0  0
 22 23  1  0  0  0  0
 23 27  1  0  0  0  0
 24 23  1  0  0  0  0
 25 21  1  0  0  0  0
 27 35  1  0  0  0  0
 28 27  1  0  0  0  0
 28 30  1  0  0  0  0
 29 28  1  0  0  0  0
 30 32  1  0  0  0  0
 31 30  1  0  0  0  0
 32 33  1  0  0  0  0
 33 34  1  0  0  0  0
 35 33  1  0  0  0  0
 36 35  1  0  0  0  0
M  END
>  <minimizedAffinity>
-5.55032206

$$$$

 OpenBabel03272510123D

 36 39  0  0  0  0  0  0  0  0999 V2000
   35.7280   29.8560   34.1890 C   0  0  0  0  0  0  0  0  0  0  0  0
   35.7650   29.7080   32.8350 C   0  0  0  0  0  0  0  0  0  0  0  0
   36.3030   28.6230   32.1820 C   0  0  0  0  0  0  0  0  0  0  0  0
   36.8470   27.6040   32.9080 C   0  0  0  0  0  0  0  0  0  0  0  0
   36.8100   27.7510   34.2960 C   0  0  0  0  0  0  0  0  0  0  0  0
   36.2740   28.8320   34.8940 N   0  0  0  0  0  0  0  0  0  0  0  0
   35.3570   30.4680   32.1770 H   0  0  0  0  0  0  0  0  0  0  0  0
   36.3350   28.5010   31.1080 H   0  0  0  0  0  0  0  0  0  0  0  0
   37.2180   26.9920   34.9500 H   0  0  0  0  0  0  0  0  0  0  0  0
   35.6440   31.5780   36.0290 C   0  0  0  0  0  0  0  0  0  0  0  0
   35.1590   31.0020   34.8450 C   0  0  0  0  0  0  0  0  0  0  0  0
   34.0450   31.6030   34.2800 C   0  0  0  0  0  0  0  0  0  0  0  0
   33.4870   32.6940   34.8870 N   0  0  0  0  0  0  0  0  0  0  0  0
   34.0050   33.2020   36.0330 C   0  0  0  0  0  0  0  0  0  0  0  0
   35.0870   32.6450   36.6110 N   0  0  0  0  0  0  0  0  0  0  0  0
   36.5010   31.1270   36.4770 H   0  0  0  0  0  0  0  0  0  0  0  0
   33.6310   31.2010   33.3680 H   0  0  0  0  0  0  0  0  0  0  0  0
   33.4320   34.0580   36.3570 H   0  0  0  0  0  0  0  0  0  0  0  0
   37.4320   26.4340   32.4250 O   0  0  0  0  0  0  0  0  0  0  0  0
   37.6800   25.3350   33.2420 C   0  0  0  0  0  0  0  0  0  0  0  0
   37.5660   24.1170   32.6010 C   0  0  0  0  0  0  0  0  0  0  0  0
   37.8400   23.1320   33.5410 C   0  0  0  0  0  0  0  0  0  0  0  0
   38.1010   23.7720   34.6860 N   0  0  0  0  0  0  0  0  0  0  0  0
   38.0070   25.0650   34.5110 N   0  0  0  0  0  0  0  0  0  0  0  0
   37.3280   23.7640   31.5910 H   0  0  0  0  0  0  0  0  0  0  0  0
   37.8720   22.0490   33.4990 H   0  0  0  0  0  0  0  0  0  0  0  0
   38.4460   23.2380   35.9840 C   0  0  0  0  0  3  0  0  0  0  0  0
   39.9240   23.2530   36.2350 C   0  0  0  0  0  3  0  0  0  0  0  0
   40.2750   24.3160   36.3460 H   0  0  0  0  0  0  0  0  0  0  0  0
   40.1360   22.6120   37.6060 C   0  0  0  0  0  3  0  0  0  0  0  0
   41.1950   22.5340   37.8590 H   0  0  0  0  0  0  0  0  0  0  0  0
   39.4770   23.3320   38.5860 O   0  0  0  0  0  0  0  0  0  0  0  0
   38.0990   23.2130   38.3760 C   0  0  0  0  0  3  0  0  0  0  0  0
   37.5830   23.6560   39.2690 H   0  0  0  0  0  0  0  0  0  0  0  0
   37.7830   24.0040   37.1080 C   0  0  0  0  0  3  0  0  0  0  0  0
   38.2920   24.9990   37.2520 H   0  0  0  0  0  0  0  0  0  0  0  0
  1 11  1  0  0  0  0
  1  6  1  0  0  0  0
  2  1  2  0  0  0  0
  3  2  1  0  0  0  0
  3  4  2  0  0  0  0
  4  5  1  0  0  0  0
  5  6  2  0  0  0  0
  5  9  1  0  0  0  0
  7  2  1  0  0  0  0
  8  3  1  0  0  0  0
 10 16  1  0  0  0  0
 10 15  1  0  0  0  0
 11 10  2  0  0  0  0
 12 11  1  0  0  0  0
 12 13  2  0  0  0  0
 13 14  1  0  0  0  0
 14 18  1  0  0  0  0
 14 15  2  0  0  0  0
 17 12  1  0  0  0  0
 19  4  1  0  0  0  0
 19 20  1  0  0  0  0
 20 24  2  0  0  0  0
 21 20  1  0  0  0  0
 21 22  2  0  0  0  0
 22 23  1  0  0  0  0
 23 27  1  0  0  0  0
 24 23  1  0  0  0  0
 25 21  1  0  0  0  0
 26 22  1  0  0  0  0
 27 28  1  0  0  0  0
 27 35  1  0  0  0  0
 28 29  1  0  0  0  0
 28 30  1  0  0  0  0
 30 31  1  0  0  0  0
 30 32  1  0  0  0  0
 33 32  1  0  0  0  0
 33 34  1  0  0  0  0
 35 36  1  0  0  0  0
 35 33  1  0  0  0  0
M  END
>  <minimizedAffinity>
-5.48954391

$$$$

 OpenBabel03272510123D

 36 39  0  0  0  0  0  0  0  0999 V2000
   35.4460   28.5990   32.7820 C   0  0  0  0  0  0  0  0  0  0  0  0
   36.0120   28.5630   34.0210 C   0  0  0  0  0  0  0  0  0  0  0  0
   36.9670   27.6560   34.4190 C   0  0  0  0  0  0  0  0  0  0  0  0
   37.4020   26.7100   33.5390 C   0  0  0  0  0  0  0  0  0  0  0  0
   36.8260   26.7430   32.2670 C   0  0  0  0  0  0  0  0  0  0  0  0
   35.8930   27.6500   31.9190 N   0  0  0  0  0  0  0  0  0  0  0  0
   35.7270   29.2760   34.7880 H   0  0  0  0  0  0  0  0  0  0  0  0
   37.4170   27.6240   35.4020 H   0  0  0  0  0  0  0  0  0  0  0  0
   37.1120   26.0310   31.5050 H   0  0  0  0  0  0  0  0  0  0  0  0
   33.1220   29.5730   32.8480 C   0  0  0  0  0  0  0  0  0  0  0  0
   34.4500   29.5600   32.3940 C   0  0  0  0  0  0  0  0  0  0  0  0
   34.8060   30.5610   31.5050 C   0  0  0  0  0  0  0  0  0  0  0  0
   33.8750   31.4860   31.1210 N   0  0  0  0  0  0  0  0  0  0  0  0
   32.6050   31.4420   31.5970 C   0  0  0  0  0  0  0  0  0  0  0  0
   32.2220   30.4840   32.4630 N   0  0  0  0  0  0  0  0  0  0  0  0
   32.8320   28.8090   33.5330 H   0  0  0  0  0  0  0  0  0  0  0  0
   35.8160   30.5980   31.1250 H   0  0  0  0  0  0  0  0  0  0  0  0
   32.0200   32.2500   31.1830 H   0  0  0  0  0  0  0  0  0  0  0  0
   38.3550   25.7160   33.7610 O   0  0  0  0  0  0  0  0  0  0  0  0
   38.0230   24.3660   33.8070 C   0  0  0  0  0  0  0  0  0  0  0  0
   38.2940   23.7580   35.0180 C   0  0  0  0  0  0  0  0  0  0  0  0
   37.9100   22.4280   34.9040 C   0  0  0  0  0  0  0  0  0  0  0  0
   37.4340   22.2820   33.6630 N   0  0  0  0  0  0  0  0  0  0  0  0
   37.5000   23.4190   33.0180 N   0  0  0  0  0  0  0  0  0  0  0  0
   38.7120   24.0560   35.9870 H   0  0  0  0  0  0  0  0  0  0  0  0
   37.9320   21.5850   35.5850 H   0  0  0  0  0  0  0  0  0  0  0  0
   36.9010   21.1080   33.0100 C   0  0  0  0  0  3  0  0  0  0  0  0
   35.7680   20.4930   33.7750 C   0  0  0  0  0  3  0  0  0  0  0  0
   34.8750   21.1760   33.7380 H   0  0  0  0  0  0  0  0  0  0  0  0
   35.3530   19.2430   33.0000 C   0  0  0  0  0  3  0  0  0  0  0  0
   34.5570   18.6940   33.5090 H   0  0  0  0  0  0  0  0  0  0  0  0
   34.9420   19.5770   31.7220 O   0  0  0  0  0  0  0  0  0  0  0  0
   36.0460   20.0540   31.0090 C   0  0  0  0  0  3  0  0  0  0  0  0
   35.7360   20.1580   29.9360 H   0  0  0  0  0  0  0  0  0  0  0  0
   36.4000   21.4110   31.6150 C   0  0  0  0  0  3  0  0  0  0  0  0
   35.4230   21.9710   31.6670 H   0  0  0  0  0  0  0  0  0  0  0  0
  1  2  1  0  0  0  0
  2  3  2  0  0  0  0
  2  7  1  0  0  0  0
  3  8  1  0  0  0  0
  4 19  1  0  0  0  0
  4  3  1  0  0  0  0
  5  4  2  0  0  0  0
  6  5  1  0  0  0  0
  6  1  2  0  0  0  0
  9  5  1  0  0  0  0
 10 16  1  0  0  0  0
 11  1  1  0  0  0  0
 11 10  2  0  0  0  0
 12 11  1  0  0  0  0
 13 12  2  0  0  0  0
 13 14  1  0  0  0  0
 14 15  2  0  0  0  0
 15 10  1  0  0  0  0
 17 12  1  0  0  0  0
 18 14  1  0  0  0  0
 19 20  1  0  0  0  0
 20 21  1  0  0  0  0
 21 25  1  0  0  0  0
 22 21  2  0  0  0  0
 22 26  1  0  0  0  0
 23 22  1  0  0  0  0
 24 23  1  0  0  0  0
 24 20  2  0  0  0  0
 27 23  1  0  0  0  0
 27 28  1  0  0  0  0
 29 28  1  0  0  0  0
 30 31  1  0  0  0  0
 30 28  1  0  0  0  0
 32 30  1  0  0  0  0
 33 35  1  0  0  0  0
 33 32  1  0  0  0  0
 34 33  1  0  0  0  0
 35 36  1  0  0  0  0
 35 27  1  0  0  0  0
M  END
>  <minimizedAffinity>
-5.34827518

$$$$

 OpenBabel03272510123D

 36 39  0  0  0  0  0  0  0  0999 V2000
   36.2960   22.7510   31.9290 C   0  0  0  0  0  0  0  0  0  0  0  0
   35.5280   23.6380   31.2370 C   0  0  0  0  0  0  0  0  0  0  0  0
   35.7320   24.9980   31.2160 C   0  0  0  0  0  0  0  0  0  0  0  0
   36.7650   25.5330   31.9260 C   0  0  0  0  0  0  0  0  0  0  0  0
   37.5570   24.6280   32.6360 C   0  0  0  0  0  0  0  0  0  0  0  0
   37.3210   23.3020   32.6290 N   0  0  0  0  0  0  0  0  0  0  0  0
   34.6820   23.3040   30.6440 H   0  0  0  0  0  0  0  0  0  0  0  0
   35.1240   25.7060   30.6680 H   0  0  0  0  0  0  0  0  0  0  0  0
   38.3980   24.9640   33.2270 H   0  0  0  0  0  0  0  0  0  0  0  0
   36.2690   20.4760   30.8400 C   0  0  0  0  0  0  0  0  0  0  0  0
   36.0590   21.3330   31.9330 C   0  0  0  0  0  0  0  0  0  0  0  0
   35.5870   20.7430   33.0950 C   0  0  0  0  0  0  0  0  0  0  0  0
   35.3540   19.3950   33.1210 N   0  0  0  0  0  0  0  0  0  0  0  0
   35.5780   18.6230   32.0280 C   0  0  0  0  0  0  0  0  0  0  0  0
   36.0370   19.1610   30.8810 N   0  0  0  0  0  0  0  0  0  0  0  0
   36.6330   20.9150   29.9380 H   0  0  0  0  0  0  0  0  0  0  0  0
   35.4080   21.3550   33.9650 H   0  0  0  0  0  0  0  0  0  0  0  0
   35.3380   17.5920   32.2410 H   0  0  0  0  0  0  0  0  0  0  0  0
   37.1250   26.8780   32.0230 O   0  0  0  0  0  0  0  0  0  0  0  0
   36.2540   27.8450   32.5180 C   0  0  0  0  0  0  0  0  0  0  0  0
   36.4550   28.1590   33.8490 C   0  0  0  0  0  0  0  0  0  0  0  0
   35.5190   29.1260   34.1870 C   0  0  0  0  0  0  0  0  0  0  0  0
   34.8040   29.3580   33.0800 N   0  0  0  0  0  0  0  0  0  0  0  0
   35.2350   28.6060   32.1010 N   0  0  0  0  0  0  0  0  0  0  0  0
   37.1340   27.8460   34.6500 H   0  0  0  0  0  0  0  0  0  0  0  0
   35.3000   29.6640   35.1020 H   0  0  0  0  0  0  0  0  0  0  0  0
   33.7030   30.2680   32.8650 C   0  0  0  0  0  3  0  0  0  0  0  0
   33.8220   31.0150   31.5700 C   0  0  0  0  0  3  0  0  0  0  0  0
   33.6750   30.3030   30.7120 H   0  0  0  0  0  0  0  0  0  0  0  0
   32.6310   31.9700   31.5110 C   0  0  0  0  0  3  0  0  0  0  0  0
   32.6550   32.5970   30.6180 H   0  0  0  0  0  0  0  0  0  0  0  0
   31.4400   31.2660   31.5510 O   0  0  0  0  0  0  0  0  0  0  0  0
   31.3190   30.6660   32.8080 C   0  0  0  0  0  3  0  0  0  0  0  0
   30.2820   30.2450   32.8830 H   0  0  0  0  0  0  0  0  0  0  0  0
   32.3680   29.5570   32.8620 C   0  0  0  0  0  3  0  0  0  0  0  0
   32.2360   28.9840   31.9010 H   0  0  0  0  0  0  0  0  0  0  0  0
  1 11  1  0  0  0  0
  1  6  1  0  0  0  0
  2  1  2  0  0  0  0
  3  2  1  0  0  0  0
  3  4  2  0  0  0  0
  4 19  1  0  0  0  0
  4  5  1  0  0  0  0
  5  9  1  0  0  0  0
  6  5  2  0  0  0  0
  7  2  1  0  0  0  0
  8  3  1  0  0  0  0
 10 15  2  0  0  0  0
 10 11  1  0  0  0  0
 11 12  2  0  0  0  0
 12 13  1  0  0  0  0
 12 17  1  0  0  0  0
 14 18  1  0  0  0  0
 14 13  2  0  0  0  0
 15 14  1  0  0  0  0
 16 10  1  0  0  0  0
 19 20  1  0  0  0  0
 20 21  1  0  0  0  0
 21 22  2  0  0  0  0
 21 25  1  0  0  0  0
 22 26  1  0  0  0  0
 23 22  1  0  0  0  0
 24 20  2  0  0  0  0
 24 23  1  0  0  0  0
 27 23  1  0  0  0  0
 28 27  1  0  0  0  0
 29 28  1  0  0  0  0
 30 32  1  0  0  0  0
 30 28  1  0  0  0  0
 31 30  1  0  0  0  0
 32 33  1  0  0  0  0
 33 35  1  0  0  0  0
 33 34  1  0  0  0  0
 35 27  1  0  0  0  0
 36 35  1  0  0  0  0
M  END
>  <minimizedAffinity>
-5.32388878

$$$$

 OpenBabel03272510123D

 36 39  0  0  0  0  0  0  0  0999 V2000
   35.5590   30.3530   34.2760 C   0  0  0  0  0  0  0  0  0  0  0  0
   35.9810   29.0910   34.5690 C   0  0  0  0  0  0  0  0  0  0  0  0
   36.3850   28.1660   33.6340 C   0  0  0  0  0  0  0  0  0  0  0  0
   36.3760   28.4990   32.3120 C   0  0  0  0  0  0  0  0  0  0  0  0
   35.9450   29.7920   32.0070 C   0  0  0  0  0  0  0  0  0  0  0  0
   35.5570   30.6670   32.9540 N   0  0  0  0  0  0  0  0  0  0  0  0
   36.0210   28.7380   35.5940 H   0  0  0  0  0  0  0  0  0  0  0  0
   36.7200   27.1630   33.8620 H   0  0  0  0  0  0  0  0  0  0  0  0
   35.9060   30.1420   30.9840 H   0  0  0  0  0  0  0  0  0  0  0  0
   34.0070   31.1650   36.0900 C   0  0  0  0  0  0  0  0  0  0  0  0
   35.1410   31.3000   35.2740 C   0  0  0  0  0  0  0  0  0  0  0  0
   35.9040   32.4420   35.4650 C   0  0  0  0  0  0  0  0  0  0  0  0
   35.5260   33.3560   36.4090 N   0  0  0  0  0  0  0  0  0  0  0  0
   34.4160   33.1650   37.1650 C   0  0  0  0  0  0  0  0  0  0  0  0
   33.6500   32.0680   37.0080 N   0  0  0  0  0  0  0  0  0  0  0  0
   33.4090   30.2920   35.9560 H   0  0  0  0  0  0  0  0  0  0  0  0
   36.7870   32.5950   34.8640 H   0  0  0  0  0  0  0  0  0  0  0  0
   34.2830   33.9900   37.8500 H   0  0  0  0  0  0  0  0  0  0  0  0
   36.7490   27.7000   31.2310 O   0  0  0  0  0  0  0  0  0  0  0  0
   36.5330   26.3250   31.2160 C   0  0  0  0  0  0  0  0  0  0  0  0
   35.2190   25.9610   30.9910 C   0  0  0  0  0  0  0  0  0  0  0  0
   35.1700   24.5730   31.0050 C   0  0  0  0  0  0  0  0  0  0  0  0
   36.4220   24.1580   31.2310 N   0  0  0  0  0  0  0  0  0  0  0  0
   37.2220   25.1850   31.3550 N   0  0  0  0  0  0  0  0  0  0  0  0
   34.2660   26.4730   30.8150 H   0  0  0  0  0  0  0  0  0  0  0  0
   34.3700   23.8540   30.8760 H   0  0  0  0  0  0  0  0  0  0  0  0
   36.9430   22.8150   31.3450 C   0  0  0  0  0  3  0  0  0  0  0  0
   37.6510   22.5840   32.6460 C   0  0  0  0  0  3  0  0  0  0  0  0
   36.9030   22.5890   33.4860 H   0  0  0  0  0  0  0  0  0  0  0  0
   38.1920   21.1550   32.5950 C   0  0  0  0  0  3  0  0  0  0  0  0
   38.7700   20.9070   33.4880 H   0  0  0  0  0  0  0  0  0  0  0  0
   37.1580   20.2490   32.4450 O   0  0  0  0  0  0  0  0  0  0  0  0
   36.5870   20.4300   31.1810 C   0  0  0  0  0  3  0  0  0  0  0  0
   35.8710   19.5830   31.0100 H   0  0  0  0  0  0  0  0  0  0  0  0
   35.8560   21.7700   31.2230 C   0  0  0  0  0  3  0  0  0  0  0  0
   35.2420   21.7380   32.1670 H   0  0  0  0  0  0  0  0  0  0  0  0
  1  2  1  0  0  0  0
  1 11  1  0  0  0  0
  2  7  1  0  0  0  0
  3  8  1  0  0  0  0
  3  2  2  0  0  0  0
  4  3  1  0  0  0  0
  5  4  2  0  0  0  0
  5  6  1  0  0  0  0
  6  1  2  0  0  0  0
  9  5  1  0  0  0  0
 10 15  1  0  0  0  0
 11 12  1  0  0  0  0
 11 10  2  0  0  0  0
 12 13  2  0  0  0  0
 13 14  1  0  0  0  0
 14 18  1  0  0  0  0
 15 14  2  0  0  0  0
 16 10  1  0  0  0  0
 17 12  1  0  0  0  0
 19  4  1  0  0  0  0
 20 19  1  0  0  0  0
 20 24  2  0  0  0  0
 21 22  2  0  0  0  0
 21 20  1  0  0  0  0
 22 23  1  0  0  0  0
 23 27  1  0  0  0  0
 23 24  1  0  0  0  0
 25 21  1  0  0  0  0
 26 22  1  0  0  0  0
 27 28  1  0  0  0  0
 28 29  1  0  0  0  0
 30 28  1  0  0  0  0
 30 31  1  0  0  0  0
 32 30  1  0  0  0  0
 33 35  1  0  0  0  0
 33 32  1  0  0  0  0
 34 33  1  0  0  0  0
 35 27  1  0  0  0  0
 35 36  1  0  0  0  0
M  END
>  <minimizedAffinity>
-5.25792408

$$$$

 OpenBabel03272510123D

 36 39  0  0  0  0  0  0  0  0999 V2000
   35.9640   29.0290   34.1880 C   0  0  0  0  0  0  0  0  0  0  0  0
   35.8950   28.8040   32.8460 C   0  0  0  0  0  0  0  0  0  0  0  0
   36.6000   27.8270   32.1800 C   0  0  0  0  0  0  0  0  0  0  0  0
   37.4360   27.0070   32.8790 C   0  0  0  0  0  0  0  0  0  0  0  0
   37.5080   27.2330   34.2550 C   0  0  0  0  0  0  0  0  0  0  0  0
   36.8010   28.2020   34.8670 N   0  0  0  0  0  0  0  0  0  0  0  0
   35.2580   29.4070   32.2080 H   0  0  0  0  0  0  0  0  0  0  0  0
   36.5490   27.6450   31.1150 H   0  0  0  0  0  0  0  0  0  0  0  0
   38.1450   26.6300   34.8890 H   0  0  0  0  0  0  0  0  0  0  0  0
   33.8160   30.1620   34.8650 C   0  0  0  0  0  0  0  0  0  0  0  0
   35.2150   30.0580   34.8570 C   0  0  0  0  0  0  0  0  0  0  0  0
   35.9090   31.0330   35.5560 C   0  0  0  0  0  0  0  0  0  0  0  0
   35.2170   32.0220   36.1990 N   0  0  0  0  0  0  0  0  0  0  0  0
   33.8620   32.0660   36.1670 C   0  0  0  0  0  0  0  0  0  0  0  0
   33.1540   31.1350   35.4980 N   0  0  0  0  0  0  0  0  0  0  0  0
   33.2670   29.4190   34.3310 H   0  0  0  0  0  0  0  0  0  0  0  0
   36.9870   31.0000   35.5830 H   0  0  0  0  0  0  0  0  0  0  0  0
   33.5000   32.9130   36.7310 H   0  0  0  0  0  0  0  0  0  0  0  0
   38.2230   25.9700   32.3810 O   0  0  0  0  0  0  0  0  0  0  0  0
   37.9760   24.6350   32.6880 C   0  0  0  0  0  0  0  0  0  0  0  0
   38.5210   24.2210   33.8890 C   0  0  0  0  0  0  0  0  0  0  0  0
   38.1890   22.8830   34.0500 C   0  0  0  0  0  0  0  0  0  0  0  0
   37.4740   22.5430   32.9710 N   0  0  0  0  0  0  0  0  0  0  0  0
   37.3490   23.5710   32.1720 N   0  0  0  0  0  0  0  0  0  0  0  0
   39.1150   24.6690   34.6940 H   0  0  0  0  0  0  0  0  0  0  0  0
   38.3930   22.1510   34.8230 H   0  0  0  0  0  0  0  0  0  0  0  0
   36.8770   21.2750   32.6200 C   0  0  0  0  0  3  0  0  0  0  0  0
   35.8820   20.8090   33.6400 C   0  0  0  0  0  3  0  0  0  0  0  0
   34.9790   21.4790   33.6170 H   0  0  0  0  0  0  0  0  0  0  0  0
   35.3850   19.4440   33.1670 C   0  0  0  0  0  3  0  0  0  0  0  0
   34.6850   18.9970   33.8750 H   0  0  0  0  0  0  0  0  0  0  0  0
   34.7840   19.5490   31.9250 O   0  0  0  0  0  0  0  0  0  0  0  0
   35.7620   19.8880   30.9840 C   0  0  0  0  0  3  0  0  0  0  0  0
   35.2950   19.8020   29.9670 H   0  0  0  0  0  0  0  0  0  0  0  0
   36.1710   21.3290   31.2830 C   0  0  0  0  0  3  0  0  0  0  0  0
   35.2000   21.8930   31.3800 H   0  0  0  0  0  0  0  0  0  0  0  0
  1 11  1  0  0  0  0
  1  6  1  0  0  0  0
  2  1  2  0  0  0  0
  3  2  1  0  0  0  0
  3  4  2  0  0  0  0
  4  5  1  0  0  0  0
  5  6  2  0  0  0  0
  5  9  1  0  0  0  0
  7  2  1  0  0  0  0
  8  3  1  0  0  0  0
 10 15  1  0  0  0  0
 11 10  2  0  0  0  0
 11 12  1  0  0  0  0
 12 17  1  0  0  0  0
 12 13  2  0  0  0  0
 14 13  1  0  0  0  0
 14 18  1  0  0  0  0
 15 14  2  0  0  0  0
 16 10  1  0  0  0  0
 19 20  1  0  0  0  0
 19  4  1  0  0  0  0
 20 21  1  0  0  0  0
 21 22  2  0  0  0  0
 21 25  1  0  0  0  0
 22 26  1  0  0  0  0
 23 22  1  0  0  0  0
 24 20  2  0  0  0  0
 24 23  1  0  0  0  0
 27 23  1  0  0  0  0
 27 28  1  0  0  0  0
 29 28  1  0  0  0  0
 30 28  1  0  0  0  0
 30 31  1  0  0  0  0
 32 30  1  0  0  0  0
 33 35  1  0  0  0  0
 33 32  1  0  0  0  0
 34 33  1  0  0  0  0
 35 36  1  0  0  0  0
 35 27  1  0  0  0  0
M  END
>  <minimizedAffinity>
-5.22095203

$$$$
