
 OpenBabel03272508023D

 29 31  0  0  0  0  0  0  0  0999 V2000
   38.7870   30.5330   45.3050 C   0  0  0  0  0  0  0  0  0  0  0  0
   39.9570   31.2330   45.1720 C   0  0  0  0  0  0  0  0  0  0  0  0
   40.6220   30.8230   44.0110 C   0  0  0  0  0  0  0  0  0  0  0  0
   39.8030   29.8680   43.4790 N   0  0  0  0  0  0  0  0  0  0  0  0
   38.7490   29.7200   44.2480 N   0  0  0  0  0  0  0  0  0  0  0  0
   40.3500   32.0050   45.8490 H   0  0  0  0  0  0  0  0  0  0  0  0
   41.5810   31.1900   43.6250 H   0  0  0  0  0  0  0  0  0  0  0  0
   40.1130   29.1660   42.2510 C   0  0  0  0  0  3  0  0  0  0  0  0
   41.6120   29.2650   41.9380 C   0  0  0  0  0  3  0  0  0  0  0  0
   41.9980   30.2190   42.3470 H   0  0  0  0  0  0  0  0  0  0  0  0
   41.7210   29.3420   40.4290 C   0  0  0  0  0  3  0  0  0  0  0  0
   42.7850   29.1750   40.1500 H   0  0  0  0  0  0  0  0  0  0  0  0
   41.3100   30.5750   39.9320 O   0  0  0  0  0  0  0  0  0  0  0  0
   40.2490   31.0560   40.6660 C   0  0  0  0  0  3  0  0  0  0  0  0
   39.6160   31.7620   40.0680 H   0  0  0  0  0  0  0  0  0  0  0  0
   39.4150   29.8550   41.0950 C   0  0  0  0  0  3  0  0  0  0  0  0
   39.1940   29.1930   40.2520 H   0  0  0  0  0  0  0  0  0  0  0  0
   37.7920   30.6430   46.3650 C   0  0  0  0  0  0  0  0  0  0  0  0
   38.2060   31.1980   47.6070 C   0  0  0  0  0  0  0  0  0  0  0  0
   37.2430   31.2970   48.6110 C   0  0  0  0  0  0  0  0  0  0  0  0
   35.9830   30.8670   48.3630 N   0  0  0  0  0  0  0  0  0  0  0  0
   35.6180   30.3440   47.1750 C   0  0  0  0  0  0  0  0  0  0  0  0
   36.5350   30.2390   46.1870 N   0  0  0  0  0  0  0  0  0  0  0  0
   39.2260   31.5230   47.7440 H   0  0  0  0  0  0  0  0  0  0  0  0
   34.6150   29.9960   46.9610 H   0  0  0  0  0  0  0  0  0  0  0  0
   37.6530   31.8750   49.9200 C   0  0  0  0  0  0  0  0  0  0  0  0
   36.6180   32.6660   50.3400 F   0  0  0  0  0  0  0  0  0  0  0  0
   37.8830   30.9030   50.8850 F   0  0  0  0  0  0  0  0  0  0  0  0
   38.7800   32.6800   49.8020 F   0  0  0  0  0  0  0  0  0  0  0  0
  1 18  1  0  0  0  0
  2  1  1  0  0  0  0
  2  6  1  0  0  0  0
  3  2  2  0  0  0  0
  4  3  1  0  0  0  0
  4  5  1  0  0  0  0
  5  1  2  0  0  0  0
  7  3  1  0  0  0  0
  8  4  1  0  0  0  0
  9  8  1  0  0  0  0
  9 10  1  0  0  0  0
 11  9  1  0  0  0  0
 12 11  1  0  0  0  0
 13 11  1  0  0  0  0
 13 14  1  0  0  0  0
 14 16  1  0  0  0  0
 15 14  1  0  0  0  0
 16  8  1  0  0  0  0
 17 16  1  0  0  0  0
 18 19  1  0  0  0  0
 19 24  1  0  0  0  0
 19 20  2  0  0  0  0
 20 26  1  0  0  0  0
 21 20  1  0  0  0  0
 22 21  2  0  0  0  0
 23 18  2  0  0  0  0
 23 22  1  0  0  0  0
 25 22  1  0  0  0  0
 26 27  1  0  0  0  0
 26 28  1  0  0  0  0
 29 26  1  0  0  0  0
M  END
>  <minimizedAffinity>
-5.73552561

>  <minimizedRMSD>
1.31819725

$$$$
