
     RDKit          3D

 39 41  0  0  0  0  0  0  0  0999 V2000
   33.7326   28.5863   48.6907 C   0  0  0  0  0  0  0  0  0  0  0  0
   32.8099   27.4602   48.3542 C   0  0  0  0  0  0  0  0  0  0  0  0
   31.3722   27.8655   48.3463 C   0  0  0  0  0  0  0  0  0  0  0  0
   30.6941   27.7342   49.5360 C   0  0  0  0  0  0  0  0  0  0  0  0
   29.3674   28.0743   49.6539 C   0  0  0  0  0  0  0  0  0  0  0  0
   28.7172   28.5461   48.5823 N   0  0  0  0  0  0  0  0  0  0  0  0
   29.3937   28.6688   47.4264 C   0  0  0  0  0  0  0  0  0  0  0  0
   30.6889   28.3440   47.2844 N   0  0  0  0  0  0  0  0  0  0  0  0
   34.6270   28.2040   49.7256 O   0  0  0  0  0  0  0  0  0  0  0  0
   37.2292   30.1952   51.2962 C   0  0  0  0  0  0  0  0  0  0  0  0
   37.9106   30.6430   50.1431 C   0  0  0  0  0  0  0  0  0  0  0  0
   37.4247   30.2272   48.9163 C   0  0  0  0  0  0  0  0  0  0  0  0
   36.3182   29.4105   48.8849 N   0  0  0  0  0  0  0  0  0  0  0  0
   35.7029   29.0097   50.0016 C   0  0  0  0  0  0  0  0  0  0  0  0
   36.1614   29.4040   51.2012 N   0  0  0  0  0  0  0  0  0  0  0  0
   34.3295   28.9407   47.8275 H   0  0  0  0  0  0  0  0  0  0  0  0
   33.1495   29.4665   49.0294 H   0  0  0  0  0  0  0  0  0  0  0  0
   33.0920   27.1020   47.3258 H   0  0  0  0  0  0  0  0  0  0  0  0
   32.9516   26.6253   49.0701 H   0  0  0  0  0  0  0  0  0  0  0  0
   31.1641   27.3559   50.4483 H   0  0  0  0  0  0  0  0  0  0  0  0
   28.7949   27.9857   50.5759 H   0  0  0  0  0  0  0  0  0  0  0  0
   28.9157   29.0499   46.5117 H   0  0  0  0  0  0  0  0  0  0  0  0
   37.5518   30.4796   52.2895 H   0  0  0  0  0  0  0  0  0  0  0  0
   38.7774   31.2864   50.2441 H   0  0  0  0  0  0  0  0  0  0  0  0
   38.1244   30.6851   47.6904 C   0  0  2  0  0  0  0  0  0  0  0  0
   39.4733   31.2304   47.9899 C   0  0  1  0  0  0  0  0  0  0  0  0
   39.5110   31.9202   48.8480 H   0  0  0  0  0  0  0  0  0  0  0  0
   39.9718   32.0386   46.8082 C   0  0  2  0  0  0  0  0  0  0  0  0
   40.0375   31.4573   45.8699 H   0  0  0  0  0  0  0  0  0  0  0  0
   39.0904   33.1307   46.6922 O   0  0  0  0  0  0  0  0  0  0  0  0
   37.9357   32.6234   46.1051 C   0  0  1  0  0  0  0  0  0  0  0  0
   37.2553   33.4765   45.9026 H   0  0  0  0  0  0  0  0  0  0  0  0
   37.2077   31.6621   47.0040 C   0  0  2  0  0  0  0  0  0  0  0  0
   36.6311   32.2123   47.7762 H   0  0  0  0  0  0  0  0  0  0  0  0
   38.2290   29.7964   47.0334 H   0  0  0  0  0  0  0  0  0  0  0  0
   40.2011   30.3716   48.0776 H   0  0  0  0  0  0  0  0  0  0  0  0
   40.9703   32.4465   47.1103 H   0  0  0  0  0  0  0  0  0  0  0  0
   38.1923   32.1734   45.1304 H   0  0  0  0  0  0  0  0  0  0  0  0
   36.4602   31.1146   46.3933 H   0  0  0  0  0  0  0  0  0  0  0  0
  1  9  1  0
  2  1  1  0
  3  2  1  0
  3  4  2  0
  4  5  1  0
  6  5  2  0
  7  6  1  0
  8  7  2  0
  8  3  1  0
  9 14  1  0
 11 10  2  0
 12 11  1  0
 13 12  2  0
 13 14  1  0
 14 15  2  0
 15 10  1  0
  1 16  1  0
  1 17  1  0
  2 18  1  0
  2 19  1  0
  4 20  1  0
  5 21  1  0
  7 22  1  0
 10 23  1  0
 11 24  1  0
 25 26  1  0
 26 27  1  1
 26 28  1  0
 28 29  1  6
 28 30  1  0
 30 31  1  0
 31 32  1  6
 31 33  1  0
 33 34  1  1
 33 25  1  0
 25 35  1  6
 26 36  1  0
 28 37  1  0
 31 38  1  0
 33 39  1  0
 12 25  1  0
M  ISO  8  16   8  17   8  18   8  19   8  20  14  21  14  22  14  23  14
M  ISO  5  24  14  27  15  29  15  32  15  34  15
M  END
>  <DihAtoms>  (1) 
10,11,24,25

>  <DihDeg>  (1) 
60.68382223953517

$$$$
