
 OpenBabel03272509093D

 41 44  0  0  0  0  0  0  0  0999 V2000
   32.9810   27.8960   48.0260 C   0  0  0  0  0  0  0  0  0  0  0  0
   32.1520   28.5440   47.7340 H   0  0  0  0  0  0  0  0  0  0  0  0
   32.5760   27.3040   48.9020 H   0  0  0  0  0  0  0  0  0  0  0  0
   33.3480   26.8610   47.0290 C   0  0  0  0  0  0  0  0  0  0  0  0
   34.0450   25.6940   47.3340 C   0  0  0  0  0  0  0  0  0  0  0  0
   34.3560   24.7680   46.3670 C   0  0  0  0  0  0  0  0  0  0  0  0
   33.9720   24.9820   45.0450 C   0  0  0  0  0  0  0  0  0  0  0  0
   33.2910   26.1220   44.7430 C   0  0  0  0  0  0  0  0  0  0  0  0
   32.9760   27.0580   45.7110 C   0  0  0  0  0  0  0  0  0  0  0  0
   34.2890   25.6400   48.3960 H   0  0  0  0  0  0  0  0  0  0  0  0
   34.8950   23.9430   46.8120 H   0  0  0  0  0  0  0  0  0  0  0  0
   34.2730   24.1850   44.3800 H   0  0  0  0  0  0  0  0  0  0  0  0
   33.0470   26.1850   43.6930 H   0  0  0  0  0  0  0  0  0  0  0  0
   32.2440   28.2330   45.1860 C   0  0  0  0  0  3  0  0  0  0  0  0
   31.1110   28.5450   46.1560 C   0  0  0  0  0  3  0  0  0  0  0  0
   31.5720   28.4390   47.1810 H   0  0  0  0  0  0  0  0  0  0  0  0
   30.5500   29.9230   45.9810 C   0  0  0  0  0  3  0  0  0  0  0  0
   29.5740   29.8890   45.4520 H   0  0  0  0  0  0  0  0  0  0  0  0
   31.4220   30.8420   45.4440 O   0  0  0  0  0  0  0  0  0  0  0  0
   32.7090   30.5550   45.9520 C   0  0  0  0  0  3  0  0  0  0  0  0
   32.6320   30.2720   47.0200 H   0  0  0  0  0  0  0  0  0  0  0  0
   33.2040   29.3930   45.0800 C   0  0  0  0  0  3  0  0  0  0  0  0
   34.2480   29.1550   45.2720 H   0  0  0  0  0  0  0  0  0  0  0  0
   34.8430   28.3350   49.6370 C   0  0  0  0  0  3  0  0  0  0  0  0
   34.1340   28.6300   48.5760 C   0  0  0  0  0  3  0  0  0  0  0  0
   37.3730   30.1780   51.5090 C   0  0  0  0  0  0  0  0  0  0  0  0
   38.0360   30.8810   50.4760 C   0  0  0  0  0  0  0  0  0  0  0  0
   37.5840   30.6950   49.1600 C   0  0  0  0  0  0  0  0  0  0  0  0
   36.5300   29.8480   48.9410 N   0  0  0  0  0  0  0  0  0  0  0  0
   35.9440   29.2060   49.9890 C   0  0  0  0  0  0  0  0  0  0  0  0
   36.3570   29.3700   51.2440 N   0  0  0  0  0  0  0  0  0  0  0  0
   37.7390   30.3350   52.5310 H   0  0  0  0  0  0  0  0  0  0  0  0
   38.8630   31.5480   50.6350 H   0  0  0  0  0  0  0  0  0  0  0  0
   38.1960   31.3760   48.0130 C   0  0  0  0  0  0  0  0  0  0  0  0
   38.3550   30.7680   46.7910 C   0  0  0  0  0  0  0  0  0  0  0  0
   38.9600   31.6930   45.9400 C   0  0  0  0  0  0  0  0  0  0  0  0
   39.1440   32.8180   46.6760 N   0  0  0  0  0  0  0  0  0  0  0  0
   38.6860   32.6120   47.8980 N   0  0  0  0  0  0  0  0  0  0  0  0
   38.0630   29.7550   46.5330 H   0  0  0  0  0  0  0  0  0  0  0  0
   39.2250   31.5280   44.9010 H   0  0  0  0  0  0  0  0  0  0  0  0
   39.5780   33.7030   46.3260 H   0  0  0  0  0  0  0  0  0  0  0  0
  1 25  1  0  0  0  0
  1  3  1  0  0  0  0
  2  1  1  0  0  0  0
  4  5  1  0  0  0  0
  4  1  1  0  0  0  0
  5 10  1  0  0  0  0
  6 11  1  0  0  0  0
  6  5  2  0  0  0  0
  7  6  1  0  0  0  0
  8  7  2  0  0  0  0
  8  9  1  0  0  0  0
  9  4  2  0  0  0  0
 12  7  1  0  0  0  0
 13  8  1  0  0  0  0
 14  9  1  0  0  0  0
 14 15  1  0  0  0  0
 15 16  1  0  0  0  0
 17 15  1  0  0  0  0
 18 17  1  0  0  0  0
 19 20  1  0  0  0  0
 19 17  1  0  0  0  0
 20 21  1  0  0  0  0
 22 14  1  0  0  0  0
 22 23  1  0  0  0  0
 22 20  1  0  0  0  0
 24 30  1  0  0  0  0
 25 24  2  0  0  0  0
 26 32  1  0  0  0  0
 27 33  1  0  0  0  0
 27 26  2  0  0  0  0
 28 27  1  0  0  0  0
 29 28  2  0  0  0  0
 29 30  1  0  0  0  0
 30 31  2  0  0  0  0
 31 26  1  0  0  0  0
 34 28  1  0  0  0  0
 35 34  1  0  0  0  0
 36 37  1  0  0  0  0
 36 35  2  0  0  0  0
 37 38  1  0  0  0  0
 38 34  2  0  0  0  0
 39 35  1  0  0  0  0
 40 36  1  0  0  0  0
 41 37  1  0  0  0  0
M  END
>  <minimizedAffinity>
-6.22339487

>  <minimizedRMSD>
0.861828268

$$$$
