
 OpenBabel03272501333D

 28 30  0  0  1  0  0  0  0  0999 V2000
   39.3070   25.9850   34.4650 C   0  0  2  0  0  0  0  0  0  0  0  0
   38.9610   27.0870   35.5360 C   0  0  0  0  0  0  0  0  0  0  0  0
   38.6280   27.2050   34.0740 C   0  0  2  0  0  0  0  0  0  0  0  0
   40.4290   25.8320   34.5520 H   0  0  0  0  0  0  0  0  0  0  0  0
   38.2390   26.8400   36.3040 H   0  0  0  0  0  0  0  0  0  0  0  0
   39.8140   27.6720   35.9250 H   0  0  0  0  0  0  0  0  0  0  0  0
   39.3220   27.9260   33.5300 H   0  0  0  0  0  0  0  0  0  0  0  0
   37.2330   27.3550   33.6070 C   0  0  0  0  0  3  0  0  0  0  0  0
   37.2770   27.8940   32.1640 C   0  0  0  0  0  3  0  0  0  0  0  0
   37.7730   27.0950   31.5410 H   0  0  0  0  0  0  0  0  0  0  0  0
   35.9200   28.1040   31.5920 C   0  0  0  0  0  3  0  0  0  0  0  0
   36.0360   28.7610   30.7050 H   0  0  0  0  0  0  0  0  0  0  0  0
   35.0700   28.7970   32.4630 O   0  0  0  0  0  0  0  0  0  0  0  0
   35.8070   29.4110   33.4780 C   0  0  0  0  0  3  0  0  0  0  0  0
   36.5840   30.0730   33.1060 H   0  0  0  0  0  0  0  0  0  0  0  0
   36.3350   28.2720   34.3580 C   0  0  0  0  0  3  0  0  0  0  0  0
   35.3900   27.7270   34.6500 H   0  0  0  0  0  0  0  0  0  0  0  0
   38.5970   24.7200   34.7910 C   0  0  0  0  0  0  0  0  0  0  0  0
   37.8660   24.2140   33.8730 O   0  0  0  0  0  0  0  0  0  0  0  0
   37.9080   23.7740   38.3410 C   0  0  0  0  0  0  0  0  0  0  0  0
   37.7570   24.3110   37.0700 C   0  0  0  0  0  0  0  0  0  0  0  0
   38.7460   24.1310   36.0970 C   0  0  0  0  0  0  0  0  0  0  0  0
   39.8230   23.4280   36.4460 N   0  0  0  0  0  0  0  0  0  0  0  0
   39.9490   22.9090   37.7020 C   0  0  0  0  0  0  0  0  0  0  0  0
   39.0270   23.0660   38.6430 N   0  0  0  0  0  0  0  0  0  0  0  0
   37.0780   23.9820   39.0020 H   0  0  0  0  0  0  0  0  0  0  0  0
   36.8710   24.8880   36.7870 H   0  0  0  0  0  0  0  0  0  0  0  0
   40.8420   22.3380   37.9550 H   0  0  0  0  0  0  0  0  0  0  0  0
  1  4  1  6  0  0  0
  1 18  1  0  0  0  0
  1  2  1  0  0  0  0
  2  6  1  0  0  0  0
  2  5  1  0  0  0  0
  3  7  1  6  0  0  0
  3  1  1  0  0  0  0
  3  2  1  0  0  0  0
  8  3  1  0  0  0  0
  8 16  1  0  0  0  0
  9  8  1  0  0  0  0
 10  9  1  0  0  0  0
 11  9  1  0  0  0  0
 11 13  1  0  0  0  0
 12 11  1  0  0  0  0
 13 14  1  0  0  0  0
 14 16  1  0  0  0  0
 15 14  1  0  0  0  0
 16 17  1  0  0  0  0
 18 22  1  0  0  0  0
 19 18  2  0  0  0  0
 20 25  1  0  0  0  0
 20 26  1  0  0  0  0
 21 20  2  0  0  0  0
 22 23  2  0  0  0  0
 22 21  1  0  0  0  0
 23 24  1  0  0  0  0
 24 28  1  0  0  0  0
 24 25  2  0  0  0  0
 27 21  1  0  0  0  0
M  END
>  <minimizedAffinity>
-4.86898232

$$$$

 OpenBabel03272501333D

 28 30  0  0  1  0  0  0  0  0999 V2000
   39.3080   25.9900   34.4190 C   0  0  2  0  0  0  0  0  0  0  0  0
   38.9910   27.1350   35.4550 C   0  0  0  0  0  0  0  0  0  0  0  0
   38.6480   27.2090   33.9920 C   0  0  2  0  0  0  0  0  0  0  0  0
   40.4280   25.8200   34.5030 H   0  0  0  0  0  0  0  0  0  0  0  0
   38.2720   26.9270   36.2370 H   0  0  0  0  0  0  0  0  0  0  0  0
   39.8570   27.7170   35.8170 H   0  0  0  0  0  0  0  0  0  0  0  0
   39.3500   27.8980   33.4180 H   0  0  0  0  0  0  0  0  0  0  0  0
   37.2520   27.3680   33.5320 C   0  0  0  0  0  3  0  0  0  0  0  0
   37.2910   27.9760   32.1160 C   0  0  0  0  0  3  0  0  0  0  0  0
   37.7950   27.2120   31.4560 H   0  0  0  0  0  0  0  0  0  0  0  0
   35.9320   28.2010   31.5540 C   0  0  0  0  0  3  0  0  0  0  0  0
   36.0430   28.9000   30.6990 H   0  0  0  0  0  0  0  0  0  0  0  0
   35.0760   28.8430   32.4560 O   0  0  0  0  0  0  0  0  0  0  0  0
   35.8060   29.4140   33.5000 C   0  0  0  0  0  3  0  0  0  0  0  0
   36.5780   30.1010   33.1610 H   0  0  0  0  0  0  0  0  0  0  0  0
   36.3440   28.2390   34.3250 C   0  0  0  0  0  3  0  0  0  0  0  0
   35.4040   27.6730   34.5900 H   0  0  0  0  0  0  0  0  0  0  0  0
   38.5790   24.7500   34.7940 C   0  0  0  0  0  0  0  0  0  0  0  0
   37.8540   24.2110   33.8900 O   0  0  0  0  0  0  0  0  0  0  0  0
   39.8900   22.8530   37.7350 C   0  0  0  0  0  0  0  0  0  0  0  0
   39.7800   23.3930   36.4600 C   0  0  0  0  0  0  0  0  0  0  0  0
   38.7040   24.2210   36.1280 C   0  0  0  0  0  0  0  0  0  0  0  0
   37.8040   24.4630   37.0790 N   0  0  0  0  0  0  0  0  0  0  0  0
   37.9340   23.9210   38.3260 C   0  0  0  0  0  0  0  0  0  0  0  0
   38.9440   23.1320   38.6670 N   0  0  0  0  0  0  0  0  0  0  0  0
   40.7650   22.2300   37.8680 H   0  0  0  0  0  0  0  0  0  0  0  0
   40.5210   23.1920   35.6810 H   0  0  0  0  0  0  0  0  0  0  0  0
   37.1800   24.1390   39.0830 H   0  0  0  0  0  0  0  0  0  0  0  0
  1  4  1  6  0  0  0
  1 18  1  0  0  0  0
  1  2  1  0  0  0  0
  2  6  1  0  0  0  0
  2  5  1  0  0  0  0
  3  7  1  6  0  0  0
  3  1  1  0  0  0  0
  3  2  1  0  0  0  0
  8  3  1  0  0  0  0
  8 16  1  0  0  0  0
  9  8  1  0  0  0  0
 10  9  1  0  0  0  0
 11  9  1  0  0  0  0
 11 13  1  0  0  0  0
 12 11  1  0  0  0  0
 13 14  1  0  0  0  0
 14 16  1  0  0  0  0
 15 14  1  0  0  0  0
 16 17  1  0  0  0  0
 18 22  1  0  0  0  0
 19 18  2  0  0  0  0
 20 26  1  0  0  0  0
 20 25  1  0  0  0  0
 21 20  2  0  0  0  0
 22 21  1  0  0  0  0
 22 23  2  0  0  0  0
 23 24  1  0  0  0  0
 24 25  2  0  0  0  0
 24 28  1  0  0  0  0
 27 21  1  0  0  0  0
M  END
>  <minimizedAffinity>
-4.86861467

$$$$

 OpenBabel03272501333D

 28 30  0  0  1  0  0  0  0  0999 V2000
   37.5720   27.4600   34.9640 C   0  0  2  0  0  0  0  0  0  0  0  0
   39.1400   27.3050   34.9920 C   0  0  0  0  0  0  0  0  0  0  0  0
   38.2030   26.5170   35.8670 C   0  0  2  0  0  0  0  0  0  0  0  0
   37.3820   28.5620   35.1600 H   0  0  0  0  0  0  0  0  0  0  0  0
   39.6260   26.9070   34.1120 H   0  0  0  0  0  0  0  0  0  0  0  0
   39.7020   28.1380   35.4500 H   0  0  0  0  0  0  0  0  0  0  0  0
   38.2020   26.8890   36.9440 H   0  0  0  0  0  0  0  0  0  0  0  0
   38.1520   25.0410   35.8140 C   0  0  0  0  0  3  0  0  0  0  0  0
   37.9380   24.5260   37.2510 C   0  0  0  0  0  3  0  0  0  0  0  0
   36.9250   24.9020   37.5750 H   0  0  0  0  0  0  0  0  0  0  0  0
   37.8890   23.0410   37.3240 C   0  0  0  0  0  3  0  0  0  0  0  0
   38.0410   22.7600   38.3870 H   0  0  0  0  0  0  0  0  0  0  0  0
   38.9370   22.4330   36.6220 O   0  0  0  0  0  0  0  0  0  0  0  0
   39.9380   23.3640   36.3370 C   0  0  0  0  0  3  0  0  0  0  0  0
   40.3210   23.8680   37.2210 H   0  0  0  0  0  0  0  0  0  0  0  0
   39.3410   24.3140   35.2930 C   0  0  0  0  0  3  0  0  0  0  0  0
   39.0280   23.6100   34.4680 H   0  0  0  0  0  0  0  0  0  0  0  0
   37.0490   27.0870   33.6240 C   0  0  0  0  0  0  0  0  0  0  0  0
   36.9660   25.8400   33.3620 O   0  0  0  0  0  0  0  0  0  0  0  0
   36.7200   29.0270   30.4450 C   0  0  0  0  0  0  0  0  0  0  0  0
   37.0500   28.0230   31.3460 C   0  0  0  0  0  0  0  0  0  0  0  0
   36.6740   28.1180   32.6890 C   0  0  0  0  0  0  0  0  0  0  0  0
   35.9930   29.2020   33.0560 N   0  0  0  0  0  0  0  0  0  0  0  0
   35.6800   30.1770   32.1520 C   0  0  0  0  0  0  0  0  0  0  0  0
   36.0250   30.1110   30.8730 N   0  0  0  0  0  0  0  0  0  0  0  0
   37.0670   28.8380   29.4380 H   0  0  0  0  0  0  0  0  0  0  0  0
   37.6090   27.1330   31.0400 H   0  0  0  0  0  0  0  0  0  0  0  0
   35.1210   31.0510   32.4850 H   0  0  0  0  0  0  0  0  0  0  0  0
  1  2  1  0  0  0  0
  1  4  1  1  0  0  0
  1  3  1  0  0  0  0
  2  6  1  0  0  0  0
  2  3  1  0  0  0  0
  3  7  1  1  0  0  0
  5  2  1  0  0  0  0
  8  3  1  0  0  0  0
  8  9  1  0  0  0  0
  9 11  1  0  0  0  0
  9 10  1  0  0  0  0
 11 12  1  0  0  0  0
 13 11  1  0  0  0  0
 14 13  1  0  0  0  0
 14 15  1  0  0  0  0
 16  8  1  0  0  0  0
 16 14  1  0  0  0  0
 17 16  1  0  0  0  0
 18  1  1  0  0  0  0
 19 18  2  0  0  0  0
 20 25  2  0  0  0  0
 20 21  1  0  0  0  0
 21 22  2  0  0  0  0
 22 23  1  0  0  0  0
 22 18  1  0  0  0  0
 24 28  1  0  0  0  0
 24 23  2  0  0  0  0
 25 24  1  0  0  0  0
 26 20  1  0  0  0  0
 27 21  1  0  0  0  0
M  END
>  <minimizedAffinity>
-4.62422752

$$$$

 OpenBabel03272501333D

 28 30  0  0  1  0  0  0  0  0999 V2000
   37.9090   27.2460   34.4220 C   0  0  2  0  0  0  0  0  0  0  0  0
   39.2470   27.2130   35.2540 C   0  0  0  0  0  0  0  0  0  0  0  0
   38.0300   26.3960   35.5900 C   0  0  2  0  0  0  0  0  0  0  0  0
   37.5980   28.3380   34.4080 H   0  0  0  0  0  0  0  0  0  0  0  0
   40.1320   26.8150   34.7760 H   0  0  0  0  0  0  0  0  0  0  0  0
   39.4590   28.1070   35.8680 H   0  0  0  0  0  0  0  0  0  0  0  0
   37.4620   26.8140   36.4850 H   0  0  0  0  0  0  0  0  0  0  0  0
   38.0770   24.9190   35.6330 C   0  0  0  0  0  3  0  0  0  0  0  0
   37.7630   24.4810   37.0780 C   0  0  0  0  0  3  0  0  0  0  0  0
   36.7030   24.8050   37.2840 H   0  0  0  0  0  0  0  0  0  0  0  0
   37.8020   23.0030   37.2470 C   0  0  0  0  0  3  0  0  0  0  0  0
   37.8720   22.8000   38.3360 H   0  0  0  0  0  0  0  0  0  0  0  0
   38.9470   22.4270   36.6840 O   0  0  0  0  0  0  0  0  0  0  0  0
   39.9100   23.4050   36.4260 C   0  0  0  0  0  3  0  0  0  0  0  0
   40.1770   23.9880   37.3040 H   0  0  0  0  0  0  0  0  0  0  0  0
   39.3530   24.2450   35.2710 C   0  0  0  0  0  3  0  0  0  0  0  0
   39.1630   23.4710   34.4710 H   0  0  0  0  0  0  0  0  0  0  0  0
   38.1630   26.7740   33.0350 C   0  0  0  0  0  0  0  0  0  0  0  0
   39.2920   27.0760   32.5200 O   0  0  0  0  0  0  0  0  0  0  0  0
   36.3150   23.9120   31.4980 C   0  0  0  0  0  0  0  0  0  0  0  0
   37.2700   24.6380   32.1960 C   0  0  0  0  0  0  0  0  0  0  0  0
   37.1500   26.0240   32.3370 C   0  0  0  0  0  0  0  0  0  0  0  0
   36.0900   26.6040   31.7760 N   0  0  0  0  0  0  0  0  0  0  0  0
   35.1630   25.8680   31.0940 C   0  0  0  0  0  0  0  0  0  0  0  0
   35.2540   24.5540   30.9460 N   0  0  0  0  0  0  0  0  0  0  0  0
   36.5200   22.8500   31.4590 H   0  0  0  0  0  0  0  0  0  0  0  0
   38.1400   24.1580   32.6560 H   0  0  0  0  0  0  0  0  0  0  0  0
   34.3070   26.3740   30.6480 H   0  0  0  0  0  0  0  0  0  0  0  0
  1  4  1  1  0  0  0
  1  2  1  0  0  0  0
  1  3  1  0  0  0  0
  2  3  1  0  0  0  0
  2  6  1  0  0  0  0
  3  8  1  0  0  0  0
  3  7  1  1  0  0  0
  5  2  1  0  0  0  0
  8  9  1  0  0  0  0
  9 11  1  0  0  0  0
  9 10  1  0  0  0  0
 11 12  1  0  0  0  0
 13 11  1  0  0  0  0
 14 13  1  0  0  0  0
 14 15  1  0  0  0  0
 16  8  1  0  0  0  0
 16 14  1  0  0  0  0
 17 16  1  0  0  0  0
 18  1  1  0  0  0  0
 19 18  2  0  0  0  0
 20 21  1  0  0  0  0
 21 22  2  0  0  0  0
 21 27  1  0  0  0  0
 22 18  1  0  0  0  0
 23 22  1  0  0  0  0
 24 23  2  0  0  0  0
 25 24  1  0  0  0  0
 25 20  2  0  0  0  0
 26 20  1  0  0  0  0
 28 24  1  0  0  0  0
M  END
>  <minimizedAffinity>
-4.55387688

$$$$

 OpenBabel03272501333D

 28 30  0  0  1  0  0  0  0  0999 V2000
   38.8880   22.8130   33.4380 C   0  0  2  0  0  0  0  0  0  0  0  0
   39.4030   24.2710   33.7460 C   0  0  0  0  0  0  0  0  0  0  0  0
   38.4750   23.9320   32.6120 C   0  0  2  0  0  0  0  0  0  0  0  0
   39.8280   22.1900   33.3110 H   0  0  0  0  0  0  0  0  0  0  0  0
   39.0880   24.7360   34.6710 H   0  0  0  0  0  0  0  0  0  0  0  0
   40.4640   24.4710   33.5080 H   0  0  0  0  0  0  0  0  0  0  0  0
   39.0040   23.9390   31.6040 H   0  0  0  0  0  0  0  0  0  0  0  0
   37.1270   24.5320   32.5100 C   0  0  0  0  0  3  0  0  0  0  0  0
   36.5600   24.1790   31.1210 C   0  0  0  0  0  3  0  0  0  0  0  0
   36.4490   23.0570   31.0990 H   0  0  0  0  0  0  0  0  0  0  0  0
   35.2050   24.7500   30.8960 C   0  0  0  0  0  3  0  0  0  0  0  0
   35.0120   24.7140   29.8040 H   0  0  0  0  0  0  0  0  0  0  0  0
   35.1270   26.1030   31.2470 O   0  0  0  0  0  0  0  0  0  0  0  0
   36.4050   26.6480   31.3800 C   0  0  0  0  0  3  0  0  0  0  0  0
   37.0200   26.5260   30.4920 H   0  0  0  0  0  0  0  0  0  0  0  0
   37.0030   26.0080   32.6380 C   0  0  0  0  0  3  0  0  0  0  0  0
   36.2390   26.2610   33.4310 H   0  0  0  0  0  0  0  0  0  0  0  0
   38.0930   22.3030   34.5850 C   0  0  0  0  0  0  0  0  0  0  0  0
   37.0450   21.6280   34.3070 O   0  0  0  0  0  0  0  0  0  0  0  0
   38.0760   23.5790   38.0980 C   0  0  0  0  0  0  0  0  0  0  0  0
   37.6640   23.2720   36.8090 C   0  0  0  0  0  0  0  0  0  0  0  0
   38.5140   22.5900   35.9330 C   0  0  0  0  0  0  0  0  0  0  0  0
   39.7190   22.2540   36.3910 N   0  0  0  0  0  0  0  0  0  0  0  0
   40.1020   22.5670   37.6640 C   0  0  0  0  0  0  0  0  0  0  0  0
   39.3150   23.2140   38.5140 N   0  0  0  0  0  0  0  0  0  0  0  0
   37.3300   24.1080   38.6770 H   0  0  0  0  0  0  0  0  0  0  0  0
   36.6740   23.5490   36.4360 H   0  0  0  0  0  0  0  0  0  0  0  0
   41.0940   22.2770   38.0080 H   0  0  0  0  0  0  0  0  0  0  0  0
  1  4  1  6  0  0  0
  1  2  1  0  0  0  0
  1 18  1  0  0  0  0
  2  5  1  0  0  0  0
  3  7  1  6  0  0  0
  3  1  1  0  0  0  0
  3  2  1  0  0  0  0
  6  2  1  0  0  0  0
  8  3  1  0  0  0  0
  8 16  1  0  0  0  0
  9  8  1  0  0  0  0
 10  9  1  0  0  0  0
 11  9  1  0  0  0  0
 11 13  1  0  0  0  0
 12 11  1  0  0  0  0
 13 14  1  0  0  0  0
 14 16  1  0  0  0  0
 15 14  1  0  0  0  0
 16 17  1  0  0  0  0
 18 22  1  0  0  0  0
 19 18  2  0  0  0  0
 20 25  1  0  0  0  0
 20 26  1  0  0  0  0
 21 20  2  0  0  0  0
 22 23  2  0  0  0  0
 22 21  1  0  0  0  0
 23 24  1  0  0  0  0
 24 28  1  0  0  0  0
 24 25  2  0  0  0  0
 27 21  1  0  0  0  0
M  END
>  <minimizedAffinity>
-4.39884377

$$$$

 OpenBabel03272501333D

 28 30  0  0  1  0  0  0  0  0999 V2000
   37.5840   27.3670   34.4990 C   0  0  2  0  0  0  0  0  0  0  0  0
   39.1450   27.2180   34.6590 C   0  0  0  0  0  0  0  0  0  0  0  0
   38.1410   26.4740   35.4960 C   0  0  2  0  0  0  0  0  0  0  0  0
   37.3810   28.4770   34.6230 H   0  0  0  0  0  0  0  0  0  0  0  0
   39.6990   26.7760   33.8410 H   0  0  0  0  0  0  0  0  0  0  0  0
   39.6710   28.0760   35.1160 H   0  0  0  0  0  0  0  0  0  0  0  0
   38.0560   26.9000   36.5490 H   0  0  0  0  0  0  0  0  0  0  0  0
   38.0930   24.9960   35.5150 C   0  0  0  0  0  3  0  0  0  0  0  0
   37.8320   24.5530   36.9680 C   0  0  0  0  0  3  0  0  0  0  0  0
   36.8090   24.9430   37.2400 H   0  0  0  0  0  0  0  0  0  0  0  0
   37.7820   23.0740   37.1140 C   0  0  0  0  0  3  0  0  0  0  0  0
   37.8980   22.8470   38.1940 H   0  0  0  0  0  0  0  0  0  0  0  0
   38.8520   22.4340   36.4780 O   0  0  0  0  0  0  0  0  0  0  0  0
   39.8620   23.3510   36.1800 C   0  0  0  0  0  3  0  0  0  0  0  0
   40.2160   23.9000   37.0500 H   0  0  0  0  0  0  0  0  0  0  0  0
   39.2990   24.2470   35.0710 C   0  0  0  0  0  3  0  0  0  0  0  0
   39.0140   23.5020   34.2720 H   0  0  0  0  0  0  0  0  0  0  0  0
   37.1690   26.9240   33.1420 C   0  0  0  0  0  0  0  0  0  0  0  0
   36.8250   25.7000   33.0140 O   0  0  0  0  0  0  0  0  0  0  0  0
   36.0980   29.6360   30.8040 C   0  0  0  0  0  0  0  0  0  0  0  0
   36.1120   28.7510   31.8730 C   0  0  0  0  0  0  0  0  0  0  0  0
   37.1770   27.8620   32.0490 C   0  0  0  0  0  0  0  0  0  0  0  0
   38.1620   27.9060   31.1530 N   0  0  0  0  0  0  0  0  0  0  0  0
   38.1260   28.7860   30.1090 C   0  0  0  0  0  0  0  0  0  0  0  0
   37.1280   29.6390   29.9200 N   0  0  0  0  0  0  0  0  0  0  0  0
   35.2220   30.2700   30.7770 H   0  0  0  0  0  0  0  0  0  0  0  0
   35.3010   28.7170   32.6070 H   0  0  0  0  0  0  0  0  0  0  0  0
   38.9490   28.7970   29.3940 H   0  0  0  0  0  0  0  0  0  0  0  0
  1  4  1  1  0  0  0
  1  2  1  0  0  0  0
  1  3  1  0  0  0  0
  2  6  1  0  0  0  0
  2  3  1  0  0  0  0
  3  8  1  0  0  0  0
  3  7  1  1  0  0  0
  5  2  1  0  0  0  0
  8  9  1  0  0  0  0
  9 11  1  0  0  0  0
  9 10  1  0  0  0  0
 11 12  1  0  0  0  0
 13 11  1  0  0  0  0
 14 13  1  0  0  0  0
 14 15  1  0  0  0  0
 16  8  1  0  0  0  0
 16 14  1  0  0  0  0
 17 16  1  0  0  0  0
 18  1  1  0  0  0  0
 19 18  2  0  0  0  0
 20 21  1  0  0  0  0
 21 22  2  0  0  0  0
 21 27  1  0  0  0  0
 22 18  1  0  0  0  0
 23 22  1  0  0  0  0
 24 23  2  0  0  0  0
 25 24  1  0  0  0  0
 25 20  2  0  0  0  0
 26 20  1  0  0  0  0
 28 24  1  0  0  0  0
M  END
>  <minimizedAffinity>
-4.38978004

$$$$

 OpenBabel03272501333D

 28 30  0  0  1  0  0  0  0  0999 V2000
   36.4570   25.4890   31.2070 C   0  0  2  0  0  0  0  0  0  0  0  0
   37.4610   26.6710   30.9250 C   0  0  0  0  0  0  0  0  0  0  0  0
   36.7780   26.4480   32.2460 C   0  0  2  0  0  0  0  0  0  0  0  0
   35.6500   25.5930   30.4150 H   0  0  0  0  0  0  0  0  0  0  0  0
   38.4950   26.4220   30.7270 H   0  0  0  0  0  0  0  0  0  0  0  0
   37.0860   27.4820   30.2750 H   0  0  0  0  0  0  0  0  0  0  0  0
   35.9300   27.1870   32.4240 H   0  0  0  0  0  0  0  0  0  0  0  0
   37.5490   26.2150   33.4860 C   0  0  0  0  0  3  0  0  0  0  0  0
   37.3580   27.4440   34.3960 C   0  0  0  0  0  3  0  0  0  0  0  0
   36.2630   27.4740   34.6630 H   0  0  0  0  0  0  0  0  0  0  0  0
   38.1100   27.3290   35.6750 C   0  0  0  0  0  3  0  0  0  0  0  0
   38.1670   28.3470   36.1140 H   0  0  0  0  0  0  0  0  0  0  0  0
   39.4370   26.9280   35.4850 O   0  0  0  0  0  0  0  0  0  0  0  0
   39.8060   27.0790   34.1470 C   0  0  0  0  0  3  0  0  0  0  0  0
   39.6630   28.0890   33.7720 H   0  0  0  0  0  0  0  0  0  0  0  0
   39.0190   26.0150   33.3740 C   0  0  0  0  0  3  0  0  0  0  0  0
   39.3170   25.0590   33.8960 H   0  0  0  0  0  0  0  0  0  0  0  0
   37.1530   24.1840   31.0520 C   0  0  0  0  0  0  0  0  0  0  0  0
   38.0540   24.1140   30.1500 O   0  0  0  0  0  0  0  0  0  0  0  0
   35.2220   21.3310   32.5000 C   0  0  0  0  0  0  0  0  0  0  0  0
   35.5940   22.3820   31.6730 C   0  0  0  0  0  0  0  0  0  0  0  0
   36.7890   23.0740   31.8950 C   0  0  0  0  0  0  0  0  0  0  0  0
   37.5400   22.6810   32.9220 N   0  0  0  0  0  0  0  0  0  0  0  0
   37.1520   21.6440   33.7220 C   0  0  0  0  0  0  0  0  0  0  0  0
   36.0240   20.9710   33.5340 N   0  0  0  0  0  0  0  0  0  0  0  0
   34.2780   20.8770   32.2270 H   0  0  0  0  0  0  0  0  0  0  0  0
   34.9750   22.7020   30.8300 H   0  0  0  0  0  0  0  0  0  0  0  0
   37.7900   21.3470   34.5540 H   0  0  0  0  0  0  0  0  0  0  0  0
  1  4  1  6  0  0  0
  1  3  1  0  0  0  0
  2  1  1  0  0  0  0
  2  3  1  0  0  0  0
  3  7  1  1  0  0  0
  3  8  1  0  0  0  0
  5  2  1  0  0  0  0
  6  2  1  0  0  0  0
  8  9  1  0  0  0  0
  9 10  1  0  0  0  0
  9 11  1  0  0  0  0
 11 12  1  0  0  0  0
 13 11  1  0  0  0  0
 14 13  1  0  0  0  0
 15 14  1  0  0  0  0
 16  8  1  0  0  0  0
 16 17  1  0  0  0  0
 16 14  1  0  0  0  0
 18  1  1  0  0  0  0
 18 22  1  0  0  0  0
 19 18  2  0  0  0  0
 20 25  1  0  0  0  0
 21 22  1  0  0  0  0
 21 20  2  0  0  0  0
 22 23  2  0  0  0  0
 23 24  1  0  0  0  0
 24 28  1  0  0  0  0
 25 24  2  0  0  0  0
 26 20  1  0  0  0  0
 27 21  1  0  0  0  0
M  END
>  <minimizedAffinity>
-4.24214602

$$$$

 OpenBabel03272501333D

 28 30  0  0  1  0  0  0  0  0999 V2000
   39.1800   26.0790   35.2860 C   0  0  2  0  0  0  0  0  0  0  0  0
   38.5520   27.1810   36.2210 C   0  0  0  0  0  0  0  0  0  0  0  0
   38.4560   27.2010   34.7200 C   0  0  2  0  0  0  0  0  0  0  0  0
   40.2810   26.0530   35.5610 H   0  0  0  0  0  0  0  0  0  0  0  0
   37.7420   26.8890   36.8770 H   0  0  0  0  0  0  0  0  0  0  0  0
   39.2660   27.8710   36.7060 H   0  0  0  0  0  0  0  0  0  0  0  0
   39.1550   27.9690   34.2520 H   0  0  0  0  0  0  0  0  0  0  0  0
   37.1500   27.1780   34.0270 C   0  0  0  0  0  3  0  0  0  0  0  0
   37.4220   27.0510   32.5160 C   0  0  0  0  0  3  0  0  0  0  0  0
   37.9180   26.0490   32.3650 H   0  0  0  0  0  0  0  0  0  0  0  0
   36.1720   27.0380   31.7100 C   0  0  0  0  0  3  0  0  0  0  0  0
   36.4570   27.2520   30.6590 H   0  0  0  0  0  0  0  0  0  0  0  0
   35.2870   28.0600   32.0730 O   0  0  0  0  0  0  0  0  0  0  0  0
   35.9430   29.0250   32.8400 C   0  0  0  0  0  3  0  0  0  0  0  0
   36.8180   29.4440   32.3480 H   0  0  0  0  0  0  0  0  0  0  0  0
   36.2510   28.3530   34.1830 C   0  0  0  0  0  3  0  0  0  0  0  0
   35.2320   28.0120   34.5280 H   0  0  0  0  0  0  0  0  0  0  0  0
   38.5560   24.7590   35.5680 C   0  0  0  0  0  0  0  0  0  0  0  0
   38.0440   24.5980   36.7270 O   0  0  0  0  0  0  0  0  0  0  0  0
   39.3320   22.9080   32.4150 C   0  0  0  0  0  0  0  0  0  0  0  0
   39.3470   23.8770   33.4100 C   0  0  0  0  0  0  0  0  0  0  0  0
   38.5600   23.7340   34.5560 C   0  0  0  0  0  0  0  0  0  0  0  0
   37.8070   22.6380   34.6460 N   0  0  0  0  0  0  0  0  0  0  0  0
   37.8090   21.6990   33.6550 C   0  0  0  0  0  0  0  0  0  0  0  0
   38.5460   21.8100   32.5580 N   0  0  0  0  0  0  0  0  0  0  0  0
   39.9820   23.1330   31.5800 H   0  0  0  0  0  0  0  0  0  0  0  0
   39.9670   24.7750   33.3320 H   0  0  0  0  0  0  0  0  0  0  0  0
   37.1820   20.8130   33.7600 H   0  0  0  0  0  0  0  0  0  0  0  0
  1  4  1  6  0  0  0
  1 18  1  0  0  0  0
  1  2  1  0  0  0  0
  2  6  1  0  0  0  0
  2  5  1  0  0  0  0
  3  7  1  6  0  0  0
  3  1  1  0  0  0  0
  3  2  1  0  0  0  0
  8 16  1  0  0  0  0
  8  3  1  0  0  0  0
  9  8  1  0  0  0  0
 10  9  1  0  0  0  0
 11 13  1  0  0  0  0
 11  9  1  0  0  0  0
 12 11  1  0  0  0  0
 13 14  1  0  0  0  0
 14 16  1  0  0  0  0
 15 14  1  0  0  0  0
 16 17  1  0  0  0  0
 18 19  2  0  0  0  0
 20 25  2  0  0  0  0
 20 21  1  0  0  0  0
 21 22  2  0  0  0  0
 22 23  1  0  0  0  0
 22 18  1  0  0  0  0
 24 28  1  0  0  0  0
 24 23  2  0  0  0  0
 25 24  1  0  0  0  0
 26 20  1  0  0  0  0
 27 21  1  0  0  0  0
M  END
>  <minimizedAffinity>
-4.19349575

$$$$

 OpenBabel03272501333D

 28 30  0  0  1  0  0  0  0  0999 V2000
   35.2300   31.8050   36.5590 C   0  0  2  0  0  0  0  0  0  0  0  0
   35.9340   32.8600   35.6230 C   0  0  0  0  0  0  0  0  0  0  0  0
   35.8920   31.3840   35.3400 C   0  0  2  0  0  0  0  0  0  0  0  0
   35.7120   31.9480   37.5770 H   0  0  0  0  0  0  0  0  0  0  0  0
   35.3110   33.5920   35.1240 H   0  0  0  0  0  0  0  0  0  0  0  0
   36.8780   33.2920   36.0010 H   0  0  0  0  0  0  0  0  0  0  0  0
   36.8900   30.8760   35.5480 H   0  0  0  0  0  0  0  0  0  0  0  0
   35.2690   30.8490   34.1100 C   0  0  0  0  0  3  0  0  0  0  0  0
   35.7230   29.3840   33.9530 C   0  0  0  0  0  3  0  0  0  0  0  0
   35.2990   28.8240   34.8340 H   0  0  0  0  0  0  0  0  0  0  0  0
   35.1690   28.7440   32.7290 C   0  0  0  0  0  3  0  0  0  0  0  0
   35.7710   27.8320   32.5360 H   0  0  0  0  0  0  0  0  0  0  0  0
   35.3200   29.5420   31.5890 O   0  0  0  0  0  0  0  0  0  0  0  0
   36.2490   30.5570   31.8230 C   0  0  0  0  0  3  0  0  0  0  0  0
   37.2170   30.1880   32.1530 H   0  0  0  0  0  0  0  0  0  0  0  0
   35.5810   31.5140   32.8170 C   0  0  0  0  0  3  0  0  0  0  0  0
   34.6230   31.7910   32.2870 H   0  0  0  0  0  0  0  0  0  0  0  0
   33.7740   32.0940   36.6440 C   0  0  0  0  0  0  0  0  0  0  0  0
   32.9840   31.2340   36.1260 O   0  0  0  0  0  0  0  0  0  0  0  0
   31.5970   34.9710   37.6190 C   0  0  0  0  0  0  0  0  0  0  0  0
   32.0310   33.7890   37.0350 C   0  0  0  0  0  0  0  0  0  0  0  0
   33.3200   33.3040   37.2790 C   0  0  0  0  0  0  0  0  0  0  0  0
   34.0980   34.0220   38.0880 N   0  0  0  0  0  0  0  0  0  0  0  0
   33.6480   35.1820   38.6510 C   0  0  0  0  0  0  0  0  0  0  0  0
   32.4310   35.6640   38.4350 N   0  0  0  0  0  0  0  0  0  0  0  0
   30.5830   35.2400   37.3520 H   0  0  0  0  0  0  0  0  0  0  0  0
   31.3890   33.2010   36.3710 H   0  0  0  0  0  0  0  0  0  0  0  0
   34.3100   35.7460   39.3080 H   0  0  0  0  0  0  0  0  0  0  0  0
  1 18  1  0  0  0  0
  1  4  1  1  0  0  0
  2  6  1  0  0  0  0
  2  1  1  0  0  0  0
  3  7  1  1  0  0  0
  3  2  1  0  0  0  0
  3  1  1  0  0  0  0
  5  2  1  0  0  0  0
  8  3  1  0  0  0  0
  9  8  1  0  0  0  0
  9 10  1  0  0  0  0
 11  9  1  0  0  0  0
 12 11  1  0  0  0  0
 13 14  1  0  0  0  0
 13 11  1  0  0  0  0
 14 15  1  0  0  0  0
 14 16  1  0  0  0  0
 16  8  1  0  0  0  0
 17 16  1  0  0  0  0
 18 22  1  0  0  0  0
 19 18  2  0  0  0  0
 20 25  1  0  0  0  0
 21 22  1  0  0  0  0
 21 20  2  0  0  0  0
 22 23  2  0  0  0  0
 23 24  1  0  0  0  0
 24 28  1  0  0  0  0
 25 24  2  0  0  0  0
 26 20  1  0  0  0  0
 27 21  1  0  0  0  0
M  END
>  <minimizedAffinity>
-4.18845606

$$$$
