
 OpenBabel03272504333D

 41 44  0  0  0  0  0  0  0  0999 V2000
   35.1310   29.6490   47.5470 C   0  0  0  0  0  0  0  0  0  0  0  0
   35.2820   30.0760   46.2410 C   0  0  0  0  0  0  0  0  0  0  0  0
   34.2450   29.9120   45.3320 C   0  0  0  0  0  0  0  0  0  0  0  0
   33.0910   29.3210   45.7810 N   0  0  0  0  0  0  0  0  0  0  0  0
   32.9710   28.9110   47.0750 C   0  0  0  0  0  0  0  0  0  0  0  0
   33.9850   29.0730   47.9560 N   0  0  0  0  0  0  0  0  0  0  0  0
   36.2140   30.5350   45.9430 H   0  0  0  0  0  0  0  0  0  0  0  0
   34.3320   30.2340   44.3090 H   0  0  0  0  0  0  0  0  0  0  0  0
   36.1610   29.7900   48.5260 N   0  0  0  0  0  0  0  0  0  0  0  0
   36.2380   28.9220   49.6940 C   0  0  0  0  0  0  0  0  0  0  0  0
   36.5470   29.6120   50.9770 C   0  0  0  0  0  0  0  0  0  0  0  0
   37.2700   30.8260   50.9190 N   0  0  0  0  0  0  0  0  0  0  0  0
   36.9730   31.6260   49.7420 C   0  0  0  0  0  0  0  0  0  0  0  0
   37.2190   30.7220   48.5500 C   0  0  0  0  0  0  0  0  0  0  0  0
   35.2690   28.3880   49.7660 H   0  0  0  0  0  0  0  0  0  0  0  0
   37.0020   28.1620   49.4790 H   0  0  0  0  0  0  0  0  0  0  0  0
   35.5700   29.7800   51.5180 H   0  0  0  0  0  0  0  0  0  0  0  0
   37.0980   28.8820   51.6290 H   0  0  0  0  0  0  0  0  0  0  0  0
   37.0530   31.3720   51.7880 H   0  0  0  0  0  0  0  0  0  0  0  0
   35.8790   31.8330   49.7780 H   0  0  0  0  0  0  0  0  0  0  0  0
   37.5830   32.5320   49.7410 H   0  0  0  0  0  0  0  0  0  0  0  0
   38.2320   30.2410   48.6740 H   0  0  0  0  0  0  0  0  0  0  0  0
   37.2490   31.3390   47.6130 H   0  0  0  0  0  0  0  0  0  0  0  0
   31.7240   28.2910   47.4940 C   0  0  0  0  0  0  0  0  0  0  0  0
   31.7520   27.1730   48.3040 C   0  0  0  0  0  0  0  0  0  0  0  0
   30.5980   26.5360   48.7370 C   0  0  0  0  0  0  0  0  0  0  0  0
   29.4290   27.0850   48.3120 N   0  0  0  0  0  0  0  0  0  0  0  0
   29.4150   28.1690   47.5290 C   0  0  0  0  0  0  0  0  0  0  0  0
   30.5500   28.7940   47.1020 N   0  0  0  0  0  0  0  0  0  0  0  0
   32.6730   26.7190   48.6530 H   0  0  0  0  0  0  0  0  0  0  0  0
   30.6190   25.6600   49.3720 H   0  0  0  0  0  0  0  0  0  0  0  0
   28.0620   28.6540   47.1460 C   0  0  0  0  0  0  0  0  0  0  0  0
   27.0930   27.5220   47.2750 C   0  0  0  0  0  0  0  0  0  0  0  0
   26.3310   27.5600   46.4450 H   0  0  0  0  0  0  0  0  0  0  0  0
   26.4140   27.6920   48.6240 C   0  0  0  0  0  0  0  0  0  0  0  0
   27.1860   27.9040   49.3770 H   0  0  0  0  0  0  0  0  0  0  0  0
   25.6220   28.8210   48.5070 O   0  0  0  0  0  0  0  0  0  0  0  0
   26.3340   29.9960   48.4160 C   0  0  0  0  0  0  0  0  0  0  0  0
   25.7950   30.6720   47.7190 H   0  0  0  0  0  0  0  0  0  0  0  0
   27.7640   29.8390   48.0230 C   0  0  0  0  0  0  0  0  0  0  0  0
   28.0500   30.7460   47.4280 H   0  0  0  0  0  0  0  0  0  0  0  0
  1  6  1  0  0  0  0
  1  9  1  0  0  0  0
  2  1  2  0  0  0  0
  3  4  2  0  0  0  0
  3  2  1  0  0  0  0
  4  5  1  0  0  0  0
  5 24  1  0  0  0  0
  5  6  2  0  0  0  0
  7  2  1  0  0  0  0
  8  3  1  0  0  0  0
  9 14  1  0  0  0  0
  9 10  1  0  0  0  0
 10 15  1  0  0  0  0
 10 11  1  0  0  0  0
 11 17  1  0  0  0  0
 11 18  1  0  0  0  0
 12 11  1  0  0  0  0
 12 19  1  0  0  0  0
 13 20  1  0  0  0  0
 13 12  1  0  0  0  0
 14 22  1  0  0  0  0
 14 13  1  0  0  0  0
 16 10  1  0  0  0  0
 21 13  1  0  0  0  0
 23 14  1  0  0  0  0
 24 25  1  0  0  0  0
 25 30  1  0  0  0  0
 25 26  2  0  0  0  0
 26 31  1  0  0  0  0
 27 26  1  0  0  0  0
 28 27  2  0  0  0  0
 29 24  2  0  0  0  0
 29 28  1  0  0  0  0
 32 33  1  0  0  0  0
 32 28  1  0  0  0  0
 32 40  1  0  0  0  0
 33 35  1  0  0  0  0
 34 33  1  0  0  0  0
 35 36  1  0  0  0  0
 37 35  1  0  0  0  0
 38 37  1  0  0  0  0
 39 38  1  0  0  0  0
 40 38  1  0  0  0  0
 41 40  1  0  0  0  0
M  END
>  <minimizedAffinity>
-5.88102102

>  <minimizedRMSD>
0.475007057

$$$$
