
 OpenBabel03272501583D

 32 34  0  0  0  0  0  0  0  0999 V2000
   32.8930   28.2800   47.8900 C   0  0  0  0  0  0  0  0  0  0  0  0
   32.1170   27.5620   48.7560 C   0  0  0  0  0  0  0  0  0  0  0  0
   30.7810   27.5950   48.3890 C   0  0  0  0  0  0  0  0  0  0  0  0
   30.7950   28.3670   47.2650 N   0  0  0  0  0  0  0  0  0  0  0  0
   32.0270   28.7540   46.9900 N   0  0  0  0  0  0  0  0  0  0  0  0
   32.5180   27.0320   49.6270 H   0  0  0  0  0  0  0  0  0  0  0  0
   29.9310   27.1210   48.8820 H   0  0  0  0  0  0  0  0  0  0  0  0
   29.5780   28.6820   46.5130 C   0  0  0  0  0  3  0  0  0  0  0  0
   28.5440   29.2430   47.4240 C   0  0  0  0  0  3  0  0  0  0  0  0
   28.1540   30.2410   47.0880 H   0  0  0  0  0  0  0  0  0  0  0  0
   27.3650   28.3650   47.6930 C   0  0  0  0  0  3  0  0  0  0  0  0
   27.5300   27.6160   48.4900 H   0  0  0  0  0  0  0  0  0  0  0  0
   26.9220   27.8210   46.5100 O   0  0  0  0  0  0  0  0  0  0  0  0
   27.8700   26.8880   46.1170 C   0  0  0  0  0  3  0  0  0  0  0  0
   28.0280   26.1110   46.8960 H   0  0  0  0  0  0  0  0  0  0  0  0
   29.1630   27.5200   45.6850 C   0  0  0  0  0  3  0  0  0  0  0  0
   29.9410   26.7260   45.7100 H   0  0  0  0  0  0  0  0  0  0  0  0
   34.3820   28.4540   47.9880 C   0  0  0  0  0  0  0  0  0  0  0  0
   34.8130   27.6010   47.4290 H   0  0  0  0  0  0  0  0  0  0  0  0
   34.6560   29.4290   47.5720 H   0  0  0  0  0  0  0  0  0  0  0  0
   34.7300   28.2780   49.4480 C   0  0  0  0  0  0  0  0  0  0  0  0
   35.0480   27.2280   49.6570 H   0  0  0  0  0  0  0  0  0  0  0  0
   33.8710   28.5080   50.1120 H   0  0  0  0  0  0  0  0  0  0  0  0
   37.2480   30.1730   51.3830 C   0  0  0  0  0  0  0  0  0  0  0  0
   38.0530   30.7140   50.3760 C   0  0  0  0  0  0  0  0  0  0  0  0
   37.7310   30.4260   49.0270 C   0  0  0  0  0  0  0  0  0  0  0  0
   36.6520   29.6380   48.7900 N   0  0  0  0  0  0  0  0  0  0  0  0
   35.9010   29.1370   49.7930 C   0  0  0  0  0  0  0  0  0  0  0  0
   36.1970   29.4020   51.0690 N   0  0  0  0  0  0  0  0  0  0  0  0
   37.4230   30.3420   52.4420 H   0  0  0  0  0  0  0  0  0  0  0  0
   38.8960   31.3320   50.6550 H   0  0  0  0  0  0  0  0  0  0  0  0
   38.3490   30.8400   48.2490 H   0  0  0  0  0  0  0  0  0  0  0  0
  1 18  1  0  0  0  0
  1  2  1  0  0  0  0
  2  6  1  0  0  0  0
  3  2  2  0  0  0  0
  3  7  1  0  0  0  0
  4  3  1  0  0  0  0
  5  4  1  0  0  0  0
  5  1  2  0  0  0  0
  8  4  1  0  0  0  0
  8  9  1  0  0  0  0
  9 11  1  0  0  0  0
 10  9  1  0  0  0  0
 11 12  1  0  0  0  0
 13 11  1  0  0  0  0
 14 13  1  0  0  0  0
 14 15  1  0  0  0  0
 16 17  1  0  0  0  0
 16 14  1  0  0  0  0
 16  8  1  0  0  0  0
 18 21  1  0  0  0  0
 19 18  1  0  0  0  0
 20 18  1  0  0  0  0
 21 22  1  0  0  0  0
 21 28  1  0  0  0  0
 21 23  1  0  0  0  0
 24 30  1  0  0  0  0
 25 31  1  0  0  0  0
 25 24  2  0  0  0  0
 26 25  1  0  0  0  0
 27 26  2  0  0  0  0
 27 28  1  0  0  0  0
 28 29  2  0  0  0  0
 29 24  1  0  0  0  0
 32 26  1  0  0  0  0
M  END
>  <minimizedAffinity>
-5.03885221

>  <minimizedRMSD>
1.21011388

$$$$
