REMARK  Name = 
REMARK  4 active torsions:
REMARK  status: ('A' for Active; 'I' for Inactive)
REMARK    1  A    between atoms: C_1  and  C_2
REMARK    2  A    between atoms: C_1  and  C_8
REMARK    3  A    between atoms: C_8  and  C_9
REMARK    4  A    between atoms: N_12  and  C_23
REMARK                            x       y       z     vdW  Elec       q    Type
REMARK                         _______ _______ _______ _____ _____    ______ ____
ROOT
ATOM      1  C   UNL     1      37.254  30.695  49.527  0.00  0.00    +0.000 A 
ATOM      2  C   UNL     1      36.319  29.823  50.053  0.00  0.00    +0.000 A 
ATOM      3  C   UNL     1      36.688  29.505  51.329  0.00  0.00    +0.000 A 
ATOM      4  N   UNL     1      37.821  30.172  51.563  0.00  0.00    +0.000 N 
ATOM      5  N   UNL     1      38.146  30.866  50.507  0.00  0.00    +0.000 NA
ATOM      6  H   UNL     1      35.423  29.413  49.604  0.00  0.00    +0.000 HD
ATOM      7  H   UNL     1      36.275  28.883  52.091  0.00  0.00    +0.000 HD
ENDROOT
BRANCH   4   8
ATOM      8  C   UNL     1      38.745  30.293  52.702  0.00  0.00    +0.000 C 
ATOM      9  C   UNL     1      39.124  28.936  53.191  0.00  0.00    +0.000 C 
ATOM     10  H   UNL     1      39.099  28.207  52.336  0.00  0.00    +0.000 HD
ATOM     11  C   UNL     1      40.483  28.833  53.808  0.00  0.00    +0.000 C 
ATOM     12  H   UNL     1      40.766  27.765  53.843  0.00  0.00    +0.000 HD
ATOM     13  O   UNL     1      41.416  29.546  53.029  0.00  0.00    +0.000 OA
ATOM     14  C   UNL     1      41.072  30.901  53.245  0.00  0.00    +0.000 C 
ATOM     15  H   UNL     1      40.894  31.045  54.316  0.00  0.00    +0.000 HD
ATOM     16  C   UNL     1      39.890  31.203  52.385  0.00  0.00    +0.000 C 
ATOM     17  H   UNL     1      40.191  31.187  51.328  0.00  0.00    +0.000 HD
ENDBRANCH   4   8
BRANCH   1  18
ATOM     18  C   UNL     1      37.138  31.218  48.152  0.00  0.00    +0.000 C 
ATOM     19  H   UNL     1      36.074  31.092  47.778  0.00  0.00    +0.000 HD
ATOM     20  H   UNL     1      37.241  32.306  48.215  0.00  0.00    +0.000 HD
BRANCH  18  21
ATOM     21  C   UNL     1      37.992  30.496  47.181  0.00  0.00    +0.000 C 
ATOM     22  H   UNL     1      38.576  29.733  47.787  0.00  0.00    +0.000 HD
ATOM     23  H   UNL     1      37.390  29.824  46.493  0.00  0.00    +0.000 HD
BRANCH  21  24
ATOM     24  C   UNL     1      38.976  31.249  46.443  0.00  0.00    +0.000 A 
ATOM     25  C   UNL     1      39.243  32.557  46.737  0.00  0.00    +0.000 A 
ATOM     26  C   UNL     1      40.222  33.271  46.008  0.00  0.00    +0.000 A 
ATOM     27  N   UNL     1      40.859  32.551  45.009  0.00  0.00    +0.000 NA
ATOM     28  C   UNL     1      40.557  31.247  44.753  0.00  0.00    +0.000 A 
ATOM     29  N   UNL     1      39.615  30.610  45.477  0.00  0.00    +0.000 NA
ATOM     30  H   UNL     1      38.815  33.200  47.484  0.00  0.00    +0.000 HD
ATOM     31  H   UNL     1      40.511  34.288  46.150  0.00  0.00    +0.000 HD
ATOM     32  H   UNL     1      41.109  30.763  43.950  0.00  0.00    +0.000 HD
ENDBRANCH  21  24
ENDBRANCH  18  21
ENDBRANCH   1  18
TORSDOF 4
