
 OpenBabel03272509513D

 34 36  0  0  0  0  0  0  0  0999 V2000
   37.3020   30.1530   51.3740 C   0  0  0  0  0  0  0  0  0  0  0  0
   37.6860   30.9780   50.2930 C   0  0  0  0  0  0  0  0  0  0  0  0
   36.9820   30.8410   49.1090 C   0  0  0  0  0  0  0  0  0  0  0  0
   35.9590   29.9220   49.0490 N   0  0  0  0  0  0  0  0  0  0  0  0
   35.6300   29.1620   50.0980 C   0  0  0  0  0  0  0  0  0  0  0  0
   36.3020   29.2810   51.2540 N   0  0  0  0  0  0  0  0  0  0  0  0
   37.8080   30.2050   52.3300 H   0  0  0  0  0  0  0  0  0  0  0  0
   38.5020   31.6800   50.4130 H   0  0  0  0  0  0  0  0  0  0  0  0
   37.3660   31.6970   47.9590 C   0  0  0  0  0  3  0  0  0  0  0  0
   37.3030   30.9610   46.6710 C   0  0  0  0  0  3  0  0  0  0  0  0
   37.7560   29.9570   46.6920 H   0  0  0  0  0  0  0  0  0  0  0  0
   38.0710   31.7220   45.6090 C   0  0  0  0  0  3  0  0  0  0  0  0
   37.6930   32.7460   45.4370 H   0  0  0  0  0  0  0  0  0  0  0  0
   39.4150   31.7180   46.0330 O   0  0  0  0  0  0  0  0  0  0  0  0
   39.4940   32.6680   47.0450 C   0  0  0  0  0  3  0  0  0  0  0  0
   40.5600   32.7690   47.3350 H   0  0  0  0  0  0  0  0  0  0  0  0
   38.7230   32.2670   48.2730 C   0  0  0  0  0  3  0  0  0  0  0  0
   39.2940   31.5200   48.8640 H   0  0  0  0  0  0  0  0  0  0  0  0
   34.5840   28.3230   49.8050 O   0  0  0  0  0  0  0  0  0  0  0  0
   33.8900   28.4950   48.5790 C   0  0  0  0  0  0  0  0  0  0  0  0
   34.6370   28.6000   47.7670 H   0  0  0  0  0  0  0  0  0  0  0  0
   33.3480   29.4620   48.6080 H   0  0  0  0  0  0  0  0  0  0  0  0
   32.9260   27.3740   48.3600 C   0  0  0  0  0  0  0  0  0  0  0  0
   33.2540   26.8380   47.4270 H   0  0  0  0  0  0  0  0  0  0  0  0
   32.9710   26.6640   49.2100 H   0  0  0  0  0  0  0  0  0  0  0  0
   31.5180   27.8420   48.1790 C   0  0  0  0  0  0  0  0  0  0  0  0
   30.6710   27.6530   49.2460 C   0  0  0  0  0  0  0  0  0  0  0  0
   29.3530   28.0410   49.2000 C   0  0  0  0  0  0  0  0  0  0  0  0
   28.8810   28.6170   48.0870 N   0  0  0  0  0  0  0  0  0  0  0  0
   29.7220   28.7940   47.0520 C   0  0  0  0  0  0  0  0  0  0  0  0
   31.0130   28.4250   47.0710 N   0  0  0  0  0  0  0  0  0  0  0  0
   30.9910   27.1900   50.1840 H   0  0  0  0  0  0  0  0  0  0  0  0
   28.6500   27.9110   50.0220 H   0  0  0  0  0  0  0  0  0  0  0  0
   29.3950   29.2610   46.1120 H   0  0  0  0  0  0  0  0  0  0  0  0
  1  7  1  0  0  0  0
  2  8  1  0  0  0  0
  2  1  2  0  0  0  0
  3  2  1  0  0  0  0
  4  3  2  0  0  0  0
  4  5  1  0  0  0  0
  5  6  2  0  0  0  0
  6  1  1  0  0  0  0
  9 17  1  0  0  0  0
  9  3  1  0  0  0  0
 10 11  1  0  0  0  0
 10  9  1  0  0  0  0
 12 14  1  0  0  0  0
 12 10  1  0  0  0  0
 13 12  1  0  0  0  0
 14 15  1  0  0  0  0
 15 16  1  0  0  0  0
 15 17  1  0  0  0  0
 17 18  1  0  0  0  0
 19  5  1  0  0  0  0
 20 22  1  0  0  0  0
 20 19  1  0  0  0  0
 21 20  1  0  0  0  0
 23 20  1  0  0  0  0
 23 25  1  0  0  0  0
 24 23  1  0  0  0  0
 26 23  1  0  0  0  0
 26 27  1  0  0  0  0
 27 32  1  0  0  0  0
 28 27  2  0  0  0  0
 28 33  1  0  0  0  0
 29 28  1  0  0  0  0
 30 31  1  0  0  0  0
 30 29  2  0  0  0  0
 31 26  2  0  0  0  0
 34 30  1  0  0  0  0
M  END
>  <minimizedAffinity>
-5.58843803

>  <minimizedRMSD>
1.19354379

$$$$
