
 OpenBabel03272509403D

 36 38  0  0  1  0  0  0  0  0999 V2000
   37.0130   30.9420   49.0730 C   0  0  0  0  0  0  0  0  0  0  0  0
   36.7310   31.8570   50.0910 C   0  0  0  0  0  0  0  0  0  0  0  0
   37.3260   33.1010   50.1520 C   0  0  0  0  0  0  0  0  0  0  0  0
   38.2450   33.4810   49.1730 C   0  0  0  0  0  0  0  0  0  0  0  0
   38.5130   32.5750   48.1810 C   0  0  0  0  0  0  0  0  0  0  0  0
   37.9110   31.3380   48.1350 C   0  0  0  0  0  0  0  0  0  0  0  0
   36.0120   31.5710   50.8640 H   0  0  0  0  0  0  0  0  0  0  0  0
   37.0590   33.7580   50.9690 H   0  0  0  0  0  0  0  0  0  0  0  0
   38.6970   34.4500   49.2350 H   0  0  0  0  0  0  0  0  0  0  0  0
   39.2340   32.9320   47.4540 H   0  0  0  0  0  0  0  0  0  0  0  0
   36.3370   29.6610   49.0970 C   0  0  1  0  0  3  0  0  0  0  0  0
   36.8790   28.7860   49.8760 O   0  0  0  0  0  1  0  0  0  0  0  0
   33.5900   30.1480   46.7830 C   0  0  0  0  0  0  0  0  0  0  0  0
   32.9130   28.9360   46.8020 C   0  0  0  0  0  0  0  0  0  0  0  0
   33.4010   27.9280   47.6200 C   0  0  0  0  0  0  0  0  0  0  0  0
   34.5110   28.1560   48.3680 N   0  0  0  0  0  0  0  0  0  0  0  0
   35.1360   29.3270   48.3280 C   0  0  0  0  0  0  0  0  0  0  0  0
   34.6720   30.3090   47.5380 N   0  0  0  0  0  0  0  0  0  0  0  0
   33.2210   30.9350   46.1530 H   0  0  0  0  0  0  0  0  0  0  0  0
   32.0340   28.7980   46.1890 H   0  0  0  0  0  0  0  0  0  0  0  0
   32.9040   26.9740   47.6620 H   0  0  0  0  0  0  0  0  0  0  0  0
   38.2950   30.4890   47.0250 C   0  0  0  0  0  3  0  0  0  0  0  0
   39.0330   30.8550   45.9900 C   0  0  0  0  0  3  0  0  0  0  0  0
   39.4940   30.1200   44.8160 C   0  0  0  0  0  0  0  0  0  0  0  0
   38.7210   29.3720   44.4920 H   0  0  0  0  0  0  0  0  0  0  0  0
   40.3800   29.5120   45.0780 H   0  0  0  0  0  0  0  0  0  0  0  0
   39.8080   30.9610   43.6240 C   0  0  0  0  0  3  0  0  0  0  0  0
   38.9490   32.2230   43.6650 C   0  0  0  0  0  3  0  0  0  0  0  0
   37.8730   31.9750   43.5650 H   0  0  0  0  0  0  0  0  0  0  0  0
   39.3080   33.1550   42.5290 C   0  0  0  0  0  3  0  0  0  0  0  0
   40.3120   33.5720   42.5990 H   0  0  0  0  0  0  0  0  0  0  0  0
   39.0650   32.4440   41.3410 O   0  0  0  0  0  0  0  0  0  0  0  0
   39.9330   31.3530   41.2550 C   0  0  0  0  0  3  0  0  0  0  0  0
   39.9870   30.9500   40.2470 H   0  0  0  0  0  0  0  0  0  0  0  0
   39.5920   30.2930   42.3130 C   0  0  0  0  0  3  0  0  0  0  0  0
   38.5600   29.9600   42.1360 H   0  0  0  0  0  0  0  0  0  0  0  0
  1 11  1  0  0  0  0
  1  2  1  0  0  0  0
  2  3  2  0  0  0  0
  2  7  1  0  0  0  0
  3  8  1  0  0  0  0
  4  9  1  0  0  0  0
  4  3  1  0  0  0  0
  5  4  2  0  0  0  0
  6  5  1  0  0  0  0
  6  1  2  0  0  0  0
 10  5  1  0  0  0  0
 11 12  1  1  0  0  0
 13 14  2  0  0  0  0
 13 18  1  0  0  0  0
 14 15  1  0  0  0  0
 15 21  1  0  0  0  0
 15 16  2  0  0  0  0
 17 16  1  0  0  0  0
 17 11  1  0  0  0  0
 18 17  2  0  0  0  0
 19 13  1  0  0  0  0
 20 14  1  0  0  0  0
 22  6  1  0  0  0  0
 23 22  2  0  0  0  0
 24 26  1  0  0  0  0
 24 23  1  0  0  0  0
 25 24  1  0  0  0  0
 27 28  1  0  0  0  0
 27 24  1  0  0  0  0
 29 28  1  0  0  0  0
 30 31  1  0  0  0  0
 30 28  1  0  0  0  0
 32 30  1  0  0  0  0
 33 32  1  0  0  0  0
 33 35  1  0  0  0  0
 34 33  1  0  0  0  0
 35 27  1  0  0  0  0
 36 35  1  0  0  0  0
M  END
>  <minimizedAffinity>
-5.95895815

>  <minimizedRMSD>
1.56788278

$$$$
