
 OpenBabel03272507353D

 37 40  0  0  1  0  0  0  0  0999 V2000
   39.5120   26.8430   33.9080 C   0  0  0  0  0  0  0  0  0  0  0  0
   40.7060   26.7790   33.4770 O   0  0  0  0  0  0  0  0  0  0  0  0
   36.8760   25.7580   31.7510 C   0  0  0  0  0  0  0  0  0  0  0  0
   36.8470   27.1000   31.4540 C   0  0  0  0  0  0  0  0  0  0  0  0
   37.8420   27.7240   32.2270 C   0  0  0  0  0  0  0  0  0  0  0  0
   38.4140   26.7010   32.9500 C   0  0  0  0  0  0  0  0  0  0  0  0
   37.8200   25.5690   32.6420 O   0  0  0  0  0  0  0  0  0  0  0  0
   36.2380   27.6880   30.7850 H   0  0  0  0  0  0  0  0  0  0  0  0
   38.1470   28.7700   32.2920 H   0  0  0  0  0  0  0  0  0  0  0  0
   35.9710   24.8040   31.1250 C   0  0  0  0  0  0  0  0  0  0  0  0
   34.9220   25.2140   30.6090 O   0  0  0  0  0  0  0  0  0  0  0  0
   36.3670   23.4240   31.1500 C   0  0  0  0  0  0  0  0  0  0  0  0
   35.4750   22.5140   31.7020 C   0  0  0  0  0  0  0  0  0  0  0  0
   35.8340   21.1620   31.7440 C   0  0  0  0  0  0  0  0  0  0  0  0
   37.0570   20.8130   31.2330 N   0  0  0  0  0  0  0  0  0  0  0  0
   37.8940   21.7060   30.7090 C   0  0  0  0  0  0  0  0  0  0  0  0
   37.5610   23.0090   30.6620 N   0  0  0  0  0  0  0  0  0  0  0  0
   34.5120   22.8360   32.0960 H   0  0  0  0  0  0  0  0  0  0  0  0
   35.1330   20.4840   32.1720 H   0  0  0  0  0  0  0  0  0  0  0  0
   38.8500   21.3850   30.3160 H   0  0  0  0  0  0  0  0  0  0  0  0
   39.2470   27.0500   35.3600 C   0  0  1  0  0  0  0  0  0  0  0  0
   37.6960   26.9940   35.6500 C   0  0  0  0  0  0  0  0  0  0  0  0
   38.6670   26.0460   36.2230 C   0  0  1  0  0  0  0  0  0  0  0  0
   39.6150   28.0340   35.7230 H   0  0  0  0  0  0  0  0  0  0  0  0
   37.2810   27.7810   36.2950 H   0  0  0  0  0  0  0  0  0  0  0  0
   37.0510   26.7090   34.8100 H   0  0  0  0  0  0  0  0  0  0  0  0
   38.8870   26.2040   37.3280 H   0  0  0  0  0  0  0  0  0  0  0  0
   38.4480   24.6200   35.9230 C   0  0  0  0  0  3  0  0  0  0  0  0
   39.7140   23.7760   36.0350 C   0  0  0  0  0  3  0  0  0  0  0  0
   39.8750   23.1410   35.1520 H   0  0  0  0  0  0  0  0  0  0  0  0
   39.5570   22.8250   37.2290 C   0  0  0  0  0  3  0  0  0  0  0  0
   40.4810   22.2410   37.3460 H   0  0  0  0  0  0  0  0  0  0  0  0
   39.3070   23.5980   38.3600 O   0  0  0  0  0  0  0  0  0  0  0  0
   37.9780   24.0200   38.3170 C   0  0  0  0  0  3  0  0  0  0  0  0
   37.8330   25.0140   38.7800 H   0  0  0  0  0  0  0  0  0  0  0  0
   37.4450   24.0500   36.9050 C   0  0  0  0  0  3  0  0  0  0  0  0
   37.0190   23.0830   36.5940 H   0  0  0  0  0  0  0  0  0  0  0  0
  1 21  1  0  0  0  0
  2  1  2  0  0  0  0
  3  7  1  0  0  0  0
  4  3  2  0  0  0  0
  4  5  1  0  0  0  0
  5  9  1  0  0  0  0
  5  6  2  0  0  0  0
  6  1  1  0  0  0  0
  7  6  1  0  0  0  0
  8  4  1  0  0  0  0
 10 12  1  0  0  0  0
 10  3  1  0  0  0  0
 11 10  2  0  0  0  0
 12 13  1  0  0  0  0
 13 14  2  0  0  0  0
 13 18  1  0  0  0  0
 14 19  1  0  0  0  0
 15 14  1  0  0  0  0
 16 15  2  0  0  0  0
 17 16  1  0  0  0  0
 17 12  2  0  0  0  0
 20 16  1  0  0  0  0
 21 22  1  0  0  0  0
 21 24  1  1  0  0  0
 21 23  1  0  0  0  0
 22 23  1  0  0  0  0
 22 25  1  0  0  0  0
 23 27  1  1  0  0  0
 26 22  1  0  0  0  0
 28 29  1  0  0  0  0
 28 23  1  0  0  0  0
 28 36  1  0  0  0  0
 29 31  1  0  0  0  0
 30 29  1  0  0  0  0
 31 32  1  0  0  0  0
 31 33  1  0  0  0  0
 34 33  1  0  0  0  0
 34 35  1  0  0  0  0
 36 34  1  0  0  0  0
 37 36  1  0  0  0  0
M  END
>  <minimizedAffinity>
-5.71219778

$$$$

 OpenBabel03272507353D

 37 40  0  0  1  0  0  0  0  0999 V2000
   37.0940   26.7270   32.8550 C   0  0  0  0  0  0  0  0  0  0  0  0
   36.5290   25.7920   32.2070 O   0  0  0  0  0  0  0  0  0  0  0  0
   38.1200   25.3190   35.9770 C   0  0  0  0  0  0  0  0  0  0  0  0
   38.3960   26.6390   36.2440 C   0  0  0  0  0  0  0  0  0  0  0  0
   38.0510   27.3810   35.1010 C   0  0  0  0  0  0  0  0  0  0  0  0
   37.5830   26.4460   34.2070 C   0  0  0  0  0  0  0  0  0  0  0  0
   37.6400   25.2530   34.7570 O   0  0  0  0  0  0  0  0  0  0  0  0
   38.7960   27.1410   37.1120 H   0  0  0  0  0  0  0  0  0  0  0  0
   38.1140   28.4520   34.8980 H   0  0  0  0  0  0  0  0  0  0  0  0
   38.3570   24.2630   36.9500 C   0  0  0  0  0  0  0  0  0  0  0  0
   37.6480   24.2060   37.9660 O   0  0  0  0  0  0  0  0  0  0  0  0
   39.4190   23.3410   36.6610 C   0  0  0  0  0  0  0  0  0  0  0  0
   40.0390   22.7220   37.7380 C   0  0  0  0  0  0  0  0  0  0  0  0
   41.0800   21.8220   37.4880 C   0  0  0  0  0  0  0  0  0  0  0  0
   41.4300   21.6020   36.1810 N   0  0  0  0  0  0  0  0  0  0  0  0
   40.8190   22.2080   35.1650 C   0  0  0  0  0  0  0  0  0  0  0  0
   39.8160   23.0770   35.3920 N   0  0  0  0  0  0  0  0  0  0  0  0
   39.7280   22.9270   38.7620 H   0  0  0  0  0  0  0  0  0  0  0  0
   41.5410   21.3610   38.3310 H   0  0  0  0  0  0  0  0  0  0  0  0
   41.1270   22.0040   34.1490 H   0  0  0  0  0  0  0  0  0  0  0  0
   37.2570   28.0760   32.2410 C   0  0  1  0  0  0  0  0  0  0  0  0
   36.1200   28.3370   31.1760 C   0  0  0  0  0  0  0  0  0  0  0  0
   36.3000   29.1490   32.3920 C   0  0  1  0  0  0  0  0  0  0  0  0
   38.2310   28.1900   31.7190 H   0  0  0  0  0  0  0  0  0  0  0  0
   36.4320   28.7560   30.2100 H   0  0  0  0  0  0  0  0  0  0  0  0
   35.3290   27.5800   31.1090 H   0  0  0  0  0  0  0  0  0  0  0  0
   36.7350   30.1840   32.2090 H   0  0  0  0  0  0  0  0  0  0  0  0
   35.1540   29.2090   33.3160 C   0  0  0  0  0  3  0  0  0  0  0  0
   35.4450   29.9940   34.5910 C   0  0  0  0  0  3  0  0  0  0  0  0
   35.1580   29.4440   35.4990 H   0  0  0  0  0  0  0  0  0  0  0  0
   34.5980   31.2740   34.5750 C   0  0  0  0  0  3  0  0  0  0  0  0
   34.8310   31.8700   35.4690 H   0  0  0  0  0  0  0  0  0  0  0  0
   34.9070   31.9750   33.4120 O   0  0  0  0  0  0  0  0  0  0  0  0
   34.2700   31.3490   32.3410 C   0  0  0  0  0  3  0  0  0  0  0  0
   34.8460   31.4290   31.3990 H   0  0  0  0  0  0  0  0  0  0  0  0
   33.9910   29.8940   32.6280 C   0  0  0  0  0  3  0  0  0  0  0  0
   33.0240   29.7410   33.1320 H   0  0  0  0  0  0  0  0  0  0  0  0
  1  6  1  0  0  0  0
  2  1  2  0  0  0  0
  3  4  2  0  0  0  0
  3 10  1  0  0  0  0
  4  8  1  0  0  0  0
  5  4  1  0  0  0  0
  6  7  1  0  0  0  0
  6  5  2  0  0  0  0
  7  3  1  0  0  0  0
  9  5  1  0  0  0  0
 10 11  2  0  0  0  0
 12 10  1  0  0  0  0
 12 13  1  0  0  0  0
 13 18  1  0  0  0  0
 14 13  2  0  0  0  0
 14 19  1  0  0  0  0
 15 14  1  0  0  0  0
 16 17  1  0  0  0  0
 16 15  2  0  0  0  0
 17 12  2  0  0  0  0
 20 16  1  0  0  0  0
 21 24  1  6  0  0  0
 21 23  1  0  0  0  0
 21  1  1  0  0  0  0
 22 21  1  0  0  0  0
 22 23  1  0  0  0  0
 23 27  1  6  0  0  0
 23 28  1  0  0  0  0
 25 22  1  0  0  0  0
 26 22  1  0  0  0  0
 28 29  1  0  0  0  0
 29 30  1  0  0  0  0
 31 29  1  0  0  0  0
 31 32  1  0  0  0  0
 33 31  1  0  0  0  0
 34 36  1  0  0  0  0
 34 33  1  0  0  0  0
 35 34  1  0  0  0  0
 36 37  1  0  0  0  0
 36 28  1  0  0  0  0
M  END
>  <minimizedAffinity>
-5.54033661

$$$$

 OpenBabel03272507353D

 37 40  0  0  1  0  0  0  0  0999 V2000
   38.3650   26.1640   33.5840 C   0  0  0  0  0  0  0  0  0  0  0  0
   38.4630   25.1100   32.8820 O   0  0  0  0  0  0  0  0  0  0  0  0
   35.8430   28.6460   33.0790 C   0  0  0  0  0  0  0  0  0  0  0  0
   36.5680   28.8510   31.9300 C   0  0  0  0  0  0  0  0  0  0  0  0
   37.6410   27.9430   31.9410 C   0  0  0  0  0  0  0  0  0  0  0  0
   37.4890   27.2390   33.1140 C   0  0  0  0  0  0  0  0  0  0  0  0
   36.4260   27.6810   33.7500 O   0  0  0  0  0  0  0  0  0  0  0  0
   36.4510   29.5360   31.1030 H   0  0  0  0  0  0  0  0  0  0  0  0
   38.4460   27.7770   31.2220 H   0  0  0  0  0  0  0  0  0  0  0  0
   34.6520   29.4210   33.3950 C   0  0  0  0  0  0  0  0  0  0  0  0
   33.6520   29.3170   32.6700 O   0  0  0  0  0  0  0  0  0  0  0  0
   34.7190   30.2720   34.5500 C   0  0  0  0  0  0  0  0  0  0  0  0
   33.5390   30.5040   35.2430 C   0  0  0  0  0  0  0  0  0  0  0  0
   33.5720   31.3320   36.3700 C   0  0  0  0  0  0  0  0  0  0  0  0
   34.7800   31.8720   36.7270 N   0  0  0  0  0  0  0  0  0  0  0  0
   35.8990   31.6330   36.0450 C   0  0  0  0  0  0  0  0  0  0  0  0
   35.8810   30.8390   34.9590 N   0  0  0  0  0  0  0  0  0  0  0  0
   32.6000   30.0540   34.9230 H   0  0  0  0  0  0  0  0  0  0  0  0
   32.6530   31.4940   36.8840 H   0  0  0  0  0  0  0  0  0  0  0  0
   36.8310   32.0800   36.3630 H   0  0  0  0  0  0  0  0  0  0  0  0
   39.1230   26.2900   34.8620 C   0  0  1  0  0  0  0  0  0  0  0  0
   38.1390   26.2280   36.0950 C   0  0  0  0  0  0  0  0  0  0  0  0
   39.2070   25.2430   35.8540 C   0  0  1  0  0  0  0  0  0  0  0  0
   39.6800   27.2490   34.9320 H   0  0  0  0  0  0  0  0  0  0  0  0
   38.2810   26.9800   36.8830 H   0  0  0  0  0  0  0  0  0  0  0  0
   37.0900   25.9970   35.8730 H   0  0  0  0  0  0  0  0  0  0  0  0
   40.1020   25.3360   36.5500 H   0  0  0  0  0  0  0  0  0  0  0  0
   38.7840   23.8380   35.7160 C   0  0  0  0  0  3  0  0  0  0  0  0
   39.9490   22.8680   35.5470 C   0  0  0  0  0  3  0  0  0  0  0  0
   39.8080   22.1870   34.6960 H   0  0  0  0  0  0  0  0  0  0  0  0
   40.0320   21.9870   36.7990 C   0  0  0  0  0  3  0  0  0  0  0  0
   40.8960   21.3120   36.7070 H   0  0  0  0  0  0  0  0  0  0  0  0
   40.1680   22.8250   37.9030 O   0  0  0  0  0  0  0  0  0  0  0  0
   38.9210   23.3840   38.1840 C   0  0  0  0  0  3  0  0  0  0  0  0
   38.9990   24.4060   38.6030 H   0  0  0  0  0  0  0  0  0  0  0  0
   38.0340   23.4160   36.9640 C   0  0  0  0  0  3  0  0  0  0  0  0
   37.4520   22.4890   36.8400 H   0  0  0  0  0  0  0  0  0  0  0  0
  1 21  1  0  0  0  0
  2  1  2  0  0  0  0
  3 10  1  0  0  0  0
  3  7  1  0  0  0  0
  4  5  1  0  0  0  0
  4  3  2  0  0  0  0
  5  6  2  0  0  0  0
  6  1  1  0  0  0  0
  6  7  1  0  0  0  0
  8  4  1  0  0  0  0
  9  5  1  0  0  0  0
 10 12  1  0  0  0  0
 11 10  2  0  0  0  0
 12 17  2  0  0  0  0
 12 13  1  0  0  0  0
 13 14  2  0  0  0  0
 14 15  1  0  0  0  0
 14 19  1  0  0  0  0
 16 20  1  0  0  0  0
 16 15  2  0  0  0  0
 17 16  1  0  0  0  0
 18 13  1  0  0  0  0
 21 24  1  1  0  0  0
 21 23  1  0  0  0  0
 21 22  1  0  0  0  0
 22 25  1  0  0  0  0
 23 22  1  0  0  0  0
 23 27  1  1  0  0  0
 26 22  1  0  0  0  0
 28 23  1  0  0  0  0
 28 36  1  0  0  0  0
 29 28  1  0  0  0  0
 29 31  1  0  0  0  0
 30 29  1  0  0  0  0
 31 33  1  0  0  0  0
 32 31  1  0  0  0  0
 33 34  1  0  0  0  0
 34 35  1  0  0  0  0
 36 34  1  0  0  0  0
 37 36  1  0  0  0  0
M  END
>  <minimizedAffinity>
-5.48765135

$$$$

 OpenBabel03272507353D

 37 40  0  0  1  0  0  0  0  0999 V2000
   35.9950   24.8380   31.3980 C   0  0  0  0  0  0  0  0  0  0  0  0
   34.7470   24.9990   31.2220 O   0  0  0  0  0  0  0  0  0  0  0  0
   37.7210   26.3590   34.1340 C   0  0  0  0  0  0  0  0  0  0  0  0
   37.6230   27.4580   33.3140 C   0  0  0  0  0  0  0  0  0  0  0  0
   36.9540   27.0530   32.1450 C   0  0  0  0  0  0  0  0  0  0  0  0
   36.6890   25.7170   32.3410 C   0  0  0  0  0  0  0  0  0  0  0  0
   37.1530   25.3510   33.5150 O   0  0  0  0  0  0  0  0  0  0  0  0
   37.9490   28.4820   33.4210 H   0  0  0  0  0  0  0  0  0  0  0  0
   36.6760   27.6130   31.2500 H   0  0  0  0  0  0  0  0  0  0  0  0
   38.3610   26.4190   35.4400 C   0  0  0  0  0  0  0  0  0  0  0  0
   38.5950   27.5240   35.9490 O   0  0  0  0  0  0  0  0  0  0  0  0
   38.6850   25.1640   36.0610 C   0  0  0  0  0  0  0  0  0  0  0  0
   39.7830   24.4720   35.5670 C   0  0  0  0  0  0  0  0  0  0  0  0
   40.1210   23.2450   36.1490 C   0  0  0  0  0  0  0  0  0  0  0  0
   39.3390   22.7950   37.1820 N   0  0  0  0  0  0  0  0  0  0  0  0
   38.2920   23.4790   37.6360 C   0  0  0  0  0  0  0  0  0  0  0  0
   37.9560   24.6600   37.0860 N   0  0  0  0  0  0  0  0  0  0  0  0
   40.3760   24.8680   34.7440 H   0  0  0  0  0  0  0  0  0  0  0  0
   40.9670   22.7330   35.7520 H   0  0  0  0  0  0  0  0  0  0  0  0
   37.7030   23.0860   38.4550 H   0  0  0  0  0  0  0  0  0  0  0  0
   36.7260   23.7670   30.6610 C   0  0  1  0  0  0  0  0  0  0  0  0
   38.0030   23.3140   31.4720 C   0  0  0  0  0  0  0  0  0  0  0  0
   36.8810   22.4160   31.1500 C   0  0  1  0  0  0  0  0  0  0  0  0
   37.0730   24.1020   29.6600 H   0  0  0  0  0  0  0  0  0  0  0  0
   38.9400   23.2130   30.9090 H   0  0  0  0  0  0  0  0  0  0  0  0
   38.1210   23.7390   32.4760 H   0  0  0  0  0  0  0  0  0  0  0  0
   37.1050   21.6530   30.3360 H   0  0  0  0  0  0  0  0  0  0  0  0
   36.1930   21.7890   32.2920 C   0  0  0  0  0  3  0  0  0  0  0  0
   34.8330   21.2010   31.9320 C   0  0  0  0  0  3  0  0  0  0  0  0
   34.0400   21.5200   32.6230 H   0  0  0  0  0  0  0  0  0  0  0  0
   34.9200   19.6730   32.0490 C   0  0  0  0  0  3  0  0  0  0  0  0
   33.9560   19.2350   31.7500 H   0  0  0  0  0  0  0  0  0  0  0  0
   35.9470   19.2390   31.2150 O   0  0  0  0  0  0  0  0  0  0  0  0
   37.1640   19.5160   31.8380 C   0  0  0  0  0  3  0  0  0  0  0  0
   37.9680   19.7490   31.1150 H   0  0  0  0  0  0  0  0  0  0  0  0
   37.0420   20.6520   32.8250 C   0  0  0  0  0  3  0  0  0  0  0  0
   36.7460   20.3100   33.8290 H   0  0  0  0  0  0  0  0  0  0  0  0
  1  6  1  0  0  0  0
  2  1  2  0  0  0  0
  3 10  1  0  0  0  0
  4  8  1  0  0  0  0
  4  3  2  0  0  0  0
  5  6  2  0  0  0  0
  5  4  1  0  0  0  0
  6  7  1  0  0  0  0
  7  3  1  0  0  0  0
  9  5  1  0  0  0  0
 10 11  2  0  0  0  0
 10 12  1  0  0  0  0
 12 17  1  0  0  0  0
 13 12  2  0  0  0  0
 13 14  1  0  0  0  0
 14 15  2  0  0  0  0
 15 16  1  0  0  0  0
 16 20  1  0  0  0  0
 17 16  2  0  0  0  0
 18 13  1  0  0  0  0
 19 14  1  0  0  0  0
 21 24  1  6  0  0  0
 21 23  1  0  0  0  0
 21  1  1  0  0  0  0
 21 22  1  0  0  0  0
 22 26  1  0  0  0  0
 23 27  1  6  0  0  0
 23 22  1  0  0  0  0
 23 28  1  0  0  0  0
 25 22  1  0  0  0  0
 28 36  1  0  0  0  0
 29 31  1  0  0  0  0
 29 28  1  0  0  0  0
 29 30  1  0  0  0  0
 32 31  1  0  0  0  0
 33 34  1  0  0  0  0
 33 31  1  0  0  0  0
 34 36  1  0  0  0  0
 35 34  1  0  0  0  0
 36 37  1  0  0  0  0
M  END
>  <minimizedAffinity>
-5.44987965

$$$$

 OpenBabel03272507353D

 37 40  0  0  1  0  0  0  0  0999 V2000
   42.6910   25.8190   33.7290 C   0  0  0  0  0  0  0  0  0  0  0  0
   43.3470   25.5410   32.6770 O   0  0  0  0  0  0  0  0  0  0  0  0
   42.0240   23.3400   36.2170 C   0  0  0  0  0  0  0  0  0  0  0  0
   43.3140   23.6530   36.5770 C   0  0  0  0  0  0  0  0  0  0  0  0
   43.7710   24.6420   35.6880 C   0  0  0  0  0  0  0  0  0  0  0  0
   42.7100   24.8630   34.8390 C   0  0  0  0  0  0  0  0  0  0  0  0
   41.7100   24.0820   35.1820 O   0  0  0  0  0  0  0  0  0  0  0  0
   43.9630   23.2910   37.3600 H   0  0  0  0  0  0  0  0  0  0  0  0
   44.7300   25.1590   35.6250 H   0  0  0  0  0  0  0  0  0  0  0  0
   41.2390   22.3440   36.9310 C   0  0  0  0  0  0  0  0  0  0  0  0
   41.8160   21.3840   37.4620 O   0  0  0  0  0  0  0  0  0  0  0  0
   39.8170   22.5460   36.9720 C   0  0  0  0  0  0  0  0  0  0  0  0
   39.2930   23.1670   38.0970 C   0  0  0  0  0  0  0  0  0  0  0  0
   37.9110   23.3740   38.1680 C   0  0  0  0  0  0  0  0  0  0  0  0
   37.1490   22.9470   37.1110 N   0  0  0  0  0  0  0  0  0  0  0  0
   37.6780   22.3550   36.0430 C   0  0  0  0  0  0  0  0  0  0  0  0
   39.0050   22.1490   35.9620 N   0  0  0  0  0  0  0  0  0  0  0  0
   39.9360   23.4900   38.9150 H   0  0  0  0  0  0  0  0  0  0  0  0
   37.5330   23.8520   39.0420 H   0  0  0  0  0  0  0  0  0  0  0  0
   37.0390   22.0340   35.2300 H   0  0  0  0  0  0  0  0  0  0  0  0
   41.9280   27.0960   33.8250 C   0  0  1  0  0  0  0  0  0  0  0  0
   41.1080   27.3480   32.4990 C   0  0  0  0  0  0  0  0  0  0  0  0
   40.4850   27.1730   33.8230 C   0  0  1  0  0  0  0  0  0  0  0  0
   42.5900   27.9750   33.9750 H   0  0  0  0  0  0  0  0  0  0  0  0
   41.1580   28.3570   32.0670 H   0  0  0  0  0  0  0  0  0  0  0  0
   41.1110   26.5380   31.7600 H   0  0  0  0  0  0  0  0  0  0  0  0
   40.0720   28.1290   34.2810 H   0  0  0  0  0  0  0  0  0  0  0  0
   39.5250   26.0630   33.9540 C   0  0  0  0  0  3  0  0  0  0  0  0
   38.9250   25.9430   35.3510 C   0  0  0  0  0  3  0  0  0  0  0  0
   38.9810   24.9190   35.7470 H   0  0  0  0  0  0  0  0  0  0  0  0
   37.4330   26.2940   35.2690 C   0  0  0  0  0  3  0  0  0  0  0  0
   36.9990   26.2530   36.2790 H   0  0  0  0  0  0  0  0  0  0  0  0
   37.3250   27.5730   34.7300 O   0  0  0  0  0  0  0  0  0  0  0  0
   37.5440   27.4890   33.3550 C   0  0  0  0  0  3  0  0  0  0  0  0
   38.0280   28.3950   32.9460 H   0  0  0  0  0  0  0  0  0  0  0  0
   38.3730   26.2800   32.9930 C   0  0  0  0  0  3  0  0  0  0  0  0
   37.7590   25.3810   32.8260 H   0  0  0  0  0  0  0  0  0  0  0  0
  1 21  1  0  0  0  0
  1  6  1  0  0  0  0
  2  1  2  0  0  0  0
  3  4  2  0  0  0  0
  3 10  1  0  0  0  0
  4  8  1  0  0  0  0
  5  4  1  0  0  0  0
  6  7  1  0  0  0  0
  6  5  2  0  0  0  0
  7  3  1  0  0  0  0
  9  5  1  0  0  0  0
 10 12  1  0  0  0  0
 10 11  2  0  0  0  0
 12 13  1  0  0  0  0
 13 14  2  0  0  0  0
 13 18  1  0  0  0  0
 14 19  1  0  0  0  0
 15 14  1  0  0  0  0
 16 15  2  0  0  0  0
 17 16  1  0  0  0  0
 17 12  2  0  0  0  0
 20 16  1  0  0  0  0
 21 24  1  1  0  0  0
 22 23  1  0  0  0  0
 22 21  1  0  0  0  0
 23 21  1  0  0  0  0
 23 28  1  0  0  0  0
 23 27  1  1  0  0  0
 25 22  1  0  0  0  0
 26 22  1  0  0  0  0
 28 29  1  0  0  0  0
 29 30  1  0  0  0  0
 31 29  1  0  0  0  0
 31 32  1  0  0  0  0
 33 31  1  0  0  0  0
 34 33  1  0  0  0  0
 35 34  1  0  0  0  0
 36 34  1  0  0  0  0
 36 28  1  0  0  0  0
 37 36  1  0  0  0  0
M  END
>  <minimizedAffinity>
-5.44227076

$$$$

 OpenBabel03272507353D

 37 40  0  0  1  0  0  0  0  0999 V2000
   38.1020   24.3130   36.1090 C   0  0  0  0  0  0  0  0  0  0  0  0
   37.7660   23.9430   37.2770 O   0  0  0  0  0  0  0  0  0  0  0  0
   37.0300   27.4190   34.7000 C   0  0  0  0  0  0  0  0  0  0  0  0
   37.9860   27.9010   35.5620 C   0  0  0  0  0  0  0  0  0  0  0  0
   38.5420   26.7980   36.2340 C   0  0  0  0  0  0  0  0  0  0  0  0
   37.8750   25.7080   35.7250 C   0  0  0  0  0  0  0  0  0  0  0  0
   37.0000   26.1140   34.8320 O   0  0  0  0  0  0  0  0  0  0  0  0
   38.3390   28.8980   35.7800 H   0  0  0  0  0  0  0  0  0  0  0  0
   39.3230   26.7440   36.9950 H   0  0  0  0  0  0  0  0  0  0  0  0
   36.2490   28.2940   33.8390 C   0  0  0  0  0  0  0  0  0  0  0  0
   35.3190   28.9520   34.3270 O   0  0  0  0  0  0  0  0  0  0  0  0
   36.6180   28.3350   32.4510 C   0  0  0  0  0  0  0  0  0  0  0  0
   36.1920   29.4280   31.7090 C   0  0  0  0  0  0  0  0  0  0  0  0
   36.5320   29.4950   30.3540 C   0  0  0  0  0  0  0  0  0  0  0  0
   37.2730   28.4650   29.8330 N   0  0  0  0  0  0  0  0  0  0  0  0
   37.6690   27.4280   30.5670 C   0  0  0  0  0  0  0  0  0  0  0  0
   37.3490   27.3510   31.8720 N   0  0  0  0  0  0  0  0  0  0  0  0
   35.6040   30.2240   32.1640 H   0  0  0  0  0  0  0  0  0  0  0  0
   36.1930   30.3430   29.8060 H   0  0  0  0  0  0  0  0  0  0  0  0
   38.2540   26.6370   30.1150 H   0  0  0  0  0  0  0  0  0  0  0  0
   38.7190   23.3420   35.1610 C   0  0  1  0  0  0  0  0  0  0  0  0
   39.9290   24.0120   34.3980 C   0  0  0  0  0  0  0  0  0  0  0  0
   40.0710   22.8450   35.2860 C   0  0  1  0  0  0  0  0  0  0  0  0
   38.0020   22.9850   34.3920 H   0  0  0  0  0  0  0  0  0  0  0  0
   39.9780   23.8590   33.3110 H   0  0  0  0  0  0  0  0  0  0  0  0
   40.2200   25.0160   34.7280 H   0  0  0  0  0  0  0  0  0  0  0  0
   40.2520   21.8590   34.7460 H   0  0  0  0  0  0  0  0  0  0  0  0
   40.9830   22.9990   36.4320 C   0  0  0  0  0  3  0  0  0  0  0  0
   40.8870   21.8600   37.4420 C   0  0  0  0  0  3  0  0  0  0  0  0
   40.7720   22.2210   38.4740 H   0  0  0  0  0  0  0  0  0  0  0  0
   42.2000   21.0670   37.4030 C   0  0  0  0  0  3  0  0  0  0  0  0
   42.1250   20.2160   38.0970 H   0  0  0  0  0  0  0  0  0  0  0  0
   42.3960   20.6300   36.0960 O   0  0  0  0  0  0  0  0  0  0  0  0
   42.8420   21.7110   35.3350 C   0  0  0  0  0  3  0  0  0  0  0  0
   42.4990   21.6620   34.2850 H   0  0  0  0  0  0  0  0  0  0  0  0
   42.4140   23.0300   35.9330 C   0  0  0  0  0  3  0  0  0  0  0  0
   43.1340   23.4120   36.6730 H   0  0  0  0  0  0  0  0  0  0  0  0
  1  2  2  0  0  0  0
  3  7  1  0  0  0  0
  3  4  2  0  0  0  0
  4  8  1  0  0  0  0
  4  5  1  0  0  0  0
  5  9  1  0  0  0  0
  6  1  1  0  0  0  0
  6  5  2  0  0  0  0
  7  6  1  0  0  0  0
 10 11  2  0  0  0  0
 10  3  1  0  0  0  0
 12 10  1  0  0  0  0
 13 18  1  0  0  0  0
 13 12  2  0  0  0  0
 14 13  1  0  0  0  0
 15 14  2  0  0  0  0
 15 16  1  0  0  0  0
 16 17  2  0  0  0  0
 17 12  1  0  0  0  0
 19 14  1  0  0  0  0
 20 16  1  0  0  0  0
 21 24  1  6  0  0  0
 21 23  1  0  0  0  0
 21  1  1  0  0  0  0
 22 26  1  0  0  0  0
 22 21  1  0  0  0  0
 22 23  1  0  0  0  0
 23 27  1  6  0  0  0
 23 28  1  0  0  0  0
 25 22  1  0  0  0  0
 28 29  1  0  0  0  0
 29 30  1  0  0  0  0
 31 29  1  0  0  0  0
 31 32  1  0  0  0  0
 33 31  1  0  0  0  0
 34 36  1  0  0  0  0
 34 33  1  0  0  0  0
 35 34  1  0  0  0  0
 36 28  1  0  0  0  0
 36 37  1  0  0  0  0
M  END
>  <minimizedAffinity>
-5.37774229

$$$$

 OpenBabel03272507353D

 37 40  0  0  1  0  0  0  0  0999 V2000
   37.7700   26.4200   33.5380 C   0  0  0  0  0  0  0  0  0  0  0  0
   37.5140   25.3250   32.9460 O   0  0  0  0  0  0  0  0  0  0  0  0
   35.6780   29.2940   33.1650 C   0  0  0  0  0  0  0  0  0  0  0  0
   36.3550   29.3750   31.9720 C   0  0  0  0  0  0  0  0  0  0  0  0
   37.2580   28.2980   31.9260 C   0  0  0  0  0  0  0  0  0  0  0  0
   37.0610   27.6280   33.1120 C   0  0  0  0  0  0  0  0  0  0  0  0
   36.1300   28.2430   33.8070 O   0  0  0  0  0  0  0  0  0  0  0  0
   36.3050   30.0710   31.1480 H   0  0  0  0  0  0  0  0  0  0  0  0
   37.9770   27.9990   31.1610 H   0  0  0  0  0  0  0  0  0  0  0  0
   34.6570   30.2590   33.5460 C   0  0  0  0  0  0  0  0  0  0  0  0
   34.9320   31.4670   33.5370 O   0  0  0  0  0  0  0  0  0  0  0  0
   33.3720   29.7330   33.9130 C   0  0  0  0  0  0  0  0  0  0  0  0
   32.9990   29.8300   35.2470 C   0  0  0  0  0  0  0  0  0  0  0  0
   31.7550   29.3220   35.6360 C   0  0  0  0  0  0  0  0  0  0  0  0
   30.9700   28.7520   34.6680 N   0  0  0  0  0  0  0  0  0  0  0  0
   31.3510   28.6710   33.3950 C   0  0  0  0  0  0  0  0  0  0  0  0
   32.5450   29.1550   33.0070 N   0  0  0  0  0  0  0  0  0  0  0  0
   33.6550   30.2920   35.9830 H   0  0  0  0  0  0  0  0  0  0  0  0
   31.4920   29.4090   36.6650 H   0  0  0  0  0  0  0  0  0  0  0  0
   30.6990   28.2130   32.6630 H   0  0  0  0  0  0  0  0  0  0  0  0
   38.7670   26.4600   34.6460 C   0  0  1  0  0  0  0  0  0  0  0  0
   38.0350   26.5380   36.0430 C   0  0  0  0  0  0  0  0  0  0  0  0
   38.9070   25.4210   35.6400 C   0  0  1  0  0  0  0  0  0  0  0  0
   39.4420   27.3400   34.5770 H   0  0  0  0  0  0  0  0  0  0  0  0
   38.4170   27.2730   36.7640 H   0  0  0  0  0  0  0  0  0  0  0  0
   36.9430   26.4410   36.0290 H   0  0  0  0  0  0  0  0  0  0  0  0
   39.9230   25.4050   36.1530 H   0  0  0  0  0  0  0  0  0  0  0  0
   38.2940   24.0810   35.6320 C   0  0  0  0  0  3  0  0  0  0  0  0
   39.2620   22.9740   35.2260 C   0  0  0  0  0  3  0  0  0  0  0  0
   38.8500   22.3210   34.4450 H   0  0  0  0  0  0  0  0  0  0  0  0
   39.5170   22.0810   36.4470 C   0  0  0  0  0  3  0  0  0  0  0  0
   40.2480   21.3050   36.1780 H   0  0  0  0  0  0  0  0  0  0  0  0
   40.0010   22.8890   37.4730 O   0  0  0  0  0  0  0  0  0  0  0  0
   38.9290   23.5980   38.0150 C   0  0  0  0  0  3  0  0  0  0  0  0
   39.2250   24.5990   38.3830 H   0  0  0  0  0  0  0  0  0  0  0  0
   37.7990   23.7480   37.0260 C   0  0  0  0  0  3  0  0  0  0  0  0
   37.0950   22.9020   37.0560 H   0  0  0  0  0  0  0  0  0  0  0  0
  1 21  1  0  0  0  0
  2  1  2  0  0  0  0
  3 10  1  0  0  0  0
  3  7  1  0  0  0  0
  4  3  2  0  0  0  0
  5  4  1  0  0  0  0
  5  6  2  0  0  0  0
  6  1  1  0  0  0  0
  6  7  1  0  0  0  0
  8  4  1  0  0  0  0
  9  5  1  0  0  0  0
 10 12  1  0  0  0  0
 11 10  2  0  0  0  0
 12 13  1  0  0  0  0
 13 14  2  0  0  0  0
 13 18  1  0  0  0  0
 14 19  1  0  0  0  0
 15 14  1  0  0  0  0
 16 15  2  0  0  0  0
 17 16  1  0  0  0  0
 17 12  2  0  0  0  0
 20 16  1  0  0  0  0
 21 24  1  6  0  0  0
 21 23  1  0  0  0  0
 21 22  1  0  0  0  0
 22 25  1  0  0  0  0
 23 22  1  0  0  0  0
 23 27  1  1  0  0  0
 26 22  1  0  0  0  0
 28 23  1  0  0  0  0
 28 36  1  0  0  0  0
 29 28  1  0  0  0  0
 29 31  1  0  0  0  0
 30 29  1  0  0  0  0
 31 33  1  0  0  0  0
 32 31  1  0  0  0  0
 33 34  1  0  0  0  0
 34 35  1  0  0  0  0
 36 37  1  0  0  0  0
 36 34  1  0  0  0  0
M  END
>  <minimizedAffinity>
-5.20405769

$$$$

 OpenBabel03272507353D

 37 40  0  0  1  0  0  0  0  0999 V2000
   38.3300   24.2000   35.2900 C   0  0  0  0  0  0  0  0  0  0  0  0
   37.8770   23.4000   34.4130 O   0  0  0  0  0  0  0  0  0  0  0  0
   37.0190   27.4310   34.5020 C   0  0  0  0  0  0  0  0  0  0  0  0
   37.9620   27.8100   35.4290 C   0  0  0  0  0  0  0  0  0  0  0  0
   38.6060   26.6420   35.8760 C   0  0  0  0  0  0  0  0  0  0  0  0
   38.0010   25.6220   35.1780 C   0  0  0  0  0  0  0  0  0  0  0  0
   37.0800   26.1250   34.3870 O   0  0  0  0  0  0  0  0  0  0  0  0
   38.2520   28.7710   35.8260 H   0  0  0  0  0  0  0  0  0  0  0  0
   39.4080   26.5020   36.6040 H   0  0  0  0  0  0  0  0  0  0  0  0
   36.1610   28.3940   33.8290 C   0  0  0  0  0  0  0  0  0  0  0  0
   35.2430   28.9340   34.4630 O   0  0  0  0  0  0  0  0  0  0  0  0
   36.4440   28.6590   32.4460 C   0  0  0  0  0  0  0  0  0  0  0  0
   37.0860   27.6630   31.7230 C   0  0  0  0  0  0  0  0  0  0  0  0
   37.3790   27.8930   30.3750 C   0  0  0  0  0  0  0  0  0  0  0  0
   37.0130   29.1020   29.8420 N   0  0  0  0  0  0  0  0  0  0  0  0
   36.3980   30.0410   30.5580 C   0  0  0  0  0  0  0  0  0  0  0  0
   36.1100   29.8330   31.8560 N   0  0  0  0  0  0  0  0  0  0  0  0
   37.3590   26.7160   32.1880 H   0  0  0  0  0  0  0  0  0  0  0  0
   37.8720   27.1130   29.8420 H   0  0  0  0  0  0  0  0  0  0  0  0
   36.1260   30.9810   30.0960 H   0  0  0  0  0  0  0  0  0  0  0  0
   39.1700   23.6880   36.4110 C   0  0  1  0  0  0  0  0  0  0  0  0
   39.6250   22.2030   36.1250 C   0  0  0  0  0  0  0  0  0  0  0  0
   40.5630   23.3300   36.2740 C   0  0  1  0  0  0  0  0  0  0  0  0
   38.6270   23.6860   37.3810 H   0  0  0  0  0  0  0  0  0  0  0  0
   39.5260   21.4850   36.9500 H   0  0  0  0  0  0  0  0  0  0  0  0
   39.3760   21.7970   35.1370 H   0  0  0  0  0  0  0  0  0  0  0  0
   41.1410   23.3380   37.2540 H   0  0  0  0  0  0  0  0  0  0  0  0
   41.4520   23.5990   35.1300 C   0  0  0  0  0  3  0  0  0  0  0  0
   41.9490   25.0400   35.0740 C   0  0  0  0  0  3  0  0  0  0  0  0
   41.8120   25.4940   34.0830 H   0  0  0  0  0  0  0  0  0  0  0  0
   43.4590   25.0420   35.3460 C   0  0  0  0  0  3  0  0  0  0  0  0
   43.8210   26.0800   35.3520 H   0  0  0  0  0  0  0  0  0  0  0  0
   43.6710   24.4320   36.5800 O   0  0  0  0  0  0  0  0  0  0  0  0
   43.5410   23.0530   36.4150 C   0  0  0  0  0  3  0  0  0  0  0  0
   43.1340   22.5540   37.3150 H   0  0  0  0  0  0  0  0  0  0  0  0
   42.6760   22.7100   35.2270 C   0  0  0  0  0  3  0  0  0  0  0  0
   43.2510   22.6440   34.2900 H   0  0  0  0  0  0  0  0  0  0  0  0
  1 21  1  0  0  0  0
  2  1  2  0  0  0  0
  3  4  2  0  0  0  0
  4  8  1  0  0  0  0
  4  5  1  0  0  0  0
  5  9  1  0  0  0  0
  6  1  1  0  0  0  0
  6  5  2  0  0  0  0
  7  3  1  0  0  0  0
  7  6  1  0  0  0  0
 10 11  2  0  0  0  0
 10  3  1  0  0  0  0
 12 10  1  0  0  0  0
 13 18  1  0  0  0  0
 13 12  2  0  0  0  0
 14 13  1  0  0  0  0
 15 14  2  0  0  0  0
 15 16  1  0  0  0  0
 16 17  2  0  0  0  0
 17 12  1  0  0  0  0
 19 14  1  0  0  0  0
 20 16  1  0  0  0  0
 21 24  1  1  0  0  0
 22 23  1  0  0  0  0
 22 21  1  0  0  0  0
 22 25  1  0  0  0  0
 23 21  1  0  0  0  0
 23 27  1  1  0  0  0
 26 22  1  0  0  0  0
 28 36  1  0  0  0  0
 28 23  1  0  0  0  0
 29 28  1  0  0  0  0
 29 31  1  0  0  0  0
 30 29  1  0  0  0  0
 31 32  1  0  0  0  0
 31 33  1  0  0  0  0
 34 33  1  0  0  0  0
 34 35  1  0  0  0  0
 36 34  1  0  0  0  0
 37 36  1  0  0  0  0
M  END
>  <minimizedAffinity>
-5.1957984

$$$$

 OpenBabel03272507353D

 37 40  0  0  1  0  0  0  0  0999 V2000
   37.3170   27.5010   34.3820 C   0  0  0  0  0  0  0  0  0  0  0  0
   36.2480   28.1660   34.5460 O   0  0  0  0  0  0  0  0  0  0  0  0
   37.7000   25.3050   31.5870 C   0  0  0  0  0  0  0  0  0  0  0  0
   38.0490   26.4850   30.9730 C   0  0  0  0  0  0  0  0  0  0  0  0
   37.9570   27.5050   31.9370 C   0  0  0  0  0  0  0  0  0  0  0  0
   37.5530   26.8620   33.0850 C   0  0  0  0  0  0  0  0  0  0  0  0
   37.4140   25.5790   32.8380 O   0  0  0  0  0  0  0  0  0  0  0  0
   38.3520   26.7230   29.9640 H   0  0  0  0  0  0  0  0  0  0  0  0
   38.1450   28.5770   31.8640 H   0  0  0  0  0  0  0  0  0  0  0  0
   37.6870   24.0350   30.8770 C   0  0  0  0  0  0  0  0  0  0  0  0
   38.1560   23.9760   29.7320 O   0  0  0  0  0  0  0  0  0  0  0  0
   37.1170   22.9120   31.5690 C   0  0  0  0  0  0  0  0  0  0  0  0
   35.7330   22.7960   31.5680 C   0  0  0  0  0  0  0  0  0  0  0  0
   35.1490   21.7160   32.2370 C   0  0  0  0  0  0  0  0  0  0  0  0
   35.9850   20.8260   32.8600 N   0  0  0  0  0  0  0  0  0  0  0  0
   37.3100   20.9600   32.8450 C   0  0  0  0  0  0  0  0  0  0  0  0
   37.8850   21.9950   32.2060 N   0  0  0  0  0  0  0  0  0  0  0  0
   35.1060   23.5270   31.0590 H   0  0  0  0  0  0  0  0  0  0  0  0
   34.0850   21.6490   32.2220 H   0  0  0  0  0  0  0  0  0  0  0  0
   37.9320   20.2330   33.3510 H   0  0  0  0  0  0  0  0  0  0  0  0
   38.3090   27.3860   35.4900 C   0  0  1  0  0  0  0  0  0  0  0  0
   38.5470   25.8690   35.8610 C   0  0  0  0  0  0  0  0  0  0  0  0
   39.6030   26.7590   35.3490 C   0  0  1  0  0  0  0  0  0  0  0  0
   37.9740   27.9030   36.4140 H   0  0  0  0  0  0  0  0  0  0  0  0
   38.5430   25.6120   36.9280 H   0  0  0  0  0  0  0  0  0  0  0  0
   38.0660   25.1260   35.2130 H   0  0  0  0  0  0  0  0  0  0  0  0
   40.3630   27.0880   36.1290 H   0  0  0  0  0  0  0  0  0  0  0  0
   40.2680   26.3390   34.1030 C   0  0  0  0  0  3  0  0  0  0  0  0
   41.5380   27.1270   33.7980 C   0  0  0  0  0  3  0  0  0  0  0  0
   41.5570   27.5110   32.7680 H   0  0  0  0  0  0  0  0  0  0  0  0
   42.7380   26.1810   33.9290 C   0  0  0  0  0  3  0  0  0  0  0  0
   43.6640   26.7490   33.7540 H   0  0  0  0  0  0  0  0  0  0  0  0
   42.7180   25.6420   35.2140 O   0  0  0  0  0  0  0  0  0  0  0  0
   41.7330   24.6560   35.2590 C   0  0  0  0  0  3  0  0  0  0  0  0
   41.2550   24.5800   36.2540 H   0  0  0  0  0  0  0  0  0  0  0  0
   40.6670   24.8810   34.2150 C   0  0  0  0  0  3  0  0  0  0  0  0
   40.9150   24.4140   33.2490 H   0  0  0  0  0  0  0  0  0  0  0  0
  1  2  2  0  0  0  0
  1 21  1  0  0  0  0
  3  7  1  0  0  0  0
  4  3  2  0  0  0  0
  4  5  1  0  0  0  0
  5  6  2  0  0  0  0
  6  1  1  0  0  0  0
  7  6  1  0  0  0  0
  8  4  1  0  0  0  0
  9  5  1  0  0  0  0
 10 12  1  0  0  0  0
 10  3  1  0  0  0  0
 11 10  2  0  0  0  0
 12 17  1  0  0  0  0
 13 12  2  0  0  0  0
 13 14  1  0  0  0  0
 14 15  2  0  0  0  0
 16 15  1  0  0  0  0
 16 20  1  0  0  0  0
 17 16  2  0  0  0  0
 18 13  1  0  0  0  0
 19 14  1  0  0  0  0
 21 22  1  0  0  0  0
 21 24  1  1  0  0  0
 22 25  1  0  0  0  0
 23 21  1  0  0  0  0
 23 22  1  0  0  0  0
 23 27  1  1  0  0  0
 26 22  1  0  0  0  0
 28 36  1  0  0  0  0
 28 23  1  0  0  0  0
 29 31  1  0  0  0  0
 29 28  1  0  0  0  0
 30 29  1  0  0  0  0
 31 33  1  0  0  0  0
 32 31  1  0  0  0  0
 33 34  1  0  0  0  0
 34 35  1  0  0  0  0
 36 34  1  0  0  0  0
 37 36  1  0  0  0  0
M  END
>  <minimizedAffinity>
-5.18088341

$$$$
