
 OpenBabel03272508183D

 26 28  0  0  0  0  0  0  0  0999 V2000
   37.5400   30.8110   48.1390 C   0  0  0  0  0  0  0  0  0  0  0  0
   36.8340   30.7110   46.9300 C   0  0  0  0  0  0  0  0  0  0  0  0
   37.3400   31.5050   45.9100 C   0  0  0  0  0  0  0  0  0  0  0  0
   38.4220   32.2920   46.0960 N   0  0  0  0  0  0  0  0  0  0  0  0
   39.0770   32.3620   47.2750 C   0  0  0  0  0  0  0  0  0  0  0  0
   38.6220   31.6130   48.2920 N   0  0  0  0  0  0  0  0  0  0  0  0
   37.0150   31.6310   44.9050 H   0  0  0  0  0  0  0  0  0  0  0  0
   39.9380   32.9600   47.4970 H   0  0  0  0  0  0  0  0  0  0  0  0
   35.6580   29.8850   46.6320 C   0  0  0  0  0  0  0  0  0  0  0  0
   34.3940   30.3750   47.3130 C   0  0  0  0  0  0  0  0  0  0  0  0
   34.5270   30.3400   48.3920 H   0  0  0  0  0  0  0  0  0  0  0  0
   33.3140   29.3640   46.8960 C   0  0  0  0  0  0  0  0  0  0  0  0
   32.3960   29.6470   47.4620 H   0  0  0  0  0  0  0  0  0  0  0  0
   33.0930   29.5530   45.5430 O   0  0  0  0  0  0  0  0  0  0  0  0
   34.1760   29.0020   44.8320 C   0  0  0  0  0  0  0  0  0  0  0  0
   33.9570   29.1210   43.7610 H   0  0  0  0  0  0  0  0  0  0  0  0
   35.4070   29.8560   45.1300 C   0  0  0  0  0  0  0  0  0  0  0  0
   36.2510   29.4950   44.5590 H   0  0  0  0  0  0  0  0  0  0  0  0
   37.0820   29.8940   49.2560 C   0  0  0  0  0  0  0  0  0  0  0  0
   37.6840   29.9470   50.5650 C   0  0  0  0  0  0  0  0  0  0  0  0
   36.4000   30.7140   50.3760 C   0  0  0  0  0  0  0  0  0  0  0  0
   36.3640   29.0650   48.9690 H   0  0  0  0  0  0  0  0  0  0  0  0
   38.6390   30.5290   50.6810 H   0  0  0  0  0  0  0  0  0  0  0  0
   37.6460   29.1040   51.2610 H   0  0  0  0  0  0  0  0  0  0  0  0
   35.5040   30.3170   50.8660 H   0  0  0  0  0  0  0  0  0  0  0  0
   36.5300   31.8020   50.3440 H   0  0  0  0  0  0  0  0  0  0  0  0
  1  6  1  0  0  0  0
  1 19  1  0  0  0  0
  2  1  2  0  0  0  0
  3  4  2  0  0  0  0
  3  2  1  0  0  0  0
  4  5  1  0  0  0  0
  5  8  1  0  0  0  0
  5  6  2  0  0  0  0
  7  3  1  0  0  0  0
  9  2  1  0  0  0  0
  9 10  1  0  0  0  0
 10 11  1  0  0  0  0
 12 10  1  0  0  0  0
 12 13  1  0  0  0  0
 14 12  1  0  0  0  0
 15 17  1  0  0  0  0
 15 14  1  0  0  0  0
 16 15  1  0  0  0  0
 17  9  1  0  0  0  0
 18 17  1  0  0  0  0
 19 21  1  0  0  0  0
 19 20  1  0  0  0  0
 20 23  1  0  0  0  0
 20 24  1  0  0  0  0
 21 20  1  0  0  0  0
 21 25  1  0  0  0  0
 22 19  1  0  0  0  0
 26 21  1  0  0  0  0
M  END
>  <minimizedAffinity>
-4.29482508

>  <minimizedRMSD>
5.33515644

$$$$
