
 OpenBabel03272509513D

 34 36  0  0  0  0  0  0  0  0999 V2000
   35.2020   25.7340   30.9730 C   0  0  0  0  0  0  0  0  0  0  0  0
   35.4340   24.3440   31.0670 C   0  0  0  0  0  0  0  0  0  0  0  0
   36.4200   23.9230   31.9430 C   0  0  0  0  0  0  0  0  0  0  0  0
   37.1120   24.8680   32.6650 N   0  0  0  0  0  0  0  0  0  0  0  0
   36.8580   26.1750   32.5440 C   0  0  0  0  0  0  0  0  0  0  0  0
   35.9050   26.6010   31.7000 N   0  0  0  0  0  0  0  0  0  0  0  0
   34.4470   26.1360   30.3100 H   0  0  0  0  0  0  0  0  0  0  0  0
   34.8490   23.6570   30.4670 H   0  0  0  0  0  0  0  0  0  0  0  0
   36.6820   22.4670   32.0600 C   0  0  0  0  0  3  0  0  0  0  0  0
   37.5440   21.9660   30.9580 C   0  0  0  0  0  3  0  0  0  0  0  0
   37.2620   22.3220   29.9550 H   0  0  0  0  0  0  0  0  0  0  0  0
   37.4520   20.4550   30.8850 C   0  0  0  0  0  3  0  0  0  0  0  0
   37.7580   19.9460   31.8170 H   0  0  0  0  0  0  0  0  0  0  0  0
   36.1180   20.1690   30.5400 O   0  0  0  0  0  0  0  0  0  0  0  0
   35.3800   20.3500   31.7070 C   0  0  0  0  0  3  0  0  0  0  0  0
   34.3370   20.0320   31.5010 H   0  0  0  0  0  0  0  0  0  0  0  0
   35.3420   21.7880   32.1460 C   0  0  0  0  0  3  0  0  0  0  0  0
   34.6130   22.3610   31.5380 H   0  0  0  0  0  0  0  0  0  0  0  0
   37.6690   26.9240   33.3590 O   0  0  0  0  0  0  0  0  0  0  0  0
   37.2190   27.2430   34.6680 C   0  0  0  0  0  0  0  0  0  0  0  0
   36.3000   26.6590   34.8720 H   0  0  0  0  0  0  0  0  0  0  0  0
   36.9040   28.3050   34.6890 H   0  0  0  0  0  0  0  0  0  0  0  0
   38.3060   27.0110   35.6670 C   0  0  0  0  0  0  0  0  0  0  0  0
   39.2060   27.5820   35.3090 H   0  0  0  0  0  0  0  0  0  0  0  0
   38.0040   27.4120   36.6560 H   0  0  0  0  0  0  0  0  0  0  0  0
   38.6720   25.5700   35.8080 C   0  0  0  0  0  0  0  0  0  0  0  0
   37.8000   24.7860   36.5270 C   0  0  0  0  0  0  0  0  0  0  0  0
   38.0290   23.4450   36.7260 C   0  0  0  0  0  0  0  0  0  0  0  0
   39.1300   22.8870   36.2060 N   0  0  0  0  0  0  0  0  0  0  0  0
   39.9730   23.6670   35.5060 C   0  0  0  0  0  0  0  0  0  0  0  0
   39.7730   24.9780   35.2970 N   0  0  0  0  0  0  0  0  0  0  0  0
   36.8840   25.1770   36.9780 H   0  0  0  0  0  0  0  0  0  0  0  0
   37.3650   22.7900   37.2870 H   0  0  0  0  0  0  0  0  0  0  0  0
   40.8930   23.2680   35.0550 H   0  0  0  0  0  0  0  0  0  0  0  0
  1  2  2  0  0  0  0
  1  6  1  0  0  0  0
  2  3  1  0  0  0  0
  3  9  1  0  0  0  0
  3  4  2  0  0  0  0
  5  4  1  0  0  0  0
  5 19  1  0  0  0  0
  6  5  2  0  0  0  0
  7  1  1  0  0  0  0
  8  2  1  0  0  0  0
  9 17  1  0  0  0  0
 10  9  1  0  0  0  0
 11 10  1  0  0  0  0
 12 10  1  0  0  0  0
 12 13  1  0  0  0  0
 14 12  1  0  0  0  0
 14 15  1  0  0  0  0
 15 17  1  0  0  0  0
 16 15  1  0  0  0  0
 18 17  1  0  0  0  0
 19 20  1  0  0  0  0
 20 22  1  0  0  0  0
 20 21  1  0  0  0  0
 20 23  1  0  0  0  0
 23 26  1  0  0  0  0
 23 25  1  0  0  0  0
 24 23  1  0  0  0  0
 26 27  1  0  0  0  0
 27 28  2  0  0  0  0
 27 32  1  0  0  0  0
 28 33  1  0  0  0  0
 29 28  1  0  0  0  0
 30 29  2  0  0  0  0
 31 30  1  0  0  0  0
 31 26  2  0  0  0  0
 34 30  1  0  0  0  0
M  END
>  <minimizedAffinity>
-5.12961769

$$$$

 OpenBabel03272509513D

 34 36  0  0  0  0  0  0  0  0999 V2000
   37.9660   27.6040   35.2550 C   0  0  0  0  0  0  0  0  0  0  0  0
   38.1170   26.4640   36.0750 C   0  0  0  0  0  0  0  0  0  0  0  0
   37.9570   25.2260   35.4770 C   0  0  0  0  0  0  0  0  0  0  0  0
   37.6630   25.1730   34.1340 N   0  0  0  0  0  0  0  0  0  0  0  0
   37.5290   26.2790   33.3950 C   0  0  0  0  0  0  0  0  0  0  0  0
   37.6810   27.4880   33.9590 N   0  0  0  0  0  0  0  0  0  0  0  0
   38.0770   28.6040   35.6540 H   0  0  0  0  0  0  0  0  0  0  0  0
   38.3490   26.5820   37.1260 H   0  0  0  0  0  0  0  0  0  0  0  0
   38.1110   24.0130   36.3170 C   0  0  0  0  0  3  0  0  0  0  0  0
   38.0630   24.3310   37.7680 C   0  0  0  0  0  3  0  0  0  0  0  0
   38.6670   25.2010   38.0680 H   0  0  0  0  0  0  0  0  0  0  0  0
   38.6180   23.1670   38.5640 C   0  0  0  0  0  3  0  0  0  0  0  0
   38.0720   22.2190   38.4030 H   0  0  0  0  0  0  0  0  0  0  0  0
   39.9730   23.0640   38.1990 O   0  0  0  0  0  0  0  0  0  0  0  0
   39.9810   22.4610   36.9450 C   0  0  0  0  0  3  0  0  0  0  0  0
   41.0390   22.2680   36.6680 H   0  0  0  0  0  0  0  0  0  0  0  0
   39.3830   23.3380   35.8800 C   0  0  0  0  0  3  0  0  0  0  0  0
   40.1080   24.1160   35.5640 H   0  0  0  0  0  0  0  0  0  0  0  0
   37.2370   25.9810   32.0870 O   0  0  0  0  0  0  0  0  0  0  0  0
   36.2770   24.9720   31.8130 C   0  0  0  0  0  0  0  0  0  0  0  0
   35.3400   25.4620   31.4830 H   0  0  0  0  0  0  0  0  0  0  0  0
   36.0220   24.4540   32.7600 H   0  0  0  0  0  0  0  0  0  0  0  0
   36.8160   23.9900   30.8240 C   0  0  0  0  0  0  0  0  0  0  0  0
   36.2750   24.1710   29.8550 H   0  0  0  0  0  0  0  0  0  0  0  0
   37.8990   24.1700   30.6620 H   0  0  0  0  0  0  0  0  0  0  0  0
   36.6070   22.5700   31.2360 C   0  0  0  0  0  0  0  0  0  0  0  0
   35.4820   22.3110   31.9850 C   0  0  0  0  0  0  0  0  0  0  0  0
   35.1810   21.0440   32.4250 C   0  0  0  0  0  0  0  0  0  0  0  0
   36.0050   20.0330   32.1150 N   0  0  0  0  0  0  0  0  0  0  0  0
   37.1000   20.3030   31.3820 C   0  0  0  0  0  0  0  0  0  0  0  0
   37.4170   21.5310   30.9410 N   0  0  0  0  0  0  0  0  0  0  0  0
   34.7690   23.0890   32.2730 H   0  0  0  0  0  0  0  0  0  0  0  0
   34.3030   20.7970   33.0180 H   0  0  0  0  0  0  0  0  0  0  0  0
   37.8140   19.5160   31.0960 H   0  0  0  0  0  0  0  0  0  0  0  0
  1  7  1  0  0  0  0
  1  2  1  0  0  0  0
  2  8  1  0  0  0  0
  3  2  2  0  0  0  0
  3  9  1  0  0  0  0
  4  3  1  0  0  0  0
  5  6  1  0  0  0  0
  5  4  2  0  0  0  0
  6  1  2  0  0  0  0
  9 10  1  0  0  0  0
 10 11  1  0  0  0  0
 10 12  1  0  0  0  0
 13 12  1  0  0  0  0
 14 12  1  0  0  0  0
 15 14  1  0  0  0  0
 16 15  1  0  0  0  0
 17  9  1  0  0  0  0
 17 15  1  0  0  0  0
 18 17  1  0  0  0  0
 19  5  1  0  0  0  0
 20 19  1  0  0  0  0
 20 22  1  0  0  0  0
 21 20  1  0  0  0  0
 23 26  1  0  0  0  0
 23 20  1  0  0  0  0
 24 23  1  0  0  0  0
 25 23  1  0  0  0  0
 26 27  1  0  0  0  0
 27 32  1  0  0  0  0
 27 28  2  0  0  0  0
 28 33  1  0  0  0  0
 29 28  1  0  0  0  0
 30 29  2  0  0  0  0
 31 26  2  0  0  0  0
 31 30  1  0  0  0  0
 34 30  1  0  0  0  0
M  END
>  <minimizedAffinity>
-5.03834438

$$$$

 OpenBabel03272509513D

 34 36  0  0  0  0  0  0  0  0999 V2000
   43.2820   26.6410   33.6910 C   0  0  0  0  0  0  0  0  0  0  0  0
   41.9640   27.1500   33.7140 C   0  0  0  0  0  0  0  0  0  0  0  0
   41.0400   26.4860   34.5010 C   0  0  0  0  0  0  0  0  0  0  0  0
   41.4490   25.3780   35.2090 N   0  0  0  0  0  0  0  0  0  0  0  0
   42.7070   24.9300   35.1580 C   0  0  0  0  0  0  0  0  0  0  0  0
   43.6160   25.5630   34.3990 N   0  0  0  0  0  0  0  0  0  0  0  0
   44.0570   27.1090   33.0980 H   0  0  0  0  0  0  0  0  0  0  0  0
   41.7150   28.0280   33.1300 H   0  0  0  0  0  0  0  0  0  0  0  0
   39.6500   27.0020   34.5430 C   0  0  0  0  0  3  0  0  0  0  0  0
   38.7920   26.2170   35.4670 C   0  0  0  0  0  3  0  0  0  0  0  0
   38.8930   25.1240   35.3720 H   0  0  0  0  0  0  0  0  0  0  0  0
   37.3320   26.5080   35.1790 C   0  0  0  0  0  3  0  0  0  0  0  0
   37.0630   27.5740   35.2850 H   0  0  0  0  0  0  0  0  0  0  0  0
   37.0970   26.0310   33.8760 O   0  0  0  0  0  0  0  0  0  0  0  0
   37.6540   26.9780   33.0210 C   0  0  0  0  0  3  0  0  0  0  0  0
   37.3970   26.6890   31.9810 H   0  0  0  0  0  0  0  0  0  0  0  0
   39.1530   27.0330   33.1230 C   0  0  0  0  0  3  0  0  0  0  0  0
   39.6120   26.1910   32.5670 H   0  0  0  0  0  0  0  0  0  0  0  0
   42.8800   23.8180   35.9420 O   0  0  0  0  0  0  0  0  0  0  0  0
   42.0910   22.6660   35.6810 C   0  0  0  0  0  0  0  0  0  0  0  0
   42.7290   21.9140   35.1770 H   0  0  0  0  0  0  0  0  0  0  0  0
   41.3070   22.9300   34.9430 H   0  0  0  0  0  0  0  0  0  0  0  0
   41.4610   22.1660   36.9400 C   0  0  0  0  0  0  0  0  0  0  0  0
   41.5350   21.0440   36.9200 H   0  0  0  0  0  0  0  0  0  0  0  0
   42.0220   22.5400   37.8200 H   0  0  0  0  0  0  0  0  0  0  0  0
   40.0230   22.5530   37.0670 C   0  0  0  0  0  0  0  0  0  0  0  0
   39.2240   22.2970   35.9770 C   0  0  0  0  0  0  0  0  0  0  0  0
   37.8850   22.6090   35.9740 C   0  0  0  0  0  0  0  0  0  0  0  0
   37.3440   23.1770   37.0600 N   0  0  0  0  0  0  0  0  0  0  0  0
   38.1400   23.4200   38.1170 C   0  0  0  0  0  0  0  0  0  0  0  0
   39.4490   23.1260   38.1470 N   0  0  0  0  0  0  0  0  0  0  0  0
   39.6000   21.8360   35.0600 H   0  0  0  0  0  0  0  0  0  0  0  0
   37.2180   22.4220   35.1340 H   0  0  0  0  0  0  0  0  0  0  0  0
   37.7550   23.8840   39.0370 H   0  0  0  0  0  0  0  0  0  0  0  0
  1  2  2  0  0  0  0
  1  6  1  0  0  0  0
  2  3  1  0  0  0  0
  3  9  1  0  0  0  0
  3  4  2  0  0  0  0
  5  4  1  0  0  0  0
  5 19  1  0  0  0  0
  6  5  2  0  0  0  0
  7  1  1  0  0  0  0
  8  2  1  0  0  0  0
  9 10  1  0  0  0  0
 11 10  1  0  0  0  0
 12 13  1  0  0  0  0
 12 10  1  0  0  0  0
 14 12  1  0  0  0  0
 15 17  1  0  0  0  0
 15 14  1  0  0  0  0
 16 15  1  0  0  0  0
 17  9  1  0  0  0  0
 18 17  1  0  0  0  0
 20 19  1  0  0  0  0
 20 23  1  0  0  0  0
 21 20  1  0  0  0  0
 22 20  1  0  0  0  0
 23 26  1  0  0  0  0
 23 25  1  0  0  0  0
 24 23  1  0  0  0  0
 26 31  1  0  0  0  0
 27 26  2  0  0  0  0
 28 27  1  0  0  0  0
 28 29  2  0  0  0  0
 29 30  1  0  0  0  0
 30 31  2  0  0  0  0
 30 34  1  0  0  0  0
 32 27  1  0  0  0  0
 33 28  1  0  0  0  0
M  END
>  <minimizedAffinity>
-4.90142059

$$$$

 OpenBabel03272509513D

 34 36  0  0  0  0  0  0  0  0999 V2000
   40.2860   27.1000   33.8110 C   0  0  0  0  0  0  0  0  0  0  0  0
   39.4990   26.7050   32.7060 C   0  0  0  0  0  0  0  0  0  0  0  0
   38.3400   25.9980   32.9730 C   0  0  0  0  0  0  0  0  0  0  0  0
   38.0200   25.7210   34.2830 N   0  0  0  0  0  0  0  0  0  0  0  0
   38.7950   26.1150   35.2980 C   0  0  0  0  0  0  0  0  0  0  0  0
   39.9230   26.8020   35.0580 N   0  0  0  0  0  0  0  0  0  0  0  0
   41.2050   27.6560   33.6790 H   0  0  0  0  0  0  0  0  0  0  0  0
   39.8140   26.9590   31.7010 H   0  0  0  0  0  0  0  0  0  0  0  0
   37.4970   25.5720   31.8290 C   0  0  0  0  0  3  0  0  0  0  0  0
   36.2050   26.3050   31.7880 C   0  0  0  0  0  3  0  0  0  0  0  0
   35.6900   26.3860   32.7580 H   0  0  0  0  0  0  0  0  0  0  0  0
   35.2330   25.5750   30.8810 C   0  0  0  0  0  3  0  0  0  0  0  0
   35.5960   25.4610   29.8430 H   0  0  0  0  0  0  0  0  0  0  0  0
   34.9940   24.3320   31.4960 O   0  0  0  0  0  0  0  0  0  0  0  0
   36.1210   23.5580   31.2340 C   0  0  0  0  0  3  0  0  0  0  0  0
   35.9250   22.5350   31.6150 H   0  0  0  0  0  0  0  0  0  0  0  0
   37.3500   24.0770   31.9280 C   0  0  0  0  0  3  0  0  0  0  0  0
   37.3430   23.7900   32.9990 H   0  0  0  0  0  0  0  0  0  0  0  0
   38.2770   25.7260   36.5090 O   0  0  0  0  0  0  0  0  0  0  0  0
   37.7410   24.4180   36.6360 C   0  0  0  0  0  0  0  0  0  0  0  0
   37.6340   23.9850   35.6220 H   0  0  0  0  0  0  0  0  0  0  0  0
   36.7100   24.4920   37.0360 H   0  0  0  0  0  0  0  0  0  0  0  0
   38.5860   23.5920   37.5510 C   0  0  0  0  0  0  0  0  0  0  0  0
   39.0410   24.2950   38.3010 H   0  0  0  0  0  0  0  0  0  0  0  0
   37.9550   22.8580   38.0920 H   0  0  0  0  0  0  0  0  0  0  0  0
   39.6840   22.8700   36.8380 C   0  0  0  0  0  0  0  0  0  0  0  0
   40.6190   22.2460   37.6320 C   0  0  0  0  0  0  0  0  0  0  0  0
   41.6760   21.5510   37.0930 C   0  0  0  0  0  0  0  0  0  0  0  0
   41.7990   21.4800   35.7610 N   0  0  0  0  0  0  0  0  0  0  0  0
   40.8770   22.0960   35.0000 C   0  0  0  0  0  0  0  0  0  0  0  0
   39.8360   22.7810   35.5000 N   0  0  0  0  0  0  0  0  0  0  0  0
   40.5780   22.2640   38.7240 H   0  0  0  0  0  0  0  0  0  0  0  0
   42.4360   21.0420   37.6850 H   0  0  0  0  0  0  0  0  0  0  0  0
   40.9240   22.0730   33.9010 H   0  0  0  0  0  0  0  0  0  0  0  0
  1  6  1  0  0  0  0
  2  3  1  0  0  0  0
  2  1  2  0  0  0  0
  3  4  2  0  0  0  0
  4  5  1  0  0  0  0
  5 19  1  0  0  0  0
  6  5  2  0  0  0  0
  7  1  1  0  0  0  0
  8  2  1  0  0  0  0
  9 17  1  0  0  0  0
  9  3  1  0  0  0  0
 10  9  1  0  0  0  0
 10 11  1  0  0  0  0
 12 14  1  0  0  0  0
 12 10  1  0  0  0  0
 13 12  1  0  0  0  0
 15 14  1  0  0  0  0
 15 16  1  0  0  0  0
 15 17  1  0  0  0  0
 17 18  1  0  0  0  0
 19 20  1  0  0  0  0
 20 22  1  0  0  0  0
 20 23  1  0  0  0  0
 21 20  1  0  0  0  0
 23 25  1  0  0  0  0
 23 24  1  0  0  0  0
 26 23  1  0  0  0  0
 26 27  1  0  0  0  0
 27 32  1  0  0  0  0
 28 27  2  0  0  0  0
 28 33  1  0  0  0  0
 29 28  1  0  0  0  0
 30 31  1  0  0  0  0
 30 29  2  0  0  0  0
 31 26  2  0  0  0  0
 34 30  1  0  0  0  0
M  END
>  <minimizedAffinity>
-4.80253935

$$$$

 OpenBabel03272509513D

 34 36  0  0  0  0  0  0  0  0999 V2000
   34.9010   31.7960   36.1310 C   0  0  0  0  0  0  0  0  0  0  0  0
   33.5990   31.3100   36.3860 C   0  0  0  0  0  0  0  0  0  0  0  0
   33.1660   30.2310   35.6360 C   0  0  0  0  0  0  0  0  0  0  0  0
   34.0150   29.6960   34.6950 N   0  0  0  0  0  0  0  0  0  0  0  0
   35.2400   30.1870   34.4870 C   0  0  0  0  0  0  0  0  0  0  0  0
   35.6770   31.2340   35.2050 N   0  0  0  0  0  0  0  0  0  0  0  0
   35.3070   32.6370   36.6790 H   0  0  0  0  0  0  0  0  0  0  0  0
   32.9860   31.7820   37.1440 H   0  0  0  0  0  0  0  0  0  0  0  0
   31.8030   29.7020   35.8860 C   0  0  0  0  0  3  0  0  0  0  0  0
   31.6690   29.1290   37.2500 C   0  0  0  0  0  3  0  0  0  0  0  0
   32.5000   28.4750   37.5580 H   0  0  0  0  0  0  0  0  0  0  0  0
   30.4300   28.2590   37.3190 C   0  0  0  0  0  3  0  0  0  0  0  0
   29.4950   28.7990   37.0820 H   0  0  0  0  0  0  0  0  0  0  0  0
   30.6630   27.1900   36.4330 O   0  0  0  0  0  0  0  0  0  0  0  0
   30.4630   27.7080   35.1570 C   0  0  0  0  0  3  0  0  0  0  0  0
   30.5360   26.8680   34.4350 H   0  0  0  0  0  0  0  0  0  0  0  0
   31.5040   28.7260   34.7800 C   0  0  0  0  0  3  0  0  0  0  0  0
   32.4480   28.2260   34.4820 H   0  0  0  0  0  0  0  0  0  0  0  0
   35.9030   29.4960   33.5030 O   0  0  0  0  0  0  0  0  0  0  0  0
   36.4510   28.2230   33.8120 C   0  0  0  0  0  0  0  0  0  0  0  0
   35.6350   27.5720   34.1810 H   0  0  0  0  0  0  0  0  0  0  0  0
   37.1510   28.3330   34.6640 H   0  0  0  0  0  0  0  0  0  0  0  0
   37.1710   27.6620   32.6280 C   0  0  0  0  0  0  0  0  0  0  0  0
   37.1850   28.4660   31.8420 H   0  0  0  0  0  0  0  0  0  0  0  0
   38.2180   27.4170   32.9010 H   0  0  0  0  0  0  0  0  0  0  0  0
   36.5100   26.4470   32.0640 C   0  0  0  0  0  0  0  0  0  0  0  0
   37.0770   25.2370   32.3890 C   0  0  0  0  0  0  0  0  0  0  0  0
   36.5590   24.0480   31.9300 C   0  0  0  0  0  0  0  0  0  0  0  0
   35.4740   24.0700   31.1460 N   0  0  0  0  0  0  0  0  0  0  0  0
   34.9310   25.2620   30.8370 C   0  0  0  0  0  0  0  0  0  0  0  0
   35.4170   26.4350   31.2710 N   0  0  0  0  0  0  0  0  0  0  0  0
   37.9630   25.1480   33.0250 H   0  0  0  0  0  0  0  0  0  0  0  0
   36.9770   23.0710   32.1650 H   0  0  0  0  0  0  0  0  0  0  0  0
   34.0400   25.3440   30.1970 H   0  0  0  0  0  0  0  0  0  0  0  0
  1  2  1  0  0  0  0
  1  7  1  0  0  0  0
  2  8  1  0  0  0  0
  3  9  1  0  0  0  0
  3  2  2  0  0  0  0
  4  3  1  0  0  0  0
  5  4  2  0  0  0  0
  5  6  1  0  0  0  0
  6  1  2  0  0  0  0
  9 10  1  0  0  0  0
 10 12  1  0  0  0  0
 10 11  1  0  0  0  0
 13 12  1  0  0  0  0
 14 12  1  0  0  0  0
 15 14  1  0  0  0  0
 16 15  1  0  0  0  0
 17 15  1  0  0  0  0
 17  9  1  0  0  0  0
 18 17  1  0  0  0  0
 19 20  1  0  0  0  0
 19  5  1  0  0  0  0
 20 21  1  0  0  0  0
 20 22  1  0  0  0  0
 23 25  1  0  0  0  0
 23 20  1  0  0  0  0
 24 23  1  0  0  0  0
 26 27  1  0  0  0  0
 26 23  1  0  0  0  0
 27 32  1  0  0  0  0
 28 33  1  0  0  0  0
 28 27  2  0  0  0  0
 29 28  1  0  0  0  0
 30 29  2  0  0  0  0
 30 31  1  0  0  0  0
 31 26  2  0  0  0  0
 34 30  1  0  0  0  0
M  END
>  <minimizedAffinity>
-4.80121136

$$$$

 OpenBabel03272509513D

 34 36  0  0  0  0  0  0  0  0999 V2000
   40.6680   26.9790   33.8180 C   0  0  0  0  0  0  0  0  0  0  0  0
   39.7460   27.2630   32.7860 C   0  0  0  0  0  0  0  0  0  0  0  0
   38.4010   27.1200   33.0780 C   0  0  0  0  0  0  0  0  0  0  0  0
   38.0390   26.7130   34.3420 N   0  0  0  0  0  0  0  0  0  0  0  0
   38.9450   26.4550   35.2890 C   0  0  0  0  0  0  0  0  0  0  0  0
   40.2540   26.5890   35.0230 N   0  0  0  0  0  0  0  0  0  0  0  0
   41.7350   27.0690   33.6620 H   0  0  0  0  0  0  0  0  0  0  0  0
   40.1050   27.5790   31.8140 H   0  0  0  0  0  0  0  0  0  0  0  0
   37.4140   27.4130   32.0110 C   0  0  0  0  0  3  0  0  0  0  0  0
   38.0710   27.8000   30.7360 C   0  0  0  0  0  3  0  0  0  0  0  0
   38.8900   28.5270   30.8420 H   0  0  0  0  0  0  0  0  0  0  0  0
   37.0610   28.4670   29.8230 C   0  0  0  0  0  3  0  0  0  0  0  0
   36.1920   27.8290   29.5810 H   0  0  0  0  0  0  0  0  0  0  0  0
   36.6790   29.6530   30.4780 O   0  0  0  0  0  0  0  0  0  0  0  0
   35.8000   29.2630   31.4840 C   0  0  0  0  0  3  0  0  0  0  0  0
   35.3960   30.1820   31.9570 H   0  0  0  0  0  0  0  0  0  0  0  0
   36.4770   28.4560   32.5580 C   0  0  0  0  0  3  0  0  0  0  0  0
   37.0440   29.1190   33.2430 H   0  0  0  0  0  0  0  0  0  0  0  0
   38.3530   26.0670   36.4640 O   0  0  0  0  0  0  0  0  0  0  0  0
   37.6780   24.8180   36.5110 C   0  0  0  0  0  0  0  0  0  0  0  0
   37.6110   24.4190   35.4800 H   0  0  0  0  0  0  0  0  0  0  0  0
   36.6310   24.9890   36.8310 H   0  0  0  0  0  0  0  0  0  0  0  0
   38.3590   23.8900   37.4650 C   0  0  0  0  0  0  0  0  0  0  0  0
   38.8010   24.5250   38.2810 H   0  0  0  0  0  0  0  0  0  0  0  0
   37.6190   23.1990   37.9160 H   0  0  0  0  0  0  0  0  0  0  0  0
   39.4530   23.0960   36.8270 C   0  0  0  0  0  0  0  0  0  0  0  0
   40.3980   22.5670   37.6750 C   0  0  0  0  0  0  0  0  0  0  0  0
   41.4520   21.8190   37.2080 C   0  0  0  0  0  0  0  0  0  0  0  0
   41.5630   21.6000   35.8910 N   0  0  0  0  0  0  0  0  0  0  0  0
   40.6310   22.1240   35.0740 C   0  0  0  0  0  0  0  0  0  0  0  0
   39.5920   22.8580   35.5050 N   0  0  0  0  0  0  0  0  0  0  0  0
   40.3670   22.7080   38.7590 H   0  0  0  0  0  0  0  0  0  0  0  0
   42.2200   21.3820   37.8440 H   0  0  0  0  0  0  0  0  0  0  0  0
   40.6670   21.9790   33.9850 H   0  0  0  0  0  0  0  0  0  0  0  0
  1  6  1  0  0  0  0
  2  3  1  0  0  0  0
  2  1  2  0  0  0  0
  3  4  2  0  0  0  0
  4  5  1  0  0  0  0
  5 19  1  0  0  0  0
  6  5  2  0  0  0  0
  7  1  1  0  0  0  0
  8  2  1  0  0  0  0
  9 17  1  0  0  0  0
  9  3  1  0  0  0  0
 10 11  1  0  0  0  0
 10  9  1  0  0  0  0
 12 14  1  0  0  0  0
 12 10  1  0  0  0  0
 13 12  1  0  0  0  0
 14 15  1  0  0  0  0
 15 16  1  0  0  0  0
 15 17  1  0  0  0  0
 17 18  1  0  0  0  0
 19 20  1  0  0  0  0
 20 22  1  0  0  0  0
 20 23  1  0  0  0  0
 21 20  1  0  0  0  0
 23 25  1  0  0  0  0
 23 24  1  0  0  0  0
 26 23  1  0  0  0  0
 26 27  1  0  0  0  0
 27 32  1  0  0  0  0
 28 27  2  0  0  0  0
 28 33  1  0  0  0  0
 29 28  1  0  0  0  0
 30 31  1  0  0  0  0
 30 29  2  0  0  0  0
 31 26  2  0  0  0  0
 34 30  1  0  0  0  0
M  END
>  <minimizedAffinity>
-4.75014257

$$$$

 OpenBabel03272509513D

 34 36  0  0  0  0  0  0  0  0999 V2000
   35.2660   26.0850   31.0900 C   0  0  0  0  0  0  0  0  0  0  0  0
   35.1990   24.6870   30.9040 C   0  0  0  0  0  0  0  0  0  0  0  0
   36.1520   23.9150   31.5440 C   0  0  0  0  0  0  0  0  0  0  0  0
   37.1010   24.5420   32.3180 N   0  0  0  0  0  0  0  0  0  0  0  0
   37.1270   25.8700   32.4670 C   0  0  0  0  0  0  0  0  0  0  0  0
   36.2100   26.6340   31.8520 N   0  0  0  0  0  0  0  0  0  0  0  0
   34.5540   26.7520   30.6200 H   0  0  0  0  0  0  0  0  0  0  0  0
   34.4220   24.2620   30.2790 H   0  0  0  0  0  0  0  0  0  0  0  0
   36.1020   22.4430   31.3650 C   0  0  0  0  0  3  0  0  0  0  0  0
   35.0050   21.8230   32.1520 C   0  0  0  0  0  3  0  0  0  0  0  0
   34.9240   22.1810   33.1900 H   0  0  0  0  0  0  0  0  0  0  0  0
   35.2370   20.3290   32.2630 C   0  0  0  0  0  3  0  0  0  0  0  0
   35.2910   19.8140   31.2860 H   0  0  0  0  0  0  0  0  0  0  0  0
   36.4250   20.1800   33.0040 O   0  0  0  0  0  0  0  0  0  0  0  0
   37.4600   20.4710   32.1200 C   0  0  0  0  0  3  0  0  0  0  0  0
   38.4180   20.2630   32.6400 H   0  0  0  0  0  0  0  0  0  0  0  0
   37.4710   21.9150   31.7020 C   0  0  0  0  0  3  0  0  0  0  0  0
   37.9090   22.5480   32.5000 H   0  0  0  0  0  0  0  0  0  0  0  0
   38.1590   26.2680   33.2800 O   0  0  0  0  0  0  0  0  0  0  0  0
   39.3750   25.5350   33.2500 C   0  0  0  0  0  0  0  0  0  0  0  0
   40.1100   26.1030   32.6460 H   0  0  0  0  0  0  0  0  0  0  0  0
   39.2090   24.5880   32.7000 H   0  0  0  0  0  0  0  0  0  0  0  0
   39.8440   25.2440   34.6390 C   0  0  0  0  0  0  0  0  0  0  0  0
   40.8720   24.7960   34.5500 H   0  0  0  0  0  0  0  0  0  0  0  0
   39.9190   26.1850   35.2210 H   0  0  0  0  0  0  0  0  0  0  0  0
   38.9600   24.2820   35.3640 C   0  0  0  0  0  0  0  0  0  0  0  0
   38.3720   24.7460   36.5190 C   0  0  0  0  0  0  0  0  0  0  0  0
   37.5390   23.9550   37.2740 C   0  0  0  0  0  0  0  0  0  0  0  0
   37.2930   22.7000   36.8750 N   0  0  0  0  0  0  0  0  0  0  0  0
   37.8750   22.2620   35.7450 C   0  0  0  0  0  0  0  0  0  0  0  0
   38.6930   23.0130   34.9900 N   0  0  0  0  0  0  0  0  0  0  0  0
   38.5300   25.7580   36.9000 H   0  0  0  0  0  0  0  0  0  0  0  0
   37.0530   24.2830   38.1920 H   0  0  0  0  0  0  0  0  0  0  0  0
   37.7130   21.2420   35.3660 H   0  0  0  0  0  0  0  0  0  0  0  0
  1  6  1  0  0  0  0
  2  1  2  0  0  0  0
  2  3  1  0  0  0  0
  3  4  2  0  0  0  0
  4  5  1  0  0  0  0
  5 19  1  0  0  0  0
  6  5  2  0  0  0  0
  7  1  1  0  0  0  0
  8  2  1  0  0  0  0
  9  3  1  0  0  0  0
  9 17  1  0  0  0  0
  9 10  1  0  0  0  0
 10 12  1  0  0  0  0
 10 11  1  0  0  0  0
 12 14  1  0  0  0  0
 13 12  1  0  0  0  0
 15 16  1  0  0  0  0
 15 14  1  0  0  0  0
 17 15  1  0  0  0  0
 17 18  1  0  0  0  0
 20 19  1  0  0  0  0
 20 23  1  0  0  0  0
 21 20  1  0  0  0  0
 22 20  1  0  0  0  0
 23 25  1  0  0  0  0
 23 26  1  0  0  0  0
 24 23  1  0  0  0  0
 26 27  1  0  0  0  0
 27 32  1  0  0  0  0
 27 28  2  0  0  0  0
 28 33  1  0  0  0  0
 29 28  1  0  0  0  0
 30 29  2  0  0  0  0
 31 26  2  0  0  0  0
 31 30  1  0  0  0  0
 34 30  1  0  0  0  0
M  END
>  <minimizedAffinity>
-4.68522835

$$$$

 OpenBabel03272509513D

 34 36  0  0  0  0  0  0  0  0999 V2000
   37.4770   26.4460   34.6310 C   0  0  0  0  0  0  0  0  0  0  0  0
   36.8870   27.7270   34.5600 C   0  0  0  0  0  0  0  0  0  0  0  0
   36.3250   28.1020   33.3520 C   0  0  0  0  0  0  0  0  0  0  0  0
   36.3710   27.2170   32.2980 N   0  0  0  0  0  0  0  0  0  0  0  0
   36.9390   26.0130   32.4100 C   0  0  0  0  0  0  0  0  0  0  0  0
   37.4890   25.6330   33.5750 N   0  0  0  0  0  0  0  0  0  0  0  0
   37.9350   26.0850   35.5430 H   0  0  0  0  0  0  0  0  0  0  0  0
   36.8880   28.3710   35.4310 H   0  0  0  0  0  0  0  0  0  0  0  0
   35.6990   29.4430   33.2520 C   0  0  0  0  0  3  0  0  0  0  0  0
   35.6220   30.1210   34.5730 C   0  0  0  0  0  3  0  0  0  0  0  0
   35.2620   29.4840   35.3960 H   0  0  0  0  0  0  0  0  0  0  0  0
   34.6390   31.2720   34.4990 C   0  0  0  0  0  3  0  0  0  0  0  0
   34.9000   32.0310   33.7390 H   0  0  0  0  0  0  0  0  0  0  0  0
   33.3830   30.6870   34.2500 O   0  0  0  0  0  0  0  0  0  0  0  0
   33.3850   30.3490   32.9000 C   0  0  0  0  0  3  0  0  0  0  0  0
   32.3710   29.9790   32.6410 H   0  0  0  0  0  0  0  0  0  0  0  0
   34.3650   29.2530   32.5830 C   0  0  0  0  0  3  0  0  0  0  0  0
   33.9550   28.2660   32.8790 H   0  0  0  0  0  0  0  0  0  0  0  0
   36.8650   25.3080   31.2350 O   0  0  0  0  0  0  0  0  0  0  0  0
   36.9530   23.8910   31.2800 C   0  0  0  0  0  0  0  0  0  0  0  0
   37.6890   23.6120   32.0580 H   0  0  0  0  0  0  0  0  0  0  0  0
   37.3810   23.5290   30.3240 H   0  0  0  0  0  0  0  0  0  0  0  0
   35.6020   23.2900   31.4950 C   0  0  0  0  0  0  0  0  0  0  0  0
   35.2300   23.6660   32.4880 H   0  0  0  0  0  0  0  0  0  0  0  0
   34.9030   23.6320   30.7050 H   0  0  0  0  0  0  0  0  0  0  0  0
   35.6250   21.7960   31.5220 C   0  0  0  0  0  0  0  0  0  0  0  0
   36.6860   21.1910   30.8890 C   0  0  0  0  0  0  0  0  0  0  0  0
   36.8170   19.8230   30.8460 C   0  0  0  0  0  0  0  0  0  0  0  0
   35.8880   19.0590   31.4350 N   0  0  0  0  0  0  0  0  0  0  0  0
   34.8560   19.6670   32.0490 C   0  0  0  0  0  0  0  0  0  0  0  0
   34.7040   20.9990   32.1060 N   0  0  0  0  0  0  0  0  0  0  0  0
   37.4790   21.7540   30.3890 H   0  0  0  0  0  0  0  0  0  0  0  0
   37.6410   19.3050   30.3570 H   0  0  0  0  0  0  0  0  0  0  0  0
   34.0620   19.0950   32.5510 H   0  0  0  0  0  0  0  0  0  0  0  0
  1  7  1  0  0  0  0
  2  1  1  0  0  0  0
  2  8  1  0  0  0  0
  3  2  2  0  0  0  0
  4  5  2  0  0  0  0
  4  3  1  0  0  0  0
  5  6  1  0  0  0  0
  6  1  2  0  0  0  0
  9  3  1  0  0  0  0
  9 10  1  0  0  0  0
 10 11  1  0  0  0  0
 12 10  1  0  0  0  0
 13 12  1  0  0  0  0
 14 12  1  0  0  0  0
 15 14  1  0  0  0  0
 16 15  1  0  0  0  0
 17 18  1  0  0  0  0
 17 15  1  0  0  0  0
 17  9  1  0  0  0  0
 19 20  1  0  0  0  0
 19  5  1  0  0  0  0
 20 23  1  0  0  0  0
 20 21  1  0  0  0  0
 22 20  1  0  0  0  0
 23 26  1  0  0  0  0
 23 24  1  0  0  0  0
 25 23  1  0  0  0  0
 26 31  1  0  0  0  0
 27 26  2  0  0  0  0
 28 27  1  0  0  0  0
 28 29  2  0  0  0  0
 29 30  1  0  0  0  0
 30 31  2  0  0  0  0
 30 34  1  0  0  0  0
 32 27  1  0  0  0  0
 33 28  1  0  0  0  0
M  END
>  <minimizedAffinity>
-4.66801643

$$$$

 OpenBabel03272509513D

 34 36  0  0  0  0  0  0  0  0999 V2000
   38.2540   26.9230   36.1570 C   0  0  0  0  0  0  0  0  0  0  0  0
   38.0810   27.1510   34.7740 C   0  0  0  0  0  0  0  0  0  0  0  0
   38.0240   26.0400   33.9490 C   0  0  0  0  0  0  0  0  0  0  0  0
   38.1380   24.7900   34.5140 N   0  0  0  0  0  0  0  0  0  0  0  0
   38.3000   24.6210   35.8290 C   0  0  0  0  0  0  0  0  0  0  0  0
   38.3570   25.6870   36.6440 N   0  0  0  0  0  0  0  0  0  0  0  0
   38.3070   27.7430   36.8610 H   0  0  0  0  0  0  0  0  0  0  0  0
   37.9990   28.1640   34.4000 H   0  0  0  0  0  0  0  0  0  0  0  0
   37.8420   26.2540   32.4920 C   0  0  0  0  0  3  0  0  0  0  0  0
   38.1300   27.6570   32.0950 C   0  0  0  0  0  3  0  0  0  0  0  0
   37.6830   28.4210   32.7500 H   0  0  0  0  0  0  0  0  0  0  0  0
   37.5540   27.9250   30.7190 C   0  0  0  0  0  3  0  0  0  0  0  0
   37.9530   27.2590   29.9330 H   0  0  0  0  0  0  0  0  0  0  0  0
   36.1590   27.8030   30.8570 O   0  0  0  0  0  0  0  0  0  0  0  0
   35.9030   26.4360   30.9080 C   0  0  0  0  0  3  0  0  0  0  0  0
   34.8020   26.2960   30.9130 H   0  0  0  0  0  0  0  0  0  0  0  0
   36.4500   25.7950   32.1550 C   0  0  0  0  0  3  0  0  0  0  0  0
   35.7870   26.0010   33.0200 H   0  0  0  0  0  0  0  0  0  0  0  0
   38.3890   23.2920   36.1610 O   0  0  0  0  0  0  0  0  0  0  0  0
   38.3730   22.3250   35.1220 C   0  0  0  0  0  0  0  0  0  0  0  0
   39.2580   21.6690   35.2410 H   0  0  0  0  0  0  0  0  0  0  0  0
   38.5160   22.8400   34.1510 H   0  0  0  0  0  0  0  0  0  0  0  0
   37.0770   21.5810   35.1190 C   0  0  0  0  0  0  0  0  0  0  0  0
   37.2710   20.5840   35.6010 H   0  0  0  0  0  0  0  0  0  0  0  0
   36.3240   22.1260   35.7240 H   0  0  0  0  0  0  0  0  0  0  0  0
   36.5370   21.3540   33.7440 C   0  0  0  0  0  0  0  0  0  0  0  0
   35.5990   20.3560   33.6140 C   0  0  0  0  0  0  0  0  0  0  0  0
   35.0290   20.0520   32.4000 C   0  0  0  0  0  0  0  0  0  0  0  0
   35.3970   20.7480   31.3150 N   0  0  0  0  0  0  0  0  0  0  0  0
   36.3140   21.7210   31.4590 C   0  0  0  0  0  0  0  0  0  0  0  0
   36.8860   22.0360   32.6330 N   0  0  0  0  0  0  0  0  0  0  0  0
   35.2550   19.7510   34.4570 H   0  0  0  0  0  0  0  0  0  0  0  0
   34.2850   19.2720   32.2540 H   0  0  0  0  0  0  0  0  0  0  0  0
   36.6560   22.3260   30.6070 H   0  0  0  0  0  0  0  0  0  0  0  0
  1  6  1  0  0  0  0
  1  7  1  0  0  0  0
  2  1  2  0  0  0  0
  3  4  2  0  0  0  0
  3  2  1  0  0  0  0
  4  5  1  0  0  0  0
  5 19  1  0  0  0  0
  5  6  2  0  0  0  0
  8  2  1  0  0  0  0
  9  3  1  0  0  0  0
 10  9  1  0  0  0  0
 10 11  1  0  0  0  0
 12 14  1  0  0  0  0
 12 10  1  0  0  0  0
 13 12  1  0  0  0  0
 14 15  1  0  0  0  0
 15 16  1  0  0  0  0
 15 17  1  0  0  0  0
 17  9  1  0  0  0  0
 17 18  1  0  0  0  0
 20 21  1  0  0  0  0
 20 19  1  0  0  0  0
 22 20  1  0  0  0  0
 23 20  1  0  0  0  0
 23 24  1  0  0  0  0
 23 25  1  0  0  0  0
 26 23  1  0  0  0  0
 27 26  1  0  0  0  0
 27 32  1  0  0  0  0
 28 27  2  0  0  0  0
 29 30  2  0  0  0  0
 29 28  1  0  0  0  0
 30 31  1  0  0  0  0
 31 26  2  0  0  0  0
 33 28  1  0  0  0  0
 34 30  1  0  0  0  0
M  END
>  <minimizedAffinity>
-4.66128683

$$$$
