
 OpenBabel03272509093D

 41 44  0  0  0  0  0  0  0  0999 V2000
   33.0650   28.0190   48.0800 C   0  0  0  0  0  0  0  0  0  0  0  0
   32.2300   28.6600   47.7870 H   0  0  0  0  0  0  0  0  0  0  0  0
   32.6520   27.3950   48.9290 H   0  0  0  0  0  0  0  0  0  0  0  0
   33.4730   27.0180   47.0630 C   0  0  0  0  0  0  0  0  0  0  0  0
   33.6510   25.6620   47.3280 C   0  0  0  0  0  0  0  0  0  0  0  0
   34.0270   24.7800   46.3440 C   0  0  0  0  0  0  0  0  0  0  0  0
   34.2410   25.2330   45.0430 C   0  0  0  0  0  0  0  0  0  0  0  0
   34.0680   26.5580   44.7810 C   0  0  0  0  0  0  0  0  0  0  0  0
   33.6890   27.4510   45.7670 C   0  0  0  0  0  0  0  0  0  0  0  0
   33.4560   25.4310   48.3760 H   0  0  0  0  0  0  0  0  0  0  0  0
   34.1100   23.7840   46.7580 H   0  0  0  0  0  0  0  0  0  0  0  0
   34.5320   24.4470   44.3620 H   0  0  0  0  0  0  0  0  0  0  0  0
   34.2610   26.7970   43.7450 H   0  0  0  0  0  0  0  0  0  0  0  0
   33.5650   28.8470   45.2890 C   0  0  0  0  0  3  0  0  0  0  0  0
   34.9490   29.3120   44.8520 C   0  0  0  0  0  3  0  0  0  0  0  0
   35.3810   28.4360   44.2820 H   0  0  0  0  0  0  0  0  0  0  0  0
   34.9130   30.5290   43.9820 C   0  0  0  0  0  3  0  0  0  0  0  0
   35.2110   31.4340   44.5540 H   0  0  0  0  0  0  0  0  0  0  0  0
   33.7480   30.7010   43.2710 O   0  0  0  0  0  0  0  0  0  0  0  0
   33.2930   29.4220   42.8830 C   0  0  0  0  0  3  0  0  0  0  0  0
   34.1570   28.7940   42.5830 H   0  0  0  0  0  0  0  0  0  0  0  0
   32.5920   28.8780   44.1350 C   0  0  0  0  0  3  0  0  0  0  0  0
   32.0700   27.9460   43.9390 H   0  0  0  0  0  0  0  0  0  0  0  0
   35.1150   28.3000   49.4850 C   0  0  0  0  0  3  0  0  0  0  0  0
   34.1910   28.7570   48.6750 C   0  0  0  0  0  3  0  0  0  0  0  0
   37.4000   30.2030   51.5960 C   0  0  0  0  0  0  0  0  0  0  0  0
   38.0900   30.9830   50.6390 C   0  0  0  0  0  0  0  0  0  0  0  0
   37.7420   30.8240   49.2880 C   0  0  0  0  0  0  0  0  0  0  0  0
   36.7560   29.9300   48.9640 N   0  0  0  0  0  0  0  0  0  0  0  0
   36.1370   29.2160   49.9450 C   0  0  0  0  0  0  0  0  0  0  0  0
   36.4530   29.3510   51.2310 N   0  0  0  0  0  0  0  0  0  0  0  0
   37.6850   30.3390   52.6460 H   0  0  0  0  0  0  0  0  0  0  0  0
   38.8640   31.6870   50.8800 H   0  0  0  0  0  0  0  0  0  0  0  0
   38.3900   31.5830   48.2120 C   0  0  0  0  0  0  0  0  0  0  0  0
   38.5940   31.0600   46.9580 C   0  0  0  0  0  0  0  0  0  0  0  0
   39.2260   32.0420   46.1940 C   0  0  0  0  0  0  0  0  0  0  0  0
   39.3780   33.1150   47.0120 N   0  0  0  0  0  0  0  0  0  0  0  0
   38.8780   32.8250   48.2000 N   0  0  0  0  0  0  0  0  0  0  0  0
   38.3160   30.0670   46.6220 H   0  0  0  0  0  0  0  0  0  0  0  0
   39.5270   31.9490   45.1570 H   0  0  0  0  0  0  0  0  0  0  0  0
   39.8210   34.0230   46.7380 H   0  0  0  0  0  0  0  0  0  0  0  0
  1 25  1  0  0  0  0
  1  3  1  0  0  0  0
  2  1  1  0  0  0  0
  4  5  1  0  0  0  0
  4  1  1  0  0  0  0
  5 10  1  0  0  0  0
  6 11  1  0  0  0  0
  6  5  2  0  0  0  0
  7  6  1  0  0  0  0
  8  7  2  0  0  0  0
  8  9  1  0  0  0  0
  9  4  2  0  0  0  0
 12  7  1  0  0  0  0
 13  8  1  0  0  0  0
 14  9  1  0  0  0  0
 15 14  1  0  0  0  0
 16 15  1  0  0  0  0
 17 18  1  0  0  0  0
 17 15  1  0  0  0  0
 19 17  1  0  0  0  0
 20 19  1  0  0  0  0
 20 22  1  0  0  0  0
 21 20  1  0  0  0  0
 22 14  1  0  0  0  0
 23 22  1  0  0  0  0
 24 30  1  0  0  0  0
 25 24  2  0  0  0  0
 26 32  1  0  0  0  0
 27 33  1  0  0  0  0
 27 26  2  0  0  0  0
 28 27  1  0  0  0  0
 29 28  2  0  0  0  0
 29 30  1  0  0  0  0
 30 31  2  0  0  0  0
 31 26  1  0  0  0  0
 34 28  1  0  0  0  0
 35 34  1  0  0  0  0
 36 35  2  0  0  0  0
 36 37  1  0  0  0  0
 37 38  1  0  0  0  0
 38 34  2  0  0  0  0
 39 35  1  0  0  0  0
 40 36  1  0  0  0  0
 41 37  1  0  0  0  0
M  END
>  <minimizedAffinity>
-6.22844172

>  <minimizedRMSD>
0.489580005

$$$$
