
     RDKit          3D

 51 53  0  0  0  0  0  0  0  0999 V2000
   37.4323   31.3112   45.3859 C   0  0  2  0  0  0  0  0  0  0  0  0
   38.3508   30.8081   44.3712 C   0  0  0  0  0  0  0  0  0  0  0  0
   39.6683   30.3130   44.9569 C   0  0  0  0  0  0  0  0  0  0  0  0
   40.3703   31.3562   45.7679 C   0  0  0  0  0  0  0  0  0  0  0  0
   39.4520   32.2111   46.5713 C   0  0  0  0  0  0  0  0  0  0  0  0
   38.0716   31.5737   46.7241 C   0  0  2  0  0  0  0  0  0  0  0  0
   36.2507   30.4838   45.6295 C   0  0  0  0  0  0  0  0  0  0  0  0
   35.8662   29.6905   44.5441 C   0  0  0  0  0  0  0  0  0  0  0  0
   34.7614   28.8738   44.7312 C   0  0  0  0  0  0  0  0  0  0  0  0
   34.1105   28.8767   45.9303 N   0  0  0  0  0  0  0  0  0  0  0  0
   34.5110   29.6559   46.9501 C   0  0  0  0  0  0  0  0  0  0  0  0
   35.5485   30.4134   46.7562 N   0  0  0  0  0  0  0  0  0  0  0  0
   38.2122   30.5367   47.6351 N   0  0  0  0  0  0  0  0  0  0  0  0
   37.6328   30.7787   49.2037 S   0  0  1  0  0  0  0  0  0  0  0  0
   38.8988   30.9668   50.0482 O   0  0  0  0  0  0  0  0  0  0  0  0
   36.7804   31.9115   49.3455 O   0  0  0  0  0  0  0  0  0  0  0  0
   36.9259   29.3884   49.8219 O   0  0  0  0  0  0  0  0  0  0  0  0
   36.7916   29.4093   51.1957 C   0  0  0  0  0  0  0  0  0  0  0  0
   37.7586   28.6439   51.7765 F   0  0  0  0  0  0  0  0  0  0  0  0
   37.0332   30.7049   51.6016 F   0  0  0  0  0  0  0  0  0  0  0  0
   35.5117   29.0985   51.6361 F   0  0  0  0  0  0  0  0  0  0  0  0
   37.0290   32.3028   45.0192 H   0  0  0  0  0  0  0  0  0  0  0  0
   38.6432   31.5628   43.6042 H   0  0  0  0  0  0  0  0  0  0  0  0
   37.9764   29.9447   43.8055 H   0  0  0  0  0  0  0  0  0  0  0  0
   39.4771   29.3651   45.4790 H   0  0  0  0  0  0  0  0  0  0  0  0
   40.3126   30.0840   44.0852 H   0  0  0  0  0  0  0  0  0  0  0  0
   41.0206   30.8098   46.5066 H   0  0  0  0  0  0  0  0  0  0  0  0
   41.0806   31.9582   45.1450 H   0  0  0  0  0  0  0  0  0  0  0  0
   39.8174   32.5636   47.5309 H   0  0  0  0  0  0  0  0  0  0  0  0
   39.2543   33.1350   45.9526 H   0  0  0  0  0  0  0  0  0  0  0  0
   37.4746   32.3723   47.2155 H   0  0  0  0  0  0  0  0  0  0  0  0
   36.1922   29.5279   43.5385 H   0  0  0  0  0  0  0  0  0  0  0  0
   34.2863   28.1846   44.0512 H   0  0  0  0  0  0  0  0  0  0  0  0
   34.0092   29.6701   47.8998 H   0  0  0  0  0  0  0  0  0  0  0  0
   37.9159   29.5855   47.3117 H   0  0  0  0  0  0  0  0  0  0  0  0
   39.5002   31.7049   49.8365 H   0  0  0  0  0  0  0  0  0  0  0  0
   35.6948   32.4665   49.7909 C   0  0  2  0  0  0  0  0  0  0  0  0
   34.4776   31.8717   49.1124 C   0  0  2  0  0  0  0  0  0  0  0  0
   34.1137   30.9686   49.6390 H   0  0  0  0  0  0  0  0  0  0  0  0
   33.3214   32.8587   49.1060 C   0  0  1  0  0  0  0  0  0  0  0  0
   33.3143   33.4699   48.1630 H   0  0  0  0  0  0  0  0  0  0  0  0
   33.2921   33.6283   50.2423 O   0  0  0  0  0  0  0  0  0  0  0  0
   34.4020   34.4445   50.3520 C   0  0  1  0  0  0  0  0  0  0  0  0
   34.1813   35.5153   50.1878 H   0  0  0  0  0  0  0  0  0  0  0  0
   35.5565   33.9726   49.4940 C   0  0  1  0  0  0  0  0  0  0  0  0
   36.4395   34.5483   49.7564 H   0  0  0  0  0  0  0  0  0  0  0  0
   35.5240   32.3788   50.8849 H   0  0  0  0  0  0  0  0  0  0  0  0
   34.6420   31.6362   48.0420 H   0  0  0  0  0  0  0  0  0  0  0  0
   32.3915   32.2597   49.0626 H   0  0  0  0  0  0  0  0  0  0  0  0
   34.7650   34.3672   51.4068 H   0  0  0  0  0  0  0  0  0  0  0  0
   35.3819   34.1438   48.4119 H   0  0  0  0  0  0  0  0  0  0  0  0
  1  7  1  0
  1  6  1  0
  2  3  1  0
  2  1  1  0
  3  4  1  0
  4  5  1  0
  5  6  1  0
  6 13  1  0
  7 12  2  0
  8  9  2  0
  8  7  1  0
  9 10  1  0
 10 11  2  0
 12 11  1  0
 13 14  1  0
 14 16  1  6
 14 17  1  0
 14 15  1  0
 17 18  1  0
 18 20  1  0
 18 21  1  0
 18 19  1  0
  1 22  1  6
  2 23  1  0
  2 24  1  0
  3 25  1  0
  3 26  1  0
  4 27  1  0
  4 28  1  0
  5 29  1  0
  5 30  1  0
  6 31  1  1
  8 32  1  0
  9 33  1  0
 11 34  1  0
 13 35  1  0
 15 36  1  0
 37 38  1  0
 38 39  1  1
 38 40  1  0
 40 41  1  6
 40 42  1  0
 42 43  1  0
 43 44  1  6
 43 45  1  0
 45 46  1  1
 45 37  1  0
 37 47  1  1
 38 48  1  0
 40 49  1  0
 43 50  1  0
 45 51  1  0
 16 37  1  0
M  ISO  8  22  13  23  13  24  13  25  13  26  13  27  13  28  13  29  13
M  ISO  8  30  13  31  13  32  14  33  14  34  14  35   5  36   3  39  15
M  ISO  3  41  15  44  15  46  15
M  END
>  <DihAtoms>  (1) 
13,15,36,37

>  <DihDeg>  (1) 
-126.32571129287167

$$$$
