
 OpenBabel03272505273D

 32 34  0  0  0  0  0  0  0  0999 V2000
   37.5080   31.0530   47.0290 N   0  0  0  0  0  0  0  0  0  0  0  0
   36.9980   30.5880   45.8570 C   0  0  0  0  0  0  0  0  0  0  0  0
   37.5020   30.9860   44.6260 C   0  0  0  0  0  0  0  0  0  0  0  0
   38.5730   31.8970   44.6330 C   0  0  0  0  0  0  0  0  0  0  0  0
   39.0580   32.2810   43.5450 O   0  0  0  0  0  0  0  0  0  0  0  0
   39.0800   32.3570   45.8210 N   0  0  0  0  0  0  0  0  0  0  0  0
   38.5100   31.9010   46.9280 C   0  0  0  0  0  0  0  0  0  0  0  0
   39.0010   32.3490   47.9920 O   0  0  0  0  0  0  0  0  0  0  0  0
   36.1720   29.8870   45.8770 H   0  0  0  0  0  0  0  0  0  0  0  0
   36.9190   30.4600   43.4010 C   0  0  0  0  0  3  0  0  0  0  0  0
   35.4010   30.3960   43.4370 C   0  0  0  0  0  3  0  0  0  0  0  0
   35.0780   29.6350   44.1960 H   0  0  0  0  0  0  0  0  0  0  0  0
   34.9570   29.8630   42.0910 C   0  0  0  0  0  3  0  0  0  0  0  0
   34.5730   28.8130   42.1560 H   0  0  0  0  0  0  0  0  0  0  0  0
   35.9720   29.8390   41.1480 O   0  0  0  0  0  0  0  0  0  0  0  0
   37.0090   28.9860   41.4900 C   0  0  0  0  0  3  0  0  0  0  0  0
   36.8080   27.9470   41.2050 H   0  0  0  0  0  0  0  0  0  0  0  0
   37.4000   29.1110   42.9680 C   0  0  0  0  0  3  0  0  0  0  0  0
   38.4890   28.9600   43.1070 H   0  0  0  0  0  0  0  0  0  0  0  0
   37.2490   29.6940   50.4730 C   0  0  0  0  0  0  0  0  0  0  0  0
   37.7780   30.1010   49.2380 C   0  0  0  0  0  0  0  0  0  0  0  0
   36.9830   30.6410   48.2580 C   0  0  0  0  0  0  0  0  0  0  0  0
   35.6490   30.7690   48.5230 N   0  0  0  0  0  0  0  0  0  0  0  0
   35.1150   30.3800   49.7120 C   0  0  0  0  0  0  0  0  0  0  0  0
   35.9060   29.8440   50.6840 N   0  0  0  0  0  0  0  0  0  0  0  0
   37.8080   29.2660   51.2830 H   0  0  0  0  0  0  0  0  0  0  0  0
   38.8290   29.9110   49.2180 H   0  0  0  0  0  0  0  0  0  0  0  0
   34.0500   30.5160   49.8380 H   0  0  0  0  0  0  0  0  0  0  0  0
   40.1900   33.2920   45.8220 C   0  0  0  0  0  0  0  0  0  0  0  0
   40.0150   34.2390   44.8670 F   0  0  0  0  0  0  0  0  0  0  0  0
   41.3990   32.6780   45.5440 F   0  0  0  0  0  0  0  0  0  0  0  0
   40.2410   33.9260   47.0570 F   0  0  0  0  0  0  0  0  0  0  0  0
  1 22  1  0  0  0  0
  2  9  1  0  0  0  0
  2  1  1  0  0  0  0
  3  4  1  0  0  0  0
  3  2  2  0  0  0  0
  4  6  1  0  0  0  0
  5  4  2  0  0  0  0
  6 29  1  0  0  0  0
  6  7  1  0  0  0  0
  7  1  1  0  0  0  0
  7  8  2  0  0  0  0
 10 11  1  0  0  0  0
 10  3  1  0  0  0  0
 11 12  1  0  0  0  0
 13 14  1  0  0  0  0
 13 11  1  0  0  0  0
 15 16  1  0  0  0  0
 15 13  1  0  0  0  0
 16 18  1  0  0  0  0
 17 16  1  0  0  0  0
 18 19  1  0  0  0  0
 18 10  1  0  0  0  0
 20 25  1  0  0  0  0
 20 26  1  0  0  0  0
 21 20  2  0  0  0  0
 22 23  2  0  0  0  0
 22 21  1  0  0  0  0
 23 24  1  0  0  0  0
 24 28  1  0  0  0  0
 24 25  2  0  0  0  0
 27 21  1  0  0  0  0
 29 32  1  0  0  0  0
 30 29  1  0  0  0  0
 31 29  1  0  0  0  0
M  END
>  <minimizedAffinity>
-6.04404354

>  <minimizedRMSD>
0.616341114

$$$$
