
 OpenBabel03272501593D

 32 34  0  0  0  0  0  0  0  0999 V2000
   37.2660   27.1790   34.6790 C   0  0  0  0  0  0  0  0  0  0  0  0
   38.1690   27.5490   35.6350 C   0  0  0  0  0  0  0  0  0  0  0  0
   38.5340   26.4740   36.4320 C   0  0  0  0  0  0  0  0  0  0  0  0
   37.8070   25.4470   35.9070 N   0  0  0  0  0  0  0  0  0  0  0  0
   37.0790   25.8740   34.8920 N   0  0  0  0  0  0  0  0  0  0  0  0
   38.5470   28.5710   35.7460 H   0  0  0  0  0  0  0  0  0  0  0  0
   39.2320   26.4590   37.2710 H   0  0  0  0  0  0  0  0  0  0  0  0
   37.8720   24.0850   36.4410 C   0  0  0  0  0  3  0  0  0  0  0  0
   37.7610   24.1100   37.9230 C   0  0  0  0  0  3  0  0  0  0  0  0
   36.9340   23.4570   38.3160 H   0  0  0  0  0  0  0  0  0  0  0  0
   39.0040   23.7650   38.6790 C   0  0  0  0  0  3  0  0  0  0  0  0
   39.7030   24.6100   38.8100 H   0  0  0  0  0  0  0  0  0  0  0  0
   39.5820   22.6510   38.1170 O   0  0  0  0  0  0  0  0  0  0  0  0
   40.1100   23.0440   36.8970 C   0  0  0  0  0  3  0  0  0  0  0  0
   40.8370   23.8760   37.0120 H   0  0  0  0  0  0  0  0  0  0  0  0
   39.0480   23.3650   35.8830 C   0  0  0  0  0  3  0  0  0  0  0  0
   39.5300   23.9680   35.0830 H   0  0  0  0  0  0  0  0  0  0  0  0
   36.6610   28.0910   33.6490 C   0  0  0  0  0  0  0  0  0  0  0  0
   35.6040   27.7720   33.5620 H   0  0  0  0  0  0  0  0  0  0  0  0
   36.7760   29.1290   33.9800 H   0  0  0  0  0  0  0  0  0  0  0  0
   37.3550   27.7710   32.3450 C   0  0  0  0  0  0  0  0  0  0  0  0
   38.4420   27.5770   32.5110 H   0  0  0  0  0  0  0  0  0  0  0  0
   37.2690   28.6010   31.6130 H   0  0  0  0  0  0  0  0  0  0  0  0
   37.0890   24.3270   31.0280 C   0  0  0  0  0  0  0  0  0  0  0  0
   35.7270   24.2260   30.7280 C   0  0  0  0  0  0  0  0  0  0  0  0
   34.8960   25.3450   30.9790 C   0  0  0  0  0  0  0  0  0  0  0  0
   35.4760   26.4570   31.4990 N   0  0  0  0  0  0  0  0  0  0  0  0
   36.7950   26.5110   31.7740 C   0  0  0  0  0  0  0  0  0  0  0  0
   37.5880   25.4600   31.5410 N   0  0  0  0  0  0  0  0  0  0  0  0
   37.7960   23.5180   30.8670 H   0  0  0  0  0  0  0  0  0  0  0  0
   35.3480   23.3000   30.3150 H   0  0  0  0  0  0  0  0  0  0  0  0
   33.8470   25.2720   30.7500 H   0  0  0  0  0  0  0  0  0  0  0  0
  1  5  2  0  0  0  0
  1  2  1  0  0  0  0
  2  6  1  0  0  0  0
  2  3  2  0  0  0  0
  3  7  1  0  0  0  0
  4  3  1  0  0  0  0
  4  8  1  0  0  0  0
  5  4  1  0  0  0  0
  8  9  1  0  0  0  0
  9 10  1  0  0  0  0
  9 11  1  0  0  0  0
 11 12  1  0  0  0  0
 13 11  1  0  0  0  0
 14 15  1  0  0  0  0
 14 13  1  0  0  0  0
 16  8  1  0  0  0  0
 16 14  1  0  0  0  0
 17 16  1  0  0  0  0
 18 20  1  0  0  0  0
 18  1  1  0  0  0  0
 19 18  1  0  0  0  0
 21 22  1  0  0  0  0
 21 18  1  0  0  0  0
 23 21  1  0  0  0  0
 24 29  1  0  0  0  0
 25 26  1  0  0  0  0
 25 24  2  0  0  0  0
 26 27  2  0  0  0  0
 27 28  1  0  0  0  0
 28 21  1  0  0  0  0
 29 28  2  0  0  0  0
 30 24  1  0  0  0  0
 31 25  1  0  0  0  0
 32 26  1  0  0  0  0
M  END
>  <minimizedAffinity>
-4.86342144

$$$$

 OpenBabel03272501593D

 32 34  0  0  0  0  0  0  0  0999 V2000
   37.3850   24.3670   32.4540 C   0  0  0  0  0  0  0  0  0  0  0  0
   37.0100   25.6370   32.7910 C   0  0  0  0  0  0  0  0  0  0  0  0
   37.5220   26.0080   34.0250 C   0  0  0  0  0  0  0  0  0  0  0  0
   38.2200   24.9010   34.4080 N   0  0  0  0  0  0  0  0  0  0  0  0
   38.1310   23.9610   33.4850 N   0  0  0  0  0  0  0  0  0  0  0  0
   36.3810   26.2690   32.1550 H   0  0  0  0  0  0  0  0  0  0  0  0
   37.3950   26.9540   34.5540 H   0  0  0  0  0  0  0  0  0  0  0  0
   38.9480   24.8320   35.6770 C   0  0  0  0  0  3  0  0  0  0  0  0
   39.9300   23.7170   35.6440 C   0  0  0  0  0  3  0  0  0  0  0  0
   40.9790   24.0430   35.8840 H   0  0  0  0  0  0  0  0  0  0  0  0
   39.6160   22.5400   36.5110 C   0  0  0  0  0  3  0  0  0  0  0  0
   38.9180   21.8150   36.0550 H   0  0  0  0  0  0  0  0  0  0  0  0
   39.2210   22.9840   37.7520 O   0  0  0  0  0  0  0  0  0  0  0  0
   37.9630   23.5470   37.5950 C   0  0  0  0  0  3  0  0  0  0  0  0
   37.2390   22.8230   37.1630 H   0  0  0  0  0  0  0  0  0  0  0  0
   37.9970   24.8340   36.8200 C   0  0  0  0  0  3  0  0  0  0  0  0
   36.9620   25.0310   36.4660 H   0  0  0  0  0  0  0  0  0  0  0  0
   37.0080   23.6510   31.1880 C   0  0  0  0  0  0  0  0  0  0  0  0
   36.9640   24.4370   30.4100 H   0  0  0  0  0  0  0  0  0  0  0  0
   37.7540   22.8760   30.9810 H   0  0  0  0  0  0  0  0  0  0  0  0
   35.6070   23.1270   31.4030 C   0  0  0  0  0  0  0  0  0  0  0  0
   35.0180   23.1700   30.4550 H   0  0  0  0  0  0  0  0  0  0  0  0
   35.0560   23.7120   32.1680 H   0  0  0  0  0  0  0  0  0  0  0  0
   35.5010   20.0170   33.3990 C   0  0  0  0  0  0  0  0  0  0  0  0
   35.7700   19.0360   32.4390 C   0  0  0  0  0  0  0  0  0  0  0  0
   35.9880   19.4440   31.1010 C   0  0  0  0  0  0  0  0  0  0  0  0
   35.9230   20.7730   30.8280 N   0  0  0  0  0  0  0  0  0  0  0  0
   35.6620   21.6860   31.7850 C   0  0  0  0  0  0  0  0  0  0  0  0
   35.4540   21.3100   33.0520 N   0  0  0  0  0  0  0  0  0  0  0  0
   35.3220   19.7920   34.4470 H   0  0  0  0  0  0  0  0  0  0  0  0
   35.8030   17.9990   32.7450 H   0  0  0  0  0  0  0  0  0  0  0  0
   36.1950   18.6940   30.3590 H   0  0  0  0  0  0  0  0  0  0  0  0
  1  2  1  0  0  0  0
  1  5  2  0  0  0  0
  2  3  2  0  0  0  0
  3  4  1  0  0  0  0
  3  7  1  0  0  0  0
  4  8  1  0  0  0  0
  5  4  1  0  0  0  0
  6  2  1  0  0  0  0
  8 16  1  0  0  0  0
  9  8  1  0  0  0  0
  9 10  1  0  0  0  0
  9 11  1  0  0  0  0
 11 13  1  0  0  0  0
 12 11  1  0  0  0  0
 14 13  1  0  0  0  0
 15 14  1  0  0  0  0
 16 14  1  0  0  0  0
 17 16  1  0  0  0  0
 18 21  1  0  0  0  0
 18  1  1  0  0  0  0
 19 18  1  0  0  0  0
 20 18  1  0  0  0  0
 21 28  1  0  0  0  0
 21 23  1  0  0  0  0
 22 21  1  0  0  0  0
 24 30  1  0  0  0  0
 25 31  1  0  0  0  0
 25 24  2  0  0  0  0
 26 25  1  0  0  0  0
 27 26  2  0  0  0  0
 27 28  1  0  0  0  0
 28 29  2  0  0  0  0
 29 24  1  0  0  0  0
 32 26  1  0  0  0  0
M  END
>  <minimizedAffinity>
-4.85542679

$$$$

 OpenBabel03272501593D

 32 34  0  0  0  0  0  0  0  0999 V2000
   35.9540   24.5170   31.5370 C   0  0  0  0  0  0  0  0  0  0  0  0
   35.2930   25.5680   30.9660 C   0  0  0  0  0  0  0  0  0  0  0  0
   35.7320   26.7810   31.4740 C   0  0  0  0  0  0  0  0  0  0  0  0
   36.6850   26.4050   32.3740 N   0  0  0  0  0  0  0  0  0  0  0  0
   36.8000   25.0900   32.3970 N   0  0  0  0  0  0  0  0  0  0  0  0
   34.5160   25.4500   30.2030 H   0  0  0  0  0  0  0  0  0  0  0  0
   35.3950   27.7860   31.2150 H   0  0  0  0  0  0  0  0  0  0  0  0
   37.4390   27.3750   33.1720 C   0  0  0  0  0  3  0  0  0  0  0  0
   38.8980   27.1510   33.0040 C   0  0  0  0  0  3  0  0  0  0  0  0
   39.4520   28.0710   32.6720 H   0  0  0  0  0  0  0  0  0  0  0  0
   39.6180   26.5980   34.1940 C   0  0  0  0  0  3  0  0  0  0  0  0
   39.5540   25.4990   34.2900 H   0  0  0  0  0  0  0  0  0  0  0  0
   39.2180   27.2770   35.3210 O   0  0  0  0  0  0  0  0  0  0  0  0
   37.9150   26.8820   35.5860 C   0  0  0  0  0  3  0  0  0  0  0  0
   37.8360   25.7820   35.7150 H   0  0  0  0  0  0  0  0  0  0  0  0
   36.9350   27.3990   34.5710 C   0  0  0  0  0  3  0  0  0  0  0  0
   36.0130   26.7850   34.6640 H   0  0  0  0  0  0  0  0  0  0  0  0
   35.7280   23.0660   31.2180 C   0  0  0  0  0  0  0  0  0  0  0  0
   34.6300   22.9540   31.1300 H   0  0  0  0  0  0  0  0  0  0  0  0
   36.2660   22.8150   30.2980 H   0  0  0  0  0  0  0  0  0  0  0  0
   36.1800   22.2930   32.4350 C   0  0  0  0  0  0  0  0  0  0  0  0
   35.5110   22.4970   33.3060 H   0  0  0  0  0  0  0  0  0  0  0  0
   37.2140   22.5590   32.7380 H   0  0  0  0  0  0  0  0  0  0  0  0
   35.4640   18.6900   32.8570 C   0  0  0  0  0  0  0  0  0  0  0  0
   35.8940   18.1560   31.6390 C   0  0  0  0  0  0  0  0  0  0  0  0
   36.4320   19.0360   30.6680 C   0  0  0  0  0  0  0  0  0  0  0  0
   36.4980   20.3550   30.9800 N   0  0  0  0  0  0  0  0  0  0  0  0
   36.0720   20.8290   32.1700 C   0  0  0  0  0  0  0  0  0  0  0  0
   35.5630   20.0060   33.0920 N   0  0  0  0  0  0  0  0  0  0  0  0
   35.0400   18.0880   33.6550 H   0  0  0  0  0  0  0  0  0  0  0  0
   35.8040   17.0910   31.4720 H   0  0  0  0  0  0  0  0  0  0  0  0
   36.7630   18.6290   29.7290 H   0  0  0  0  0  0  0  0  0  0  0  0
  1  5  2  0  0  0  0
  2  3  2  0  0  0  0
  2  1  1  0  0  0  0
  3  4  1  0  0  0  0
  4  5  1  0  0  0  0
  4  8  1  0  0  0  0
  6  2  1  0  0  0  0
  7  3  1  0  0  0  0
  8 16  1  0  0  0  0
  9  8  1  0  0  0  0
  9 11  1  0  0  0  0
 10  9  1  0  0  0  0
 11 12  1  0  0  0  0
 11 13  1  0  0  0  0
 13 14  1  0  0  0  0
 14 15  1  0  0  0  0
 16 17  1  0  0  0  0
 16 14  1  0  0  0  0
 18  1  1  0  0  0  0
 18 21  1  0  0  0  0
 19 18  1  0  0  0  0
 20 18  1  0  0  0  0
 21 23  1  0  0  0  0
 21 22  1  0  0  0  0
 24 29  1  0  0  0  0
 24 30  1  0  0  0  0
 25 24  2  0  0  0  0
 26 27  2  0  0  0  0
 26 25  1  0  0  0  0
 27 28  1  0  0  0  0
 28 21  1  0  0  0  0
 28 29  2  0  0  0  0
 31 25  1  0  0  0  0
 32 26  1  0  0  0  0
M  END
>  <minimizedAffinity>
-4.8541708

$$$$

 OpenBabel03272501593D

 32 34  0  0  0  0  0  0  0  0999 V2000
   37.3560   26.9280   33.4780 C   0  0  0  0  0  0  0  0  0  0  0  0
   37.8850   27.5650   32.3900 C   0  0  0  0  0  0  0  0  0  0  0  0
   37.7330   26.8110   31.2360 C   0  0  0  0  0  0  0  0  0  0  0  0
   37.0910   25.6960   31.6860 N   0  0  0  0  0  0  0  0  0  0  0  0
   36.8800   25.7810   32.9860 N   0  0  0  0  0  0  0  0  0  0  0  0
   38.3650   28.5480   32.4410 H   0  0  0  0  0  0  0  0  0  0  0  0
   38.0520   27.0550   30.2210 H   0  0  0  0  0  0  0  0  0  0  0  0
   36.7140   24.5940   30.7970 C   0  0  0  0  0  3  0  0  0  0  0  0
   35.5150   23.8950   31.3280 C   0  0  0  0  0  3  0  0  0  0  0  0
   34.6730   23.8330   30.5860 H   0  0  0  0  0  0  0  0  0  0  0  0
   35.7430   22.5170   31.8640 C   0  0  0  0  0  3  0  0  0  0  0  0
   36.1060   22.4920   32.9070 H   0  0  0  0  0  0  0  0  0  0  0  0
   36.5360   21.8150   30.9860 O   0  0  0  0  0  0  0  0  0  0  0  0
   37.8100   22.3540   31.0750 C   0  0  0  0  0  3  0  0  0  0  0  0
   38.2030   22.3120   32.1130 H   0  0  0  0  0  0  0  0  0  0  0  0
   37.8950   23.7400   30.5010 C   0  0  0  0  0  3  0  0  0  0  0  0
   38.8220   24.2050   30.9010 H   0  0  0  0  0  0  0  0  0  0  0  0
   37.3470   27.4590   34.8830 C   0  0  0  0  0  0  0  0  0  0  0  0
   37.2090   28.5530   34.7800 H   0  0  0  0  0  0  0  0  0  0  0  0
   36.5430   26.9710   35.4440 H   0  0  0  0  0  0  0  0  0  0  0  0
   38.7320   27.2130   35.4350 C   0  0  0  0  0  0  0  0  0  0  0  0
   38.8880   27.7800   36.3840 H   0  0  0  0  0  0  0  0  0  0  0  0
   39.5260   27.5240   34.7240 H   0  0  0  0  0  0  0  0  0  0  0  0
   40.0080   23.7450   35.5720 C   0  0  0  0  0  0  0  0  0  0  0  0
   39.1230   23.1370   36.4670 C   0  0  0  0  0  0  0  0  0  0  0  0
   38.0840   23.9200   37.0260 C   0  0  0  0  0  0  0  0  0  0  0  0
   38.0080   25.2240   36.6570 N   0  0  0  0  0  0  0  0  0  0  0  0
   38.8830   25.7710   35.7890 C   0  0  0  0  0  0  0  0  0  0  0  0
   39.8680   25.0400   35.2560 N   0  0  0  0  0  0  0  0  0  0  0  0
   40.8310   23.2190   35.0970 H   0  0  0  0  0  0  0  0  0  0  0  0
   39.2560   22.0900   36.7060 H   0  0  0  0  0  0  0  0  0  0  0  0
   37.4010   23.4560   37.7160 H   0  0  0  0  0  0  0  0  0  0  0  0
  1 18  1  0  0  0  0
  2  6  1  0  0  0  0
  2  1  1  0  0  0  0
  3  4  1  0  0  0  0
  3  2  2  0  0  0  0
  4  5  1  0  0  0  0
  5  1  2  0  0  0  0
  7  3  1  0  0  0  0
  8  9  1  0  0  0  0
  8  4  1  0  0  0  0
  9 11  1  0  0  0  0
 10  9  1  0  0  0  0
 11 12  1  0  0  0  0
 13 14  1  0  0  0  0
 13 11  1  0  0  0  0
 14 15  1  0  0  0  0
 16  8  1  0  0  0  0
 16 17  1  0  0  0  0
 16 14  1  0  0  0  0
 18 21  1  0  0  0  0
 18 20  1  0  0  0  0
 19 18  1  0  0  0  0
 21 28  1  0  0  0  0
 21 22  1  0  0  0  0
 23 21  1  0  0  0  0
 24 25  1  0  0  0  0
 25 31  1  0  0  0  0
 25 26  2  0  0  0  0
 26 32  1  0  0  0  0
 27 26  1  0  0  0  0
 28 27  2  0  0  0  0
 29 24  2  0  0  0  0
 29 28  1  0  0  0  0
 30 24  1  0  0  0  0
M  END
>  <minimizedAffinity>
-4.78762865

$$$$

 OpenBabel03272501593D

 32 34  0  0  0  0  0  0  0  0999 V2000
   37.4510   24.4410   32.7580 C   0  0  0  0  0  0  0  0  0  0  0  0
   36.4830   25.0200   31.9860 C   0  0  0  0  0  0  0  0  0  0  0  0
   35.7020   24.0670   31.3500 C   0  0  0  0  0  0  0  0  0  0  0  0
   36.2480   22.8940   31.7780 N   0  0  0  0  0  0  0  0  0  0  0  0
   37.2600   23.1300   32.5940 N   0  0  0  0  0  0  0  0  0  0  0  0
   36.3540   26.1040   31.8910 H   0  0  0  0  0  0  0  0  0  0  0  0
   34.8600   24.2230   30.6740 H   0  0  0  0  0  0  0  0  0  0  0  0
   35.7360   21.5880   31.3560 C   0  0  0  0  0  3  0  0  0  0  0  0
   34.9260   20.9800   32.4430 C   0  0  0  0  0  3  0  0  0  0  0  0
   33.8900   20.6920   32.1160 H   0  0  0  0  0  0  0  0  0  0  0  0
   35.5280   19.7920   33.1240 C   0  0  0  0  0  3  0  0  0  0  0  0
   36.2450   20.0450   33.9260 H   0  0  0  0  0  0  0  0  0  0  0  0
   36.0380   18.9370   32.1750 O   0  0  0  0  0  0  0  0  0  0  0  0
   37.1670   19.5470   31.6500 C   0  0  0  0  0  3  0  0  0  0  0  0
   37.9120   19.7840   32.4390 H   0  0  0  0  0  0  0  0  0  0  0  0
   36.8380   20.7500   30.8110 C   0  0  0  0  0  3  0  0  0  0  0  0
   37.7700   21.3480   30.7150 H   0  0  0  0  0  0  0  0  0  0  0  0
   38.4680   25.1780   33.5820 C   0  0  0  0  0  0  0  0  0  0  0  0
   39.2900   24.4540   33.7470 H   0  0  0  0  0  0  0  0  0  0  0  0
   38.7820   26.0770   33.0420 H   0  0  0  0  0  0  0  0  0  0  0  0
   37.8120   25.4490   34.9160 C   0  0  0  0  0  0  0  0  0  0  0  0
   36.7250   25.1930   34.8840 H   0  0  0  0  0  0  0  0  0  0  0  0
   37.8970   26.5160   35.2130 H   0  0  0  0  0  0  0  0  0  0  0  0
   38.3580   23.6410   38.0950 C   0  0  0  0  0  0  0  0  0  0  0  0
   39.5400   22.9400   37.8400 C   0  0  0  0  0  0  0  0  0  0  0  0
   40.1520   23.0870   36.5710 C   0  0  0  0  0  0  0  0  0  0  0  0
   39.5510   23.9070   35.6720 N   0  0  0  0  0  0  0  0  0  0  0  0
   38.4100   24.5670   35.9600 C   0  0  0  0  0  0  0  0  0  0  0  0
   37.8240   24.4340   37.1550 N   0  0  0  0  0  0  0  0  0  0  0  0
   37.8240   23.5860   39.0390 H   0  0  0  0  0  0  0  0  0  0  0  0
   39.9520   22.3060   38.6140 H   0  0  0  0  0  0  0  0  0  0  0  0
   41.0620   22.5480   36.3700 H   0  0  0  0  0  0  0  0  0  0  0  0
  1 18  1  0  0  0  0
  2  1  1  0  0  0  0
  3  4  1  0  0  0  0
  3  2  2  0  0  0  0
  4  5  1  0  0  0  0
  5  1  2  0  0  0  0
  6  2  1  0  0  0  0
  7  3  1  0  0  0  0
  8  4  1  0  0  0  0
  8  9  1  0  0  0  0
  9 11  1  0  0  0  0
 10  9  1  0  0  0  0
 11 12  1  0  0  0  0
 13 11  1  0  0  0  0
 14 13  1  0  0  0  0
 14 15  1  0  0  0  0
 16  8  1  0  0  0  0
 16 14  1  0  0  0  0
 17 16  1  0  0  0  0
 18 19  1  0  0  0  0
 18 21  1  0  0  0  0
 20 18  1  0  0  0  0
 21 23  1  0  0  0  0
 21 28  1  0  0  0  0
 22 21  1  0  0  0  0
 24 30  1  0  0  0  0
 25 24  1  0  0  0  0
 25 31  1  0  0  0  0
 26 25  2  0  0  0  0
 27 28  2  0  0  0  0
 27 26  1  0  0  0  0
 28 29  1  0  0  0  0
 29 24  2  0  0  0  0
 32 26  1  0  0  0  0
M  END
>  <minimizedAffinity>
-4.75529432

$$$$

 OpenBabel03272501593D

 32 34  0  0  0  0  0  0  0  0999 V2000
   36.4410   24.9730   31.2860 C   0  0  0  0  0  0  0  0  0  0  0  0
   37.5990   24.4010   30.8370 C   0  0  0  0  0  0  0  0  0  0  0  0
   37.4750   23.0250   30.7210 C   0  0  0  0  0  0  0  0  0  0  0  0
   36.1900   22.8020   31.1200 N   0  0  0  0  0  0  0  0  0  0  0  0
   35.6070   23.9420   31.4430 N   0  0  0  0  0  0  0  0  0  0  0  0
   38.5040   24.9730   30.6040 H   0  0  0  0  0  0  0  0  0  0  0  0
   38.2230   22.3030   30.3910 H   0  0  0  0  0  0  0  0  0  0  0  0
   35.6010   21.4620   31.1610 C   0  0  0  0  0  3  0  0  0  0  0  0
   34.9410   21.2330   32.4730 C   0  0  0  0  0  3  0  0  0  0  0  0
   33.8640   20.9240   32.3780 H   0  0  0  0  0  0  0  0  0  0  0  0
   35.6110   20.2530   33.3820 C   0  0  0  0  0  3  0  0  0  0  0  0
   36.4380   20.6820   33.9780 H   0  0  0  0  0  0  0  0  0  0  0  0
   35.9690   19.1370   32.6620 O   0  0  0  0  0  0  0  0  0  0  0  0
   37.0230   19.5100   31.8420 C   0  0  0  0  0  3  0  0  0  0  0  0
   37.8750   19.9170   32.4270 H   0  0  0  0  0  0  0  0  0  0  0  0
   36.6010   20.4430   30.7430 C   0  0  0  0  0  3  0  0  0  0  0  0
   37.5210   20.9350   30.3590 H   0  0  0  0  0  0  0  0  0  0  0  0
   36.2270   26.4400   31.5240 C   0  0  0  0  0  0  0  0  0  0  0  0
   35.7420   26.8180   30.6030 H   0  0  0  0  0  0  0  0  0  0  0  0
   35.6130   26.5700   32.4220 H   0  0  0  0  0  0  0  0  0  0  0  0
   37.6030   27.0580   31.6140 C   0  0  0  0  0  0  0  0  0  0  0  0
   37.5930   28.1080   31.2350 H   0  0  0  0  0  0  0  0  0  0  0  0
   38.3530   26.4940   31.0210 H   0  0  0  0  0  0  0  0  0  0  0  0
   37.5180   27.5560   35.2770 C   0  0  0  0  0  0  0  0  0  0  0  0
   38.8390   27.2830   35.6460 C   0  0  0  0  0  0  0  0  0  0  0  0
   39.7620   26.9240   34.6340 C   0  0  0  0  0  0  0  0  0  0  0  0
   39.3070   26.8680   33.3560 N   0  0  0  0  0  0  0  0  0  0  0  0
   38.0240   27.1420   33.0430 C   0  0  0  0  0  0  0  0  0  0  0  0
   37.1440   27.4800   33.9920 N   0  0  0  0  0  0  0  0  0  0  0  0
   36.7470   27.8380   35.9880 H   0  0  0  0  0  0  0  0  0  0  0  0
   39.1160   27.3510   36.6900 H   0  0  0  0  0  0  0  0  0  0  0  0
   40.7790   26.7120   34.9130 H   0  0  0  0  0  0  0  0  0  0  0  0
  1  5  2  0  0  0  0
  1 18  1  0  0  0  0
  2  1  1  0  0  0  0
  3  2  2  0  0  0  0
  3  4  1  0  0  0  0
  4  8  1  0  0  0  0
  4  5  1  0  0  0  0
  6  2  1  0  0  0  0
  7  3  1  0  0  0  0
  8  9  1  0  0  0  0
  9 11  1  0  0  0  0
 10  9  1  0  0  0  0
 11 12  1  0  0  0  0
 13 11  1  0  0  0  0
 14 15  1  0  0  0  0
 14 13  1  0  0  0  0
 16  8  1  0  0  0  0
 16 14  1  0  0  0  0
 17 16  1  0  0  0  0
 18 21  1  0  0  0  0
 18 20  1  0  0  0  0
 19 18  1  0  0  0  0
 21 28  1  0  0  0  0
 22 21  1  0  0  0  0
 23 21  1  0  0  0  0
 24 25  1  0  0  0  0
 24 30  1  0  0  0  0
 25 31  1  0  0  0  0
 26 32  1  0  0  0  0
 26 25  2  0  0  0  0
 27 26  1  0  0  0  0
 28 27  2  0  0  0  0
 28 29  1  0  0  0  0
 29 24  2  0  0  0  0
M  END
>  <minimizedAffinity>
-4.75362349

$$$$

 OpenBabel03272501593D

 32 34  0  0  0  0  0  0  0  0999 V2000
   38.1120   26.7940   34.0940 C   0  0  0  0  0  0  0  0  0  0  0  0
   37.3650   27.5110   34.9870 C   0  0  0  0  0  0  0  0  0  0  0  0
   36.4300   28.3070   34.3450 C   0  0  0  0  0  0  0  0  0  0  0  0
   36.6530   28.0330   33.0280 N   0  0  0  0  0  0  0  0  0  0  0  0
   37.6300   27.1540   32.9010 N   0  0  0  0  0  0  0  0  0  0  0  0
   37.5020   27.4520   36.0720 H   0  0  0  0  0  0  0  0  0  0  0  0
   35.6990   28.9860   34.7880 H   0  0  0  0  0  0  0  0  0  0  0  0
   35.8800   28.6600   31.9530 C   0  0  0  0  0  3  0  0  0  0  0  0
   36.4930   28.3520   30.6350 C   0  0  0  0  0  3  0  0  0  0  0  0
   35.7730   27.8860   29.9090 H   0  0  0  0  0  0  0  0  0  0  0  0
   37.1560   29.4970   29.9370 C   0  0  0  0  0  3  0  0  0  0  0  0
   38.1920   29.6920   30.2690 H   0  0  0  0  0  0  0  0  0  0  0  0
   36.3390   30.6010   30.0000 O   0  0  0  0  0  0  0  0  0  0  0  0
   36.3570   31.0400   31.3160 C   0  0  0  0  0  3  0  0  0  0  0  0
   37.3890   31.2670   31.6590 H   0  0  0  0  0  0  0  0  0  0  0  0
   35.6510   30.0990   32.2500 C   0  0  0  0  0  3  0  0  0  0  0  0
   35.9910   30.3430   33.2800 H   0  0  0  0  0  0  0  0  0  0  0  0
   39.2110   25.8330   34.4460 C   0  0  0  0  0  0  0  0  0  0  0  0
   39.8450   25.7700   33.5410 H   0  0  0  0  0  0  0  0  0  0  0  0
   39.7460   26.2090   35.3250 H   0  0  0  0  0  0  0  0  0  0  0  0
   38.5480   24.4900   34.6460 C   0  0  0  0  0  0  0  0  0  0  0  0
   39.0670   23.6990   34.0530 H   0  0  0  0  0  0  0  0  0  0  0  0
   37.4830   24.5000   34.3330 H   0  0  0  0  0  0  0  0  0  0  0  0
   37.9090   24.1610   38.2730 C   0  0  0  0  0  0  0  0  0  0  0  0
   38.9280   23.2930   38.6780 C   0  0  0  0  0  0  0  0  0  0  0  0
   39.8390   22.8190   37.7020 C   0  0  0  0  0  0  0  0  0  0  0  0
   39.6660   23.2380   36.4220 N   0  0  0  0  0  0  0  0  0  0  0  0
   38.6690   24.0770   36.0750 C   0  0  0  0  0  0  0  0  0  0  0  0
   37.8040   24.5300   36.9890 N   0  0  0  0  0  0  0  0  0  0  0  0
   37.1700   24.5710   38.9550 H   0  0  0  0  0  0  0  0  0  0  0  0
   38.9920   23.0100   39.7200 H   0  0  0  0  0  0  0  0  0  0  0  0
   40.6240   22.1500   38.0090 H   0  0  0  0  0  0  0  0  0  0  0  0
  1 18  1  0  0  0  0
  1  2  1  0  0  0  0
  2  6  1  0  0  0  0
  3  7  1  0  0  0  0
  3  2  2  0  0  0  0
  4  3  1  0  0  0  0
  5  4  1  0  0  0  0
  5  1  2  0  0  0  0
  8 16  1  0  0  0  0
  8  4  1  0  0  0  0
  9  8  1  0  0  0  0
 10  9  1  0  0  0  0
 11 13  1  0  0  0  0
 11 12  1  0  0  0  0
 11  9  1  0  0  0  0
 13 14  1  0  0  0  0
 14 15  1  0  0  0  0
 14 16  1  0  0  0  0
 16 17  1  0  0  0  0
 18 21  1  0  0  0  0
 18 20  1  0  0  0  0
 19 18  1  0  0  0  0
 21 28  1  0  0  0  0
 22 21  1  0  0  0  0
 23 21  1  0  0  0  0
 24 25  1  0  0  0  0
 24 30  1  0  0  0  0
 25 31  1  0  0  0  0
 26 32  1  0  0  0  0
 26 25  2  0  0  0  0
 27 26  1  0  0  0  0
 28 27  2  0  0  0  0
 28 29  1  0  0  0  0
 29 24  2  0  0  0  0
M  END
>  <minimizedAffinity>
-4.7067728

$$$$

 OpenBabel03272501593D

 32 34  0  0  0  0  0  0  0  0999 V2000
   37.2340   27.7570   34.5850 C   0  0  0  0  0  0  0  0  0  0  0  0
   37.0350   27.4380   33.2710 C   0  0  0  0  0  0  0  0  0  0  0  0
   36.0070   28.1860   32.7160 C   0  0  0  0  0  0  0  0  0  0  0  0
   35.6030   28.9650   33.7600 N   0  0  0  0  0  0  0  0  0  0  0  0
   36.3260   28.7040   34.8340 N   0  0  0  0  0  0  0  0  0  0  0  0
   37.6220   26.6830   32.7370 H   0  0  0  0  0  0  0  0  0  0  0  0
   35.6200   28.1550   31.6960 H   0  0  0  0  0  0  0  0  0  0  0  0
   34.5150   29.9380   33.6390 C   0  0  0  0  0  3  0  0  0  0  0  0
   33.9670   30.2620   34.9820 C   0  0  0  0  0  3  0  0  0  0  0  0
   33.9660   31.3640   35.2060 H   0  0  0  0  0  0  0  0  0  0  0  0
   32.5940   29.7440   35.2720 C   0  0  0  0  0  3  0  0  0  0  0  0
   32.5700   28.6950   35.6170 H   0  0  0  0  0  0  0  0  0  0  0  0
   31.7790   29.9890   34.1910 O   0  0  0  0  0  0  0  0  0  0  0  0
   32.1840   29.1310   33.1800 C   0  0  0  0  0  3  0  0  0  0  0  0
   32.1390   28.0680   33.5010 H   0  0  0  0  0  0  0  0  0  0  0  0
   33.5300   29.4900   32.6190 C   0  0  0  0  0  3  0  0  0  0  0  0
   33.9090   28.5960   32.0770 H   0  0  0  0  0  0  0  0  0  0  0  0
   38.2650   27.1400   35.4860 C   0  0  0  0  0  0  0  0  0  0  0  0
   39.1920   27.7210   35.3100 H   0  0  0  0  0  0  0  0  0  0  0  0
   37.9110   27.1920   36.5220 H   0  0  0  0  0  0  0  0  0  0  0  0
   38.4890   25.7370   34.9730 C   0  0  0  0  0  0  0  0  0  0  0  0
   39.4270   25.6790   34.3690 H   0  0  0  0  0  0  0  0  0  0  0  0
   37.6530   25.3910   34.3280 H   0  0  0  0  0  0  0  0  0  0  0  0
   39.7510   22.9730   37.0790 C   0  0  0  0  0  0  0  0  0  0  0  0
   39.0040   23.1250   38.2510 C   0  0  0  0  0  0  0  0  0  0  0  0
   38.0630   24.1820   38.3190 C   0  0  0  0  0  0  0  0  0  0  0  0
   37.9420   24.9890   37.2340 N   0  0  0  0  0  0  0  0  0  0  0  0
   38.6820   24.8050   36.1220 C   0  0  0  0  0  0  0  0  0  0  0  0
   39.5740   23.8110   36.0490 N   0  0  0  0  0  0  0  0  0  0  0  0
   40.4930   22.1910   36.9420 H   0  0  0  0  0  0  0  0  0  0  0  0
   39.1660   22.4360   39.0690 H   0  0  0  0  0  0  0  0  0  0  0  0
   37.4870   24.3030   39.2190 H   0  0  0  0  0  0  0  0  0  0  0  0
  1  5  2  0  0  0  0
  1 18  1  0  0  0  0
  2  1  1  0  0  0  0
  3  2  2  0  0  0  0
  3  4  1  0  0  0  0
  4  5  1  0  0  0  0
  6  2  1  0  0  0  0
  7  3  1  0  0  0  0
  8  4  1  0  0  0  0
  8  9  1  0  0  0  0
  9 10  1  0  0  0  0
  9 11  1  0  0  0  0
 11 12  1  0  0  0  0
 13 11  1  0  0  0  0
 14 15  1  0  0  0  0
 14 13  1  0  0  0  0
 16 14  1  0  0  0  0
 16  8  1  0  0  0  0
 17 16  1  0  0  0  0
 18 20  1  0  0  0  0
 19 18  1  0  0  0  0
 21 18  1  0  0  0  0
 21 28  1  0  0  0  0
 22 21  1  0  0  0  0
 23 21  1  0  0  0  0
 24 25  1  0  0  0  0
 25 26  2  0  0  0  0
 25 31  1  0  0  0  0
 26 32  1  0  0  0  0
 27 26  1  0  0  0  0
 28 27  2  0  0  0  0
 29 28  1  0  0  0  0
 29 24  2  0  0  0  0
 30 24  1  0  0  0  0
M  END
>  <minimizedAffinity>
-4.69250631

$$$$

 OpenBabel03272501593D

 32 34  0  0  0  0  0  0  0  0999 V2000
   37.2520   27.1720   34.4420 C   0  0  0  0  0  0  0  0  0  0  0  0
   37.9820   27.5190   35.5440 C   0  0  0  0  0  0  0  0  0  0  0  0
   38.3950   26.4010   36.2530 C   0  0  0  0  0  0  0  0  0  0  0  0
   37.8790   25.3720   35.5230 N   0  0  0  0  0  0  0  0  0  0  0  0
   37.2210   25.8370   34.4770 N   0  0  0  0  0  0  0  0  0  0  0  0
   38.2020   28.5560   35.8200 H   0  0  0  0  0  0  0  0  0  0  0  0
   38.9870   26.3600   37.1690 H   0  0  0  0  0  0  0  0  0  0  0  0
   38.0660   23.9690   35.9000 C   0  0  0  0  0  3  0  0  0  0  0  0
   37.7200   23.7730   37.3320 C   0  0  0  0  0  3  0  0  0  0  0  0
   36.9510   22.9700   37.4960 H   0  0  0  0  0  0  0  0  0  0  0  0
   38.8660   23.4930   38.2510 C   0  0  0  0  0  3  0  0  0  0  0  0
   39.3980   24.3970   38.5990 H   0  0  0  0  0  0  0  0  0  0  0  0
   39.6890   22.5530   37.6760 O   0  0  0  0  0  0  0  0  0  0  0  0
   40.3360   23.1780   36.6210 C   0  0  0  0  0  3  0  0  0  0  0  0
   40.9000   24.0740   36.9570 H   0  0  0  0  0  0  0  0  0  0  0  0
   39.4110   23.4950   35.4790 C   0  0  0  0  0  3  0  0  0  0  0  0
   39.9160   24.2600   34.8510 H   0  0  0  0  0  0  0  0  0  0  0  0
   36.6520   28.1310   33.4540 C   0  0  0  0  0  0  0  0  0  0  0  0
   37.5100   28.6890   33.0300 H   0  0  0  0  0  0  0  0  0  0  0  0
   36.0890   27.5650   32.7040 H   0  0  0  0  0  0  0  0  0  0  0  0
   35.8180   29.0990   34.2610 C   0  0  0  0  0  0  0  0  0  0  0  0
   36.4390   29.9560   34.6180 H   0  0  0  0  0  0  0  0  0  0  0  0
   35.3660   28.6170   35.1530 H   0  0  0  0  0  0  0  0  0  0  0  0
   32.5120   29.9880   32.8640 C   0  0  0  0  0  0  0  0  0  0  0  0
   32.8540   30.8050   31.7830 C   0  0  0  0  0  0  0  0  0  0  0  0
   34.2260   31.0520   31.5310 C   0  0  0  0  0  0  0  0  0  0  0  0
   35.1330   30.4770   32.3620 N   0  0  0  0  0  0  0  0  0  0  0  0
   34.7590   29.6940   33.3940 C   0  0  0  0  0  0  0  0  0  0  0  0
   33.4660   29.4550   33.6400 N   0  0  0  0  0  0  0  0  0  0  0  0
   31.4860   29.7470   33.1280 H   0  0  0  0  0  0  0  0  0  0  0  0
   32.0650   31.2230   31.1720 H   0  0  0  0  0  0  0  0  0  0  0  0
   34.4940   31.6810   30.7010 H   0  0  0  0  0  0  0  0  0  0  0  0
  1  5  2  0  0  0  0
  1  2  1  0  0  0  0
  2  6  1  0  0  0  0
  2  3  2  0  0  0  0
  3  7  1  0  0  0  0
  4  8  1  0  0  0  0
  4  3  1  0  0  0  0
  5  4  1  0  0  0  0
  8  9  1  0  0  0  0
  9 10  1  0  0  0  0
  9 11  1  0  0  0  0
 11 12  1  0  0  0  0
 13 11  1  0  0  0  0
 14 15  1  0  0  0  0
 14 13  1  0  0  0  0
 16  8  1  0  0  0  0
 16 14  1  0  0  0  0
 17 16  1  0  0  0  0
 18 21  1  0  0  0  0
 18  1  1  0  0  0  0
 19 18  1  0  0  0  0
 20 18  1  0  0  0  0
 21 22  1  0  0  0  0
 21 23  1  0  0  0  0
 24 30  1  0  0  0  0
 24 29  1  0  0  0  0
 25 24  2  0  0  0  0
 26 25  1  0  0  0  0
 26 27  2  0  0  0  0
 27 28  1  0  0  0  0
 28 29  2  0  0  0  0
 28 21  1  0  0  0  0
 31 25  1  0  0  0  0
 32 26  1  0  0  0  0
M  END
>  <minimizedAffinity>
-4.67098999

$$$$
