
 OpenBabel03272509503D

 34 36  0  0  0  0  0  0  0  0999 V2000
   37.1020   30.0980   51.4280 C   0  0  0  0  0  0  0  0  0  0  0  0
   37.5260   30.9030   50.3480 C   0  0  0  0  0  0  0  0  0  0  0  0
   36.8370   30.7790   49.1540 C   0  0  0  0  0  0  0  0  0  0  0  0
   35.7900   29.8880   49.0840 N   0  0  0  0  0  0  0  0  0  0  0  0
   35.4230   29.1450   50.1320 C   0  0  0  0  0  0  0  0  0  0  0  0
   36.0800   29.2530   51.2980 N   0  0  0  0  0  0  0  0  0  0  0  0
   37.5930   30.1420   52.3910 H   0  0  0  0  0  0  0  0  0  0  0  0
   38.3590   31.5830   50.4760 H   0  0  0  0  0  0  0  0  0  0  0  0
   37.2640   31.6150   48.0050 C   0  0  0  0  0  3  0  0  0  0  0  0
   37.3000   30.8430   46.7370 C   0  0  0  0  0  3  0  0  0  0  0  0
   37.7800   29.8550   46.8130 H   0  0  0  0  0  0  0  0  0  0  0  0
   38.1080   31.6000   45.7010 C   0  0  0  0  0  3  0  0  0  0  0  0
   37.7110   32.6070   45.4780 H   0  0  0  0  0  0  0  0  0  0  0  0
   39.4230   31.6490   46.2030 O   0  0  0  0  0  0  0  0  0  0  0  0
   39.4120   32.6280   47.1920 C   0  0  0  0  0  3  0  0  0  0  0  0
   40.4570   32.7690   47.5400 H   0  0  0  0  0  0  0  0  0  0  0  0
   38.5830   32.2350   48.3830 C   0  0  0  0  0  3  0  0  0  0  0  0
   39.1400   31.5220   49.0260 H   0  0  0  0  0  0  0  0  0  0  0  0
   34.3590   28.3330   49.8280 O   0  0  0  0  0  0  0  0  0  0  0  0
   33.7010   28.5040   48.5810 C   0  0  0  0  0  0  0  0  0  0  0  0
   34.4720   28.5970   47.7900 H   0  0  0  0  0  0  0  0  0  0  0  0
   33.1670   29.4760   48.5880 H   0  0  0  0  0  0  0  0  0  0  0  0
   32.7340   27.3910   48.3410 C   0  0  0  0  0  0  0  0  0  0  0  0
   32.9780   26.9560   47.3340 H   0  0  0  0  0  0  0  0  0  0  0  0
   32.8670   26.6010   49.1080 H   0  0  0  0  0  0  0  0  0  0  0  0
   31.3100   27.8450   48.3400 C   0  0  0  0  0  0  0  0  0  0  0  0
   30.6310   27.7280   49.5310 C   0  0  0  0  0  0  0  0  0  0  0  0
   29.3160   28.1110   49.6540 C   0  0  0  0  0  0  0  0  0  0  0  0
   28.6800   28.6110   48.5870 N   0  0  0  0  0  0  0  0  0  0  0  0
   29.3580   28.7190   47.4300 C   0  0  0  0  0  0  0  0  0  0  0  0
   30.6410   28.3520   47.2830 N   0  0  0  0  0  0  0  0  0  0  0  0
   31.0900   27.3290   50.4390 H   0  0  0  0  0  0  0  0  0  0  0  0
   28.7440   28.0370   50.5770 H   0  0  0  0  0  0  0  0  0  0  0  0
   28.8900   29.1210   46.5200 H   0  0  0  0  0  0  0  0  0  0  0  0
  1  7  1  0  0  0  0
  2  8  1  0  0  0  0
  2  1  2  0  0  0  0
  3  2  1  0  0  0  0
  4  3  2  0  0  0  0
  4  5  1  0  0  0  0
  5  6  2  0  0  0  0
  6  1  1  0  0  0  0
  9 17  1  0  0  0  0
  9  3  1  0  0  0  0
 10 11  1  0  0  0  0
 10  9  1  0  0  0  0
 12 14  1  0  0  0  0
 12 10  1  0  0  0  0
 13 12  1  0  0  0  0
 14 15  1  0  0  0  0
 15 16  1  0  0  0  0
 15 17  1  0  0  0  0
 17 18  1  0  0  0  0
 19  5  1  0  0  0  0
 20 22  1  0  0  0  0
 20 19  1  0  0  0  0
 21 20  1  0  0  0  0
 23 20  1  0  0  0  0
 23 25  1  0  0  0  0
 24 23  1  0  0  0  0
 26 23  1  0  0  0  0
 26 27  1  0  0  0  0
 27 28  2  0  0  0  0
 27 32  1  0  0  0  0
 28 33  1  0  0  0  0
 29 28  1  0  0  0  0
 30 29  2  0  0  0  0
 31 30  1  0  0  0  0
 31 26  2  0  0  0  0
 34 30  1  0  0  0  0
M  END
>  <minimizedAffinity>
-5.60241795

>  <minimizedRMSD>
1.1078676

$$$$
