
     RDKit          3D

 37 39  0  0  0  0  0  0  0  0999 V2000
   34.6549   28.3169   49.5880 C   0  0  0  0  0  0  0  0  0  0  0  0
   37.2929   30.1800   51.3884 C   0  0  0  0  0  0  0  0  0  0  0  0
   38.0713   30.6827   50.3414 C   0  0  0  0  0  0  0  0  0  0  0  0
   37.6893   30.3810   49.0109 C   0  0  0  0  0  0  0  0  0  0  0  0
   36.5824   29.6164   48.8305 N   0  0  0  0  0  0  0  0  0  0  0  0
   35.8595   29.1517   49.8714 C   0  0  0  0  0  0  0  0  0  0  0  0
   36.2115   29.4306   51.1297 N   0  0  0  0  0  0  0  0  0  0  0  0
   34.4484   28.2111   48.0951 C   0  0  0  0  0  0  0  0  0  0  0  0
   32.9629   28.2597   47.8738 C   0  0  0  0  0  0  0  0  0  0  0  0
   32.0271   27.5901   48.6115 C   0  0  0  0  0  0  0  0  0  0  0  0
   30.7429   27.8444   48.1543 C   0  0  0  0  0  0  0  0  0  0  0  0
   30.9564   28.6958   47.1110 N   0  0  0  0  0  0  0  0  0  0  0  0
   32.2483   28.9255   46.9629 N   0  0  0  0  0  0  0  0  0  0  0  0
   34.8663   27.3138   50.0322 H   0  0  0  0  0  0  0  0  0  0  0  0
   33.7635   28.7320   50.1043 H   0  0  0  0  0  0  0  0  0  0  0  0
   37.5141   30.3630   52.4356 H   0  0  0  0  0  0  0  0  0  0  0  0
   38.9394   31.2851   50.5751 H   0  0  0  0  0  0  0  0  0  0  0  0
   38.2846   30.7652   48.2015 H   0  0  0  0  0  0  0  0  0  0  0  0
   34.7574   27.1961   47.7783 H   0  0  0  0  0  0  0  0  0  0  0  0
   34.9221   29.0096   47.5148 H   0  0  0  0  0  0  0  0  0  0  0  0
   32.2773   26.9380   49.4552 H   0  0  0  0  0  0  0  0  0  0  0  0
   29.7980   27.4561   48.5385 H   0  0  0  0  0  0  0  0  0  0  0  0
   29.8613   29.2429   46.3075 C   0  0  2  0  0  0  0  0  0  0  0  0
   29.9594   28.7549   44.9064 C   0  0  2  0  0  0  0  0  0  0  0  0
   29.0210   28.2538   44.5452 H   0  0  0  0  0  0  0  0  0  0  0  0
   30.3470   29.7739   43.8834 C   0  0  1  0  0  0  0  0  0  0  0  0
   31.4368   29.9444   43.8035 H   0  0  0  0  0  0  0  0  0  0  0  0
   29.6228   30.9248   44.0911 O   0  0  0  0  0  0  0  0  0  0  0  0
   30.1148   31.5046   45.2503 C   0  0  1  0  0  0  0  0  0  0  0  0
   31.2042   31.7087   45.1777 H   0  0  0  0  0  0  0  0  0  0  0  0
   29.7736   30.7167   46.4837 C   0  0  2  0  0  0  0  0  0  0  0  0
   30.4616   31.0538   47.2890 H   0  0  0  0  0  0  0  0  0  0  0  0
   28.9078   28.8107   46.7280 H   0  0  0  0  0  0  0  0  0  0  0  0
   30.7294   27.9354   44.8559 H   0  0  0  0  0  0  0  0  0  0  0  0
   30.0408   29.3864   42.8810 H   0  0  0  0  0  0  0  0  0  0  0  0
   29.6253   32.4977   45.3274 H   0  0  0  0  0  0  0  0  0  0  0  0
   28.7583   31.0583   46.8342 H   0  0  0  0  0  0  0  0  0  0  0  0
  1  6  1  0
  3  2  2  0
  4  3  1  0
  5  4  2  0
  5  6  1  0
  6  7  2  0
  7  2  1  0
  8  1  1  0
  9  8  1  0
  9 10  1  0
 11 10  2  0
 12 11  1  0
 13 12  1  0
 13  9  2  0
  1 14  1  0
  1 15  1  0
  2 16  1  0
  3 17  1  0
  4 18  1  0
  8 19  1  0
  8 20  1  0
 10 21  1  0
 11 22  1  0
 23 24  1  0
 24 25  1  6
 24 26  1  0
 26 27  1  6
 26 28  1  0
 28 29  1  0
 29 30  1  6
 29 31  1  0
 31 32  1  1
 31 23  1  0
 23 33  1  1
 24 34  1  0
 26 35  1  0
 29 36  1  0
 31 37  1  0
 12 23  1  0
M  ISO  8  14   8  15   8  16  14  17  14  18  14  19   8  20   8  21  14
M  ISO  5  22  14  25  15  27  15  30  15  32  15
M  END
>  <DihAtoms>  (1) 
10,11,22,23

>  <DihDeg>  (1) 
79.47218286419923

$$$$
