
 OpenBabel03272508023D

 29 31  0  0  0  0  0  0  0  0999 V2000
   38.8050   30.8810   45.5880 C   0  0  0  0  0  0  0  0  0  0  0  0
   40.0860   31.2850   45.8560 C   0  0  0  0  0  0  0  0  0  0  0  0
   40.8390   31.2790   44.6760 C   0  0  0  0  0  0  0  0  0  0  0  0
   39.9560   30.8610   43.7210 N   0  0  0  0  0  0  0  0  0  0  0  0
   38.7870   30.6380   44.2770 N   0  0  0  0  0  0  0  0  0  0  0  0
   40.5000   31.5780   46.8320 H   0  0  0  0  0  0  0  0  0  0  0  0
   41.8950   31.5500   44.5560 H   0  0  0  0  0  0  0  0  0  0  0  0
   40.3220   30.7080   42.3290 C   0  0  0  0  0  0  0  0  0  0  0  0
   39.0910   30.3490   41.4860 C   0  0  0  0  0  0  0  0  0  0  0  0
   38.3820   29.7780   42.1180 H   0  0  0  0  0  0  0  0  0  0  0  0
   39.5870   29.4120   40.4020 C   0  0  0  0  0  0  0  0  0  0  0  0
   38.7870   29.3170   39.6350 H   0  0  0  0  0  0  0  0  0  0  0  0
   39.8960   28.1490   40.8940 O   0  0  0  0  0  0  0  0  0  0  0  0
   40.4430   28.2480   42.1540 C   0  0  0  0  0  0  0  0  0  0  0  0
   41.1010   27.3710   42.3910 H   0  0  0  0  0  0  0  0  0  0  0  0
   41.2650   29.5320   42.1880 C   0  0  0  0  0  0  0  0  0  0  0  0
   41.9400   29.6030   41.3300 H   0  0  0  0  0  0  0  0  0  0  0  0
   37.6950   30.7440   46.5230 C   0  0  0  0  0  0  0  0  0  0  0  0
   37.9430   31.0250   47.8930 C   0  0  0  0  0  0  0  0  0  0  0  0
   36.8710   30.8900   48.7750 C   0  0  0  0  0  0  0  0  0  0  0  0
   35.6660   30.5030   48.2950 N   0  0  0  0  0  0  0  0  0  0  0  0
   35.4580   30.2420   46.9890 C   0  0  0  0  0  0  0  0  0  0  0  0
   36.4820   30.3670   46.1160 N   0  0  0  0  0  0  0  0  0  0  0  0
   38.9280   31.3300   48.2160 H   0  0  0  0  0  0  0  0  0  0  0  0
   34.5000   29.9310   46.5890 H   0  0  0  0  0  0  0  0  0  0  0  0
   37.1080   31.1800   50.2160 C   0  0  0  0  0  0  0  0  0  0  0  0
   36.6060   32.4300   50.4520 F   0  0  0  0  0  0  0  0  0  0  0  0
   36.4630   30.2810   51.0550 F   0  0  0  0  0  0  0  0  0  0  0  0
   38.4640   31.2030   50.5260 F   0  0  0  0  0  0  0  0  0  0  0  0
  1  2  1  0  0  0  0
  1 18  1  0  0  0  0
  2  6  1  0  0  0  0
  3  2  2  0  0  0  0
  4  5  1  0  0  0  0
  4  3  1  0  0  0  0
  5  1  2  0  0  0  0
  7  3  1  0  0  0  0
  8  4  1  0  0  0  0
  9 10  1  0  0  0  0
  9  8  1  0  0  0  0
 11 13  1  0  0  0  0
 11  9  1  0  0  0  0
 12 11  1  0  0  0  0
 13 14  1  0  0  0  0
 14 16  1  0  0  0  0
 14 15  1  0  0  0  0
 16  8  1  0  0  0  0
 17 16  1  0  0  0  0
 18 19  1  0  0  0  0
 19 24  1  0  0  0  0
 19 20  2  0  0  0  0
 20 26  1  0  0  0  0
 21 20  1  0  0  0  0
 22 21  2  0  0  0  0
 23 18  2  0  0  0  0
 23 22  1  0  0  0  0
 25 22  1  0  0  0  0
 26 27  1  0  0  0  0
 26 29  1  0  0  0  0
 26 28  1  0  0  0  0
M  END
>  <minimizedAffinity>
-5.97673035

>  <minimizedRMSD>
1.94521976

$$$$
