
     RDKit          3D

 37 39  0  0  0  0  0  0  0  0999 V2000
   37.9921   30.4959   47.1809 C   0  0  0  0  0  0  0  0  0  0  0  0
   38.9761   31.2489   46.4426 C   0  0  0  0  0  0  0  0  0  0  0  0
   39.2434   32.5566   46.7369 C   0  0  0  0  0  0  0  0  0  0  0  0
   40.2218   33.2711   46.0082 C   0  0  0  0  0  0  0  0  0  0  0  0
   40.8590   32.5513   45.0086 N   0  0  0  0  0  0  0  0  0  0  0  0
   40.5567   31.2465   44.7533 C   0  0  0  0  0  0  0  0  0  0  0  0
   39.6149   30.6104   45.4770 N   0  0  0  0  0  0  0  0  0  0  0  0
   37.1378   31.2185   48.1519 C   0  0  0  0  0  0  0  0  0  0  0  0
   37.2543   30.6953   49.5272 C   0  0  0  0  0  0  0  0  0  0  0  0
   36.3187   29.8230   50.0529 C   0  0  0  0  0  0  0  0  0  0  0  0
   36.6885   29.5050   51.3291 C   0  0  0  0  0  0  0  0  0  0  0  0
   37.8207   30.1719   51.5633 N   0  0  0  0  0  0  0  0  0  0  0  0
   38.1459   30.8657   50.5071 N   0  0  0  0  0  0  0  0  0  0  0  0
   38.5760   29.7331   47.7866 H   0  0  0  0  0  0  0  0  0  0  0  0
   37.3898   29.8238   46.4929 H   0  0  0  0  0  0  0  0  0  0  0  0
   38.8152   33.1995   47.4845 H   0  0  0  0  0  0  0  0  0  0  0  0
   40.5111   34.2880   46.1497 H   0  0  0  0  0  0  0  0  0  0  0  0
   41.1089   30.7631   43.9496 H   0  0  0  0  0  0  0  0  0  0  0  0
   36.0736   31.0921   47.7780 H   0  0  0  0  0  0  0  0  0  0  0  0
   37.2414   32.3064   48.2146 H   0  0  0  0  0  0  0  0  0  0  0  0
   35.4229   29.4128   49.6043 H   0  0  0  0  0  0  0  0  0  0  0  0
   36.2752   28.8833   52.0908 H   0  0  0  0  0  0  0  0  0  0  0  0
   38.7448   30.2926   52.7018 C   0  0  1  0  0  0  0  0  0  0  0  0
   39.1238   28.9360   53.1915 C   0  0  2  0  0  0  0  0  0  0  0  0
   39.0990   28.2067   52.3362 H   0  0  0  0  0  0  0  0  0  0  0  0
   40.4831   28.8333   53.8077 C   0  0  2  0  0  0  0  0  0  0  0  0
   40.7655   27.7654   53.8428 H   0  0  0  0  0  0  0  0  0  0  0  0
   41.4160   29.5463   53.0289 O   0  0  0  0  0  0  0  0  0  0  0  0
   41.0721   30.9007   53.2451 C   0  0  1  0  0  0  0  0  0  0  0  0
   40.8939   31.0450   54.3165 H   0  0  0  0  0  0  0  0  0  0  0  0
   39.8897   31.2035   52.3850 C   0  0  1  0  0  0  0  0  0  0  0  0
   40.1909   31.1866   51.3282 H   0  0  0  0  0  0  0  0  0  0  0  0
   38.1642   30.7885   53.5247 H   0  0  0  0  0  0  0  0  0  0  0  0
   38.3640   28.5612   53.9146 H   0  0  0  0  0  0  0  0  0  0  0  0
   40.4592   29.3165   54.8038 H   0  0  0  0  0  0  0  0  0  0  0  0
   41.9670   31.4765   52.9074 H   0  0  0  0  0  0  0  0  0  0  0  0
   39.5956   32.2700   52.6039 H   0  0  0  0  0  0  0  0  0  0  0  0
  1  8  1  0
  2  3  2  0
  2  1  1  0
  4  3  1  0
  5  4  2  0
  6  5  1  0
  6  7  2  0
  7  2  1  0
  8  9  1  0
  9 10  1  0
  9 13  2  0
 10 11  2  0
 11 12  1  0
 13 12  1  0
  1 14  1  0
  1 15  1  0
  3 16  1  0
  4 17  1  0
  6 18  1  0
  8 19  1  0
  8 20  1  0
 10 21  1  0
 11 22  1  0
 23 24  1  0
 24 25  1  6
 24 26  1  0
 26 27  1  1
 26 28  1  0
 28 29  1  0
 29 30  1  1
 29 31  1  0
 31 32  1  6
 31 23  1  0
 23 33  1  1
 24 34  1  0
 26 35  1  0
 29 36  1  0
 31 37  1  0
 12 23  1  0
M  ISO  8  14   8  15   8  16  14  17  14  18  14  19   8  20   8  21  14
M  ISO  5  22  14  25  15  27  15  30  15  32  15
M  END
>  <DihAtoms>  (1) 
10,11,22,23

>  <DihDeg>  (1) 
5.46637514754534

$$$$
