
 OpenBabel03272508463D

 28 30  0  0  0  0  0  0  0  0999 V2000
   38.0270   25.5160   35.9700 C   0  0  0  0  0  0  0  0  0  0  0  0
   38.4290   26.7640   36.3810 C   0  0  0  0  0  0  0  0  0  0  0  0
   38.0010   27.6030   35.3420 C   0  0  0  0  0  0  0  0  0  0  0  0
   37.3780   26.8350   34.3840 C   0  0  0  0  0  0  0  0  0  0  0  0
   37.4170   25.6010   34.8020 O   0  0  0  0  0  0  0  0  0  0  0  0
   38.9530   27.0430   37.2870 H   0  0  0  0  0  0  0  0  0  0  0  0
   38.1420   28.6840   35.3040 H   0  0  0  0  0  0  0  0  0  0  0  0
   36.7600   27.2410   33.1110 C   0  0  0  0  0  3  0  0  0  0  0  0
   37.7230   27.2770   31.9720 C   0  0  0  0  0  3  0  0  0  0  0  0
   38.7530   27.3390   32.4280 H   0  0  0  0  0  0  0  0  0  0  0  0
   37.5840   28.5180   31.1180 C   0  0  0  0  0  3  0  0  0  0  0  0
   38.0950   28.2980   30.1570 H   0  0  0  0  0  0  0  0  0  0  0  0
   36.2640   28.8330   30.8160 O   0  0  0  0  0  0  0  0  0  0  0  0
   35.4160   28.8390   31.9070 C   0  0  0  0  0  3  0  0  0  0  0  0
   34.7230   29.6890   31.9430 H   0  0  0  0  0  0  0  0  0  0  0  0
   36.1640   28.6500   33.2330 C   0  0  0  0  0  3  0  0  0  0  0  0
   35.3720   28.6730   34.0200 H   0  0  0  0  0  0  0  0  0  0  0  0
   38.2520   24.2830   36.7380 C   0  0  0  0  0  0  0  0  0  0  0  0
   37.3510   23.9240   37.5440 O   0  0  0  0  0  0  0  0  0  0  0  0
   40.9630   21.9680   37.4140 C   0  0  0  0  0  0  0  0  0  0  0  0
   41.7730   22.0760   36.2900 C   0  0  0  0  0  0  0  0  0  0  0  0
   41.3970   22.9480   35.2810 C   0  0  0  0  0  0  0  0  0  0  0  0
   40.2440   23.6560   35.4520 N   0  0  0  0  0  0  0  0  0  0  0  0
   39.4820   23.5320   36.5490 C   0  0  0  0  0  0  0  0  0  0  0  0
   39.8410   22.6840   37.5360 N   0  0  0  0  0  0  0  0  0  0  0  0
   41.3140   21.2680   38.1690 H   0  0  0  0  0  0  0  0  0  0  0  0
   42.6950   21.5520   36.0840 H   0  0  0  0  0  0  0  0  0  0  0  0
   41.8790   23.1750   34.3390 H   0  0  0  0  0  0  0  0  0  0  0  0
  1  2  2  0  0  0  0
  1 18  1  0  0  0  0
  2  6  1  0  0  0  0
  3  2  1  0  0  0  0
  4  5  1  0  0  0  0
  4  3  2  0  0  0  0
  5  1  1  0  0  0  0
  7  3  1  0  0  0  0
  8 16  1  0  0  0  0
  8  4  1  0  0  0  0
  9 10  1  0  0  0  0
  9  8  1  0  0  0  0
 11  9  1  0  0  0  0
 12 11  1  0  0  0  0
 13 11  1  0  0  0  0
 13 14  1  0  0  0  0
 14 15  1  0  0  0  0
 14 16  1  0  0  0  0
 16 17  1  0  0  0  0
 18 19  2  0  0  0  0
 20 25  1  0  0  0  0
 20 26  1  0  0  0  0
 21 20  2  0  0  0  0
 22 23  2  0  0  0  0
 22 21  1  0  0  0  0
 23 24  1  0  0  0  0
 24 18  1  0  0  0  0
 24 25  2  0  0  0  0
 27 21  1  0  0  0  0
 28 22  1  0  0  0  0
M  END
>  <minimizedAffinity>
-5.13423395

$$$$

 OpenBabel03272508463D

 28 30  0  0  0  0  0  0  0  0999 V2000
   37.1440   25.5400   33.0910 C   0  0  0  0  0  0  0  0  0  0  0  0
   37.0110   26.8280   33.5470 C   0  0  0  0  0  0  0  0  0  0  0  0
   37.5500   26.7730   34.8410 C   0  0  0  0  0  0  0  0  0  0  0  0
   37.9690   25.4850   35.0890 C   0  0  0  0  0  0  0  0  0  0  0  0
   37.7080   24.7880   34.0190 O   0  0  0  0  0  0  0  0  0  0  0  0
   36.5920   27.6880   33.0390 H   0  0  0  0  0  0  0  0  0  0  0  0
   37.6220   27.6130   35.5330 H   0  0  0  0  0  0  0  0  0  0  0  0
   38.5990   24.9170   36.2930 C   0  0  0  0  0  3  0  0  0  0  0  0
   39.7040   23.9630   35.9860 C   0  0  0  0  0  3  0  0  0  0  0  0
   39.5510   23.6300   34.9190 H   0  0  0  0  0  0  0  0  0  0  0  0
   39.6430   22.7000   36.8160 C   0  0  0  0  0  3  0  0  0  0  0  0
   40.6470   22.2300   36.7490 H   0  0  0  0  0  0  0  0  0  0  0  0
   39.3930   22.9370   38.1620 O   0  0  0  0  0  0  0  0  0  0  0  0
   38.3290   23.7850   38.4030 C   0  0  0  0  0  3  0  0  0  0  0  0
   37.6560   23.4590   39.2070 H   0  0  0  0  0  0  0  0  0  0  0  0
   37.5650   24.1470   37.1230 C   0  0  0  0  0  3  0  0  0  0  0  0
   36.7440   24.8270   37.4560 H   0  0  0  0  0  0  0  0  0  0  0  0
   36.7150   25.0890   31.7590 C   0  0  0  0  0  0  0  0  0  0  0  0
   36.3910   25.9730   30.9200 O   0  0  0  0  0  0  0  0  0  0  0  0
   37.8460   21.8000   30.7260 C   0  0  0  0  0  0  0  0  0  0  0  0
   36.7130   21.0070   30.8630 C   0  0  0  0  0  0  0  0  0  0  0  0
   35.5410   21.5930   31.3130 C   0  0  0  0  0  0  0  0  0  0  0  0
   35.5690   22.9270   31.5990 N   0  0  0  0  0  0  0  0  0  0  0  0
   36.6780   23.6670   31.4560 C   0  0  0  0  0  0  0  0  0  0  0  0
   37.8230   23.1030   31.0190 N   0  0  0  0  0  0  0  0  0  0  0  0
   38.7310   21.2790   30.3680 H   0  0  0  0  0  0  0  0  0  0  0  0
   36.6130   19.9500   30.6580 H   0  0  0  0  0  0  0  0  0  0  0  0
   34.5650   21.1590   31.4870 H   0  0  0  0  0  0  0  0  0  0  0  0
  1  2  2  0  0  0  0
  1  5  1  0  0  0  0
  2  3  1  0  0  0  0
  3  4  2  0  0  0  0
  3  7  1  0  0  0  0
  4  8  1  0  0  0  0
  5  4  1  0  0  0  0
  6  2  1  0  0  0  0
  8 16  1  0  0  0  0
  9  8  1  0  0  0  0
  9 11  1  0  0  0  0
 10  9  1  0  0  0  0
 11 13  1  0  0  0  0
 12 11  1  0  0  0  0
 13 14  1  0  0  0  0
 14 15  1  0  0  0  0
 16 17  1  0  0  0  0
 16 14  1  0  0  0  0
 18  1  1  0  0  0  0
 19 18  2  0  0  0  0
 20 21  2  0  0  0  0
 20 25  1  0  0  0  0
 21 22  1  0  0  0  0
 22 28  1  0  0  0  0
 22 23  2  0  0  0  0
 24 23  1  0  0  0  0
 24 18  1  0  0  0  0
 25 24  2  0  0  0  0
 26 20  1  0  0  0  0
 27 21  1  0  0  0  0
M  END
>  <minimizedAffinity>
-4.9836216

$$$$

 OpenBabel03272508463D

 28 30  0  0  0  0  0  0  0  0999 V2000
   37.7290   24.4230   33.2600 C   0  0  0  0  0  0  0  0  0  0  0  0
   37.0010   25.2440   32.4350 C   0  0  0  0  0  0  0  0  0  0  0  0
   36.2100   24.3490   31.6990 C   0  0  0  0  0  0  0  0  0  0  0  0
   36.4980   23.0670   32.1100 C   0  0  0  0  0  0  0  0  0  0  0  0
   37.4060   23.1610   33.0410 O   0  0  0  0  0  0  0  0  0  0  0  0
   37.0240   26.3250   32.3620 H   0  0  0  0  0  0  0  0  0  0  0  0
   35.4900   24.6280   30.9290 H   0  0  0  0  0  0  0  0  0  0  0  0
   35.9380   21.7850   31.6500 C   0  0  0  0  0  3  0  0  0  0  0  0
   35.1960   21.0480   32.7140 C   0  0  0  0  0  3  0  0  0  0  0  0
   35.5500   21.4700   33.6990 H   0  0  0  0  0  0  0  0  0  0  0  0
   35.5350   19.5750   32.7610 C   0  0  0  0  0  3  0  0  0  0  0  0
   34.7240   19.0830   33.3380 H   0  0  0  0  0  0  0  0  0  0  0  0
   35.5650   18.9770   31.5060 O   0  0  0  0  0  0  0  0  0  0  0  0
   36.3050   19.6650   30.5640 C   0  0  0  0  0  3  0  0  0  0  0  0
   36.9570   19.0350   29.9450 H   0  0  0  0  0  0  0  0  0  0  0  0
   37.0600   20.8570   31.1670 C   0  0  0  0  0  3  0  0  0  0  0  0
   37.6090   21.3180   30.3100 H   0  0  0  0  0  0  0  0  0  0  0  0
   38.7170   24.9020   34.2380 C   0  0  0  0  0  0  0  0  0  0  0  0
   39.5290   25.7900   33.8590 O   0  0  0  0  0  0  0  0  0  0  0  0
   39.7570   22.9240   37.0960 C   0  0  0  0  0  0  0  0  0  0  0  0
   38.8320   23.2570   38.0770 C   0  0  0  0  0  0  0  0  0  0  0  0
   37.8350   24.1690   37.7710 C   0  0  0  0  0  0  0  0  0  0  0  0
   37.8200   24.6910   36.5100 N   0  0  0  0  0  0  0  0  0  0  0  0
   38.7270   24.3500   35.5830 C   0  0  0  0  0  0  0  0  0  0  0  0
   39.7020   23.4630   35.8740 N   0  0  0  0  0  0  0  0  0  0  0  0
   40.5130   22.2030   37.4000 H   0  0  0  0  0  0  0  0  0  0  0  0
   38.7790   22.8880   39.0920 H   0  0  0  0  0  0  0  0  0  0  0  0
   37.0310   24.5570   38.3820 H   0  0  0  0  0  0  0  0  0  0  0  0
  1 18  1  0  0  0  0
  2  1  2  0  0  0  0
  3  4  2  0  0  0  0
  3  2  1  0  0  0  0
  4  5  1  0  0  0  0
  5  1  1  0  0  0  0
  6  2  1  0  0  0  0
  7  3  1  0  0  0  0
  8  4  1  0  0  0  0
  8  9  1  0  0  0  0
  9 11  1  0  0  0  0
  9 10  1  0  0  0  0
 11 12  1  0  0  0  0
 13 11  1  0  0  0  0
 14 16  1  0  0  0  0
 14 13  1  0  0  0  0
 15 14  1  0  0  0  0
 16  8  1  0  0  0  0
 17 16  1  0  0  0  0
 18 24  1  0  0  0  0
 19 18  2  0  0  0  0
 20 26  1  0  0  0  0
 20 21  1  0  0  0  0
 21 27  1  0  0  0  0
 22 21  2  0  0  0  0
 22 28  1  0  0  0  0
 23 22  1  0  0  0  0
 24 25  1  0  0  0  0
 24 23  2  0  0  0  0
 25 20  2  0  0  0  0
M  END
>  <minimizedAffinity>
-4.9634819

$$$$

 OpenBabel03272508463D

 28 30  0  0  0  0  0  0  0  0999 V2000
   36.4100   25.3720   31.7830 C   0  0  0  0  0  0  0  0  0  0  0  0
   35.2810   25.1890   31.0210 C   0  0  0  0  0  0  0  0  0  0  0  0
   35.1070   23.7970   31.0250 C   0  0  0  0  0  0  0  0  0  0  0  0
   36.1150   23.2290   31.7720 C   0  0  0  0  0  0  0  0  0  0  0  0
   36.8650   24.2050   32.2030 O   0  0  0  0  0  0  0  0  0  0  0  0
   34.6670   25.9340   30.5300 H   0  0  0  0  0  0  0  0  0  0  0  0
   34.3050   23.2580   30.5190 H   0  0  0  0  0  0  0  0  0  0  0  0
   36.3740   21.8120   32.0780 C   0  0  0  0  0  3  0  0  0  0  0  0
   36.8990   21.0430   30.9130 C   0  0  0  0  0  3  0  0  0  0  0  0
   36.6300   21.6370   29.9920 H   0  0  0  0  0  0  0  0  0  0  0  0
   36.2270   19.6990   30.7380 C   0  0  0  0  0  3  0  0  0  0  0  0
   36.8880   19.0990   30.0780 H   0  0  0  0  0  0  0  0  0  0  0  0
   36.0900   18.9940   31.9280 O   0  0  0  0  0  0  0  0  0  0  0  0
   35.5510   19.7280   32.9670 C   0  0  0  0  0  3  0  0  0  0  0  0
   34.7860   19.2020   33.5520 H   0  0  0  0  0  0  0  0  0  0  0  0
   35.0790   21.1180   32.5200 C   0  0  0  0  0  3  0  0  0  0  0  0
   34.6720   21.5980   33.4430 H   0  0  0  0  0  0  0  0  0  0  0  0
   37.0030   26.6850   32.0750 C   0  0  0  0  0  0  0  0  0  0  0  0
   36.8040   27.6130   31.2460 O   0  0  0  0  0  0  0  0  0  0  0  0
   37.7760   27.3500   35.5570 C   0  0  0  0  0  0  0  0  0  0  0  0
   39.1590   27.2320   35.6130 C   0  0  0  0  0  0  0  0  0  0  0  0
   39.8480   26.9210   34.4520 C   0  0  0  0  0  0  0  0  0  0  0  0
   39.1200   26.7470   33.3110 N   0  0  0  0  0  0  0  0  0  0  0  0
   37.7850   26.8680   33.2870 C   0  0  0  0  0  0  0  0  0  0  0  0
   37.1070   27.1710   34.4150 N   0  0  0  0  0  0  0  0  0  0  0  0
   37.2960   27.5970   36.5020 H   0  0  0  0  0  0  0  0  0  0  0  0
   39.8020   27.3550   36.4740 H   0  0  0  0  0  0  0  0  0  0  0  0
   40.9080   26.7850   34.2840 H   0  0  0  0  0  0  0  0  0  0  0  0
  1 18  1  0  0  0  0
  1  5  1  0  0  0  0
  2  3  1  0  0  0  0
  2  1  2  0  0  0  0
  3  4  2  0  0  0  0
  4  8  1  0  0  0  0
  4  5  1  0  0  0  0
  6  2  1  0  0  0  0
  7  3  1  0  0  0  0
  8 16  1  0  0  0  0
  9  8  1  0  0  0  0
 10  9  1  0  0  0  0
 11  9  1  0  0  0  0
 11 13  1  0  0  0  0
 12 11  1  0  0  0  0
 13 14  1  0  0  0  0
 14 15  1  0  0  0  0
 16 14  1  0  0  0  0
 16 17  1  0  0  0  0
 18 24  1  0  0  0  0
 19 18  2  0  0  0  0
 20 21  1  0  0  0  0
 20 26  1  0  0  0  0
 21 27  1  0  0  0  0
 22 21  2  0  0  0  0
 23 22  1  0  0  0  0
 24 23  2  0  0  0  0
 24 25  1  0  0  0  0
 25 20  2  0  0  0  0
 28 22  1  0  0  0  0
M  END
>  <minimizedAffinity>
-4.94529438

$$$$

 OpenBabel03272508463D

 28 30  0  0  0  0  0  0  0  0999 V2000
   37.1380   26.2550   33.3340 C   0  0  0  0  0  0  0  0  0  0  0  0
   36.9830   27.4200   34.0460 C   0  0  0  0  0  0  0  0  0  0  0  0
   37.5340   27.1120   35.2980 C   0  0  0  0  0  0  0  0  0  0  0  0
   37.9820   25.8100   35.2750 C   0  0  0  0  0  0  0  0  0  0  0  0
   37.7260   25.3410   34.0860 O   0  0  0  0  0  0  0  0  0  0  0  0
   36.5420   28.3560   33.7260 H   0  0  0  0  0  0  0  0  0  0  0  0
   37.5960   27.7950   36.1470 H   0  0  0  0  0  0  0  0  0  0  0  0
   38.6350   25.0220   36.3340 C   0  0  0  0  0  3  0  0  0  0  0  0
   39.6410   24.0520   35.8120 C   0  0  0  0  0  3  0  0  0  0  0  0
   39.4000   23.8990   34.7210 H   0  0  0  0  0  0  0  0  0  0  0  0
   39.5290   22.6840   36.4470 C   0  0  0  0  0  3  0  0  0  0  0  0
   40.4870   22.1610   36.2410 H   0  0  0  0  0  0  0  0  0  0  0  0
   39.3770   22.7280   37.8280 O   0  0  0  0  0  0  0  0  0  0  0  0
   38.3990   23.6010   38.2660 C   0  0  0  0  0  3  0  0  0  0  0  0
   37.7510   23.2020   39.0560 H   0  0  0  0  0  0  0  0  0  0  0  0
   37.5930   24.2060   37.1100 C   0  0  0  0  0  3  0  0  0  0  0  0
   36.8490   24.8830   37.5970 H   0  0  0  0  0  0  0  0  0  0  0  0
   36.7070   26.0770   31.9400 C   0  0  0  0  0  0  0  0  0  0  0  0
   35.8410   25.1910   31.7050 O   0  0  0  0  0  0  0  0  0  0  0  0
   39.0970   27.3310   29.5150 C   0  0  0  0  0  0  0  0  0  0  0  0
   38.4430   28.4160   28.9430 C   0  0  0  0  0  0  0  0  0  0  0  0
   37.1680   28.7330   29.3830 C   0  0  0  0  0  0  0  0  0  0  0  0
   36.6240   27.9530   30.3620 N   0  0  0  0  0  0  0  0  0  0  0  0
   37.2800   26.9120   30.8960 C   0  0  0  0  0  0  0  0  0  0  0  0
   38.5220   26.5970   30.4720 N   0  0  0  0  0  0  0  0  0  0  0  0
   40.0940   27.1360   29.1250 H   0  0  0  0  0  0  0  0  0  0  0  0
   38.8060   29.0770   28.1680 H   0  0  0  0  0  0  0  0  0  0  0  0
   36.4980   29.5240   29.0730 H   0  0  0  0  0  0  0  0  0  0  0  0
  1  2  2  0  0  0  0
  1  5  1  0  0  0  0
  2  3  1  0  0  0  0
  3  7  1  0  0  0  0
  4  3  2  0  0  0  0
  4  8  1  0  0  0  0
  5  4  1  0  0  0  0
  6  2  1  0  0  0  0
  8 16  1  0  0  0  0
  9  8  1  0  0  0  0
  9 11  1  0  0  0  0
 10  9  1  0  0  0  0
 11 13  1  0  0  0  0
 12 11  1  0  0  0  0
 13 14  1  0  0  0  0
 14 15  1  0  0  0  0
 16 17  1  0  0  0  0
 16 14  1  0  0  0  0
 18  1  1  0  0  0  0
 19 18  2  0  0  0  0
 20 25  1  0  0  0  0
 21 22  1  0  0  0  0
 21 20  2  0  0  0  0
 22 23  2  0  0  0  0
 23 24  1  0  0  0  0
 24 18  1  0  0  0  0
 25 24  2  0  0  0  0
 26 20  1  0  0  0  0
 27 21  1  0  0  0  0
 28 22  1  0  0  0  0
M  END
>  <minimizedAffinity>
-4.91486502

$$$$

 OpenBabel03272508463D

 28 30  0  0  0  0  0  0  0  0999 V2000
   38.1320   25.1470   33.8690 C   0  0  0  0  0  0  0  0  0  0  0  0
   39.1900   26.0180   33.7810 C   0  0  0  0  0  0  0  0  0  0  0  0
   38.6410   27.1350   33.1340 C   0  0  0  0  0  0  0  0  0  0  0  0
   37.3120   26.8840   32.8750 C   0  0  0  0  0  0  0  0  0  0  0  0
   37.0550   25.6900   33.3300 O   0  0  0  0  0  0  0  0  0  0  0  0
   40.2090   25.8830   34.1240 H   0  0  0  0  0  0  0  0  0  0  0  0
   39.1810   28.0480   32.8810 H   0  0  0  0  0  0  0  0  0  0  0  0
   36.3060   27.7360   32.2190 C   0  0  0  0  0  3  0  0  0  0  0  0
   36.7560   28.2750   30.9030 C   0  0  0  0  0  3  0  0  0  0  0  0
   37.8820   28.2000   30.8970 H   0  0  0  0  0  0  0  0  0  0  0  0
   36.4480   29.7460   30.7290 C   0  0  0  0  0  3  0  0  0  0  0  0
   36.5220   29.9570   29.6420 H   0  0  0  0  0  0  0  0  0  0  0  0
   35.1610   30.0890   31.1250 O   0  0  0  0  0  0  0  0  0  0  0  0
   34.8020   29.6130   32.3720 C   0  0  0  0  0  3  0  0  0  0  0  0
   34.2810   30.3410   33.0070 H   0  0  0  0  0  0  0  0  0  0  0  0
   35.9730   28.9440   33.1040 C   0  0  0  0  0  3  0  0  0  0  0  0
   35.5520   28.6090   34.0830 H   0  0  0  0  0  0  0  0  0  0  0  0
   38.2110   23.8120   34.4800 C   0  0  0  0  0  0  0  0  0  0  0  0
   38.0780   22.8140   33.7220 O   0  0  0  0  0  0  0  0  0  0  0  0
   39.7550   22.8080   37.6060 C   0  0  0  0  0  0  0  0  0  0  0  0
   38.9460   23.3930   38.5730 C   0  0  0  0  0  0  0  0  0  0  0  0
   37.8560   24.1430   38.1630 C   0  0  0  0  0  0  0  0  0  0  0  0
   37.6390   24.2640   36.8220 N   0  0  0  0  0  0  0  0  0  0  0  0
   38.4370   23.6870   35.9110 C   0  0  0  0  0  0  0  0  0  0  0  0
   39.5010   22.9560   36.3030 N   0  0  0  0  0  0  0  0  0  0  0  0
   40.5930   22.2330   37.9940 H   0  0  0  0  0  0  0  0  0  0  0  0
   39.0530   23.3430   39.6480 H   0  0  0  0  0  0  0  0  0  0  0  0
   37.1140   24.6740   38.7460 H   0  0  0  0  0  0  0  0  0  0  0  0
  1 18  1  0  0  0  0
  2  1  2  0  0  0  0
  2  6  1  0  0  0  0
  3  2  1  0  0  0  0
  4  3  2  0  0  0  0
  4  5  1  0  0  0  0
  5  1  1  0  0  0  0
  7  3  1  0  0  0  0
  8  4  1  0  0  0  0
  8 16  1  0  0  0  0
  9  8  1  0  0  0  0
 10  9  1  0  0  0  0
 11  9  1  0  0  0  0
 11 13  1  0  0  0  0
 12 11  1  0  0  0  0
 13 14  1  0  0  0  0
 14 15  1  0  0  0  0
 14 16  1  0  0  0  0
 16 17  1  0  0  0  0
 18 24  1  0  0  0  0
 19 18  2  0  0  0  0
 20 26  1  0  0  0  0
 20 21  1  0  0  0  0
 21 27  1  0  0  0  0
 22 21  2  0  0  0  0
 22 28  1  0  0  0  0
 23 22  1  0  0  0  0
 24 25  1  0  0  0  0
 24 23  2  0  0  0  0
 25 20  2  0  0  0  0
M  END
>  <minimizedAffinity>
-4.90098953

$$$$

 OpenBabel03272508463D

 28 30  0  0  0  0  0  0  0  0999 V2000
   37.1180   26.2880   33.3030 C   0  0  0  0  0  0  0  0  0  0  0  0
   36.9410   27.4400   34.0290 C   0  0  0  0  0  0  0  0  0  0  0  0
   37.4930   27.1260   35.2800 C   0  0  0  0  0  0  0  0  0  0  0  0
   37.9640   25.8330   35.2410 C   0  0  0  0  0  0  0  0  0  0  0  0
   37.7190   25.3750   34.0450 O   0  0  0  0  0  0  0  0  0  0  0  0
   36.4840   28.3730   33.7200 H   0  0  0  0  0  0  0  0  0  0  0  0
   37.5400   27.7990   36.1370 H   0  0  0  0  0  0  0  0  0  0  0  0
   38.6270   25.0420   36.2920 C   0  0  0  0  0  3  0  0  0  0  0  0
   39.6290   24.0740   35.7580 C   0  0  0  0  0  3  0  0  0  0  0  0
   39.3770   23.9240   34.6690 H   0  0  0  0  0  0  0  0  0  0  0  0
   39.5240   22.7040   36.3900 C   0  0  0  0  0  3  0  0  0  0  0  0
   40.4790   22.1830   36.1740 H   0  0  0  0  0  0  0  0  0  0  0  0
   39.3850   22.7450   37.7730 O   0  0  0  0  0  0  0  0  0  0  0  0
   38.4100   23.6160   38.2220 C   0  0  0  0  0  3  0  0  0  0  0  0
   37.7690   23.2150   39.0180 H   0  0  0  0  0  0  0  0  0  0  0  0
   37.5920   24.2240   37.0750 C   0  0  0  0  0  3  0  0  0  0  0  0
   36.8530   24.8980   37.5710 H   0  0  0  0  0  0  0  0  0  0  0  0
   36.6940   26.1210   31.9050 C   0  0  0  0  0  0  0  0  0  0  0  0
   35.7800   25.2850   31.6690 O   0  0  0  0  0  0  0  0  0  0  0  0
   37.1600   28.7070   29.4040 C   0  0  0  0  0  0  0  0  0  0  0  0
   38.4290   28.4490   28.9000 C   0  0  0  0  0  0  0  0  0  0  0  0
   39.1440   27.3800   29.4140 C   0  0  0  0  0  0  0  0  0  0  0  0
   38.5550   26.6360   30.3940 N   0  0  0  0  0  0  0  0  0  0  0  0
   37.3280   26.9090   30.8610 C   0  0  0  0  0  0  0  0  0  0  0  0
   36.6250   27.9490   30.3660 N   0  0  0  0  0  0  0  0  0  0  0  0
   36.6510   29.5600   28.9580 H   0  0  0  0  0  0  0  0  0  0  0  0
   38.9590   28.9900   28.1280 H   0  0  0  0  0  0  0  0  0  0  0  0
   40.1320   27.0160   29.1640 H   0  0  0  0  0  0  0  0  0  0  0  0
  1  2  2  0  0  0  0
  1  5  1  0  0  0  0
  2  3  1  0  0  0  0
  3  7  1  0  0  0  0
  4  3  2  0  0  0  0
  4  8  1  0  0  0  0
  5  4  1  0  0  0  0
  6  2  1  0  0  0  0
  8 16  1  0  0  0  0
  9  8  1  0  0  0  0
  9 11  1  0  0  0  0
 10  9  1  0  0  0  0
 11 13  1  0  0  0  0
 12 11  1  0  0  0  0
 13 14  1  0  0  0  0
 14 15  1  0  0  0  0
 16 17  1  0  0  0  0
 16 14  1  0  0  0  0
 18  1  1  0  0  0  0
 19 18  2  0  0  0  0
 20 25  1  0  0  0  0
 21 20  2  0  0  0  0
 21 22  1  0  0  0  0
 22 23  2  0  0  0  0
 23 24  1  0  0  0  0
 24 18  1  0  0  0  0
 25 24  2  0  0  0  0
 26 20  1  0  0  0  0
 27 21  1  0  0  0  0
 28 22  1  0  0  0  0
M  END
>  <minimizedAffinity>
-4.89946222

$$$$

 OpenBabel03272508463D

 28 30  0  0  0  0  0  0  0  0999 V2000
   37.9790   25.8270   34.7470 C   0  0  0  0  0  0  0  0  0  0  0  0
   38.5540   26.7150   35.6230 C   0  0  0  0  0  0  0  0  0  0  0  0
   37.8270   27.8970   35.4150 C   0  0  0  0  0  0  0  0  0  0  0  0
   36.8750   27.6620   34.4480 C   0  0  0  0  0  0  0  0  0  0  0  0
   37.0030   26.4180   34.0810 O   0  0  0  0  0  0  0  0  0  0  0  0
   39.3740   26.5530   36.3130 H   0  0  0  0  0  0  0  0  0  0  0  0
   37.9920   28.8410   35.9350 H   0  0  0  0  0  0  0  0  0  0  0  0
   35.8690   28.5750   33.8800 C   0  0  0  0  0  3  0  0  0  0  0  0
   36.1510   28.9590   32.4660 C   0  0  0  0  0  3  0  0  0  0  0  0
   37.2470   28.7530   32.2930 H   0  0  0  0  0  0  0  0  0  0  0  0
   35.9730   30.4390   32.2070 C   0  0  0  0  0  3  0  0  0  0  0  0
   35.8890   30.5580   31.1070 H   0  0  0  0  0  0  0  0  0  0  0  0
   34.8100   30.9590   32.7640 O   0  0  0  0  0  0  0  0  0  0  0  0
   34.6130   30.6220   34.0900 C   0  0  0  0  0  3  0  0  0  0  0  0
   34.2810   31.4500   34.7280 H   0  0  0  0  0  0  0  0  0  0  0  0
   35.8120   29.8770   34.6900 C   0  0  0  0  0  3  0  0  0  0  0  0
   35.5240   29.6670   35.7490 H   0  0  0  0  0  0  0  0  0  0  0  0
   38.4050   24.4290   34.5930 C   0  0  0  0  0  0  0  0  0  0  0  0
   38.0640   23.8270   33.5390 O   0  0  0  0  0  0  0  0  0  0  0  0
   39.2440   22.9750   37.8100 C   0  0  0  0  0  0  0  0  0  0  0  0
   40.5780   22.6120   37.6660 C   0  0  0  0  0  0  0  0  0  0  0  0
   41.2090   22.8620   36.4590 C   0  0  0  0  0  0  0  0  0  0  0  0
   40.4780   23.4550   35.4720 N   0  0  0  0  0  0  0  0  0  0  0  0
   39.1910   23.7950   35.6400 C   0  0  0  0  0  0  0  0  0  0  0  0
   38.5690   23.5550   36.8130 N   0  0  0  0  0  0  0  0  0  0  0  0
   38.8080   22.7520   38.7810 H   0  0  0  0  0  0  0  0  0  0  0  0
   41.2200   22.1410   38.3970 H   0  0  0  0  0  0  0  0  0  0  0  0
   42.2250   22.6590   36.1460 H   0  0  0  0  0  0  0  0  0  0  0  0
  1  2  2  0  0  0  0
  2  6  1  0  0  0  0
  3  2  1  0  0  0  0
  3  7  1  0  0  0  0
  4  3  2  0  0  0  0
  5  4  1  0  0  0  0
  5  1  1  0  0  0  0
  8  4  1  0  0  0  0
  8 16  1  0  0  0  0
  9  8  1  0  0  0  0
 10  9  1  0  0  0  0
 11  9  1  0  0  0  0
 11 13  1  0  0  0  0
 12 11  1  0  0  0  0
 13 14  1  0  0  0  0
 14 16  1  0  0  0  0
 14 15  1  0  0  0  0
 16 17  1  0  0  0  0
 18  1  1  0  0  0  0
 18 24  1  0  0  0  0
 19 18  2  0  0  0  0
 20 26  1  0  0  0  0
 21 20  1  0  0  0  0
 21 27  1  0  0  0  0
 22 21  2  0  0  0  0
 23 24  2  0  0  0  0
 23 22  1  0  0  0  0
 24 25  1  0  0  0  0
 25 20  2  0  0  0  0
 28 22  1  0  0  0  0
M  END
>  <minimizedAffinity>
-4.86194897

$$$$

 OpenBabel03272508463D

 28 30  0  0  0  0  0  0  0  0999 V2000
   37.7320   22.1950   35.6730 C   0  0  0  0  0  0  0  0  0  0  0  0
   36.6870   21.6230   36.3560 C   0  0  0  0  0  0  0  0  0  0  0  0
   35.9460   20.9890   35.3480 C   0  0  0  0  0  0  0  0  0  0  0  0
   36.5700   21.2070   34.1400 C   0  0  0  0  0  0  0  0  0  0  0  0
   37.6280   21.9290   34.3830 O   0  0  0  0  0  0  0  0  0  0  0  0
   36.4760   21.6490   37.4180 H   0  0  0  0  0  0  0  0  0  0  0  0
   35.0290   20.4190   35.5000 H   0  0  0  0  0  0  0  0  0  0  0  0
   36.1910   20.7540   32.7910 C   0  0  0  0  0  3  0  0  0  0  0  0
   35.4200   19.4760   32.7930 C   0  0  0  0  0  3  0  0  0  0  0  0
   35.6260   18.9820   33.7860 H   0  0  0  0  0  0  0  0  0  0  0  0
   35.8960   18.4950   31.7460 C   0  0  0  0  0  3  0  0  0  0  0  0
   35.0830   17.7500   31.6180 H   0  0  0  0  0  0  0  0  0  0  0  0
   36.1130   19.0780   30.5030 O   0  0  0  0  0  0  0  0  0  0  0  0
   36.8760   20.2310   30.5400 C   0  0  0  0  0  3  0  0  0  0  0  0
   37.6470   20.2950   29.7620 H   0  0  0  0  0  0  0  0  0  0  0  0
   37.4430   20.5150   31.9370 C   0  0  0  0  0  3  0  0  0  0  0  0
   38.0280   21.4590   31.8280 H   0  0  0  0  0  0  0  0  0  0  0  0
   38.7990   22.9830   36.3070 C   0  0  0  0  0  0  0  0  0  0  0  0
   39.5190   22.4060   37.1660 O   0  0  0  0  0  0  0  0  0  0  0  0
   38.2470   26.5650   36.1390 C   0  0  0  0  0  0  0  0  0  0  0  0
   39.2540   27.0110   35.2910 C   0  0  0  0  0  0  0  0  0  0  0  0
   40.1390   26.0850   34.7640 C   0  0  0  0  0  0  0  0  0  0  0  0
   39.9690   24.7770   35.1120 N   0  0  0  0  0  0  0  0  0  0  0  0
   38.9870   24.3750   35.9330 C   0  0  0  0  0  0  0  0  0  0  0  0
   38.1200   25.2720   36.4500 N   0  0  0  0  0  0  0  0  0  0  0  0
   37.5860   27.3420   36.5170 H   0  0  0  0  0  0  0  0  0  0  0  0
   39.4520   28.0250   34.9710 H   0  0  0  0  0  0  0  0  0  0  0  0
   40.9800   26.2230   34.0970 H   0  0  0  0  0  0  0  0  0  0  0  0
  1 18  1  0  0  0  0
  1  2  2  0  0  0  0
  2  6  1  0  0  0  0
  3  7  1  0  0  0  0
  3  2  1  0  0  0  0
  4  5  1  0  0  0  0
  4  3  2  0  0  0  0
  5  1  1  0  0  0  0
  8  9  1  0  0  0  0
  8  4  1  0  0  0  0
  9 10  1  0  0  0  0
 11  9  1  0  0  0  0
 12 11  1  0  0  0  0
 13 14  1  0  0  0  0
 13 11  1  0  0  0  0
 14 16  1  0  0  0  0
 15 14  1  0  0  0  0
 16  8  1  0  0  0  0
 17 16  1  0  0  0  0
 18 19  2  0  0  0  0
 20 25  1  0  0  0  0
 20 26  1  0  0  0  0
 21 20  2  0  0  0  0
 22 23  2  0  0  0  0
 22 21  1  0  0  0  0
 23 24  1  0  0  0  0
 24 18  1  0  0  0  0
 24 25  2  0  0  0  0
 27 21  1  0  0  0  0
 28 22  1  0  0  0  0
M  END
>  <minimizedAffinity>
-4.8343935

$$$$
