
     RDKit          3D

 37 39  0  0  0  0  0  0  0  0999 V2000
   37.4098   29.9427   50.5669 C   0  0  0  0  0  0  0  0  0  0  0  0
   37.8639   30.4105   49.3234 C   0  0  0  0  0  0  0  0  0  0  0  0
   36.9974   30.6686   48.2925 C   0  0  0  0  0  0  0  0  0  0  0  0
   35.6658   30.4537   48.5139 N   0  0  0  0  0  0  0  0  0  0  0  0
   35.2041   30.0007   49.7097 C   0  0  0  0  0  0  0  0  0  0  0  0
   36.0669   29.7455   50.7330 N   0  0  0  0  0  0  0  0  0  0  0  0
   37.4461   31.1400   47.0544 N   0  0  0  0  0  0  0  0  0  0  0  0
   36.8069   30.8035   45.9019 C   0  0  0  0  0  0  0  0  0  0  0  0
   37.2336   31.2613   44.6624 C   0  0  0  0  0  0  0  0  0  0  0  0
   38.3647   32.0957   44.6396 C   0  0  0  0  0  0  0  0  0  0  0  0
   38.7837   32.5310   43.5435 O   0  0  0  0  0  0  0  0  0  0  0  0
   39.0006   32.4278   45.8078 N   0  0  0  0  0  0  0  0  0  0  0  0
   38.4939   31.9260   46.9263 C   0  0  0  0  0  0  0  0  0  0  0  0
   39.1038   32.2559   47.9709 O   0  0  0  0  0  0  0  0  0  0  0  0
   40.1715   33.2845   45.7782 C   0  0  0  0  0  0  0  0  0  0  0  0
   40.0488   34.2256   44.8088 F   0  0  0  0  0  0  0  0  0  0  0  0
   41.3333   32.5850   45.4953 F   0  0  0  0  0  0  0  0  0  0  0  0
   40.2843   33.9350   47.0005 F   0  0  0  0  0  0  0  0  0  0  0  0
   38.0281   29.7208   51.4160 H   0  0  0  0  0  0  0  0  0  0  0  0
   38.9282   30.5039   49.3417 H   0  0  0  0  0  0  0  0  0  0  0  0
   34.1359   29.8576   49.8000 H   0  0  0  0  0  0  0  0  0  0  0  0
   35.9367   30.1582   45.9440 H   0  0  0  0  0  0  0  0  0  0  0  0
   36.5144   30.8723   43.4590 C   0  0  2  0  0  0  0  0  0  0  0  0
   35.5692   29.7016   43.6758 C   0  0  1  0  0  0  0  0  0  0  0  0
   36.1652   28.7776   43.9022 H   0  0  0  0  0  0  0  0  0  0  0  0
   34.8833   29.4461   42.3508 C   0  0  1  0  0  0  0  0  0  0  0  0
   35.2438   28.5074   41.8599 H   0  0  0  0  0  0  0  0  0  0  0  0
   35.0824   30.4595   41.4258 O   0  0  0  0  0  0  0  0  0  0  0  0
   36.4103   30.6057   41.0607 C   0  0  1  0  0  0  0  0  0  0  0  0
   36.7058   29.9109   40.2668 H   0  0  0  0  0  0  0  0  0  0  0  0
   37.3545   30.5364   42.2680 C   0  0  1  0  0  0  0  0  0  0  0  0
   38.2256   31.2075   42.1326 H   0  0  0  0  0  0  0  0  0  0  0  0
   35.8588   31.7338   43.1375 H   0  0  0  0  0  0  0  0  0  0  0  0
   34.8832   29.8370   44.5191 H   0  0  0  0  0  0  0  0  0  0  0  0
   33.7984   29.4204   42.5722 H   0  0  0  0  0  0  0  0  0  0  0  0
   36.5011   31.6803   40.7261 H   0  0  0  0  0  0  0  0  0  0  0  0
   37.6853   29.4754   42.3207 H   0  0  0  0  0  0  0  0  0  0  0  0
  1  6  2  0
  2  1  1  0
  3  4  1  0
  3  2  2  0
  4  5  2  0
  5  6  1  0
  7  3  1  0
  8  7  1  0
  9  8  2  0
 10  9  1  0
 10 12  1  0
 11 10  2  0
 12 13  1  0
 13  7  1  0
 13 14  2  0
 15 12  1  0
 15 18  1  0
 16 15  1  0
 17 15  1  0
  1 19  1  0
  2 20  1  0
  5 21  1  0
  8 22  1  0
 23 24  1  0
 24 25  1  1
 24 26  1  0
 26 27  1  6
 26 28  1  0
 28 29  1  0
 29 30  1  6
 29 31  1  0
 31 32  1  6
 31 23  1  0
 23 33  1  6
 24 34  1  0
 26 35  1  0
 29 36  1  0
 31 37  1  0
  9 23  1  0
M  ISO  8  19  14  20  14  21  14  22  14  25  15  27  15  30  15  32  15
M  END
>  <DihAtoms>  (1) 
7,8,22,23

>  <DihDeg>  (1) 
-89.99854594831938

$$$$
