REMARK  Name = 
REMARK  5 active torsions:
REMARK  status: ('A' for Active; 'I' for Inactive)
REMARK    1  A    between atoms: C_1  and  C_7
REMARK    2  A    between atoms: C_2  and  C_14
REMARK    3  A    between atoms: C_5  and  C_9
REMARK    4  A    between atoms: C_14  and  C_15
REMARK    5  A    between atoms: C_20  and  C_34
REMARK                            x       y       z     vdW  Elec       q    Type
REMARK                         _______ _______ _______ _____ _____    ______ ____
ROOT
ATOM      1  C   UNL     1      33.175  28.046  47.796  0.00  0.00    +0.000 C 
ATOM      2  H   UNL     1      32.415  28.709  47.375  0.00  0.00    +0.000 HD
ATOM      3  H   UNL     1      32.645  27.521  48.647  0.00  0.00    +0.000 HD
ENDROOT
BRANCH   1   4
ATOM      4  C   UNL     1      33.606  26.942  46.903  0.00  0.00    +0.000 A 
ATOM      5  C   UNL     1      33.792  25.626  47.321  0.00  0.00    +0.000 A 
ATOM      6  C   UNL     1      34.190  24.643  46.447  0.00  0.00    +0.000 A 
ATOM      7  C   UNL     1      34.418  24.949  45.107  0.00  0.00    +0.000 A 
ATOM      8  C   UNL     1      34.237  26.235  44.695  0.00  0.00    +0.000 A 
ATOM      9  C   UNL     1      33.837  27.229  45.570  0.00  0.00    +0.000 A 
ATOM     10  H   UNL     1      33.584  25.512  48.386  0.00  0.00    +0.000 HD
ATOM     11  H   UNL     1      34.275  23.701  46.971  0.00  0.00    +0.000 HD
ATOM     12  H   UNL     1      34.726  24.095  44.522  0.00  0.00    +0.000 HD
ATOM     13  H   UNL     1      34.443  26.358  43.642  0.00  0.00    +0.000 HD
BRANCH   9  14
ATOM     14  C   UNL     1      33.707  28.561  44.936  0.00  0.00    +0.000 C 
ATOM     15  C   UNL     1      35.105  29.159  44.826  0.00  0.00    +0.000 C 
ATOM     16  H   UNL     1      35.758  28.304  44.478  0.00  0.00    +0.000 HD
ATOM     17  C   UNL     1      35.183  30.297  43.855  0.00  0.00    +0.000 C 
ATOM     18  H   UNL     1      35.226  31.270  44.390  0.00  0.00    +0.000 HD
ATOM     19  O   UNL     1      34.239  30.273  42.855  0.00  0.00    +0.000 OA
ATOM     20  C   UNL     1      34.033  28.922  42.495  0.00  0.00    +0.000 C 
ATOM     21  H   UNL     1      35.003  28.386  42.494  0.00  0.00    +0.000 HD
ATOM     22  C   UNL     1      33.080  28.390  43.574  0.00  0.00    +0.000 C 
ATOM     23  H   UNL     1      32.724  27.389  43.346  0.00  0.00    +0.000 HD
ENDBRANCH   9  14
ENDBRANCH   1   4
BRANCH   1  25
ATOM     24  C   UNL     1      35.012  28.376  49.460  0.00  0.00    +0.000 C 
ATOM     25  C   UNL     1      34.289  28.763  48.438  0.00  0.00    +0.000 C 
BRANCH  24  30
ATOM     26  C   UNL     1      37.379  30.172  51.575  0.00  0.00    +0.000 A 
ATOM     27  C   UNL     1      38.085  30.943  50.622  0.00  0.00    +0.000 A 
ATOM     28  C   UNL     1      37.718  30.816  49.273  0.00  0.00    +0.000 A 
ATOM     29  N   UNL     1      36.700  29.959  48.946  0.00  0.00    +0.000 NA
ATOM     30  C   UNL     1      36.068  29.251  49.923  0.00  0.00    +0.000 A 
ATOM     31  N   UNL     1      36.401  29.357  51.207  0.00  0.00    +0.000 NA
ATOM     32  H   UNL     1      37.679  30.283  52.624  0.00  0.00    +0.000 HD
ATOM     33  H   UNL     1      38.884  31.618  50.865  0.00  0.00    +0.000 HD
BRANCH  28  34
ATOM     34  C   UNL     1      38.380  31.569  48.201  0.00  0.00    +0.000 A 
ATOM     35  C   UNL     1      38.585  31.046  46.947  0.00  0.00    +0.000 A 
ATOM     36  C   UNL     1      39.231  32.022  46.188  0.00  0.00    +0.000 A 
ATOM     37  N   UNL     1      39.391  33.092  47.008  0.00  0.00    +0.000 N 
ATOM     38  N   UNL     1      38.882  32.806  48.193  0.00  0.00    +0.000 NA
ATOM     39  H   UNL     1      38.298  30.056  46.608  0.00  0.00    +0.000 HD
ATOM     40  H   UNL     1      39.537  31.927  45.152  0.00  0.00    +0.000 HD
ATOM     41  H   UNL     1      39.845  33.995  46.738  0.00  0.00    +0.000 HD
ENDBRANCH  28  34
ENDBRANCH  24  30
ENDBRANCH   1  25
TORSDOF 5
