
     RDKit          3D

 32 34  0  0  0  0  0  0  0  0999 V2000
   37.3491   29.8312   50.9628 C   0  0  0  0  0  0  0  0  0  0  0  0
   38.1057   30.7231   50.2003 C   0  0  0  0  0  0  0  0  0  0  0  0
   37.7988   30.8512   48.8504 C   0  0  0  0  0  0  0  0  0  0  0  0
   36.7863   30.1094   48.3409 N   0  0  0  0  0  0  0  0  0  0  0  0
   36.0665   29.2488   49.1074 C   0  0  0  0  0  0  0  0  0  0  0  0
   36.3595   29.1193   50.4208 N   0  0  0  0  0  0  0  0  0  0  0  0
   38.5426   31.7628   47.9849 C   0  0  0  0  0  0  0  0  0  0  0  0
   39.0195   31.4471   46.7398 C   0  0  0  0  0  0  0  0  0  0  0  0
   39.6470   32.6141   46.3143 C   0  0  0  0  0  0  0  0  0  0  0  0
   39.5434   33.5687   47.2642 N   0  0  0  0  0  0  0  0  0  0  0  0
   38.8640   33.0371   48.2857 N   0  0  0  0  0  0  0  0  0  0  0  0
   37.7645   29.8063   52.2834 O   0  0  0  0  0  0  0  0  0  0  0  0
   38.9107   31.3303   50.5466 H   0  0  0  0  0  0  0  0  0  0  0  0
   35.2581   28.6585   48.6936 H   0  0  0  0  0  0  0  0  0  0  0  0
   38.8974   30.4853   46.2592 H   0  0  0  0  0  0  0  0  0  0  0  0
   40.1275   32.6446   45.3271 H   0  0  0  0  0  0  0  0  0  0  0  0
   39.9511   34.5292   47.1429 H   0  0  0  0  0  0  0  0  0  0  0  0
   37.0684   28.9337   53.1607 C   0  0  0  0  0  0  0  0  0  0  0  0
   36.6987   27.6949   52.3852 C   0  0  2  0  0  0  0  0  0  0  0  0
   36.6358   26.8214   53.0759 H   0  0  0  0  0  0  0  0  0  0  0  0
   35.3618   27.8134   51.7286 C   0  0  2  0  0  0  0  0  0  0  0  0
   35.1427   26.7938   51.2965 H   0  0  0  0  0  0  0  0  0  0  0  0
   34.4162   28.1004   52.7071 O   0  0  0  0  0  0  0  0  0  0  0  0
   34.6088   29.4196   53.1071 C   0  0  1  0  0  0  0  0  0  0  0  0
   34.5170   30.1270   52.2660 H   0  0  0  0  0  0  0  0  0  0  0  0
   35.9210   29.6174   53.8207 C   0  0  2  0  0  0  0  0  0  0  0  0
   36.1238   30.7250   53.7600 H   0  0  0  0  0  0  0  0  0  0  0  0
   37.7467   28.5667   53.9860 H   0  0  0  0  0  0  0  0  0  0  0  0
   37.4868   27.5278   51.6326 H   0  0  0  0  0  0  0  0  0  0  0  0
   35.3650   28.5444   50.8926 H   0  0  0  0  0  0  0  0  0  0  0  0
   33.8038   29.6649   53.8321 H   0  0  0  0  0  0  0  0  0  0  0  0
   35.8377   29.3874   54.9085 H   0  0  0  0  0  0  0  0  0  0  0  0
  1 12  1  0
  2  1  2  0
  3  2  1  0
  4  3  2  0
  4  5  1  0
  5  6  2  0
  6  1  1  0
  7 11  2  0
  7  3  1  0
  8  7  1  0
  9  8  2  0
  9 10  1  0
 10 11  1  0
  2 13  1  0
  5 14  1  0
  8 15  1  0
  9 16  1  0
 10 17  1  0
 18 19  1  0
 19 20  1  1
 19 21  1  0
 21 22  1  6
 21 23  1  0
 23 24  1  0
 24 25  1  6
 24 26  1  0
 26 27  1  1
 26 18  1  0
 18 28  1  0
 19 29  1  0
 21 30  1  0
 24 31  1  0
 26 32  1  0
 12 18  1  0
M  ISO  8  13  14  14  14  15  14  16  14  17   9  20  15  22  15  25  15
M  ISO  1  27  15
M  END
>  <DihAtoms>  (1) 
0,11,17,18

>  <DihDeg>  (1) 
-114.2976833685385

$$$$
