REMARK  Name = 
REMARK  3 active torsions:
REMARK  status: ('A' for Active; 'I' for Inactive)
REMARK    1  A    between atoms: C_3  and  N_7
REMARK    2  A    between atoms: C_9  and  C_23
REMARK    3  A    between atoms: N_12  and  C_15
REMARK                            x       y       z     vdW  Elec       q    Type
REMARK                         _______ _______ _______ _____ _____    ______ ____
ROOT
ATOM      1  N   UNL     1      37.446  31.140  47.054  0.00  0.00    +0.000 N 
ATOM      2  C   UNL     1      36.807  30.803  45.902  0.00  0.00    +0.000 A 
ATOM      3  C   UNL     1      37.234  31.261  44.662  0.00  0.00    +0.000 A 
ATOM      4  C   UNL     1      38.365  32.096  44.640  0.00  0.00    +0.000 A 
ATOM      5  O   UNL     1      38.784  32.531  43.544  0.00  0.00    +0.000 OA
ATOM      6  N   UNL     1      39.001  32.428  45.808  0.00  0.00    +0.000 N 
ATOM      7  C   UNL     1      38.494  31.926  46.926  0.00  0.00    +0.000 A 
ATOM      8  O   UNL     1      39.104  32.256  47.971  0.00  0.00    +0.000 OA
ATOM      9  H   UNL     1      35.937  30.158  45.944  0.00  0.00    +0.000 HD
ENDROOT
BRANCH   3  10
ATOM     10  C   UNL     1      36.514  30.872  43.459  0.00  0.00    +0.000 C 
ATOM     11  C   UNL     1      37.041  29.591  42.832  0.00  0.00    +0.000 C 
ATOM     12  H   UNL     1      38.078  29.767  42.439  0.00  0.00    +0.000 HD
ATOM     13  C   UNL     1      36.175  29.312  41.622  0.00  0.00    +0.000 C 
ATOM     14  H   UNL     1      36.716  29.497  40.660  0.00  0.00    +0.000 HD
ATOM     15  O   UNL     1      35.032  30.097  41.573  0.00  0.00    +0.000 OA
ATOM     16  C   UNL     1      35.309  31.448  41.446  0.00  0.00    +0.000 C 
ATOM     17  H   UNL     1      35.481  31.745  40.406  0.00  0.00    +0.000 HD
ATOM     18  C   UNL     1      36.451  31.895  42.369  0.00  0.00    +0.000 C 
ATOM     19  H   UNL     1      36.288  32.928  42.735  0.00  0.00    +0.000 HD
ENDBRANCH   3  10
BRANCH   1  22
ATOM     20  C   UNL     1      37.410  29.943  50.567  0.00  0.00    +0.000 A 
ATOM     21  C   UNL     1      37.864  30.410  49.323  0.00  0.00    +0.000 A 
ATOM     22  C   UNL     1      36.997  30.669  48.292  0.00  0.00    +0.000 A 
ATOM     23  N   UNL     1      35.666  30.454  48.514  0.00  0.00    +0.000 NA
ATOM     24  C   UNL     1      35.204  30.001  49.710  0.00  0.00    +0.000 A 
ATOM     25  N   UNL     1      36.067  29.745  50.733  0.00  0.00    +0.000 NA
ATOM     26  H   UNL     1      38.028  29.721  51.416  0.00  0.00    +0.000 HD
ATOM     27  H   UNL     1      38.928  30.504  49.342  0.00  0.00    +0.000 HD
ATOM     28  H   UNL     1      34.136  29.858  49.800  0.00  0.00    +0.000 HD
ENDBRANCH   1  22
BRANCH   6  29
ATOM     29  C   UNL     1      40.172  33.285  45.778  0.00  0.00    +0.000 C 
ATOM     30  F   UNL     1      40.049  34.226  44.809  0.00  0.00    +0.000 F 
ATOM     31  F   UNL     1      41.333  32.585  45.495  0.00  0.00    +0.000 F 
ATOM     32  F   UNL     1      40.284  33.935  47.001  0.00  0.00    +0.000 F 
ENDBRANCH   6  29
TORSDOF 3
