REMARK  Name = 
REMARK  5 active torsions:
REMARK  status: ('A' for Active; 'I' for Inactive)
REMARK    1  A    between atoms: C_1  and  C_2
REMARK    2  A    between atoms: C_1  and  O_9
REMARK    3  A    between atoms: C_2  and  C_3
REMARK    4  A    between atoms: O_9  and  C_14
REMARK    5  A    between atoms: C_12  and  C_25
REMARK                            x       y       z     vdW  Elec       q    Type
REMARK                         _______ _______ _______ _____ _____    ______ ____
ROOT
ATOM      1  C   UNL     1      37.229  30.195  51.296  0.00  0.00    +0.000 A 
ATOM      2  C   UNL     1      37.911  30.643  50.143  0.00  0.00    +0.000 A 
ATOM      3  C   UNL     1      37.425  30.227  48.916  0.00  0.00    +0.000 A 
ATOM      4  N   UNL     1      36.318  29.410  48.885  0.00  0.00    +0.000 NA
ATOM      5  C   UNL     1      35.703  29.010  50.002  0.00  0.00    +0.000 A 
ATOM      6  N   UNL     1      36.161  29.404  51.201  0.00  0.00    +0.000 NA
ATOM      7  H   UNL     1      37.552  30.480  52.289  0.00  0.00    +0.000 HD
ATOM      8  H   UNL     1      38.777  31.286  50.244  0.00  0.00    +0.000 HD
ENDROOT
BRANCH   3   9
ATOM      9  C   UNL     1      38.124  30.685  47.690  0.00  0.00    +0.000 C 
ATOM     10  C   UNL     1      39.056  31.808  47.968  0.00  0.00    +0.000 C 
ATOM     11  H   UNL     1      38.641  32.604  48.607  0.00  0.00    +0.000 HD
ATOM     12  C   UNL     1      39.429  32.496  46.669  0.00  0.00    +0.000 C 
ATOM     13  H   UNL     1      39.910  31.824  45.934  0.00  0.00    +0.000 HD
ATOM     14  O   UNL     1      38.233  33.051  46.173  0.00  0.00    +0.000 OA
ATOM     15  C   UNL     1      37.520  31.987  45.630  0.00  0.00    +0.000 C 
ATOM     16  H   UNL     1      36.616  32.402  45.136  0.00  0.00    +0.000 HD
ATOM     17  C   UNL     1      37.060  31.009  46.676  0.00  0.00    +0.000 C 
ATOM     18  H   UNL     1      36.168  31.398  47.208  0.00  0.00    +0.000 HD
ENDBRANCH   3   9
BRANCH   5  19
ATOM     19  O   UNL     1      34.627  28.204  49.726  0.00  0.00    +0.000 OA
BRANCH  19  20
ATOM     20  C   UNL     1      33.733  28.586  48.691  0.00  0.00    +0.000 C 
ATOM     21  H   UNL     1      34.330  28.941  47.828  0.00  0.00    +0.000 HD
ATOM     22  H   UNL     1      33.150  29.466  49.029  0.00  0.00    +0.000 HD
BRANCH  20  23
ATOM     23  C   UNL     1      32.810  27.460  48.354  0.00  0.00    +0.000 C 
ATOM     24  H   UNL     1      33.092  27.102  47.326  0.00  0.00    +0.000 HD
ATOM     25  H   UNL     1      32.952  26.625  49.070  0.00  0.00    +0.000 HD
BRANCH  23  26
ATOM     26  C   UNL     1      31.372  27.866  48.346  0.00  0.00    +0.000 A 
ATOM     27  C   UNL     1      30.694  27.734  49.536  0.00  0.00    +0.000 A 
ATOM     28  C   UNL     1      29.367  28.074  49.654  0.00  0.00    +0.000 A 
ATOM     29  N   UNL     1      28.717  28.546  48.582  0.00  0.00    +0.000 NA
ATOM     30  C   UNL     1      29.394  28.669  47.426  0.00  0.00    +0.000 A 
ATOM     31  N   UNL     1      30.689  28.344  47.284  0.00  0.00    +0.000 NA
ATOM     32  H   UNL     1      31.164  27.356  50.448  0.00  0.00    +0.000 HD
ATOM     33  H   UNL     1      28.795  27.986  50.576  0.00  0.00    +0.000 HD
ATOM     34  H   UNL     1      28.916  29.050  46.512  0.00  0.00    +0.000 HD
ENDBRANCH  23  26
ENDBRANCH  20  23
ENDBRANCH  19  20
ENDBRANCH   5  19
TORSDOF 5
