
 OpenBabel03272504293D

 43 46  0  0  0  0  0  0  0  0999 V2000
   38.0580   25.7970   33.6230 C   0  0  0  0  0  0  0  0  0  0  0  0
   38.0040   26.9360   34.3470 C   0  0  0  0  0  0  0  0  0  0  0  0
   38.9600   27.2350   35.2370 C   0  0  0  0  0  0  0  0  0  0  0  0
   39.9920   26.3700   35.4000 N   0  0  0  0  0  0  0  0  0  0  0  0
   40.0370   25.2540   34.6830 C   0  0  0  0  0  0  0  0  0  0  0  0
   39.0850   24.9460   33.7920 N   0  0  0  0  0  0  0  0  0  0  0  0
   37.1710   27.6140   34.2010 H   0  0  0  0  0  0  0  0  0  0  0  0
   38.8910   28.1490   35.7980 H   0  0  0  0  0  0  0  0  0  0  0  0
   41.1380   23.4220   35.8930 C   0  0  0  0  0  0  0  0  0  0  0  0
   41.1960   24.4270   34.9260 C   0  0  0  0  0  0  0  0  0  0  0  0
   42.3220   24.7170   34.1780 C   0  0  0  0  0  0  0  0  0  0  0  0
   43.4660   23.9820   34.3870 C   0  0  0  0  0  0  0  0  0  0  0  0
   43.5060   22.9730   35.3180 C   0  0  0  0  0  0  0  0  0  0  0  0
   42.3550   22.7590   36.0030 C   0  0  0  0  0  0  0  0  0  0  0  0
   42.3180   25.5060   33.4390 H   0  0  0  0  0  0  0  0  0  0  0  0
   44.3460   24.2180   33.7920 H   0  0  0  0  0  0  0  0  0  0  0  0
   44.3860   22.3740   35.5090 H   0  0  0  0  0  0  0  0  0  0  0  0
   42.3790   21.9520   36.7510 H   0  0  0  0  0  0  0  0  0  0  0  0
   39.7950   23.0280   36.7970 S   0  0  0  0  0  0  0  0  0  0  0  0
   40.5460   22.2190   37.9040 O   0  0  0  0  0  0  0  0  0  0  0  0
   38.9730   22.0670   35.9780 O   0  0  0  0  0  0  0  0  0  0  0  0
   38.6770   23.3590   37.8840 C   0  0  0  0  0  0  0  0  0  0  0  0
   37.3350   22.9300   37.8300 F   0  0  0  0  0  0  0  0  0  0  0  0
   38.2210   24.7500   37.7220 F   0  0  0  0  0  0  0  0  0  0  0  0
   39.0180   23.7200   39.2200 F   0  0  0  0  0  0  0  0  0  0  0  0
   35.3840   25.9780   31.1170 C   0  0  0  0  0  0  0  0  0  0  0  0
   35.1390   24.6250   30.8150 C   0  0  0  0  0  0  0  0  0  0  0  0
   35.9200   23.6740   31.5000 C   0  0  0  0  0  0  0  0  0  0  0  0
   36.8340   24.1220   32.3840 N   0  0  0  0  0  0  0  0  0  0  0  0
   37.0390   25.4440   32.6470 C   0  0  0  0  0  0  0  0  0  0  0  0
   36.3040   26.3600   32.0040 N   0  0  0  0  0  0  0  0  0  0  0  0
   34.7530   26.6700   30.5610 H   0  0  0  0  0  0  0  0  0  0  0  0
   34.3930   24.3120   30.0960 H   0  0  0  0  0  0  0  0  0  0  0  0
   35.7370   22.2190   31.2500 C   0  0  0  0  0  3  0  0  0  0  0  0
   35.0880   21.5300   32.4330 C   0  0  0  0  0  3  0  0  0  0  0  0
   35.7040   21.5880   33.3340 H   0  0  0  0  0  0  0  0  0  0  0  0
   34.8070   20.1080   31.9980 C   0  0  0  0  0  3  0  0  0  0  0  0
   33.9130   20.1510   31.3120 H   0  0  0  0  0  0  0  0  0  0  0  0
   35.8410   19.5910   31.2080 O   0  0  0  0  0  0  0  0  0  0  0  0
   37.0570   20.1980   31.5420 C   0  0  0  0  0  3  0  0  0  0  0  0
   37.8850   19.6270   31.1230 H   0  0  0  0  0  0  0  0  0  0  0  0
   37.1060   21.6220   31.0300 C   0  0  0  0  0  3  0  0  0  0  0  0
   37.8300   22.2060   31.6700 H   0  0  0  0  0  0  0  0  0  0  0  0
  1  6  2  0  0  0  0
  1  2  1  0  0  0  0
  2  3  2  0  0  0  0
  3  4  1  0  0  0  0
  3  8  1  0  0  0  0
  5 10  1  0  0  0  0
  5  4  2  0  0  0  0
  6  5  1  0  0  0  0
  7  2  1  0  0  0  0
  9 14  1  0  0  0  0
  9 19  1  0  0  0  0
 10  9  2  0  0  0  0
 11 12  2  0  0  0  0
 11 10  1  0  0  0  0
 12 13  1  0  0  0  0
 13 17  1  0  0  0  0
 13 14  2  0  0  0  0
 14 18  1  0  0  0  0
 15 11  1  0  0  0  0
 16 12  1  0  0  0  0
 19 22  1  0  0  0  0
 19 20  2  0  0  0  0
 21 19  2  0  0  0  0
 22 25  1  0  0  0  0
 23 22  1  0  0  0  0
 24 22  1  0  0  0  0
 26 31  1  0  0  0  0
 27 26  2  0  0  0  0
 27 28  1  0  0  0  0
 28 29  2  0  0  0  0
 29 30  1  0  0  0  0
 30  1  1  0  0  0  0
 31 30  2  0  0  0  0
 32 26  1  0  0  0  0
 33 27  1  0  0  0  0
 34 28  1  0  0  0  0
 34 35  1  0  0  0  0
 35 36  1  0  0  0  0
 37 35  1  0  0  0  0
 38 37  1  0  0  0  0
 39 40  1  0  0  0  0
 39 37  1  0  0  0  0
 41 40  1  0  0  0  0
 42 34  1  0  0  0  0
 42 40  1  0  0  0  0
 42 43  1  0  0  0  0
M  END
>  <minimizedAffinity>
-7.39740133

$$$$

 OpenBabel03272504293D

 43 46  0  0  0  0  0  0  0  0999 V2000
   35.7670   28.4870   32.3350 C   0  0  0  0  0  0  0  0  0  0  0  0
   35.6780   29.2900   31.2530 C   0  0  0  0  0  0  0  0  0  0  0  0
   35.2690   30.5610   31.3670 C   0  0  0  0  0  0  0  0  0  0  0  0
   34.9440   31.0330   32.5960 N   0  0  0  0  0  0  0  0  0  0  0  0
   35.0350   30.2370   33.6530 C   0  0  0  0  0  0  0  0  0  0  0  0
   35.4420   28.9640   33.5500 N   0  0  0  0  0  0  0  0  0  0  0  0
   35.9440   28.8930   30.2800 H   0  0  0  0  0  0  0  0  0  0  0  0
   35.2080   31.1760   30.4880 H   0  0  0  0  0  0  0  0  0  0  0  0
   33.4280   30.6340   35.4690 C   0  0  0  0  0  0  0  0  0  0  0  0
   34.6870   30.8600   34.9100 C   0  0  0  0  0  0  0  0  0  0  0  0
   35.6470   31.6800   35.4710 C   0  0  0  0  0  0  0  0  0  0  0  0
   35.3610   32.3240   36.6530 C   0  0  0  0  0  0  0  0  0  0  0  0
   34.1480   32.1650   37.2780 C   0  0  0  0  0  0  0  0  0  0  0  0
   33.2700   31.3400   36.6550 C   0  0  0  0  0  0  0  0  0  0  0  0
   36.6100   31.8230   35.0020 H   0  0  0  0  0  0  0  0  0  0  0  0
   36.1240   32.9680   37.0880 H   0  0  0  0  0  0  0  0  0  0  0  0
   33.8880   32.6550   38.2070 H   0  0  0  0  0  0  0  0  0  0  0  0
   32.2950   31.2070   37.1490 H   0  0  0  0  0  0  0  0  0  0  0  0
   32.2550   29.6340   34.8330 S   0  0  0  0  0  0  0  0  0  0  0  0
   31.0580   30.6280   34.9910 O   0  0  0  0  0  0  0  0  0  0  0  0
   32.0640   28.4980   35.8050 O   0  0  0  0  0  0  0  0  0  0  0  0
   31.4680   28.9770   33.6120 C   0  0  0  0  0  0  0  0  0  0  0  0
   31.1530   27.6090   33.4870 F   0  0  0  0  0  0  0  0  0  0  0  0
   32.3640   28.8600   32.4490 F   0  0  0  0  0  0  0  0  0  0  0  0
   30.6190   29.7510   32.7690 F   0  0  0  0  0  0  0  0  0  0  0  0
   36.3390   25.0510   31.1850 C   0  0  0  0  0  0  0  0  0  0  0  0
   37.1270   24.4980   32.2130 C   0  0  0  0  0  0  0  0  0  0  0  0
   37.4420   25.3460   33.2910 C   0  0  0  0  0  0  0  0  0  0  0  0
   36.9720   26.6100   33.2630 N   0  0  0  0  0  0  0  0  0  0  0  0
   36.2110   27.1050   32.2470 C   0  0  0  0  0  0  0  0  0  0  0  0
   35.9030   26.3100   31.2140 N   0  0  0  0  0  0  0  0  0  0  0  0
   36.1250   24.3520   30.3770 H   0  0  0  0  0  0  0  0  0  0  0  0
   37.4830   23.4760   32.1920 H   0  0  0  0  0  0  0  0  0  0  0  0
   38.2700   24.8560   34.4270 C   0  0  0  0  0  3  0  0  0  0  0  0
   38.1470   23.3560   34.5970 C   0  0  0  0  0  3  0  0  0  0  0  0
   37.1250   23.0500   34.8380 H   0  0  0  0  0  0  0  0  0  0  0  0
   39.1500   22.9630   35.6600 C   0  0  0  0  0  3  0  0  0  0  0  0
   40.1660   22.9980   35.1740 H   0  0  0  0  0  0  0  0  0  0  0  0
   39.2120   23.9070   36.6920 O   0  0  0  0  0  0  0  0  0  0  0  0
   37.9830   24.5650   36.8240 C   0  0  0  0  0  3  0  0  0  0  0  0
   37.9480   25.1020   37.7710 H   0  0  0  0  0  0  0  0  0  0  0  0
   37.7650   25.5310   35.6790 C   0  0  0  0  0  3  0  0  0  0  0  0
   36.6540   25.6840   35.5490 H   0  0  0  0  0  0  0  0  0  0  0  0
  1  6  1  0  0  0  0
  2  3  1  0  0  0  0
  2  1  2  0  0  0  0
  3  4  2  0  0  0  0
  4  5  1  0  0  0  0
  5 10  1  0  0  0  0
  6  5  2  0  0  0  0
  7  2  1  0  0  0  0
  8  3  1  0  0  0  0
  9 14  1  0  0  0  0
 10  9  2  0  0  0  0
 10 11  1  0  0  0  0
 11 12  2  0  0  0  0
 12 16  1  0  0  0  0
 12 13  1  0  0  0  0
 13 17  1  0  0  0  0
 14 18  1  0  0  0  0
 14 13  2  0  0  0  0
 15 11  1  0  0  0  0
 19 20  2  0  0  0  0
 19  9  1  0  0  0  0
 19 21  2  0  0  0  0
 22 19  1  0  0  0  0
 23 22  1  0  0  0  0
 24 22  1  0  0  0  0
 25 22  1  0  0  0  0
 26 31  2  0  0  0  0
 26 27  1  0  0  0  0
 27 28  2  0  0  0  0
 28 34  1  0  0  0  0
 29 28  1  0  0  0  0
 30  1  1  0  0  0  0
 30 29  2  0  0  0  0
 31 30  1  0  0  0  0
 32 26  1  0  0  0  0
 33 27  1  0  0  0  0
 34 35  1  0  0  0  0
 34 42  1  0  0  0  0
 35 36  1  0  0  0  0
 35 37  1  0  0  0  0
 37 39  1  0  0  0  0
 38 37  1  0  0  0  0
 39 40  1  0  0  0  0
 40 41  1  0  0  0  0
 42 40  1  0  0  0  0
 43 42  1  0  0  0  0
M  END
>  <minimizedAffinity>
-6.84324074

$$$$

 OpenBabel03272504293D

 43 46  0  0  0  0  0  0  0  0999 V2000
   36.3890   28.2140   33.4670 C   0  0  0  0  0  0  0  0  0  0  0  0
   36.1320   28.6250   32.2060 C   0  0  0  0  0  0  0  0  0  0  0  0
   35.3940   29.7190   31.9720 C   0  0  0  0  0  0  0  0  0  0  0  0
   34.9070   30.4140   33.0290 N   0  0  0  0  0  0  0  0  0  0  0  0
   35.1660   30.0040   34.2650 C   0  0  0  0  0  0  0  0  0  0  0  0
   35.9010   28.9110   34.5090 N   0  0  0  0  0  0  0  0  0  0  0  0
   36.5320   28.0550   31.3750 H   0  0  0  0  0  0  0  0  0  0  0  0
   35.2070   30.0210   30.9580 H   0  0  0  0  0  0  0  0  0  0  0  0
   33.2780   30.6920   35.6780 C   0  0  0  0  0  0  0  0  0  0  0  0
   34.6160   30.8400   35.3060 C   0  0  0  0  0  0  0  0  0  0  0  0
   35.4730   31.7730   35.8580 C   0  0  0  0  0  0  0  0  0  0  0  0
   34.9970   32.6180   36.8350 C   0  0  0  0  0  0  0  0  0  0  0  0
   33.6940   32.5480   37.2650 C   0  0  0  0  0  0  0  0  0  0  0  0
   32.9270   31.6020   36.6680 C   0  0  0  0  0  0  0  0  0  0  0  0
   36.5020   31.8500   35.5380 H   0  0  0  0  0  0  0  0  0  0  0  0
   35.6800   33.3490   37.2630 H   0  0  0  0  0  0  0  0  0  0  0  0
   33.2850   33.1950   38.0300 H   0  0  0  0  0  0  0  0  0  0  0  0
   31.8820   31.5390   37.0080 H   0  0  0  0  0  0  0  0  0  0  0  0
   32.2220   29.5640   35.0530 S   0  0  0  0  0  0  0  0  0  0  0  0
   30.9050   30.3410   35.3820 O   0  0  0  0  0  0  0  0  0  0  0  0
   32.2920   28.3480   35.9400 O   0  0  0  0  0  0  0  0  0  0  0  0
   31.4420   28.8770   33.8440 C   0  0  0  0  0  0  0  0  0  0  0  0
   30.9690   27.5490   33.8300 F   0  0  0  0  0  0  0  0  0  0  0  0
   32.3900   28.5340   32.7710 F   0  0  0  0  0  0  0  0  0  0  0  0
   30.7510   29.6490   32.8670 F   0  0  0  0  0  0  0  0  0  0  0  0
   38.8480   25.9070   34.9120 C   0  0  0  0  0  0  0  0  0  0  0  0
   38.6240   24.7150   34.1970 C   0  0  0  0  0  0  0  0  0  0  0  0
   37.6120   24.7460   33.2190 C   0  0  0  0  0  0  0  0  0  0  0  0
   36.9380   25.9010   33.0400 N   0  0  0  0  0  0  0  0  0  0  0  0
   37.1880   27.0340   33.7550 C   0  0  0  0  0  0  0  0  0  0  0  0
   38.1480   27.0200   34.6880 N   0  0  0  0  0  0  0  0  0  0  0  0
   39.6420   25.8280   35.6540 H   0  0  0  0  0  0  0  0  0  0  0  0
   39.1910   23.8110   34.3750 H   0  0  0  0  0  0  0  0  0  0  0  0
   37.2990   23.5370   32.4100 C   0  0  0  0  0  3  0  0  0  0  0  0
   35.8780   23.5720   31.8870 C   0  0  0  0  0  3  0  0  0  0  0  0
   35.1400   23.5720   32.6940 H   0  0  0  0  0  0  0  0  0  0  0  0
   35.7370   22.3870   30.9550 C   0  0  0  0  0  3  0  0  0  0  0  0
   36.2770   22.6600   30.0040 H   0  0  0  0  0  0  0  0  0  0  0  0
   36.4090   21.2600   31.4410 O   0  0  0  0  0  0  0  0  0  0  0  0
   36.4670   21.2930   32.8390 C   0  0  0  0  0  3  0  0  0  0  0  0
   36.7520   20.3140   33.2230 H   0  0  0  0  0  0  0  0  0  0  0  0
   37.4570   22.3370   33.3110 C   0  0  0  0  0  3  0  0  0  0  0  0
   37.1630   22.6610   34.3520 H   0  0  0  0  0  0  0  0  0  0  0  0
  1 30  1  0  0  0  0
  1  6  1  0  0  0  0
  2  1  2  0  0  0  0
  3  2  1  0  0  0  0
  3  4  2  0  0  0  0
  4  5  1  0  0  0  0
  5  6  2  0  0  0  0
  5 10  1  0  0  0  0
  7  2  1  0  0  0  0
  8  3  1  0  0  0  0
  9 14  1  0  0  0  0
 10  9  2  0  0  0  0
 10 11  1  0  0  0  0
 11 12  2  0  0  0  0
 12 16  1  0  0  0  0
 12 13  1  0  0  0  0
 13 17  1  0  0  0  0
 14 18  1  0  0  0  0
 14 13  2  0  0  0  0
 15 11  1  0  0  0  0
 19 20  2  0  0  0  0
 19  9  1  0  0  0  0
 19 21  2  0  0  0  0
 22 19  1  0  0  0  0
 23 22  1  0  0  0  0
 24 22  1  0  0  0  0
 25 22  1  0  0  0  0
 26 32  1  0  0  0  0
 27 33  1  0  0  0  0
 27 26  2  0  0  0  0
 28 27  1  0  0  0  0
 29 28  2  0  0  0  0
 29 30  1  0  0  0  0
 30 31  2  0  0  0  0
 31 26  1  0  0  0  0
 34 28  1  0  0  0  0
 34 42  1  0  0  0  0
 35 34  1  0  0  0  0
 35 36  1  0  0  0  0
 37 39  1  0  0  0  0
 37 35  1  0  0  0  0
 38 37  1  0  0  0  0
 39 40  1  0  0  0  0
 40 41  1  0  0  0  0
 40 42  1  0  0  0  0
 42 43  1  0  0  0  0
M  END
>  <minimizedAffinity>
-6.58370018

$$$$

 OpenBabel03272504293D

 43 46  0  0  0  0  0  0  0  0999 V2000
   37.2570   27.8210   31.6770 C   0  0  0  0  0  0  0  0  0  0  0  0
   38.3450   27.9160   30.8830 C   0  0  0  0  0  0  0  0  0  0  0  0
   39.1590   26.8680   30.6950 C   0  0  0  0  0  0  0  0  0  0  0  0
   38.8710   25.7000   31.3200 N   0  0  0  0  0  0  0  0  0  0  0  0
   37.7990   25.6150   32.0990 C   0  0  0  0  0  0  0  0  0  0  0  0
   36.9800   26.6580   32.2930 N   0  0  0  0  0  0  0  0  0  0  0  0
   38.5580   28.8590   30.3920 H   0  0  0  0  0  0  0  0  0  0  0  0
   40.0170   26.9740   30.0570 H   0  0  0  0  0  0  0  0  0  0  0  0
   38.1340   24.0190   33.9370 C   0  0  0  0  0  0  0  0  0  0  0  0
   37.5820   24.3140   32.6880 C   0  0  0  0  0  0  0  0  0  0  0  0
   36.8430   23.4190   31.9380 C   0  0  0  0  0  0  0  0  0  0  0  0
   36.6280   22.1530   32.4350 C   0  0  0  0  0  0  0  0  0  0  0  0
   37.1330   21.7710   33.6550 C   0  0  0  0  0  0  0  0  0  0  0  0
   37.8440   22.7150   34.3190 C   0  0  0  0  0  0  0  0  0  0  0  0
   36.4340   23.6930   30.9760 H   0  0  0  0  0  0  0  0  0  0  0  0
   36.0450   21.4560   31.8370 H   0  0  0  0  0  0  0  0  0  0  0  0
   36.9850   20.7860   34.0770 H   0  0  0  0  0  0  0  0  0  0  0  0
   38.2510   22.4160   35.2970 H   0  0  0  0  0  0  0  0  0  0  0  0
   39.0100   25.0790   34.8790 S   0  0  0  0  0  0  0  0  0  0  0  0
   40.4280   24.6130   34.4120 O   0  0  0  0  0  0  0  0  0  0  0  0
   38.8190   24.6600   36.3140 O   0  0  0  0  0  0  0  0  0  0  0  0
   39.6450   26.5100   35.1780 C   0  0  0  0  0  0  0  0  0  0  0  0
   39.0340   27.5310   35.9320 F   0  0  0  0  0  0  0  0  0  0  0  0
   39.5470   27.3580   33.9790 F   0  0  0  0  0  0  0  0  0  0  0  0
   41.0510   26.7300   35.1110 F   0  0  0  0  0  0  0  0  0  0  0  0
   34.9820   30.6510   31.1600 C   0  0  0  0  0  0  0  0  0  0  0  0
   34.6470   31.0340   32.4720 C   0  0  0  0  0  0  0  0  0  0  0  0
   35.2300   30.2890   33.5150 C   0  0  0  0  0  0  0  0  0  0  0  0
   36.0560   29.2750   33.1860 N   0  0  0  0  0  0  0  0  0  0  0  0
   36.3530   28.9370   31.8990 C   0  0  0  0  0  0  0  0  0  0  0  0
   35.8070   29.6370   30.8970 N   0  0  0  0  0  0  0  0  0  0  0  0
   34.5050   31.2600   30.3920 H   0  0  0  0  0  0  0  0  0  0  0  0
   33.9780   31.8570   32.6890 H   0  0  0  0  0  0  0  0  0  0  0  0
   34.9380   30.6160   34.9370 C   0  0  0  0  0  3  0  0  0  0  0  0
   33.5610   31.2260   35.0960 C   0  0  0  0  0  3  0  0  0  0  0  0
   33.4660   32.1750   34.5610 H   0  0  0  0  0  0  0  0  0  0  0  0
   33.3210   31.3580   36.5850 C   0  0  0  0  0  3  0  0  0  0  0  0
   33.0960   30.3210   36.9670 H   0  0  0  0  0  0  0  0  0  0  0  0
   34.4800   31.7490   37.2660 O   0  0  0  0  0  0  0  0  0  0  0  0
   35.3070   32.5030   36.4260 C   0  0  0  0  0  3  0  0  0  0  0  0
   36.0670   33.0160   37.0150 H   0  0  0  0  0  0  0  0  0  0  0  0
   35.9710   31.6190   35.3910 C   0  0  0  0  0  3  0  0  0  0  0  0
   36.2330   32.2550   34.4960 H   0  0  0  0  0  0  0  0  0  0  0  0
  1 30  1  0  0  0  0
  1  6  1  0  0  0  0
  2  1  2  0  0  0  0
  3  2  1  0  0  0  0
  3  4  2  0  0  0  0
  4  5  1  0  0  0  0
  5  6  2  0  0  0  0
  5 10  1  0  0  0  0
  7  2  1  0  0  0  0
  8  3  1  0  0  0  0
  9 14  1  0  0  0  0
  9 19  1  0  0  0  0
 10  9  2  0  0  0  0
 11 12  2  0  0  0  0
 11 10  1  0  0  0  0
 12 13  1  0  0  0  0
 13 17  1  0  0  0  0
 13 14  2  0  0  0  0
 14 18  1  0  0  0  0
 15 11  1  0  0  0  0
 16 12  1  0  0  0  0
 19 22  1  0  0  0  0
 19 21  2  0  0  0  0
 20 19  2  0  0  0  0
 22 23  1  0  0  0  0
 24 22  1  0  0  0  0
 25 22  1  0  0  0  0
 26 27  1  0  0  0  0
 27 33  1  0  0  0  0
 27 28  2  0  0  0  0
 28 34  1  0  0  0  0
 29 28  1  0  0  0  0
 30 29  2  0  0  0  0
 31 26  2  0  0  0  0
 31 30  1  0  0  0  0
 32 26  1  0  0  0  0
 34 35  1  0  0  0  0
 34 42  1  0  0  0  0
 35 37  1  0  0  0  0
 36 35  1  0  0  0  0
 37 38  1  0  0  0  0
 37 39  1  0  0  0  0
 40 41  1  0  0  0  0
 40 39  1  0  0  0  0
 42 40  1  0  0  0  0
 43 42  1  0  0  0  0
M  END
>  <minimizedAffinity>
-6.49470425

$$$$

 OpenBabel03272504293D

 43 46  0  0  0  0  0  0  0  0999 V2000
   37.7620   27.4460   32.3550 C   0  0  0  0  0  0  0  0  0  0  0  0
   38.7710   27.4100   31.4570 C   0  0  0  0  0  0  0  0  0  0  0  0
   39.6910   26.4370   31.4890 C   0  0  0  0  0  0  0  0  0  0  0  0
   39.5930   25.4790   32.4430 N   0  0  0  0  0  0  0  0  0  0  0  0
   38.5980   25.5200   33.3200 C   0  0  0  0  0  0  0  0  0  0  0  0
   37.6740   26.4910   33.2970 N   0  0  0  0  0  0  0  0  0  0  0  0
   38.8310   28.1860   30.7020 H   0  0  0  0  0  0  0  0  0  0  0  0
   40.4820   26.4350   30.7620 H   0  0  0  0  0  0  0  0  0  0  0  0
   37.9610   23.2280   33.9350 C   0  0  0  0  0  0  0  0  0  0  0  0
   38.5840   24.4320   34.2700 C   0  0  0  0  0  0  0  0  0  0  0  0
   39.1860   24.6790   35.4900 C   0  0  0  0  0  0  0  0  0  0  0  0
   39.1780   23.6890   36.4460 C   0  0  0  0  0  0  0  0  0  0  0  0
   38.5880   22.4710   36.2090 C   0  0  0  0  0  0  0  0  0  0  0  0
   38.0250   22.3200   34.9850 C   0  0  0  0  0  0  0  0  0  0  0  0
   39.6570   25.6270   35.7030 H   0  0  0  0  0  0  0  0  0  0  0  0
   39.6550   23.8930   37.4040 H   0  0  0  0  0  0  0  0  0  0  0  0
   38.5630   21.6710   36.9360 H   0  0  0  0  0  0  0  0  0  0  0  0
   37.5500   21.3470   34.7870 H   0  0  0  0  0  0  0  0  0  0  0  0
   37.2470   22.8870   32.4690 S   0  0  0  0  0  0  0  0  0  0  0  0
   36.2380   21.8170   32.9980 O   0  0  0  0  0  0  0  0  0  0  0  0
   38.2810   22.1900   31.6210 O   0  0  0  0  0  0  0  0  0  0  0  0
   36.2120   23.1940   31.2960 C   0  0  0  0  0  0  0  0  0  0  0  0
   36.2860   24.2860   30.4070 F   0  0  0  0  0  0  0  0  0  0  0  0
   34.9740   23.7580   31.8600 F   0  0  0  0  0  0  0  0  0  0  0  0
   35.3890   22.1720   30.7410 F   0  0  0  0  0  0  0  0  0  0  0  0
   35.3350   29.9720   31.2680 C   0  0  0  0  0  0  0  0  0  0  0  0
   34.8120   30.4540   32.4840 C   0  0  0  0  0  0  0  0  0  0  0  0
   35.3250   29.8810   33.6620 C   0  0  0  0  0  0  0  0  0  0  0  0
   36.2670   28.9230   33.5450 N   0  0  0  0  0  0  0  0  0  0  0  0
   36.7460   28.4860   32.3460 C   0  0  0  0  0  0  0  0  0  0  0  0
   36.2680   29.0210   31.2160 N   0  0  0  0  0  0  0  0  0  0  0  0
   34.9040   30.4490   30.3890 H   0  0  0  0  0  0  0  0  0  0  0  0
   34.0540   31.2250   32.5290 H   0  0  0  0  0  0  0  0  0  0  0  0
   34.8370   30.3220   34.9970 C   0  0  0  0  0  3  0  0  0  0  0  0
   33.5650   31.1370   34.8820 C   0  0  0  0  0  3  0  0  0  0  0  0
   33.7150   32.0600   34.3150 H   0  0  0  0  0  0  0  0  0  0  0  0
   33.0840   31.3820   36.2960 C   0  0  0  0  0  3  0  0  0  0  0  0
   32.6350   30.4120   36.6560 H   0  0  0  0  0  0  0  0  0  0  0  0
   34.1480   31.6330   37.1710 O   0  0  0  0  0  0  0  0  0  0  0  0
   35.2190   32.2110   36.4810 C   0  0  0  0  0  3  0  0  0  0  0  0
   35.9310   32.6360   37.1870 H   0  0  0  0  0  0  0  0  0  0  0  0
   35.9130   31.1850   35.6100 C   0  0  0  0  0  3  0  0  0  0  0  0
   36.4280   31.7260   34.7630 H   0  0  0  0  0  0  0  0  0  0  0  0
  1  6  1  0  0  0  0
  2  3  1  0  0  0  0
  2  1  2  0  0  0  0
  3  4  2  0  0  0  0
  4  5  1  0  0  0  0
  5 10  1  0  0  0  0
  6  5  2  0  0  0  0
  7  2  1  0  0  0  0
  8  3  1  0  0  0  0
  9 10  2  0  0  0  0
  9 14  1  0  0  0  0
 10 11  1  0  0  0  0
 11 15  1  0  0  0  0
 11 12  2  0  0  0  0
 12 16  1  0  0  0  0
 13 12  1  0  0  0  0
 13 17  1  0  0  0  0
 14 13  2  0  0  0  0
 18 14  1  0  0  0  0
 19 20  2  0  0  0  0
 19  9  1  0  0  0  0
 21 19  2  0  0  0  0
 22 24  1  0  0  0  0
 22 19  1  0  0  0  0
 23 22  1  0  0  0  0
 25 22  1  0  0  0  0
 26 27  1  0  0  0  0
 27 33  1  0  0  0  0
 27 28  2  0  0  0  0
 28 34  1  0  0  0  0
 29 28  1  0  0  0  0
 30  1  1  0  0  0  0
 30 29  2  0  0  0  0
 31 26  2  0  0  0  0
 31 30  1  0  0  0  0
 32 26  1  0  0  0  0
 34 42  1  0  0  0  0
 35 34  1  0  0  0  0
 35 37  1  0  0  0  0
 36 35  1  0  0  0  0
 37 38  1  0  0  0  0
 37 39  1  0  0  0  0
 40 39  1  0  0  0  0
 40 41  1  0  0  0  0
 42 40  1  0  0  0  0
 43 42  1  0  0  0  0
M  END
>  <minimizedAffinity>
-6.46727848

$$$$

 OpenBabel03272504293D

 43 46  0  0  0  0  0  0  0  0999 V2000
   34.8550   29.8820   31.8960 C   0  0  0  0  0  0  0  0  0  0  0  0
   34.3570   30.8760   31.1280 C   0  0  0  0  0  0  0  0  0  0  0  0
   33.2510   31.5400   31.4890 C   0  0  0  0  0  0  0  0  0  0  0  0
   32.6340   31.1980   32.6460 N   0  0  0  0  0  0  0  0  0  0  0  0
   33.1300   30.2210   33.3950 C   0  0  0  0  0  0  0  0  0  0  0  0
   34.2350   29.5500   33.0420 N   0  0  0  0  0  0  0  0  0  0  0  0
   34.8670   31.1340   30.2070 H   0  0  0  0  0  0  0  0  0  0  0  0
   32.8790   32.3260   30.8570 H   0  0  0  0  0  0  0  0  0  0  0  0
   32.7870   30.6000   35.7980 C   0  0  0  0  0  0  0  0  0  0  0  0
   32.4010   29.9660   34.6160 C   0  0  0  0  0  0  0  0  0  0  0  0
   31.3570   29.0650   34.5270 C   0  0  0  0  0  0  0  0  0  0  0  0
   30.6440   28.7600   35.6630 C   0  0  0  0  0  0  0  0  0  0  0  0
   30.9510   29.3320   36.8740 C   0  0  0  0  0  0  0  0  0  0  0  0
   31.9890   30.2050   36.8650 C   0  0  0  0  0  0  0  0  0  0  0  0
   31.0940   28.6000   33.5870 H   0  0  0  0  0  0  0  0  0  0  0  0
   29.8230   28.0490   35.5820 H   0  0  0  0  0  0  0  0  0  0  0  0
   30.4130   29.1170   37.7870 H   0  0  0  0  0  0  0  0  0  0  0  0
   32.2410   30.6680   37.8310 H   0  0  0  0  0  0  0  0  0  0  0  0
   34.0240   31.7080   35.9390 S   0  0  0  0  0  0  0  0  0  0  0  0
   34.0660   31.7410   37.5020 O   0  0  0  0  0  0  0  0  0  0  0  0
   33.4950   33.0310   35.4480 O   0  0  0  0  0  0  0  0  0  0  0  0
   35.5670   32.1100   35.9500 C   0  0  0  0  0  0  0  0  0  0  0  0
   36.0740   33.3890   36.2560 F   0  0  0  0  0  0  0  0  0  0  0  0
   36.0490   32.2680   34.5680 F   0  0  0  0  0  0  0  0  0  0  0  0
   36.5920   31.1320   36.1030 F   0  0  0  0  0  0  0  0  0  0  0  0
   37.7390   28.5510   30.0610 C   0  0  0  0  0  0  0  0  0  0  0  0
   38.3340   27.6800   30.9930 C   0  0  0  0  0  0  0  0  0  0  0  0
   37.7090   27.5780   32.2500 C   0  0  0  0  0  0  0  0  0  0  0  0
   36.5990   28.3120   32.4680 N   0  0  0  0  0  0  0  0  0  0  0  0
   36.0540   29.1430   31.5360 C   0  0  0  0  0  0  0  0  0  0  0  0
   36.6380   29.2510   30.3360 N   0  0  0  0  0  0  0  0  0  0  0  0
   38.2620   28.5920   29.1060 H   0  0  0  0  0  0  0  0  0  0  0  0
   39.2280   27.1100   30.7730 H   0  0  0  0  0  0  0  0  0  0  0  0
   38.2620   26.6840   33.3030 C   0  0  0  0  0  3  0  0  0  0  0  0
   37.5060   26.8290   34.6080 C   0  0  0  0  0  3  0  0  0  0  0  0
   37.5850   27.8380   35.0210 H   0  0  0  0  0  0  0  0  0  0  0  0
   38.0480   25.7640   35.5360 C   0  0  0  0  0  3  0  0  0  0  0  0
   37.6100   24.7830   35.1920 H   0  0  0  0  0  0  0  0  0  0  0  0
   39.4320   25.6090   35.3990 O   0  0  0  0  0  0  0  0  0  0  0  0
   40.0170   26.8090   34.9820 C   0  0  0  0  0  3  0  0  0  0  0  0
   41.0970   26.7660   35.1220 H   0  0  0  0  0  0  0  0  0  0  0  0
   39.7000   27.0850   33.5270 C   0  0  0  0  0  3  0  0  0  0  0  0
   39.7660   28.1980   33.3530 H   0  0  0  0  0  0  0  0  0  0  0  0
  1  6  1  0  0  0  0
  2  3  1  0  0  0  0
  2  1  2  0  0  0  0
  3  4  2  0  0  0  0
  4  5  1  0  0  0  0
  5 10  1  0  0  0  0
  6  5  2  0  0  0  0
  7  2  1  0  0  0  0
  8  3  1  0  0  0  0
  9 19  1  0  0  0  0
  9 14  1  0  0  0  0
 10  9  2  0  0  0  0
 11 10  1  0  0  0  0
 11 12  2  0  0  0  0
 12 13  1  0  0  0  0
 13 17  1  0  0  0  0
 14 13  2  0  0  0  0
 14 18  1  0  0  0  0
 15 11  1  0  0  0  0
 16 12  1  0  0  0  0
 19 22  1  0  0  0  0
 19 20  2  0  0  0  0
 21 19  2  0  0  0  0
 22 25  1  0  0  0  0
 22 23  1  0  0  0  0
 24 22  1  0  0  0  0
 26 31  2  0  0  0  0
 26 27  1  0  0  0  0
 27 28  2  0  0  0  0
 28 29  1  0  0  0  0
 28 34  1  0  0  0  0
 30  1  1  0  0  0  0
 30 29  2  0  0  0  0
 31 30  1  0  0  0  0
 32 26  1  0  0  0  0
 33 27  1  0  0  0  0
 34 42  1  0  0  0  0
 34 35  1  0  0  0  0
 35 36  1  0  0  0  0
 35 37  1  0  0  0  0
 38 37  1  0  0  0  0
 39 37  1  0  0  0  0
 40 41  1  0  0  0  0
 40 39  1  0  0  0  0
 42 40  1  0  0  0  0
 43 42  1  0  0  0  0
M  END
>  <minimizedAffinity>
-6.32973337

$$$$

 OpenBabel03272504293D

 43 46  0  0  0  0  0  0  0  0999 V2000
   37.5270   25.8600   31.1100 C   0  0  0  0  0  0  0  0  0  0  0  0
   38.7010   25.5820   30.5030 C   0  0  0  0  0  0  0  0  0  0  0  0
   39.1880   24.3340   30.4760 C   0  0  0  0  0  0  0  0  0  0  0  0
   38.4780   23.3450   31.0720 N   0  0  0  0  0  0  0  0  0  0  0  0
   37.3240   23.6270   31.6650 C   0  0  0  0  0  0  0  0  0  0  0  0
   36.8300   24.8720   31.6990 N   0  0  0  0  0  0  0  0  0  0  0  0
   39.2540   26.3880   30.0330 H   0  0  0  0  0  0  0  0  0  0  0  0
   40.1250   24.1440   29.9860 H   0  0  0  0  0  0  0  0  0  0  0  0
   37.0090   22.0370   33.5120 C   0  0  0  0  0  0  0  0  0  0  0  0
   36.6470   22.4880   32.2410 C   0  0  0  0  0  0  0  0  0  0  0  0
   35.6780   21.8920   31.4560 C   0  0  0  0  0  0  0  0  0  0  0  0
   35.0190   20.7850   31.9400 C   0  0  0  0  0  0  0  0  0  0  0  0
   35.3080   20.2670   33.1790 C   0  0  0  0  0  0  0  0  0  0  0  0
   36.2710   20.9180   33.8780 C   0  0  0  0  0  0  0  0  0  0  0  0
   35.4310   22.2780   30.4770 H   0  0  0  0  0  0  0  0  0  0  0  0
   34.2570   20.3230   31.3140 H   0  0  0  0  0  0  0  0  0  0  0  0
   34.8120   19.3990   33.5910 H   0  0  0  0  0  0  0  0  0  0  0  0
   36.5080   20.5090   34.8720 H   0  0  0  0  0  0  0  0  0  0  0  0
   38.1550   22.7420   34.4950 S   0  0  0  0  0  0  0  0  0  0  0  0
   39.3600   21.8540   34.0420 O   0  0  0  0  0  0  0  0  0  0  0  0
   37.8050   22.3820   35.9160 O   0  0  0  0  0  0  0  0  0  0  0  0
   39.2090   23.8880   34.8410 C   0  0  0  0  0  0  0  0  0  0  0  0
   40.2650   23.7710   35.7670 F   0  0  0  0  0  0  0  0  0  0  0  0
   38.5790   24.8950   35.7120 F   0  0  0  0  0  0  0  0  0  0  0  0
   39.4690   24.9580   33.9390 F   0  0  0  0  0  0  0  0  0  0  0  0
   36.6250   29.3150   30.2720 C   0  0  0  0  0  0  0  0  0  0  0  0
   35.8450   29.7160   31.3740 C   0  0  0  0  0  0  0  0  0  0  0  0
   35.6520   28.7620   32.3910 C   0  0  0  0  0  0  0  0  0  0  0  0
   36.2200   27.5490   32.2390 N   0  0  0  0  0  0  0  0  0  0  0  0
   36.9700   27.2020   31.1550 C   0  0  0  0  0  0  0  0  0  0  0  0
   37.1630   28.0980   30.1790 N   0  0  0  0  0  0  0  0  0  0  0  0
   36.7430   30.0910   29.5160 H   0  0  0  0  0  0  0  0  0  0  0  0
   35.4070   30.7030   31.4520 H   0  0  0  0  0  0  0  0  0  0  0  0
   34.8420   29.0900   33.5960 C   0  0  0  0  0  3  0  0  0  0  0  0
   33.4160   29.4450   33.2280 C   0  0  0  0  0  3  0  0  0  0  0  0
   33.3630   30.3380   32.5980 H   0  0  0  0  0  0  0  0  0  0  0  0
   32.6620   29.5920   34.5310 C   0  0  0  0  0  3  0  0  0  0  0  0
   32.4840   28.5490   34.9200 H   0  0  0  0  0  0  0  0  0  0  0  0
   33.4390   30.2150   35.5140 O   0  0  0  0  0  0  0  0  0  0  0  0
   34.3750   31.0720   34.9240 C   0  0  0  0  0  3  0  0  0  0  0  0
   34.7960   31.7380   35.6760 H   0  0  0  0  0  0  0  0  0  0  0  0
   35.4850   30.2820   34.2620 C   0  0  0  0  0  3  0  0  0  0  0  0
   35.9350   30.9170   33.4450 H   0  0  0  0  0  0  0  0  0  0  0  0
  1 30  1  0  0  0  0
  1  6  1  0  0  0  0
  2  1  2  0  0  0  0
  3  2  1  0  0  0  0
  3  4  2  0  0  0  0
  4  5  1  0  0  0  0
  5  6  2  0  0  0  0
  5 10  1  0  0  0  0
  7  2  1  0  0  0  0
  8  3  1  0  0  0  0
  9 14  1  0  0  0  0
  9 19  1  0  0  0  0
 10  9  2  0  0  0  0
 11 12  2  0  0  0  0
 11 10  1  0  0  0  0
 12 13  1  0  0  0  0
 13 17  1  0  0  0  0
 13 14  2  0  0  0  0
 14 18  1  0  0  0  0
 15 11  1  0  0  0  0
 16 12  1  0  0  0  0
 19 22  1  0  0  0  0
 19 21  2  0  0  0  0
 20 19  2  0  0  0  0
 22 24  1  0  0  0  0
 22 23  1  0  0  0  0
 25 22  1  0  0  0  0
 26 27  1  0  0  0  0
 27 33  1  0  0  0  0
 27 28  2  0  0  0  0
 28 34  1  0  0  0  0
 29 28  1  0  0  0  0
 30 29  2  0  0  0  0
 31 26  2  0  0  0  0
 31 30  1  0  0  0  0
 32 26  1  0  0  0  0
 34 42  1  0  0  0  0
 35 34  1  0  0  0  0
 35 37  1  0  0  0  0
 36 35  1  0  0  0  0
 37 38  1  0  0  0  0
 37 39  1  0  0  0  0
 40 39  1  0  0  0  0
 40 41  1  0  0  0  0
 42 40  1  0  0  0  0
 43 42  1  0  0  0  0
M  END
>  <minimizedAffinity>
-6.21865559

$$$$

 OpenBabel03272504293D

 43 46  0  0  0  0  0  0  0  0999 V2000
   36.4440   28.5660   32.0830 C   0  0  0  0  0  0  0  0  0  0  0  0
   37.3140   28.9050   31.1080 C   0  0  0  0  0  0  0  0  0  0  0  0
   38.0210   27.9720   30.4560 C   0  0  0  0  0  0  0  0  0  0  0  0
   37.8470   26.6700   30.7930 N   0  0  0  0  0  0  0  0  0  0  0  0
   36.9890   26.3460   31.7530 C   0  0  0  0  0  0  0  0  0  0  0  0
   36.2790   27.2720   32.4110 N   0  0  0  0  0  0  0  0  0  0  0  0
   37.4380   29.9520   30.8530 H   0  0  0  0  0  0  0  0  0  0  0  0
   38.7050   28.2720   29.6830 H   0  0  0  0  0  0  0  0  0  0  0  0
   37.6240   24.3410   33.0240 C   0  0  0  0  0  0  0  0  0  0  0  0
   36.8720   24.9280   32.0040 C   0  0  0  0  0  0  0  0  0  0  0  0
   36.0170   24.2290   31.1730 C   0  0  0  0  0  0  0  0  0  0  0  0
   35.8860   22.8700   31.3460 C   0  0  0  0  0  0  0  0  0  0  0  0
   36.5860   22.2040   32.3220 C   0  0  0  0  0  0  0  0  0  0  0  0
   37.4000   22.9710   33.0900 C   0  0  0  0  0  0  0  0  0  0  0  0
   35.4540   24.7280   30.3970 H   0  0  0  0  0  0  0  0  0  0  0  0
   35.2090   22.3290   30.6870 H   0  0  0  0  0  0  0  0  0  0  0  0
   36.5090   21.1380   32.4870 H   0  0  0  0  0  0  0  0  0  0  0  0
   37.9640   22.4450   33.8750 H   0  0  0  0  0  0  0  0  0  0  0  0
   38.6470   25.1540   34.0580 S   0  0  0  0  0  0  0  0  0  0  0  0
   39.8950   24.2370   33.8440 O   0  0  0  0  0  0  0  0  0  0  0  0
   38.1300   24.9370   35.4570 O   0  0  0  0  0  0  0  0  0  0  0  0
   39.6540   26.3400   34.4070 C   0  0  0  0  0  0  0  0  0  0  0  0
   40.8140   26.2170   35.1980 F   0  0  0  0  0  0  0  0  0  0  0  0
   39.0620   27.2080   35.4390 F   0  0  0  0  0  0  0  0  0  0  0  0
   39.7390   27.5090   33.5980 F   0  0  0  0  0  0  0  0  0  0  0  0
   35.1420   31.7290   33.4070 C   0  0  0  0  0  0  0  0  0  0  0  0
   34.0850   31.3150   34.2400 C   0  0  0  0  0  0  0  0  0  0  0  0
   33.8510   29.9290   34.3190 C   0  0  0  0  0  0  0  0  0  0  0  0
   34.6460   29.1090   33.6020 N   0  0  0  0  0  0  0  0  0  0  0  0
   35.6600   29.5540   32.8080 C   0  0  0  0  0  0  0  0  0  0  0  0
   35.8950   30.8690   32.7220 N   0  0  0  0  0  0  0  0  0  0  0  0
   35.2800   32.8100   33.3830 H   0  0  0  0  0  0  0  0  0  0  0  0
   33.4720   32.0110   34.7980 H   0  0  0  0  0  0  0  0  0  0  0  0
   32.7570   29.3910   35.1720 C   0  0  0  0  0  3  0  0  0  0  0  0
   31.5470   29.0050   34.3450 C   0  0  0  0  0  3  0  0  0  0  0  0
   31.1090   29.8630   33.8290 H   0  0  0  0  0  0  0  0  0  0  0  0
   30.5820   28.3260   35.2920 C   0  0  0  0  0  3  0  0  0  0  0  0
   30.9930   27.2940   35.4870 H   0  0  0  0  0  0  0  0  0  0  0  0
   30.5580   28.9480   36.5460 O   0  0  0  0  0  0  0  0  0  0  0  0
   30.8820   30.3030   36.4230 C   0  0  0  0  0  3  0  0  0  0  0  0
   30.6170   30.8340   37.3370 H   0  0  0  0  0  0  0  0  0  0  0  0
   32.3590   30.4800   36.1380 C   0  0  0  0  0  3  0  0  0  0  0  0
   32.5030   31.4650   35.6060 H   0  0  0  0  0  0  0  0  0  0  0  0
  1  6  1  0  0  0  0
  1 30  1  0  0  0  0
  2  1  2  0  0  0  0
  3  4  2  0  0  0  0
  3  2  1  0  0  0  0
  4  5  1  0  0  0  0
  5 10  1  0  0  0  0
  5  6  2  0  0  0  0
  7  2  1  0  0  0  0
  8  3  1  0  0  0  0
  9 14  1  0  0  0  0
  9 19  1  0  0  0  0
 10  9  2  0  0  0  0
 11 12  2  0  0  0  0
 11 10  1  0  0  0  0
 12 13  1  0  0  0  0
 13 17  1  0  0  0  0
 13 14  2  0  0  0  0
 14 18  1  0  0  0  0
 15 11  1  0  0  0  0
 16 12  1  0  0  0  0
 19 22  1  0  0  0  0
 19 21  2  0  0  0  0
 20 19  2  0  0  0  0
 22 23  1  0  0  0  0
 22 24  1  0  0  0  0
 25 22  1  0  0  0  0
 26 27  1  0  0  0  0
 27 28  2  0  0  0  0
 27 33  1  0  0  0  0
 28 34  1  0  0  0  0
 29 28  1  0  0  0  0
 30 29  2  0  0  0  0
 31 30  1  0  0  0  0
 31 26  2  0  0  0  0
 32 26  1  0  0  0  0
 34 42  1  0  0  0  0
 35 34  1  0  0  0  0
 35 37  1  0  0  0  0
 36 35  1  0  0  0  0
 37 38  1  0  0  0  0
 37 39  1  0  0  0  0
 40 39  1  0  0  0  0
 40 41  1  0  0  0  0
 42 40  1  0  0  0  0
 43 42  1  0  0  0  0
M  END
>  <minimizedAffinity>
-6.11476707

$$$$

 OpenBabel03272504293D

 43 46  0  0  0  0  0  0  0  0999 V2000
   36.5370   28.8430   31.6040 C   0  0  0  0  0  0  0  0  0  0  0  0
   37.0330   28.9210   30.3500 C   0  0  0  0  0  0  0  0  0  0  0  0
   38.1510   28.2680   30.0060 C   0  0  0  0  0  0  0  0  0  0  0  0
   38.7820   27.5200   30.9440 N   0  0  0  0  0  0  0  0  0  0  0  0
   38.2880   27.4480   32.1730 C   0  0  0  0  0  0  0  0  0  0  0  0
   37.1710   28.0980   32.5270 N   0  0  0  0  0  0  0  0  0  0  0  0
   36.5120   29.5250   29.6150 H   0  0  0  0  0  0  0  0  0  0  0  0
   38.5210   28.3490   29.0000 H   0  0  0  0  0  0  0  0  0  0  0  0
   38.7170   25.2430   33.1690 C   0  0  0  0  0  0  0  0  0  0  0  0
   39.0330   26.6000   33.0750 C   0  0  0  0  0  0  0  0  0  0  0  0
   40.0180   27.2190   33.8220 C   0  0  0  0  0  0  0  0  0  0  0  0
   40.7420   26.4670   34.7190 C   0  0  0  0  0  0  0  0  0  0  0  0
   40.5020   25.1240   34.8830 C   0  0  0  0  0  0  0  0  0  0  0  0
   39.5190   24.6040   34.1070 C   0  0  0  0  0  0  0  0  0  0  0  0
   40.2270   28.2730   33.7130 H   0  0  0  0  0  0  0  0  0  0  0  0
   41.5150   26.9640   35.3020 H   0  0  0  0  0  0  0  0  0  0  0  0
   41.0510   24.5030   35.5780 H   0  0  0  0  0  0  0  0  0  0  0  0
   39.3210   23.5280   34.2320 H   0  0  0  0  0  0  0  0  0  0  0  0
   37.5540   24.4580   32.2700 S   0  0  0  0  0  0  0  0  0  0  0  0
   37.4060   23.2130   33.2040 O   0  0  0  0  0  0  0  0  0  0  0  0
   38.2070   24.0160   30.9850 O   0  0  0  0  0  0  0  0  0  0  0  0
   36.0460   24.2170   31.8120 C   0  0  0  0  0  0  0  0  0  0  0  0
   35.3170   23.0260   32.0030 F   0  0  0  0  0  0  0  0  0  0  0  0
   35.9980   23.9950   30.3570 F   0  0  0  0  0  0  0  0  0  0  0  0
   35.1520   25.3030   31.5870 F   0  0  0  0  0  0  0  0  0  0  0  0
   33.6110   31.0540   31.6600 C   0  0  0  0  0  0  0  0  0  0  0  0
   33.0230   30.7730   32.9080 C   0  0  0  0  0  0  0  0  0  0  0  0
   33.6690   29.8110   33.7070 C   0  0  0  0  0  0  0  0  0  0  0  0
   34.7900   29.2340   33.2250 N   0  0  0  0  0  0  0  0  0  0  0  0
   35.3250   29.5370   32.0090 C   0  0  0  0  0  0  0  0  0  0  0  0
   34.7220   30.4500   31.2380 N   0  0  0  0  0  0  0  0  0  0  0  0
   33.0710   31.8050   31.0840 H   0  0  0  0  0  0  0  0  0  0  0  0
   32.1220   31.2610   33.2540 H   0  0  0  0  0  0  0  0  0  0  0  0
   33.1270   29.4430   35.0430 C   0  0  0  0  0  3  0  0  0  0  0  0
   31.7300   28.8660   34.9360 C   0  0  0  0  0  3  0  0  0  0  0  0
   31.0160   29.5870   34.5280 H   0  0  0  0  0  0  0  0  0  0  0  0
   31.3600   28.3850   36.3220 C   0  0  0  0  0  3  0  0  0  0  0  0
   31.9300   27.4260   36.4930 H   0  0  0  0  0  0  0  0  0  0  0  0
   31.8170   29.2580   37.3160 O   0  0  0  0  0  0  0  0  0  0  0  0
   31.8980   30.5630   36.8180 C   0  0  0  0  0  3  0  0  0  0  0  0
   32.0010   31.2700   37.6400 H   0  0  0  0  0  0  0  0  0  0  0  0
   33.0710   30.7050   35.8700 C   0  0  0  0  0  3  0  0  0  0  0  0
   32.8550   31.5570   35.1630 H   0  0  0  0  0  0  0  0  0  0  0  0
  1 30  1  0  0  0  0
  1  6  1  0  0  0  0
  2  1  2  0  0  0  0
  3  2  1  0  0  0  0
  3  4  2  0  0  0  0
  4  5  1  0  0  0  0
  5  6  2  0  0  0  0
  5 10  1  0  0  0  0
  7  2  1  0  0  0  0
  8  3  1  0  0  0  0
  9 14  1  0  0  0  0
 10  9  2  0  0  0  0
 10 11  1  0  0  0  0
 11 12  2  0  0  0  0
 12 13  1  0  0  0  0
 12 16  1  0  0  0  0
 13 17  1  0  0  0  0
 14 18  1  0  0  0  0
 14 13  2  0  0  0  0
 15 11  1  0  0  0  0
 19  9  1  0  0  0  0
 19 20  2  0  0  0  0
 21 19  2  0  0  0  0
 22 23  1  0  0  0  0
 22 19  1  0  0  0  0
 24 22  1  0  0  0  0
 25 22  1  0  0  0  0
 26 27  1  0  0  0  0
 27 33  1  0  0  0  0
 27 28  2  0  0  0  0
 28 34  1  0  0  0  0
 29 28  1  0  0  0  0
 30 29  2  0  0  0  0
 31 26  2  0  0  0  0
 31 30  1  0  0  0  0
 32 26  1  0  0  0  0
 34 42  1  0  0  0  0
 35 34  1  0  0  0  0
 35 37  1  0  0  0  0
 36 35  1  0  0  0  0
 37 38  1  0  0  0  0
 37 39  1  0  0  0  0
 40 39  1  0  0  0  0
 40 41  1  0  0  0  0
 42 40  1  0  0  0  0
 43 42  1  0  0  0  0
M  END
>  <minimizedAffinity>
-6.11456728

$$$$
