
 OpenBabel03272509093D

 41 44  0  0  0  0  0  0  0  0999 V2000
   33.1480   28.0100   47.9390 C   0  0  0  0  0  0  0  0  0  0  0  0
   32.3030   28.6480   47.6680 H   0  0  0  0  0  0  0  0  0  0  0  0
   32.7440   27.3520   48.7670 H   0  0  0  0  0  0  0  0  0  0  0  0
   33.5700   27.0510   46.8880 C   0  0  0  0  0  0  0  0  0  0  0  0
   33.7340   25.6840   47.0980 C   0  0  0  0  0  0  0  0  0  0  0  0
   34.1240   24.8420   46.0850 C   0  0  0  0  0  0  0  0  0  0  0  0
   34.3670   25.3480   44.8100 C   0  0  0  0  0  0  0  0  0  0  0  0
   34.2080   26.6850   44.6010 C   0  0  0  0  0  0  0  0  0  0  0  0
   33.8150   27.5380   45.6170 C   0  0  0  0  0  0  0  0  0  0  0  0
   33.5160   25.4100   48.1320 H   0  0  0  0  0  0  0  0  0  0  0  0
   34.1920   23.8290   46.4570 H   0  0  0  0  0  0  0  0  0  0  0  0
   34.6680   24.5900   44.1010 H   0  0  0  0  0  0  0  0  0  0  0  0
   34.4240   26.9660   43.5810 H   0  0  0  0  0  0  0  0  0  0  0  0
   33.7090   28.9540   45.1960 C   0  0  0  0  0  3  0  0  0  0  0  0
   35.0700   29.3790   44.6570 C   0  0  0  0  0  3  0  0  0  0  0  0
   35.4140   28.5090   44.0240 H   0  0  0  0  0  0  0  0  0  0  0  0
   35.0100   30.6280   43.8320 C   0  0  0  0  0  3  0  0  0  0  0  0
   35.3940   31.5000   44.4070 H   0  0  0  0  0  0  0  0  0  0  0  0
   33.7980   30.8700   43.2310 O   0  0  0  0  0  0  0  0  0  0  0  0
   33.2580   29.6240   42.8430 C   0  0  0  0  0  3  0  0  0  0  0  0
   34.0660   28.9750   42.4500 H   0  0  0  0  0  0  0  0  0  0  0  0
   32.6440   29.0650   44.1330 C   0  0  0  0  0  3  0  0  0  0  0  0
   32.0680   28.1610   43.9530 H   0  0  0  0  0  0  0  0  0  0  0  0
   35.0870   28.3230   49.4860 C   0  0  0  0  0  3  0  0  0  0  0  0
   34.2630   28.7450   48.5590 C   0  0  0  0  0  3  0  0  0  0  0  0
   37.4020   30.1910   51.5960 C   0  0  0  0  0  0  0  0  0  0  0  0
   38.0950   30.9700   50.6400 C   0  0  0  0  0  0  0  0  0  0  0  0
   37.7380   30.8220   49.2900 C   0  0  0  0  0  0  0  0  0  0  0  0
   36.7410   29.9400   48.9660 N   0  0  0  0  0  0  0  0  0  0  0  0
   36.1200   29.2260   49.9460 C   0  0  0  0  0  0  0  0  0  0  0  0
   36.4440   29.3510   51.2310 N   0  0  0  0  0  0  0  0  0  0  0  0
   37.6940   30.3180   52.6460 H   0  0  0  0  0  0  0  0  0  0  0  0
   38.8770   31.6650   50.8810 H   0  0  0  0  0  0  0  0  0  0  0  0
   38.3880   31.5810   48.2150 C   0  0  0  0  0  0  0  0  0  0  0  0
   38.5970   31.0570   46.9620 C   0  0  0  0  0  0  0  0  0  0  0  0
   39.2290   32.0390   46.1990 C   0  0  0  0  0  0  0  0  0  0  0  0
   39.3770   33.1130   47.0160 N   0  0  0  0  0  0  0  0  0  0  0  0
   38.8740   32.8240   48.2020 N   0  0  0  0  0  0  0  0  0  0  0  0
   38.3220   30.0620   46.6260 H   0  0  0  0  0  0  0  0  0  0  0  0
   39.5340   31.9450   45.1630 H   0  0  0  0  0  0  0  0  0  0  0  0
   39.8190   34.0210   46.7420 H   0  0  0  0  0  0  0  0  0  0  0  0
  1 25  1  0  0  0  0
  1  3  1  0  0  0  0
  2  1  1  0  0  0  0
  4  5  1  0  0  0  0
  4  1  1  0  0  0  0
  5 10  1  0  0  0  0
  6 11  1  0  0  0  0
  6  5  2  0  0  0  0
  7  6  1  0  0  0  0
  8  7  2  0  0  0  0
  8  9  1  0  0  0  0
  9  4  2  0  0  0  0
 12  7  1  0  0  0  0
 13  8  1  0  0  0  0
 14  9  1  0  0  0  0
 15 14  1  0  0  0  0
 16 15  1  0  0  0  0
 17 18  1  0  0  0  0
 17 15  1  0  0  0  0
 19 17  1  0  0  0  0
 20 19  1  0  0  0  0
 20 22  1  0  0  0  0
 21 20  1  0  0  0  0
 22 14  1  0  0  0  0
 23 22  1  0  0  0  0
 24 30  1  0  0  0  0
 25 24  2  0  0  0  0
 26 32  1  0  0  0  0
 27 33  1  0  0  0  0
 27 26  2  0  0  0  0
 28 27  1  0  0  0  0
 29 28  2  0  0  0  0
 29 30  1  0  0  0  0
 30 31  2  0  0  0  0
 31 26  1  0  0  0  0
 34 28  1  0  0  0  0
 35 34  1  0  0  0  0
 36 35  2  0  0  0  0
 36 37  1  0  0  0  0
 37 38  1  0  0  0  0
 38 34  2  0  0  0  0
 39 35  1  0  0  0  0
 40 36  1  0  0  0  0
 41 37  1  0  0  0  0
M  END
>  <minimizedAffinity>
-6.21699667

>  <minimizedRMSD>
0.737208784

$$$$
