REMARK  Name = 
REMARK  8 active torsions:
REMARK  status: ('A' for Active; 'I' for Inactive)
REMARK    1  A    between atoms: C_1  and  C_7
REMARK    2  A    between atoms: C_6  and  N_13
REMARK    3  A    between atoms: N_13  and  S_14
REMARK    4  A    between atoms: S_14  and  O_15
REMARK    5  A    between atoms: S_14  and  O_16
REMARK    6  A    between atoms: S_14  and  O_17
REMARK    7  A    between atoms: O_16  and  C_37
REMARK    8  A    between atoms: O_17  and  C_18
REMARK                            x       y       z     vdW  Elec       q    Type
REMARK                         _______ _______ _______ _____ _____    ______ ____
ROOT
ATOM      1  C   UNL     1      37.432  31.311  45.386  0.00  0.00    +0.000 C 
ATOM      2  C   UNL     1      38.351  30.808  44.371  0.00  0.00    +0.000 C 
ATOM      3  C   UNL     1      39.668  30.313  44.957  0.00  0.00    +0.000 C 
ATOM      4  C   UNL     1      40.370  31.356  45.768  0.00  0.00    +0.000 C 
ATOM      5  C   UNL     1      39.452  32.211  46.571  0.00  0.00    +0.000 C 
ATOM      6  C   UNL     1      38.072  31.574  46.724  0.00  0.00    +0.000 C 
ATOM      7  H   UNL     1      37.029  32.303  45.019  0.00  0.00    +0.000 HD
ATOM      8  H   UNL     1      38.643  31.563  43.604  0.00  0.00    +0.000 HD
ATOM      9  H   UNL     1      37.976  29.945  43.806  0.00  0.00    +0.000 HD
ATOM     10  H   UNL     1      39.477  29.365  45.479  0.00  0.00    +0.000 HD
ATOM     11  H   UNL     1      40.313  30.084  44.085  0.00  0.00    +0.000 HD
ATOM     12  H   UNL     1      41.021  30.810  46.507  0.00  0.00    +0.000 HD
ATOM     13  H   UNL     1      41.081  31.958  45.145  0.00  0.00    +0.000 HD
ATOM     14  H   UNL     1      39.817  32.564  47.531  0.00  0.00    +0.000 HD
ATOM     15  H   UNL     1      39.254  33.135  45.953  0.00  0.00    +0.000 HD
ATOM     16  H   UNL     1      37.475  32.372  47.215  0.00  0.00    +0.000 HD
ENDROOT
BRANCH   1  17
ATOM     17  C   UNL     1      36.251  30.484  45.630  0.00  0.00    +0.000 A 
ATOM     18  C   UNL     1      35.866  29.691  44.544  0.00  0.00    +0.000 A 
ATOM     19  C   UNL     1      34.761  28.874  44.731  0.00  0.00    +0.000 A 
ATOM     20  N   UNL     1      34.111  28.877  45.930  0.00  0.00    +0.000 NA
ATOM     21  C   UNL     1      34.511  29.656  46.950  0.00  0.00    +0.000 A 
ATOM     22  N   UNL     1      35.548  30.413  46.756  0.00  0.00    +0.000 NA
ATOM     23  H   UNL     1      36.192  29.528  43.538  0.00  0.00    +0.000 HD
ATOM     24  H   UNL     1      34.286  28.185  44.051  0.00  0.00    +0.000 HD
ATOM     25  H   UNL     1      34.009  29.670  47.900  0.00  0.00    +0.000 HD
ENDBRANCH   1  17
BRANCH   6  26
ATOM     26  N   UNL     1      38.212  30.537  47.635  0.00  0.00    +0.000 NA
ATOM     27  H   UNL     1      37.916  29.585  47.312  0.00  0.00    +0.000 HD
BRANCH  26  28
ATOM     28  S   UNL     1      37.633  30.779  49.204  0.00  0.00    +0.000 S 
BRANCH  28  29
ATOM     29  O   UNL     1      38.899  30.967  50.048  0.00  0.00    +0.000 OA
ATOM     30  H   UNL     1      39.500  31.705  49.837  0.00  0.00    +0.000 HD
ENDBRANCH  28  29
BRANCH  28  31
ATOM     31  O   UNL     1      36.780  31.912  49.346  0.00  0.00    +0.000 OA
BRANCH  31  32
ATOM     32  C   UNL     1      35.695  32.467  49.791  0.00  0.00    +0.000 C 
ATOM     33  C   UNL     1      34.478  31.872  49.112  0.00  0.00    +0.000 C 
ATOM     34  H   UNL     1      34.114  30.969  49.639  0.00  0.00    +0.000 HD
ATOM     35  C   UNL     1      33.321  32.859  49.106  0.00  0.00    +0.000 C 
ATOM     36  H   UNL     1      33.314  33.470  48.163  0.00  0.00    +0.000 HD
ATOM     37  O   UNL     1      33.292  33.628  50.242  0.00  0.00    +0.000 OA
ATOM     38  C   UNL     1      34.402  34.444  50.352  0.00  0.00    +0.000 C 
ATOM     39  H   UNL     1      34.181  35.515  50.188  0.00  0.00    +0.000 HD
ATOM     40  C   UNL     1      35.556  33.973  49.494  0.00  0.00    +0.000 C 
ATOM     41  H   UNL     1      36.440  34.548  49.756  0.00  0.00    +0.000 HD
ENDBRANCH  31  32
ENDBRANCH  28  31
BRANCH  28  42
ATOM     42  O   UNL     1      36.926  29.388  49.822  0.00  0.00    +0.000 OA
BRANCH  42  43
ATOM     43  C   UNL     1      36.792  29.409  51.196  0.00  0.00    +0.000 C 
ATOM     44  F   UNL     1      37.759  28.644  51.776  0.00  0.00    +0.000 F 
ATOM     45  F   UNL     1      37.033  30.705  51.602  0.00  0.00    +0.000 F 
ATOM     46  F   UNL     1      35.512  29.099  51.636  0.00  0.00    +0.000 F 
ENDBRANCH  42  43
ENDBRANCH  28  42
ENDBRANCH  26  28
ENDBRANCH   6  26
TORSDOF 8
