REMARK  Name = 
REMARK  4 active torsions:
REMARK  status: ('A' for Active; 'I' for Inactive)
REMARK    1  A    between atoms: C_1  and  C_15
REMARK    2  A    between atoms: C_4  and  C_7
REMARK    3  A    between atoms: C_15  and  C_17
REMARK    4  A    between atoms: C_21  and  C_32
REMARK                            x       y       z     vdW  Elec       q    Type
REMARK                         _______ _______ _______ _____ _____    ______ ____
ROOT
ATOM      1  C   UNL     1      35.845  29.133  49.814  0.00  0.00    +0.000 A 
ATOM      2  C   UNL     1      34.821  29.622  50.548  0.00  0.00    +0.000 A 
ATOM      3  C   UNL     1      33.654  29.038  50.050  0.00  0.00    +0.000 A 
ATOM      4  C   UNL     1      34.068  28.200  49.005  0.00  0.00    +0.000 A 
ATOM      5  O   UNL     1      35.358  28.306  48.925  0.00  0.00    +0.000 OA
ATOM      6  H   UNL     1      34.832  30.340  51.384  0.00  0.00    +0.000 HD
ATOM      7  H   UNL     1      32.663  29.259  50.467  0.00  0.00    +0.000 HD
ENDROOT
BRANCH   4   9
ATOM      8  C   UNL     1      33.530  26.424  47.342  0.00  0.00    +0.000 A 
ATOM      9  C   UNL     1      33.116  27.408  48.232  0.00  0.00    +0.000 A 
ATOM     10  C   UNL     1      31.774  27.681  48.429  0.00  0.00    +0.000 A 
ATOM     11  C   UNL     1      30.856  26.950  47.718  0.00  0.00    +0.000 A 
ATOM     12  N   UNL     1      29.511  26.989  47.705  0.00  0.00    +0.000 N 
ATOM     13  N   UNL     1      29.094  26.067  46.842  0.00  0.00    +0.000 NA
ATOM     14  C   UNL     1      30.146  25.442  46.306  0.00  0.00    +0.000 A 
ATOM     15  C   UNL     1      31.319  25.976  46.839  0.00  0.00    +0.000 A 
ATOM     16  C   UNL     1      32.647  25.689  46.629  0.00  0.00    +0.000 A 
ATOM     17  H   UNL     1      34.602  26.282  47.255  0.00  0.00    +0.000 HD
ATOM     18  H   UNL     1      31.383  28.436  49.108  0.00  0.00    +0.000 HD
ATOM     19  H   UNL     1      28.867  27.608  48.250  0.00  0.00    +0.000 HD
ATOM     20  H   UNL     1      30.163  24.630  45.561  0.00  0.00    +0.000 HD
ATOM     21  H   UNL     1      32.940  24.931  45.943  0.00  0.00    +0.000 HD
ENDBRANCH   4   9
BRANCH   1  22
ATOM     22  C   UNL     1      37.229  29.528  50.054  0.00  0.00    +0.000 C 
ATOM     23  O   UNL     1      37.875  28.956  50.967  0.00  0.00    +0.000 OA
BRANCH  22  24
ATOM     24  C   UNL     1      37.781  30.565  49.218  0.00  0.00    +0.000 A 
ATOM     25  C   UNL     1      38.137  31.753  49.821  0.00  0.00    +0.000 A 
ATOM     26  C   UNL     1      38.671  32.777  49.052  0.00  0.00    +0.000 A 
ATOM     27  N   UNL     1      38.814  32.542  47.725  0.00  0.00    +0.000 NA
ATOM     28  C   UNL     1      38.468  31.394  47.149  0.00  0.00    +0.000 A 
ATOM     29  N   UNL     1      37.956  30.419  47.901  0.00  0.00    +0.000 NA
ATOM     30  H   UNL     1      38.033  31.972  50.894  0.00  0.00    +0.000 HD
ATOM     31  H   UNL     1      38.956  33.705  49.490  0.00  0.00    +0.000 HD
BRANCH  28  32
ATOM     32  C   UNL     1      38.620  31.124  45.691  0.00  0.00    +0.000 C 
ATOM     33  C   UNL     1      38.506  32.376  44.855  0.00  0.00    +0.000 C 
ATOM     34  H   UNL     1      39.408  33.033  44.980  0.00  0.00    +0.000 HD
ATOM     35  C   UNL     1      38.346  31.907  43.424  0.00  0.00    +0.000 C 
ATOM     36  H   UNL     1      38.378  32.748  42.704  0.00  0.00    +0.000 HD
ATOM     37  O   UNL     1      39.188  30.873  43.109  0.00  0.00    +0.000 OA
ATOM     38  C   UNL     1      40.308  30.767  43.928  0.00  0.00    +0.000 C 
ATOM     39  H   UNL     1      40.901  29.908  43.552  0.00  0.00    +0.000 HD
ATOM     40  C   UNL     1      39.947  30.483  45.361  0.00  0.00    +0.000 C 
ATOM     41  H   UNL     1      40.772  30.894  45.996  0.00  0.00    +0.000 HD
ENDBRANCH  28  32
ENDBRANCH  22  24
ENDBRANCH   1  22
TORSDOF 4
