
 OpenBabel03272503393D

 27 29  0  0  0  0  0  0  0  0999 V2000
   37.7800   22.8710   32.8900 C   0  0  0  0  0  0  0  0  0  0  0  0
   38.1210   22.5730   34.2110 C   0  0  0  0  0  0  0  0  0  0  0  0
   38.2430   23.6290   35.1080 C   0  0  0  0  0  0  0  0  0  0  0  0
   38.0270   24.8900   34.6600 N   0  0  0  0  0  0  0  0  0  0  0  0
   37.6960   25.1500   33.3690 C   0  0  0  0  0  0  0  0  0  0  0  0
   37.5760   24.1280   32.4910 N   0  0  0  0  0  0  0  0  0  0  0  0
   38.3020   21.6040   34.6170 H   0  0  0  0  0  0  0  0  0  0  0  0
   37.5250   26.1600   33.0180 H   0  0  0  0  0  0  0  0  0  0  0  0
   38.5960   23.4000   36.5070 C   0  0  0  0  0  0  0  0  0  0  0  0
   37.9140   23.9120   37.5800 C   0  0  0  0  0  0  0  0  0  0  0  0
   38.6110   23.4280   38.6830 C   0  0  0  0  0  0  0  0  0  0  0  0
   39.6530   22.6700   38.2760 N   0  0  0  0  0  0  0  0  0  0  0  0
   39.6350   22.6590   36.9390 N   0  0  0  0  0  0  0  0  0  0  0  0
   37.0370   24.5410   37.5090 H   0  0  0  0  0  0  0  0  0  0  0  0
   38.2760   23.6870   39.6950 H   0  0  0  0  0  0  0  0  0  0  0  0
   40.3100   22.2090   38.9530 H   0  0  0  0  0  0  0  0  0  0  0  0
   37.6940   21.7290   32.1130 O   0  0  0  0  0  0  0  0  0  0  0  0
   36.4490   21.4700   31.4840 C   0  0  0  0  0  3  0  0  0  0  0  0
   35.4100   21.3100   32.5650 C   0  0  0  0  0  3  0  0  0  0  0  0
   34.4090   21.6140   32.1750 H   0  0  0  0  0  0  0  0  0  0  0  0
   35.2740   19.8920   33.0170 C   0  0  0  0  0  3  0  0  0  0  0  0
   34.3910   19.8790   33.7190 H   0  0  0  0  0  0  0  0  0  0  0  0
   34.9810   19.1030   31.9100 O   0  0  0  0  0  0  0  0  0  0  0  0
   36.1390   19.0050   31.1430 C   0  0  0  0  0  3  0  0  0  0  0  0
   36.9790   18.5710   31.7110 H   0  0  0  0  0  0  0  0  0  0  0  0
   36.5380   20.3250   30.5360 C   0  0  0  0  0  3  0  0  0  0  0  0
   37.6280   20.2070   30.2700 H   0  0  0  0  0  0  0  0  0  0  0  0
  1  2  1  0  0  0  0
  2  7  1  0  0  0  0
  2  3  2  0  0  0  0
  3  9  1  0  0  0  0
  4  3  1  0  0  0  0
  5  4  2  0  0  0  0
  6  1  2  0  0  0  0
  6  5  1  0  0  0  0
  8  5  1  0  0  0  0
  9 13  2  0  0  0  0
  9 10  1  0  0  0  0
 10 11  2  0  0  0  0
 11 15  1  0  0  0  0
 12 11  1  0  0  0  0
 12 16  1  0  0  0  0
 13 12  1  0  0  0  0
 14 10  1  0  0  0  0
 17  1  1  0  0  0  0
 18 17  1  0  0  0  0
 18 19  1  0  0  0  0
 19 21  1  0  0  0  0
 20 19  1  0  0  0  0
 21 22  1  0  0  0  0
 23 21  1  0  0  0  0
 24 25  1  0  0  0  0
 24 23  1  0  0  0  0
 26 24  1  0  0  0  0
 26 18  1  0  0  0  0
 27 26  1  0  0  0  0
M  END
>  <minimizedAffinity>
-5.03815317

$$$$

 OpenBabel03272503393D

 27 29  0  0  0  0  0  0  0  0999 V2000
   37.8550   23.4050   33.7300 C   0  0  0  0  0  0  0  0  0  0  0  0
   37.4170   22.0930   33.5380 C   0  0  0  0  0  0  0  0  0  0  0  0
   36.5960   21.8320   32.4460 C   0  0  0  0  0  0  0  0  0  0  0  0
   36.2620   22.8570   31.6250 N   0  0  0  0  0  0  0  0  0  0  0  0
   36.7020   24.1240   31.8370 C   0  0  0  0  0  0  0  0  0  0  0  0
   37.5010   24.3860   32.8970 N   0  0  0  0  0  0  0  0  0  0  0  0
   37.6480   21.2510   34.1490 H   0  0  0  0  0  0  0  0  0  0  0  0
   36.4310   24.9380   31.1770 H   0  0  0  0  0  0  0  0  0  0  0  0
   36.0970   20.4860   32.1750 C   0  0  0  0  0  0  0  0  0  0  0  0
   35.5130   19.6660   33.1040 C   0  0  0  0  0  0  0  0  0  0  0  0
   35.2080   18.5120   32.3900 C   0  0  0  0  0  0  0  0  0  0  0  0
   35.5960   18.6480   31.1030 N   0  0  0  0  0  0  0  0  0  0  0  0
   36.1410   19.8630   30.9810 N   0  0  0  0  0  0  0  0  0  0  0  0
   35.3550   19.9270   34.1430 H   0  0  0  0  0  0  0  0  0  0  0  0
   34.7210   17.6690   32.8980 H   0  0  0  0  0  0  0  0  0  0  0  0
   35.4580   17.8880   30.3910 H   0  0  0  0  0  0  0  0  0  0  0  0
   38.6600   23.5180   34.8500 O   0  0  0  0  0  0  0  0  0  0  0  0
   38.4530   22.5730   35.8900 C   0  0  0  0  0  3  0  0  0  0  0  0
   37.5150   23.1910   36.8960 C   0  0  0  0  0  3  0  0  0  0  0  0
   36.9330   22.3900   37.4110 H   0  0  0  0  0  0  0  0  0  0  0  0
   38.2410   23.9410   37.9640 C   0  0  0  0  0  3  0  0  0  0  0  0
   37.4550   24.2400   38.7160 H   0  0  0  0  0  0  0  0  0  0  0  0
   39.1420   23.0750   38.5750 O   0  0  0  0  0  0  0  0  0  0  0  0
   40.1860   22.8510   37.6800 C   0  0  0  0  0  3  0  0  0  0  0  0
   40.6910   23.7870   37.3890 H   0  0  0  0  0  0  0  0  0  0  0  0
   39.7410   22.0890   36.4590 C   0  0  0  0  0  3  0  0  0  0  0  0
   40.5350   22.2910   35.6830 H   0  0  0  0  0  0  0  0  0  0  0  0
  1 17  1  0  0  0  0
  2  1  1  0  0  0  0
  2  7  1  0  0  0  0
  3  2  2  0  0  0  0
  4  5  2  0  0  0  0
  4  3  1  0  0  0  0
  5  6  1  0  0  0  0
  6  1  2  0  0  0  0
  8  5  1  0  0  0  0
  9  3  1  0  0  0  0
  9 10  1  0  0  0  0
 10 14  1  0  0  0  0
 11 15  1  0  0  0  0
 11 10  2  0  0  0  0
 12 11  1  0  0  0  0
 13 12  1  0  0  0  0
 13  9  2  0  0  0  0
 16 12  1  0  0  0  0
 17 18  1  0  0  0  0
 18 26  1  0  0  0  0
 18 19  1  0  0  0  0
 19 20  1  0  0  0  0
 19 21  1  0  0  0  0
 21 23  1  0  0  0  0
 21 22  1  0  0  0  0
 24 23  1  0  0  0  0
 25 24  1  0  0  0  0
 26 24  1  0  0  0  0
 27 26  1  0  0  0  0
M  END
>  <minimizedAffinity>
-4.8734951

$$$$

 OpenBabel03272503393D

 27 29  0  0  0  0  0  0  0  0999 V2000
   36.6390   23.8080   31.6350 C   0  0  0  0  0  0  0  0  0  0  0  0
   37.2970   24.3980   32.7170 C   0  0  0  0  0  0  0  0  0  0  0  0
   37.0750   25.7490   32.9570 C   0  0  0  0  0  0  0  0  0  0  0  0
   36.2370   26.4260   32.1350 N   0  0  0  0  0  0  0  0  0  0  0  0
   35.6110   25.8270   31.0900 C   0  0  0  0  0  0  0  0  0  0  0  0
   35.8220   24.5120   30.8500 N   0  0  0  0  0  0  0  0  0  0  0  0
   37.9640   23.9150   33.3940 H   0  0  0  0  0  0  0  0  0  0  0  0
   34.9430   26.3730   30.4370 H   0  0  0  0  0  0  0  0  0  0  0  0
   37.7240   26.4390   34.0690 C   0  0  0  0  0  0  0  0  0  0  0  0
   39.0260   26.2530   34.4530 C   0  0  0  0  0  0  0  0  0  0  0  0
   39.1830   27.1140   35.5360 C   0  0  0  0  0  0  0  0  0  0  0  0
   38.0280   27.7730   35.7750 N   0  0  0  0  0  0  0  0  0  0  0  0
   37.1390   27.3520   34.8700 N   0  0  0  0  0  0  0  0  0  0  0  0
   39.7190   25.5740   33.9740 H   0  0  0  0  0  0  0  0  0  0  0  0
   40.1520   27.1700   36.0500 H   0  0  0  0  0  0  0  0  0  0  0  0
   37.9310   28.4720   36.5520 H   0  0  0  0  0  0  0  0  0  0  0  0
   36.9530   22.4650   31.5160 O   0  0  0  0  0  0  0  0  0  0  0  0
   35.8820   21.5760   31.2330 C   0  0  0  0  0  3  0  0  0  0  0  0
   35.0790   21.4040   32.4970 C   0  0  0  0  0  3  0  0  0  0  0  0
   34.0170   21.1740   32.2410 H   0  0  0  0  0  0  0  0  0  0  0  0
   35.5690   20.2650   33.3300 C   0  0  0  0  0  3  0  0  0  0  0  0
   34.8210   20.1560   34.1680 H   0  0  0  0  0  0  0  0  0  0  0  0
   35.5480   19.1110   32.5550 O   0  0  0  0  0  0  0  0  0  0  0  0
   36.5880   19.2040   31.6320 C   0  0  0  0  0  3  0  0  0  0  0  0
   37.5690   19.3190   32.1220 H   0  0  0  0  0  0  0  0  0  0  0  0
   36.3670   20.3050   30.6280 C   0  0  0  0  0  3  0  0  0  0  0  0
   37.3880   20.5180   30.1980 H   0  0  0  0  0  0  0  0  0  0  0  0
  1  2  1  0  0  0  0
  2  3  2  0  0  0  0
  2  7  1  0  0  0  0
  3  9  1  0  0  0  0
  4  3  1  0  0  0  0
  5  4  2  0  0  0  0
  6  5  1  0  0  0  0
  6  1  2  0  0  0  0
  8  5  1  0  0  0  0
  9 10  1  0  0  0  0
  9 13  2  0  0  0  0
 10 11  2  0  0  0  0
 11 12  1  0  0  0  0
 11 15  1  0  0  0  0
 12 16  1  0  0  0  0
 13 12  1  0  0  0  0
 14 10  1  0  0  0  0
 17  1  1  0  0  0  0
 18 17  1  0  0  0  0
 18 19  1  0  0  0  0
 19 21  1  0  0  0  0
 20 19  1  0  0  0  0
 21 22  1  0  0  0  0
 23 21  1  0  0  0  0
 24 25  1  0  0  0  0
 24 23  1  0  0  0  0
 26 18  1  0  0  0  0
 26 24  1  0  0  0  0
 27 26  1  0  0  0  0
M  END
>  <minimizedAffinity>
-4.83377838

$$$$

 OpenBabel03272503393D

 27 29  0  0  0  0  0  0  0  0999 V2000
   35.9390   28.7390   33.5000 C   0  0  0  0  0  0  0  0  0  0  0  0
   35.7760   29.5720   34.6090 C   0  0  0  0  0  0  0  0  0  0  0  0
   34.6090   30.3240   34.6950 C   0  0  0  0  0  0  0  0  0  0  0  0
   33.6910   30.2130   33.7050 N   0  0  0  0  0  0  0  0  0  0  0  0
   33.8760   29.3940   32.6370 C   0  0  0  0  0  0  0  0  0  0  0  0
   35.0090   28.6600   32.5470 N   0  0  0  0  0  0  0  0  0  0  0  0
   36.4630   29.6980   35.4150 H   0  0  0  0  0  0  0  0  0  0  0  0
   33.1390   29.3100   31.8490 H   0  0  0  0  0  0  0  0  0  0  0  0
   34.3630   31.2180   35.8230 C   0  0  0  0  0  0  0  0  0  0  0  0
   33.1240   31.6350   36.2360 C   0  0  0  0  0  0  0  0  0  0  0  0
   33.3920   32.4570   37.3260 C   0  0  0  0  0  0  0  0  0  0  0  0
   34.7240   32.5200   37.5420 N   0  0  0  0  0  0  0  0  0  0  0  0
   35.3120   31.7560   36.6140 N   0  0  0  0  0  0  0  0  0  0  0  0
   32.1900   31.3460   35.7710 H   0  0  0  0  0  0  0  0  0  0  0  0
   32.5630   32.9370   37.8630 H   0  0  0  0  0  0  0  0  0  0  0  0
   35.1420   33.0900   38.3190 H   0  0  0  0  0  0  0  0  0  0  0  0
   37.1420   28.0550   33.5460 O   0  0  0  0  0  0  0  0  0  0  0  0
   37.2390   26.9850   34.4750 C   0  0  0  0  0  3  0  0  0  0  0  0
   38.3010   27.3450   35.4830 C   0  0  0  0  0  3  0  0  0  0  0  0
   38.0780   26.8500   36.4590 H   0  0  0  0  0  0  0  0  0  0  0  0
   39.6580   26.8750   35.0710 C   0  0  0  0  0  3  0  0  0  0  0  0
   40.3330   27.0820   35.9510 H   0  0  0  0  0  0  0  0  0  0  0  0
   39.6030   25.5020   34.8590 O   0  0  0  0  0  0  0  0  0  0  0  0
   38.9000   25.2850   33.6760 C   0  0  0  0  0  3  0  0  0  0  0  0
   39.3700   25.7870   32.8150 H   0  0  0  0  0  0  0  0  0  0  0  0
   37.4500   25.6800   33.7900 C   0  0  0  0  0  3  0  0  0  0  0  0
   37.0980   25.8100   32.7260 H   0  0  0  0  0  0  0  0  0  0  0  0
  1 17  1  0  0  0  0
  1  2  1  0  0  0  0
  2  3  2  0  0  0  0
  2  7  1  0  0  0  0
  3  9  1  0  0  0  0
  4  3  1  0  0  0  0
  5  4  2  0  0  0  0
  6  5  1  0  0  0  0
  6  1  2  0  0  0  0
  8  5  1  0  0  0  0
  9 10  1  0  0  0  0
  9 13  2  0  0  0  0
 10 11  2  0  0  0  0
 11 12  1  0  0  0  0
 11 15  1  0  0  0  0
 12 16  1  0  0  0  0
 13 12  1  0  0  0  0
 14 10  1  0  0  0  0
 17 18  1  0  0  0  0
 18 19  1  0  0  0  0
 19 20  1  0  0  0  0
 21 19  1  0  0  0  0
 21 22  1  0  0  0  0
 23 21  1  0  0  0  0
 24 26  1  0  0  0  0
 24 23  1  0  0  0  0
 25 24  1  0  0  0  0
 26 18  1  0  0  0  0
 27 26  1  0  0  0  0
M  END
>  <minimizedAffinity>
-4.76485205

$$$$

 OpenBabel03272503393D

 27 29  0  0  0  0  0  0  0  0999 V2000
   37.7830   25.1270   33.2460 C   0  0  0  0  0  0  0  0  0  0  0  0
   37.8680   24.8590   34.6140 C   0  0  0  0  0  0  0  0  0  0  0  0
   38.7390   23.8590   35.0300 C   0  0  0  0  0  0  0  0  0  0  0  0
   39.4610   23.1960   34.0950 N   0  0  0  0  0  0  0  0  0  0  0  0
   39.3590   23.4780   32.7700 C   0  0  0  0  0  0  0  0  0  0  0  0
   38.5130   24.4500   32.3580 N   0  0  0  0  0  0  0  0  0  0  0  0
   37.3250   25.3470   35.3910 H   0  0  0  0  0  0  0  0  0  0  0  0
   39.9390   22.9450   32.0280 H   0  0  0  0  0  0  0  0  0  0  0  0
   38.8860   23.5190   36.4430 C   0  0  0  0  0  0  0  0  0  0  0  0
   38.1360   24.0510   37.4580 C   0  0  0  0  0  0  0  0  0  0  0  0
   38.6310   23.4320   38.6020 C   0  0  0  0  0  0  0  0  0  0  0  0
   39.6240   22.5780   38.2740 N   0  0  0  0  0  0  0  0  0  0  0  0
   39.7730   22.6380   36.9460 N   0  0  0  0  0  0  0  0  0  0  0  0
   37.3500   24.7840   37.3250 H   0  0  0  0  0  0  0  0  0  0  0  0
   38.2020   23.6780   39.5830 H   0  0  0  0  0  0  0  0  0  0  0  0
   40.1360   22.0080   38.9920 H   0  0  0  0  0  0  0  0  0  0  0  0
   36.8800   26.1410   32.9780 O   0  0  0  0  0  0  0  0  0  0  0  0
   37.3740   27.4710   33.0160 C   0  0  0  0  0  3  0  0  0  0  0  0
   36.3570   28.3220   33.7340 C   0  0  0  0  0  3  0  0  0  0  0  0
   36.8670   29.1800   34.2330 H   0  0  0  0  0  0  0  0  0  0  0  0
   35.3500   28.9120   32.8020 C   0  0  0  0  0  3  0  0  0  0  0  0
   34.7340   29.6210   33.4270 H   0  0  0  0  0  0  0  0  0  0  0  0
   36.0260   29.6410   31.8290 O   0  0  0  0  0  0  0  0  0  0  0  0
   36.6460   28.7330   30.9750 C   0  0  0  0  0  3  0  0  0  0  0  0
   35.9250   28.0440   30.5050 H   0  0  0  0  0  0  0  0  0  0  0  0
   37.7450   27.9610   31.6590 C   0  0  0  0  0  3  0  0  0  0  0  0
   37.9040   27.0470   31.0160 H   0  0  0  0  0  0  0  0  0  0  0  0
  1  2  1  0  0  0  0
  2  3  2  0  0  0  0
  2  7  1  0  0  0  0
  3  9  1  0  0  0  0
  4  3  1  0  0  0  0
  5  4  2  0  0  0  0
  6  5  1  0  0  0  0
  6  1  2  0  0  0  0
  8  5  1  0  0  0  0
  9 13  2  0  0  0  0
  9 10  1  0  0  0  0
 10 11  2  0  0  0  0
 11 15  1  0  0  0  0
 12 11  1  0  0  0  0
 12 16  1  0  0  0  0
 13 12  1  0  0  0  0
 14 10  1  0  0  0  0
 17 18  1  0  0  0  0
 17  1  1  0  0  0  0
 18 19  1  0  0  0  0
 19 20  1  0  0  0  0
 21 22  1  0  0  0  0
 21 19  1  0  0  0  0
 23 21  1  0  0  0  0
 24 26  1  0  0  0  0
 24 23  1  0  0  0  0
 25 24  1  0  0  0  0
 26 18  1  0  0  0  0
 27 26  1  0  0  0  0
M  END
>  <minimizedAffinity>
-4.73881674

$$$$

 OpenBabel03272503393D

 27 29  0  0  0  0  0  0  0  0999 V2000
   35.6520   28.8210   32.4740 C   0  0  0  0  0  0  0  0  0  0  0  0
   35.4170   29.2640   33.7780 C   0  0  0  0  0  0  0  0  0  0  0  0
   34.9690   30.5680   33.9540 C   0  0  0  0  0  0  0  0  0  0  0  0
   34.7820   31.3440   32.8580 N   0  0  0  0  0  0  0  0  0  0  0  0
   35.0190   30.8860   31.6020 C   0  0  0  0  0  0  0  0  0  0  0  0
   35.4550   29.6190   31.4230 N   0  0  0  0  0  0  0  0  0  0  0  0
   35.5460   28.6990   34.6730 H   0  0  0  0  0  0  0  0  0  0  0  0
   34.8680   31.5110   30.7310 H   0  0  0  0  0  0  0  0  0  0  0  0
   34.6990   31.1060   35.2850 C   0  0  0  0  0  0  0  0  0  0  0  0
   33.4600   31.1700   35.8670 C   0  0  0  0  0  0  0  0  0  0  0  0
   33.7020   31.7470   37.1100 C   0  0  0  0  0  0  0  0  0  0  0  0
   35.0200   32.0090   37.2500 N   0  0  0  0  0  0  0  0  0  0  0  0
   35.6230   31.6130   36.1240 N   0  0  0  0  0  0  0  0  0  0  0  0
   32.5430   30.8270   35.4040 H   0  0  0  0  0  0  0  0  0  0  0  0
   32.8670   31.9190   37.8020 H   0  0  0  0  0  0  0  0  0  0  0  0
   35.4170   32.4480   38.1180 H   0  0  0  0  0  0  0  0  0  0  0  0
   36.0940   27.5090   32.4510 O   0  0  0  0  0  0  0  0  0  0  0  0
   36.2910   26.9190   31.1750 C   0  0  0  0  0  3  0  0  0  0  0  0
   35.2700   25.8210   31.0110 C   0  0  0  0  0  3  0  0  0  0  0  0
   35.0310   25.6860   29.9300 H   0  0  0  0  0  0  0  0  0  0  0  0
   35.7700   24.5020   31.5020 C   0  0  0  0  0  3  0  0  0  0  0  0
   34.9820   23.7490   31.2110 H   0  0  0  0  0  0  0  0  0  0  0  0
   36.9500   24.2020   30.8310 O   0  0  0  0  0  0  0  0  0  0  0  0
   37.9450   25.0410   31.3280 C   0  0  0  0  0  3  0  0  0  0  0  0
   38.0820   24.9230   32.4160 H   0  0  0  0  0  0  0  0  0  0  0  0
   37.7030   26.4860   30.9800 C   0  0  0  0  0  3  0  0  0  0  0  0
   38.3260   27.0730   31.7150 H   0  0  0  0  0  0  0  0  0  0  0  0
  1  2  1  0  0  0  0
  2  3  2  0  0  0  0
  2  7  1  0  0  0  0
  3  9  1  0  0  0  0
  4  3  1  0  0  0  0
  5  4  2  0  0  0  0
  6  5  1  0  0  0  0
  6  1  2  0  0  0  0
  8  5  1  0  0  0  0
  9 10  1  0  0  0  0
  9 13  2  0  0  0  0
 10 11  2  0  0  0  0
 11 12  1  0  0  0  0
 11 15  1  0  0  0  0
 12 16  1  0  0  0  0
 13 12  1  0  0  0  0
 14 10  1  0  0  0  0
 17  1  1  0  0  0  0
 18 17  1  0  0  0  0
 19 18  1  0  0  0  0
 19 21  1  0  0  0  0
 20 19  1  0  0  0  0
 22 21  1  0  0  0  0
 23 24  1  0  0  0  0
 23 21  1  0  0  0  0
 24 25  1  0  0  0  0
 26 18  1  0  0  0  0
 26 24  1  0  0  0  0
 26 27  1  0  0  0  0
M  END
>  <minimizedAffinity>
-4.62930536

$$$$

 OpenBabel03272503393D

 27 29  0  0  0  0  0  0  0  0999 V2000
   39.1460   25.3970   33.4030 C   0  0  0  0  0  0  0  0  0  0  0  0
   38.6700   25.0220   34.6620 C   0  0  0  0  0  0  0  0  0  0  0  0
   39.4450   24.1530   35.4210 C   0  0  0  0  0  0  0  0  0  0  0  0
   40.6190   23.7130   34.9080 N   0  0  0  0  0  0  0  0  0  0  0  0
   41.0580   24.0940   33.6810 C   0  0  0  0  0  0  0  0  0  0  0  0
   40.3090   24.9390   32.9360 N   0  0  0  0  0  0  0  0  0  0  0  0
   37.7570   25.3370   35.1140 H   0  0  0  0  0  0  0  0  0  0  0  0
   41.9970   23.7380   33.2770 H   0  0  0  0  0  0  0  0  0  0  0  0
   39.0170   23.7150   36.7480 C   0  0  0  0  0  0  0  0  0  0  0  0
   37.8430   24.0810   37.3520 C   0  0  0  0  0  0  0  0  0  0  0  0
   37.8790   23.4260   38.5790 C   0  0  0  0  0  0  0  0  0  0  0  0
   39.0190   22.7100   38.6890 N   0  0  0  0  0  0  0  0  0  0  0  0
   39.7110   22.8940   37.5600 N   0  0  0  0  0  0  0  0  0  0  0  0
   37.1020   24.7360   36.9120 H   0  0  0  0  0  0  0  0  0  0  0  0
   37.0440   23.5430   39.2830 H   0  0  0  0  0  0  0  0  0  0  0  0
   39.2440   22.1390   39.5420 H   0  0  0  0  0  0  0  0  0  0  0  0
   38.2750   26.2600   32.7620 O   0  0  0  0  0  0  0  0  0  0  0  0
   37.8770   25.9130   31.4450 C   0  0  0  0  0  3  0  0  0  0  0  0
   36.9850   27.0130   30.9260 C   0  0  0  0  0  3  0  0  0  0  0  0
   37.0650   27.0720   29.8150 H   0  0  0  0  0  0  0  0  0  0  0  0
   35.5440   26.7690   31.2350 C   0  0  0  0  0  3  0  0  0  0  0  0
   34.9750   27.5780   30.6920 H   0  0  0  0  0  0  0  0  0  0  0  0
   35.1840   25.5340   30.7090 O   0  0  0  0  0  0  0  0  0  0  0  0
   35.7730   24.5500   31.4990 C   0  0  0  0  0  3  0  0  0  0  0  0
   35.4610   24.6220   32.5540 H   0  0  0  0  0  0  0  0  0  0  0  0
   37.2760   24.5510   31.3920 C   0  0  0  0  0  3  0  0  0  0  0  0
   37.6360   24.0020   32.3090 H   0  0  0  0  0  0  0  0  0  0  0  0
  1  2  1  0  0  0  0
  2  7  1  0  0  0  0
  2  3  2  0  0  0  0
  3  9  1  0  0  0  0
  4  3  1  0  0  0  0
  5  4  2  0  0  0  0
  6  1  2  0  0  0  0
  6  5  1  0  0  0  0
  8  5  1  0  0  0  0
  9 10  1  0  0  0  0
  9 13  2  0  0  0  0
 10 11  2  0  0  0  0
 11 12  1  0  0  0  0
 11 15  1  0  0  0  0
 12 16  1  0  0  0  0
 13 12  1  0  0  0  0
 14 10  1  0  0  0  0
 17  1  1  0  0  0  0
 18 17  1  0  0  0  0
 19 21  1  0  0  0  0
 19 18  1  0  0  0  0
 20 19  1  0  0  0  0
 22 21  1  0  0  0  0
 23 21  1  0  0  0  0
 23 24  1  0  0  0  0
 24 25  1  0  0  0  0
 26 18  1  0  0  0  0
 26 24  1  0  0  0  0
 26 27  1  0  0  0  0
M  END
>  <minimizedAffinity>
-4.59500074

$$$$

 OpenBabel03272503393D

 27 29  0  0  0  0  0  0  0  0999 V2000
   38.2770   22.1970   34.4980 C   0  0  0  0  0  0  0  0  0  0  0  0
   37.8980   23.5270   34.3040 C   0  0  0  0  0  0  0  0  0  0  0  0
   38.2690   24.4580   35.2680 C   0  0  0  0  0  0  0  0  0  0  0  0
   38.9760   24.0330   36.3440 N   0  0  0  0  0  0  0  0  0  0  0  0
   39.3300   22.7320   36.5060 C   0  0  0  0  0  0  0  0  0  0  0  0
   38.9730   21.8210   35.5720 N   0  0  0  0  0  0  0  0  0  0  0  0
   37.3450   23.9160   33.4800 H   0  0  0  0  0  0  0  0  0  0  0  0
   39.8940   22.4000   37.3680 H   0  0  0  0  0  0  0  0  0  0  0  0
   37.9130   25.8690   35.1380 C   0  0  0  0  0  0  0  0  0  0  0  0
   38.3500   26.8660   35.9700 C   0  0  0  0  0  0  0  0  0  0  0  0
   37.7570   28.0160   35.4570 C   0  0  0  0  0  0  0  0  0  0  0  0
   37.0080   27.7070   34.3760 N   0  0  0  0  0  0  0  0  0  0  0  0
   37.1090   26.3870   34.1880 N   0  0  0  0  0  0  0  0  0  0  0  0
   39.0090   26.7180   36.8160 H   0  0  0  0  0  0  0  0  0  0  0  0
   37.9390   28.9850   35.9400 H   0  0  0  0  0  0  0  0  0  0  0  0
   36.4720   28.4320   33.8370 H   0  0  0  0  0  0  0  0  0  0  0  0
   37.8410   21.3850   33.4650 O   0  0  0  0  0  0  0  0  0  0  0  0
   36.5020   21.5600   33.0280 C   0  0  0  0  0  3  0  0  0  0  0  0
   35.6450   20.5510   33.7490 C   0  0  0  0  0  3  0  0  0  0  0  0
   34.6070   20.9450   33.8570 H   0  0  0  0  0  0  0  0  0  0  0  0
   35.5330   19.2630   33.0000 C   0  0  0  0  0  3  0  0  0  0  0  0
   34.7740   18.6470   33.5640 H   0  0  0  0  0  0  0  0  0  0  0  0
   35.0370   19.5350   31.7290 O   0  0  0  0  0  0  0  0  0  0  0  0
   36.0520   20.1520   31.0030 C   0  0  0  0  0  3  0  0  0  0  0  0
   36.9560   19.5240   30.9350 H   0  0  0  0  0  0  0  0  0  0  0  0
   36.3960   21.5160   31.5430 C   0  0  0  0  0  3  0  0  0  0  0  0
   37.4250   21.7410   31.1380 H   0  0  0  0  0  0  0  0  0  0  0  0
  1  6  1  0  0  0  0
  2  1  2  0  0  0  0
  2  3  1  0  0  0  0
  3  4  2  0  0  0  0
  4  5  1  0  0  0  0
  5  8  1  0  0  0  0
  6  5  2  0  0  0  0
  7  2  1  0  0  0  0
  9  3  1  0  0  0  0
  9 10  1  0  0  0  0
 10 14  1  0  0  0  0
 11 15  1  0  0  0  0
 11 10  2  0  0  0  0
 12 11  1  0  0  0  0
 13 12  1  0  0  0  0
 13  9  2  0  0  0  0
 16 12  1  0  0  0  0
 17  1  1  0  0  0  0
 18 17  1  0  0  0  0
 18 19  1  0  0  0  0
 19 20  1  0  0  0  0
 21 22  1  0  0  0  0
 21 19  1  0  0  0  0
 23 21  1  0  0  0  0
 24 26  1  0  0  0  0
 24 23  1  0  0  0  0
 25 24  1  0  0  0  0
 26 18  1  0  0  0  0
 27 26  1  0  0  0  0
M  END
>  <minimizedAffinity>
-4.56665993

$$$$

 OpenBabel03272503393D

 27 29  0  0  0  0  0  0  0  0999 V2000
   37.9540   26.2220   33.6630 C   0  0  0  0  0  0  0  0  0  0  0  0
   38.0720   25.8030   34.9910 C   0  0  0  0  0  0  0  0  0  0  0  0
   38.4560   24.4880   35.2290 C   0  0  0  0  0  0  0  0  0  0  0  0
   38.6960   23.6790   34.1690 N   0  0  0  0  0  0  0  0  0  0  0  0
   38.5730   24.1130   32.8880 C   0  0  0  0  0  0  0  0  0  0  0  0
   38.2000   25.3910   32.6480 N   0  0  0  0  0  0  0  0  0  0  0  0
   37.8970   26.3940   35.8600 H   0  0  0  0  0  0  0  0  0  0  0  0
   38.7660   23.4620   32.0450 H   0  0  0  0  0  0  0  0  0  0  0  0
   38.6030   23.9740   36.5880 C   0  0  0  0  0  0  0  0  0  0  0  0
   37.9660   24.4810   37.6900 C   0  0  0  0  0  0  0  0  0  0  0  0
   38.4120   23.6780   38.7360 C   0  0  0  0  0  0  0  0  0  0  0  0
   39.2700   22.7440   38.2690 N   0  0  0  0  0  0  0  0  0  0  0  0
   39.3810   22.9350   36.9500 N   0  0  0  0  0  0  0  0  0  0  0  0
   37.2820   25.3200   37.6750 H   0  0  0  0  0  0  0  0  0  0  0  0
   38.0530   23.8640   39.7560 H   0  0  0  0  0  0  0  0  0  0  0  0
   39.7250   22.0350   38.8960 H   0  0  0  0  0  0  0  0  0  0  0  0
   37.5660   27.5470   33.5770 O   0  0  0  0  0  0  0  0  0  0  0  0
   36.1880   27.8010   33.3480 C   0  0  0  0  0  3  0  0  0  0  0  0
   35.9930   27.9890   31.8650 C   0  0  0  0  0  3  0  0  0  0  0  0
   34.9580   27.6830   31.5780 H   0  0  0  0  0  0  0  0  0  0  0  0
   36.1430   29.4160   31.4490 C   0  0  0  0  0  3  0  0  0  0  0  0
   35.8490   29.4480   30.3600 H   0  0  0  0  0  0  0  0  0  0  0  0
   35.2440   30.1840   32.1800 O   0  0  0  0  0  0  0  0  0  0  0  0
   35.7190   30.2600   33.4870 C   0  0  0  0  0  3  0  0  0  0  0  0
   36.7280   30.7000   33.5380 H   0  0  0  0  0  0  0  0  0  0  0  0
   35.6890   28.9260   34.1870 C   0  0  0  0  0  3  0  0  0  0  0  0
   36.4070   29.0320   35.0500 H   0  0  0  0  0  0  0  0  0  0  0  0
  1  2  1  0  0  0  0
  2  3  2  0  0  0  0
  2  7  1  0  0  0  0
  3  9  1  0  0  0  0
  4  3  1  0  0  0  0
  5  4  2  0  0  0  0
  6  5  1  0  0  0  0
  6  1  2  0  0  0  0
  8  5  1  0  0  0  0
  9 13  2  0  0  0  0
  9 10  1  0  0  0  0
 10 11  2  0  0  0  0
 11 15  1  0  0  0  0
 12 11  1  0  0  0  0
 12 16  1  0  0  0  0
 13 12  1  0  0  0  0
 14 10  1  0  0  0  0
 17  1  1  0  0  0  0
 18 17  1  0  0  0  0
 18 26  1  0  0  0  0
 19 18  1  0  0  0  0
 20 19  1  0  0  0  0
 21 19  1  0  0  0  0
 21 23  1  0  0  0  0
 22 21  1  0  0  0  0
 23 24  1  0  0  0  0
 24 25  1  0  0  0  0
 24 26  1  0  0  0  0
 26 27  1  0  0  0  0
M  END
>  <minimizedAffinity>
-4.5636816

$$$$
