
 OpenBabel03272504123D

 22 23  0  0  0  0  0  0  0  0999 V2000
   36.7410   29.9460   49.6200 C   0  0  0  0  0  0  0  0  0  0  0  0
   37.9260   30.3010   48.9690 C   0  0  0  0  0  0  0  0  0  0  0  0
   37.8480   30.6660   47.6210 C   0  0  0  0  0  0  0  0  0  0  0  0
   36.6300   30.6570   47.0230 N   0  0  0  0  0  0  0  0  0  0  0  0
   35.5050   30.3070   47.6870 C   0  0  0  0  0  0  0  0  0  0  0  0
   35.5640   29.9500   48.9890 N   0  0  0  0  0  0  0  0  0  0  0  0
   38.8930   30.3080   49.4470 H   0  0  0  0  0  0  0  0  0  0  0  0
   34.5360   30.3050   47.1860 H   0  0  0  0  0  0  0  0  0  0  0  0
   39.0440   31.0620   46.8320 C   0  0  0  0  0  0  0  0  0  0  0  0
   39.0580   30.5190   45.4360 C   0  0  0  0  0  0  0  0  0  0  0  0
   39.1050   29.4170   45.3610 H   0  0  0  0  0  0  0  0  0  0  0  0
   40.2940   31.1310   44.7740 C   0  0  0  0  0  0  0  0  0  0  0  0
   40.5400   30.6310   43.8180 H   0  0  0  0  0  0  0  0  0  0  0  0
   40.0980   32.5080   44.6220 O   0  0  0  0  0  0  0  0  0  0  0  0
   40.1450   33.1050   45.8780 C   0  0  0  0  0  0  0  0  0  0  0  0
   41.0810   32.9180   46.4330 H   0  0  0  0  0  0  0  0  0  0  0  0
   39.0130   32.5710   46.7160 C   0  0  0  0  0  0  0  0  0  0  0  0
   38.0360   32.8190   46.2520 H   0  0  0  0  0  0  0  0  0  0  0  0
   36.8330   29.5530   51.0680 C   0  0  0  0  0  0  0  0  0  0  0  0
   35.5600   29.2220   51.5310 F   0  0  0  0  0  0  0  0  0  0  0  0
   37.7350   28.5410   51.1790 F   0  0  0  0  0  0  0  0  0  0  0  0
   37.2300   30.6760   51.7820 F   0  0  0  0  0  0  0  0  0  0  0  0
  1 19  1  0  0  0  0
  2  7  1  0  0  0  0
  2  1  2  0  0  0  0
  3  2  1  0  0  0  0
  4  3  2  0  0  0  0
  4  5  1  0  0  0  0
  5  6  2  0  0  0  0
  6  1  1  0  0  0  0
  8  5  1  0  0  0  0
  9  3  1  0  0  0  0
 10  9  1  0  0  0  0
 11 10  1  0  0  0  0
 12 10  1  0  0  0  0
 13 12  1  0  0  0  0
 14 12  1  0  0  0  0
 14 15  1  0  0  0  0
 15 16  1  0  0  0  0
 15 17  1  0  0  0  0
 17  9  1  0  0  0  0
 18 17  1  0  0  0  0
 19 21  1  0  0  0  0
 19 20  1  0  0  0  0
 19 22  1  0  0  0  0
M  END
>  <minimizedAffinity>
-5.85738182

>  <minimizedRMSD>
2.37328768

$$$$
