
 OpenBabel03272503383D

 27 29  0  0  0  0  0  0  0  0999 V2000
   36.0400   30.4710   46.9790 C   0  0  0  0  0  0  0  0  0  0  0  0
   37.1510   30.9870   46.3070 C   0  0  0  0  0  0  0  0  0  0  0  0
   37.1800   30.8850   44.9200 C   0  0  0  0  0  0  0  0  0  0  0  0
   36.1360   30.2940   44.2900 N   0  0  0  0  0  0  0  0  0  0  0  0
   35.0690   29.8010   44.9690 C   0  0  0  0  0  0  0  0  0  0  0  0
   35.0330   29.8960   46.3180 N   0  0  0  0  0  0  0  0  0  0  0  0
   37.9970   31.4610   46.7500 H   0  0  0  0  0  0  0  0  0  0  0  0
   34.2380   29.3290   44.4600 H   0  0  0  0  0  0  0  0  0  0  0  0
   38.3050   31.4010   44.1440 C   0  0  0  0  0  0  0  0  0  0  0  0
   39.2460   30.6260   43.5200 C   0  0  0  0  0  0  0  0  0  0  0  0
   40.0980   31.5490   42.9200 C   0  0  0  0  0  0  0  0  0  0  0  0
   39.6760   32.8060   43.1810 N   0  0  0  0  0  0  0  0  0  0  0  0
   38.5750   32.7050   43.9340 N   0  0  0  0  0  0  0  0  0  0  0  0
   39.2590   29.5440   43.5310 H   0  0  0  0  0  0  0  0  0  0  0  0
   40.9600   31.1970   42.3390 H   0  0  0  0  0  0  0  0  0  0  0  0
   40.1800   33.6540   42.8220 H   0  0  0  0  0  0  0  0  0  0  0  0
   36.1460   30.6400   48.3480 O   0  0  0  0  0  0  0  0  0  0  0  0
   36.7810   29.6010   49.0790 C   0  0  0  0  0  3  0  0  0  0  0  0
   35.7100   28.8100   49.7840 C   0  0  0  0  0  3  0  0  0  0  0  0
   36.0500   27.7560   49.9240 H   0  0  0  0  0  0  0  0  0  0  0  0
   35.4140   29.3440   51.1480 C   0  0  0  0  0  3  0  0  0  0  0  0
   34.7040   28.6030   51.6190 H   0  0  0  0  0  0  0  0  0  0  0  0
   36.5970   29.3620   51.8790 O   0  0  0  0  0  0  0  0  0  0  0  0
   37.3870   30.3940   51.3790 C   0  0  0  0  0  3  0  0  0  0  0  0
   36.8830   31.3720   51.4430 H   0  0  0  0  0  0  0  0  0  0  0  0
   37.8520   30.1300   49.9700 C   0  0  0  0  0  3  0  0  0  0  0  0
   38.1430   31.1410   49.5640 H   0  0  0  0  0  0  0  0  0  0  0  0
  1 17  1  0  0  0  0
  2  7  1  0  0  0  0
  2  1  2  0  0  0  0
  3  2  1  0  0  0  0
  4  3  2  0  0  0  0
  4  5  1  0  0  0  0
  5  6  2  0  0  0  0
  6  1  1  0  0  0  0
  8  5  1  0  0  0  0
  9  3  1  0  0  0  0
 10 14  1  0  0  0  0
 10  9  1  0  0  0  0
 11 12  1  0  0  0  0
 11 10  2  0  0  0  0
 12 13  1  0  0  0  0
 13  9  2  0  0  0  0
 15 11  1  0  0  0  0
 16 12  1  0  0  0  0
 17 18  1  0  0  0  0
 18 19  1  0  0  0  0
 18 26  1  0  0  0  0
 19 20  1  0  0  0  0
 19 21  1  0  0  0  0
 21 22  1  0  0  0  0
 21 23  1  0  0  0  0
 24 25  1  0  0  0  0
 24 23  1  0  0  0  0
 26 24  1  0  0  0  0
 27 26  1  0  0  0  0
M  END
>  <minimizedAffinity>
-4.84935808

>  <minimizedRMSD>
4.14472914

$$$$
