
 OpenBabel03272509093D

 41 44  0  0  0  0  0  0  0  0999 V2000
   32.9820   27.8970   48.0270 C   0  0  0  0  0  0  0  0  0  0  0  0
   32.1550   28.5480   47.7320 H   0  0  0  0  0  0  0  0  0  0  0  0
   32.5720   27.3050   48.9000 H   0  0  0  0  0  0  0  0  0  0  0  0
   33.3500   26.8610   47.0300 C   0  0  0  0  0  0  0  0  0  0  0  0
   34.0490   25.6950   47.3350 C   0  0  0  0  0  0  0  0  0  0  0  0
   34.3590   24.7690   46.3680 C   0  0  0  0  0  0  0  0  0  0  0  0
   33.9750   24.9820   45.0460 C   0  0  0  0  0  0  0  0  0  0  0  0
   33.2910   26.1210   44.7440 C   0  0  0  0  0  0  0  0  0  0  0  0
   32.9760   27.0580   45.7130 C   0  0  0  0  0  0  0  0  0  0  0  0
   34.2930   25.6420   48.3970 H   0  0  0  0  0  0  0  0  0  0  0  0
   34.9010   23.9450   46.8130 H   0  0  0  0  0  0  0  0  0  0  0  0
   34.2760   24.1850   44.3820 H   0  0  0  0  0  0  0  0  0  0  0  0
   33.0460   26.1830   43.6940 H   0  0  0  0  0  0  0  0  0  0  0  0
   32.2420   28.2310   45.1870 C   0  0  0  0  0  3  0  0  0  0  0  0
   31.1080   28.5410   46.1580 C   0  0  0  0  0  3  0  0  0  0  0  0
   31.5690   28.4350   47.1830 H   0  0  0  0  0  0  0  0  0  0  0  0
   30.5450   29.9180   45.9820 C   0  0  0  0  0  3  0  0  0  0  0  0
   29.5690   29.8820   45.4540 H   0  0  0  0  0  0  0  0  0  0  0  0
   31.4160   30.8380   45.4460 O   0  0  0  0  0  0  0  0  0  0  0  0
   32.7020   30.5540   45.9540 C   0  0  0  0  0  3  0  0  0  0  0  0
   32.6270   30.2700   47.0230 H   0  0  0  0  0  0  0  0  0  0  0  0
   33.2000   29.3930   45.0820 C   0  0  0  0  0  3  0  0  0  0  0  0
   34.2430   29.1580   45.2730 H   0  0  0  0  0  0  0  0  0  0  0  0
   34.8100   28.3550   49.6710 C   0  0  0  0  0  3  0  0  0  0  0  0
   34.1350   28.6260   48.5810 C   0  0  0  0  0  3  0  0  0  0  0  0
   37.3690   30.1610   51.5390 C   0  0  0  0  0  0  0  0  0  0  0  0
   38.0250   30.8740   50.5080 C   0  0  0  0  0  0  0  0  0  0  0  0
   37.5580   30.7060   49.1950 C   0  0  0  0  0  0  0  0  0  0  0  0
   36.4970   29.8670   48.9760 N   0  0  0  0  0  0  0  0  0  0  0  0
   35.9190   29.2160   50.0230 C   0  0  0  0  0  0  0  0  0  0  0  0
   36.3460   29.3610   51.2740 N   0  0  0  0  0  0  0  0  0  0  0  0
   37.7470   30.3030   52.5590 H   0  0  0  0  0  0  0  0  0  0  0  0
   38.8570   31.5340   50.6670 H   0  0  0  0  0  0  0  0  0  0  0  0
   38.1610   31.3980   48.0490 C   0  0  0  0  0  0  0  0  0  0  0  0
   38.3270   30.7970   46.8250 C   0  0  0  0  0  0  0  0  0  0  0  0
   38.9210   31.7320   45.9770 C   0  0  0  0  0  0  0  0  0  0  0  0
   39.0900   32.8570   46.7180 N   0  0  0  0  0  0  0  0  0  0  0  0
   38.6350   32.6410   47.9390 N   0  0  0  0  0  0  0  0  0  0  0  0
   38.0470   29.7810   46.5640 H   0  0  0  0  0  0  0  0  0  0  0  0
   39.1870   31.5740   44.9380 H   0  0  0  0  0  0  0  0  0  0  0  0
   39.5140   33.7490   46.3710 H   0  0  0  0  0  0  0  0  0  0  0  0
  1 25  1  0  0  0  0
  1  3  1  0  0  0  0
  2  1  1  0  0  0  0
  4  5  1  0  0  0  0
  4  1  1  0  0  0  0
  5 10  1  0  0  0  0
  6 11  1  0  0  0  0
  6  5  2  0  0  0  0
  7  6  1  0  0  0  0
  8  7  2  0  0  0  0
  8  9  1  0  0  0  0
  9  4  2  0  0  0  0
 12  7  1  0  0  0  0
 13  8  1  0  0  0  0
 14  9  1  0  0  0  0
 14 15  1  0  0  0  0
 15 16  1  0  0  0  0
 17 15  1  0  0  0  0
 18 17  1  0  0  0  0
 19 20  1  0  0  0  0
 19 17  1  0  0  0  0
 20 21  1  0  0  0  0
 22 14  1  0  0  0  0
 22 23  1  0  0  0  0
 22 20  1  0  0  0  0
 24 30  1  0  0  0  0
 25 24  2  0  0  0  0
 26 32  1  0  0  0  0
 27 33  1  0  0  0  0
 27 26  2  0  0  0  0
 28 27  1  0  0  0  0
 29 28  2  0  0  0  0
 29 30  1  0  0  0  0
 30 31  2  0  0  0  0
 31 26  1  0  0  0  0
 34 28  1  0  0  0  0
 35 34  1  0  0  0  0
 36 37  1  0  0  0  0
 36 35  2  0  0  0  0
 37 38  1  0  0  0  0
 38 34  2  0  0  0  0
 39 35  1  0  0  0  0
 40 36  1  0  0  0  0
 41 37  1  0  0  0  0
M  END
>  <minimizedAffinity>
-6.21868563

>  <minimizedRMSD>
0.83036679

$$$$
