
 OpenBabel03272503383D

 27 29  0  0  0  0  0  0  0  0999 V2000
   36.6030   30.4180   46.6930 C   0  0  0  0  0  0  0  0  0  0  0  0
   37.2770   31.2280   47.6100 C   0  0  0  0  0  0  0  0  0  0  0  0
   38.1260   32.2110   47.1140 C   0  0  0  0  0  0  0  0  0  0  0  0
   38.2580   32.3370   45.7710 N   0  0  0  0  0  0  0  0  0  0  0  0
   37.5900   31.5360   44.9020 C   0  0  0  0  0  0  0  0  0  0  0  0
   36.7630   30.5770   45.3780 N   0  0  0  0  0  0  0  0  0  0  0  0
   37.2110   31.1730   48.6730 H   0  0  0  0  0  0  0  0  0  0  0  0
   37.7000   31.6420   43.8300 H   0  0  0  0  0  0  0  0  0  0  0  0
   38.8660   33.0980   48.0080 C   0  0  0  0  0  0  0  0  0  0  0  0
   39.8300   33.9850   47.6080 C   0  0  0  0  0  0  0  0  0  0  0  0
   40.2380   34.5940   48.7910 C   0  0  0  0  0  0  0  0  0  0  0  0
   39.5450   34.0880   49.8350 N   0  0  0  0  0  0  0  0  0  0  0  0
   38.7060   33.1700   49.3440 N   0  0  0  0  0  0  0  0  0  0  0  0
   40.1510   34.1270   46.5840 H   0  0  0  0  0  0  0  0  0  0  0  0
   41.0190   35.3650   48.7650 H   0  0  0  0  0  0  0  0  0  0  0  0
   39.7000   34.4120   50.8220 H   0  0  0  0  0  0  0  0  0  0  0  0
   35.7980   29.4880   47.3260 O   0  0  0  0  0  0  0  0  0  0  0  0
   34.5320   29.9370   47.7840 C   0  0  0  0  0  3  0  0  0  0  0  0
   34.5120   29.8110   49.2870 C   0  0  0  0  0  3  0  0  0  0  0  0
   33.8260   30.5750   49.7210 H   0  0  0  0  0  0  0  0  0  0  0  0
   34.0060   28.4790   49.7380 C   0  0  0  0  0  3  0  0  0  0  0  0
   33.9150   28.5530   50.8610 H   0  0  0  0  0  0  0  0  0  0  0  0
   32.7400   28.2860   49.1970 O   0  0  0  0  0  0  0  0  0  0  0  0
   32.8960   28.0370   47.8360 C   0  0  0  0  0  3  0  0  0  0  0  0
   33.5340   27.1590   47.6430 H   0  0  0  0  0  0  0  0  0  0  0  0
   33.4150   29.2390   47.0900 C   0  0  0  0  0  3  0  0  0  0  0  0
   33.8370   28.8270   46.1290 H   0  0  0  0  0  0  0  0  0  0  0  0
  1 17  1  0  0  0  0
  1  2  1  0  0  0  0
  2  7  1  0  0  0  0
  3  2  2  0  0  0  0
  3  9  1  0  0  0  0
  4  3  1  0  0  0  0
  5  6  1  0  0  0  0
  5  4  2  0  0  0  0
  6  1  2  0  0  0  0
  8  5  1  0  0  0  0
  9 13  2  0  0  0  0
 10  9  1  0  0  0  0
 10 11  2  0  0  0  0
 11 12  1  0  0  0  0
 12 16  1  0  0  0  0
 13 12  1  0  0  0  0
 14 10  1  0  0  0  0
 15 11  1  0  0  0  0
 17 18  1  0  0  0  0
 18 19  1  0  0  0  0
 19 20  1  0  0  0  0
 19 21  1  0  0  0  0
 21 22  1  0  0  0  0
 23 21  1  0  0  0  0
 24 23  1  0  0  0  0
 25 24  1  0  0  0  0
 26 18  1  0  0  0  0
 26 24  1  0  0  0  0
 27 26  1  0  0  0  0
M  END
>  <minimizedAffinity>
-3.91146159

>  <minimizedRMSD>
4.26401091

$$$$
