
 OpenBabel03272500243D

 32 34  0  0  0  0  0  0  0  0999 V2000
   36.0110   30.2770   45.1940 C   0  0  0  0  0  0  0  0  0  0  0  0
   34.7050   29.8500   45.3470 C   0  0  0  0  0  0  0  0  0  0  0  0
   34.3980   29.8510   46.6780 C   0  0  0  0  0  0  0  0  0  0  0  0
   35.4980   30.2690   47.3100 N   0  0  0  0  0  0  0  0  0  0  0  0
   36.4360   30.5170   46.4370 N   0  0  0  0  0  0  0  0  0  0  0  0
   33.9810   29.5490   44.6000 H   0  0  0  0  0  0  0  0  0  0  0  0
   33.5280   29.6020   47.2420 H   0  0  0  0  0  0  0  0  0  0  0  0
   35.8700   30.5030   48.7140 C   0  0  0  0  0  0  0  0  0  0  0  0
   36.0120   29.1980   49.4230 C   0  0  0  0  0  0  0  0  0  0  0  0
   36.3410   28.4080   48.6950 H   0  0  0  0  0  0  0  0  0  0  0  0
   36.9950   29.1840   50.5510 C   0  0  0  0  0  0  0  0  0  0  0  0
   37.2370   28.1310   50.7850 H   0  0  0  0  0  0  0  0  0  0  0  0
   38.1670   29.8670   50.1700 O   0  0  0  0  0  0  0  0  0  0  0  0
   37.7660   31.2230   50.1160 C   0  0  0  0  0  0  0  0  0  0  0  0
   37.1630   31.4400   51.0030 H   0  0  0  0  0  0  0  0  0  0  0  0
   37.0450   31.4230   48.8250 C   0  0  0  0  0  0  0  0  0  0  0  0
   37.7550   31.3390   47.9900 H   0  0  0  0  0  0  0  0  0  0  0  0
   36.6420   30.3760   43.8640 C   0  0  0  0  0  0  0  0  0  0  0  0
   35.8660   30.6610   43.0870 H   0  0  0  0  0  0  0  0  0  0  0  0
   37.2930   31.2560   43.8850 H   0  0  0  0  0  0  0  0  0  0  0  0
   37.2230   29.0950   43.3990 C   0  0  0  0  0  0  0  0  0  0  0  0
   37.1740   28.3900   44.2880 H   0  0  0  0  0  0  0  0  0  0  0  0
   36.5540   28.5640   42.6520 H   0  0  0  0  0  0  0  0  0  0  0  0
   38.5980   29.0850   42.9650 C   0  0  0  0  0  0  0  0  0  0  0  0
   39.4150   30.1660   43.1510 C   0  0  0  0  0  0  0  0  0  0  0  0
   40.7640   30.1280   42.7290 C   0  0  0  0  0  0  0  0  0  0  0  0
   41.1640   28.9420   42.1330 N   0  0  0  0  0  0  0  0  0  0  0  0
   40.3120   27.8910   41.9680 C   0  0  0  0  0  0  0  0  0  0  0  0
   39.0340   27.9770   42.3880 N   0  0  0  0  0  0  0  0  0  0  0  0
   39.2080   31.1200   43.6000 H   0  0  0  0  0  0  0  0  0  0  0  0
   41.4860   30.9070   42.8240 H   0  0  0  0  0  0  0  0  0  0  0  0
   40.7160   27.0010   41.4900 H   0  0  0  0  0  0  0  0  0  0  0  0
  1  2  1  0  0  0  0
  1  5  2  0  0  0  0
  2  3  2  0  0  0  0
  3  7  1  0  0  0  0
  3  4  1  0  0  0  0
  4  8  1  0  0  0  0
  5  4  1  0  0  0  0
  6  2  1  0  0  0  0
  8 16  1  0  0  0  0
  8  9  1  0  0  0  0
  9 11  1  0  0  0  0
 10  9  1  0  0  0  0
 11 12  1  0  0  0  0
 13 11  1  0  0  0  0
 14 13  1  0  0  0  0
 14 15  1  0  0  0  0
 16 14  1  0  0  0  0
 17 16  1  0  0  0  0
 18 20  1  0  0  0  0
 18  1  1  0  0  0  0
 19 18  1  0  0  0  0
 21 18  1  0  0  0  0
 21 22  1  0  0  0  0
 23 21  1  0  0  0  0
 24 25  1  0  0  0  0
 24 21  1  0  0  0  0
 25 30  1  0  0  0  0
 26 31  1  0  0  0  0
 26 25  2  0  0  0  0
 27 26  1  0  0  0  0
 28 27  2  0  0  0  0
 28 29  1  0  0  0  0
 29 24  2  0  0  0  0
 32 28  1  0  0  0  0
M  END
>  <minimizedAffinity>
-4.60477972

>  <minimizedRMSD>
4.56997871

$$$$
