
 OpenBabel03272502113D

 27 29  0  0  0  0  0  0  0  0999 V2000
   38.3000   32.2000   48.9270 C   0  0  0  0  0  0  0  0  0  0  0  0
   38.7540   33.3230   49.5940 C   0  0  0  0  0  0  0  0  0  0  0  0
   39.5860   34.2930   49.0420 C   0  0  0  0  0  0  0  0  0  0  0  0
   39.9660   34.0970   47.7520 N   0  0  0  0  0  0  0  0  0  0  0  0
   39.5300   33.0010   47.0830 C   0  0  0  0  0  0  0  0  0  0  0  0
   38.7280   32.0960   47.6650 N   0  0  0  0  0  0  0  0  0  0  0  0
   38.4670   33.5040   50.6220 H   0  0  0  0  0  0  0  0  0  0  0  0
   39.9060   35.1380   49.6020 H   0  0  0  0  0  0  0  0  0  0  0  0
   39.9350   32.7750   45.6800 C   0  0  0  0  0  0  0  0  0  0  0  0
   38.7270   32.7170   44.7400 C   0  0  0  0  0  0  0  0  0  0  0  0
   38.1750   31.7820   44.8450 H   0  0  0  0  0  0  0  0  0  0  0  0
   39.3080   32.8100   43.3450 C   0  0  0  0  0  0  0  0  0  0  0  0
   39.8200   33.8150   43.2830 H   0  0  0  0  0  0  0  0  0  0  0  0
   40.2920   31.8680   43.1180 O   0  0  0  0  0  0  0  0  0  0  0  0
   40.3480   30.8870   44.0980 C   0  0  0  0  0  0  0  0  0  0  0  0
   41.1900   30.2130   43.8410 H   0  0  0  0  0  0  0  0  0  0  0  0
   40.6570   31.4570   45.4810 C   0  0  0  0  0  0  0  0  0  0  0  0
   41.7370   31.5310   45.6760 H   0  0  0  0  0  0  0  0  0  0  0  0
   37.7280   30.5760   50.7620 C   0  0  0  0  0  0  0  0  0  0  0  0
   37.4390   31.2270   49.5450 C   0  0  0  0  0  0  0  0  0  0  0  0
   36.2510   30.9050   48.9100 C   0  0  0  0  0  0  0  0  0  0  0  0
   35.4430   29.9860   49.4980 N   0  0  0  0  0  0  0  0  0  0  0  0
   35.7370   29.3720   50.6660 C   0  0  0  0  0  0  0  0  0  0  0  0
   36.8990   29.6790   51.2970 N   0  0  0  0  0  0  0  0  0  0  0  0
   38.6910   30.9000   51.1850 H   0  0  0  0  0  0  0  0  0  0  0  0
   35.8980   31.3130   47.9860 H   0  0  0  0  0  0  0  0  0  0  0  0
   35.0490   28.6510   51.0750 H   0  0  0  0  0  0  0  0  0  0  0  0
  1 20  1  0  0  0  0
  1  2  1  0  0  0  0
  2  7  1  0  0  0  0
  3  2  2  0  0  0  0
  3  8  1  0  0  0  0
  4  3  1  0  0  0  0
  5  6  1  0  0  0  0
  5  4  2  0  0  0  0
  6  1  2  0  0  0  0
  9  5  1  0  0  0  0
 10 11  1  0  0  0  0
 10  9  1  0  0  0  0
 12 10  1  0  0  0  0
 13 12  1  0  0  0  0
 14 12  1  0  0  0  0
 14 15  1  0  0  0  0
 15 17  1  0  0  0  0
 16 15  1  0  0  0  0
 17 18  1  0  0  0  0
 17  9  1  0  0  0  0
 19 25  1  0  0  0  0
 19 24  1  0  0  0  0
 20 19  2  0  0  0  0
 21 22  2  0  0  0  0
 21 20  1  0  0  0  0
 22 23  1  0  0  0  0
 23 27  1  0  0  0  0
 23 24  2  0  0  0  0
 26 21  1  0  0  0  0
M  END
>  <minimizedAffinity>
-6.15708113

>  <minimizedRMSD>
0.645853877

$$$$
