
 OpenBabel03262521203D

 30 31  0  0  0  0  0  0  0  0999 V2000
   35.8440   24.0710   31.4400 C   0  0  0  0  0  0  0  0  0  0  0  0
   35.1610   25.1070   30.8250 C   0  0  0  0  0  0  0  0  0  0  0  0
   35.4410   26.4320   31.1990 C   0  0  0  0  0  0  0  0  0  0  0  0
   36.3990   26.6070   32.1760 N   0  0  0  0  0  0  0  0  0  0  0  0
   37.0400   25.5640   32.7490 C   0  0  0  0  0  0  0  0  0  0  0  0
   36.7730   24.3280   32.3940 N   0  0  0  0  0  0  0  0  0  0  0  0
   34.4050   24.9780   30.0530 H   0  0  0  0  0  0  0  0  0  0  0  0
   34.9220   27.2400   30.7320 H   0  0  0  0  0  0  0  0  0  0  0  0
   38.0660   25.8070   33.8000 C   0  0  0  0  0  3  0  0  0  0  0  0
   38.2090   24.5710   34.6480 C   0  0  0  0  0  3  0  0  0  0  0  0
   38.7480   23.7530   34.1340 H   0  0  0  0  0  0  0  0  0  0  0  0
   38.9890   24.9080   35.8970 C   0  0  0  0  0  3  0  0  0  0  0  0
   39.9830   25.2920   35.5710 H   0  0  0  0  0  0  0  0  0  0  0  0
   38.2750   25.8650   36.6350 O   0  0  0  0  0  0  0  0  0  0  0  0
   38.3500   27.0650   35.9400 C   0  0  0  0  0  3  0  0  0  0  0  0
   37.8930   27.8840   36.5310 H   0  0  0  0  0  0  0  0  0  0  0  0
   37.5270   26.9180   34.6740 C   0  0  0  0  0  3  0  0  0  0  0  0
   37.6340   27.8570   34.1070 H   0  0  0  0  0  0  0  0  0  0  0  0
   35.4640   22.8260   30.9710 O   0  0  0  0  0  0  0  0  0  0  0  0
   36.1050   21.7270   31.4890 C   0  0  0  0  0  0  0  0  0  0  0  0
   36.4680   21.0880   30.6540 H   0  0  0  0  0  0  0  0  0  0  0  0
   37.0420   21.9720   32.0700 H   0  0  0  0  0  0  0  0  0  0  0  0
   35.1050   21.2240   32.2390 C   0  0  0  0  0  0  0  0  0  0  0  0
   34.2570   20.7660   31.6400 H   0  0  0  0  0  0  0  0  0  0  0  0
   34.5490   22.0400   32.7670 H   0  0  0  0  0  0  0  0  0  0  0  0
   35.4600   20.2070   33.2740 C   0  0  0  0  0  0  0  0  0  0  0  0
   36.4680   20.3690   33.7440 H   0  0  0  0  0  0  0  0  0  0  0  0
   34.7550   20.2610   34.1300 H   0  0  0  0  0  0  0  0  0  0  0  0
   35.4590   18.5260   32.6100 S   0  0  0  0  0  0  0  0  0  0  0  0
   36.0690   18.4740   31.3460 H   0  0  0  0  0  0  0  0  0  0  0  0
  1  6  1  0  0  0  0
  2  3  1  0  0  0  0
  2  1  2  0  0  0  0
  3  4  2  0  0  0  0
  4  5  1  0  0  0  0
  5  9  1  0  0  0  0
  6  5  2  0  0  0  0
  7  2  1  0  0  0  0
  8  3  1  0  0  0  0
  9 10  1  0  0  0  0
  9 17  1  0  0  0  0
 10 12  1  0  0  0  0
 11 10  1  0  0  0  0
 12 14  1  0  0  0  0
 13 12  1  0  0  0  0
 15 16  1  0  0  0  0
 15 14  1  0  0  0  0
 17 15  1  0  0  0  0
 18 17  1  0  0  0  0
 19  1  1  0  0  0  0
 19 20  1  0  0  0  0
 20 22  1  0  0  0  0
 20 23  1  0  0  0  0
 21 20  1  0  0  0  0
 23 25  1  0  0  0  0
 23 26  1  0  0  0  0
 24 23  1  0  0  0  0
 26 27  1  0  0  0  0
 26 28  1  0  0  0  0
 29 26  1  0  0  0  0
 30 29  1  0  0  0  0
M  END
>  <minimizedAffinity>
-4.33463621

$$$$

 OpenBabel03262521203D

 30 31  0  0  0  0  0  0  0  0999 V2000
   37.4110   26.2070   33.3970 C   0  0  0  0  0  0  0  0  0  0  0  0
   37.5130   27.4770   33.9360 C   0  0  0  0  0  0  0  0  0  0  0  0
   37.8450   27.6230   35.2940 C   0  0  0  0  0  0  0  0  0  0  0  0
   38.0470   26.4590   36.0060 N   0  0  0  0  0  0  0  0  0  0  0  0
   37.9360   25.2380   35.4360 C   0  0  0  0  0  0  0  0  0  0  0  0
   37.6260   25.1110   34.1660 N   0  0  0  0  0  0  0  0  0  0  0  0
   37.3560   28.4010   33.3820 H   0  0  0  0  0  0  0  0  0  0  0  0
   37.9280   28.5970   35.7230 H   0  0  0  0  0  0  0  0  0  0  0  0
   38.1650   24.0130   36.2490 C   0  0  0  0  0  3  0  0  0  0  0  0
   38.0610   24.3610   37.7100 C   0  0  0  0  0  3  0  0  0  0  0  0
   37.0200   24.5380   38.0410 H   0  0  0  0  0  0  0  0  0  0  0  0
   38.6070   23.2210   38.5370 C   0  0  0  0  0  3  0  0  0  0  0  0
   38.0030   22.3180   38.2930 H   0  0  0  0  0  0  0  0  0  0  0  0
   39.9640   23.0420   38.2250 O   0  0  0  0  0  0  0  0  0  0  0  0
   40.0280   22.5010   36.9480 C   0  0  0  0  0  3  0  0  0  0  0  0
   41.0740   22.2400   36.6900 H   0  0  0  0  0  0  0  0  0  0  0  0
   39.5860   23.5740   35.9700 C   0  0  0  0  0  3  0  0  0  0  0  0
   39.5930   23.1200   34.9650 H   0  0  0  0  0  0  0  0  0  0  0  0
   37.0790   26.2210   32.0530 O   0  0  0  0  0  0  0  0  0  0  0  0
   37.3110   25.0780   31.3280 C   0  0  0  0  0  0  0  0  0  0  0  0
   37.9590   25.3220   30.4560 H   0  0  0  0  0  0  0  0  0  0  0  0
   37.8940   24.2880   31.8860 H   0  0  0  0  0  0  0  0  0  0  0  0
   36.0380   24.7320   31.0510 C   0  0  0  0  0  0  0  0  0  0  0  0
   35.7190   24.9430   29.9820 H   0  0  0  0  0  0  0  0  0  0  0  0
   35.3150   25.3890   31.5990 H   0  0  0  0  0  0  0  0  0  0  0  0
   35.6280   23.3220   31.3220 C   0  0  0  0  0  0  0  0  0  0  0  0
   34.8660   23.2200   32.1420 H   0  0  0  0  0  0  0  0  0  0  0  0
   35.1240   22.8860   30.4340 H   0  0  0  0  0  0  0  0  0  0  0  0
   37.0310   22.2790   31.7810 S   0  0  0  0  0  0  0  0  0  0  0  0
   37.8880   22.9390   32.6770 H   0  0  0  0  0  0  0  0  0  0  0  0
  1  2  2  0  0  0  0
  1  6  1  0  0  0  0
  2  3  1  0  0  0  0
  3  8  1  0  0  0  0
  3  4  2  0  0  0  0
  5  4  1  0  0  0  0
  5  9  1  0  0  0  0
  6  5  2  0  0  0  0
  7  2  1  0  0  0  0
  9 10  1  0  0  0  0
 10 11  1  0  0  0  0
 10 12  1  0  0  0  0
 13 12  1  0  0  0  0
 14 12  1  0  0  0  0
 15 14  1  0  0  0  0
 16 15  1  0  0  0  0
 17  9  1  0  0  0  0
 17 15  1  0  0  0  0
 18 17  1  0  0  0  0
 19  1  1  0  0  0  0
 20 22  1  0  0  0  0
 20 19  1  0  0  0  0
 21 20  1  0  0  0  0
 23 26  1  0  0  0  0
 23 20  1  0  0  0  0
 23 25  1  0  0  0  0
 24 23  1  0  0  0  0
 26 29  1  0  0  0  0
 26 27  1  0  0  0  0
 28 26  1  0  0  0  0
 29 30  1  0  0  0  0
M  END
>  <minimizedAffinity>
-4.22956944

$$$$

 OpenBabel03262521203D

 30 31  0  0  0  0  0  0  0  0999 V2000
   36.7640   27.8090   33.9990 C   0  0  0  0  0  0  0  0  0  0  0  0
   36.4880   27.5370   32.6700 C   0  0  0  0  0  0  0  0  0  0  0  0
   35.6510   28.4060   31.9490 C   0  0  0  0  0  0  0  0  0  0  0  0
   35.1550   29.4940   32.6380 N   0  0  0  0  0  0  0  0  0  0  0  0
   35.4520   29.7200   33.9370 C   0  0  0  0  0  0  0  0  0  0  0  0
   36.2350   28.9030   34.6030 N   0  0  0  0  0  0  0  0  0  0  0  0
   36.8750   26.6820   32.1200 H   0  0  0  0  0  0  0  0  0  0  0  0
   35.4310   28.2080   30.9240 H   0  0  0  0  0  0  0  0  0  0  0  0
   34.8900   30.9090   34.6330 C   0  0  0  0  0  3  0  0  0  0  0  0
   35.8020   31.2970   35.7670 C   0  0  0  0  0  3  0  0  0  0  0  0
   36.7360   31.7820   35.4240 H   0  0  0  0  0  0  0  0  0  0  0  0
   35.0910   32.2770   36.6700 C   0  0  0  0  0  3  0  0  0  0  0  0
   34.8200   33.1610   36.0480 H   0  0  0  0  0  0  0  0  0  0  0  0
   33.9580   31.6530   37.2150 O   0  0  0  0  0  0  0  0  0  0  0  0
   33.0300   31.5110   36.1910 C   0  0  0  0  0  3  0  0  0  0  0  0
   32.0730   31.1200   36.5880 H   0  0  0  0  0  0  0  0  0  0  0  0
   33.5660   30.4720   35.2240 C   0  0  0  0  0  3  0  0  0  0  0  0
   32.8480   30.4030   34.3910 H   0  0  0  0  0  0  0  0  0  0  0  0
   37.5980   26.8690   34.5770 O   0  0  0  0  0  0  0  0  0  0  0  0
   38.5360   27.3150   35.4750 C   0  0  0  0  0  0  0  0  0  0  0  0
   39.5340   27.3410   34.9830 H   0  0  0  0  0  0  0  0  0  0  0  0
   38.3750   28.3800   35.8180 H   0  0  0  0  0  0  0  0  0  0  0  0
   38.3690   26.3920   36.4430 C   0  0  0  0  0  0  0  0  0  0  0  0
   37.5230   26.6210   37.1650 H   0  0  0  0  0  0  0  0  0  0  0  0
   39.2340   26.3950   37.1540 H   0  0  0  0  0  0  0  0  0  0  0  0
   38.1640   24.9740   36.0210 C   0  0  0  0  0  0  0  0  0  0  0  0
   37.3370   24.8380   35.2710 H   0  0  0  0  0  0  0  0  0  0  0  0
   39.0650   24.5900   35.4980 H   0  0  0  0  0  0  0  0  0  0  0  0
   37.7840   23.8940   37.4190 S   0  0  0  0  0  0  0  0  0  0  0  0
   36.8700   24.4970   38.2990 H   0  0  0  0  0  0  0  0  0  0  0  0
  1 19  1  0  0  0  0
  1  6  1  0  0  0  0
  2  1  2  0  0  0  0
  3  4  2  0  0  0  0
  3  2  1  0  0  0  0
  4  5  1  0  0  0  0
  5  6  2  0  0  0  0
  5  9  1  0  0  0  0
  7  2  1  0  0  0  0
  8  3  1  0  0  0  0
  9 17  1  0  0  0  0
  9 10  1  0  0  0  0
 10 12  1  0  0  0  0
 11 10  1  0  0  0  0
 12 14  1  0  0  0  0
 13 12  1  0  0  0  0
 15 16  1  0  0  0  0
 15 14  1  0  0  0  0
 17 15  1  0  0  0  0
 18 17  1  0  0  0  0
 19 20  1  0  0  0  0
 20 22  1  0  0  0  0
 20 23  1  0  0  0  0
 21 20  1  0  0  0  0
 23 25  1  0  0  0  0
 23 24  1  0  0  0  0
 26 23  1  0  0  0  0
 26 29  1  0  0  0  0
 27 26  1  0  0  0  0
 28 26  1  0  0  0  0
 29 30  1  0  0  0  0
M  END
>  <minimizedAffinity>
-4.2264266

$$$$

 OpenBabel03262521203D

 30 31  0  0  0  0  0  0  0  0999 V2000
   37.4850   24.2540   32.8290 C   0  0  0  0  0  0  0  0  0  0  0  0
   36.9130   25.4160   32.3410 C   0  0  0  0  0  0  0  0  0  0  0  0
   35.8450   25.3270   31.4320 C   0  0  0  0  0  0  0  0  0  0  0  0
   35.4370   24.0560   31.0850 N   0  0  0  0  0  0  0  0  0  0  0  0
   36.0260   22.9490   31.5880 C   0  0  0  0  0  0  0  0  0  0  0  0
   37.0240   23.0400   32.4370 N   0  0  0  0  0  0  0  0  0  0  0  0
   37.2290   26.4220   32.6100 H   0  0  0  0  0  0  0  0  0  0  0  0
   35.3940   26.2160   31.0490 H   0  0  0  0  0  0  0  0  0  0  0  0
   35.5470   21.5990   31.1800 C   0  0  0  0  0  3  0  0  0  0  0  0
   34.9610   20.8990   32.3780 C   0  0  0  0  0  3  0  0  0  0  0  0
   33.9720   21.2990   32.6730 H   0  0  0  0  0  0  0  0  0  0  0  0
   34.7760   19.4340   32.0600 C   0  0  0  0  0  3  0  0  0  0  0  0
   34.0950   19.3710   31.1810 H   0  0  0  0  0  0  0  0  0  0  0  0
   36.0310   18.8650   31.7920 O   0  0  0  0  0  0  0  0  0  0  0  0
   36.4530   19.3540   30.5630 C   0  0  0  0  0  3  0  0  0  0  0  0
   37.3920   18.8550   30.2500 H   0  0  0  0  0  0  0  0  0  0  0  0
   36.7710   20.8270   30.7370 C   0  0  0  0  0  3  0  0  0  0  0  0
   37.0570   21.2170   29.7460 H   0  0  0  0  0  0  0  0  0  0  0  0
   38.5230   24.4970   33.7110 O   0  0  0  0  0  0  0  0  0  0  0  0
   38.1990   24.9220   34.9760 C   0  0  0  0  0  0  0  0  0  0  0  0
   38.6970   25.8970   35.1750 H   0  0  0  0  0  0  0  0  0  0  0  0
   37.1010   25.1440   35.1200 H   0  0  0  0  0  0  0  0  0  0  0  0
   38.6450   23.8650   35.6840 C   0  0  0  0  0  0  0  0  0  0  0  0
   39.6220   24.0490   36.2310 H   0  0  0  0  0  0  0  0  0  0  0  0
   38.9590   23.0310   35.0050 H   0  0  0  0  0  0  0  0  0  0  0  0
   37.7230   23.2700   36.6970 C   0  0  0  0  0  0  0  0  0  0  0  0
   36.6370   23.4980   36.5130 H   0  0  0  0  0  0  0  0  0  0  0  0
   37.7720   22.1610   36.6640 H   0  0  0  0  0  0  0  0  0  0  0  0
   38.0970   23.8300   38.3740 S   0  0  0  0  0  0  0  0  0  0  0  0
   38.3680   25.2080   38.4050 H   0  0  0  0  0  0  0  0  0  0  0  0
  1 19  1  0  0  0  0
  2  7  1  0  0  0  0
  2  1  2  0  0  0  0
  3  2  1  0  0  0  0
  4  3  2  0  0  0  0
  4  5  1  0  0  0  0
  5  6  2  0  0  0  0
  6  1  1  0  0  0  0
  8  3  1  0  0  0  0
  9  5  1  0  0  0  0
  9 10  1  0  0  0  0
 10 11  1  0  0  0  0
 12 10  1  0  0  0  0
 13 12  1  0  0  0  0
 14 12  1  0  0  0  0
 15 17  1  0  0  0  0
 15 14  1  0  0  0  0
 16 15  1  0  0  0  0
 17  9  1  0  0  0  0
 18 17  1  0  0  0  0
 19 20  1  0  0  0  0
 20 22  1  0  0  0  0
 20 21  1  0  0  0  0
 20 23  1  0  0  0  0
 23 24  1  0  0  0  0
 23 26  1  0  0  0  0
 25 23  1  0  0  0  0
 26 29  1  0  0  0  0
 27 26  1  0  0  0  0
 28 26  1  0  0  0  0
 29 30  1  0  0  0  0
M  END
>  <minimizedAffinity>
-4.20288181

$$$$

 OpenBabel03262521203D

 30 31  0  0  0  0  0  0  0  0999 V2000
   37.3920   23.6870   32.7800 C   0  0  0  0  0  0  0  0  0  0  0  0
   36.9340   24.9050   32.3080 C   0  0  0  0  0  0  0  0  0  0  0  0
   37.0980   26.0550   33.0990 C   0  0  0  0  0  0  0  0  0  0  0  0
   37.7190   25.8790   34.3180 N   0  0  0  0  0  0  0  0  0  0  0  0
   38.1500   24.6690   34.7380 C   0  0  0  0  0  0  0  0  0  0  0  0
   37.9930   23.5990   33.9930 N   0  0  0  0  0  0  0  0  0  0  0  0
   36.4440   25.0520   31.3470 H   0  0  0  0  0  0  0  0  0  0  0  0
   36.7500   27.0000   32.7460 H   0  0  0  0  0  0  0  0  0  0  0  0
   38.8140   24.5340   36.0640 C   0  0  0  0  0  3  0  0  0  0  0  0
   39.3890   23.1480   36.1910 C   0  0  0  0  0  3  0  0  0  0  0  0
   40.2990   22.9980   35.5790 H   0  0  0  0  0  0  0  0  0  0  0  0
   39.7680   22.8930   37.6300 C   0  0  0  0  0  3  0  0  0  0  0  0
   40.5150   23.6690   37.9170 H   0  0  0  0  0  0  0  0  0  0  0  0
   38.6120   22.9620   38.4250 O   0  0  0  0  0  0  0  0  0  0  0  0
   38.2270   24.2950   38.4810 C   0  0  0  0  0  3  0  0  0  0  0  0
   37.3800   24.4240   39.1830 H   0  0  0  0  0  0  0  0  0  0  0  0
   37.7260   24.6890   37.1040 C   0  0  0  0  0  3  0  0  0  0  0  0
   37.4700   25.7610   37.1460 H   0  0  0  0  0  0  0  0  0  0  0  0
   37.1620   22.6480   31.8960 O   0  0  0  0  0  0  0  0  0  0  0  0
   35.8570   22.3330   31.6080 C   0  0  0  0  0  0  0  0  0  0  0  0
   35.2160   23.2270   31.7800 H   0  0  0  0  0  0  0  0  0  0  0  0
   35.6740   22.0740   30.5230 H   0  0  0  0  0  0  0  0  0  0  0  0
   35.6870   21.3010   32.4580 C   0  0  0  0  0  0  0  0  0  0  0  0
   35.4260   21.6090   33.5190 H   0  0  0  0  0  0  0  0  0  0  0  0
   36.6560   20.7720   32.6440 H   0  0  0  0  0  0  0  0  0  0  0  0
   34.6900   20.2540   32.0870 C   0  0  0  0  0  0  0  0  0  0  0  0
   33.7100   20.3450   32.6300 H   0  0  0  0  0  0  0  0  0  0  0  0
   34.4100   20.3450   31.0160 H   0  0  0  0  0  0  0  0  0  0  0  0
   35.3050   18.5830   32.3990 S   0  0  0  0  0  0  0  0  0  0  0  0
   35.9690   18.5050   33.6340 H   0  0  0  0  0  0  0  0  0  0  0  0
  1  6  1  0  0  0  0
  2  1  2  0  0  0  0
  2  3  1  0  0  0  0
  3  4  2  0  0  0  0
  4  5  1  0  0  0  0
  5  9  1  0  0  0  0
  6  5  2  0  0  0  0
  7  2  1  0  0  0  0
  8  3  1  0  0  0  0
  9 10  1  0  0  0  0
  9 17  1  0  0  0  0
 10 12  1  0  0  0  0
 11 10  1  0  0  0  0
 12 13  1  0  0  0  0
 12 14  1  0  0  0  0
 14 15  1  0  0  0  0
 15 16  1  0  0  0  0
 17 18  1  0  0  0  0
 17 15  1  0  0  0  0
 19  1  1  0  0  0  0
 20 21  1  0  0  0  0
 20 19  1  0  0  0  0
 20 23  1  0  0  0  0
 22 20  1  0  0  0  0
 23 25  1  0  0  0  0
 23 24  1  0  0  0  0
 26 29  1  0  0  0  0
 26 23  1  0  0  0  0
 26 27  1  0  0  0  0
 28 26  1  0  0  0  0
 29 30  1  0  0  0  0
M  END
>  <minimizedAffinity>
-4.16496611

$$$$

 OpenBabel03262521203D

 30 31  0  0  0  0  0  0  0  0999 V2000
   37.2910   27.1330   34.3150 C   0  0  0  0  0  0  0  0  0  0  0  0
   38.1580   27.2140   33.2400 C   0  0  0  0  0  0  0  0  0  0  0  0
   39.1040   26.1930   33.0410 C   0  0  0  0  0  0  0  0  0  0  0  0
   39.0970   25.1620   33.9560 N   0  0  0  0  0  0  0  0  0  0  0  0
   38.2300   25.1250   34.9930 C   0  0  0  0  0  0  0  0  0  0  0  0
   37.3490   26.0820   35.1720 N   0  0  0  0  0  0  0  0  0  0  0  0
   38.1700   28.0230   32.5130 H   0  0  0  0  0  0  0  0  0  0  0  0
   39.7780   26.2430   32.2150 H   0  0  0  0  0  0  0  0  0  0  0  0
   38.2650   23.9880   35.9530 C   0  0  0  0  0  3  0  0  0  0  0  0
   37.9480   24.4970   37.3340 C   0  0  0  0  0  3  0  0  0  0  0  0
   36.8780   24.7430   37.4710 H   0  0  0  0  0  0  0  0  0  0  0  0
   38.2980   23.4360   38.3510 C   0  0  0  0  0  3  0  0  0  0  0  0
   37.6950   22.5320   38.1050 H   0  0  0  0  0  0  0  0  0  0  0  0
   39.6770   23.1800   38.2850 O   0  0  0  0  0  0  0  0  0  0  0  0
   39.9150   22.5010   37.0970 C   0  0  0  0  0  3  0  0  0  0  0  0
   40.9740   22.1790   37.0420 H   0  0  0  0  0  0  0  0  0  0  0  0
   39.6890   23.4750   35.9560 C   0  0  0  0  0  3  0  0  0  0  0  0
   39.8320   22.9140   35.0180 H   0  0  0  0  0  0  0  0  0  0  0  0
   36.4190   28.2050   34.3830 O   0  0  0  0  0  0  0  0  0  0  0  0
   35.8460   28.6370   33.2120 C   0  0  0  0  0  0  0  0  0  0  0  0
   36.5400   28.4300   32.3660 H   0  0  0  0  0  0  0  0  0  0  0  0
   34.9030   28.0840   32.9300 H   0  0  0  0  0  0  0  0  0  0  0  0
   35.6540   29.9330   33.5270 C   0  0  0  0  0  0  0  0  0  0  0  0
   35.0730   30.5210   32.7490 H   0  0  0  0  0  0  0  0  0  0  0  0
   36.6210   30.4980   33.5110 H   0  0  0  0  0  0  0  0  0  0  0  0
   34.9980   30.2400   34.8330 C   0  0  0  0  0  0  0  0  0  0  0  0
   33.9380   30.6020   34.7370 H   0  0  0  0  0  0  0  0  0  0  0  0
   34.9110   29.3200   35.4500 H   0  0  0  0  0  0  0  0  0  0  0  0
   35.8960   31.4980   35.7700 S   0  0  0  0  0  0  0  0  0  0  0  0
   36.3180   32.5500   34.9400 H   0  0  0  0  0  0  0  0  0  0  0  0
  1 19  1  0  0  0  0
  1  6  1  0  0  0  0
  2  1  2  0  0  0  0
  3  2  1  0  0  0  0
  3  4  2  0  0  0  0
  4  5  1  0  0  0  0
  5  6  2  0  0  0  0
  5  9  1  0  0  0  0
  7  2  1  0  0  0  0
  8  3  1  0  0  0  0
  9 17  1  0  0  0  0
  9 10  1  0  0  0  0
 10 11  1  0  0  0  0
 10 12  1  0  0  0  0
 13 12  1  0  0  0  0
 14 12  1  0  0  0  0
 15 14  1  0  0  0  0
 16 15  1  0  0  0  0
 17 15  1  0  0  0  0
 18 17  1  0  0  0  0
 20 23  1  0  0  0  0
 20 19  1  0  0  0  0
 21 20  1  0  0  0  0
 22 20  1  0  0  0  0
 23 26  1  0  0  0  0
 24 23  1  0  0  0  0
 25 23  1  0  0  0  0
 26 28  1  0  0  0  0
 26 29  1  0  0  0  0
 27 26  1  0  0  0  0
 30 29  1  0  0  0  0
M  END
>  <minimizedAffinity>
-4.14865732

$$$$

 OpenBabel03262521203D

 30 31  0  0  0  0  0  0  0  0999 V2000
   36.6620   21.6490   33.0250 C   0  0  0  0  0  0  0  0  0  0  0  0
   35.7560   20.7460   33.5530 C   0  0  0  0  0  0  0  0  0  0  0  0
   35.6950   20.5670   34.9460 C   0  0  0  0  0  0  0  0  0  0  0  0
   36.5650   21.3260   35.7020 N   0  0  0  0  0  0  0  0  0  0  0  0
   37.4330   22.1970   35.1410 C   0  0  0  0  0  0  0  0  0  0  0  0
   37.4840   22.3580   33.8390 N   0  0  0  0  0  0  0  0  0  0  0  0
   35.0670   20.1440   32.9640 H   0  0  0  0  0  0  0  0  0  0  0  0
   35.0010   19.8740   35.3660 H   0  0  0  0  0  0  0  0  0  0  0  0
   38.3510   22.9920   36.0030 C   0  0  0  0  0  3  0  0  0  0  0  0
   39.5320   22.1400   36.3860 C   0  0  0  0  0  3  0  0  0  0  0  0
   40.2440   21.9860   35.5530 H   0  0  0  0  0  0  0  0  0  0  0  0
   40.2900   22.8110   37.5070 C   0  0  0  0  0  3  0  0  0  0  0  0
   40.6150   23.8090   37.1340 H   0  0  0  0  0  0  0  0  0  0  0  0
   39.4480   22.9190   38.6250 O   0  0  0  0  0  0  0  0  0  0  0  0
   38.4930   23.8840   38.3330 C   0  0  0  0  0  3  0  0  0  0  0  0
   37.8640   24.0880   39.2220 H   0  0  0  0  0  0  0  0  0  0  0  0
   37.5780   23.3190   37.2630 C   0  0  0  0  0  3  0  0  0  0  0  0
   36.8560   24.1100   37.0020 H   0  0  0  0  0  0  0  0  0  0  0  0
   36.6080   21.7170   31.6440 O   0  0  0  0  0  0  0  0  0  0  0  0
   36.8720   22.9290   31.0540 C   0  0  0  0  0  0  0  0  0  0  0  0
   37.6300   23.4740   31.6590 H   0  0  0  0  0  0  0  0  0  0  0  0
   37.3470   22.8490   30.0320 H   0  0  0  0  0  0  0  0  0  0  0  0
   35.6270   23.4440   31.0460 C   0  0  0  0  0  0  0  0  0  0  0  0
   34.9050   22.9330   31.7580 H   0  0  0  0  0  0  0  0  0  0  0  0
   35.1140   23.2380   30.0720 H   0  0  0  0  0  0  0  0  0  0  0  0
   35.4800   24.9070   31.3080 C   0  0  0  0  0  0  0  0  0  0  0  0
   35.2940   25.5180   30.3830 H   0  0  0  0  0  0  0  0  0  0  0  0
   34.5890   25.1020   31.9400 H   0  0  0  0  0  0  0  0  0  0  0  0
   36.9410   25.6080   32.1090 S   0  0  0  0  0  0  0  0  0  0  0  0
   38.1250   25.1190   31.5330 H   0  0  0  0  0  0  0  0  0  0  0  0
  1  2  2  0  0  0  0
  1  6  1  0  0  0  0
  2  3  1  0  0  0  0
  3  8  1  0  0  0  0
  3  4  2  0  0  0  0
  5  4  1  0  0  0  0
  5  9  1  0  0  0  0
  6  5  2  0  0  0  0
  7  2  1  0  0  0  0
  9 10  1  0  0  0  0
  9 17  1  0  0  0  0
 10 12  1  0  0  0  0
 11 10  1  0  0  0  0
 12 14  1  0  0  0  0
 13 12  1  0  0  0  0
 15 14  1  0  0  0  0
 15 16  1  0  0  0  0
 17 15  1  0  0  0  0
 18 17  1  0  0  0  0
 19  1  1  0  0  0  0
 20 19  1  0  0  0  0
 20 21  1  0  0  0  0
 22 20  1  0  0  0  0
 23 20  1  0  0  0  0
 23 26  1  0  0  0  0
 23 24  1  0  0  0  0
 25 23  1  0  0  0  0
 26 28  1  0  0  0  0
 26 29  1  0  0  0  0
 27 26  1  0  0  0  0
 30 29  1  0  0  0  0
M  END
>  <minimizedAffinity>
-4.12088871

$$$$

 OpenBabel03262521203D

 30 31  0  0  0  0  0  0  0  0999 V2000
   38.2910   24.8210   36.5500 C   0  0  0  0  0  0  0  0  0  0  0  0
   37.7980   24.5790   37.8200 C   0  0  0  0  0  0  0  0  0  0  0  0
   38.3490   23.5370   38.5840 C   0  0  0  0  0  0  0  0  0  0  0  0
   39.3660   22.8140   37.9950 N   0  0  0  0  0  0  0  0  0  0  0  0
   39.8150   23.0860   36.7500 C   0  0  0  0  0  0  0  0  0  0  0  0
   39.2950   24.0630   36.0420 N   0  0  0  0  0  0  0  0  0  0  0  0
   36.9970   25.1450   38.2920 H   0  0  0  0  0  0  0  0  0  0  0  0
   37.9790   23.3400   39.5660 H   0  0  0  0  0  0  0  0  0  0  0  0
   40.9150   22.2750   36.1610 C   0  0  0  0  0  3  0  0  0  0  0  0
   41.5590   21.4520   37.2450 C   0  0  0  0  0  3  0  0  0  0  0  0
   40.9340   20.5980   37.5700 H   0  0  0  0  0  0  0  0  0  0  0  0
   42.8630   20.8860   36.7350 C   0  0  0  0  0  3  0  0  0  0  0  0
   42.6260   20.2630   35.8420 H   0  0  0  0  0  0  0  0  0  0  0  0
   43.7280   21.9460   36.4190 O   0  0  0  0  0  0  0  0  0  0  0  0
   43.2340   22.5550   35.2730 C   0  0  0  0  0  3  0  0  0  0  0  0
   43.9370   23.3340   34.9160 H   0  0  0  0  0  0  0  0  0  0  0  0
   41.9420   23.2590   35.6440 C   0  0  0  0  0  3  0  0  0  0  0  0
   41.5340   23.6970   34.7180 H   0  0  0  0  0  0  0  0  0  0  0  0
   37.6530   25.8750   35.9190 O   0  0  0  0  0  0  0  0  0  0  0  0
   38.3520   27.0470   35.7700 C   0  0  0  0  0  0  0  0  0  0  0  0
   37.8310   27.8580   36.3260 H   0  0  0  0  0  0  0  0  0  0  0  0
   39.3860   27.0270   36.2260 H   0  0  0  0  0  0  0  0  0  0  0  0
   38.3440   27.1390   34.4260 C   0  0  0  0  0  0  0  0  0  0  0  0
   38.9950   26.3720   33.9010 H   0  0  0  0  0  0  0  0  0  0  0  0
   38.8440   28.0810   34.0850 H   0  0  0  0  0  0  0  0  0  0  0  0
   37.0210   27.0820   33.7350 C   0  0  0  0  0  0  0  0  0  0  0  0
   36.1710   26.7760   34.4050 H   0  0  0  0  0  0  0  0  0  0  0  0
   36.7260   28.0900   33.3740 H   0  0  0  0  0  0  0  0  0  0  0  0
   37.0270   25.9300   32.3420 S   0  0  0  0  0  0  0  0  0  0  0  0
   37.6950   24.7380   32.6650 H   0  0  0  0  0  0  0  0  0  0  0  0
  1  2  1  0  0  0  0
  2  7  1  0  0  0  0
  2  3  2  0  0  0  0
  3  8  1  0  0  0  0
  4  3  1  0  0  0  0
  5  4  2  0  0  0  0
  6  1  2  0  0  0  0
  6  5  1  0  0  0  0
  9  5  1  0  0  0  0
  9 10  1  0  0  0  0
 10 11  1  0  0  0  0
 12 10  1  0  0  0  0
 13 12  1  0  0  0  0
 14 12  1  0  0  0  0
 15 17  1  0  0  0  0
 15 14  1  0  0  0  0
 16 15  1  0  0  0  0
 17  9  1  0  0  0  0
 18 17  1  0  0  0  0
 19  1  1  0  0  0  0
 20 19  1  0  0  0  0
 20 22  1  0  0  0  0
 20 21  1  0  0  0  0
 23 20  1  0  0  0  0
 24 23  1  0  0  0  0
 25 23  1  0  0  0  0
 26 27  1  0  0  0  0
 26 23  1  0  0  0  0
 28 26  1  0  0  0  0
 29 30  1  0  0  0  0
 29 26  1  0  0  0  0
M  END
>  <minimizedAffinity>
-4.10243368

$$$$

 OpenBabel03262521203D

 30 31  0  0  0  0  0  0  0  0999 V2000
   38.2850   26.0880   35.6790 C   0  0  0  0  0  0  0  0  0  0  0  0
   39.5890   26.0860   35.2150 C   0  0  0  0  0  0  0  0  0  0  0  0
   39.8800   26.6880   33.9790 C   0  0  0  0  0  0  0  0  0  0  0  0
   38.8170   27.2510   33.3040 N   0  0  0  0  0  0  0  0  0  0  0  0
   37.5590   27.2300   33.7970 C   0  0  0  0  0  0  0  0  0  0  0  0
   37.2950   26.6650   34.9530 N   0  0  0  0  0  0  0  0  0  0  0  0
   40.4330   25.6450   35.7420 H   0  0  0  0  0  0  0  0  0  0  0  0
   40.8810   26.6940   33.6100 H   0  0  0  0  0  0  0  0  0  0  0  0
   36.4460   27.8520   33.0270 C   0  0  0  0  0  3  0  0  0  0  0  0
   37.0040   28.5000   31.7880 C   0  0  0  0  0  3  0  0  0  0  0  0
   37.3000   27.7690   31.0120 H   0  0  0  0  0  0  0  0  0  0  0  0
   35.9560   29.4020   31.1800 C   0  0  0  0  0  3  0  0  0  0  0  0
   35.0720   28.7660   30.9420 H   0  0  0  0  0  0  0  0  0  0  0  0
   35.6380   30.4150   32.0990 O   0  0  0  0  0  0  0  0  0  0  0  0
   34.9200   29.8270   33.1320 C   0  0  0  0  0  3  0  0  0  0  0  0
   34.5500   30.6000   33.8350 H   0  0  0  0  0  0  0  0  0  0  0  0
   35.8720   28.9390   33.9100 C   0  0  0  0  0  3  0  0  0  0  0  0
   35.2820   28.4400   34.6960 H   0  0  0  0  0  0  0  0  0  0  0  0
   38.1510   25.4610   36.9050 O   0  0  0  0  0  0  0  0  0  0  0  0
   37.6610   24.1780   36.9150 C   0  0  0  0  0  0  0  0  0  0  0  0
   36.5490   24.2100   36.9510 H   0  0  0  0  0  0  0  0  0  0  0  0
   37.8840   23.5930   35.9750 H   0  0  0  0  0  0  0  0  0  0  0  0
   38.2840   23.7140   38.0160 C   0  0  0  0  0  0  0  0  0  0  0  0
   37.6410   23.0430   38.6680 H   0  0  0  0  0  0  0  0  0  0  0  0
   38.4920   24.5430   38.7400 H   0  0  0  0  0  0  0  0  0  0  0  0
   39.5690   22.9770   37.8270 C   0  0  0  0  0  0  0  0  0  0  0  0
   40.4840   23.6030   38.0130 H   0  0  0  0  0  0  0  0  0  0  0  0
   39.6570   22.1510   38.5640 H   0  0  0  0  0  0  0  0  0  0  0  0
   39.7300   22.3010   36.1580 S   0  0  0  0  0  0  0  0  0  0  0  0
   39.3090   23.2260   35.1880 H   0  0  0  0  0  0  0  0  0  0  0  0
  1 19  1  0  0  0  0
  2  1  1  0  0  0  0
  2  7  1  0  0  0  0
  3  2  2  0  0  0  0
  4  5  2  0  0  0  0
  4  3  1  0  0  0  0
  5  6  1  0  0  0  0
  6  1  2  0  0  0  0
  8  3  1  0  0  0  0
  9  5  1  0  0  0  0
  9 17  1  0  0  0  0
 10  9  1  0  0  0  0
 11 10  1  0  0  0  0
 12 10  1  0  0  0  0
 12 14  1  0  0  0  0
 13 12  1  0  0  0  0
 14 15  1  0  0  0  0
 15 16  1  0  0  0  0
 15 17  1  0  0  0  0
 17 18  1  0  0  0  0
 19 20  1  0  0  0  0
 20 21  1  0  0  0  0
 20 23  1  0  0  0  0
 22 20  1  0  0  0  0
 23 24  1  0  0  0  0
 23 25  1  0  0  0  0
 26 27  1  0  0  0  0
 26 23  1  0  0  0  0
 26 28  1  0  0  0  0
 29 26  1  0  0  0  0
 30 29  1  0  0  0  0
M  END
>  <minimizedAffinity>
-4.08513975

$$$$
