
 OpenBabel03272509093D

 41 44  0  0  0  0  0  0  0  0999 V2000
   33.2790   28.0250   47.4760 C   0  0  0  0  0  0  0  0  0  0  0  0
   32.6460   28.6970   46.8910 H   0  0  0  0  0  0  0  0  0  0  0  0
   32.6030   27.6600   48.3070 H   0  0  0  0  0  0  0  0  0  0  0  0
   33.6910   26.7850   46.7740 C   0  0  0  0  0  0  0  0  0  0  0  0
   33.9230   25.5670   47.4090 C   0  0  0  0  0  0  0  0  0  0  0  0
   34.3010   24.4490   46.7050 C   0  0  0  0  0  0  0  0  0  0  0  0
   34.4590   24.5130   45.3230 C   0  0  0  0  0  0  0  0  0  0  0  0
   34.2330   25.7030   44.6980 C   0  0  0  0  0  0  0  0  0  0  0  0
   33.8530   26.8320   45.4010 C   0  0  0  0  0  0  0  0  0  0  0  0
   33.7670   25.6430   48.4870 H   0  0  0  0  0  0  0  0  0  0  0  0
   34.4290   23.6170   47.3840 H   0  0  0  0  0  0  0  0  0  0  0  0
   34.7580   23.5720   44.8840 H   0  0  0  0  0  0  0  0  0  0  0  0
   34.3870   25.6380   43.6310 H   0  0  0  0  0  0  0  0  0  0  0  0
   33.6660   28.0280   44.5470 C   0  0  0  0  0  3  0  0  0  0  0  0
   32.6180   28.9110   45.2130 C   0  0  0  0  0  3  0  0  0  0  0  0
   32.8830   28.8980   46.3110 H   0  0  0  0  0  0  0  0  0  0  0  0
   32.6210   30.3170   44.6970 C   0  0  0  0  0  3  0  0  0  0  0  0
   31.7690   30.4860   44.0050 H   0  0  0  0  0  0  0  0  0  0  0  0
   33.8240   30.7460   44.1860 O   0  0  0  0  0  0  0  0  0  0  0  0
   34.8490   30.1760   44.9750 C   0  0  0  0  0  3  0  0  0  0  0  0
   34.5480   30.1890   46.0410 H   0  0  0  0  0  0  0  0  0  0  0  0
   34.9870   28.7480   44.4300 C   0  0  0  0  0  3  0  0  0  0  0  0
   35.8420   28.2300   44.8570 H   0  0  0  0  0  0  0  0  0  0  0  0
   34.8380   28.4840   49.3760 C   0  0  0  0  0  3  0  0  0  0  0  0
   34.3810   28.7120   48.1690 C   0  0  0  0  0  3  0  0  0  0  0  0
   37.3220   30.0830   51.5160 C   0  0  0  0  0  0  0  0  0  0  0  0
   38.0540   30.8500   50.5790 C   0  0  0  0  0  0  0  0  0  0  0  0
   37.6620   30.7900   49.2330 C   0  0  0  0  0  0  0  0  0  0  0  0
   36.5980   29.9980   48.8920 N   0  0  0  0  0  0  0  0  0  0  0  0
   35.9440   29.2880   49.8530 C   0  0  0  0  0  0  0  0  0  0  0  0
   36.2990   29.3310   51.1350 N   0  0  0  0  0  0  0  0  0  0  0  0
   37.6420   30.1410   52.5630 H   0  0  0  0  0  0  0  0  0  0  0  0
   38.8890   31.4750   50.8330 H   0  0  0  0  0  0  0  0  0  0  0  0
   38.3470   31.5460   48.1770 C   0  0  0  0  0  0  0  0  0  0  0  0
   38.5870   31.0240   46.9290 C   0  0  0  0  0  0  0  0  0  0  0  0
   39.2470   32.0030   46.1870 C   0  0  0  0  0  0  0  0  0  0  0  0
   39.3800   33.0750   47.0100 N   0  0  0  0  0  0  0  0  0  0  0  0
   38.8420   32.7860   48.1820 N   0  0  0  0  0  0  0  0  0  0  0  0
   38.3140   30.0320   46.5840 H   0  0  0  0  0  0  0  0  0  0  0  0
   39.5800   31.9100   45.1590 H   0  0  0  0  0  0  0  0  0  0  0  0
   39.8360   33.9800   46.7510 H   0  0  0  0  0  0  0  0  0  0  0  0
  1 25  1  0  0  0  0
  1  3  1  0  0  0  0
  2  1  1  0  0  0  0
  4  5  1  0  0  0  0
  4  1  1  0  0  0  0
  5 10  1  0  0  0  0
  6 11  1  0  0  0  0
  6  5  2  0  0  0  0
  7  6  1  0  0  0  0
  8  7  2  0  0  0  0
  8  9  1  0  0  0  0
  9  4  2  0  0  0  0
 12  7  1  0  0  0  0
 13  8  1  0  0  0  0
 14 15  1  0  0  0  0
 14  9  1  0  0  0  0
 15 16  1  0  0  0  0
 17 15  1  0  0  0  0
 18 17  1  0  0  0  0
 19 17  1  0  0  0  0
 19 20  1  0  0  0  0
 20 21  1  0  0  0  0
 22 14  1  0  0  0  0
 22 23  1  0  0  0  0
 22 20  1  0  0  0  0
 24 30  1  0  0  0  0
 25 24  2  0  0  0  0
 26 32  1  0  0  0  0
 27 33  1  0  0  0  0
 27 26  2  0  0  0  0
 28 27  1  0  0  0  0
 29 28  2  0  0  0  0
 29 30  1  0  0  0  0
 30 31  2  0  0  0  0
 31 26  1  0  0  0  0
 34 38  2  0  0  0  0
 34 28  1  0  0  0  0
 35 34  1  0  0  0  0
 36 35  2  0  0  0  0
 36 37  1  0  0  0  0
 37 38  1  0  0  0  0
 39 35  1  0  0  0  0
 40 36  1  0  0  0  0
 41 37  1  0  0  0  0
M  END
>  <minimizedAffinity>
-6.26669025

>  <minimizedRMSD>
0.453928113

$$$$
