
 OpenBabel03272510133D

 39 42  0  0  0  0  0  0  0  0999 V2000
   38.4250   31.3900   48.7530 C   0  0  0  0  0  0  0  0  0  0  0  0
   38.4730   32.6070   49.3950 C   0  0  0  0  0  0  0  0  0  0  0  0
   39.0610   33.5110   48.5050 C   0  0  0  0  0  0  0  0  0  0  0  0
   39.3410   32.8300   47.3890 N   0  0  0  0  0  0  0  0  0  0  0  0
   38.9660   31.6010   47.5480 N   0  0  0  0  0  0  0  0  0  0  0  0
   38.1770   32.9900   50.3620 H   0  0  0  0  0  0  0  0  0  0  0  0
   39.2770   34.5760   48.6340 H   0  0  0  0  0  0  0  0  0  0  0  0
   39.9590   33.3640   46.2100 C   0  0  0  0  0  0  0  0  0  0  0  0
   40.6230   34.1910   46.5260 H   0  0  0  0  0  0  0  0  0  0  0  0
   39.2060   33.8660   45.5360 H   0  0  0  0  0  0  0  0  0  0  0  0
   40.7000   32.2890   45.5040 C   0  0  0  0  0  0  0  0  0  0  0  0
   41.7840   32.5570   45.5560 H   0  0  0  0  0  0  0  0  0  0  0  0
   40.6370   31.3750   46.1690 H   0  0  0  0  0  0  0  0  0  0  0  0
   40.3440   31.9720   44.1420 C   0  0  0  0  0  0  0  0  0  0  0  0
   40.6770   30.7810   43.5610 N   0  0  0  0  0  0  0  0  0  0  0  0
   40.2300   30.7260   42.2990 C   0  0  0  0  0  0  0  0  0  0  0  0
   40.3310   29.9250   41.5780 H   0  0  0  0  0  0  0  0  0  0  0  0
   39.6040   31.8890   42.0610 N   0  0  0  0  0  0  0  0  0  0  0  0
   39.1220   32.2480   41.2150 H   0  0  0  0  0  0  0  0  0  0  0  0
   39.6810   32.6110   43.1610 N   0  0  0  0  0  0  0  0  0  0  0  0
   37.8680   30.3670   49.4930 O   0  0  0  0  0  0  0  0  0  0  0  0
   34.1230   28.8460   48.3300 C   0  0  0  0  0  0  0  0  0  0  0  0
   34.7490   28.3970   49.4510 C   0  0  0  0  0  0  0  0  0  0  0  0
   35.9670   28.8470   49.8880 C   0  0  0  0  0  0  0  0  0  0  0  0
   36.6380   29.8020   49.1970 C   0  0  0  0  0  0  0  0  0  0  0  0
   36.0090   30.2740   48.0440 C   0  0  0  0  0  0  0  0  0  0  0  0
   34.8070   29.8090   47.6410 N   0  0  0  0  0  0  0  0  0  0  0  0
   34.2860   27.6380   50.0600 H   0  0  0  0  0  0  0  0  0  0  0  0
   36.4590   28.4790   50.7870 H   0  0  0  0  0  0  0  0  0  0  0  0
   36.4670   31.0410   47.4200 H   0  0  0  0  0  0  0  0  0  0  0  0
   32.0090   27.5590   48.6080 C   0  0  0  0  0  0  0  0  0  0  0  0
   32.8530   28.3850   47.8600 C   0  0  0  0  0  0  0  0  0  0  0  0
   32.4110   28.7560   46.6090 C   0  0  0  0  0  0  0  0  0  0  0  0
   31.1980   28.3160   46.1550 N   0  0  0  0  0  0  0  0  0  0  0  0
   30.4210   27.5160   46.9230 C   0  0  0  0  0  0  0  0  0  0  0  0
   30.8100   27.1220   48.1640 N   0  0  0  0  0  0  0  0  0  0  0  0
   32.3110   27.2420   49.5940 H   0  0  0  0  0  0  0  0  0  0  0  0
   33.0380   29.4000   45.9940 H   0  0  0  0  0  0  0  0  0  0  0  0
   29.4800   27.2290   46.4600 H   0  0  0  0  0  0  0  0  0  0  0  0
  1  2  1  0  0  0  0
  1 21  1  0  0  0  0
  2  6  1  0  0  0  0
  3  7  1  0  0  0  0
  3  2  2  0  0  0  0
  4  5  1  0  0  0  0
  4  3  1  0  0  0  0
  5  1  2  0  0  0  0
  8  9  1  0  0  0  0
  8  4  1  0  0  0  0
 10  8  1  0  0  0  0
 11 12  1  0  0  0  0
 11 13  1  0  0  0  0
 11  8  1  0  0  0  0
 14 11  1  0  0  0  0
 15 14  1  0  0  0  0
 16 15  2  0  0  0  0
 17 16  1  0  0  0  0
 18 16  1  0  0  0  0
 18 20  1  0  0  0  0
 19 18  1  0  0  0  0
 20 14  2  0  0  0  0
 22 23  1  0  0  0  0
 23 24  2  0  0  0  0
 23 28  1  0  0  0  0
 24 29  1  0  0  0  0
 25 21  1  0  0  0  0
 25 24  1  0  0  0  0
 26 25  2  0  0  0  0
 27 26  1  0  0  0  0
 27 22  2  0  0  0  0
 30 26  1  0  0  0  0
 31 37  1  0  0  0  0
 32 22  1  0  0  0  0
 32 31  2  0  0  0  0
 33 32  1  0  0  0  0
 34 33  2  0  0  0  0
 34 35  1  0  0  0  0
 35 36  2  0  0  0  0
 36 31  1  0  0  0  0
 38 33  1  0  0  0  0
 39 35  1  0  0  0  0
M  END
>  <minimizedAffinity>
-6.18627548

>  <minimizedRMSD>
1.1956439

$$$$
