
 OpenBabel03272510243D

 30 33  0  0  0  0  0  0  0  0999 V2000
   36.2240   30.2030   46.8460 C   0  0  0  0  0  0  0  0  0  0  0  0
   37.0920   30.7640   47.7880 C   0  0  0  0  0  0  0  0  0  0  0  0
   38.0740   31.6480   47.4000 C   0  0  0  0  0  0  0  0  0  0  0  0
   38.1470   31.9430   46.0300 C   0  0  0  0  0  0  0  0  0  0  0  0
   39.0370   32.7870   45.4290 N   0  0  0  0  0  0  0  0  0  0  0  0
   38.7440   32.7660   44.1320 C   0  0  0  0  0  0  0  0  0  0  0  0
   37.7090   31.9460   43.8860 N   0  0  0  0  0  0  0  0  0  0  0  0
   37.3150   31.4150   45.0760 C   0  0  0  0  0  0  0  0  0  0  0  0
   36.3320   30.5240   45.4950 C   0  0  0  0  0  0  0  0  0  0  0  0
   35.4250   29.4950   47.0910 H   0  0  0  0  0  0  0  0  0  0  0  0
   38.7400   32.0790   48.1180 H   0  0  0  0  0  0  0  0  0  0  0  0
   39.8000   33.3390   45.9170 H   0  0  0  0  0  0  0  0  0  0  0  0
   35.6710   30.1020   44.7470 H   0  0  0  0  0  0  0  0  0  0  0  0
   37.5220   30.1820   51.4780 C   0  0  0  0  0  0  0  0  0  0  0  0
   37.8010   30.6060   50.1840 C   0  0  0  0  0  0  0  0  0  0  0  0
   36.8930   30.3620   49.1670 C   0  0  0  0  0  0  0  0  0  0  0  0
   35.7470   29.7040   49.5000 N   0  0  0  0  0  0  0  0  0  0  0  0
   35.4880   29.2950   50.7690 C   0  0  0  0  0  0  0  0  0  0  0  0
   36.3580   29.5300   51.7350 N   0  0  0  0  0  0  0  0  0  0  0  0
   38.3000   30.4240   52.1940 H   0  0  0  0  0  0  0  0  0  0  0  0
   38.7090   31.1290   49.9150 H   0  0  0  0  0  0  0  0  0  0  0  0
   34.5470   28.7690   50.9710 H   0  0  0  0  0  0  0  0  0  0  0  0
   39.4370   33.5070   43.1700 O   0  0  0  0  0  0  0  0  0  0  0  0
   39.0710   33.3020   41.8460 C   0  0  0  0  0  0  0  0  0  0  0  0
   39.4090   32.2460   41.0840 N   0  0  0  0  0  0  0  0  0  0  0  0
   38.8770   32.3800   39.8500 C   0  0  0  0  0  0  0  0  0  0  0  0
   38.8630   31.8220   38.9230 H   0  0  0  0  0  0  0  0  0  0  0  0
   38.1970   33.5630   39.8820 N   0  0  0  0  0  0  0  0  0  0  0  0
   37.6110   34.1430   39.2130 H   0  0  0  0  0  0  0  0  0  0  0  0
   38.3150   34.1050   41.0700 N   0  0  0  0  0  0  0  0  0  0  0  0
  1 10  1  0  0  0  0
  1  2  1  0  0  0  0
  2 16  1  0  0  0  0
  3  2  2  0  0  0  0
  3 11  1  0  0  0  0
  4  3  1  0  0  0  0
  5 12  1  0  0  0  0
  5  4  1  0  0  0  0
  6  5  1  0  0  0  0
  7  6  2  0  0  0  0
  7  8  1  0  0  0  0
  8  9  1  0  0  0  0
  8  4  2  0  0  0  0
  9  1  2  0  0  0  0
 13  9  1  0  0  0  0
 14 19  1  0  0  0  0
 14 20  1  0  0  0  0
 15 14  2  0  0  0  0
 16 17  2  0  0  0  0
 16 15  1  0  0  0  0
 17 18  1  0  0  0  0
 18 22  1  0  0  0  0
 18 19  2  0  0  0  0
 21 15  1  0  0  0  0
 23  6  1  0  0  0  0
 24 23  1  0  0  0  0
 25 24  1  0  0  0  0
 26 28  1  0  0  0  0
 26 25  2  0  0  0  0
 27 26  1  0  0  0  0
 28 30  1  0  0  0  0
 29 28  1  0  0  0  0
 30 24  2  0  0  0  0
M  END
>  <minimizedAffinity>
-5.56970119

>  <minimizedRMSD>
1.25425899

$$$$
