
 OpenBabel03262521223D

 31 32  0  0  0  0  0  0  0  0999 V2000
   38.0970   26.9190   35.6020 C   0  0  0  0  0  0  0  0  0  0  0  0
   39.0820   26.8220   35.0560 H   0  0  0  0  0  0  0  0  0  0  0  0
   38.3580   27.4450   36.5590 H   0  0  0  0  0  0  0  0  0  0  0  0
   37.0950   27.4790   34.9040 C   0  0  0  0  0  0  0  0  0  0  0  0
   36.0990   26.9760   35.1240 H   0  0  0  0  0  0  0  0  0  0  0  0
   36.8080   28.5490   35.1480 H   0  0  0  0  0  0  0  0  0  0  0  0
   37.2090   27.4640   33.4200 C   0  0  0  0  0  0  0  0  0  0  0  0
   38.2520   27.5800   33.0340 H   0  0  0  0  0  0  0  0  0  0  0  0
   36.8690   26.4550   33.0620 H   0  0  0  0  0  0  0  0  0  0  0  0
   36.1840   28.6710   32.5900 S   0  0  0  0  0  0  0  0  0  0  0  0
   36.7290   28.9390   30.9120 C   0  0  0  0  0  0  0  0  0  0  0  0
   37.2420   29.9650   30.2070 N   0  0  0  0  0  0  0  0  0  0  0  0
   37.4610   29.5520   28.9400 C   0  0  0  0  0  0  0  0  0  0  0  0
   37.8410   29.9510   28.0090 H   0  0  0  0  0  0  0  0  0  0  0  0
   37.0700   28.2590   28.8910 N   0  0  0  0  0  0  0  0  0  0  0  0
   37.0330   27.5000   28.1640 H   0  0  0  0  0  0  0  0  0  0  0  0
   36.6190   27.8710   30.0950 N   0  0  0  0  0  0  0  0  0  0  0  0
   37.5350   25.7240   35.9340 O   0  0  0  0  0  0  0  0  0  0  0  0
   38.3570   24.7390   36.4460 C   0  0  0  0  0  0  0  0  0  0  0  0
   37.9720   24.3310   37.6970 C   0  0  0  0  0  0  0  0  0  0  0  0
   38.7110   23.3350   38.3470 C   0  0  0  0  0  0  0  0  0  0  0  0
   39.8040   22.8160   37.6700 N   0  0  0  0  0  0  0  0  0  0  0  0
   40.1550   23.2480   36.4260 C   0  0  0  0  0  0  0  0  0  0  0  0
   39.4190   24.2000   35.8500 N   0  0  0  0  0  0  0  0  0  0  0  0
   41.9170   21.6520   36.5930 C   0  0  0  0  0  0  0  0  0  0  0  0
   41.5570   21.2510   37.7580 O   0  0  0  0  0  0  0  0  0  0  0  0
   41.2860   22.6650   35.8050 N   0  0  0  0  0  0  0  0  0  0  0  0
   37.1400   24.7020   38.2580 H   0  0  0  0  0  0  0  0  0  0  0  0
   38.4540   22.9770   39.3310 H   0  0  0  0  0  0  0  0  0  0  0  0
   42.8000   21.1590   36.1710 H   0  0  0  0  0  0  0  0  0  0  0  0
   41.5990   22.9740   34.8590 H   0  0  0  0  0  0  0  0  0  0  0  0
  1 18  1  0  0  0  0
  1  3  1  0  0  0  0
  2  1  1  0  0  0  0
  4  5  1  0  0  0  0
  4  6  1  0  0  0  0
  4  1  1  0  0  0  0
  7  4  1  0  0  0  0
  8  7  1  0  0  0  0
  9  7  1  0  0  0  0
 10  7  1  0  0  0  0
 11 10  1  0  0  0  0
 12 11  1  0  0  0  0
 13 12  2  0  0  0  0
 14 13  1  0  0  0  0
 15 13  1  0  0  0  0
 15 17  1  0  0  0  0
 16 15  1  0  0  0  0
 17 11  2  0  0  0  0
 18 19  1  0  0  0  0
 19 20  1  0  0  0  0
 20 28  1  0  0  0  0
 20 21  2  0  0  0  0
 21 29  1  0  0  0  0
 22 21  1  0  0  0  0
 23 22  2  0  0  0  0
 24 23  1  0  0  0  0
 24 19  2  0  0  0  0
 25 26  2  0  0  0  0
 27 23  1  0  0  0  0
 27 25  1  0  0  0  0
 30 25  1  0  0  0  0
 31 27  1  0  0  0  0
M  END
>  <minimizedAffinity>
-4.64713764

$$$$

 OpenBabel03262521223D

 31 32  0  0  0  0  0  0  0  0999 V2000
   37.0470   27.0250   34.4820 C   0  0  0  0  0  0  0  0  0  0  0  0
   36.3890   26.2350   34.9520 H   0  0  0  0  0  0  0  0  0  0  0  0
   36.3620   27.8980   34.3160 H   0  0  0  0  0  0  0  0  0  0  0  0
   38.1780   27.3140   35.1480 C   0  0  0  0  0  0  0  0  0  0  0  0
   38.8410   28.0240   34.5580 H   0  0  0  0  0  0  0  0  0  0  0  0
   38.0940   27.9100   36.1090 H   0  0  0  0  0  0  0  0  0  0  0  0
   39.0660   26.1730   35.5060 C   0  0  0  0  0  0  0  0  0  0  0  0
   39.5940   25.7070   34.6380 H   0  0  0  0  0  0  0  0  0  0  0  0
   39.8790   26.5710   36.1710 H   0  0  0  0  0  0  0  0  0  0  0  0
   38.2540   24.8660   36.4180 S   0  0  0  0  0  0  0  0  0  0  0  0
   39.3580   23.4930   36.7020 C   0  0  0  0  0  0  0  0  0  0  0  0
   40.2310   22.7790   35.9670 N   0  0  0  0  0  0  0  0  0  0  0  0
   40.7890   21.8340   36.7550 C   0  0  0  0  0  0  0  0  0  0  0  0
   41.5130   21.0350   36.6790 H   0  0  0  0  0  0  0  0  0  0  0  0
   40.2360   21.9910   37.9800 N   0  0  0  0  0  0  0  0  0  0  0  0
   40.3210   21.5270   38.9200 H   0  0  0  0  0  0  0  0  0  0  0  0
   39.3570   23.0060   37.9590 N   0  0  0  0  0  0  0  0  0  0  0  0
   37.5530   26.6660   33.2710 O   0  0  0  0  0  0  0  0  0  0  0  0
   37.0320   25.5450   32.6550 C   0  0  0  0  0  0  0  0  0  0  0  0
   36.0720   25.8540   31.7260 C   0  0  0  0  0  0  0  0  0  0  0  0
   35.4500   24.8190   31.0180 C   0  0  0  0  0  0  0  0  0  0  0  0
   35.8530   23.5250   31.3060 N   0  0  0  0  0  0  0  0  0  0  0  0
   36.8120   23.2580   32.2380 C   0  0  0  0  0  0  0  0  0  0  0  0
   37.3740   24.2790   32.8860 N   0  0  0  0  0  0  0  0  0  0  0  0
   36.4510   20.9750   31.6550 C   0  0  0  0  0  0  0  0  0  0  0  0
   35.5620   21.2530   30.7720 O   0  0  0  0  0  0  0  0  0  0  0  0
   37.1640   21.9060   32.4720 N   0  0  0  0  0  0  0  0  0  0  0  0
   35.7280   26.8340   31.4710 H   0  0  0  0  0  0  0  0  0  0  0  0
   34.6880   25.0040   30.2770 H   0  0  0  0  0  0  0  0  0  0  0  0
   36.6760   19.9100   31.7860 H   0  0  0  0  0  0  0  0  0  0  0  0
   37.8840   21.6550   33.1850 H   0  0  0  0  0  0  0  0  0  0  0  0
  1  2  1  0  0  0  0
  1  4  1  0  0  0  0
  3  1  1  0  0  0  0
  4  7  1  0  0  0  0
  4  6  1  0  0  0  0
  5  4  1  0  0  0  0
  7  9  1  0  0  0  0
  7 10  1  0  0  0  0
  8  7  1  0  0  0  0
 10 11  1  0  0  0  0
 11 17  2  0  0  0  0
 12 11  1  0  0  0  0
 12 13  2  0  0  0  0
 13 15  1  0  0  0  0
 14 13  1  0  0  0  0
 15 16  1  0  0  0  0
 17 15  1  0  0  0  0
 18  1  1  0  0  0  0
 19 24  1  0  0  0  0
 19 18  1  0  0  0  0
 20 19  2  0  0  0  0
 21 22  2  0  0  0  0
 21 20  1  0  0  0  0
 22 23  1  0  0  0  0
 23 27  1  0  0  0  0
 23 24  2  0  0  0  0
 25 30  1  0  0  0  0
 25 27  1  0  0  0  0
 26 25  2  0  0  0  0
 27 31  1  0  0  0  0
 28 20  1  0  0  0  0
 29 21  1  0  0  0  0
M  END
>  <minimizedAffinity>
-4.62415552

$$$$

 OpenBabel03262521223D

 31 32  0  0  0  0  0  0  0  0999 V2000
   41.7860   25.6770   34.1420 C   0  0  0  0  0  0  0  0  0  0  0  0
   42.4410   25.9720   33.2690 H   0  0  0  0  0  0  0  0  0  0  0  0
   41.0090   25.0030   33.6940 H   0  0  0  0  0  0  0  0  0  0  0  0
   42.4280   25.1700   35.2080 C   0  0  0  0  0  0  0  0  0  0  0  0
   43.5560   25.2000   35.0710 H   0  0  0  0  0  0  0  0  0  0  0  0
   42.3560   25.7300   36.1910 H   0  0  0  0  0  0  0  0  0  0  0  0
   42.1260   23.7580   35.5730 C   0  0  0  0  0  0  0  0  0  0  0  0
   42.8140   23.0040   35.1170 H   0  0  0  0  0  0  0  0  0  0  0  0
   42.2660   23.6560   36.6830 H   0  0  0  0  0  0  0  0  0  0  0  0
   40.4480   23.2490   35.2230 S   0  0  0  0  0  0  0  0  0  0  0  0
   39.4240   23.3460   36.6810 C   0  0  0  0  0  0  0  0  0  0  0  0
   38.2470   23.9110   37.0070 N   0  0  0  0  0  0  0  0  0  0  0  0
   37.9780   23.6340   38.3010 C   0  0  0  0  0  0  0  0  0  0  0  0
   37.2050   23.8320   39.0320 H   0  0  0  0  0  0  0  0  0  0  0  0
   39.0150   22.8930   38.7520 N   0  0  0  0  0  0  0  0  0  0  0  0
   39.2890   22.4350   39.6590 H   0  0  0  0  0  0  0  0  0  0  0  0
   39.9090   22.7100   37.7660 N   0  0  0  0  0  0  0  0  0  0  0  0
   41.1350   26.7250   34.7160 O   0  0  0  0  0  0  0  0  0  0  0  0
   39.8440   26.9940   34.3040 C   0  0  0  0  0  0  0  0  0  0  0  0
   38.9790   27.1530   35.3550 C   0  0  0  0  0  0  0  0  0  0  0  0
   37.6320   27.4300   35.0950 C   0  0  0  0  0  0  0  0  0  0  0  0
   37.2530   27.5270   33.7650 N   0  0  0  0  0  0  0  0  0  0  0  0
   38.1430   27.3620   32.7460 C   0  0  0  0  0  0  0  0  0  0  0  0
   39.4150   27.0990   33.0470 N   0  0  0  0  0  0  0  0  0  0  0  0
   36.2780   27.7800   31.3220 C   0  0  0  0  0  0  0  0  0  0  0  0
   35.4620   27.9470   32.2990 O   0  0  0  0  0  0  0  0  0  0  0  0
   37.6720   27.4770   31.4160 N   0  0  0  0  0  0  0  0  0  0  0  0
   39.2240   27.0860   36.3950 H   0  0  0  0  0  0  0  0  0  0  0  0
   36.9080   27.5630   35.8830 H   0  0  0  0  0  0  0  0  0  0  0  0
   35.8480   27.8840   30.3200 H   0  0  0  0  0  0  0  0  0  0  0  0
   38.3150   27.3460   30.6050 H   0  0  0  0  0  0  0  0  0  0  0  0
  1 18  1  0  0  0  0
  1  4  1  0  0  0  0
  2  1  1  0  0  0  0
  3  1  1  0  0  0  0
  4  7  1  0  0  0  0
  4  6  1  0  0  0  0
  5  4  1  0  0  0  0
  7  9  1  0  0  0  0
  8  7  1  0  0  0  0
 10  7  1  0  0  0  0
 10 11  1  0  0  0  0
 11 12  1  0  0  0  0
 11 17  2  0  0  0  0
 12 13  2  0  0  0  0
 13 15  1  0  0  0  0
 13 14  1  0  0  0  0
 15 16  1  0  0  0  0
 17 15  1  0  0  0  0
 19 18  1  0  0  0  0
 19 20  1  0  0  0  0
 20 28  1  0  0  0  0
 21 20  2  0  0  0  0
 21 29  1  0  0  0  0
 22 21  1  0  0  0  0
 23 24  1  0  0  0  0
 23 22  2  0  0  0  0
 24 19  2  0  0  0  0
 25 27  1  0  0  0  0
 25 26  2  0  0  0  0
 27 23  1  0  0  0  0
 30 25  1  0  0  0  0
 31 27  1  0  0  0  0
M  END
>  <minimizedAffinity>
-4.58744192

$$$$

 OpenBabel03262521223D

 31 32  0  0  0  0  0  0  0  0999 V2000
   38.5510   27.1310   35.5020 C   0  0  0  0  0  0  0  0  0  0  0  0
   38.0460   26.8420   36.4720 H   0  0  0  0  0  0  0  0  0  0  0  0
   38.5780   28.2530   35.5240 H   0  0  0  0  0  0  0  0  0  0  0  0
   39.7340   26.5420   35.2620 C   0  0  0  0  0  0  0  0  0  0  0  0
   40.4680   27.2600   34.7750 H   0  0  0  0  0  0  0  0  0  0  0  0
   40.3630   26.2240   36.1510 H   0  0  0  0  0  0  0  0  0  0  0  0
   39.7290   25.3450   34.3760 C   0  0  0  0  0  0  0  0  0  0  0  0
   38.7610   25.1620   33.8480 H   0  0  0  0  0  0  0  0  0  0  0  0
   40.4840   25.5200   33.5620 H   0  0  0  0  0  0  0  0  0  0  0  0
   40.2020   23.8240   35.1900 S   0  0  0  0  0  0  0  0  0  0  0  0
   39.2580   23.5690   36.6830 C   0  0  0  0  0  0  0  0  0  0  0  0
   38.0380   23.9150   37.1330 N   0  0  0  0  0  0  0  0  0  0  0  0
   37.8800   23.4190   38.3800 C   0  0  0  0  0  0  0  0  0  0  0  0
   37.1310   23.4020   39.1600 H   0  0  0  0  0  0  0  0  0  0  0  0
   39.0290   22.7690   38.6750 N   0  0  0  0  0  0  0  0  0  0  0  0
   39.4100   22.2270   39.4920 H   0  0  0  0  0  0  0  0  0  0  0  0
   39.8820   22.8540   37.6410 N   0  0  0  0  0  0  0  0  0  0  0  0
   37.8550   26.7600   34.3930 O   0  0  0  0  0  0  0  0  0  0  0  0
   36.9020   27.6320   33.9020 C   0  0  0  0  0  0  0  0  0  0  0  0
   36.6020   27.3960   32.5850 C   0  0  0  0  0  0  0  0  0  0  0  0
   35.6520   28.2000   31.9460 C   0  0  0  0  0  0  0  0  0  0  0  0
   35.0630   29.2030   32.7020 N   0  0  0  0  0  0  0  0  0  0  0  0
   35.3880   29.4070   34.0100 C   0  0  0  0  0  0  0  0  0  0  0  0
   36.3000   28.6130   34.5720 N   0  0  0  0  0  0  0  0  0  0  0  0
   33.7850   31.1680   33.9200 C   0  0  0  0  0  0  0  0  0  0  0  0
   33.4850   30.9460   32.6920 O   0  0  0  0  0  0  0  0  0  0  0  0
   34.7390   30.4540   34.7090 N   0  0  0  0  0  0  0  0  0  0  0  0
   37.0290   26.6370   31.9630 H   0  0  0  0  0  0  0  0  0  0  0  0
   35.3780   28.0600   30.9130 H   0  0  0  0  0  0  0  0  0  0  0  0
   33.2450   31.9930   34.4000 H   0  0  0  0  0  0  0  0  0  0  0  0
   34.9660   30.6550   35.7070 H   0  0  0  0  0  0  0  0  0  0  0  0
  1  3  1  0  0  0  0
  1  2  1  0  0  0  0
  4  1  1  0  0  0  0
  4  6  1  0  0  0  0
  5  4  1  0  0  0  0
  7 10  1  0  0  0  0
  7  4  1  0  0  0  0
  8  7  1  0  0  0  0
  9  7  1  0  0  0  0
 10 11  1  0  0  0  0
 11 12  1  0  0  0  0
 11 17  2  0  0  0  0
 12 13  2  0  0  0  0
 13 15  1  0  0  0  0
 13 14  1  0  0  0  0
 15 16  1  0  0  0  0
 17 15  1  0  0  0  0
 18  1  1  0  0  0  0
 19 18  1  0  0  0  0
 19 24  1  0  0  0  0
 20 19  2  0  0  0  0
 21 20  1  0  0  0  0
 21 22  2  0  0  0  0
 22 23  1  0  0  0  0
 23 24  2  0  0  0  0
 23 27  1  0  0  0  0
 25 30  1  0  0  0  0
 25 27  1  0  0  0  0
 26 25  2  0  0  0  0
 27 31  1  0  0  0  0
 28 20  1  0  0  0  0
 29 21  1  0  0  0  0
M  END
>  <minimizedAffinity>
-4.48112297

$$$$

 OpenBabel03262521223D

 31 32  0  0  0  0  0  0  0  0999 V2000
   38.0680   22.0770   31.6690 C   0  0  0  0  0  0  0  0  0  0  0  0
   38.8470   22.8750   31.4860 H   0  0  0  0  0  0  0  0  0  0  0  0
   38.3240   21.2630   30.9390 H   0  0  0  0  0  0  0  0  0  0  0  0
   37.9340   21.6710   32.9430 C   0  0  0  0  0  0  0  0  0  0  0  0
   36.9610   22.0390   33.4000 H   0  0  0  0  0  0  0  0  0  0  0  0
   37.8120   20.5610   33.1400 H   0  0  0  0  0  0  0  0  0  0  0  0
   38.9900   22.0950   33.9050 C   0  0  0  0  0  0  0  0  0  0  0  0
   39.2110   21.3500   34.7080 H   0  0  0  0  0  0  0  0  0  0  0  0
   39.9480   22.2080   33.3300 H   0  0  0  0  0  0  0  0  0  0  0  0
   38.6780   23.6700   34.6930 S   0  0  0  0  0  0  0  0  0  0  0  0
   38.6590   23.5110   36.4700 C   0  0  0  0  0  0  0  0  0  0  0  0
   37.9270   24.0100   37.4830 N   0  0  0  0  0  0  0  0  0  0  0  0
   38.4000   23.5110   38.6460 C   0  0  0  0  0  0  0  0  0  0  0  0
   38.1920   23.5780   39.7050 H   0  0  0  0  0  0  0  0  0  0  0  0
   39.4330   22.7030   38.3160 N   0  0  0  0  0  0  0  0  0  0  0  0
   40.1200   22.0940   38.8300 H   0  0  0  0  0  0  0  0  0  0  0  0
   39.6010   22.6950   36.9840 N   0  0  0  0  0  0  0  0  0  0  0  0
   36.7960   22.4810   31.3990 O   0  0  0  0  0  0  0  0  0  0  0  0
   36.5610   23.8350   31.2540 C   0  0  0  0  0  0  0  0  0  0  0  0
   35.2270   24.1260   31.1320 C   0  0  0  0  0  0  0  0  0  0  0  0
   34.8320   25.4600   30.9760 C   0  0  0  0  0  0  0  0  0  0  0  0
   35.8340   26.4170   30.9570 N   0  0  0  0  0  0  0  0  0  0  0  0
   37.1500   26.0880   31.0810 C   0  0  0  0  0  0  0  0  0  0  0  0
   37.4750   24.8020   31.2260 N   0  0  0  0  0  0  0  0  0  0  0  0
   37.5420   28.4320   30.9030 C   0  0  0  0  0  0  0  0  0  0  0  0
   36.2950   28.7180   30.8040 O   0  0  0  0  0  0  0  0  0  0  0  0
   38.1100   27.1290   31.0490 N   0  0  0  0  0  0  0  0  0  0  0  0
   34.4210   23.4240   31.1400 H   0  0  0  0  0  0  0  0  0  0  0  0
   33.7970   25.7460   30.8750 H   0  0  0  0  0  0  0  0  0  0  0  0
   38.2310   29.2840   30.8720 H   0  0  0  0  0  0  0  0  0  0  0  0
   39.1300   26.9210   31.1280 H   0  0  0  0  0  0  0  0  0  0  0  0
  1  4  1  0  0  0  0
  2  1  1  0  0  0  0
  3  1  1  0  0  0  0
  4  6  1  0  0  0  0
  4  5  1  0  0  0  0
  4  7  1  0  0  0  0
  7 10  1  0  0  0  0
  7  8  1  0  0  0  0
  9  7  1  0  0  0  0
 10 11  1  0  0  0  0
 11 17  2  0  0  0  0
 11 12  1  0  0  0  0
 12 13  2  0  0  0  0
 13 14  1  0  0  0  0
 15 13  1  0  0  0  0
 15 16  1  0  0  0  0
 17 15  1  0  0  0  0
 18  1  1  0  0  0  0
 19 18  1  0  0  0  0
 20 28  1  0  0  0  0
 20 19  2  0  0  0  0
 21 20  1  0  0  0  0
 22 21  2  0  0  0  0
 22 23  1  0  0  0  0
 23 24  2  0  0  0  0
 24 19  1  0  0  0  0
 25 27  1  0  0  0  0
 26 25  2  0  0  0  0
 27 23  1  0  0  0  0
 27 31  1  0  0  0  0
 29 21  1  0  0  0  0
 30 25  1  0  0  0  0
M  END
>  <minimizedAffinity>
-4.39708376

$$$$

 OpenBabel03262521223D

 31 32  0  0  0  0  0  0  0  0999 V2000
   37.5800   27.5200   35.2620 C   0  0  0  0  0  0  0  0  0  0  0  0
   37.0150   28.1710   35.9930 H   0  0  0  0  0  0  0  0  0  0  0  0
   38.3620   28.1980   34.8290 H   0  0  0  0  0  0  0  0  0  0  0  0
   38.0460   26.3600   35.7530 C   0  0  0  0  0  0  0  0  0  0  0  0
   38.2600   26.4320   36.8670 H   0  0  0  0  0  0  0  0  0  0  0  0
   37.3470   25.4660   35.7670 H   0  0  0  0  0  0  0  0  0  0  0  0
   39.3030   25.8260   35.1590 C   0  0  0  0  0  0  0  0  0  0  0  0
   39.6550   26.3750   34.2510 H   0  0  0  0  0  0  0  0  0  0  0  0
   40.1200   25.9530   35.9190 H   0  0  0  0  0  0  0  0  0  0  0  0
   39.2460   24.0840   34.7560 S   0  0  0  0  0  0  0  0  0  0  0  0
   39.9410   23.0950   36.0690 C   0  0  0  0  0  0  0  0  0  0  0  0
   40.9600   22.2240   36.1950 N   0  0  0  0  0  0  0  0  0  0  0  0
   40.9950   21.7820   37.4710 C   0  0  0  0  0  0  0  0  0  0  0  0
   41.5790   21.1080   38.0830 H   0  0  0  0  0  0  0  0  0  0  0  0
   39.9770   22.4010   38.1120 N   0  0  0  0  0  0  0  0  0  0  0  0
   39.5810   22.4060   39.0870 H   0  0  0  0  0  0  0  0  0  0  0  0
   39.3240   23.2090   37.2620 N   0  0  0  0  0  0  0  0  0  0  0  0
   36.8160   27.0680   34.2300 O   0  0  0  0  0  0  0  0  0  0  0  0
   36.8580   27.7630   33.0370 C   0  0  0  0  0  0  0  0  0  0  0  0
   36.1680   28.9460   33.0940 C   0  0  0  0  0  0  0  0  0  0  0  0
   36.1190   29.7620   31.9580 C   0  0  0  0  0  0  0  0  0  0  0  0
   36.7850   29.3130   30.8280 N   0  0  0  0  0  0  0  0  0  0  0  0
   37.4610   28.1300   30.8110 C   0  0  0  0  0  0  0  0  0  0  0  0
   37.4770   27.3880   31.9190 N   0  0  0  0  0  0  0  0  0  0  0  0
   37.9840   28.6970   28.5550 C   0  0  0  0  0  0  0  0  0  0  0  0
   37.3540   29.8140   28.6020 O   0  0  0  0  0  0  0  0  0  0  0  0
   38.1140   27.7450   29.6140 N   0  0  0  0  0  0  0  0  0  0  0  0
   35.6390   29.3320   33.9390 H   0  0  0  0  0  0  0  0  0  0  0  0
   35.5910   30.7020   31.9460 H   0  0  0  0  0  0  0  0  0  0  0  0
   38.4660   28.4610   27.6000 H   0  0  0  0  0  0  0  0  0  0  0  0
   38.6320   26.8420   29.5520 H   0  0  0  0  0  0  0  0  0  0  0  0
  1  4  1  0  0  0  0
  1  2  1  0  0  0  0
  3  1  1  0  0  0  0
  4  6  1  0  0  0  0
  4  5  1  0  0  0  0
  7  4  1  0  0  0  0
  7  9  1  0  0  0  0
  8  7  1  0  0  0  0
 10  7  1  0  0  0  0
 10 11  1  0  0  0  0
 11 12  1  0  0  0  0
 11 17  2  0  0  0  0
 12 13  2  0  0  0  0
 13 14  1  0  0  0  0
 13 15  1  0  0  0  0
 15 16  1  0  0  0  0
 17 15  1  0  0  0  0
 18  1  1  0  0  0  0
 19 20  1  0  0  0  0
 19 18  1  0  0  0  0
 20 28  1  0  0  0  0
 21 20  2  0  0  0  0
 22 21  1  0  0  0  0
 23 22  2  0  0  0  0
 23 24  1  0  0  0  0
 24 19  2  0  0  0  0
 25 26  2  0  0  0  0
 25 27  1  0  0  0  0
 27 23  1  0  0  0  0
 29 21  1  0  0  0  0
 30 25  1  0  0  0  0
 31 27  1  0  0  0  0
M  END
>  <minimizedAffinity>
-4.38930941

$$$$

 OpenBabel03262521223D

 31 32  0  0  0  0  0  0  0  0999 V2000
   38.0150   26.7960   35.7440 C   0  0  0  0  0  0  0  0  0  0  0  0
   38.9770   26.9650   36.3130 H   0  0  0  0  0  0  0  0  0  0  0  0
   37.2370   27.3440   36.3400 H   0  0  0  0  0  0  0  0  0  0  0  0
   38.0470   27.1050   34.4370 C   0  0  0  0  0  0  0  0  0  0  0  0
   37.3460   26.4440   33.8330 H   0  0  0  0  0  0  0  0  0  0  0  0
   37.6500   28.1180   34.1180 H   0  0  0  0  0  0  0  0  0  0  0  0
   39.3610   26.9980   33.7460 C   0  0  0  0  0  0  0  0  0  0  0  0
   39.9280   27.9590   33.6750 H   0  0  0  0  0  0  0  0  0  0  0  0
   40.0110   26.3130   34.3540 H   0  0  0  0  0  0  0  0  0  0  0  0
   39.2750   26.2940   32.1040 S   0  0  0  0  0  0  0  0  0  0  0  0
   37.6080   25.8020   31.6980 C   0  0  0  0  0  0  0  0  0  0  0  0
   36.7900   24.7820   32.0180 N   0  0  0  0  0  0  0  0  0  0  0  0
   35.6110   24.9570   31.3820 C   0  0  0  0  0  0  0  0  0  0  0  0
   34.6540   24.4620   31.2900 H   0  0  0  0  0  0  0  0  0  0  0  0
   35.7330   26.1010   30.6700 N   0  0  0  0  0  0  0  0  0  0  0  0
   35.1250   26.6660   30.0240 H   0  0  0  0  0  0  0  0  0  0  0  0
   36.9540   26.6280   30.8570 N   0  0  0  0  0  0  0  0  0  0  0  0
   37.6370   25.4900   35.6850 O   0  0  0  0  0  0  0  0  0  0  0  0
   38.4550   24.5480   36.2790 C   0  0  0  0  0  0  0  0  0  0  0  0
   38.0800   24.2650   37.5670 C   0  0  0  0  0  0  0  0  0  0  0  0
   38.8150   23.3280   38.3010 C   0  0  0  0  0  0  0  0  0  0  0  0
   39.8960   22.7350   37.6660 N   0  0  0  0  0  0  0  0  0  0  0  0
   40.2370   23.0430   36.3830 C   0  0  0  0  0  0  0  0  0  0  0  0
   39.5050   23.9440   35.7270 N   0  0  0  0  0  0  0  0  0  0  0  0
   41.9860   21.4520   36.6840 C   0  0  0  0  0  0  0  0  0  0  0  0
   41.6350   21.1670   37.8850 O   0  0  0  0  0  0  0  0  0  0  0  0
   41.3570   22.3920   35.8100 N   0  0  0  0  0  0  0  0  0  0  0  0
   37.2570   24.6960   38.0980 H   0  0  0  0  0  0  0  0  0  0  0  0
   38.5660   23.0670   39.3170 H   0  0  0  0  0  0  0  0  0  0  0  0
   42.8600   20.9110   36.3020 H   0  0  0  0  0  0  0  0  0  0  0  0
   41.6620   22.6070   34.8360 H   0  0  0  0  0  0  0  0  0  0  0  0
  1  2  1  0  0  0  0
  1  3  1  0  0  0  0
  4  1  1  0  0  0  0
  5  4  1  0  0  0  0
  6  4  1  0  0  0  0
  7  9  1  0  0  0  0
  7  4  1  0  0  0  0
  8  7  1  0  0  0  0
 10  7  1  0  0  0  0
 11 12  1  0  0  0  0
 11 10  1  0  0  0  0
 13 12  2  0  0  0  0
 14 13  1  0  0  0  0
 15 17  1  0  0  0  0
 15 13  1  0  0  0  0
 16 15  1  0  0  0  0
 17 11  2  0  0  0  0
 18  1  1  0  0  0  0
 18 19  1  0  0  0  0
 19 20  1  0  0  0  0
 20 28  1  0  0  0  0
 20 21  2  0  0  0  0
 21 29  1  0  0  0  0
 22 21  1  0  0  0  0
 23 22  2  0  0  0  0
 24 19  2  0  0  0  0
 24 23  1  0  0  0  0
 25 26  2  0  0  0  0
 27 23  1  0  0  0  0
 27 25  1  0  0  0  0
 30 25  1  0  0  0  0
 31 27  1  0  0  0  0
M  END
>  <minimizedAffinity>
-4.36451006

$$$$

 OpenBabel03262521223D

 31 32  0  0  0  0  0  0  0  0999 V2000
   38.2130   27.2290   33.0080 C   0  0  0  0  0  0  0  0  0  0  0  0
   37.2670   27.0810   33.6080 H   0  0  0  0  0  0  0  0  0  0  0  0
   38.0990   28.2490   32.5540 H   0  0  0  0  0  0  0  0  0  0  0  0
   39.3630   27.0330   33.6740 C   0  0  0  0  0  0  0  0  0  0  0  0
   39.9320   26.1340   33.2710 H   0  0  0  0  0  0  0  0  0  0  0  0
   40.1780   27.8150   33.5740 H   0  0  0  0  0  0  0  0  0  0  0  0
   39.2670   26.7950   35.1410 C   0  0  0  0  0  0  0  0  0  0  0  0
   40.1390   26.2500   35.5800 H   0  0  0  0  0  0  0  0  0  0  0  0
   39.2560   27.7970   35.6480 H   0  0  0  0  0  0  0  0  0  0  0  0
   37.7780   25.9470   35.6540 S   0  0  0  0  0  0  0  0  0  0  0  0
   38.1390   24.6750   36.8520 C   0  0  0  0  0  0  0  0  0  0  0  0
   37.9680   24.5090   38.1770 N   0  0  0  0  0  0  0  0  0  0  0  0
   38.4580   23.3010   38.5280 C   0  0  0  0  0  0  0  0  0  0  0  0
   38.5710   22.6960   39.4180 H   0  0  0  0  0  0  0  0  0  0  0  0
   38.9290   22.7400   37.3910 N   0  0  0  0  0  0  0  0  0  0  0  0
   39.3950   21.8350   37.1230 H   0  0  0  0  0  0  0  0  0  0  0  0
   38.7380   23.5730   36.3560 N   0  0  0  0  0  0  0  0  0  0  0  0
   38.3580   26.3420   31.9870 O   0  0  0  0  0  0  0  0  0  0  0  0
   37.5110   25.2510   31.9470 C   0  0  0  0  0  0  0  0  0  0  0  0
   36.3430   25.5170   31.2800 C   0  0  0  0  0  0  0  0  0  0  0  0
   35.3820   24.5070   31.1570 C   0  0  0  0  0  0  0  0  0  0  0  0
   35.6790   23.2800   31.7290 N   0  0  0  0  0  0  0  0  0  0  0  0
   36.8520   23.0540   32.3850 C   0  0  0  0  0  0  0  0  0  0  0  0
   37.7350   24.0490   32.4750 N   0  0  0  0  0  0  0  0  0  0  0  0
   36.0070   20.8490   32.7130 C   0  0  0  0  0  0  0  0  0  0  0  0
   34.9170   21.0820   32.0770 O   0  0  0  0  0  0  0  0  0  0  0  0
   37.0760   21.7700   32.9420 N   0  0  0  0  0  0  0  0  0  0  0  0
   36.0700   26.4460   30.8250 H   0  0  0  0  0  0  0  0  0  0  0  0
   34.4460   24.6610   30.6440 H   0  0  0  0  0  0  0  0  0  0  0  0
   36.1160   19.8360   33.1170 H   0  0  0  0  0  0  0  0  0  0  0  0
   37.9540   21.5570   33.4630 H   0  0  0  0  0  0  0  0  0  0  0  0
  1  2  1  0  0  0  0
  1  4  1  0  0  0  0
  3  1  1  0  0  0  0
  4  7  1  0  0  0  0
  5  4  1  0  0  0  0
  6  4  1  0  0  0  0
  7  8  1  0  0  0  0
  7  9  1  0  0  0  0
  7 10  1  0  0  0  0
 10 11  1  0  0  0  0
 11 12  1  0  0  0  0
 12 13  2  0  0  0  0
 13 14  1  0  0  0  0
 15 13  1  0  0  0  0
 16 15  1  0  0  0  0
 17 11  2  0  0  0  0
 17 15  1  0  0  0  0
 18  1  1  0  0  0  0
 19 18  1  0  0  0  0
 19 24  1  0  0  0  0
 20 19  2  0  0  0  0
 21 20  1  0  0  0  0
 21 22  2  0  0  0  0
 22 23  1  0  0  0  0
 23 24  2  0  0  0  0
 23 27  1  0  0  0  0
 25 27  1  0  0  0  0
 25 30  1  0  0  0  0
 26 25  2  0  0  0  0
 27 31  1  0  0  0  0
 28 20  1  0  0  0  0
 29 21  1  0  0  0  0
M  END
>  <minimizedAffinity>
-4.35351086

$$$$

 OpenBabel03262521223D

 31 32  0  0  0  0  0  0  0  0999 V2000
   37.3540   27.6890   34.9290 C   0  0  0  0  0  0  0  0  0  0  0  0
   38.4350   27.9060   34.6780 H   0  0  0  0  0  0  0  0  0  0  0  0
   37.1730   28.2430   35.8880 H   0  0  0  0  0  0  0  0  0  0  0  0
   36.4660   27.9420   33.9540 C   0  0  0  0  0  0  0  0  0  0  0  0
   35.6580   27.1440   33.9060 H   0  0  0  0  0  0  0  0  0  0  0  0
   35.8030   28.8570   34.0600 H   0  0  0  0  0  0  0  0  0  0  0  0
   36.9920   28.0360   32.5640 C   0  0  0  0  0  0  0  0  0  0  0  0
   37.1080   29.0800   32.1810 H   0  0  0  0  0  0  0  0  0  0  0  0
   38.0270   27.6000   32.5610 H   0  0  0  0  0  0  0  0  0  0  0  0
   36.0470   27.1140   31.3560 S   0  0  0  0  0  0  0  0  0  0  0  0
   36.2390   25.3550   31.5910 C   0  0  0  0  0  0  0  0  0  0  0  0
   37.1810   24.5390   32.0970 N   0  0  0  0  0  0  0  0  0  0  0  0
   36.7470   23.2630   31.9990 C   0  0  0  0  0  0  0  0  0  0  0  0
   37.0890   22.2660   32.2400 H   0  0  0  0  0  0  0  0  0  0  0  0
   35.5240   23.3250   31.4230 N   0  0  0  0  0  0  0  0  0  0  0  0
   34.7820   22.6380   31.1330 H   0  0  0  0  0  0  0  0  0  0  0  0
   35.2030   24.6040   31.1680 N   0  0  0  0  0  0  0  0  0  0  0  0
   37.1010   26.3720   35.1650 O   0  0  0  0  0  0  0  0  0  0  0  0
   38.1720   25.5410   35.4290 C   0  0  0  0  0  0  0  0  0  0  0  0
   39.3000   25.9020   34.7390 C   0  0  0  0  0  0  0  0  0  0  0  0
   40.4700   25.1510   34.9030 C   0  0  0  0  0  0  0  0  0  0  0  0
   40.4110   24.0710   35.7700 N   0  0  0  0  0  0  0  0  0  0  0  0
   39.2690   23.7440   36.4390 C   0  0  0  0  0  0  0  0  0  0  0  0
   38.1810   24.4900   36.2470 N   0  0  0  0  0  0  0  0  0  0  0  0
   40.5680   21.9780   37.3740 C   0  0  0  0  0  0  0  0  0  0  0  0
   41.6340   22.3160   36.7450 O   0  0  0  0  0  0  0  0  0  0  0  0
   39.2950   22.6230   37.3050 N   0  0  0  0  0  0  0  0  0  0  0  0
   39.3930   26.7240   34.0600 H   0  0  0  0  0  0  0  0  0  0  0  0
   41.3850   25.3900   34.3850 H   0  0  0  0  0  0  0  0  0  0  0  0
   40.6580   21.1030   38.0280 H   0  0  0  0  0  0  0  0  0  0  0  0
   38.4410   22.3280   37.8270 H   0  0  0  0  0  0  0  0  0  0  0  0
  1 18  1  0  0  0  0
  1  3  1  0  0  0  0
  2  1  1  0  0  0  0
  4  6  1  0  0  0  0
  4  1  1  0  0  0  0
  5  4  1  0  0  0  0
  7  4  1  0  0  0  0
  8  7  1  0  0  0  0
  9  7  1  0  0  0  0
 10 11  1  0  0  0  0
 10  7  1  0  0  0  0
 11 12  1  0  0  0  0
 13 12  2  0  0  0  0
 13 14  1  0  0  0  0
 15 13  1  0  0  0  0
 16 15  1  0  0  0  0
 17 15  1  0  0  0  0
 17 11  2  0  0  0  0
 18 19  1  0  0  0  0
 19 24  1  0  0  0  0
 20 21  1  0  0  0  0
 20 19  2  0  0  0  0
 21 22  2  0  0  0  0
 22 23  1  0  0  0  0
 23 27  1  0  0  0  0
 24 23  2  0  0  0  0
 25 30  1  0  0  0  0
 26 25  2  0  0  0  0
 27 25  1  0  0  0  0
 27 31  1  0  0  0  0
 28 20  1  0  0  0  0
 29 21  1  0  0  0  0
M  END
>  <minimizedAffinity>
-4.32907915

$$$$
