
 OpenBabel03272505093D

 27 29  0  0  0  0  0  0  0  0999 V2000
   36.3100   30.8700   45.7210 Cl  0  0  0  0  0  0  0  0  0  0  0  0
   36.6320   30.6910   47.4280 C   0  0  0  0  0  0  0  0  0  0  0  0
   37.8890   31.0050   47.8490 C   0  0  0  0  0  0  0  0  0  0  0  0
   38.1660   30.8690   49.2100 C   0  0  0  0  0  0  0  0  0  0  0  0
   37.1820   30.4310   50.0680 C   0  0  0  0  0  0  0  0  0  0  0  0
   35.9410   30.1330   49.5730 C   0  0  0  0  0  0  0  0  0  0  0  0
   35.6130   30.2460   48.2570 C   0  0  0  0  0  0  0  0  0  0  0  0
   39.1530   31.1120   49.5690 H   0  0  0  0  0  0  0  0  0  0  0  0
   37.4290   30.3370   51.1170 H   0  0  0  0  0  0  0  0  0  0  0  0
   35.1750   29.7890   50.2590 H   0  0  0  0  0  0  0  0  0  0  0  0
   40.1490   33.2620   46.0740 C   0  0  0  0  0  0  0  0  0  0  0  0
   40.8440   32.4140   45.1790 C   0  0  0  0  0  0  0  0  0  0  0  0
   40.5110   31.0560   45.2070 C   0  0  0  0  0  0  0  0  0  0  0  0
   39.5540   30.6260   46.0780 N   0  0  0  0  0  0  0  0  0  0  0  0
   38.9230   31.4730   46.9080 C   0  0  0  0  0  0  0  0  0  0  0  0
   39.2280   32.7650   46.8930 N   0  0  0  0  0  0  0  0  0  0  0  0
   40.3690   34.3100   46.0880 H   0  0  0  0  0  0  0  0  0  0  0  0
   41.5970   32.8170   44.5080 H   0  0  0  0  0  0  0  0  0  0  0  0
   41.0200   30.3730   44.5370 H   0  0  0  0  0  0  0  0  0  0  0  0
   34.0060   29.8700   47.5650 S   0  0  0  0  0  0  0  0  0  0  0  0
   33.9500   28.1760   47.0000 C   0  0  0  0  0  0  0  0  0  0  0  0
   33.8830   27.2430   47.9680 N   0  0  0  0  0  0  0  0  0  0  0  0
   33.8450   26.0090   47.4470 C   0  0  0  0  0  0  0  0  0  0  0  0
   33.7910   25.0440   47.9350 H   0  0  0  0  0  0  0  0  0  0  0  0
   33.8910   26.1840   46.1160 N   0  0  0  0  0  0  0  0  0  0  0  0
   33.8840   25.5000   45.3220 H   0  0  0  0  0  0  0  0  0  0  0  0
   33.9550   27.4920   45.8200 N   0  0  0  0  0  0  0  0  0  0  0  0
  1  2  1  0  0  0  0
  2  3  2  0  0  0  0
  2  7  1  0  0  0  0
  3  4  1  0  0  0  0
  4  8  1  0  0  0  0
  4  5  2  0  0  0  0
  5  9  1  0  0  0  0
  6  5  1  0  0  0  0
  6 10  1  0  0  0  0
  7  6  2  0  0  0  0
 11 17  1  0  0  0  0
 11 16  1  0  0  0  0
 12 13  1  0  0  0  0
 12 11  2  0  0  0  0
 13 14  2  0  0  0  0
 14 15  1  0  0  0  0
 15  3  1  0  0  0  0
 16 15  2  0  0  0  0
 18 12  1  0  0  0  0
 19 13  1  0  0  0  0
 20  7  1  0  0  0  0
 21 20  1  0  0  0  0
 21 22  1  0  0  0  0
 23 24  1  0  0  0  0
 23 22  2  0  0  0  0
 25 23  1  0  0  0  0
 26 25  1  0  0  0  0
 27 25  1  0  0  0  0
 27 21  2  0  0  0  0
M  END
>  <minimizedAffinity>
-5.2196846

>  <minimizedRMSD>
1.02420568

$$$$
