
 OpenBabel03272510133D

 39 42  0  0  0  0  0  0  0  0999 V2000
   38.3090   31.4710   48.8590 C   0  0  0  0  0  0  0  0  0  0  0  0
   38.4350   32.7130   49.4390 C   0  0  0  0  0  0  0  0  0  0  0  0
   39.0790   33.5320   48.5060 C   0  0  0  0  0  0  0  0  0  0  0  0
   39.3130   32.7790   47.4260 N   0  0  0  0  0  0  0  0  0  0  0  0
   38.8610   31.5860   47.6450 N   0  0  0  0  0  0  0  0  0  0  0  0
   38.1670   33.1620   50.3850 H   0  0  0  0  0  0  0  0  0  0  0  0
   39.3630   34.5860   48.5820 H   0  0  0  0  0  0  0  0  0  0  0  0
   39.9620   33.2130   46.2230 C   0  0  0  0  0  0  0  0  0  0  0  0
   40.7200   33.9700   46.5050 H   0  0  0  0  0  0  0  0  0  0  0  0
   39.2560   33.7780   45.5490 H   0  0  0  0  0  0  0  0  0  0  0  0
   40.5660   32.0460   45.5320 C   0  0  0  0  0  0  0  0  0  0  0  0
   41.6710   32.1130   45.6910 H   0  0  0  0  0  0  0  0  0  0  0  0
   40.2810   31.1370   46.1440 H   0  0  0  0  0  0  0  0  0  0  0  0
   40.2900   31.8410   44.1310 C   0  0  0  0  0  0  0  0  0  0  0  0
   40.6370   30.6920   43.4800 N   0  0  0  0  0  0  0  0  0  0  0  0
   40.2700   30.7440   42.1920 C   0  0  0  0  0  0  0  0  0  0  0  0
   40.4020   29.9990   41.4190 H   0  0  0  0  0  0  0  0  0  0  0  0
   39.6800   31.9350   42.0090 N   0  0  0  0  0  0  0  0  0  0  0  0
   39.2580   32.3680   41.1660 H   0  0  0  0  0  0  0  0  0  0  0  0
   39.7010   32.5690   43.1640 N   0  0  0  0  0  0  0  0  0  0  0  0
   37.6890   30.5240   49.6480 O   0  0  0  0  0  0  0  0  0  0  0  0
   34.0350   28.8910   48.3530 C   0  0  0  0  0  0  0  0  0  0  0  0
   34.7300   28.3370   49.3830 C   0  0  0  0  0  0  0  0  0  0  0  0
   35.9240   28.8150   49.8560 C   0  0  0  0  0  0  0  0  0  0  0  0
   36.4970   29.9110   49.2980 C   0  0  0  0  0  0  0  0  0  0  0  0
   35.7970   30.4920   48.2400 C   0  0  0  0  0  0  0  0  0  0  0  0
   34.6220   29.9950   47.7980 N   0  0  0  0  0  0  0  0  0  0  0  0
   34.3460   27.4630   49.8830 H   0  0  0  0  0  0  0  0  0  0  0  0
   36.4700   28.3620   50.6810 H   0  0  0  0  0  0  0  0  0  0  0  0
   36.1740   31.3760   47.7250 H   0  0  0  0  0  0  0  0  0  0  0  0
   31.9320   27.5770   48.5800 C   0  0  0  0  0  0  0  0  0  0  0  0
   32.7890   28.4020   47.8470 C   0  0  0  0  0  0  0  0  0  0  0  0
   32.3870   28.7440   46.5740 C   0  0  0  0  0  0  0  0  0  0  0  0
   31.1980   28.2770   46.0860 N   0  0  0  0  0  0  0  0  0  0  0  0
   30.4060   27.4800   46.8420 C   0  0  0  0  0  0  0  0  0  0  0  0
   30.7560   27.1130   48.1020 N   0  0  0  0  0  0  0  0  0  0  0  0
   32.2030   27.2830   49.5820 H   0  0  0  0  0  0  0  0  0  0  0  0
   33.0260   29.3860   45.9700 H   0  0  0  0  0  0  0  0  0  0  0  0
   29.4860   27.1700   46.3510 H   0  0  0  0  0  0  0  0  0  0  0  0
  1  2  1  0  0  0  0
  1 21  1  0  0  0  0
  2  6  1  0  0  0  0
  3  7  1  0  0  0  0
  3  2  2  0  0  0  0
  4  5  1  0  0  0  0
  4  3  1  0  0  0  0
  5  1  2  0  0  0  0
  8  9  1  0  0  0  0
  8  4  1  0  0  0  0
 10  8  1  0  0  0  0
 11 12  1  0  0  0  0
 11 13  1  0  0  0  0
 11  8  1  0  0  0  0
 14 11  1  0  0  0  0
 15 14  1  0  0  0  0
 16 15  2  0  0  0  0
 17 16  1  0  0  0  0
 18 16  1  0  0  0  0
 18 20  1  0  0  0  0
 19 18  1  0  0  0  0
 20 14  2  0  0  0  0
 22 23  1  0  0  0  0
 23 24  2  0  0  0  0
 23 28  1  0  0  0  0
 24 29  1  0  0  0  0
 25 21  1  0  0  0  0
 25 24  1  0  0  0  0
 26 25  2  0  0  0  0
 27 26  1  0  0  0  0
 27 22  2  0  0  0  0
 30 26  1  0  0  0  0
 31 37  1  0  0  0  0
 32 22  1  0  0  0  0
 32 31  2  0  0  0  0
 33 32  1  0  0  0  0
 34 33  2  0  0  0  0
 34 35  1  0  0  0  0
 35 36  2  0  0  0  0
 36 31  1  0  0  0  0
 38 33  1  0  0  0  0
 39 35  1  0  0  0  0
M  END
>  <minimizedAffinity>
-6.1757803

>  <minimizedRMSD>
1.22566843

$$$$
