
     RDKit          3D

 28 30  0  0  0  0  0  0  0  0999 V2000
   36.7516   30.7736   50.7150 C   0  0  1  0  0  0  0  0  0  0  0  0
   36.0308   29.5082   50.8522 C   0  0  2  0  0  0  0  0  0  0  0  0
   37.4741   29.5198   51.2496 C   0  0  0  0  0  0  0  0  0  0  0  0
   37.3130   31.2224   49.4025 C   0  0  0  0  0  0  0  0  0  0  0  0
   38.3098   32.1924   49.4614 C   0  0  0  0  0  0  0  0  0  0  0  0
   38.8025   32.6022   48.2252 C   0  0  0  0  0  0  0  0  0  0  0  0
   38.3195   32.0702   47.0545 N   0  0  0  0  0  0  0  0  0  0  0  0
   37.3440   31.1243   47.0496 C   0  0  0  0  0  0  0  0  0  0  0  0
   36.8363   30.6968   48.2412 N   0  0  0  0  0  0  0  0  0  0  0  0
   35.6575   28.8589   49.6826 O   0  0  0  0  0  0  0  0  0  0  0  0
   34.4387   28.3975   49.3095 C   0  0  0  0  0  0  0  0  0  0  0  0
   34.3012   27.4117   48.5543 O   0  0  0  0  0  0  0  0  0  0  0  0
   33.4580   29.1931   49.8984 N   0  0  0  0  0  0  0  0  0  0  0  0
   36.6900   31.6032   51.4680 H   0  0  0  0  0  0  0  0  0  0  0  0
   35.1974   29.5757   51.6072 H   0  0  0  0  0  0  0  0  0  0  0  0
   38.2058   29.0131   50.6122 H   0  0  0  0  0  0  0  0  0  0  0  0
   37.6839   29.5160   52.3344 H   0  0  0  0  0  0  0  0  0  0  0  0
   38.6717   32.5940   50.3798 H   0  0  0  0  0  0  0  0  0  0  0  0
   39.5822   33.3539   48.1555 H   0  0  0  0  0  0  0  0  0  0  0  0
   33.3857   30.2094   49.9345 H   0  0  0  0  0  0  0  0  0  0  0  0
   32.7137   28.6271   50.3543 H   0  0  0  0  0  0  0  0  0  0  0  0
   36.8972   30.6222   45.7779 C   0  0  0  0  0  0  0  0  0  0  0  0
   37.7770   30.2909   44.7878 N   0  0  0  0  0  0  0  0  0  0  0  0
   37.1087   29.8471   43.6989 C   0  0  0  0  0  0  0  0  0  0  0  0
   37.6972   29.5530   42.8445 H   0  0  0  0  0  0  0  0  0  0  0  0
   35.8031   29.9032   44.0151 N   0  0  0  0  0  0  0  0  0  0  0  0
   35.0884   29.6087   43.3274 H   0  0  0  0  0  0  0  0  0  0  0  0
   35.6671   30.3683   45.2639 N   0  0  0  0  0  0  0  0  0  0  0  0
  1  2  1  0
  1  3  1  0
  2  3  1  0
  4  5  2  0
  4  1  1  0
  6  5  1  0
  7  6  2  0
  8  7  1  0
  8  9  2  0
  9  4  1  0
 10  2  1  0
 11 10  1  0
 11 13  1  0
 12 11  2  0
  1 14  1  1
  2 15  1  1
  3 16  1  0
  3 17  1  0
  5 18  1  0
  6 19  1  0
 13 20  1  0
 13 21  1  0
 22 23  1  0
 23 24  2  0
 24 25  1  0
 24 26  1  0
 26 27  1  0
 26 28  1  0
 28 22  2  0
  8 22  1  0
M  ISO  8  14  13  15  13  16  13  17  13  18  14  19  14  25  14  27   9
M  END
>  <DihAtoms>  (1) 
6,7,21,22

>  <DihDeg>  (1) 
44.29306516572692

$$$$
