
 OpenBabel03272509303D

 36 38  0  0  1  0  0  0  0  0999 V2000
   36.2480   30.7040   48.9830 C   0  0  2  0  0  0  0  0  0  0  0  0
   37.2260   31.5900   49.6990 C   0  0  0  0  0  0  0  0  0  0  0  0
   38.1490   30.8200   50.6210 C   0  0  0  0  0  0  0  0  0  0  0  0
   37.3280   30.0370   51.6430 C   0  0  0  0  0  0  0  0  0  0  0  0
   36.0630   29.4380   51.0830 C   0  0  0  0  0  0  0  0  0  0  0  0
   36.2210   29.3250   49.5550 C   0  0  1  0  0  0  0  0  0  0  0  0
   35.1850   31.0750   49.0240 H   0  0  0  0  0  0  0  0  0  0  0  0
   36.5760   32.1860   50.4230 H   0  0  0  0  0  0  0  0  0  0  0  0
   37.7350   32.3330   49.1150 H   0  0  0  0  0  0  0  0  0  0  0  0
   38.7610   31.5460   51.1610 H   0  0  0  0  0  0  0  0  0  0  0  0
   38.7910   30.0980   50.1020 H   0  0  0  0  0  0  0  0  0  0  0  0
   37.9830   29.2240   52.0330 H   0  0  0  0  0  0  0  0  0  0  0  0
   37.1420   30.7070   52.4920 H   0  0  0  0  0  0  0  0  0  0  0  0
   35.9420   28.4180   51.4890 H   0  0  0  0  0  0  0  0  0  0  0  0
   35.2140   30.0650   51.3650 H   0  0  0  0  0  0  0  0  0  0  0  0
   37.1770   28.8620   49.5090 H   0  0  0  0  0  0  0  0  0  0  0  0
   36.5710   30.6150   47.5350 C   0  0  0  0  0  0  0  0  0  0  0  0
   37.9080   30.8720   47.1920 C   0  0  0  0  0  0  0  0  0  0  0  0
   38.2370   30.7870   45.8320 C   0  0  0  0  0  0  0  0  0  0  0  0
   37.2460   30.4630   44.9310 N   0  0  0  0  0  0  0  0  0  0  0  0
   35.9560   30.2210   45.3200 C   0  0  0  0  0  0  0  0  0  0  0  0
   35.6400   30.3020   46.6240 N   0  0  0  0  0  0  0  0  0  0  0  0
   38.7610   31.1210   47.7890 H   0  0  0  0  0  0  0  0  0  0  0  0
   39.2120   30.9580   45.4270 H   0  0  0  0  0  0  0  0  0  0  0  0
   35.2260   29.9700   44.5630 H   0  0  0  0  0  0  0  0  0  0  0  0
   33.9160   28.3390   49.1220 C   0  0  0  0  0  0  0  0  0  0  0  0
   33.1240   29.0300   49.8570 O   0  0  0  0  0  0  0  0  0  0  0  0
   35.3190   28.4300   48.9260 N   0  0  0  0  0  0  0  0  0  0  0  0
   35.6760   27.7190   48.2090 H   0  0  0  0  0  0  0  0  0  0  0  0
   33.1020   27.3060   48.4170 C   0  0  0  0  0  0  0  0  0  0  0  0
   33.5350   26.3340   47.6250 N   0  0  0  0  0  0  0  0  0  0  0  0
   32.4430   25.6330   47.2020 C   0  0  0  0  0  0  0  0  0  0  0  0
   32.5010   24.7820   46.5430 H   0  0  0  0  0  0  0  0  0  0  0  0
   31.3850   26.2080   47.7570 N   0  0  0  0  0  0  0  0  0  0  0  0
   30.3730   25.9220   47.6450 H   0  0  0  0  0  0  0  0  0  0  0  0
   31.7640   27.2200   48.4920 N   0  0  0  0  0  0  0  0  0  0  0  0
  1  7  1  1  0  0  0
  1  6  1  0  0  0  0
  1  2  1  0  0  0  0
  2  8  1  0  0  0  0
  2  3  1  0  0  0  0
  3 10  1  0  0  0  0
  3  4  1  0  0  0  0
  4 12  1  0  0  0  0
  4 13  1  0  0  0  0
  5 15  1  0  0  0  0
  5 14  1  0  0  0  0
  5  4  1  0  0  0  0
  6 16  1  6  0  0  0
  6  5  1  0  0  0  0
  9  2  1  0  0  0  0
 11  3  1  0  0  0  0
 17  1  1  0  0  0  0
 18 17  1  0  0  0  0
 18 23  1  0  0  0  0
 19 18  2  0  0  0  0
 20 21  2  0  0  0  0
 20 19  1  0  0  0  0
 21 22  1  0  0  0  0
 22 17  2  0  0  0  0
 24 19  1  0  0  0  0
 25 21  1  0  0  0  0
 26 27  2  0  0  0  0
 28 26  1  0  0  0  0
 28  6  1  0  0  0  0
 29 28  1  0  0  0  0
 30 36  2  0  0  0  0
 30 26  1  0  0  0  0
 31 30  1  0  0  0  0
 32 31  2  0  0  0  0
 32 34  1  0  0  0  0
 33 32  1  0  0  0  0
 34 36  1  0  0  0  0
 35 34  1  0  0  0  0
M  END
>  <minimizedAffinity>
-5.7647543

>  <minimizedRMSD>
0.449412346

$$$$
