REMARK  Name = 
REMARK  5 active torsions:
REMARK  status: ('A' for Active; 'I' for Inactive)
REMARK    1  A    between atoms: C_1  and  C_7
REMARK    2  A    between atoms: C_6  and  C_15
REMARK    3  A    between atoms: C_7  and  C_13
REMARK    4  A    between atoms: C_16  and  C_17
REMARK    5  A    between atoms: C_17  and  C_29
REMARK                            x       y       z     vdW  Elec       q    Type
REMARK                         _______ _______ _______ _____ _____    ______ ____
ROOT
ATOM      1  C   UNL     1      37.131  30.965  49.022  0.00  0.00    +0.000 A 
ATOM      2  C   UNL     1      36.912  31.937  50.002  0.00  0.00    +0.000 A 
ATOM      3  C   UNL     1      37.554  33.167  49.981  0.00  0.00    +0.000 A 
ATOM      4  C   UNL     1      38.453  33.452  48.946  0.00  0.00    +0.000 A 
ATOM      5  C   UNL     1      38.656  32.493  47.996  0.00  0.00    +0.000 A 
ATOM      6  C   UNL     1      38.003  31.274  48.041  0.00  0.00    +0.000 A 
ATOM      7  H   UNL     1      36.211  31.699  50.799  0.00  0.00    +0.000 HD
ATOM      8  H   UNL     1      37.314  33.847  50.787  0.00  0.00    +0.000 HD
ATOM      9  H   UNL     1      38.932  34.414  48.959  0.00  0.00    +0.000 HD
ATOM     10  H   UNL     1      39.365  32.798  47.236  0.00  0.00    +0.000 HD
ENDROOT
BRANCH   1  11
ATOM     11  C   UNL     1      36.416  29.705  49.124  0.00  0.00    +0.000 C 
ATOM     12  O   UNL     1      36.929  28.869  49.950  0.00  0.00    +0.000 OA
BRANCH  11  17
ATOM     13  C   UNL     1      33.630  30.173  46.854  0.00  0.00    +0.000 A 
ATOM     14  C   UNL     1      32.964  28.961  46.872  0.00  0.00    +0.000 A 
ATOM     15  C   UNL     1      33.471  27.947  47.680  0.00  0.00    +0.000 A 
ATOM     16  N   UNL     1      34.594  28.190  48.412  0.00  0.00    +0.000 NA
ATOM     17  C   UNL     1      35.206  29.366  48.369  0.00  0.00    +0.000 A 
ATOM     18  N   UNL     1      34.715  30.352  47.586  0.00  0.00    +0.000 NA
ATOM     19  H   UNL     1      33.192  30.937  46.205  0.00  0.00    +0.000 HD
ATOM     20  H   UNL     1      32.069  28.706  46.314  0.00  0.00    +0.000 HD
ATOM     21  H   UNL     1      33.077  26.947  47.810  0.00  0.00    +0.000 HD
ENDBRANCH  11  17
ENDBRANCH   1  11
BRANCH   6  22
ATOM     22  C   UNL     1      38.335  30.373  46.958  0.00  0.00    +0.000 C 
ATOM     23  C   UNL     1      38.806  30.713  45.766  0.00  0.00    +0.000 C 
BRANCH  23  24
ATOM     24  C   UNL     1      39.187  29.921  44.588  0.00  0.00    +0.000 C 
ATOM     25  H   UNL     1      38.561  30.229  43.721  0.00  0.00    +0.000 HD
ATOM     26  H   UNL     1      39.010  28.832  44.694  0.00  0.00    +0.000 HD
BRANCH  24  27
ATOM     27  C   UNL     1      40.618  30.117  44.223  0.00  0.00    +0.000 A 
ATOM     28  N   UNL     1      41.205  31.174  43.619  0.00  0.00    +0.000 NA
ATOM     29  C   UNL     1      42.523  30.892  43.498  0.00  0.00    +0.000 A 
ATOM     30  H   UNL     1      43.392  31.394  43.097  0.00  0.00    +0.000 HD
ATOM     31  N   UNL     1      42.714  29.667  44.031  0.00  0.00    +0.000 N 
ATOM     32  H   UNL     1      43.566  29.051  44.154  0.00  0.00    +0.000 HD
ATOM     33  N   UNL     1      41.568  29.185  44.475  0.00  0.00    +0.000 NA
ENDBRANCH  24  27
ENDBRANCH  23  24
ENDBRANCH   6  22
TORSDOF 5
