
 OpenBabel03272508573D

 38 41  0  0  1  0  0  0  0  0999 V2000
   37.9590   31.5620   45.0710 C   0  0  0  0  0  0  0  0  0  0  0  0
   36.9490   30.8690   45.2640 O   0  0  0  0  0  0  0  0  0  0  0  0
   38.4550   32.4660   46.1020 N   0  0  0  0  0  0  0  0  0  0  0  0
   39.1530   33.1960   45.9280 H   0  0  0  0  0  0  0  0  0  0  0  0
   38.7160   31.5170   43.7930 C   0  0  0  0  0  0  0  0  0  0  0  0
   39.7760   30.6590   43.6830 C   0  0  0  0  0  0  0  0  0  0  0  0
   40.4590   30.6470   42.4760 C   0  0  0  0  0  0  0  0  0  0  0  0
   40.0230   31.4960   41.4750 C   0  0  0  0  0  0  0  0  0  0  0  0
   38.9510   32.3600   41.5930 C   0  0  0  0  0  0  0  0  0  0  0  0
   38.3120   32.3410   42.7890 N   0  0  0  0  0  0  0  0  0  0  0  0
   40.0840   30.0100   44.4930 H   0  0  0  0  0  0  0  0  0  0  0  0
   41.3010   29.9940   42.3280 H   0  0  0  0  0  0  0  0  0  0  0  0
   40.5940   31.4510   40.5410 H   0  0  0  0  0  0  0  0  0  0  0  0
   38.5380   33.2230   40.5000 C   0  0  0  0  0  0  0  0  0  0  0  0
   38.0140   34.3330   40.7560 O   0  0  0  0  0  0  0  0  0  0  0  0
   38.7310   32.8080   39.1140 C   0  0  0  0  0  0  0  0  0  0  0  0
   39.6340   33.3090   38.2560 N   0  0  0  0  0  0  0  0  0  0  0  0
   39.5130   32.6710   37.0550 C   0  0  0  0  0  0  0  0  0  0  0  0
   40.0310   32.7570   36.1030 H   0  0  0  0  0  0  0  0  0  0  0  0
   38.5090   31.7650   37.2050 N   0  0  0  0  0  0  0  0  0  0  0  0
   38.0540   31.0530   36.5760 H   0  0  0  0  0  0  0  0  0  0  0  0
   38.0410   31.8570   38.4600 N   0  0  0  0  0  0  0  0  0  0  0  0
   38.5560   31.4230   48.3570 C   0  0  2  0  0  0  0  0  0  0  0  0
   38.8360   32.8710   48.5410 C   0  0  0  0  0  0  0  0  0  0  0  0
   37.9230   32.3060   47.4320 C   0  0  1  0  0  0  0  0  0  0  0  0
   39.4560   30.8390   48.0790 H   0  0  0  0  0  0  0  0  0  0  0  0
   39.7930   33.2960   48.2430 H   0  0  0  0  0  0  0  0  0  0  0  0
   38.3610   33.3520   49.4160 H   0  0  0  0  0  0  0  0  0  0  0  0
   36.8420   32.5980   47.5940 H   0  0  0  0  0  0  0  0  0  0  0  0
   35.9320   29.2370   49.8290 C   0  0  0  0  0  0  0  0  0  0  0  0
   36.2280   29.3180   51.2150 C   0  0  0  0  0  0  0  0  0  0  0  0
   37.3400   30.1460   51.6280 C   0  0  0  0  0  0  0  0  0  0  0  0
   38.0660   30.8200   50.6770 N   0  0  0  0  0  0  0  0  0  0  0  0
   37.7110   30.6840   49.3720 C   0  0  0  0  0  0  0  0  0  0  0  0
   36.6570   29.9070   48.9070 N   0  0  0  0  0  0  0  0  0  0  0  0
   35.0930   28.6070   49.5660 H   0  0  0  0  0  0  0  0  0  0  0  0
   35.6540   28.7880   51.9370 H   0  0  0  0  0  0  0  0  0  0  0  0
   37.5730   30.2140   52.6820 H   0  0  0  0  0  0  0  0  0  0  0  0
  1  2  2  0  0  0  0
  1  3  1  0  0  0  0
  3 25  1  0  0  0  0
  4  3  1  0  0  0  0
  5  1  1  0  0  0  0
  6  5  1  0  0  0  0
  6 11  1  0  0  0  0
  7  6  2  0  0  0  0
  8  9  2  0  0  0  0
  8  7  1  0  0  0  0
  9 10  1  0  0  0  0
 10  5  2  0  0  0  0
 12  7  1  0  0  0  0
 13  8  1  0  0  0  0
 14 15  2  0  0  0  0
 14  9  1  0  0  0  0
 16 14  1  0  0  0  0
 17 16  1  0  0  0  0
 18 20  1  0  0  0  0
 18 17  2  0  0  0  0
 19 18  1  0  0  0  0
 20 22  1  0  0  0  0
 21 20  1  0  0  0  0
 22 16  2  0  0  0  0
 23 26  1  6  0  0  0
 23 24  1  0  0  0  0
 23 34  1  0  0  0  0
 24 28  1  0  0  0  0
 25 29  1  1  0  0  0
 25 23  1  0  0  0  0
 25 24  1  0  0  0  0
 27 24  1  0  0  0  0
 30 31  1  0  0  0  0
 31 32  2  0  0  0  0
 31 37  1  0  0  0  0
 32 38  1  0  0  0  0
 33 32  1  0  0  0  0
 34 33  2  0  0  0  0
 35 34  1  0  0  0  0
 35 30  2  0  0  0  0
 36 30  1  0  0  0  0
M  END
>  <minimizedAffinity>
-5.39456701

>  <minimizedRMSD>
1.25799966

$$$$
