
 OpenBabel03272501093D

 38 41  0  0  1  0  0  0  0  0999 V2000
   37.2820   25.2330   31.1750 C   0  0  2  0  0  0  0  0  0  0  0  0
   35.9850   25.9840   31.5840 C   0  0  2  0  0  0  0  0  0  0  0  0
   34.9690   25.1980   30.9000 C   0  0  0  0  0  0  0  0  0  0  0  0
   35.3710   23.8670   30.9310 O   0  0  0  0  0  0  0  0  0  0  0  0
   36.6680   23.8100   31.3270 C   0  0  0  0  0  0  0  0  0  0  0  0
   37.5030   25.4130   30.1240 H   0  0  0  0  0  0  0  0  0  0  0  0
   35.9830   25.8620   32.7040 H   0  0  0  0  0  0  0  0  0  0  0  0
   34.0210   25.2320   31.5120 H   0  0  0  0  0  0  0  0  0  0  0  0
   34.7190   25.5280   29.8990 H   0  0  0  0  0  0  0  0  0  0  0  0
   37.2360   23.1930   30.5990 H   0  0  0  0  0  0  0  0  0  0  0  0
   36.8670   23.4380   32.3410 H   0  0  0  0  0  0  0  0  0  0  0  0
   35.5120   29.7120   31.8300 C   0  0  0  0  0  0  0  0  0  0  0  0
   35.3980   28.3320   32.1600 C   0  0  0  0  0  0  0  0  0  0  0  0
   36.0650   27.4010   31.3120 C   0  0  0  0  0  0  0  0  0  0  0  0
   36.7780   27.8710   30.2320 N   0  0  0  0  0  0  0  0  0  0  0  0
   36.8530   29.1750   29.9670 C   0  0  0  0  0  0  0  0  0  0  0  0
   36.2300   30.1020   30.7510 N   0  0  0  0  0  0  0  0  0  0  0  0
   35.0320   30.4710   32.4290 H   0  0  0  0  0  0  0  0  0  0  0  0
   34.8290   28.0540   33.0080 H   0  0  0  0  0  0  0  0  0  0  0  0
   37.4420   29.4090   29.0920 H   0  0  0  0  0  0  0  0  0  0  0  0
   38.2680   25.3780   32.0910 O   0  0  0  0  0  0  0  0  0  0  0  0
   38.1430   23.1280   34.1950 Cl  0  0  0  0  0  0  0  0  0  0  0  0
   38.3340   24.8290   34.5410 C   0  0  0  0  0  0  0  0  0  0  0  0
   38.3610   25.6360   33.4130 C   0  0  0  0  0  0  0  0  0  0  0  0
   38.5130   26.9880   33.6780 C   0  0  0  0  0  0  0  0  0  0  0  0
   38.6280   27.4870   34.9560 C   0  0  0  0  0  0  0  0  0  0  0  0
   38.5930   26.6280   36.0240 C   0  0  0  0  0  0  0  0  0  0  0  0
   38.4450   25.2680   35.8380 C   0  0  0  0  0  0  0  0  0  0  0  0
   38.5540   27.7660   32.9280 H   0  0  0  0  0  0  0  0  0  0  0  0
   38.7470   28.5290   35.1980 H   0  0  0  0  0  0  0  0  0  0  0  0
   38.6800   26.9740   37.0460 H   0  0  0  0  0  0  0  0  0  0  0  0
   38.3960   24.2650   36.8970 C   0  0  0  0  0  0  0  0  0  0  0  0
   37.3860   23.9530   37.7320 N   0  0  0  0  0  0  0  0  0  0  0  0
   37.8120   22.9490   38.5510 C   0  0  0  0  0  0  0  0  0  0  0  0
   37.0230   22.6560   39.2540 H   0  0  0  0  0  0  0  0  0  0  0  0
   39.0950   22.6470   38.2090 N   0  0  0  0  0  0  0  0  0  0  0  0
   39.4990   21.8900   38.7840 H   0  0  0  0  0  0  0  0  0  0  0  0
   39.4250   23.4510   37.2140 N   0  0  0  0  0  0  0  0  0  0  0  0
  1  6  1  6  0  0  0
  1  5  1  0  0  0  0
  1  2  1  0  0  0  0
  1 21  1  0  0  0  0
  2  7  1  1  0  0  0
  3  4  1  0  0  0  0
  3  8  1  0  0  0  0
  3  2  1  0  0  0  0
  4  5  1  0  0  0  0
  5 11  1  0  0  0  0
  9  3  1  0  0  0  0
 10  5  1  0  0  0  0
 12 13  1  0  0  0  0
 12 18  1  0  0  0  0
 13 19  1  0  0  0  0
 14  2  1  0  0  0  0
 14 13  2  0  0  0  0
 15 14  1  0  0  0  0
 16 15  2  0  0  0  0
 16 17  1  0  0  0  0
 17 12  2  0  0  0  0
 20 16  1  0  0  0  0
 21 24  1  0  0  0  0
 22 23  1  0  0  0  0
 23 28  1  0  0  0  0
 24 25  1  0  0  0  0
 24 23  2  0  0  0  0
 25 26  2  0  0  0  0
 26 30  1  0  0  0  0
 26 27  1  0  0  0  0
 27 31  1  0  0  0  0
 28 27  2  0  0  0  0
 28 32  1  0  0  0  0
 29 25  1  0  0  0  0
 32 38  2  0  0  0  0
 32 33  1  0  0  0  0
 33 34  2  0  0  0  0
 34 35  1  0  0  0  0
 36 34  1  0  0  0  0
 36 37  1  0  0  0  0
 38 36  1  0  0  0  0
M  END
>  <minimizedAffinity>
-6.06907034

$$$$

 OpenBabel03272501093D

 38 41  0  0  1  0  0  0  0  0999 V2000
   39.0590   25.8300   34.0250 C   0  0  2  0  0  0  0  0  0  0  0  0
   38.3560   25.4520   35.3580 C   0  0  2  0  0  0  0  0  0  0  0  0
   38.1910   26.7590   35.9770 C   0  0  0  0  0  0  0  0  0  0  0  0
   37.9260   27.6760   34.9660 O   0  0  0  0  0  0  0  0  0  0  0  0
   38.1880   27.0950   33.7670 C   0  0  0  0  0  0  0  0  0  0  0  0
   40.0850   26.1390   34.2170 H   0  0  0  0  0  0  0  0  0  0  0  0
   37.3940   24.9900   34.9980 H   0  0  0  0  0  0  0  0  0  0  0  0
   37.2560   26.7390   36.6080 H   0  0  0  0  0  0  0  0  0  0  0  0
   39.0050   27.0780   36.6180 H   0  0  0  0  0  0  0  0  0  0  0  0
   38.8540   27.7660   33.1850 H   0  0  0  0  0  0  0  0  0  0  0  0
   37.3270   26.8200   33.1440 H   0  0  0  0  0  0  0  0  0  0  0  0
   39.2800   22.8650   37.9350 C   0  0  0  0  0  0  0  0  0  0  0  0
   38.5170   23.8630   37.2660 C   0  0  0  0  0  0  0  0  0  0  0  0
   39.0750   24.4270   36.0830 C   0  0  0  0  0  0  0  0  0  0  0  0
   40.3040   23.9880   35.6460 N   0  0  0  0  0  0  0  0  0  0  0  0
   40.9790   23.0500   36.3110 C   0  0  0  0  0  0  0  0  0  0  0  0
   40.4840   22.4810   37.4480 N   0  0  0  0  0  0  0  0  0  0  0  0
   38.9180   22.3960   38.8370 H   0  0  0  0  0  0  0  0  0  0  0  0
   37.5790   24.1460   37.6690 H   0  0  0  0  0  0  0  0  0  0  0  0
   41.9280   22.7960   35.8630 H   0  0  0  0  0  0  0  0  0  0  0  0
   38.8130   24.9290   33.0440 O   0  0  0  0  0  0  0  0  0  0  0  0
   38.4810   21.9220   33.6370 Cl  0  0  0  0  0  0  0  0  0  0  0  0
   37.3720   22.9000   32.7070 C   0  0  0  0  0  0  0  0  0  0  0  0
   37.7540   24.2280   32.5880 C   0  0  0  0  0  0  0  0  0  0  0  0
   36.8790   25.0120   31.8520 C   0  0  0  0  0  0  0  0  0  0  0  0
   35.7280   24.5120   31.2860 C   0  0  0  0  0  0  0  0  0  0  0  0
   35.4150   23.1860   31.4460 C   0  0  0  0  0  0  0  0  0  0  0  0
   36.2380   22.3440   32.1670 C   0  0  0  0  0  0  0  0  0  0  0  0
   37.0100   26.0670   31.6520 H   0  0  0  0  0  0  0  0  0  0  0  0
   35.0280   25.0910   30.7100 H   0  0  0  0  0  0  0  0  0  0  0  0
   34.5220   22.7490   31.0210 H   0  0  0  0  0  0  0  0  0  0  0  0
   36.0050   20.9220   32.4010 C   0  0  0  0  0  0  0  0  0  0  0  0
   36.2990   19.8680   31.6170 N   0  0  0  0  0  0  0  0  0  0  0  0
   35.8900   18.7370   32.2610 C   0  0  0  0  0  0  0  0  0  0  0  0
   36.1080   17.8460   31.6610 H   0  0  0  0  0  0  0  0  0  0  0  0
   35.3410   19.1090   33.4490 N   0  0  0  0  0  0  0  0  0  0  0  0
   35.0010   18.3080   34.0060 H   0  0  0  0  0  0  0  0  0  0  0  0
   35.4190   20.4270   33.5120 N   0  0  0  0  0  0  0  0  0  0  0  0
  1  6  1  1  0  0  0
  1  2  1  0  0  0  0
  2  7  1  6  0  0  0
  2  3  1  0  0  0  0
  2 14  1  0  0  0  0
  3  8  1  0  0  0  0
  3  9  1  0  0  0  0
  4  3  1  0  0  0  0
  5  1  1  0  0  0  0
  5  4  1  0  0  0  0
 10  5  1  0  0  0  0
 11  5  1  0  0  0  0
 12 18  1  0  0  0  0
 13 19  1  0  0  0  0
 13 12  2  0  0  0  0
 14 13  1  0  0  0  0
 15 14  2  0  0  0  0
 15 16  1  0  0  0  0
 16 17  2  0  0  0  0
 17 12  1  0  0  0  0
 20 16  1  0  0  0  0
 21  1  1  0  0  0  0
 23 22  1  0  0  0  0
 24 23  1  0  0  0  0
 24 21  1  0  0  0  0
 25 24  2  0  0  0  0
 26 27  2  0  0  0  0
 26 25  1  0  0  0  0
 27 28  1  0  0  0  0
 28 32  1  0  0  0  0
 28 23  2  0  0  0  0
 29 25  1  0  0  0  0
 30 26  1  0  0  0  0
 31 27  1  0  0  0  0
 32 38  2  0  0  0  0
 33 34  2  0  0  0  0
 33 32  1  0  0  0  0
 34 36  1  0  0  0  0
 35 34  1  0  0  0  0
 36 38  1  0  0  0  0
 36 37  1  0  0  0  0
M  END
>  <minimizedAffinity>
-5.60640955

$$$$

 OpenBabel03272501093D

 38 41  0  0  1  0  0  0  0  0999 V2000
   36.7830   25.1370   32.3170 C   0  0  2  0  0  0  0  0  0  0  0  0
   36.2840   24.3460   31.0760 C   0  0  2  0  0  0  0  0  0  0  0  0
   34.9920   24.9710   30.8370 C   0  0  0  0  0  0  0  0  0  0  0  0
   35.1110   26.3220   31.1440 O   0  0  0  0  0  0  0  0  0  0  0  0
   36.2780   26.5190   31.8090 C   0  0  0  0  0  0  0  0  0  0  0  0
   36.2090   24.8520   33.1970 H   0  0  0  0  0  0  0  0  0  0  0  0
   37.0650   24.5970   30.3040 H   0  0  0  0  0  0  0  0  0  0  0  0
   34.7800   24.9400   29.7280 H   0  0  0  0  0  0  0  0  0  0  0  0
   34.1500   24.5090   31.3380 H   0  0  0  0  0  0  0  0  0  0  0  0
   36.0670   27.0870   32.7390 H   0  0  0  0  0  0  0  0  0  0  0  0
   37.0880   27.0200   31.2630 H   0  0  0  0  0  0  0  0  0  0  0  0
   35.4000   20.8470   32.1540 C   0  0  0  0  0  0  0  0  0  0  0  0
   35.2830   22.2550   31.9790 C   0  0  0  0  0  0  0  0  0  0  0  0
   36.3350   22.9160   31.2820 C   0  0  0  0  0  0  0  0  0  0  0  0
   37.3990   22.1760   30.8160 N   0  0  0  0  0  0  0  0  0  0  0  0
   37.4600   20.8580   31.0070 C   0  0  0  0  0  0  0  0  0  0  0  0
   36.4760   20.1830   31.6690 N   0  0  0  0  0  0  0  0  0  0  0  0
   34.6400   20.2840   32.6730 H   0  0  0  0  0  0  0  0  0  0  0  0
   34.4320   22.7500   32.3700 H   0  0  0  0  0  0  0  0  0  0  0  0
   38.3450   20.3990   30.5930 H   0  0  0  0  0  0  0  0  0  0  0  0
   38.1340   25.1700   32.3920 O   0  0  0  0  0  0  0  0  0  0  0  0
   38.5920   22.6800   34.1510 Cl  0  0  0  0  0  0  0  0  0  0  0  0
   39.4730   24.1830   34.2730 C   0  0  0  0  0  0  0  0  0  0  0  0
   39.0720   25.1490   33.3620 C   0  0  0  0  0  0  0  0  0  0  0  0
   39.7670   26.3450   33.4520 C   0  0  0  0  0  0  0  0  0  0  0  0
   40.7710   26.5550   34.3690 C   0  0  0  0  0  0  0  0  0  0  0  0
   41.1140   25.5530   35.2400 C   0  0  0  0  0  0  0  0  0  0  0  0
   40.4670   24.3340   35.2100 C   0  0  0  0  0  0  0  0  0  0  0  0
   39.5940   27.2110   32.8260 H   0  0  0  0  0  0  0  0  0  0  0  0
   41.3300   27.4690   34.4670 H   0  0  0  0  0  0  0  0  0  0  0  0
   41.8960   25.6720   35.9780 H   0  0  0  0  0  0  0  0  0  0  0  0
   40.7480   23.2000   36.0850 C   0  0  0  0  0  0  0  0  0  0  0  0
   41.7010   22.2550   35.9810 N   0  0  0  0  0  0  0  0  0  0  0  0
   41.5680   21.4030   37.0370 C   0  0  0  0  0  0  0  0  0  0  0  0
   42.3250   20.6110   36.9980 H   0  0  0  0  0  0  0  0  0  0  0  0
   40.5220   21.8350   37.7930 N   0  0  0  0  0  0  0  0  0  0  0  0
   40.3480   21.2420   38.6200 H   0  0  0  0  0  0  0  0  0  0  0  0
   40.0430   22.9160   37.2010 N   0  0  0  0  0  0  0  0  0  0  0  0
  1 21  1  0  0  0  0
  1  6  1  1  0  0  0
  2  7  1  6  0  0  0
  2 14  1  0  0  0  0
  2  1  1  0  0  0  0
  3  2  1  0  0  0  0
  3  4  1  0  0  0  0
  3  9  1  0  0  0  0
  4  5  1  0  0  0  0
  5  1  1  0  0  0  0
  5 10  1  0  0  0  0
  8  3  1  0  0  0  0
 11  5  1  0  0  0  0
 12 18  1  0  0  0  0
 13 12  1  0  0  0  0
 13 19  1  0  0  0  0
 14 13  2  0  0  0  0
 15 16  2  0  0  0  0
 15 14  1  0  0  0  0
 16 17  1  0  0  0  0
 17 12  2  0  0  0  0
 20 16  1  0  0  0  0
 21 24  1  0  0  0  0
 22 23  1  0  0  0  0
 23 28  1  0  0  0  0
 24 25  1  0  0  0  0
 24 23  2  0  0  0  0
 25 26  2  0  0  0  0
 26 30  1  0  0  0  0
 26 27  1  0  0  0  0
 27 31  1  0  0  0  0
 28 27  2  0  0  0  0
 28 32  1  0  0  0  0
 29 25  1  0  0  0  0
 32 38  2  0  0  0  0
 33 32  1  0  0  0  0
 33 34  2  0  0  0  0
 34 36  1  0  0  0  0
 35 34  1  0  0  0  0
 36 37  1  0  0  0  0
 38 36  1  0  0  0  0
M  END
>  <minimizedAffinity>
-5.57446289

$$$$

 OpenBabel03272501093D

 38 41  0  0  1  0  0  0  0  0999 V2000
   41.6410   25.0510   34.7080 C   0  0  2  0  0  0  0  0  0  0  0  0
   41.3060   24.0360   35.8340 C   0  0  2  0  0  0  0  0  0  0  0  0
   42.5140   23.2250   35.8590 C   0  0  0  0  0  0  0  0  0  0  0  0
   43.5930   24.0630   35.5960 O   0  0  0  0  0  0  0  0  0  0  0  0
   43.1220   25.2530   35.1420 C   0  0  0  0  0  0  0  0  0  0  0  0
   41.6200   24.5560   33.7390 H   0  0  0  0  0  0  0  0  0  0  0  0
   41.1850   24.7060   36.7310 H   0  0  0  0  0  0  0  0  0  0  0  0
   42.6770   22.8600   36.9150 H   0  0  0  0  0  0  0  0  0  0  0  0
   42.5050   22.3540   35.2150 H   0  0  0  0  0  0  0  0  0  0  0  0
   43.6480   25.5060   34.1970 H   0  0  0  0  0  0  0  0  0  0  0  0
   43.1850   26.1100   35.8250 H   0  0  0  0  0  0  0  0  0  0  0  0
   37.8340   22.6820   36.3830 C   0  0  0  0  0  0  0  0  0  0  0  0
   39.0610   23.3510   36.6580 C   0  0  0  0  0  0  0  0  0  0  0  0
   40.0350   23.3810   35.6200 C   0  0  0  0  0  0  0  0  0  0  0  0
   39.7510   22.7730   34.4170 N   0  0  0  0  0  0  0  0  0  0  0  0
   38.5860   22.1600   34.2110 C   0  0  0  0  0  0  0  0  0  0  0  0
   37.6230   22.1060   35.1770 N   0  0  0  0  0  0  0  0  0  0  0  0
   37.0530   22.6220   37.1250 H   0  0  0  0  0  0  0  0  0  0  0  0
   39.2010   23.7920   37.6110 H   0  0  0  0  0  0  0  0  0  0  0  0
   38.4910   21.7250   33.2270 H   0  0  0  0  0  0  0  0  0  0  0  0
   40.9820   26.2240   34.8640 O   0  0  0  0  0  0  0  0  0  0  0  0
   40.0440   26.6460   31.9570 Cl  0  0  0  0  0  0  0  0  0  0  0  0
   39.1040   26.9980   33.3860 C   0  0  0  0  0  0  0  0  0  0  0  0
   39.7590   26.7170   34.5760 C   0  0  0  0  0  0  0  0  0  0  0  0
   39.0200   26.9940   35.7160 C   0  0  0  0  0  0  0  0  0  0  0  0
   37.7420   27.5050   35.6690 C   0  0  0  0  0  0  0  0  0  0  0  0
   37.1590   27.7580   34.4540 C   0  0  0  0  0  0  0  0  0  0  0  0
   37.8330   27.5080   33.2760 C   0  0  0  0  0  0  0  0  0  0  0  0
   39.3640   26.8400   36.7310 H   0  0  0  0  0  0  0  0  0  0  0  0
   37.1410   27.7310   36.5320 H   0  0  0  0  0  0  0  0  0  0  0  0
   36.1580   28.1590   34.3670 H   0  0  0  0  0  0  0  0  0  0  0  0
   37.3120   27.7380   31.9320 C   0  0  0  0  0  0  0  0  0  0  0  0
   37.4050   28.8340   31.1550 N   0  0  0  0  0  0  0  0  0  0  0  0
   36.7600   28.5740   29.9820 C   0  0  0  0  0  0  0  0  0  0  0  0
   36.8070   29.4400   29.3100 H   0  0  0  0  0  0  0  0  0  0  0  0
   36.2710   27.3060   30.0450 N   0  0  0  0  0  0  0  0  0  0  0  0
   35.7640   27.0240   29.1910 H   0  0  0  0  0  0  0  0  0  0  0  0
   36.6140   26.8220   31.2270 N   0  0  0  0  0  0  0  0  0  0  0  0
  1  6  1  6  0  0  0
  1 21  1  0  0  0  0
  1  5  1  0  0  0  0
  1  2  1  0  0  0  0
  2  3  1  0  0  0  0
  2  7  1  1  0  0  0
  3  8  1  0  0  0  0
  4  3  1  0  0  0  0
  5  4  1  0  0  0  0
  5 11  1  0  0  0  0
  9  3  1  0  0  0  0
 10  5  1  0  0  0  0
 12 13  1  0  0  0  0
 12 18  1  0  0  0  0
 13 19  1  0  0  0  0
 14  2  1  0  0  0  0
 14 13  2  0  0  0  0
 15 14  1  0  0  0  0
 16 15  2  0  0  0  0
 16 17  1  0  0  0  0
 17 12  2  0  0  0  0
 20 16  1  0  0  0  0
 22 23  1  0  0  0  0
 23 24  1  0  0  0  0
 24 21  1  0  0  0  0
 24 25  2  0  0  0  0
 25 29  1  0  0  0  0
 26 25  1  0  0  0  0
 26 30  1  0  0  0  0
 27 26  2  0  0  0  0
 28 23  2  0  0  0  0
 28 27  1  0  0  0  0
 31 27  1  0  0  0  0
 32 28  1  0  0  0  0
 33 32  1  0  0  0  0
 34 36  1  0  0  0  0
 34 33  2  0  0  0  0
 35 34  1  0  0  0  0
 36 38  1  0  0  0  0
 37 36  1  0  0  0  0
 38 32  2  0  0  0  0
M  END
>  <minimizedAffinity>
-5.56507015

$$$$

 OpenBabel03272501093D

 38 41  0  0  1  0  0  0  0  0999 V2000
   38.3000   26.9320   32.0800 C   0  0  2  0  0  0  0  0  0  0  0  0
   37.7130   27.6610   30.8400 C   0  0  2  0  0  0  0  0  0  0  0  0
   38.9170   28.1970   30.2250 C   0  0  0  0  0  0  0  0  0  0  0  0
   39.9380   27.2720   30.4130 O   0  0  0  0  0  0  0  0  0  0  0  0
   39.5310   26.3510   31.3250 C   0  0  0  0  0  0  0  0  0  0  0  0
   38.6440   27.6580   32.8140 H   0  0  0  0  0  0  0  0  0  0  0  0
   37.2420   26.8130   30.2660 H   0  0  0  0  0  0  0  0  0  0  0  0
   38.7590   28.2360   29.1080 H   0  0  0  0  0  0  0  0  0  0  0  0
   39.2010   29.1920   30.5440 H   0  0  0  0  0  0  0  0  0  0  0  0
   40.3110   26.2610   32.1110 H   0  0  0  0  0  0  0  0  0  0  0  0
   39.2860   25.3490   30.9510 H   0  0  0  0  0  0  0  0  0  0  0  0
   35.4950   30.7020   30.9700 C   0  0  0  0  0  0  0  0  0  0  0  0
   36.5600   29.8490   30.5660 C   0  0  0  0  0  0  0  0  0  0  0  0
   36.6500   28.5740   31.1960 C   0  0  0  0  0  0  0  0  0  0  0  0
   35.7170   28.2310   32.1490 N   0  0  0  0  0  0  0  0  0  0  0  0
   34.7370   29.0680   32.4900 C   0  0  0  0  0  0  0  0  0  0  0  0
   34.6130   30.2980   31.9140 N   0  0  0  0  0  0  0  0  0  0  0  0
   35.3680   31.6820   30.5340 H   0  0  0  0  0  0  0  0  0  0  0  0
   37.2370   30.1900   29.8270 H   0  0  0  0  0  0  0  0  0  0  0  0
   34.0750   28.6770   33.2480 H   0  0  0  0  0  0  0  0  0  0  0  0
   37.5180   25.9030   32.4860 O   0  0  0  0  0  0  0  0  0  0  0  0
   38.3740   25.9320   35.4470 Cl  0  0  0  0  0  0  0  0  0  0  0  0
   38.0370   24.5010   34.5040 C   0  0  0  0  0  0  0  0  0  0  0  0
   37.6700   24.7630   33.1930 C   0  0  0  0  0  0  0  0  0  0  0  0
   37.4000   23.6330   32.4360 C   0  0  0  0  0  0  0  0  0  0  0  0
   37.4900   22.3580   32.9460 C   0  0  0  0  0  0  0  0  0  0  0  0
   37.8590   22.1760   34.2540 C   0  0  0  0  0  0  0  0  0  0  0  0
   38.1430   23.2530   35.0690 C   0  0  0  0  0  0  0  0  0  0  0  0
   37.1010   23.6400   31.3960 H   0  0  0  0  0  0  0  0  0  0  0  0
   37.2880   21.4600   32.3890 H   0  0  0  0  0  0  0  0  0  0  0  0
   37.9420   21.1930   34.6990 H   0  0  0  0  0  0  0  0  0  0  0  0
   38.5440   23.1780   36.4710 C   0  0  0  0  0  0  0  0  0  0  0  0
   37.8960   23.6080   37.5690 N   0  0  0  0  0  0  0  0  0  0  0  0
   38.6670   23.3160   38.6550 C   0  0  0  0  0  0  0  0  0  0  0  0
   38.1810   23.6480   39.5800 H   0  0  0  0  0  0  0  0  0  0  0  0
   39.7970   22.7000   38.2120 N   0  0  0  0  0  0  0  0  0  0  0  0
   40.4430   22.4420   38.9740 H   0  0  0  0  0  0  0  0  0  0  0  0
   39.7020   22.6290   36.8950 N   0  0  0  0  0  0  0  0  0  0  0  0
  1 21  1  0  0  0  0
  1  6  1  1  0  0  0
  2  7  1  6  0  0  0
  2 14  1  0  0  0  0
  2  1  1  0  0  0  0
  3  4  1  0  0  0  0
  3  9  1  0  0  0  0
  3  2  1  0  0  0  0
  4  5  1  0  0  0  0
  5  1  1  0  0  0  0
  5 10  1  0  0  0  0
  8  3  1  0  0  0  0
 11  5  1  0  0  0  0
 12 17  1  0  0  0  0
 13 12  2  0  0  0  0
 13 14  1  0  0  0  0
 14 15  2  0  0  0  0
 15 16  1  0  0  0  0
 16 20  1  0  0  0  0
 17 16  2  0  0  0  0
 18 12  1  0  0  0  0
 19 13  1  0  0  0  0
 21 24  1  0  0  0  0
 23 28  1  0  0  0  0
 23 22  1  0  0  0  0
 24 23  2  0  0  0  0
 25 26  2  0  0  0  0
 25 24  1  0  0  0  0
 26 27  1  0  0  0  0
 27 31  1  0  0  0  0
 27 28  2  0  0  0  0
 28 32  1  0  0  0  0
 29 25  1  0  0  0  0
 30 26  1  0  0  0  0
 32 38  2  0  0  0  0
 32 33  1  0  0  0  0
 33 34  2  0  0  0  0
 34 35  1  0  0  0  0
 36 34  1  0  0  0  0
 36 37  1  0  0  0  0
 38 36  1  0  0  0  0
M  END
>  <minimizedAffinity>
-5.41390228

$$$$

 OpenBabel03272501093D

 38 41  0  0  1  0  0  0  0  0999 V2000
   39.0310   24.2040   35.9010 C   0  0  2  0  0  0  0  0  0  0  0  0
   39.4580   22.9720   36.7450 C   0  0  2  0  0  0  0  0  0  0  0  0
   38.9570   23.3360   38.0610 C   0  0  0  0  0  0  0  0  0  0  0  0
   37.7610   24.0230   37.8830 O   0  0  0  0  0  0  0  0  0  0  0  0
   37.6330   24.3490   36.5720 C   0  0  0  0  0  0  0  0  0  0  0  0
   39.6410   25.0670   36.1620 H   0  0  0  0  0  0  0  0  0  0  0  0
   38.8880   22.1350   36.2510 H   0  0  0  0  0  0  0  0  0  0  0  0
   38.6730   22.3910   38.6080 H   0  0  0  0  0  0  0  0  0  0  0  0
   39.6510   23.8770   38.6920 H   0  0  0  0  0  0  0  0  0  0  0  0
   37.4090   25.4340   36.4950 H   0  0  0  0  0  0  0  0  0  0  0  0
   36.8920   23.7900   35.9860 H   0  0  0  0  0  0  0  0  0  0  0  0
   42.7780   21.1980   36.8920 C   0  0  0  0  0  0  0  0  0  0  0  0
   41.3830   21.4270   37.0600 C   0  0  0  0  0  0  0  0  0  0  0  0
   40.8650   22.6710   36.5970 C   0  0  0  0  0  0  0  0  0  0  0  0
   41.7220   23.5790   36.0170 N   0  0  0  0  0  0  0  0  0  0  0  0
   43.0210   23.3140   35.8830 C   0  0  0  0  0  0  0  0  0  0  0  0
   43.5610   22.1370   36.3120 N   0  0  0  0  0  0  0  0  0  0  0  0
   43.2370   20.2780   37.2200 H   0  0  0  0  0  0  0  0  0  0  0  0
   40.7930   20.6760   37.5190 H   0  0  0  0  0  0  0  0  0  0  0  0
   43.5810   24.1090   35.4120 H   0  0  0  0  0  0  0  0  0  0  0  0
   38.8530   23.8930   34.5950 O   0  0  0  0  0  0  0  0  0  0  0  0
   38.4640   26.8390   33.7770 Cl  0  0  0  0  0  0  0  0  0  0  0  0
   37.6650   25.4700   33.0430 C   0  0  0  0  0  0  0  0  0  0  0  0
   38.0160   24.2490   33.5980 C   0  0  0  0  0  0  0  0  0  0  0  0
   37.3870   23.1560   33.0220 C   0  0  0  0  0  0  0  0  0  0  0  0
   36.4890   23.2750   31.9850 C   0  0  0  0  0  0  0  0  0  0  0  0
   36.1900   24.5170   31.4880 C   0  0  0  0  0  0  0  0  0  0  0  0
   36.7770   25.6520   32.0110 C   0  0  0  0  0  0  0  0  0  0  0  0
   37.5340   22.1260   33.3210 H   0  0  0  0  0  0  0  0  0  0  0  0
   35.9830   22.4500   31.5150 H   0  0  0  0  0  0  0  0  0  0  0  0
   35.4910   24.6610   30.6750 H   0  0  0  0  0  0  0  0  0  0  0  0
   36.5350   27.0200   31.5610 C   0  0  0  0  0  0  0  0  0  0  0  0
   37.1290   27.7110   30.5700 N   0  0  0  0  0  0  0  0  0  0  0  0
   36.5670   28.9530   30.5270 C   0  0  0  0  0  0  0  0  0  0  0  0
   37.0180   29.5590   29.7320 H   0  0  0  0  0  0  0  0  0  0  0  0
   35.6200   29.0170   31.5030 N   0  0  0  0  0  0  0  0  0  0  0  0
   35.1400   29.9300   31.5420 H   0  0  0  0  0  0  0  0  0  0  0  0
   35.6190   27.8440   32.1120 N   0  0  0  0  0  0  0  0  0  0  0  0
  1  6  1  1  0  0  0
  1  5  1  0  0  0  0
  1  2  1  0  0  0  0
  2  7  1  6  0  0  0
  2  3  1  0  0  0  0
  3  8  1  0  0  0  0
  3  9  1  0  0  0  0
  4  3  1  0  0  0  0
  5  4  1  0  0  0  0
 10  5  1  0  0  0  0
 11  5  1  0  0  0  0
 12 13  1  0  0  0  0
 12 18  1  0  0  0  0
 13 19  1  0  0  0  0
 14  2  1  0  0  0  0
 14 13  2  0  0  0  0
 15 14  1  0  0  0  0
 16 15  2  0  0  0  0
 16 17  1  0  0  0  0
 17 12  2  0  0  0  0
 20 16  1  0  0  0  0
 21  1  1  0  0  0  0
 23 24  1  0  0  0  0
 23 22  1  0  0  0  0
 24 21  1  0  0  0  0
 25 29  1  0  0  0  0
 25 24  2  0  0  0  0
 26 25  1  0  0  0  0
 27 26  2  0  0  0  0
 27 28  1  0  0  0  0
 28 23  2  0  0  0  0
 30 26  1  0  0  0  0
 31 27  1  0  0  0  0
 32 28  1  0  0  0  0
 32 38  2  0  0  0  0
 33 32  1  0  0  0  0
 34 33  2  0  0  0  0
 34 36  1  0  0  0  0
 35 34  1  0  0  0  0
 36 37  1  0  0  0  0
 36 38  1  0  0  0  0
M  END
>  <minimizedAffinity>
-5.32066679

$$$$

 OpenBabel03272501093D

 38 41  0  0  1  0  0  0  0  0999 V2000
   41.6890   22.2060   35.1760 C   0  0  2  0  0  0  0  0  0  0  0  0
   41.2580   22.3720   36.6590 C   0  0  2  0  0  0  0  0  0  0  0  0
   41.8660   21.1990   37.2680 C   0  0  0  0  0  0  0  0  0  0  0  0
   43.0810   20.9710   36.6300 O   0  0  0  0  0  0  0  0  0  0  0  0
   43.1350   21.7320   35.5070 C   0  0  0  0  0  0  0  0  0  0  0  0
   41.1430   21.3840   34.7170 H   0  0  0  0  0  0  0  0  0  0  0  0
   41.7510   23.3440   36.9430 H   0  0  0  0  0  0  0  0  0  0  0  0
   42.1390   21.4510   38.3340 H   0  0  0  0  0  0  0  0  0  0  0  0
   41.2440   20.3120   37.2960 H   0  0  0  0  0  0  0  0  0  0  0  0
   43.4080   21.0810   34.6490 H   0  0  0  0  0  0  0  0  0  0  0  0
   43.8050   22.6010   35.5220 H   0  0  0  0  0  0  0  0  0  0  0  0
   37.8950   23.4250   37.9870 C   0  0  0  0  0  0  0  0  0  0  0  0
   39.3090   23.2810   37.9100 C   0  0  0  0  0  0  0  0  0  0  0  0
   39.8320   22.5630   36.7950 C   0  0  0  0  0  0  0  0  0  0  0  0
   38.9610   22.0530   35.8580 N   0  0  0  0  0  0  0  0  0  0  0  0
   37.6430   22.2170   35.9780 C   0  0  0  0  0  0  0  0  0  0  0  0
   37.0980   22.8970   37.0290 N   0  0  0  0  0  0  0  0  0  0  0  0
   37.4320   23.9570   38.8040 H   0  0  0  0  0  0  0  0  0  0  0  0
   39.9090   23.7020   38.6730 H   0  0  0  0  0  0  0  0  0  0  0  0
   37.0740   21.7690   35.1770 H   0  0  0  0  0  0  0  0  0  0  0  0
   41.7620   23.3930   34.5280 O   0  0  0  0  0  0  0  0  0  0  0  0
   39.4040   23.0580   32.5710 Cl  0  0  0  0  0  0  0  0  0  0  0  0
   39.8190   24.5300   33.4140 C   0  0  0  0  0  0  0  0  0  0  0  0
   40.9280   24.4140   34.2380 C   0  0  0  0  0  0  0  0  0  0  0  0
   41.2650   25.5780   34.9120 C   0  0  0  0  0  0  0  0  0  0  0  0
   40.5570   26.7500   34.7730 C   0  0  0  0  0  0  0  0  0  0  0  0
   39.4690   26.7890   33.9380 C   0  0  0  0  0  0  0  0  0  0  0  0
   39.0730   25.6690   33.2350 C   0  0  0  0  0  0  0  0  0  0  0  0
   42.0970   25.6800   35.5960 H   0  0  0  0  0  0  0  0  0  0  0  0
   40.7900   27.6700   35.2790 H   0  0  0  0  0  0  0  0  0  0  0  0
   38.8820   27.6870   33.7970 H   0  0  0  0  0  0  0  0  0  0  0  0
   37.9360   25.5960   32.3220 C   0  0  0  0  0  0  0  0  0  0  0  0
   36.6660   25.2240   32.5680 N   0  0  0  0  0  0  0  0  0  0  0  0
   35.9660   25.3170   31.4010 C   0  0  0  0  0  0  0  0  0  0  0  0
   34.9200   25.0240   31.5480 H   0  0  0  0  0  0  0  0  0  0  0  0
   36.8210   25.7530   30.4350 N   0  0  0  0  0  0  0  0  0  0  0  0
   36.3710   25.8530   29.5110 H   0  0  0  0  0  0  0  0  0  0  0  0
   38.0000   25.9130   31.0110 N   0  0  0  0  0  0  0  0  0  0  0  0
  1  6  1  6  0  0  0
  1  5  1  0  0  0  0
  1  2  1  0  0  0  0
  2 14  1  0  0  0  0
  2  7  1  1  0  0  0
  2  3  1  0  0  0  0
  3  9  1  0  0  0  0
  3  8  1  0  0  0  0
  4  3  1  0  0  0  0
  5 11  1  0  0  0  0
  5  4  1  0  0  0  0
 10  5  1  0  0  0  0
 12 18  1  0  0  0  0
 13 12  1  0  0  0  0
 13 19  1  0  0  0  0
 14 13  2  0  0  0  0
 15 16  2  0  0  0  0
 15 14  1  0  0  0  0
 16 17  1  0  0  0  0
 17 12  2  0  0  0  0
 20 16  1  0  0  0  0
 21  1  1  0  0  0  0
 22 23  1  0  0  0  0
 23 24  1  0  0  0  0
 24 21  1  0  0  0  0
 24 25  2  0  0  0  0
 25 29  1  0  0  0  0
 26 25  1  0  0  0  0
 26 30  1  0  0  0  0
 27 26  2  0  0  0  0
 28 23  2  0  0  0  0
 28 27  1  0  0  0  0
 31 27  1  0  0  0  0
 32 33  1  0  0  0  0
 32 28  1  0  0  0  0
 34 35  1  0  0  0  0
 34 33  2  0  0  0  0
 36 38  1  0  0  0  0
 36 34  1  0  0  0  0
 37 36  1  0  0  0  0
 38 32  2  0  0  0  0
M  END
>  <minimizedAffinity>
-5.29646397

$$$$

 OpenBabel03272501093D

 38 41  0  0  1  0  0  0  0  0999 V2000
   36.1140   29.2710   32.8840 C   0  0  2  0  0  0  0  0  0  0  0  0
   34.7860   30.0510   33.0810 C   0  0  2  0  0  0  0  0  0  0  0  0
   34.7790   30.9110   31.9080 C   0  0  0  0  0  0  0  0  0  0  0  0
   35.3370   30.1950   30.8540 O   0  0  0  0  0  0  0  0  0  0  0  0
   35.9320   29.0790   31.3490 C   0  0  0  0  0  0  0  0  0  0  0  0
   36.9640   29.9280   33.0610 H   0  0  0  0  0  0  0  0  0  0  0  0
   34.0190   29.2260   33.0510 H   0  0  0  0  0  0  0  0  0  0  0  0
   33.7070   31.0920   31.6040 H   0  0  0  0  0  0  0  0  0  0  0  0
   35.2450   31.8810   32.0370 H   0  0  0  0  0  0  0  0  0  0  0  0
   36.9710   29.0270   30.9600 H   0  0  0  0  0  0  0  0  0  0  0  0
   35.4330   28.1200   31.1620 H   0  0  0  0  0  0  0  0  0  0  0  0
   33.4470   31.2880   36.3780 C   0  0  0  0  0  0  0  0  0  0  0  0
   33.4640   30.6630   35.0990 C   0  0  0  0  0  0  0  0  0  0  0  0
   34.7000   30.6610   34.3900 C   0  0  0  0  0  0  0  0  0  0  0  0
   35.8030   31.2530   34.9630 N   0  0  0  0  0  0  0  0  0  0  0  0
   35.7330   31.8260   36.1650 C   0  0  0  0  0  0  0  0  0  0  0  0
   34.5710   31.8510   36.8810 N   0  0  0  0  0  0  0  0  0  0  0  0
   32.5450   31.3250   36.9700 H   0  0  0  0  0  0  0  0  0  0  0  0
   32.5710   30.2320   34.7280 H   0  0  0  0  0  0  0  0  0  0  0  0
   36.6670   32.2520   36.4990 H   0  0  0  0  0  0  0  0  0  0  0  0
   36.0870   28.0540   33.4780 O   0  0  0  0  0  0  0  0  0  0  0  0
   36.6580   25.2460   32.3420 Cl  0  0  0  0  0  0  0  0  0  0  0  0
   37.4020   25.9340   33.7640 C   0  0  0  0  0  0  0  0  0  0  0  0
   36.9700   27.2180   34.0620 C   0  0  0  0  0  0  0  0  0  0  0  0
   37.5560   27.7730   35.1890 C   0  0  0  0  0  0  0  0  0  0  0  0
   38.4890   27.1040   35.9490 C   0  0  0  0  0  0  0  0  0  0  0  0
   38.8680   25.8350   35.5930 C   0  0  0  0  0  0  0  0  0  0  0  0
   38.3280   25.2180   34.4830 C   0  0  0  0  0  0  0  0  0  0  0  0
   37.3440   28.7610   35.5760 H   0  0  0  0  0  0  0  0  0  0  0  0
   38.9630   27.5030   36.8280 H   0  0  0  0  0  0  0  0  0  0  0  0
   39.5970   25.2710   36.1590 H   0  0  0  0  0  0  0  0  0  0  0  0
   38.6570   23.8750   34.0120 C   0  0  0  0  0  0  0  0  0  0  0  0
   38.0600   22.7020   34.2920 N   0  0  0  0  0  0  0  0  0  0  0  0
   38.7240   21.7200   33.6170 C   0  0  0  0  0  0  0  0  0  0  0  0
   38.2740   20.7390   33.8130 H   0  0  0  0  0  0  0  0  0  0  0  0
   39.7340   22.3040   32.9170 N   0  0  0  0  0  0  0  0  0  0  0  0
   40.2930   21.6280   32.3720 H   0  0  0  0  0  0  0  0  0  0  0  0
   39.6760   23.6000   33.1700 N   0  0  0  0  0  0  0  0  0  0  0  0
  1  6  1  1  0  0  0
  1  2  1  0  0  0  0
  1 21  1  0  0  0  0
  2  7  1  6  0  0  0
  2 14  1  0  0  0  0
  3  9  1  0  0  0  0
  3  2  1  0  0  0  0
  4  5  1  0  0  0  0
  4  3  1  0  0  0  0
  5  1  1  0  0  0  0
  8  3  1  0  0  0  0
 10  5  1  0  0  0  0
 11  5  1  0  0  0  0
 12 17  1  0  0  0  0
 12 18  1  0  0  0  0
 13 12  2  0  0  0  0
 14 15  2  0  0  0  0
 14 13  1  0  0  0  0
 15 16  1  0  0  0  0
 16 20  1  0  0  0  0
 16 17  2  0  0  0  0
 19 13  1  0  0  0  0
 21 24  1  0  0  0  0
 22 23  1  0  0  0  0
 23 24  2  0  0  0  0
 23 28  1  0  0  0  0
 24 25  1  0  0  0  0
 25 29  1  0  0  0  0
 25 26  2  0  0  0  0
 26 30  1  0  0  0  0
 27 26  1  0  0  0  0
 27 31  1  0  0  0  0
 28 27  2  0  0  0  0
 32 33  1  0  0  0  0
 32 28  1  0  0  0  0
 34 35  1  0  0  0  0
 34 33  2  0  0  0  0
 36 38  1  0  0  0  0
 36 34  1  0  0  0  0
 37 36  1  0  0  0  0
 38 32  2  0  0  0  0
M  END
>  <minimizedAffinity>
-5.18451738

$$$$

 OpenBabel03272501093D

 38 41  0  0  1  0  0  0  0  0999 V2000
   39.3610   25.9300   32.9890 C   0  0  2  0  0  0  0  0  0  0  0  0
   39.3640   25.8780   34.5420 C   0  0  2  0  0  0  0  0  0  0  0  0
   40.7480   26.2110   34.8380 C   0  0  0  0  0  0  0  0  0  0  0  0
   41.1710   27.1440   33.8970 O   0  0  0  0  0  0  0  0  0  0  0  0
   40.2580   27.1990   32.8940 C   0  0  0  0  0  0  0  0  0  0  0  0
   39.9060   25.0790   32.5850 H   0  0  0  0  0  0  0  0  0  0  0  0
   38.6290   26.6900   34.8090 H   0  0  0  0  0  0  0  0  0  0  0  0
   40.7800   26.7570   35.8260 H   0  0  0  0  0  0  0  0  0  0  0  0
   41.4250   25.3690   34.9140 H   0  0  0  0  0  0  0  0  0  0  0  0
   40.7860   27.0830   31.9240 H   0  0  0  0  0  0  0  0  0  0  0  0
   39.6180   28.0900   32.8460 H   0  0  0  0  0  0  0  0  0  0  0  0
   37.7040   23.3360   36.7720 C   0  0  0  0  0  0  0  0  0  0  0  0
   38.2050   24.5940   36.3310 C   0  0  0  0  0  0  0  0  0  0  0  0
   38.8250   24.6360   35.0480 C   0  0  0  0  0  0  0  0  0  0  0  0
   38.9080   23.4790   34.3060 N   0  0  0  0  0  0  0  0  0  0  0  0
   38.4220   22.3260   34.7670 C   0  0  0  0  0  0  0  0  0  0  0  0
   37.8210   22.2390   35.9880 N   0  0  0  0  0  0  0  0  0  0  0  0
   37.2240   23.2330   37.7330 H   0  0  0  0  0  0  0  0  0  0  0  0
   38.1030   25.4360   36.9640 H   0  0  0  0  0  0  0  0  0  0  0  0
   38.5520   21.4970   34.0870 H   0  0  0  0  0  0  0  0  0  0  0  0
   38.1370   26.2270   32.4900 O   0  0  0  0  0  0  0  0  0  0  0  0
   36.6520   27.5860   34.8250 Cl  0  0  0  0  0  0  0  0  0  0  0  0
   36.6320   28.1220   33.1630 C   0  0  0  0  0  0  0  0  0  0  0  0
   37.3850   27.3330   32.3060 C   0  0  0  0  0  0  0  0  0  0  0  0
   37.3760   27.7510   30.9840 C   0  0  0  0  0  0  0  0  0  0  0  0
   36.6760   28.8580   30.5590 C   0  0  0  0  0  0  0  0  0  0  0  0
   35.9520   29.5900   31.4640 C   0  0  0  0  0  0  0  0  0  0  0  0
   35.9150   29.2350   32.7980 C   0  0  0  0  0  0  0  0  0  0  0  0
   37.9030   27.2620   30.1750 H   0  0  0  0  0  0  0  0  0  0  0  0
   36.6460   29.2100   29.5430 H   0  0  0  0  0  0  0  0  0  0  0  0
   35.3880   30.4670   31.1770 H   0  0  0  0  0  0  0  0  0  0  0  0
   35.1810   29.9390   33.8450 C   0  0  0  0  0  0  0  0  0  0  0  0
   35.5890   30.9380   34.6510 N   0  0  0  0  0  0  0  0  0  0  0  0
   34.5510   31.2690   35.4710 C   0  0  0  0  0  0  0  0  0  0  0  0
   34.8330   32.0820   36.1500 H   0  0  0  0  0  0  0  0  0  0  0  0
   33.4990   30.4640   35.1580 N   0  0  0  0  0  0  0  0  0  0  0  0
   32.6620   30.6480   35.7350 H   0  0  0  0  0  0  0  0  0  0  0  0
   33.9010   29.6710   34.1790 N   0  0  0  0  0  0  0  0  0  0  0  0
  1  6  1  6  0  0  0
  1  2  1  0  0  0  0
  2  7  1  1  0  0  0
  2  3  1  0  0  0  0
  2 14  1  0  0  0  0
  3  9  1  0  0  0  0
  3  8  1  0  0  0  0
  4  3  1  0  0  0  0
  5  1  1  0  0  0  0
  5  4  1  0  0  0  0
 10  5  1  0  0  0  0
 11  5  1  0  0  0  0
 12 18  1  0  0  0  0
 13 12  1  0  0  0  0
 13 19  1  0  0  0  0
 14 13  2  0  0  0  0
 15 16  2  0  0  0  0
 15 14  1  0  0  0  0
 16 17  1  0  0  0  0
 17 12  2  0  0  0  0
 20 16  1  0  0  0  0
 21  1  1  0  0  0  0
 23 22  1  0  0  0  0
 24 21  1  0  0  0  0
 24 23  2  0  0  0  0
 25 24  1  0  0  0  0
 26 25  2  0  0  0  0
 26 27  1  0  0  0  0
 27 28  2  0  0  0  0
 28 23  1  0  0  0  0
 28 32  1  0  0  0  0
 29 25  1  0  0  0  0
 30 26  1  0  0  0  0
 31 27  1  0  0  0  0
 32 38  2  0  0  0  0
 32 33  1  0  0  0  0
 33 34  2  0  0  0  0
 34 35  1  0  0  0  0
 36 34  1  0  0  0  0
 36 37  1  0  0  0  0
 38 36  1  0  0  0  0
M  END
>  <minimizedAffinity>
-5.17875147

$$$$
