
     RDKit          3D

 38 41  0  0  0  0  0  0  0  0999 V2000
   38.4497   31.1235   48.1679 C   0  0  2  0  0  0  0  0  0  0  0  0
   38.6861   32.5887   48.0882 C   0  0  0  0  0  0  0  0  0  0  0  0
   38.0865   31.7504   46.9391 C   0  0  1  0  0  0  0  0  0  0  0  0
   35.0876   30.2530   49.5000 C   0  0  0  0  0  0  0  0  0  0  0  0
   35.4176   29.5567   50.6923 C   0  0  0  0  0  0  0  0  0  0  0  0
   36.8163   29.4038   51.0295 C   0  0  0  0  0  0  0  0  0  0  0  0
   37.7700   29.9315   50.1938 N   0  0  0  0  0  0  0  0  0  0  0  0
   37.3642   30.5830   49.0723 C   0  0  0  0  0  0  0  0  0  0  0  0
   36.0397   30.7656   48.6899 N   0  0  0  0  0  0  0  0  0  0  0  0
   38.3521   31.8971   44.4824 C   0  0  0  0  0  0  0  0  0  0  0  0
   37.2358   32.4304   44.3842 O   0  0  0  0  0  0  0  0  0  0  0  0
   38.9479   31.6420   45.7877 N   0  0  0  0  0  0  0  0  0  0  0  0
   39.1406   31.4908   43.2900 C   0  0  0  0  0  0  0  0  0  0  0  0
   40.1361   30.5652   43.4403 C   0  0  0  0  0  0  0  0  0  0  0  0
   40.8518   30.2131   42.3049 C   0  0  0  0  0  0  0  0  0  0  0  0
   40.5102   30.8189   41.1093 C   0  0  0  0  0  0  0  0  0  0  0  0
   39.5028   31.7531   40.9652 C   0  0  0  0  0  0  0  0  0  0  0  0
   38.8289   32.0687   42.0981 N   0  0  0  0  0  0  0  0  0  0  0  0
   39.1882   32.3484   39.6774 C   0  0  0  0  0  0  0  0  0  0  0  0
   38.8400   33.5511   39.6225 O   0  0  0  0  0  0  0  0  0  0  0  0
   39.3861   30.5385   48.2672 H   0  0  0  0  0  0  0  0  0  0  0  0
   39.6913   32.9846   47.9572 H   0  0  0  0  0  0  0  0  0  0  0  0
   38.0039   33.2254   48.6816 H   0  0  0  0  0  0  0  0  0  0  0  0
   37.0036   32.0174   46.7499 H   0  0  0  0  0  0  0  0  0  0  0  0
   34.0319   30.3437   49.2875 H   0  0  0  0  0  0  0  0  0  0  0  0
   34.6640   29.1553   51.3259 H   0  0  0  0  0  0  0  0  0  0  0  0
   37.0773   28.8753   51.9354 H   0  0  0  0  0  0  0  0  0  0  0  0
   39.9327   31.3937   45.9235 H   0  0  0  0  0  0  0  0  0  0  0  0
   40.3712   30.1147   44.3958 H   0  0  0  0  0  0  0  0  0  0  0  0
   41.6468   29.4908   42.3589 H   0  0  0  0  0  0  0  0  0  0  0  0
   41.1031   30.5088   40.2423 H   0  0  0  0  0  0  0  0  0  0  0  0
   39.2751   31.5571   38.4542 C   0  0  0  0  0  0  0  0  0  0  0  0
   39.5719   32.0221   37.2295 N   0  0  0  0  0  0  0  0  0  0  0  0
   39.5581   30.9859   36.3406 C   0  0  0  0  0  0  0  0  0  0  0  0
   39.7372   30.9114   35.2709 H   0  0  0  0  0  0  0  0  0  0  0  0
   39.2439   29.8733   37.0582 N   0  0  0  0  0  0  0  0  0  0  0  0
   39.1156   28.8538   36.8249 H   0  0  0  0  0  0  0  0  0  0  0  0
   39.0742   30.2322   38.3409 N   0  0  0  0  0  0  0  0  0  0  0  0
  1  8  1  0
  2  1  1  0
  3  2  1  0
  3  1  1  0
  4  5  2  0
  5  6  1  0
  7  6  2  0
  8  7  1  0
  9  8  2  0
  9  4  1  0
 10 12  1  0
 11 10  2  0
 12  3  1  0
 13 14  2  0
 13 10  1  0
 15 14  1  0
 16 15  2  0
 17 16  1  0
 17 18  2  0
 18 13  1  0
 19 17  1  0
 20 19  2  0
  1 21  1  6
  2 22  1  0
  2 23  1  0
  3 24  1  6
  4 25  1  0
  5 26  1  0
  6 27  1  0
 12 28  1  0
 14 29  1  0
 15 30  1  0
 16 31  1  0
 32 33  1  0
 33 34  2  0
 34 35  1  0
 34 36  1  0
 36 37  1  0
 36 38  1  0
 38 32  2  0
 19 32  1  0
M  ISO  8  21  13  22  13  23  13  24  13  25  14  26  14  27  14  29  14
M  ISO  4  30  14  31  14  35  14  37   9
M  END
>  <DihAtoms>  (1) 
16,18,31,32

>  <DihDeg>  (1) 
179.99991243478507

$$$$
