
     RDKit          3D

 36 38  0  0  0  0  0  0  0  0999 V2000
   36.0751   30.6901   49.0670 C   0  0  2  0  0  0  0  0  0  0  0  0
   37.0184   31.6419   49.7440 C   0  0  0  0  0  0  0  0  0  0  0  0
   38.0511   30.9363   50.5975 C   0  0  0  0  0  0  0  0  0  0  0  0
   37.3573   30.0725   51.6484 C   0  0  0  0  0  0  0  0  0  0  0  0
   36.1141   29.3815   51.1478 C   0  0  0  0  0  0  0  0  0  0  0  0
   36.1918   29.3055   49.6112 C   0  0  1  0  0  0  0  0  0  0  0  0
   36.3204   30.6505   47.6006 C   0  0  0  0  0  0  0  0  0  0  0  0
   37.5748   31.1180   47.1810 C   0  0  0  0  0  0  0  0  0  0  0  0
   37.8295   31.0841   45.8031 C   0  0  0  0  0  0  0  0  0  0  0  0
   36.8523   30.6023   44.9601 N   0  0  0  0  0  0  0  0  0  0  0  0
   35.6428   30.1567   45.4251 C   0  0  0  0  0  0  0  0  0  0  0  0
   35.3981   30.1899   46.7458 N   0  0  0  0  0  0  0  0  0  0  0  0
   33.9357   28.1937   49.2292 C   0  0  0  0  0  0  0  0  0  0  0  0
   33.1161   28.8649   49.9516 O   0  0  0  0  0  0  0  0  0  0  0  0
   35.3305   28.3489   49.0155 N   0  0  0  0  0  0  0  0  0  0  0  0
   34.9895   30.9732   49.1747 H   0  0  0  0  0  0  0  0  0  0  0  0
   36.3655   32.1716   50.5164 H   0  0  0  0  0  0  0  0  0  0  0  0
   37.4309   32.4329   49.1476 H   0  0  0  0  0  0  0  0  0  0  0  0
   38.6327   31.7011   51.1160 H   0  0  0  0  0  0  0  0  0  0  0  0
   38.7193   30.2770   50.0277 H   0  0  0  0  0  0  0  0  0  0  0  0
   38.0974   29.3103   51.9839 H   0  0  0  0  0  0  0  0  0  0  0  0
   37.1675   30.7121   52.5190 H   0  0  0  0  0  0  0  0  0  0  0  0
   36.0995   28.3481   51.5386 H   0  0  0  0  0  0  0  0  0  0  0  0
   35.2351   29.9321   51.4903 H   0  0  0  0  0  0  0  0  0  0  0  0
   37.1775   28.9230   49.5015 H   0  0  0  0  0  0  0  0  0  0  0  0
   38.4106   31.5034   47.7274 H   0  0  0  0  0  0  0  0  0  0  0  0
   38.7386   31.4080   45.3408 H   0  0  0  0  0  0  0  0  0  0  0  0
   34.9190   29.7904   44.7106 H   0  0  0  0  0  0  0  0  0  0  0  0
   35.7161   27.6370   48.3146 H   0  0  0  0  0  0  0  0  0  0  0  0
   33.1678   27.1028   48.5599 C   0  0  0  0  0  0  0  0  0  0  0  0
   33.1664   25.8109   48.8599 N   0  0  0  0  0  0  0  0  0  0  0  0
   32.3211   25.1892   47.9875 C   0  0  0  0  0  0  0  0  0  0  0  0
   32.1264   24.1287   48.0008 H   0  0  0  0  0  0  0  0  0  0  0  0
   31.8392   26.1314   47.1878 N   0  0  0  0  0  0  0  0  0  0  0  0
   31.1545   26.0039   46.3934 H   0  0  0  0  0  0  0  0  0  0  0  0
   32.3402   27.2924   47.5196 N   0  0  0  0  0  0  0  0  0  0  0  0
  1  6  1  0
  1  2  1  0
  2  3  1  0
  3  4  1  0
  5  4  1  0
  6  5  1  0
  7  1  1  0
  8  7  2  0
  9  8  1  0
 10 11  1  0
 10  9  2  0
 11 12  2  0
 12  7  1  0
 13 14  2  0
 15 13  1  0
 15  6  1  0
  1 16  1  6
  2 17  1  0
  2 18  1  0
  3 19  1  0
  3 20  1  0
  4 21  1  0
  4 22  1  0
  5 23  1  0
  5 24  1  0
  6 25  1  1
  8 26  1  0
  9 27  1  0
 11 28  1  0
 15 29  1  0
 30 31  1  0
 31 32  2  0
 32 33  1  0
 32 34  1  0
 34 35  1  0
 34 36  1  0
 36 30  2  0
 13 30  1  0
M  ISO  8  16  13  17  13  18  13  19  13  20  13  21  13  22  13  23  13
M  ISO  7  24  13  25  13  26  14  27  14  28  14  33  14  35   9
M  END
>  <DihAtoms>  (1) 
13,12,29,30

>  <DihDeg>  (1) 
0.03318994495468987

$$$$
