
 OpenBabel03272504053D

 39 42  0  0  0  0  0  0  0  0999 V2000
   36.8380   27.0370   32.1370 C   0  0  0  0  0  0  0  0  0  0  0  0
   36.0490   26.3020   31.9890 H   0  0  0  0  0  0  0  0  0  0  0  0
   37.2370   27.2390   31.0980 H   0  0  0  0  0  0  0  0  0  0  0  0
   36.3140   28.3460   32.5950 C   0  0  0  0  0  0  0  0  0  0  0  0
   36.2140   29.4440   31.7390 C   0  0  0  0  0  0  0  0  0  0  0  0
   35.7010   30.4870   32.4550 C   0  0  0  0  0  0  0  0  0  0  0  0
   35.4980   30.0360   33.6980 N   0  0  0  0  0  0  0  0  0  0  0  0
   35.8670   28.7760   33.7520 N   0  0  0  0  0  0  0  0  0  0  0  0
   36.4850   29.4980   30.6890 H   0  0  0  0  0  0  0  0  0  0  0  0
   35.4620   31.5110   32.1890 H   0  0  0  0  0  0  0  0  0  0  0  0
   34.9870   30.6690   34.8640 C   0  0  0  0  0  0  0  0  0  0  0  0
   33.6690   30.4380   35.1550 C   0  0  0  0  0  0  0  0  0  0  0  0
   33.0110   30.9790   36.2550 C   0  0  0  0  0  0  0  0  0  0  0  0
   33.7630   31.7960   37.0850 C   0  0  0  0  0  0  0  0  0  0  0  0
   35.0890   32.0380   36.8070 C   0  0  0  0  0  0  0  0  0  0  0  0
   35.7180   31.4900   35.7100 C   0  0  0  0  0  0  0  0  0  0  0  0
   33.0560   29.8000   34.5190 H   0  0  0  0  0  0  0  0  0  0  0  0
   31.9680   30.7740   36.4550 H   0  0  0  0  0  0  0  0  0  0  0  0
   33.3250   32.2560   37.9660 H   0  0  0  0  0  0  0  0  0  0  0  0
   35.7340   32.6700   37.4210 H   0  0  0  0  0  0  0  0  0  0  0  0
   36.7560   31.6300   35.4200 H   0  0  0  0  0  0  0  0  0  0  0  0
   37.9670   26.5370   32.9440 C   0  0  0  0  0  0  0  0  0  0  0  0
   38.8980   26.7870   32.3540 H   0  0  0  0  0  0  0  0  0  0  0  0
   38.0620   27.2030   33.8440 H   0  0  0  0  0  0  0  0  0  0  0  0
   37.9390   25.1760   33.3890 C   0  0  0  0  0  0  0  0  0  0  0  0
   37.5150   24.1860   32.5380 C   0  0  0  0  0  0  0  0  0  0  0  0
   37.4820   22.8340   32.9660 C   0  0  0  0  0  0  0  0  0  0  0  0
   37.8940   22.5980   34.2600 N   0  0  0  0  0  0  0  0  0  0  0  0
   38.3060   23.6160   35.0640 C   0  0  0  0  0  0  0  0  0  0  0  0
   38.3190   24.8790   34.6120 N   0  0  0  0  0  0  0  0  0  0  0  0
   37.1910   24.3780   31.5200 H   0  0  0  0  0  0  0  0  0  0  0  0
   37.1530   22.0750   32.3010 H   0  0  0  0  0  0  0  0  0  0  0  0
   38.7290   23.2910   36.4220 C   0  0  0  0  0  0  0  0  0  0  0  0
   38.0020   23.7930   37.4450 N   0  0  0  0  0  0  0  0  0  0  0  0
   38.5310   23.3940   38.6230 C   0  0  0  0  0  0  0  0  0  0  0  0
   38.1570   23.6450   39.6170 H   0  0  0  0  0  0  0  0  0  0  0  0
   39.6140   22.6260   38.3030 N   0  0  0  0  0  0  0  0  0  0  0  0
   40.2280   22.1750   38.9910 H   0  0  0  0  0  0  0  0  0  0  0  0
   39.7190   22.5740   36.9790 N   0  0  0  0  0  0  0  0  0  0  0  0
  1  4  1  0  0  0  0
  1 22  1  0  0  0  0
  2  1  1  0  0  0  0
  3  1  1  0  0  0  0
  4  8  2  0  0  0  0
  5  6  2  0  0  0  0
  5  4  1  0  0  0  0
  6  7  1  0  0  0  0
  7  8  1  0  0  0  0
  7 11  1  0  0  0  0
  9  5  1  0  0  0  0
 10  6  1  0  0  0  0
 11 12  2  0  0  0  0
 11 16  1  0  0  0  0
 12 13  1  0  0  0  0
 13 18  1  0  0  0  0
 13 14  2  0  0  0  0
 14 19  1  0  0  0  0
 15 14  1  0  0  0  0
 15 20  1  0  0  0  0
 16 15  2  0  0  0  0
 17 12  1  0  0  0  0
 21 16  1  0  0  0  0
 22 25  1  0  0  0  0
 22 24  1  0  0  0  0
 23 22  1  0  0  0  0
 25 30  1  0  0  0  0
 26 27  1  0  0  0  0
 26 25  2  0  0  0  0
 27 28  2  0  0  0  0
 28 29  1  0  0  0  0
 29 33  1  0  0  0  0
 30 29  2  0  0  0  0
 31 26  1  0  0  0  0
 32 27  1  0  0  0  0
 33 39  2  0  0  0  0
 33 34  1  0  0  0  0
 34 35  2  0  0  0  0
 35 36  1  0  0  0  0
 37 35  1  0  0  0  0
 37 38  1  0  0  0  0
 39 37  1  0  0  0  0
M  END
>  <minimizedAffinity>
-6.15148687

$$$$

 OpenBabel03272504053D

 39 42  0  0  0  0  0  0  0  0999 V2000
   36.7410   27.4630   31.9080 C   0  0  0  0  0  0  0  0  0  0  0  0
   36.2660   27.2280   30.9580 H   0  0  0  0  0  0  0  0  0  0  0  0
   37.8210   27.6710   31.6410 H   0  0  0  0  0  0  0  0  0  0  0  0
   36.2500   28.7360   32.4870 C   0  0  0  0  0  0  0  0  0  0  0  0
   36.2690   29.9330   31.7680 C   0  0  0  0  0  0  0  0  0  0  0  0
   35.7550   30.9100   32.5700 C   0  0  0  0  0  0  0  0  0  0  0  0
   35.4380   30.3260   33.7320 N   0  0  0  0  0  0  0  0  0  0  0  0
   35.7390   29.0500   33.6540 N   0  0  0  0  0  0  0  0  0  0  0  0
   36.6190   30.0970   30.7540 H   0  0  0  0  0  0  0  0  0  0  0  0
   35.5870   31.9710   32.4170 H   0  0  0  0  0  0  0  0  0  0  0  0
   34.8720   30.8440   34.9300 C   0  0  0  0  0  0  0  0  0  0  0  0
   33.5740   30.4950   35.1900 C   0  0  0  0  0  0  0  0  0  0  0  0
   32.8700   30.9140   36.3150 C   0  0  0  0  0  0  0  0  0  0  0  0
   33.5520   31.7320   37.2030 C   0  0  0  0  0  0  0  0  0  0  0  0
   34.8570   32.0910   36.9550 C   0  0  0  0  0  0  0  0  0  0  0  0
   35.5330   31.6630   35.8330 C   0  0  0  0  0  0  0  0  0  0  0  0
   33.0150   29.8540   34.5090 H   0  0  0  0  0  0  0  0  0  0  0  0
   31.8440   30.6190   36.4900 H   0  0  0  0  0  0  0  0  0  0  0  0
   33.0740   32.1010   38.1060 H   0  0  0  0  0  0  0  0  0  0  0  0
   35.4480   32.7300   37.6140 H   0  0  0  0  0  0  0  0  0  0  0  0
   36.5590   31.8990   35.5640 H   0  0  0  0  0  0  0  0  0  0  0  0
   36.7410   26.3390   32.8630 C   0  0  0  0  0  0  0  0  0  0  0  0
   35.8280   26.4920   33.5130 H   0  0  0  0  0  0  0  0  0  0  0  0
   36.4810   25.4080   32.2920 H   0  0  0  0  0  0  0  0  0  0  0  0
   37.9290   26.0880   33.6220 C   0  0  0  0  0  0  0  0  0  0  0  0
   39.1130   26.6760   33.2540 C   0  0  0  0  0  0  0  0  0  0  0  0
   40.2980   26.4350   33.9970 C   0  0  0  0  0  0  0  0  0  0  0  0
   40.1730   25.5920   35.0800 N   0  0  0  0  0  0  0  0  0  0  0  0
   38.9740   25.0340   35.4030 C   0  0  0  0  0  0  0  0  0  0  0  0
   37.8820   25.2940   34.6680 N   0  0  0  0  0  0  0  0  0  0  0  0
   39.2060   27.3390   32.3990 H   0  0  0  0  0  0  0  0  0  0  0  0
   41.2090   26.8940   33.7050 H   0  0  0  0  0  0  0  0  0  0  0  0
   38.9170   24.1520   36.5640 C   0  0  0  0  0  0  0  0  0  0  0  0
   37.8850   24.3080   37.4230 N   0  0  0  0  0  0  0  0  0  0  0  0
   37.9900   23.4150   38.4320 C   0  0  0  0  0  0  0  0  0  0  0  0
   37.3010   23.3060   39.2710 H   0  0  0  0  0  0  0  0  0  0  0  0
   39.1220   22.6950   38.1750 N   0  0  0  0  0  0  0  0  0  0  0  0
   39.4710   21.9340   38.7690 H   0  0  0  0  0  0  0  0  0  0  0  0
   39.6660   23.1500   37.0510 N   0  0  0  0  0  0  0  0  0  0  0  0
  1  4  1  0  0  0  0
  1 22  1  0  0  0  0
  2  1  1  0  0  0  0
  3  1  1  0  0  0  0
  4  8  2  0  0  0  0
  5  4  1  0  0  0  0
  5  6  2  0  0  0  0
  6  7  1  0  0  0  0
  7 11  1  0  0  0  0
  8  7  1  0  0  0  0
  9  5  1  0  0  0  0
 10  6  1  0  0  0  0
 11 12  2  0  0  0  0
 11 16  1  0  0  0  0
 12 13  1  0  0  0  0
 13 18  1  0  0  0  0
 13 14  2  0  0  0  0
 14 19  1  0  0  0  0
 15 14  1  0  0  0  0
 15 20  1  0  0  0  0
 16 15  2  0  0  0  0
 17 12  1  0  0  0  0
 21 16  1  0  0  0  0
 22 23  1  0  0  0  0
 22 25  1  0  0  0  0
 24 22  1  0  0  0  0
 25 30  1  0  0  0  0
 26 25  2  0  0  0  0
 26 27  1  0  0  0  0
 27 28  2  0  0  0  0
 28 29  1  0  0  0  0
 29 33  1  0  0  0  0
 30 29  2  0  0  0  0
 31 26  1  0  0  0  0
 32 27  1  0  0  0  0
 33 39  2  0  0  0  0
 33 34  1  0  0  0  0
 34 35  2  0  0  0  0
 35 36  1  0  0  0  0
 37 35  1  0  0  0  0
 37 38  1  0  0  0  0
 39 37  1  0  0  0  0
M  END
>  <minimizedAffinity>
-5.95593262

$$$$

 OpenBabel03272504053D

 39 42  0  0  0  0  0  0  0  0999 V2000
   36.5080   26.7350   32.4280 C   0  0  0  0  0  0  0  0  0  0  0  0
   36.2470   26.3990   31.4260 H   0  0  0  0  0  0  0  0  0  0  0  0
   35.5280   26.7390   32.9910 H   0  0  0  0  0  0  0  0  0  0  0  0
   37.3500   25.7530   33.1520 C   0  0  0  0  0  0  0  0  0  0  0  0
   38.2160   24.8850   32.4840 C   0  0  0  0  0  0  0  0  0  0  0  0
   38.8410   24.1160   33.4230 C   0  0  0  0  0  0  0  0  0  0  0  0
   38.3700   24.5030   34.6130 N   0  0  0  0  0  0  0  0  0  0  0  0
   37.4960   25.4650   34.4240 N   0  0  0  0  0  0  0  0  0  0  0  0
   38.3900   24.8070   31.4160 H   0  0  0  0  0  0  0  0  0  0  0  0
   39.5810   23.3250   33.3480 H   0  0  0  0  0  0  0  0  0  0  0  0
   38.6540   24.0610   35.9350 C   0  0  0  0  0  0  0  0  0  0  0  0
   37.7960   24.4810   36.9160 C   0  0  0  0  0  0  0  0  0  0  0  0
   37.9290   24.1430   38.2590 C   0  0  0  0  0  0  0  0  0  0  0  0
   39.0040   23.3320   38.5890 C   0  0  0  0  0  0  0  0  0  0  0  0
   39.8750   22.9010   37.6150 C   0  0  0  0  0  0  0  0  0  0  0  0
   39.7220   23.2500   36.2910 C   0  0  0  0  0  0  0  0  0  0  0  0
   36.9440   25.1190   36.6830 H   0  0  0  0  0  0  0  0  0  0  0  0
   37.2320   24.4930   39.0080 H   0  0  0  0  0  0  0  0  0  0  0  0
   39.1780   23.0210   39.6160 H   0  0  0  0  0  0  0  0  0  0  0  0
   40.7380   22.2620   37.8100 H   0  0  0  0  0  0  0  0  0  0  0  0
   40.3610   22.9550   35.4640 H   0  0  0  0  0  0  0  0  0  0  0  0
   37.0360   28.1120   32.4710 C   0  0  0  0  0  0  0  0  0  0  0  0
   37.8600   28.0980   33.2450 H   0  0  0  0  0  0  0  0  0  0  0  0
   37.6020   28.2890   31.5160 H   0  0  0  0  0  0  0  0  0  0  0  0
   36.1140   29.1910   32.6560 C   0  0  0  0  0  0  0  0  0  0  0  0
   35.4510   29.7190   31.5760 C   0  0  0  0  0  0  0  0  0  0  0  0
   34.5350   30.7880   31.7460 C   0  0  0  0  0  0  0  0  0  0  0  0
   34.3660   31.2430   33.0360 N   0  0  0  0  0  0  0  0  0  0  0  0
   35.0480   30.6850   34.0730 C   0  0  0  0  0  0  0  0  0  0  0  0
   35.9050   29.6740   33.8610 N   0  0  0  0  0  0  0  0  0  0  0  0
   35.5880   29.3570   30.5610 H   0  0  0  0  0  0  0  0  0  0  0  0
   34.0270   31.1900   30.9050 H   0  0  0  0  0  0  0  0  0  0  0  0
   34.8190   31.2170   35.4120 C   0  0  0  0  0  0  0  0  0  0  0  0
   33.5640   31.1510   35.9100 N   0  0  0  0  0  0  0  0  0  0  0  0
   33.5350   31.6850   37.1520 C   0  0  0  0  0  0  0  0  0  0  0  0
   32.6590   31.7690   37.7970 H   0  0  0  0  0  0  0  0  0  0  0  0
   34.8130   32.0880   37.4140 N   0  0  0  0  0  0  0  0  0  0  0  0
   35.1120   32.5360   38.2870 H   0  0  0  0  0  0  0  0  0  0  0  0
   35.5710   31.8000   36.3600 N   0  0  0  0  0  0  0  0  0  0  0  0
  1 22  1  0  0  0  0
  1  3  1  0  0  0  0
  1  4  1  0  0  0  0
  2  1  1  0  0  0  0
  4  8  2  0  0  0  0
  5  4  1  0  0  0  0
  5  6  2  0  0  0  0
  6  7  1  0  0  0  0
  7 11  1  0  0  0  0
  8  7  1  0  0  0  0
  9  5  1  0  0  0  0
 10  6  1  0  0  0  0
 11 16  2  0  0  0  0
 11 12  1  0  0  0  0
 12 13  2  0  0  0  0
 13 14  1  0  0  0  0
 13 18  1  0  0  0  0
 14 19  1  0  0  0  0
 15 20  1  0  0  0  0
 15 14  2  0  0  0  0
 16 15  1  0  0  0  0
 17 12  1  0  0  0  0
 21 16  1  0  0  0  0
 22 25  1  0  0  0  0
 22 23  1  0  0  0  0
 24 22  1  0  0  0  0
 25 30  1  0  0  0  0
 26 27  1  0  0  0  0
 26 25  2  0  0  0  0
 27 28  2  0  0  0  0
 28 29  1  0  0  0  0
 29 33  1  0  0  0  0
 30 29  2  0  0  0  0
 31 26  1  0  0  0  0
 32 27  1  0  0  0  0
 33 34  1  0  0  0  0
 33 39  2  0  0  0  0
 34 35  2  0  0  0  0
 35 37  1  0  0  0  0
 35 36  1  0  0  0  0
 37 38  1  0  0  0  0
 39 37  1  0  0  0  0
M  END
>  <minimizedAffinity>
-5.94343424

$$$$

 OpenBabel03272504053D

 39 42  0  0  0  0  0  0  0  0999 V2000
   38.3280   25.8010   31.0900 C   0  0  0  0  0  0  0  0  0  0  0  0
   38.7340   25.8170   30.0800 H   0  0  0  0  0  0  0  0  0  0  0  0
   37.7850   26.7880   31.1940 H   0  0  0  0  0  0  0  0  0  0  0  0
   37.2710   24.7750   31.2580 C   0  0  0  0  0  0  0  0  0  0  0  0
   35.9130   25.0900   31.1720 C   0  0  0  0  0  0  0  0  0  0  0  0
   35.2040   23.9410   31.3700 C   0  0  0  0  0  0  0  0  0  0  0  0
   36.1000   22.9670   31.5700 N   0  0  0  0  0  0  0  0  0  0  0  0
   37.3050   23.4860   31.4990 N   0  0  0  0  0  0  0  0  0  0  0  0
   35.4640   26.0600   30.9820 H   0  0  0  0  0  0  0  0  0  0  0  0
   34.1400   23.7300   31.3870 H   0  0  0  0  0  0  0  0  0  0  0  0
   35.9470   21.5760   31.8250 C   0  0  0  0  0  0  0  0  0  0  0  0
   36.2580   20.7300   30.7950 C   0  0  0  0  0  0  0  0  0  0  0  0
   36.1640   19.3440   30.8750 C   0  0  0  0  0  0  0  0  0  0  0  0
   35.7270   18.8220   32.0830 C   0  0  0  0  0  0  0  0  0  0  0  0
   35.4110   19.6600   33.1280 C   0  0  0  0  0  0  0  0  0  0  0  0
   35.5120   21.0300   33.0240 C   0  0  0  0  0  0  0  0  0  0  0  0
   36.6030   21.1140   29.8350 H   0  0  0  0  0  0  0  0  0  0  0  0
   36.4190   18.7050   30.0400 H   0  0  0  0  0  0  0  0  0  0  0  0
   35.6270   17.7500   32.2280 H   0  0  0  0  0  0  0  0  0  0  0  0
   35.0620   19.3120   34.1020 H   0  0  0  0  0  0  0  0  0  0  0  0
   35.2830   21.7580   33.7970 H   0  0  0  0  0  0  0  0  0  0  0  0
   39.3610   25.7630   32.1420 C   0  0  0  0  0  0  0  0  0  0  0  0
   39.9490   24.8160   31.9570 H   0  0  0  0  0  0  0  0  0  0  0  0
   40.1120   26.5660   31.9090 H   0  0  0  0  0  0  0  0  0  0  0  0
   38.9520   25.9090   33.5060 C   0  0  0  0  0  0  0  0  0  0  0  0
   38.2710   27.0340   33.9000 C   0  0  0  0  0  0  0  0  0  0  0  0
   37.8600   27.1900   35.2490 C   0  0  0  0  0  0  0  0  0  0  0  0
   38.1860   26.1610   36.1060 N   0  0  0  0  0  0  0  0  0  0  0  0
   38.8620   25.0660   35.6640 C   0  0  0  0  0  0  0  0  0  0  0  0
   39.2300   24.9650   34.3780 N   0  0  0  0  0  0  0  0  0  0  0  0
   38.0180   27.8420   33.2210 H   0  0  0  0  0  0  0  0  0  0  0  0
   37.3340   28.0640   35.5440 H   0  0  0  0  0  0  0  0  0  0  0  0
   39.1730   24.0150   36.6280 C   0  0  0  0  0  0  0  0  0  0  0  0
   40.2630   23.2500   36.3960 N   0  0  0  0  0  0  0  0  0  0  0  0
   40.3980   22.3350   37.3820 C   0  0  0  0  0  0  0  0  0  0  0  0
   41.1850   21.5840   37.4600 H   0  0  0  0  0  0  0  0  0  0  0  0
   39.3570   22.5530   38.2380 N   0  0  0  0  0  0  0  0  0  0  0  0
   39.1860   22.0110   39.0920 H   0  0  0  0  0  0  0  0  0  0  0  0
   38.6310   23.5650   37.7710 N   0  0  0  0  0  0  0  0  0  0  0  0
  1  3  1  0  0  0  0
  1  4  1  0  0  0  0
  1 22  1  0  0  0  0
  2  1  1  0  0  0  0
  4  8  2  0  0  0  0
  5  4  1  0  0  0  0
  5  6  2  0  0  0  0
  6 10  1  0  0  0  0
  6  7  1  0  0  0  0
  7 11  1  0  0  0  0
  8  7  1  0  0  0  0
  9  5  1  0  0  0  0
 11 16  1  0  0  0  0
 12 13  1  0  0  0  0
 12 11  2  0  0  0  0
 13 14  2  0  0  0  0
 14 19  1  0  0  0  0
 14 15  1  0  0  0  0
 15 20  1  0  0  0  0
 16 15  2  0  0  0  0
 16 21  1  0  0  0  0
 17 12  1  0  0  0  0
 18 13  1  0  0  0  0
 22 25  1  0  0  0  0
 23 22  1  0  0  0  0
 24 22  1  0  0  0  0
 25 26  2  0  0  0  0
 25 30  1  0  0  0  0
 26 27  1  0  0  0  0
 27 32  1  0  0  0  0
 27 28  2  0  0  0  0
 29 28  1  0  0  0  0
 29 33  1  0  0  0  0
 30 29  2  0  0  0  0
 31 26  1  0  0  0  0
 33 39  2  0  0  0  0
 34 33  1  0  0  0  0
 34 35  2  0  0  0  0
 35 36  1  0  0  0  0
 35 37  1  0  0  0  0
 37 38  1  0  0  0  0
 39 37  1  0  0  0  0
M  END
>  <minimizedAffinity>
-5.92338467

$$$$

 OpenBabel03272504053D

 39 42  0  0  0  0  0  0  0  0999 V2000
   37.4440   26.7400   32.4080 C   0  0  0  0  0  0  0  0  0  0  0  0
   38.5140   26.5490   32.4570 H   0  0  0  0  0  0  0  0  0  0  0  0
   37.3270   27.4870   31.5660 H   0  0  0  0  0  0  0  0  0  0  0  0
   36.6760   25.5540   31.9630 C   0  0  0  0  0  0  0  0  0  0  0  0
   35.5290   25.6670   31.1740 C   0  0  0  0  0  0  0  0  0  0  0  0
   35.0590   24.4080   30.9360 C   0  0  0  0  0  0  0  0  0  0  0  0
   35.8900   23.5650   31.5580 N   0  0  0  0  0  0  0  0  0  0  0  0
   36.8300   24.2640   32.1520 N   0  0  0  0  0  0  0  0  0  0  0  0
   35.0650   26.5740   30.7980 H   0  0  0  0  0  0  0  0  0  0  0  0
   34.2050   24.0380   30.3790 H   0  0  0  0  0  0  0  0  0  0  0  0
   35.9010   22.1460   31.6590 C   0  0  0  0  0  0  0  0  0  0  0  0
   36.9100   21.4960   31.0000 C   0  0  0  0  0  0  0  0  0  0  0  0
   37.0670   20.1130   30.9950 C   0  0  0  0  0  0  0  0  0  0  0  0
   36.1290   19.3810   31.7060 C   0  0  0  0  0  0  0  0  0  0  0  0
   35.1090   20.0190   32.3730 C   0  0  0  0  0  0  0  0  0  0  0  0
   34.9750   21.3900   32.3640 C   0  0  0  0  0  0  0  0  0  0  0  0
   37.6600   22.0470   30.4340 H   0  0  0  0  0  0  0  0  0  0  0  0
   37.8780   19.6330   30.4630 H   0  0  0  0  0  0  0  0  0  0  0  0
   36.1820   18.2960   31.7520 H   0  0  0  0  0  0  0  0  0  0  0  0
   34.3410   19.5000   32.9500 H   0  0  0  0  0  0  0  0  0  0  0  0
   34.2020   21.9700   32.8610 H   0  0  0  0  0  0  0  0  0  0  0  0
   36.9010   27.3730   33.6250 C   0  0  0  0  0  0  0  0  0  0  0  0
   36.2140   26.6040   34.0880 H   0  0  0  0  0  0  0  0  0  0  0  0
   37.7350   27.4380   34.3750 H   0  0  0  0  0  0  0  0  0  0  0  0
   36.2950   28.6650   33.5100 C   0  0  0  0  0  0  0  0  0  0  0  0
   36.1160   29.2300   32.2710 C   0  0  0  0  0  0  0  0  0  0  0  0
   35.5170   30.5090   32.1440 C   0  0  0  0  0  0  0  0  0  0  0  0
   35.1400   31.1230   33.3190 N   0  0  0  0  0  0  0  0  0  0  0  0
   35.3390   30.5190   34.5230 C   0  0  0  0  0  0  0  0  0  0  0  0
   35.9110   29.3070   34.5910 N   0  0  0  0  0  0  0  0  0  0  0  0
   36.4150   28.7430   31.3490 H   0  0  0  0  0  0  0  0  0  0  0  0
   35.3830   30.9380   31.1820 H   0  0  0  0  0  0  0  0  0  0  0  0
   34.9150   31.2280   35.7260 C   0  0  0  0  0  0  0  0  0  0  0  0
   33.6300   31.0840   36.1210 N   0  0  0  0  0  0  0  0  0  0  0  0
   33.4130   31.8040   37.2440 C   0  0  0  0  0  0  0  0  0  0  0  0
   32.4710   31.8800   37.7890 H   0  0  0  0  0  0  0  0  0  0  0  0
   34.6050   32.4030   37.5390 N   0  0  0  0  0  0  0  0  0  0  0  0
   34.7590   33.0200   38.3440 H   0  0  0  0  0  0  0  0  0  0  0  0
   35.4950   32.0470   36.6180 N   0  0  0  0  0  0  0  0  0  0  0  0
  1  2  1  0  0  0  0
  1 22  1  0  0  0  0
  3  1  1  0  0  0  0
  4  8  2  0  0  0  0
  4  1  1  0  0  0  0
  5  4  1  0  0  0  0
  6  5  2  0  0  0  0
  6  7  1  0  0  0  0
  7 11  1  0  0  0  0
  7  8  1  0  0  0  0
  9  5  1  0  0  0  0
 10  6  1  0  0  0  0
 11 16  1  0  0  0  0
 12 11  2  0  0  0  0
 13 12  1  0  0  0  0
 13 14  2  0  0  0  0
 14 19  1  0  0  0  0
 14 15  1  0  0  0  0
 15 20  1  0  0  0  0
 16 15  2  0  0  0  0
 16 21  1  0  0  0  0
 17 12  1  0  0  0  0
 18 13  1  0  0  0  0
 22 23  1  0  0  0  0
 22 24  1  0  0  0  0
 25 22  1  0  0  0  0
 25 30  1  0  0  0  0
 26 25  2  0  0  0  0
 27 26  1  0  0  0  0
 27 28  2  0  0  0  0
 28 29  1  0  0  0  0
 29 30  2  0  0  0  0
 29 33  1  0  0  0  0
 31 26  1  0  0  0  0
 32 27  1  0  0  0  0
 33 34  1  0  0  0  0
 33 39  2  0  0  0  0
 34 35  2  0  0  0  0
 35 37  1  0  0  0  0
 35 36  1  0  0  0  0
 37 38  1  0  0  0  0
 39 37  1  0  0  0  0
M  END
>  <minimizedAffinity>
-5.86499405

$$$$

 OpenBabel03272504053D

 39 42  0  0  0  0  0  0  0  0999 V2000
   37.6140   27.0870   32.0730 C   0  0  0  0  0  0  0  0  0  0  0  0
   38.4700   27.1800   31.4070 H   0  0  0  0  0  0  0  0  0  0  0  0
   36.9600   27.9740   31.8210 H   0  0  0  0  0  0  0  0  0  0  0  0
   36.7770   25.9050   31.7550 C   0  0  0  0  0  0  0  0  0  0  0  0
   35.5150   26.0280   31.1690 C   0  0  0  0  0  0  0  0  0  0  0  0
   35.0070   24.7720   31.0060 C   0  0  0  0  0  0  0  0  0  0  0  0
   35.9250   23.9220   31.4770 N   0  0  0  0  0  0  0  0  0  0  0  0
   36.9540   24.6140   31.9100 N   0  0  0  0  0  0  0  0  0  0  0  0
   35.0000   26.9390   30.8800 H   0  0  0  0  0  0  0  0  0  0  0  0
   34.0700   24.4080   30.5970 H   0  0  0  0  0  0  0  0  0  0  0  0
   35.9460   22.5020   31.5670 C   0  0  0  0  0  0  0  0  0  0  0  0
   37.0110   21.8700   30.9830 C   0  0  0  0  0  0  0  0  0  0  0  0
   37.1850   20.4890   30.9790 C   0  0  0  0  0  0  0  0  0  0  0  0
   36.2040   19.7400   31.6110 C   0  0  0  0  0  0  0  0  0  0  0  0
   35.1280   20.3610   32.2020 C   0  0  0  0  0  0  0  0  0  0  0  0
   34.9780   21.7300   32.1940 C   0  0  0  0  0  0  0  0  0  0  0  0
   37.7940   22.4350   30.4800 H   0  0  0  0  0  0  0  0  0  0  0  0
   38.0400   20.0230   30.5070 H   0  0  0  0  0  0  0  0  0  0  0  0
   36.2670   18.6560   31.6520 H   0  0  0  0  0  0  0  0  0  0  0  0
   34.3250   19.8280   32.7150 H   0  0  0  0  0  0  0  0  0  0  0  0
   34.1630   22.2970   32.6350 H   0  0  0  0  0  0  0  0  0  0  0  0
   37.9620   27.1980   33.5020 C   0  0  0  0  0  0  0  0  0  0  0  0
   38.2530   28.2780   33.6620 H   0  0  0  0  0  0  0  0  0  0  0  0
   37.0090   27.1120   34.0910 H   0  0  0  0  0  0  0  0  0  0  0  0
   38.9140   26.2780   34.0470 C   0  0  0  0  0  0  0  0  0  0  0  0
   40.1480   26.1410   33.4590 C   0  0  0  0  0  0  0  0  0  0  0  0
   41.1000   25.2330   33.9890 C   0  0  0  0  0  0  0  0  0  0  0  0
   40.7070   24.5220   35.1020 N   0  0  0  0  0  0  0  0  0  0  0  0
   39.4720   24.6950   35.6460 C   0  0  0  0  0  0  0  0  0  0  0  0
   38.6050   25.5670   35.1080 N   0  0  0  0  0  0  0  0  0  0  0  0
   40.4520   26.7040   32.5820 H   0  0  0  0  0  0  0  0  0  0  0  0
   42.0510   25.1340   33.5270 H   0  0  0  0  0  0  0  0  0  0  0  0
   39.1240   23.9080   36.8250 C   0  0  0  0  0  0  0  0  0  0  0  0
   37.9330   24.1520   37.4160 N   0  0  0  0  0  0  0  0  0  0  0  0
   37.7770   23.3380   38.4840 C   0  0  0  0  0  0  0  0  0  0  0  0
   36.9140   23.3100   39.1520 H   0  0  0  0  0  0  0  0  0  0  0  0
   38.9090   22.5780   38.5420 N   0  0  0  0  0  0  0  0  0  0  0  0
   39.0890   21.8590   39.2520 H   0  0  0  0  0  0  0  0  0  0  0  0
   39.7080   22.9320   37.5390 N   0  0  0  0  0  0  0  0  0  0  0  0
  1 22  1  0  0  0  0
  2  1  1  0  0  0  0
  3  1  1  0  0  0  0
  4  8  2  0  0  0  0
  4  1  1  0  0  0  0
  5  4  1  0  0  0  0
  6  5  2  0  0  0  0
  6  7  1  0  0  0  0
  7 11  1  0  0  0  0
  7  8  1  0  0  0  0
  9  5  1  0  0  0  0
 10  6  1  0  0  0  0
 11 16  1  0  0  0  0
 12 11  2  0  0  0  0
 13 12  1  0  0  0  0
 13 14  2  0  0  0  0
 14 19  1  0  0  0  0
 14 15  1  0  0  0  0
 15 20  1  0  0  0  0
 16 15  2  0  0  0  0
 16 21  1  0  0  0  0
 17 12  1  0  0  0  0
 18 13  1  0  0  0  0
 22 23  1  0  0  0  0
 22 25  1  0  0  0  0
 22 24  1  0  0  0  0
 25 30  1  0  0  0  0
 26 27  1  0  0  0  0
 26 25  2  0  0  0  0
 27 28  2  0  0  0  0
 28 29  1  0  0  0  0
 29 33  1  0  0  0  0
 30 29  2  0  0  0  0
 31 26  1  0  0  0  0
 32 27  1  0  0  0  0
 33 34  1  0  0  0  0
 33 39  2  0  0  0  0
 34 35  2  0  0  0  0
 35 37  1  0  0  0  0
 35 36  1  0  0  0  0
 37 38  1  0  0  0  0
 39 37  1  0  0  0  0
M  END
>  <minimizedAffinity>
-5.79338741

$$$$

 OpenBabel03272504053D

 39 42  0  0  0  0  0  0  0  0999 V2000
   36.2940   21.2840   31.6890 C   0  0  0  0  0  0  0  0  0  0  0  0
   37.1970   20.9520   31.1830 H   0  0  0  0  0  0  0  0  0  0  0  0
   35.5460   20.4550   31.5100 H   0  0  0  0  0  0  0  0  0  0  0  0
   36.4540   21.3280   33.1620 C   0  0  0  0  0  0  0  0  0  0  0  0
   35.5900   20.6460   34.0220 C   0  0  0  0  0  0  0  0  0  0  0  0
   36.0000   20.8850   35.3020 C   0  0  0  0  0  0  0  0  0  0  0  0
   37.0710   21.6820   35.2190 N   0  0  0  0  0  0  0  0  0  0  0  0
   37.3150   21.9260   33.9520 N   0  0  0  0  0  0  0  0  0  0  0  0
   34.7380   20.0280   33.7590 H   0  0  0  0  0  0  0  0  0  0  0  0
   35.6240   20.5570   36.2650 H   0  0  0  0  0  0  0  0  0  0  0  0
   37.9090   22.2510   36.2180 C   0  0  0  0  0  0  0  0  0  0  0  0
   37.2800   22.9460   37.2170 C   0  0  0  0  0  0  0  0  0  0  0  0
   37.9480   23.5650   38.2690 C   0  0  0  0  0  0  0  0  0  0  0  0
   39.3300   23.4520   38.2770 C   0  0  0  0  0  0  0  0  0  0  0  0
   39.9760   22.7570   37.2800 C   0  0  0  0  0  0  0  0  0  0  0  0
   39.2920   22.1520   36.2490 C   0  0  0  0  0  0  0  0  0  0  0  0
   36.1960   23.0500   37.2340 H   0  0  0  0  0  0  0  0  0  0  0  0
   37.4190   24.1060   39.0420 H   0  0  0  0  0  0  0  0  0  0  0  0
   39.9260   23.9060   39.0640 H   0  0  0  0  0  0  0  0  0  0  0  0
   41.0600   22.6320   37.2310 H   0  0  0  0  0  0  0  0  0  0  0  0
   39.7240   21.5880   35.4270 H   0  0  0  0  0  0  0  0  0  0  0  0
   35.7160   22.5170   31.1200 C   0  0  0  0  0  0  0  0  0  0  0  0
   35.3360   22.2300   30.0950 H   0  0  0  0  0  0  0  0  0  0  0  0
   34.7670   22.7370   31.6800 H   0  0  0  0  0  0  0  0  0  0  0  0
   36.5180   23.7030   31.1060 C   0  0  0  0  0  0  0  0  0  0  0  0
   37.7480   23.6900   30.4940 C   0  0  0  0  0  0  0  0  0  0  0  0
   38.5520   24.8590   30.4720 C   0  0  0  0  0  0  0  0  0  0  0  0
   38.0230   25.9710   31.0910 N   0  0  0  0  0  0  0  0  0  0  0  0
   36.7980   25.9310   31.6830 C   0  0  0  0  0  0  0  0  0  0  0  0
   36.0750   24.8010   31.6770 N   0  0  0  0  0  0  0  0  0  0  0  0
   38.1600   22.8110   30.0090 H   0  0  0  0  0  0  0  0  0  0  0  0
   39.5010   24.8400   29.9980 H   0  0  0  0  0  0  0  0  0  0  0  0
   36.3020   27.1470   32.3190 C   0  0  0  0  0  0  0  0  0  0  0  0
   36.7310   27.4230   33.5710 N   0  0  0  0  0  0  0  0  0  0  0  0
   36.1750   28.5780   34.0010 C   0  0  0  0  0  0  0  0  0  0  0  0
   36.3370   29.0480   34.9720 H   0  0  0  0  0  0  0  0  0  0  0  0
   35.3840   29.0150   32.9770 N   0  0  0  0  0  0  0  0  0  0  0  0
   34.8260   29.8750   33.0030 H   0  0  0  0  0  0  0  0  0  0  0  0
   35.4710   28.1440   31.9750 N   0  0  0  0  0  0  0  0  0  0  0  0
  1  4  1  0  0  0  0
  2  1  1  0  0  0  0
  3  1  1  0  0  0  0
  4  8  2  0  0  0  0
  4  5  1  0  0  0  0
  5  6  2  0  0  0  0
  6 10  1  0  0  0  0
  7  6  1  0  0  0  0
  7 11  1  0  0  0  0
  8  7  1  0  0  0  0
  9  5  1  0  0  0  0
 11 16  2  0  0  0  0
 11 12  1  0  0  0  0
 12 17  1  0  0  0  0
 12 13  2  0  0  0  0
 13 14  1  0  0  0  0
 13 18  1  0  0  0  0
 14 19  1  0  0  0  0
 15 14  2  0  0  0  0
 16 15  1  0  0  0  0
 20 15  1  0  0  0  0
 21 16  1  0  0  0  0
 22 24  1  0  0  0  0
 22  1  1  0  0  0  0
 23 22  1  0  0  0  0
 25 22  1  0  0  0  0
 25 30  1  0  0  0  0
 26 25  2  0  0  0  0
 27 26  1  0  0  0  0
 27 28  2  0  0  0  0
 28 29  1  0  0  0  0
 29 33  1  0  0  0  0
 30 29  2  0  0  0  0
 31 26  1  0  0  0  0
 32 27  1  0  0  0  0
 33 34  1  0  0  0  0
 34 35  2  0  0  0  0
 35 36  1  0  0  0  0
 37 38  1  0  0  0  0
 37 35  1  0  0  0  0
 39 33  2  0  0  0  0
 39 37  1  0  0  0  0
M  END
>  <minimizedAffinity>
-5.7617569

$$$$

 OpenBabel03272504053D

 39 42  0  0  0  0  0  0  0  0999 V2000
   36.6540   27.2730   32.6390 C   0  0  0  0  0  0  0  0  0  0  0  0
   37.0480   27.5130   31.6530 H   0  0  0  0  0  0  0  0  0  0  0  0
   35.6290   26.8400   32.4380 H   0  0  0  0  0  0  0  0  0  0  0  0
   37.4010   26.1720   33.2930 C   0  0  0  0  0  0  0  0  0  0  0  0
   38.1470   25.2450   32.5610 C   0  0  0  0  0  0  0  0  0  0  0  0
   38.7080   24.3700   33.4460 C   0  0  0  0  0  0  0  0  0  0  0  0
   38.3160   24.7520   34.6660 N   0  0  0  0  0  0  0  0  0  0  0  0
   37.5500   25.8130   34.5470 N   0  0  0  0  0  0  0  0  0  0  0  0
   38.2800   25.1970   31.4850 H   0  0  0  0  0  0  0  0  0  0  0  0
   39.3520   23.5070   33.3130 H   0  0  0  0  0  0  0  0  0  0  0  0
   38.5870   24.2230   35.9580 C   0  0  0  0  0  0  0  0  0  0  0  0
   37.8200   24.7020   36.9860 C   0  0  0  0  0  0  0  0  0  0  0  0
   37.9540   24.2920   38.3090 C   0  0  0  0  0  0  0  0  0  0  0  0
   38.9300   23.3420   38.5670 C   0  0  0  0  0  0  0  0  0  0  0  0
   39.7100   22.8510   37.5440 C   0  0  0  0  0  0  0  0  0  0  0  0
   39.5570   23.2730   36.2420 C   0  0  0  0  0  0  0  0  0  0  0  0
   37.0460   25.4480   36.8110 H   0  0  0  0  0  0  0  0  0  0  0  0
   37.3290   24.6920   39.0970 H   0  0  0  0  0  0  0  0  0  0  0  0
   39.0980   22.9690   39.5740 H   0  0  0  0  0  0  0  0  0  0  0  0
   40.4930   22.1030   37.6830 H   0  0  0  0  0  0  0  0  0  0  0  0
   40.1280   22.9380   35.3800 H   0  0  0  0  0  0  0  0  0  0  0  0
   36.4630   28.4530   33.5020 C   0  0  0  0  0  0  0  0  0  0  0  0
   36.6880   28.1020   34.5530 H   0  0  0  0  0  0  0  0  0  0  0  0
   37.3080   29.1650   33.2970 H   0  0  0  0  0  0  0  0  0  0  0  0
   35.2310   29.1760   33.4080 C   0  0  0  0  0  0  0  0  0  0  0  0
   34.9300   29.8680   32.2610 C   0  0  0  0  0  0  0  0  0  0  0  0
   33.7120   30.5880   32.1540 C   0  0  0  0  0  0  0  0  0  0  0  0
   32.8820   30.5420   33.2530 N   0  0  0  0  0  0  0  0  0  0  0  0
   33.2280   29.8400   34.3670 C   0  0  0  0  0  0  0  0  0  0  0  0
   34.3910   29.1750   34.4190 N   0  0  0  0  0  0  0  0  0  0  0  0
   35.5870   29.9010   31.3980 H   0  0  0  0  0  0  0  0  0  0  0  0
   33.4870   31.1200   31.2640 H   0  0  0  0  0  0  0  0  0  0  0  0
   32.2990   29.8360   35.4930 C   0  0  0  0  0  0  0  0  0  0  0  0
   32.0520   28.6550   36.1010 N   0  0  0  0  0  0  0  0  0  0  0  0
   31.1770   28.8360   37.1150 C   0  0  0  0  0  0  0  0  0  0  0  0
   30.7930   28.0610   37.7810 H   0  0  0  0  0  0  0  0  0  0  0  0
   30.8840   30.1690   37.1210 N   0  0  0  0  0  0  0  0  0  0  0  0
   30.2410   30.6180   37.7820 H   0  0  0  0  0  0  0  0  0  0  0  0
   31.5650   30.7560   36.1410 N   0  0  0  0  0  0  0  0  0  0  0  0
  1  4  1  0  0  0  0
  1 22  1  0  0  0  0
  2  1  1  0  0  0  0
  3  1  1  0  0  0  0
  4  8  2  0  0  0  0
  5  4  1  0  0  0  0
  5  6  2  0  0  0  0
  6  7  1  0  0  0  0
  7 11  1  0  0  0  0
  8  7  1  0  0  0  0
  9  5  1  0  0  0  0
 10  6  1  0  0  0  0
 11 16  2  0  0  0  0
 11 12  1  0  0  0  0
 12 13  2  0  0  0  0
 13 14  1  0  0  0  0
 13 18  1  0  0  0  0
 14 19  1  0  0  0  0
 15 20  1  0  0  0  0
 15 14  2  0  0  0  0
 16 15  1  0  0  0  0
 17 12  1  0  0  0  0
 21 16  1  0  0  0  0
 22 23  1  0  0  0  0
 24 22  1  0  0  0  0
 25 22  1  0  0  0  0
 25 30  1  0  0  0  0
 26 25  2  0  0  0  0
 27 26  1  0  0  0  0
 27 28  2  0  0  0  0
 28 29  1  0  0  0  0
 29 30  2  0  0  0  0
 29 33  1  0  0  0  0
 31 26  1  0  0  0  0
 32 27  1  0  0  0  0
 33 34  1  0  0  0  0
 33 39  2  0  0  0  0
 34 35  2  0  0  0  0
 35 37  1  0  0  0  0
 35 36  1  0  0  0  0
 37 38  1  0  0  0  0
 39 37  1  0  0  0  0
M  END
>  <minimizedAffinity>
-5.55974722

$$$$

 OpenBabel03272504053D

 39 42  0  0  0  0  0  0  0  0999 V2000
   37.7740   26.2820   35.5060 C   0  0  0  0  0  0  0  0  0  0  0  0
   36.6990   26.3500   35.6590 H   0  0  0  0  0  0  0  0  0  0  0  0
   38.2010   27.1380   36.1090 H   0  0  0  0  0  0  0  0  0  0  0  0
   38.3570   25.0660   36.1210 C   0  0  0  0  0  0  0  0  0  0  0  0
   37.7940   24.4630   37.2480 C   0  0  0  0  0  0  0  0  0  0  0  0
   38.5570   23.3760   37.5640 C   0  0  0  0  0  0  0  0  0  0  0  0
   39.5450   23.3250   36.6640 N   0  0  0  0  0  0  0  0  0  0  0  0
   39.4030   24.3290   35.8290 N   0  0  0  0  0  0  0  0  0  0  0  0
   36.9110   24.7710   37.7980 H   0  0  0  0  0  0  0  0  0  0  0  0
   38.4830   22.6340   38.3530 H   0  0  0  0  0  0  0  0  0  0  0  0
   40.6290   22.4200   36.4970 C   0  0  0  0  0  0  0  0  0  0  0  0
   41.0720   22.2290   35.2160 C   0  0  0  0  0  0  0  0  0  0  0  0
   42.1200   21.3790   34.8760 C   0  0  0  0  0  0  0  0  0  0  0  0
   42.7300   20.7010   35.9210 C   0  0  0  0  0  0  0  0  0  0  0  0
   42.2960   20.8820   37.2140 C   0  0  0  0  0  0  0  0  0  0  0  0
   41.2560   21.7300   37.5250 C   0  0  0  0  0  0  0  0  0  0  0  0
   40.6100   22.7490   34.3770 H   0  0  0  0  0  0  0  0  0  0  0  0
   42.4440   21.2520   33.8520 H   0  0  0  0  0  0  0  0  0  0  0  0
   43.5560   20.0190   35.7400 H   0  0  0  0  0  0  0  0  0  0  0  0
   42.7350   20.3790   38.0780 H   0  0  0  0  0  0  0  0  0  0  0  0
   40.8540   21.9290   38.5140 H   0  0  0  0  0  0  0  0  0  0  0  0
   38.1860   26.4920   34.1050 C   0  0  0  0  0  0  0  0  0  0  0  0
   38.4370   27.5910   34.0230 H   0  0  0  0  0  0  0  0  0  0  0  0
   39.1870   26.0020   33.9690 H   0  0  0  0  0  0  0  0  0  0  0  0
   37.3150   26.0400   33.0620 C   0  0  0  0  0  0  0  0  0  0  0  0
   36.5820   26.9490   32.3400 C   0  0  0  0  0  0  0  0  0  0  0  0
   35.7160   26.5140   31.3040 C   0  0  0  0  0  0  0  0  0  0  0  0
   35.6680   25.1540   31.0850 N   0  0  0  0  0  0  0  0  0  0  0  0
   36.4160   24.2950   31.8290 C   0  0  0  0  0  0  0  0  0  0  0  0
   37.2210   24.7560   32.7990 N   0  0  0  0  0  0  0  0  0  0  0  0
   36.6240   28.0190   32.5180 H   0  0  0  0  0  0  0  0  0  0  0  0
   35.1530   27.2240   30.7510 H   0  0  0  0  0  0  0  0  0  0  0  0
   36.3140   22.8680   31.5410 C   0  0  0  0  0  0  0  0  0  0  0  0
   37.3790   22.2640   30.9670 N   0  0  0  0  0  0  0  0  0  0  0  0
   37.1120   20.9530   30.7740 C   0  0  0  0  0  0  0  0  0  0  0  0
   37.7850   20.2180   30.3290 H   0  0  0  0  0  0  0  0  0  0  0  0
   35.8460   20.7570   31.2440 N   0  0  0  0  0  0  0  0  0  0  0  0
   35.3570   19.8540   31.2350 H   0  0  0  0  0  0  0  0  0  0  0  0
   35.3810   21.9160   31.7010 N   0  0  0  0  0  0  0  0  0  0  0  0
  1  2  1  0  0  0  0
  1  3  1  0  0  0  0
  1  4  1  0  0  0  0
  4  5  1  0  0  0  0
  5  6  2  0  0  0  0
  5  9  1  0  0  0  0
  6 10  1  0  0  0  0
  7  6  1  0  0  0  0
  8  4  2  0  0  0  0
  8  7  1  0  0  0  0
 11  7  1  0  0  0  0
 11 16  1  0  0  0  0
 12 11  2  0  0  0  0
 13 12  1  0  0  0  0
 13 14  2  0  0  0  0
 14 15  1  0  0  0  0
 15 16  2  0  0  0  0
 15 20  1  0  0  0  0
 16 21  1  0  0  0  0
 17 12  1  0  0  0  0
 18 13  1  0  0  0  0
 19 14  1  0  0  0  0
 22  1  1  0  0  0  0
 23 22  1  0  0  0  0
 24 22  1  0  0  0  0
 25 22  1  0  0  0  0
 26 31  1  0  0  0  0
 26 25  2  0  0  0  0
 27 26  1  0  0  0  0
 28 27  2  0  0  0  0
 28 29  1  0  0  0  0
 29 30  2  0  0  0  0
 30 25  1  0  0  0  0
 32 27  1  0  0  0  0
 33 39  2  0  0  0  0
 33 29  1  0  0  0  0
 34 33  1  0  0  0  0
 35 34  2  0  0  0  0
 35 37  1  0  0  0  0
 36 35  1  0  0  0  0
 37 39  1  0  0  0  0
 38 37  1  0  0  0  0
M  END
>  <minimizedAffinity>
-5.50397635

$$$$
