
 OpenBabel03272509183D

 31 33  0  0  0  0  0  0  0  0999 V2000
   38.0140   31.2810   47.8090 C   0  0  0  0  0  0  0  0  0  0  0  0
   37.0630   31.2960   48.8100 C   0  0  0  0  0  0  0  0  0  0  0  0
   37.1470   32.4160   49.6610 C   0  0  0  0  0  0  0  0  0  0  0  0
   38.1160   33.4020   49.4830 C   0  0  0  0  0  0  0  0  0  0  0  0
   39.0290   33.2960   48.4440 C   0  0  0  0  0  0  0  0  0  0  0  0
   38.9700   32.2050   47.5890 C   0  0  0  0  0  0  0  0  0  0  0  0
   36.4410   32.4890   50.4580 H   0  0  0  0  0  0  0  0  0  0  0  0
   38.1550   34.2510   50.1540 H   0  0  0  0  0  0  0  0  0  0  0  0
   39.7960   34.0440   48.2740 H   0  0  0  0  0  0  0  0  0  0  0  0
   34.9060   30.3080   48.2080 C   0  0  0  0  0  0  0  0  0  0  0  0
   36.0690   30.2870   48.9970 C   0  0  0  0  0  0  0  0  0  0  0  0
   36.2130   29.2720   49.9460 C   0  0  0  0  0  0  0  0  0  0  0  0
   35.2050   28.3580   50.0450 N   0  0  0  0  0  0  0  0  0  0  0  0
   34.1020   28.4030   49.2760 C   0  0  0  0  0  0  0  0  0  0  0  0
   33.9550   29.3690   48.3650 N   0  0  0  0  0  0  0  0  0  0  0  0
   34.7820   31.0940   47.4650 H   0  0  0  0  0  0  0  0  0  0  0  0
   33.3720   27.6280   49.4420 H   0  0  0  0  0  0  0  0  0  0  0  0
   37.4200   29.2120   50.8000 C   0  0  0  0  0  0  0  0  0  0  0  0
   37.7360   28.1790   51.0580 H   0  0  0  0  0  0  0  0  0  0  0  0
   38.2220   29.8000   50.2890 H   0  0  0  0  0  0  0  0  0  0  0  0
   37.1780   29.8070   51.7170 H   0  0  0  0  0  0  0  0  0  0  0  0
   38.0070   30.2030   46.9130 O   0  0  0  0  0  0  0  0  0  0  0  0
   37.2100   29.9360   46.3540 H   0  0  0  0  0  0  0  0  0  0  0  0
   39.8990   32.1160   46.5490 O   0  0  0  0  0  0  0  0  0  0  0  0
   39.4270   32.4480   45.2860 C   0  0  0  0  0  0  0  0  0  0  0  0
   38.1900   32.3660   44.7640 N   0  0  0  0  0  0  0  0  0  0  0  0
   38.2550   32.8120   43.4960 C   0  0  0  0  0  0  0  0  0  0  0  0
   37.4160   32.8690   42.8110 H   0  0  0  0  0  0  0  0  0  0  0  0
   39.5260   33.1670   43.2330 N   0  0  0  0  0  0  0  0  0  0  0  0
   39.8810   33.5490   42.3280 H   0  0  0  0  0  0  0  0  0  0  0  0
   40.2140   32.9370   44.3300 N   0  0  0  0  0  0  0  0  0  0  0  0
  1  2  1  0  0  0  0
  2 11  1  0  0  0  0
  2  3  2  0  0  0  0
  3  7  1  0  0  0  0
  4  3  1  0  0  0  0
  4  8  1  0  0  0  0
  5  4  2  0  0  0  0
  6  1  2  0  0  0  0
  6  5  1  0  0  0  0
  9  5  1  0  0  0  0
 10 15  2  0  0  0  0
 10 11  1  0  0  0  0
 11 12  2  0  0  0  0
 12 13  1  0  0  0  0
 12 18  1  0  0  0  0
 14 17  1  0  0  0  0
 14 13  2  0  0  0  0
 15 14  1  0  0  0  0
 16 10  1  0  0  0  0
 18 19  1  0  0  0  0
 18 21  1  0  0  0  0
 20 18  1  0  0  0  0
 22  1  1  0  0  0  0
 23 22  1  0  0  0  0
 24  6  1  0  0  0  0
 25 24  1  0  0  0  0
 26 25  1  0  0  0  0
 27 26  2  0  0  0  0
 28 27  1  0  0  0  0
 29 27  1  0  0  0  0
 29 31  1  0  0  0  0
 30 29  1  0  0  0  0
 31 25  2  0  0  0  0
M  END
>  <minimizedAffinity>
-6.3352375

>  <minimizedRMSD>
0.290969878

$$$$
