
 OpenBabel03272507373D

 21 22  0  0  0  0  0  0  0  0999 V2000
   37.3610   30.0160   49.0670 C   0  0  0  0  0  0  0  0  0  0  0  0
   36.1580   29.3240   49.1820 C   0  0  0  0  0  0  0  0  0  0  0  0
   35.6090   29.1160   50.4260 C   0  0  0  0  0  0  0  0  0  0  0  0
   36.2790   29.6030   51.5120 N   0  0  0  0  0  0  0  0  0  0  0  0
   37.4430   30.2710   51.3900 C   0  0  0  0  0  0  0  0  0  0  0  0
   37.9810   30.4760   50.1820 N   0  0  0  0  0  0  0  0  0  0  0  0
   34.6680   28.5800   50.5700 H   0  0  0  0  0  0  0  0  0  0  0  0
   37.9870   30.6640   52.2360 H   0  0  0  0  0  0  0  0  0  0  0  0
   34.3980   29.5770   47.5160 C   0  0  0  0  0  0  0  0  0  0  0  0
   33.9050   30.7390   47.7010 O   0  0  0  0  0  0  0  0  0  0  0  0
   35.4330   28.8050   48.1010 N   0  0  0  0  0  0  0  0  0  0  0  0
   33.7710   29.2230   46.6810 H   0  0  0  0  0  0  0  0  0  0  0  0
   35.5510   27.8690   47.6310 H   0  0  0  0  0  0  0  0  0  0  0  0
   37.7770   30.1420   47.7660 O   0  0  0  0  0  0  0  0  0  0  0  0
   38.4560   31.2970   47.3970 C   0  0  0  0  0  0  0  0  0  0  0  0
   39.3780   31.3230   46.3920 N   0  0  0  0  0  0  0  0  0  0  0  0
   39.8290   32.5980   46.3130 C   0  0  0  0  0  0  0  0  0  0  0  0
   40.5630   33.0910   45.6670 H   0  0  0  0  0  0  0  0  0  0  0  0
   39.1810   33.3140   47.2590 N   0  0  0  0  0  0  0  0  0  0  0  0
   39.2720   34.3250   47.4900 H   0  0  0  0  0  0  0  0  0  0  0  0
   38.3460   32.5310   47.9230 N   0  0  0  0  0  0  0  0  0  0  0  0
  1  2  2  0  0  0  0
  1  6  1  0  0  0  0
  2  3  1  0  0  0  0
  3  7  1  0  0  0  0
  3  4  2  0  0  0  0
  5  4  1  0  0  0  0
  5  8  1  0  0  0  0
  6  5  2  0  0  0  0
  9 10  2  0  0  0  0
  9 11  1  0  0  0  0
 11  2  1  0  0  0  0
 12  9  1  0  0  0  0
 13 11  1  0  0  0  0
 14  1  1  0  0  0  0
 15 14  1  0  0  0  0
 15 21  2  0  0  0  0
 16 15  1  0  0  0  0
 17 16  2  0  0  0  0
 17 19  1  0  0  0  0
 18 17  1  0  0  0  0
 19 20  1  0  0  0  0
 19 21  1  0  0  0  0
M  END
>  <minimizedAffinity>
-4.43587542

>  <minimizedRMSD>
5.64193678

$$$$
