
     RDKit          3D

 31 33  0  0  0  0  0  0  0  0999 V2000
   37.9934   31.3939   47.6369 C   0  0  0  0  0  0  0  0  0  0  0  0
   37.0766   31.3188   48.6677 C   0  0  0  0  0  0  0  0  0  0  0  0
   37.2024   32.3514   49.6189 C   0  0  0  0  0  0  0  0  0  0  0  0
   38.1738   33.3435   49.5026 C   0  0  0  0  0  0  0  0  0  0  0  0
   39.0504   33.3306   48.4266 C   0  0  0  0  0  0  0  0  0  0  0  0
   38.9514   32.3275   47.4739 C   0  0  0  0  0  0  0  0  0  0  0  0
   34.9381   30.3539   47.9728 C   0  0  0  0  0  0  0  0  0  0  0  0
   36.0787   30.3040   48.7921 C   0  0  0  0  0  0  0  0  0  0  0  0
   36.1988   29.2561   49.7071 C   0  0  0  0  0  0  0  0  0  0  0  0
   35.1895   28.3390   49.7462 N   0  0  0  0  0  0  0  0  0  0  0  0
   34.1085   28.4109   48.9500 C   0  0  0  0  0  0  0  0  0  0  0  0
   33.9838   29.4092   48.0714 N   0  0  0  0  0  0  0  0  0  0  0  0
   37.3833   29.1646   50.5896 C   0  0  0  0  0  0  0  0  0  0  0  0
   37.9442   30.4075   46.6429 O   0  0  0  0  0  0  0  0  0  0  0  0
   39.8432   32.3331   46.3984 O   0  0  0  0  0  0  0  0  0  0  0  0
   36.5242   32.3533   50.4426 H   0  0  0  0  0  0  0  0  0  0  0  0
   38.2445   34.1225   50.2498 H   0  0  0  0  0  0  0  0  0  0  0  0
   39.8186   34.0862   48.3035 H   0  0  0  0  0  0  0  0  0  0  0  0
   34.8332   31.1661   47.2556 H   0  0  0  0  0  0  0  0  0  0  0  0
   33.3743   27.6309   49.0681 H   0  0  0  0  0  0  0  0  0  0  0  0
   37.6929   28.1234   50.8189 H   0  0  0  0  0  0  0  0  0  0  0  0
   38.1979   29.7710   50.1223 H   0  0  0  0  0  0  0  0  0  0  0  0
   37.1160   29.7256   51.5210 H   0  0  0  0  0  0  0  0  0  0  0  0
   37.1264   30.2015   46.0887 H   0  0  0  0  0  0  0  0  0  0  0  0
   39.2703   32.4276   45.1370 C   0  0  0  0  0  0  0  0  0  0  0  0
   38.2915   33.2278   44.6772 N   0  0  0  0  0  0  0  0  0  0  0  0
   38.0997   32.9294   43.3788 C   0  0  0  0  0  0  0  0  0  0  0  0
   37.3739   33.4070   42.7307 H   0  0  0  0  0  0  0  0  0  0  0  0
   38.9549   31.9498   43.0360 N   0  0  0  0  0  0  0  0  0  0  0  0
   39.0375   31.5117   42.0908 H   0  0  0  0  0  0  0  0  0  0  0  0
   39.6507   31.6647   44.1156 N   0  0  0  0  0  0  0  0  0  0  0  0
  1  2  2  0
  2  8  1  0
  2  3  1  0
  4  3  2  0
  5  4  1  0
  6  1  1  0
  6  5  2  0
  7 12  2  0
  7  8  1  0
  8  9  2  0
  9 10  1  0
  9 13  1  0
 11 10  2  0
 12 11  1  0
 14  1  1  0
 15  6  1  0
  3 16  1  0
  4 17  1  0
  5 18  1  0
  7 19  1  0
 11 20  1  0
 13 21  1  0
 13 22  1  0
 13 23  1  0
 14 24  1  0
 25 26  1  0
 26 27  2  0
 27 28  1  0
 27 29  1  0
 29 30  1  0
 29 31  1  0
 31 25  2  0
 15 25  1  0
M  ISO  8  16  14  17  14  18  14  19  14  20  14  21   8  22   8  23   8
M  ISO  3  24   3  28  14  30   9
M  END
>  <DihAtoms>  (1) 
5,14,24,25

>  <DihDeg>  (1) 
2.8167932636065154e-05

$$$$
