
 OpenBabel03272506273D

 40 43  0  0  0  0  0  0  0  0999 V2000
   33.4190   27.6830   44.4870 C   0  0  0  0  0  0  0  0  0  0  0  0
   33.3190   26.6020   43.6310 C   0  0  0  0  0  0  0  0  0  0  0  0
   33.8330   26.5710   42.3370 C   0  0  0  0  0  0  0  0  0  0  0  0
   34.5010   27.7170   41.8620 C   0  0  0  0  0  0  0  0  0  0  0  0
   34.5930   28.7860   42.7280 C   0  0  0  0  0  0  0  0  0  0  0  0
   34.0860   28.8040   43.9930 C   0  0  0  0  0  0  0  0  0  0  0  0
   32.8030   25.6880   43.9670 H   0  0  0  0  0  0  0  0  0  0  0  0
   33.6910   25.6490   41.7490 H   0  0  0  0  0  0  0  0  0  0  0  0
   34.8530   27.5830   40.8620 H   0  0  0  0  0  0  0  0  0  0  0  0
   35.1130   29.5350   42.1890 H   0  0  0  0  0  0  0  0  0  0  0  0
   33.6220   26.9420   46.7770 C   0  0  0  0  0  0  0  0  0  0  0  0
   32.8270   27.5380   45.7850 C   0  0  0  0  0  0  0  0  0  0  0  0
   31.5300   27.9410   46.1320 C   0  0  0  0  0  0  0  0  0  0  0  0
   31.0950   27.7410   47.4050 N   0  0  0  0  0  0  0  0  0  0  0  0
   31.8900   27.1590   48.3510 C   0  0  0  0  0  0  0  0  0  0  0  0
   33.1510   26.7620   48.0310 N   0  0  0  0  0  0  0  0  0  0  0  0
   34.6150   26.6210   46.5490 H   0  0  0  0  0  0  0  0  0  0  0  0
   31.5550   26.9950   49.3650 H   0  0  0  0  0  0  0  0  0  0  0  0
   30.5750   28.5830   45.1830 C   0  0  0  0  0  0  0  0  0  0  0  0
   29.3370   28.7690   45.8240 F   0  0  0  0  0  0  0  0  0  0  0  0
   30.9670   29.7560   44.6520 F   0  0  0  0  0  0  0  0  0  0  0  0
   30.2760   27.6890   44.1470 F   0  0  0  0  0  0  0  0  0  0  0  0
   34.2140   30.1740   45.0820 S   0  0  0  0  0  0  0  0  0  0  0  0
   34.4370   30.0230   48.1790 Cl  0  0  0  0  0  0  0  0  0  0  0  0
   35.8570   30.2620   47.1990 C   0  0  0  0  0  0  0  0  0  0  0  0
   35.8170   30.3610   45.8090 C   0  0  0  0  0  0  0  0  0  0  0  0
   36.9580   30.5750   45.0910 C   0  0  0  0  0  0  0  0  0  0  0  0
   38.1600   30.6900   45.7740 C   0  0  0  0  0  0  0  0  0  0  0  0
   38.2050   30.5900   47.1680 C   0  0  0  0  0  0  0  0  0  0  0  0
   37.0530   30.3760   47.8930 C   0  0  0  0  0  0  0  0  0  0  0  0
   37.0260   30.7000   44.0420 H   0  0  0  0  0  0  0  0  0  0  0  0
   39.0950   30.8590   45.2480 H   0  0  0  0  0  0  0  0  0  0  0  0
   39.1860   30.6910   47.6410 H   0  0  0  0  0  0  0  0  0  0  0  0
   37.1380   30.2800   49.3460 C   0  0  0  0  0  0  0  0  0  0  0  0
   37.1460   29.0950   49.9810 N   0  0  0  0  0  0  0  0  0  0  0  0
   37.2320   29.3440   51.3220 C   0  0  0  0  0  0  0  0  0  0  0  0
   37.2700   28.7230   52.2100 H   0  0  0  0  0  0  0  0  0  0  0  0
   37.2750   30.7030   51.4550 N   0  0  0  0  0  0  0  0  0  0  0  0
   37.3400   31.3100   52.3010 H   0  0  0  0  0  0  0  0  0  0  0  0
   37.2170   31.2640   50.2590 N   0  0  0  0  0  0  0  0  0  0  0  0
  1 12  1  0  0  0  0
  2  7  1  0  0  0  0
  2  1  2  0  0  0  0
  3  2  1  0  0  0  0
  4  3  2  0  0  0  0
  4  5  1  0  0  0  0
  5  6  2  0  0  0  0
  6  1  1  0  0  0  0
  6 23  1  0  0  0  0
  8  3  1  0  0  0  0
  9  4  1  0  0  0  0
 10  5  1  0  0  0  0
 11 16  1  0  0  0  0
 12 13  1  0  0  0  0
 12 11  2  0  0  0  0
 13 14  2  0  0  0  0
 14 15  1  0  0  0  0
 15 18  1  0  0  0  0
 16 15  2  0  0  0  0
 17 11  1  0  0  0  0
 19 20  1  0  0  0  0
 19 13  1  0  0  0  0
 21 19  1  0  0  0  0
 22 19  1  0  0  0  0
 23 26  1  0  0  0  0
 25 30  1  0  0  0  0
 25 24  1  0  0  0  0
 26 25  2  0  0  0  0
 27 28  2  0  0  0  0
 27 26  1  0  0  0  0
 28 29  1  0  0  0  0
 29 33  1  0  0  0  0
 29 30  2  0  0  0  0
 30 34  1  0  0  0  0
 31 27  1  0  0  0  0
 32 28  1  0  0  0  0
 34 35  1  0  0  0  0
 34 40  2  0  0  0  0
 35 36  2  0  0  0  0
 36 38  1  0  0  0  0
 36 37  1  0  0  0  0
 38 39  1  0  0  0  0
 40 38  1  0  0  0  0
M  END
>  <minimizedAffinity>
-4.54868603

>  <minimizedRMSD>
2.59146762

$$$$
