
     RDKit          3D

 35 37  0  0  0  0  0  0  0  0999 V2000
   37.1310   30.9648   49.0222 C   0  0  0  0  0  0  0  0  0  0  0  0
   36.9124   31.9370   50.0023 C   0  0  0  0  0  0  0  0  0  0  0  0
   37.5538   33.1667   49.9810 C   0  0  0  0  0  0  0  0  0  0  0  0
   38.4525   33.4518   48.9457 C   0  0  0  0  0  0  0  0  0  0  0  0
   38.6560   32.4931   47.9959 C   0  0  0  0  0  0  0  0  0  0  0  0
   38.0029   31.2741   48.0407 C   0  0  0  0  0  0  0  0  0  0  0  0
   36.4160   29.7053   49.1236 C   0  0  0  0  0  0  0  0  0  0  0  0
   36.9287   28.8694   49.9498 O   0  0  0  0  0  0  0  0  0  0  0  0
   33.6295   30.1728   46.8540 C   0  0  0  0  0  0  0  0  0  0  0  0
   32.9635   28.9609   46.8721 C   0  0  0  0  0  0  0  0  0  0  0  0
   33.4712   27.9469   47.6797 C   0  0  0  0  0  0  0  0  0  0  0  0
   34.5939   28.1899   48.4120 N   0  0  0  0  0  0  0  0  0  0  0  0
   35.2055   29.3655   48.3688 C   0  0  0  0  0  0  0  0  0  0  0  0
   34.7150   30.3523   47.5856 N   0  0  0  0  0  0  0  0  0  0  0  0
   38.3347   30.3726   46.9582 C   0  0  0  0  0  0  0  0  0  0  0  0
   38.8055   30.7130   45.7663 C   0  0  0  0  0  0  0  0  0  0  0  0
   39.1867   29.9209   44.5882 C   0  0  0  0  0  0  0  0  0  0  0  0
   36.2111   31.6988   50.7992 H   0  0  0  0  0  0  0  0  0  0  0  0
   37.3137   33.8471   50.7866 H   0  0  0  0  0  0  0  0  0  0  0  0
   38.9325   34.4138   48.9589 H   0  0  0  0  0  0  0  0  0  0  0  0
   39.3646   32.7982   47.2360 H   0  0  0  0  0  0  0  0  0  0  0  0
   33.1924   30.9374   46.2047 H   0  0  0  0  0  0  0  0  0  0  0  0
   32.0688   28.7060   46.3144 H   0  0  0  0  0  0  0  0  0  0  0  0
   33.0773   26.9468   47.8105 H   0  0  0  0  0  0  0  0  0  0  0  0
   38.2282   29.2750   47.0108 H   0  0  0  0  0  0  0  0  0  0  0  0
   38.9772   31.7568   45.5261 H   0  0  0  0  0  0  0  0  0  0  0  0
   38.5608   30.2286   43.7207 H   0  0  0  0  0  0  0  0  0  0  0  0
   39.0096   28.8320   44.6939 H   0  0  0  0  0  0  0  0  0  0  0  0
   40.6183   30.1166   44.2230 C   0  0  0  0  0  0  0  0  0  0  0  0
   41.2024   30.0514   43.0058 N   0  0  0  0  0  0  0  0  0  0  0  0
   42.5217   30.3004   43.1744 C   0  0  0  0  0  0  0  0  0  0  0  0
   43.3895   30.3620   42.5335 H   0  0  0  0  0  0  0  0  0  0  0  0
   42.7164   30.5128   44.4927 N   0  0  0  0  0  0  0  0  0  0  0  0
   43.5708   30.7386   45.0764 H   0  0  0  0  0  0  0  0  0  0  0  0
   41.5709   30.4045   45.1411 N   0  0  0  0  0  0  0  0  0  0  0  0
  1  7  1  0
  1  2  2  0
  3  2  1  0
  4  3  2  0
  5  6  2  0
  5  4  1  0
  6  1  1  0
  7  8  2  0
  9 10  2  0
  9 14  1  0
 10 11  1  0
 11 12  2  0
 13 12  1  0
 13  7  1  0
 14 13  2  0
 15  6  1  0
 16 15  2  0
 17 16  1  0
  2 18  1  0
  3 19  1  0
  4 20  1  0
  5 21  1  0
  9 22  1  0
 10 23  1  0
 11 24  1  0
 15 25  1  0
 16 26  1  0
 17 27  1  0
 17 28  1  0
 29 30  1  0
 30 31  2  0
 31 32  1  0
 31 33  1  0
 33 34  1  0
 33 35  1  0
 35 29  2  0
 17 29  1  0
M  ISO  8  18  14  19  14  20  14  21  14  22  14  23  14  24  14  27   8
M  ISO  3  28   8  32  14  34   9
M  END
>  <DihAtoms>  (1) 
15,16,28,29

>  <DihDeg>  (1) 
-90.00137109814125

$$$$
