
 OpenBabel03272504023D

 39 42  0  0  0  0  0  0  0  0999 V2000
   34.3220   29.4210   49.5510 C   0  0  0  0  0  0  0  0  0  0  0  0
   33.9900   29.0630   50.5240 H   0  0  0  0  0  0  0  0  0  0  0  0
   33.6860   30.3360   49.3540 H   0  0  0  0  0  0  0  0  0  0  0  0
   35.7120   29.9330   49.5810 C   0  0  0  0  0  0  0  0  0  0  0  0
   36.6920   29.3680   50.4000 C   0  0  0  0  0  0  0  0  0  0  0  0
   37.8530   30.0580   50.1980 C   0  0  0  0  0  0  0  0  0  0  0  0
   37.5850   31.0050   49.2920 N   0  0  0  0  0  0  0  0  0  0  0  0
   36.3210   30.9080   48.9470 N   0  0  0  0  0  0  0  0  0  0  0  0
   36.5890   28.5330   51.0850 H   0  0  0  0  0  0  0  0  0  0  0  0
   38.8470   29.9580   50.6210 H   0  0  0  0  0  0  0  0  0  0  0  0
   38.3990   32.0100   48.7020 C   0  0  0  0  0  0  0  0  0  0  0  0
   38.6730   33.1060   49.4760 C   0  0  0  0  0  0  0  0  0  0  0  0
   39.4510   34.1790   49.0540 C   0  0  0  0  0  0  0  0  0  0  0  0
   39.9650   34.1020   47.7680 C   0  0  0  0  0  0  0  0  0  0  0  0
   39.6990   33.0080   46.9770 C   0  0  0  0  0  0  0  0  0  0  0  0
   38.9250   31.9570   47.4190 C   0  0  0  0  0  0  0  0  0  0  0  0
   38.2810   33.1910   50.4890 H   0  0  0  0  0  0  0  0  0  0  0  0
   39.6470   35.0290   49.6930 H   0  0  0  0  0  0  0  0  0  0  0  0
   40.5830   34.8980   47.3630 H   0  0  0  0  0  0  0  0  0  0  0  0
   40.0740   32.8880   45.9590 H   0  0  0  0  0  0  0  0  0  0  0  0
   38.6680   31.0610   46.8610 H   0  0  0  0  0  0  0  0  0  0  0  0
   34.0640   28.4710   48.4520 C   0  0  0  0  0  0  0  0  0  0  0  0
   34.9490   27.7670   48.4440 H   0  0  0  0  0  0  0  0  0  0  0  0
   33.2220   27.8000   48.7730 H   0  0  0  0  0  0  0  0  0  0  0  0
   33.7570   28.9940   47.1560 C   0  0  0  0  0  0  0  0  0  0  0  0
   32.4490   29.0790   46.7440 C   0  0  0  0  0  0  0  0  0  0  0  0
   32.1310   29.5960   45.4620 C   0  0  0  0  0  0  0  0  0  0  0  0
   33.1980   29.9930   44.6860 N   0  0  0  0  0  0  0  0  0  0  0  0
   34.4770   29.8880   45.1410 C   0  0  0  0  0  0  0  0  0  0  0  0
   34.7270   29.3930   46.3630 N   0  0  0  0  0  0  0  0  0  0  0  0
   31.6120   28.7640   47.3600 H   0  0  0  0  0  0  0  0  0  0  0  0
   31.1180   29.6580   45.1520 H   0  0  0  0  0  0  0  0  0  0  0  0
   35.5570   30.3290   44.2650 C   0  0  0  0  0  0  0  0  0  0  0  0
   36.6790   30.8140   44.8430 N   0  0  0  0  0  0  0  0  0  0  0  0
   37.5670   31.1710   43.8890 C   0  0  0  0  0  0  0  0  0  0  0  0
   38.5590   31.5940   44.0580 H   0  0  0  0  0  0  0  0  0  0  0  0
   36.9640   30.8940   42.6950 N   0  0  0  0  0  0  0  0  0  0  0  0
   37.3930   31.0590   41.7770 H   0  0  0  0  0  0  0  0  0  0  0  0
   35.7580   30.3900   42.9380 N   0  0  0  0  0  0  0  0  0  0  0  0
  1  4  1  0  0  0  0
  1  2  1  0  0  0  0
  3  1  1  0  0  0  0
  4  5  1  0  0  0  0
  5  9  1  0  0  0  0
  6  5  2  0  0  0  0
  6 10  1  0  0  0  0
  7  6  1  0  0  0  0
  8  7  1  0  0  0  0
  8  4  2  0  0  0  0
 11  7  1  0  0  0  0
 11 12  1  0  0  0  0
 12 17  1  0  0  0  0
 13 12  2  0  0  0  0
 13 18  1  0  0  0  0
 14 13  1  0  0  0  0
 15 16  1  0  0  0  0
 15 14  2  0  0  0  0
 16 11  2  0  0  0  0
 19 14  1  0  0  0  0
 20 15  1  0  0  0  0
 21 16  1  0  0  0  0
 22 24  1  0  0  0  0
 22  1  1  0  0  0  0
 23 22  1  0  0  0  0
 25 22  1  0  0  0  0
 26 25  1  0  0  0  0
 26 31  1  0  0  0  0
 27 26  2  0  0  0  0
 28 29  2  0  0  0  0
 28 27  1  0  0  0  0
 29 30  1  0  0  0  0
 30 25  2  0  0  0  0
 32 27  1  0  0  0  0
 33 34  1  0  0  0  0
 33 29  1  0  0  0  0
 35 36  1  0  0  0  0
 35 34  2  0  0  0  0
 37 39  1  0  0  0  0
 37 35  1  0  0  0  0
 38 37  1  0  0  0  0
 39 33  2  0  0  0  0
M  END
>  <minimizedAffinity>
-5.63867426

>  <minimizedRMSD>
0.86270833

$$$$
