
 OpenBabel03272503063D

 30 32  0  0  0  0  0  0  0  0999 V2000
   37.0290   27.4470   35.4150 F   0  0  0  0  0  0  0  0  0  0  0  0
   37.5890   27.3940   34.1900 C   0  0  0  0  0  0  0  0  0  0  0  0
   37.0170   28.0560   33.1320 C   0  0  0  0  0  0  0  0  0  0  0  0
   37.6370   27.9600   31.9200 C   0  0  0  0  0  0  0  0  0  0  0  0
   38.7870   27.2370   31.7330 C   0  0  0  0  0  0  0  0  0  0  0  0
   39.3520   26.5750   32.8050 C   0  0  0  0  0  0  0  0  0  0  0  0
   38.7500   26.6510   34.0510 C   0  0  0  0  0  0  0  0  0  0  0  0
   37.1870   28.4800   31.0900 H   0  0  0  0  0  0  0  0  0  0  0  0
   39.2250   27.2020   30.7480 H   0  0  0  0  0  0  0  0  0  0  0  0
   40.2570   25.9990   32.6850 H   0  0  0  0  0  0  0  0  0  0  0  0
   34.4880   30.4440   34.6290 C   0  0  0  0  0  0  0  0  0  0  0  0
   35.6810   29.7370   34.4110 C   0  0  0  0  0  0  0  0  0  0  0  0
   35.7920   28.8100   33.3890 C   0  0  0  0  0  0  0  0  0  0  0  0
   34.6760   28.6220   32.6080 N   0  0  0  0  0  0  0  0  0  0  0  0
   33.5430   29.3130   32.8390 C   0  0  0  0  0  0  0  0  0  0  0  0
   33.4470   30.2020   33.8230 N   0  0  0  0  0  0  0  0  0  0  0  0
   34.4240   31.1710   35.4430 H   0  0  0  0  0  0  0  0  0  0  0  0
   36.5420   29.8950   35.0280 H   0  0  0  0  0  0  0  0  0  0  0  0
   32.7360   29.0730   32.1540 H   0  0  0  0  0  0  0  0  0  0  0  0
   38.8610   24.6260   35.3180 C   0  0  0  0  0  0  0  0  0  0  0  0
   38.0600   24.2170   34.4290 O   0  0  0  0  0  0  0  0  0  0  0  0
   39.3050   25.9780   35.1910 N   0  0  0  0  0  0  0  0  0  0  0  0
   39.9620   26.3310   35.9090 H   0  0  0  0  0  0  0  0  0  0  0  0
   39.2930   23.7490   36.4000 C   0  0  0  0  0  0  0  0  0  0  0  0
   40.4380   23.0440   36.3590 N   0  0  0  0  0  0  0  0  0  0  0  0
   40.5510   22.3270   37.5170 C   0  0  0  0  0  0  0  0  0  0  0  0
   41.2990   21.6420   37.8920 H   0  0  0  0  0  0  0  0  0  0  0  0
   39.4380   22.6320   38.2410 N   0  0  0  0  0  0  0  0  0  0  0  0
   39.1150   22.3140   39.1800 H   0  0  0  0  0  0  0  0  0  0  0  0
   38.6900   23.4920   37.5500 N   0  0  0  0  0  0  0  0  0  0  0  0
  2  1  1  0  0  0  0
  3 13  1  0  0  0  0
  3  2  2  0  0  0  0
  4  3  1  0  0  0  0
  5  4  2  0  0  0  0
  5  6  1  0  0  0  0
  6  7  2  0  0  0  0
  7  2  1  0  0  0  0
  7 22  1  0  0  0  0
  8  4  1  0  0  0  0
  9  5  1  0  0  0  0
 10  6  1  0  0  0  0
 11 17  1  0  0  0  0
 12 11  1  0  0  0  0
 12 18  1  0  0  0  0
 13 12  2  0  0  0  0
 14 15  2  0  0  0  0
 14 13  1  0  0  0  0
 15 16  1  0  0  0  0
 16 11  2  0  0  0  0
 19 15  1  0  0  0  0
 20 24  1  0  0  0  0
 21 20  2  0  0  0  0
 22 20  1  0  0  0  0
 22 23  1  0  0  0  0
 24 30  2  0  0  0  0
 25 24  1  0  0  0  0
 25 26  2  0  0  0  0
 26 27  1  0  0  0  0
 26 28  1  0  0  0  0
 28 29  1  0  0  0  0
 30 28  1  0  0  0  0
M  END
>  <minimizedAffinity>
-5.45974731

$$$$

 OpenBabel03272503063D

 30 32  0  0  0  0  0  0  0  0999 V2000
   40.1790   23.9360   34.8250 F   0  0  0  0  0  0  0  0  0  0  0  0
   39.6170   23.7760   36.0380 C   0  0  0  0  0  0  0  0  0  0  0  0
   40.2820   23.1000   37.0320 C   0  0  0  0  0  0  0  0  0  0  0  0
   39.6540   22.9740   38.2370 C   0  0  0  0  0  0  0  0  0  0  0  0
   38.4060   23.4910   38.4780 C   0  0  0  0  0  0  0  0  0  0  0  0
   37.7480   24.1680   37.4710 C   0  0  0  0  0  0  0  0  0  0  0  0
   38.3560   24.3150   36.2330 C   0  0  0  0  0  0  0  0  0  0  0  0
   40.1760   22.4440   39.0160 H   0  0  0  0  0  0  0  0  0  0  0  0
   37.9670   23.3550   39.4540 H   0  0  0  0  0  0  0  0  0  0  0  0
   36.7650   24.5840   37.6340 H   0  0  0  0  0  0  0  0  0  0  0  0
   43.1580   20.7420   36.3220 C   0  0  0  0  0  0  0  0  0  0  0  0
   41.8710   21.2160   36.6260 C   0  0  0  0  0  0  0  0  0  0  0  0
   41.6070   22.5710   36.7180 C   0  0  0  0  0  0  0  0  0  0  0  0
   42.6670   23.4190   36.4990 N   0  0  0  0  0  0  0  0  0  0  0  0
   43.8920   22.9390   36.2100 C   0  0  0  0  0  0  0  0  0  0  0  0
   44.1350   21.6350   36.1230 N   0  0  0  0  0  0  0  0  0  0  0  0
   43.3440   19.6660   36.2550 H   0  0  0  0  0  0  0  0  0  0  0  0
   41.0570   20.5420   36.7940 H   0  0  0  0  0  0  0  0  0  0  0  0
   44.6400   23.7100   36.0590 H   0  0  0  0  0  0  0  0  0  0  0  0
   37.8130   26.4330   35.2650 C   0  0  0  0  0  0  0  0  0  0  0  0
   38.4510   26.8710   36.2650 O   0  0  0  0  0  0  0  0  0  0  0  0
   37.7050   25.0120   35.1600 N   0  0  0  0  0  0  0  0  0  0  0  0
   37.1870   24.6350   34.3480 H   0  0  0  0  0  0  0  0  0  0  0  0
   37.2290   27.3460   34.2890 C   0  0  0  0  0  0  0  0  0  0  0  0
   37.5900   27.3620   32.9940 N   0  0  0  0  0  0  0  0  0  0  0  0
   36.8630   28.3240   32.3500 C   0  0  0  0  0  0  0  0  0  0  0  0
   36.8360   28.6670   31.3250 H   0  0  0  0  0  0  0  0  0  0  0  0
   36.0620   28.8720   33.3070 N   0  0  0  0  0  0  0  0  0  0  0  0
   35.3510   29.6330   33.2600 H   0  0  0  0  0  0  0  0  0  0  0  0
   36.2970   28.2680   34.4710 N   0  0  0  0  0  0  0  0  0  0  0  0
  1  2  1  0  0  0  0
  2  7  2  0  0  0  0
  2  3  1  0  0  0  0
  3  4  2  0  0  0  0
  4  5  1  0  0  0  0
  4  8  1  0  0  0  0
  5  9  1  0  0  0  0
  6 10  1  0  0  0  0
  6  5  2  0  0  0  0
  7  6  1  0  0  0  0
 11 12  1  0  0  0  0
 12 13  2  0  0  0  0
 12 18  1  0  0  0  0
 13  3  1  0  0  0  0
 14 13  1  0  0  0  0
 15 14  2  0  0  0  0
 16 15  1  0  0  0  0
 16 11  2  0  0  0  0
 17 11  1  0  0  0  0
 19 15  1  0  0  0  0
 20 21  2  0  0  0  0
 22 20  1  0  0  0  0
 22  7  1  0  0  0  0
 23 22  1  0  0  0  0
 24 30  2  0  0  0  0
 24 20  1  0  0  0  0
 25 24  1  0  0  0  0
 26 25  2  0  0  0  0
 26 28  1  0  0  0  0
 27 26  1  0  0  0  0
 28 30  1  0  0  0  0
 29 28  1  0  0  0  0
M  END
>  <minimizedAffinity>
-5.2422967

$$$$

 OpenBabel03272503063D

 30 32  0  0  0  0  0  0  0  0999 V2000
   35.9270   28.0680   34.6240 F   0  0  0  0  0  0  0  0  0  0  0  0
   36.0920   28.8110   33.5130 C   0  0  0  0  0  0  0  0  0  0  0  0
   35.6680   30.1160   33.4760 C   0  0  0  0  0  0  0  0  0  0  0  0
   35.8660   30.8100   32.3180 C   0  0  0  0  0  0  0  0  0  0  0  0
   36.4620   30.2540   31.2150 C   0  0  0  0  0  0  0  0  0  0  0  0
   36.8830   28.9400   31.2640 C   0  0  0  0  0  0  0  0  0  0  0  0
   36.6980   28.2040   32.4250 C   0  0  0  0  0  0  0  0  0  0  0  0
   35.5330   31.8350   32.2900 H   0  0  0  0  0  0  0  0  0  0  0  0
   36.5870   30.8590   30.3310 H   0  0  0  0  0  0  0  0  0  0  0  0
   37.3550   28.4780   30.4100 H   0  0  0  0  0  0  0  0  0  0  0  0
   35.0870   31.9350   36.7460 C   0  0  0  0  0  0  0  0  0  0  0  0
   35.7230   31.4320   35.6000 C   0  0  0  0  0  0  0  0  0  0  0  0
   35.0390   30.6570   34.6800 C   0  0  0  0  0  0  0  0  0  0  0  0
   33.7140   30.4090   34.9500 N   0  0  0  0  0  0  0  0  0  0  0  0
   33.1270   30.9030   36.0580 C   0  0  0  0  0  0  0  0  0  0  0  0
   33.7930   31.6470   36.9360 N   0  0  0  0  0  0  0  0  0  0  0  0
   35.6470   32.5440   37.4600 H   0  0  0  0  0  0  0  0  0  0  0  0
   36.7560   31.6330   35.4040 H   0  0  0  0  0  0  0  0  0  0  0  0
   32.0800   30.6360   36.1540 H   0  0  0  0  0  0  0  0  0  0  0  0
   36.2240   25.9240   31.8820 C   0  0  0  0  0  0  0  0  0  0  0  0
   35.2030   26.4360   31.3380 O   0  0  0  0  0  0  0  0  0  0  0  0
   37.1220   26.8360   32.5170 N   0  0  0  0  0  0  0  0  0  0  0  0
   37.9640   26.4360   32.9670 H   0  0  0  0  0  0  0  0  0  0  0  0
   36.4490   24.4840   31.8500 C   0  0  0  0  0  0  0  0  0  0  0  0
   35.6640   23.6350   31.1620 N   0  0  0  0  0  0  0  0  0  0  0  0
   36.1380   22.3650   31.3340 C   0  0  0  0  0  0  0  0  0  0  0  0
   35.8150   21.4000   30.9680 H   0  0  0  0  0  0  0  0  0  0  0  0
   37.2260   22.4930   32.1450 N   0  0  0  0  0  0  0  0  0  0  0  0
   37.8880   21.7850   32.5300 H   0  0  0  0  0  0  0  0  0  0  0  0
   37.3980   23.7800   32.4450 N   0  0  0  0  0  0  0  0  0  0  0  0
  2  1  1  0  0  0  0
  3  2  1  0  0  0  0
  3 13  1  0  0  0  0
  4  3  2  0  0  0  0
  5  6  2  0  0  0  0
  5  4  1  0  0  0  0
  6  7  1  0  0  0  0
  7 22  1  0  0  0  0
  7  2  2  0  0  0  0
  8  4  1  0  0  0  0
  9  5  1  0  0  0  0
 10  6  1  0  0  0  0
 11 16  1  0  0  0  0
 11 17  1  0  0  0  0
 12 11  2  0  0  0  0
 13 14  2  0  0  0  0
 13 12  1  0  0  0  0
 14 15  1  0  0  0  0
 15 19  1  0  0  0  0
 15 16  2  0  0  0  0
 18 12  1  0  0  0  0
 20 22  1  0  0  0  0
 21 20  2  0  0  0  0
 22 23  1  0  0  0  0
 24 20  1  0  0  0  0
 24 30  2  0  0  0  0
 25 26  2  0  0  0  0
 25 24  1  0  0  0  0
 26 28  1  0  0  0  0
 27 26  1  0  0  0  0
 28 30  1  0  0  0  0
 28 29  1  0  0  0  0
M  END
>  <minimizedAffinity>
-5.17947865

$$$$

 OpenBabel03272503063D

 30 32  0  0  0  0  0  0  0  0999 V2000
   37.9920   23.2450   32.9430 F   0  0  0  0  0  0  0  0  0  0  0  0
   37.1150   24.0660   32.3330 C   0  0  0  0  0  0  0  0  0  0  0  0
   36.0530   23.5560   31.6290 C   0  0  0  0  0  0  0  0  0  0  0  0
   35.2040   24.4460   31.0370 C   0  0  0  0  0  0  0  0  0  0  0  0
   35.3790   25.8030   31.1220 C   0  0  0  0  0  0  0  0  0  0  0  0
   36.4520   26.3040   31.8320 C   0  0  0  0  0  0  0  0  0  0  0  0
   37.3340   25.4290   32.4480 C   0  0  0  0  0  0  0  0  0  0  0  0
   34.3710   24.0440   30.4840 H   0  0  0  0  0  0  0  0  0  0  0  0
   34.6710   26.4510   30.6290 H   0  0  0  0  0  0  0  0  0  0  0  0
   36.6120   27.3680   31.9150 H   0  0  0  0  0  0  0  0  0  0  0  0
   34.8910   20.0060   32.2510 C   0  0  0  0  0  0  0  0  0  0  0  0
   34.9950   21.4040   32.3320 C   0  0  0  0  0  0  0  0  0  0  0  0
   35.9160   22.1020   31.5720 C   0  0  0  0  0  0  0  0  0  0  0  0
   36.7180   21.3550   30.7400 N   0  0  0  0  0  0  0  0  0  0  0  0
   36.5980   20.0140   30.6820 C   0  0  0  0  0  0  0  0  0  0  0  0
   35.7090   19.3530   31.4170 N   0  0  0  0  0  0  0  0  0  0  0  0
   34.1560   19.4750   32.8620 H   0  0  0  0  0  0  0  0  0  0  0  0
   34.3630   21.9710   32.9850 H   0  0  0  0  0  0  0  0  0  0  0  0
   37.2870   19.5440   29.9890 H   0  0  0  0  0  0  0  0  0  0  0  0
   39.6190   26.1330   32.3880 C   0  0  0  0  0  0  0  0  0  0  0  0
   39.4940   25.8850   31.1550 O   0  0  0  0  0  0  0  0  0  0  0  0
   38.4620   25.9090   33.1960 N   0  0  0  0  0  0  0  0  0  0  0  0
   38.5440   26.1080   34.2080 H   0  0  0  0  0  0  0  0  0  0  0  0
   40.8820   26.6190   32.9310 C   0  0  0  0  0  0  0  0  0  0  0  0
   41.9730   26.8280   32.1740 N   0  0  0  0  0  0  0  0  0  0  0  0
   42.9830   27.2800   32.9760 C   0  0  0  0  0  0  0  0  0  0  0  0
   44.0080   27.5650   32.7850 H   0  0  0  0  0  0  0  0  0  0  0  0
   42.4510   27.3320   34.2300 N   0  0  0  0  0  0  0  0  0  0  0  0
   42.8630   27.6180   35.1440 H   0  0  0  0  0  0  0  0  0  0  0  0
   41.1820   26.9290   34.1820 N   0  0  0  0  0  0  0  0  0  0  0  0
  2  7  1  0  0  0  0
  2  1  1  0  0  0  0
  3  2  2  0  0  0  0
  4  5  2  0  0  0  0
  4  3  1  0  0  0  0
  5  6  1  0  0  0  0
  6 10  1  0  0  0  0
  6  7  2  0  0  0  0
  7 22  1  0  0  0  0
  8  4  1  0  0  0  0
  9  5  1  0  0  0  0
 11 12  1  0  0  0  0
 11 17  1  0  0  0  0
 12 18  1  0  0  0  0
 13  3  1  0  0  0  0
 13 12  2  0  0  0  0
 14 13  1  0  0  0  0
 15 14  2  0  0  0  0
 15 16  1  0  0  0  0
 16 11  2  0  0  0  0
 19 15  1  0  0  0  0
 20 24  1  0  0  0  0
 20 22  1  0  0  0  0
 21 20  2  0  0  0  0
 22 23  1  0  0  0  0
 24 30  2  0  0  0  0
 25 24  1  0  0  0  0
 25 26  2  0  0  0  0
 26 28  1  0  0  0  0
 27 26  1  0  0  0  0
 28 29  1  0  0  0  0
 30 28  1  0  0  0  0
M  END
>  <minimizedAffinity>
-4.93227816

$$$$

 OpenBabel03272503063D

 30 32  0  0  0  0  0  0  0  0999 V2000
   40.2940   25.9470   32.8980 F   0  0  0  0  0  0  0  0  0  0  0  0
   39.1280   26.6120   33.0150 C   0  0  0  0  0  0  0  0  0  0  0  0
   38.5720   27.2430   31.9300 C   0  0  0  0  0  0  0  0  0  0  0  0
   37.3900   27.8990   32.1210 C   0  0  0  0  0  0  0  0  0  0  0  0
   36.7580   27.9450   33.3370 C   0  0  0  0  0  0  0  0  0  0  0  0
   37.3280   27.3070   34.4200 C   0  0  0  0  0  0  0  0  0  0  0  0
   38.5280   26.6310   34.2640 C   0  0  0  0  0  0  0  0  0  0  0  0
   36.9540   28.3940   31.2680 H   0  0  0  0  0  0  0  0  0  0  0  0
   35.8250   28.4810   33.4180 H   0  0  0  0  0  0  0  0  0  0  0  0
   36.8500   27.3280   35.3880 H   0  0  0  0  0  0  0  0  0  0  0  0
   40.7400   28.0850   28.9420 C   0  0  0  0  0  0  0  0  0  0  0  0
   40.0630   28.1980   30.1670 C   0  0  0  0  0  0  0  0  0  0  0  0
   39.2900   27.1620   30.6600 C   0  0  0  0  0  0  0  0  0  0  0  0
   39.2220   26.0250   29.8880 N   0  0  0  0  0  0  0  0  0  0  0  0
   39.8810   25.9430   28.7160 C   0  0  0  0  0  0  0  0  0  0  0  0
   40.6220   26.9450   28.2510 N   0  0  0  0  0  0  0  0  0  0  0  0
   41.3450   28.9180   28.5720 H   0  0  0  0  0  0  0  0  0  0  0  0
   40.1260   29.0900   30.7560 H   0  0  0  0  0  0  0  0  0  0  0  0
   39.7460   24.9960   28.2040 H   0  0  0  0  0  0  0  0  0  0  0  0
   38.7780   24.5790   35.4660 C   0  0  0  0  0  0  0  0  0  0  0  0
   37.9670   24.1570   34.5930 O   0  0  0  0  0  0  0  0  0  0  0  0
   39.1530   25.9540   35.3650 N   0  0  0  0  0  0  0  0  0  0  0  0
   39.8170   26.3180   36.0700 H   0  0  0  0  0  0  0  0  0  0  0  0
   39.2870   23.6940   36.5070 C   0  0  0  0  0  0  0  0  0  0  0  0
   40.4440   23.0170   36.3920 N   0  0  0  0  0  0  0  0  0  0  0  0
   40.6360   22.2830   37.5290 C   0  0  0  0  0  0  0  0  0  0  0  0
   41.4180   21.6100   37.8510 H   0  0  0  0  0  0  0  0  0  0  0  0
   39.5560   22.5500   38.3170 N   0  0  0  0  0  0  0  0  0  0  0  0
   39.2920   22.2090   39.2660 H   0  0  0  0  0  0  0  0  0  0  0  0
   38.7540   23.4040   37.6830 N   0  0  0  0  0  0  0  0  0  0  0  0
  1  2  1  0  0  0  0
  2  7  1  0  0  0  0
  3  4  1  0  0  0  0
  3  2  2  0  0  0  0
  4  5  2  0  0  0  0
  5  9  1  0  0  0  0
  5  6  1  0  0  0  0
  6 10  1  0  0  0  0
  7  6  2  0  0  0  0
  7 22  1  0  0  0  0
  8  4  1  0  0  0  0
 11 12  1  0  0  0  0
 12 13  2  0  0  0  0
 12 18  1  0  0  0  0
 13  3  1  0  0  0  0
 14 13  1  0  0  0  0
 15 14  2  0  0  0  0
 16 15  1  0  0  0  0
 16 11  2  0  0  0  0
 17 11  1  0  0  0  0
 19 15  1  0  0  0  0
 20 24  1  0  0  0  0
 21 20  2  0  0  0  0
 22 20  1  0  0  0  0
 22 23  1  0  0  0  0
 24 30  2  0  0  0  0
 25 24  1  0  0  0  0
 25 26  2  0  0  0  0
 26 27  1  0  0  0  0
 26 28  1  0  0  0  0
 28 29  1  0  0  0  0
 30 28  1  0  0  0  0
M  END
>  <minimizedAffinity>
-4.92569637

$$$$

 OpenBabel03272503063D

 30 32  0  0  0  0  0  0  0  0999 V2000
   38.6260   25.7410   33.2720 F   0  0  0  0  0  0  0  0  0  0  0  0
   37.6950   24.9490   32.7070 C   0  0  0  0  0  0  0  0  0  0  0  0
   36.6880   25.4880   31.9450 C   0  0  0  0  0  0  0  0  0  0  0  0
   35.7780   24.6270   31.4020 C   0  0  0  0  0  0  0  0  0  0  0  0
   35.8410   23.2700   31.5920 C   0  0  0  0  0  0  0  0  0  0  0  0
   36.8580   22.7400   32.3600 C   0  0  0  0  0  0  0  0  0  0  0  0
   37.8000   23.5850   32.9270 C   0  0  0  0  0  0  0  0  0  0  0  0
   34.9880   25.0510   30.8050 H   0  0  0  0  0  0  0  0  0  0  0  0
   35.0890   22.6460   31.1350 H   0  0  0  0  0  0  0  0  0  0  0  0
   36.9290   21.6760   32.5250 H   0  0  0  0  0  0  0  0  0  0  0  0
   37.1110   28.9670   30.5110 C   0  0  0  0  0  0  0  0  0  0  0  0
   37.1430   27.5690   30.6390 C   0  0  0  0  0  0  0  0  0  0  0  0
   36.6710   26.9400   31.7770 C   0  0  0  0  0  0  0  0  0  0  0  0
   36.1740   27.7540   32.7680 N   0  0  0  0  0  0  0  0  0  0  0  0
   36.1550   29.0930   32.6210 C   0  0  0  0  0  0  0  0  0  0  0  0
   36.6110   29.6880   31.5220 N   0  0  0  0  0  0  0  0  0  0  0  0
   37.4900   29.4430   29.6030 H   0  0  0  0  0  0  0  0  0  0  0  0
   37.5330   26.9490   29.8580 H   0  0  0  0  0  0  0  0  0  0  0  0
   35.7390   29.6210   33.4720 H   0  0  0  0  0  0  0  0  0  0  0  0
   38.5700   23.0550   35.1280 C   0  0  0  0  0  0  0  0  0  0  0  0
   37.4240   23.4790   35.4550 O   0  0  0  0  0  0  0  0  0  0  0  0
   38.8730   23.0740   33.7320 N   0  0  0  0  0  0  0  0  0  0  0  0
   39.8050   22.7300   33.4450 H   0  0  0  0  0  0  0  0  0  0  0  0
   39.5090   22.5780   36.1370 C   0  0  0  0  0  0  0  0  0  0  0  0
   40.6510   21.9380   35.8290 N   0  0  0  0  0  0  0  0  0  0  0  0
   41.3030   21.6250   36.9890 C   0  0  0  0  0  0  0  0  0  0  0  0
   42.2350   21.1200   37.2000 H   0  0  0  0  0  0  0  0  0  0  0  0
   40.5090   22.1030   37.9880 N   0  0  0  0  0  0  0  0  0  0  0  0
   40.6170   22.0850   39.0250 H   0  0  0  0  0  0  0  0  0  0  0  0
   39.4310   22.6750   37.4540 N   0  0  0  0  0  0  0  0  0  0  0  0
  2  7  1  0  0  0  0
  2  1  1  0  0  0  0
  3  2  2  0  0  0  0
  4  5  2  0  0  0  0
  4  3  1  0  0  0  0
  5  6  1  0  0  0  0
  6 10  1  0  0  0  0
  6  7  2  0  0  0  0
  7 22  1  0  0  0  0
  8  4  1  0  0  0  0
  9  5  1  0  0  0  0
 11 12  2  0  0  0  0
 11 16  1  0  0  0  0
 12 13  1  0  0  0  0
 13  3  1  0  0  0  0
 13 14  2  0  0  0  0
 15 14  1  0  0  0  0
 15 19  1  0  0  0  0
 16 15  2  0  0  0  0
 17 11  1  0  0  0  0
 18 12  1  0  0  0  0
 20 21  2  0  0  0  0
 20 24  1  0  0  0  0
 22 20  1  0  0  0  0
 23 22  1  0  0  0  0
 24 30  2  0  0  0  0
 25 24  1  0  0  0  0
 25 26  2  0  0  0  0
 26 27  1  0  0  0  0
 26 28  1  0  0  0  0
 28 29  1  0  0  0  0
 30 28  1  0  0  0  0
M  END
>  <minimizedAffinity>
-4.88333225

$$$$

 OpenBabel03272503063D

 30 32  0  0  0  0  0  0  0  0999 V2000
   38.6660   25.4540   34.4090 F   0  0  0  0  0  0  0  0  0  0  0  0
   38.2840   24.3070   33.8150 C   0  0  0  0  0  0  0  0  0  0  0  0
   38.1480   23.1530   34.5460 C   0  0  0  0  0  0  0  0  0  0  0  0
   37.7580   22.0270   33.8800 C   0  0  0  0  0  0  0  0  0  0  0  0
   37.5040   22.0170   32.5320 C   0  0  0  0  0  0  0  0  0  0  0  0
   37.6440   23.1830   31.8080 C   0  0  0  0  0  0  0  0  0  0  0  0
   38.0390   24.3460   32.4520 C   0  0  0  0  0  0  0  0  0  0  0  0
   37.6520   21.1220   34.4550 H   0  0  0  0  0  0  0  0  0  0  0  0
   37.1990   21.0920   32.0680 H   0  0  0  0  0  0  0  0  0  0  0  0
   37.4500   23.2020   30.7470 H   0  0  0  0  0  0  0  0  0  0  0  0
   39.8520   22.8410   37.9140 C   0  0  0  0  0  0  0  0  0  0  0  0
   39.6120   22.7570   36.5320 C   0  0  0  0  0  0  0  0  0  0  0  0
   38.4330   23.2230   35.9780 C   0  0  0  0  0  0  0  0  0  0  0  0
   37.5180   23.7670   36.8490 N   0  0  0  0  0  0  0  0  0  0  0  0
   37.7730   23.8350   38.1700 C   0  0  0  0  0  0  0  0  0  0  0  0
   38.9100   23.3850   38.6930 N   0  0  0  0  0  0  0  0  0  0  0  0
   40.7910   22.4650   38.3290 H   0  0  0  0  0  0  0  0  0  0  0  0
   40.3340   22.3300   35.8680 H   0  0  0  0  0  0  0  0  0  0  0  0
   36.9730   24.2860   38.7470 H   0  0  0  0  0  0  0  0  0  0  0  0
   36.9570   26.2470   31.4850 C   0  0  0  0  0  0  0  0  0  0  0  0
   35.9180   25.6730   31.9200 O   0  0  0  0  0  0  0  0  0  0  0  0
   38.1960   25.5800   31.7350 N   0  0  0  0  0  0  0  0  0  0  0  0
   39.0580   26.0350   31.3880 H   0  0  0  0  0  0  0  0  0  0  0  0
   36.8710   27.5160   30.7720 C   0  0  0  0  0  0  0  0  0  0  0  0
   37.7500   27.8850   29.8240 N   0  0  0  0  0  0  0  0  0  0  0  0
   37.3950   29.1180   29.3540 C   0  0  0  0  0  0  0  0  0  0  0  0
   37.8170   29.7740   28.6050 H   0  0  0  0  0  0  0  0  0  0  0  0
   36.2790   29.4630   30.0560 N   0  0  0  0  0  0  0  0  0  0  0  0
   35.6770   30.3150   30.0240 H   0  0  0  0  0  0  0  0  0  0  0  0
   35.9780   28.4830   30.9070 N   0  0  0  0  0  0  0  0  0  0  0  0
  2  1  1  0  0  0  0
  2  3  1  0  0  0  0
  3 13  1  0  0  0  0
  4  8  1  0  0  0  0
  4  3  2  0  0  0  0
  5  4  1  0  0  0  0
  6  7  1  0  0  0  0
  6  5  2  0  0  0  0
  7  2  2  0  0  0  0
  9  5  1  0  0  0  0
 10  6  1  0  0  0  0
 11 17  1  0  0  0  0
 11 16  1  0  0  0  0
 12 11  2  0  0  0  0
 13 12  1  0  0  0  0
 13 14  2  0  0  0  0
 14 15  1  0  0  0  0
 15 16  2  0  0  0  0
 15 19  1  0  0  0  0
 18 12  1  0  0  0  0
 20 22  1  0  0  0  0
 20 21  2  0  0  0  0
 22  7  1  0  0  0  0
 23 22  1  0  0  0  0
 24 30  2  0  0  0  0
 24 20  1  0  0  0  0
 25 24  1  0  0  0  0
 26 25  2  0  0  0  0
 26 28  1  0  0  0  0
 27 26  1  0  0  0  0
 28 30  1  0  0  0  0
 29 28  1  0  0  0  0
M  END
>  <minimizedAffinity>
-4.88163233

$$$$

 OpenBabel03272503063D

 30 32  0  0  0  0  0  0  0  0999 V2000
   36.0890   27.7740   33.6410 F   0  0  0  0  0  0  0  0  0  0  0  0
   36.1950   28.5630   32.5550 C   0  0  0  0  0  0  0  0  0  0  0  0
   36.4220   28.0180   31.3150 C   0  0  0  0  0  0  0  0  0  0  0  0
   36.5180   28.8770   30.2580 C   0  0  0  0  0  0  0  0  0  0  0  0
   36.3990   30.2360   30.3960 C   0  0  0  0  0  0  0  0  0  0  0  0
   36.1710   30.7710   31.6480 C   0  0  0  0  0  0  0  0  0  0  0  0
   36.0670   29.9300   32.7450 C   0  0  0  0  0  0  0  0  0  0  0  0
   36.6960   28.4490   29.2850 H   0  0  0  0  0  0  0  0  0  0  0  0
   36.4860   30.8580   29.5190 H   0  0  0  0  0  0  0  0  0  0  0  0
   36.0730   31.8380   31.7840 H   0  0  0  0  0  0  0  0  0  0  0  0
   35.5970   24.3330   31.0450 C   0  0  0  0  0  0  0  0  0  0  0  0
   35.4450   25.7260   31.1280 C   0  0  0  0  0  0  0  0  0  0  0  0
   36.5410   26.5640   31.2270 C   0  0  0  0  0  0  0  0  0  0  0  0
   37.7770   25.9610   31.2410 N   0  0  0  0  0  0  0  0  0  0  0  0
   37.8950   24.6210   31.1610 C   0  0  0  0  0  0  0  0  0  0  0  0
   36.8350   23.8240   31.0660 N   0  0  0  0  0  0  0  0  0  0  0  0
   34.7160   23.6890   30.9680 H   0  0  0  0  0  0  0  0  0  0  0  0
   34.4760   26.1810   31.1160 H   0  0  0  0  0  0  0  0  0  0  0  0
   38.9210   24.2700   31.1830 H   0  0  0  0  0  0  0  0  0  0  0  0
   34.4440   30.5150   34.4000 C   0  0  0  0  0  0  0  0  0  0  0  0
   33.6350   30.1200   33.5120 O   0  0  0  0  0  0  0  0  0  0  0  0
   35.8310   30.4460   34.0630 N   0  0  0  0  0  0  0  0  0  0  0  0
   36.5090   30.7640   34.7780 H   0  0  0  0  0  0  0  0  0  0  0  0
   33.9650   31.0080   35.6870 C   0  0  0  0  0  0  0  0  0  0  0  0
   32.7720   30.6660   36.2040 N   0  0  0  0  0  0  0  0  0  0  0  0
   32.6230   31.2900   37.4100 C   0  0  0  0  0  0  0  0  0  0  0  0
   31.8320   31.2950   38.1470 H   0  0  0  0  0  0  0  0  0  0  0  0
   33.7670   32.0100   37.5870 N   0  0  0  0  0  0  0  0  0  0  0  0
   34.0790   32.6320   38.3630 H   0  0  0  0  0  0  0  0  0  0  0  0
   34.5650   31.8270   36.5360 N   0  0  0  0  0  0  0  0  0  0  0  0
  2  7  1  0  0  0  0
  2  1  1  0  0  0  0
  3  2  2  0  0  0  0
  4  5  2  0  0  0  0
  4  3  1  0  0  0  0
  5  6  1  0  0  0  0
  6 10  1  0  0  0  0
  6  7  2  0  0  0  0
  7 22  1  0  0  0  0
  8  4  1  0  0  0  0
  9  5  1  0  0  0  0
 11 16  2  0  0  0  0
 11 12  1  0  0  0  0
 12 13  2  0  0  0  0
 13 14  1  0  0  0  0
 13  3  1  0  0  0  0
 15 19  1  0  0  0  0
 15 14  2  0  0  0  0
 16 15  1  0  0  0  0
 17 11  1  0  0  0  0
 18 12  1  0  0  0  0
 20 24  1  0  0  0  0
 21 20  2  0  0  0  0
 22 20  1  0  0  0  0
 22 23  1  0  0  0  0
 24 25  1  0  0  0  0
 24 30  2  0  0  0  0
 25 26  2  0  0  0  0
 26 28  1  0  0  0  0
 26 27  1  0  0  0  0
 28 29  1  0  0  0  0
 30 28  1  0  0  0  0
M  END
>  <minimizedAffinity>
-4.86755323

$$$$

 OpenBabel03272503063D

 30 32  0  0  0  0  0  0  0  0999 V2000
   38.1380   26.4680   34.9870 F   0  0  0  0  0  0  0  0  0  0  0  0
   38.5600   25.5790   34.0670 C   0  0  0  0  0  0  0  0  0  0  0  0
   38.9430   24.3140   34.4420 C   0  0  0  0  0  0  0  0  0  0  0  0
   39.3590   23.4650   33.4590 C   0  0  0  0  0  0  0  0  0  0  0  0
   39.4060   23.8300   32.1370 C   0  0  0  0  0  0  0  0  0  0  0  0
   39.0180   25.1040   31.7730 C   0  0  0  0  0  0  0  0  0  0  0  0
   38.5900   25.9940   32.7460 C   0  0  0  0  0  0  0  0  0  0  0  0
   39.6600   22.4730   33.7540 H   0  0  0  0  0  0  0  0  0  0  0  0
   39.7460   23.1090   31.4110 H   0  0  0  0  0  0  0  0  0  0  0  0
   39.0460   25.4160   30.7400 H   0  0  0  0  0  0  0  0  0  0  0  0
   37.8090   24.0670   38.0470 C   0  0  0  0  0  0  0  0  0  0  0  0
   37.8440   24.4060   36.6850 C   0  0  0  0  0  0  0  0  0  0  0  0
   38.8730   23.9810   35.8640 C   0  0  0  0  0  0  0  0  0  0  0  0
   39.8520   23.2140   36.4530 N   0  0  0  0  0  0  0  0  0  0  0  0
   39.7950   22.9030   37.7620 C   0  0  0  0  0  0  0  0  0  0  0  0
   38.8010   23.3170   38.5420 N   0  0  0  0  0  0  0  0  0  0  0  0
   36.9860   24.4150   38.6770 H   0  0  0  0  0  0  0  0  0  0  0  0
   37.0750   25.0040   36.2410 H   0  0  0  0  0  0  0  0  0  0  0  0
   40.6250   22.2950   38.1040 H   0  0  0  0  0  0  0  0  0  0  0  0
   36.8090   27.4090   32.0070 C   0  0  0  0  0  0  0  0  0  0  0  0
   36.1640   26.3220   32.0050 O   0  0  0  0  0  0  0  0  0  0  0  0
   38.1780   27.3270   32.4090 N   0  0  0  0  0  0  0  0  0  0  0  0
   38.7230   28.2070   32.4190 H   0  0  0  0  0  0  0  0  0  0  0  0
   36.1710   28.6620   31.6190 C   0  0  0  0  0  0  0  0  0  0  0  0
   35.3170   29.3260   32.4160 N   0  0  0  0  0  0  0  0  0  0  0  0
   34.8980   30.4530   31.7650 C   0  0  0  0  0  0  0  0  0  0  0  0
   34.2230   31.2540   32.0330 H   0  0  0  0  0  0  0  0  0  0  0  0
   35.5340   30.4300   30.5600 N   0  0  0  0  0  0  0  0  0  0  0  0
   35.5090   31.0890   29.7520 H   0  0  0  0  0  0  0  0  0  0  0  0
   36.2990   29.3410   30.4900 N   0  0  0  0  0  0  0  0  0  0  0  0
  2  3  1  0  0  0  0
  2  1  1  0  0  0  0
  3 13  1  0  0  0  0
  4  8  1  0  0  0  0
  4  3  2  0  0  0  0
  5  4  1  0  0  0  0
  6  5  2  0  0  0  0
  6  7  1  0  0  0  0
  7  2  2  0  0  0  0
  9  5  1  0  0  0  0
 10  6  1  0  0  0  0
 11 16  1  0  0  0  0
 11 17  1  0  0  0  0
 12 11  2  0  0  0  0
 13 14  2  0  0  0  0
 13 12  1  0  0  0  0
 14 15  1  0  0  0  0
 15 19  1  0  0  0  0
 15 16  2  0  0  0  0
 18 12  1  0  0  0  0
 20 22  1  0  0  0  0
 21 20  2  0  0  0  0
 22 23  1  0  0  0  0
 22  7  1  0  0  0  0
 24 20  1  0  0  0  0
 24 25  1  0  0  0  0
 26 27  1  0  0  0  0
 26 25  2  0  0  0  0
 28 26  1  0  0  0  0
 29 28  1  0  0  0  0
 30 28  1  0  0  0  0
 30 24  2  0  0  0  0
M  END
>  <minimizedAffinity>
-4.82088137

$$$$
