
 OpenBabel03272509183D

 31 33  0  0  0  0  0  0  0  0999 V2000
   38.0640   31.2070   47.8040 C   0  0  0  0  0  0  0  0  0  0  0  0
   37.0640   31.2820   48.7530 C   0  0  0  0  0  0  0  0  0  0  0  0
   37.1330   32.4310   49.5660 C   0  0  0  0  0  0  0  0  0  0  0  0
   38.1340   33.3870   49.4030 C   0  0  0  0  0  0  0  0  0  0  0  0
   39.0970   33.2200   48.4180 C   0  0  0  0  0  0  0  0  0  0  0  0
   39.0540   32.0990   47.6010 C   0  0  0  0  0  0  0  0  0  0  0  0
   36.3890   32.5520   50.3210 H   0  0  0  0  0  0  0  0  0  0  0  0
   38.1610   34.2590   50.0430 H   0  0  0  0  0  0  0  0  0  0  0  0
   39.8910   33.9420   48.2610 H   0  0  0  0  0  0  0  0  0  0  0  0
   34.9150   30.3250   48.0770 C   0  0  0  0  0  0  0  0  0  0  0  0
   36.0360   30.3050   48.9250 C   0  0  0  0  0  0  0  0  0  0  0  0
   36.1060   29.3230   49.9150 C   0  0  0  0  0  0  0  0  0  0  0  0
   35.0710   28.4380   49.9950 N   0  0  0  0  0  0  0  0  0  0  0  0
   34.0100   28.4800   49.1690 C   0  0  0  0  0  0  0  0  0  0  0  0
   33.9340   29.4150   48.2180 N   0  0  0  0  0  0  0  0  0  0  0  0
   34.8490   31.0860   47.3010 H   0  0  0  0  0  0  0  0  0  0  0  0
   33.2520   27.7300   49.3250 H   0  0  0  0  0  0  0  0  0  0  0  0
   37.2660   29.2650   50.8310 C   0  0  0  0  0  0  0  0  0  0  0  0
   37.5420   28.2340   51.1420 H   0  0  0  0  0  0  0  0  0  0  0  0
   38.1080   29.8140   50.3420 H   0  0  0  0  0  0  0  0  0  0  0  0
   36.9940   29.8980   51.7130 H   0  0  0  0  0  0  0  0  0  0  0  0
   38.0750   30.0960   46.9500 O   0  0  0  0  0  0  0  0  0  0  0  0
   37.3020   29.8270   46.3600 H   0  0  0  0  0  0  0  0  0  0  0  0
   40.0330   31.9490   46.6150 O   0  0  0  0  0  0  0  0  0  0  0  0
   39.6970   32.4180   45.3520 C   0  0  0  0  0  0  0  0  0  0  0  0
   40.0010   33.5750   44.7380 N   0  0  0  0  0  0  0  0  0  0  0  0
   39.4350   33.5470   43.5170 C   0  0  0  0  0  0  0  0  0  0  0  0
   39.5010   34.3410   42.7820 H   0  0  0  0  0  0  0  0  0  0  0  0
   38.7830   32.3790   43.3760 N   0  0  0  0  0  0  0  0  0  0  0  0
   38.2480   32.0750   42.5320 H   0  0  0  0  0  0  0  0  0  0  0  0
   38.9570   31.7140   44.4980 N   0  0  0  0  0  0  0  0  0  0  0  0
  1  2  1  0  0  0  0
  2 11  1  0  0  0  0
  2  3  2  0  0  0  0
  3  7  1  0  0  0  0
  4  3  1  0  0  0  0
  4  8  1  0  0  0  0
  5  4  2  0  0  0  0
  6  1  2  0  0  0  0
  6  5  1  0  0  0  0
  9  5  1  0  0  0  0
 10 15  2  0  0  0  0
 10 11  1  0  0  0  0
 11 12  2  0  0  0  0
 12 13  1  0  0  0  0
 12 18  1  0  0  0  0
 14 17  1  0  0  0  0
 14 13  2  0  0  0  0
 15 14  1  0  0  0  0
 16 10  1  0  0  0  0
 18 19  1  0  0  0  0
 18 21  1  0  0  0  0
 20 18  1  0  0  0  0
 22  1  1  0  0  0  0
 23 22  1  0  0  0  0
 24  6  1  0  0  0  0
 25 24  1  0  0  0  0
 26 25  1  0  0  0  0
 27 26  2  0  0  0  0
 28 27  1  0  0  0  0
 29 27  1  0  0  0  0
 29 31  1  0  0  0  0
 30 29  1  0  0  0  0
 31 25  2  0  0  0  0
M  END
>  <minimizedAffinity>
-5.98333454

>  <minimizedRMSD>
0.455710053

$$$$
