
 OpenBabel03272501083D

 38 41  0  0  1  0  0  0  0  0999 V2000
   38.9420   32.4370   47.6180 C   0  0  2  0  0  0  0  0  0  0  0  0
   37.9750   32.6190   48.8210 C   0  0  2  0  0  0  0  0  0  0  0  0
   38.8310   33.3070   49.7750 C   0  0  0  0  0  0  0  0  0  0  0  0
   39.6620   34.1620   49.0600 O   0  0  0  0  0  0  0  0  0  0  0  0
   39.5790   33.8520   47.7410 C   0  0  0  0  0  0  0  0  0  0  0  0
   39.6950   31.6870   47.8530 H   0  0  0  0  0  0  0  0  0  0  0  0
   37.1650   33.2660   48.3800 H   0  0  0  0  0  0  0  0  0  0  0  0
   38.1860   33.9850   50.4070 H   0  0  0  0  0  0  0  0  0  0  0  0
   39.3840   32.6670   50.4520 H   0  0  0  0  0  0  0  0  0  0  0  0
   40.6070   33.7200   47.3410 H   0  0  0  0  0  0  0  0  0  0  0  0
   39.0330   34.5520   47.0950 H   0  0  0  0  0  0  0  0  0  0  0  0
   37.3360   29.3090   50.5010 C   0  0  0  0  0  0  0  0  0  0  0  0
   37.9970   30.5230   50.1620 C   0  0  0  0  0  0  0  0  0  0  0  0
   37.3550   31.3740   49.2160 C   0  0  0  0  0  0  0  0  0  0  0  0
   36.1450   30.9910   48.6840 N   0  0  0  0  0  0  0  0  0  0  0  0
   35.5680   29.8420   49.0360 C   0  0  0  0  0  0  0  0  0  0  0  0
   36.1460   28.9960   49.9370 N   0  0  0  0  0  0  0  0  0  0  0  0
   37.7660   28.6180   51.2100 H   0  0  0  0  0  0  0  0  0  0  0  0
   38.9280   30.7430   50.6160 H   0  0  0  0  0  0  0  0  0  0  0  0
   34.6230   29.6610   48.5450 H   0  0  0  0  0  0  0  0  0  0  0  0
   38.2810   32.3620   46.4380 O   0  0  0  0  0  0  0  0  0  0  0  0
   40.6800   31.9160   44.5540 Cl  0  0  0  0  0  0  0  0  0  0  0  0
   39.1250   31.1340   44.4160 C   0  0  0  0  0  0  0  0  0  0  0  0
   38.2150   31.5100   45.3930 C   0  0  0  0  0  0  0  0  0  0  0  0
   36.9780   30.8930   45.2930 C   0  0  0  0  0  0  0  0  0  0  0  0
   36.6780   29.9840   44.3030 C   0  0  0  0  0  0  0  0  0  0  0  0
   37.6290   29.6600   43.3700 C   0  0  0  0  0  0  0  0  0  0  0  0
   38.8840   30.2330   43.4070 C   0  0  0  0  0  0  0  0  0  0  0  0
   36.1450   31.0610   45.9620 H   0  0  0  0  0  0  0  0  0  0  0  0
   35.7300   29.4870   44.1950 H   0  0  0  0  0  0  0  0  0  0  0  0
   37.4400   28.9510   42.5750 H   0  0  0  0  0  0  0  0  0  0  0  0
   39.9700   29.9640   42.4690 C   0  0  0  0  0  0  0  0  0  0  0  0
   40.8650   28.9580   42.4640 N   0  0  0  0  0  0  0  0  0  0  0  0
   41.6850   29.1320   41.3870 C   0  0  0  0  0  0  0  0  0  0  0  0
   42.4370   28.3340   41.3360 H   0  0  0  0  0  0  0  0  0  0  0  0
   41.2850   30.2550   40.7320 N   0  0  0  0  0  0  0  0  0  0  0  0
   41.8560   30.4620   39.8970 H   0  0  0  0  0  0  0  0  0  0  0  0
   40.2520   30.7400   41.4000 N   0  0  0  0  0  0  0  0  0  0  0  0
  1  5  1  0  0  0  0
  1  6  1  1  0  0  0
  1  2  1  0  0  0  0
  2  7  1  6  0  0  0
  2 14  1  0  0  0  0
  2  3  1  0  0  0  0
  3  8  1  0  0  0  0
  3  9  1  0  0  0  0
  4  3  1  0  0  0  0
  5  4  1  0  0  0  0
 10  5  1  0  0  0  0
 11  5  1  0  0  0  0
 12 18  1  0  0  0  0
 13 12  1  0  0  0  0
 13 19  1  0  0  0  0
 14 13  2  0  0  0  0
 15 16  2  0  0  0  0
 15 14  1  0  0  0  0
 16 17  1  0  0  0  0
 17 12  2  0  0  0  0
 20 16  1  0  0  0  0
 21  1  1  0  0  0  0
 23 22  1  0  0  0  0
 23 24  1  0  0  0  0
 24 21  1  0  0  0  0
 25 24  2  0  0  0  0
 25 29  1  0  0  0  0
 26 25  1  0  0  0  0
 27 28  1  0  0  0  0
 27 26  2  0  0  0  0
 28 23  2  0  0  0  0
 30 26  1  0  0  0  0
 31 27  1  0  0  0  0
 32 28  1  0  0  0  0
 33 32  1  0  0  0  0
 34 33  2  0  0  0  0
 35 34  1  0  0  0  0
 36 34  1  0  0  0  0
 36 38  1  0  0  0  0
 37 36  1  0  0  0  0
 38 32  2  0  0  0  0
M  END
>  <minimizedAffinity>
-6.04081059

>  <minimizedRMSD>
0.888845742

$$$$
