
 OpenBabel03262523553D

 32 34  0  0  1  0  0  0  0  0999 V2000
   38.8310   23.4600   35.6460 C   0  0  1  0  0  0  0  0  0  0  0  0
   40.1280   23.6260   36.3030 C   0  0  0  0  0  0  0  0  0  0  0  0
   40.0940   22.8520   37.5950 C   0  0  0  0  0  0  0  0  0  0  0  0
   38.8090   23.0400   38.3070 C   0  0  0  0  0  0  0  0  0  0  0  0
   38.0030   24.2160   37.8930 C   0  0  0  0  0  0  0  0  0  0  0  0
   37.8070   24.3220   36.4030 C   0  0  1  0  0  0  0  0  0  0  0  0
   38.4700   22.3980   35.7560 H   0  0  0  0  0  0  0  0  0  0  0  0
   40.3370   24.6910   36.5660 H   0  0  0  0  0  0  0  0  0  0  0  0
   40.9500   23.2630   35.6490 H   0  0  0  0  0  0  0  0  0  0  0  0
   40.2650   21.7770   37.3010 H   0  0  0  0  0  0  0  0  0  0  0  0
   40.9460   23.1320   38.2570 H   0  0  0  0  0  0  0  0  0  0  0  0
   38.1760   22.1330   38.0720 H   0  0  0  0  0  0  0  0  0  0  0  0
   38.8980   23.0340   39.4030 H   0  0  0  0  0  0  0  0  0  0  0  0
   38.6080   25.1280   38.1730 H   0  0  0  0  0  0  0  0  0  0  0  0
   37.0780   24.2650   38.4570 H   0  0  0  0  0  0  0  0  0  0  0  0
   36.8270   23.8410   36.2110 H   0  0  0  0  0  0  0  0  0  0  0  0
   39.6320   24.9610   32.3240 C   0  0  0  0  0  0  0  0  0  0  0  0
   39.7850   24.6000   33.6920 C   0  0  0  0  0  0  0  0  0  0  0  0
   38.7350   23.8530   34.2330 C   0  0  0  0  0  0  0  0  0  0  0  0
   37.6500   23.5140   33.4530 N   0  0  0  0  0  0  0  0  0  0  0  0
   37.5570   23.8830   32.1630 C   0  0  0  0  0  0  0  0  0  0  0  0
   38.5440   24.6030   31.5980 N   0  0  0  0  0  0  0  0  0  0  0  0
   40.3860   25.5390   31.8020 H   0  0  0  0  0  0  0  0  0  0  0  0
   40.6640   24.9210   34.1870 H   0  0  0  0  0  0  0  0  0  0  0  0
   36.6450   23.5240   31.7390 H   0  0  0  0  0  0  0  0  0  0  0  0
   37.7730   25.7140   35.9250 C   0  0  0  0  0  0  0  0  0  0  0  0
   37.0950   26.4480   34.9980 N   0  0  0  0  0  0  0  0  0  0  0  0
   37.5070   27.7220   35.0130 C   0  0  0  0  0  0  0  0  0  0  0  0
   37.0300   28.3930   34.3120 H   0  0  0  0  0  0  0  0  0  0  0  0
   38.4510   27.8150   35.9460 N   0  0  0  0  0  0  0  0  0  0  0  0
   38.9240   28.7200   36.1410 H   0  0  0  0  0  0  0  0  0  0  0  0
   38.5970   26.6230   36.4750 N   0  0  0  0  0  0  0  0  0  0  0  0
  1  7  1  1  0  0  0
  1  2  1  0  0  0  0
  1  6  1  0  0  0  0
  2  8  1  0  0  0  0
  2  3  1  0  0  0  0
  3 11  1  0  0  0  0
  3  4  1  0  0  0  0
  4 13  1  0  0  0  0
  5 14  1  0  0  0  0
  5  4  1  0  0  0  0
  5 15  1  0  0  0  0
  6 16  1  6  0  0  0
  6  5  1  0  0  0  0
  9  2  1  0  0  0  0
 10  3  1  0  0  0  0
 12  4  1  0  0  0  0
 17 18  1  0  0  0  0
 18 24  1  0  0  0  0
 18 19  2  0  0  0  0
 19  1  1  0  0  0  0
 20 19  1  0  0  0  0
 21 20  2  0  0  0  0
 22 21  1  0  0  0  0
 22 17  2  0  0  0  0
 23 17  1  0  0  0  0
 25 21  1  0  0  0  0
 26  6  1  0  0  0  0
 26 32  2  0  0  0  0
 27 28  2  0  0  0  0
 27 26  1  0  0  0  0
 28 30  1  0  0  0  0
 29 28  1  0  0  0  0
 30 31  1  0  0  0  0
 30 32  1  0  0  0  0
M  END
>  <minimizedAffinity>
-4.77775955

$$$$

 OpenBabel03262523553D

 32 34  0  0  1  0  0  0  0  0999 V2000
   38.2940   25.8160   33.4980 C   0  0  1  0  0  0  0  0  0  0  0  0
   39.4680   26.5890   33.9070 C   0  0  0  0  0  0  0  0  0  0  0  0
   39.2810   26.9850   35.3480 C   0  0  0  0  0  0  0  0  0  0  0  0
   37.8960   27.4400   35.6110 C   0  0  0  0  0  0  0  0  0  0  0  0
   37.1020   27.8260   34.4180 C   0  0  0  0  0  0  0  0  0  0  0  0
   37.1250   26.7990   33.3160 C   0  0  1  0  0  0  0  0  0  0  0  0
   37.9760   25.1210   34.3250 H   0  0  0  0  0  0  0  0  0  0  0  0
   39.5800   27.5330   33.3200 H   0  0  0  0  0  0  0  0  0  0  0  0
   40.3960   25.9900   33.7810 H   0  0  0  0  0  0  0  0  0  0  0  0
   39.5500   26.0670   35.9450 H   0  0  0  0  0  0  0  0  0  0  0  0
   40.0080   27.7740   35.6480 H   0  0  0  0  0  0  0  0  0  0  0  0
   37.3530   26.5620   36.0730 H   0  0  0  0  0  0  0  0  0  0  0  0
   37.8200   28.2360   36.3660 H   0  0  0  0  0  0  0  0  0  0  0  0
   37.6100   28.7350   33.9810 H   0  0  0  0  0  0  0  0  0  0  0  0
   36.1010   28.1310   34.7060 H   0  0  0  0  0  0  0  0  0  0  0  0
   36.2110   26.1920   33.4740 H   0  0  0  0  0  0  0  0  0  0  0  0
   37.6310   23.3030   30.8190 C   0  0  0  0  0  0  0  0  0  0  0  0
   37.4820   24.0110   32.0440 C   0  0  0  0  0  0  0  0  0  0  0  0
   38.3900   25.0550   32.2440 C   0  0  0  0  0  0  0  0  0  0  0  0
   39.3430   25.3380   31.2900 N   0  0  0  0  0  0  0  0  0  0  0  0
   39.4390   24.6350   30.1470 C   0  0  0  0  0  0  0  0  0  0  0  0
   38.5860   23.6210   29.9110 N   0  0  0  0  0  0  0  0  0  0  0  0
   36.9800   22.4760   30.5590 H   0  0  0  0  0  0  0  0  0  0  0  0
   36.7120   23.6980   32.7000 H   0  0  0  0  0  0  0  0  0  0  0  0
   40.2380   25.0110   29.5460 H   0  0  0  0  0  0  0  0  0  0  0  0
   37.0910   27.3980   31.9720 C   0  0  0  0  0  0  0  0  0  0  0  0
   37.7880   28.3310   31.2620 N   0  0  0  0  0  0  0  0  0  0  0  0
   37.2760   28.4650   30.0320 C   0  0  0  0  0  0  0  0  0  0  0  0
   37.7590   29.1830   29.3840 H   0  0  0  0  0  0  0  0  0  0  0  0
   36.2500   27.6250   29.9430 N   0  0  0  0  0  0  0  0  0  0  0  0
   35.6900   27.5510   29.0690 H   0  0  0  0  0  0  0  0  0  0  0  0
   36.1530   27.0020   31.0950 N   0  0  0  0  0  0  0  0  0  0  0  0
  1  2  1  0  0  0  0
  1  7  1  1  0  0  0
  2  3  1  0  0  0  0
  3  4  1  0  0  0  0
  3 11  1  0  0  0  0
  3 10  1  0  0  0  0
  4 12  1  0  0  0  0
  4 13  1  0  0  0  0
  5 15  1  0  0  0  0
  5  4  1  0  0  0  0
  6 16  1  1  0  0  0
  6  1  1  0  0  0  0
  6  5  1  0  0  0  0
  8  2  1  0  0  0  0
  9  2  1  0  0  0  0
 14  5  1  0  0  0  0
 17 18  1  0  0  0  0
 18 19  2  0  0  0  0
 18 24  1  0  0  0  0
 19  1  1  0  0  0  0
 20 19  1  0  0  0  0
 21 20  2  0  0  0  0
 22 21  1  0  0  0  0
 22 17  2  0  0  0  0
 23 17  1  0  0  0  0
 25 21  1  0  0  0  0
 26  6  1  0  0  0  0
 27 26  1  0  0  0  0
 28 27  2  0  0  0  0
 29 28  1  0  0  0  0
 30 28  1  0  0  0  0
 30 32  1  0  0  0  0
 31 30  1  0  0  0  0
 32 26  2  0  0  0  0
M  END
>  <minimizedAffinity>
-4.54009247

$$$$

 OpenBabel03262523553D

 32 34  0  0  1  0  0  0  0  0999 V2000
   35.5530   30.7330   34.6020 C   0  0  1  0  0  0  0  0  0  0  0  0
   35.7810   32.1790   34.5720 C   0  0  0  0  0  0  0  0  0  0  0  0
   35.8980   32.6590   35.9940 C   0  0  0  0  0  0  0  0  0  0  0  0
   34.8780   32.0300   36.8660 C   0  0  0  0  0  0  0  0  0  0  0  0
   33.7160   31.4220   36.1700 C   0  0  0  0  0  0  0  0  0  0  0  0
   34.0990   30.4970   35.0450 C   0  0  1  0  0  0  0  0  0  0  0  0
   36.1910   30.2540   35.3970 H   0  0  0  0  0  0  0  0  0  0  0  0
   34.9280   32.7330   34.1100 H   0  0  0  0  0  0  0  0  0  0  0  0
   36.7020   32.4200   33.9980 H   0  0  0  0  0  0  0  0  0  0  0  0
   36.9480   32.3960   36.3090 H   0  0  0  0  0  0  0  0  0  0  0  0
   35.8250   33.7680   36.0550 H   0  0  0  0  0  0  0  0  0  0  0  0
   35.3960   31.1810   37.4040 H   0  0  0  0  0  0  0  0  0  0  0  0
   34.5130   32.6820   37.6720 H   0  0  0  0  0  0  0  0  0  0  0  0
   33.1650   32.2730   35.6730 H   0  0  0  0  0  0  0  0  0  0  0  0
   33.0310   30.9770   36.8850 H   0  0  0  0  0  0  0  0  0  0  0  0
   34.0970   29.4840   35.4970 H   0  0  0  0  0  0  0  0  0  0  0  0
   36.0670   27.9530   32.1650 C   0  0  0  0  0  0  0  0  0  0  0  0
   35.8950   28.6110   33.4150 C   0  0  0  0  0  0  0  0  0  0  0  0
   35.7250   29.9960   33.3420 C   0  0  0  0  0  0  0  0  0  0  0  0
   35.7310   30.6330   32.1200 N   0  0  0  0  0  0  0  0  0  0  0  0
   35.8980   29.9600   30.9670 C   0  0  0  0  0  0  0  0  0  0  0  0
   36.0660   28.6250   30.9880 N   0  0  0  0  0  0  0  0  0  0  0  0
   36.2060   26.8790   32.1040 H   0  0  0  0  0  0  0  0  0  0  0  0
   35.9100   28.0130   34.2890 H   0  0  0  0  0  0  0  0  0  0  0  0
   35.8730   30.6330   30.1380 H   0  0  0  0  0  0  0  0  0  0  0  0
   33.1500   30.5340   33.9210 C   0  0  0  0  0  0  0  0  0  0  0  0
   32.6590   31.4540   33.0420 N   0  0  0  0  0  0  0  0  0  0  0  0
   31.7830   30.8840   32.2050 C   0  0  0  0  0  0  0  0  0  0  0  0
   31.3330   31.5300   31.4640 H   0  0  0  0  0  0  0  0  0  0  0  0
   31.7040   29.6000   32.5390 N   0  0  0  0  0  0  0  0  0  0  0  0
   31.0780   28.9480   32.0230 H   0  0  0  0  0  0  0  0  0  0  0  0
   32.5150   29.4080   33.5530 N   0  0  0  0  0  0  0  0  0  0  0  0
  1  6  1  0  0  0  0
  1  7  1  1  0  0  0
  2  1  1  0  0  0  0
  2  3  1  0  0  0  0
  3 11  1  0  0  0  0
  3 10  1  0  0  0  0
  3  4  1  0  0  0  0
  4 12  1  0  0  0  0
  4 13  1  0  0  0  0
  5  4  1  0  0  0  0
  5 15  1  0  0  0  0
  6 16  1  1  0  0  0
  6  5  1  0  0  0  0
  8  2  1  0  0  0  0
  9  2  1  0  0  0  0
 14  5  1  0  0  0  0
 17 18  1  0  0  0  0
 18 24  1  0  0  0  0
 19 18  2  0  0  0  0
 19  1  1  0  0  0  0
 20 19  1  0  0  0  0
 21 22  1  0  0  0  0
 21 20  2  0  0  0  0
 22 17  2  0  0  0  0
 23 17  1  0  0  0  0
 25 21  1  0  0  0  0
 26  6  1  0  0  0  0
 27 26  1  0  0  0  0
 28 30  1  0  0  0  0
 28 27  2  0  0  0  0
 29 28  1  0  0  0  0
 30 32  1  0  0  0  0
 31 30  1  0  0  0  0
 32 26  2  0  0  0  0
M  END
>  <minimizedAffinity>
-4.50581741

$$$$

 OpenBabel03262523553D

 32 34  0  0  1  0  0  0  0  0999 V2000
   38.5000   25.8850   33.3950 C   0  0  1  0  0  0  0  0  0  0  0  0
   39.5800   26.7550   33.8660 C   0  0  0  0  0  0  0  0  0  0  0  0
   39.3200   27.0720   35.3140 C   0  0  0  0  0  0  0  0  0  0  0  0
   37.8900   27.3740   35.5560 C   0  0  0  0  0  0  0  0  0  0  0  0
   37.0890   27.7260   34.3570 C   0  0  0  0  0  0  0  0  0  0  0  0
   37.2430   26.7520   33.2180 C   0  0  1  0  0  0  0  0  0  0  0  0
   38.2350   25.1290   34.1870 H   0  0  0  0  0  0  0  0  0  0  0  0
   39.6090   27.7280   33.3180 H   0  0  0  0  0  0  0  0  0  0  0  0
   40.5670   26.2580   33.7420 H   0  0  0  0  0  0  0  0  0  0  0  0
   39.6660   26.1620   35.8830 H   0  0  0  0  0  0  0  0  0  0  0  0
   39.9560   27.9170   35.6640 H   0  0  0  0  0  0  0  0  0  0  0  0
   37.4280   26.4280   35.9700 H   0  0  0  0  0  0  0  0  0  0  0  0
   37.7150   28.1270   36.3380 H   0  0  0  0  0  0  0  0  0  0  0  0
   37.5120   28.6980   33.9690 H   0  0  0  0  0  0  0  0  0  0  0  0
   36.0550   27.9170   34.6280 H   0  0  0  0  0  0  0  0  0  0  0  0
   36.3910   26.0500   33.3280 H   0  0  0  0  0  0  0  0  0  0  0  0
   39.9640   24.8330   30.1260 C   0  0  0  0  0  0  0  0  0  0  0  0
   39.8250   25.5320   31.3580 C   0  0  0  0  0  0  0  0  0  0  0  0
   38.7030   25.1880   32.1170 C   0  0  0  0  0  0  0  0  0  0  0  0
   37.8230   24.2310   31.6600 N   0  0  0  0  0  0  0  0  0  0  0  0
   38.0030   23.6010   30.4850 C   0  0  0  0  0  0  0  0  0  0  0  0
   39.0690   23.8990   29.7200 N   0  0  0  0  0  0  0  0  0  0  0  0
   40.7970   25.0200   29.4590 H   0  0  0  0  0  0  0  0  0  0  0  0
   40.5670   26.2480   31.6000 H   0  0  0  0  0  0  0  0  0  0  0  0
   37.2140   22.9010   30.3150 H   0  0  0  0  0  0  0  0  0  0  0  0
   37.1800   27.3980   31.8970 C   0  0  0  0  0  0  0  0  0  0  0  0
   37.8540   28.3630   31.2100 N   0  0  0  0  0  0  0  0  0  0  0  0
   37.3210   28.5350   29.9940 C   0  0  0  0  0  0  0  0  0  0  0  0
   37.7840   29.2820   29.3640 H   0  0  0  0  0  0  0  0  0  0  0  0
   36.3030   27.6860   29.8910 N   0  0  0  0  0  0  0  0  0  0  0  0
   35.7310   27.6360   29.0240 H   0  0  0  0  0  0  0  0  0  0  0  0
   36.2320   27.0210   31.0210 N   0  0  0  0  0  0  0  0  0  0  0  0
  1  2  1  0  0  0  0
  1  7  1  1  0  0  0
  2  3  1  0  0  0  0
  3  4  1  0  0  0  0
  3 11  1  0  0  0  0
  3 10  1  0  0  0  0
  4 12  1  0  0  0  0
  4 13  1  0  0  0  0
  5 15  1  0  0  0  0
  5  4  1  0  0  0  0
  6 16  1  1  0  0  0
  6  1  1  0  0  0  0
  6  5  1  0  0  0  0
  8  2  1  0  0  0  0
  9  2  1  0  0  0  0
 14  5  1  0  0  0  0
 17 18  1  0  0  0  0
 18 24  1  0  0  0  0
 18 19  2  0  0  0  0
 19  1  1  0  0  0  0
 20 19  1  0  0  0  0
 21 20  2  0  0  0  0
 22 17  2  0  0  0  0
 22 21  1  0  0  0  0
 23 17  1  0  0  0  0
 25 21  1  0  0  0  0
 26  6  1  0  0  0  0
 27 26  1  0  0  0  0
 28 27  2  0  0  0  0
 29 28  1  0  0  0  0
 30 28  1  0  0  0  0
 30 32  1  0  0  0  0
 31 30  1  0  0  0  0
 32 26  2  0  0  0  0
M  END
>  <minimizedAffinity>
-4.48753834

$$$$

 OpenBabel03262523553D

 32 34  0  0  1  0  0  0  0  0999 V2000
   37.6170   25.7670   34.2260 C   0  0  1  0  0  0  0  0  0  0  0  0
   37.3720   27.0140   34.9540 C   0  0  0  0  0  0  0  0  0  0  0  0
   36.6020   27.9350   34.0460 C   0  0  0  0  0  0  0  0  0  0  0  0
   37.1360   27.9090   32.6650 C   0  0  0  0  0  0  0  0  0  0  0  0
   38.5090   27.3690   32.5100 C   0  0  0  0  0  0  0  0  0  0  0  0
   38.7170   26.0390   33.1860 C   0  0  1  0  0  0  0  0  0  0  0  0
   36.7050   25.4770   33.6310 H   0  0  0  0  0  0  0  0  0  0  0  0
   38.3200   27.5390   35.2240 H   0  0  0  0  0  0  0  0  0  0  0  0
   36.8060   26.8180   35.8900 H   0  0  0  0  0  0  0  0  0  0  0  0
   35.5340   27.5760   34.0970 H   0  0  0  0  0  0  0  0  0  0  0  0
   36.5960   28.9780   34.4370 H   0  0  0  0  0  0  0  0  0  0  0  0
   36.4630   27.2190   32.0740 H   0  0  0  0  0  0  0  0  0  0  0  0
   37.0680   28.8730   32.1380 H   0  0  0  0  0  0  0  0  0  0  0  0
   39.1930   28.0830   33.0550 H   0  0  0  0  0  0  0  0  0  0  0  0
   38.8100   27.3770   31.4670 H   0  0  0  0  0  0  0  0  0  0  0  0
   38.5510   25.2850   32.3890 H   0  0  0  0  0  0  0  0  0  0  0  0
   38.8450   23.6580   37.0500 C   0  0  0  0  0  0  0  0  0  0  0  0
   38.4060   24.8150   36.3470 C   0  0  0  0  0  0  0  0  0  0  0  0
   38.0670   24.6060   35.0080 C   0  0  0  0  0  0  0  0  0  0  0  0
   38.1670   23.3480   34.4540 N   0  0  0  0  0  0  0  0  0  0  0  0
   38.5890   22.2880   35.1660 C   0  0  0  0  0  0  0  0  0  0  0  0
   38.9260   22.4400   36.4600 N   0  0  0  0  0  0  0  0  0  0  0  0
   39.1320   23.7040   38.0940 H   0  0  0  0  0  0  0  0  0  0  0  0
   38.3730   25.7280   36.8820 H   0  0  0  0  0  0  0  0  0  0  0  0
   38.5950   21.4110   34.5560 H   0  0  0  0  0  0  0  0  0  0  0  0
   40.0720   25.8790   33.7380 C   0  0  0  0  0  0  0  0  0  0  0  0
   41.0280   24.9100   33.8070 N   0  0  0  0  0  0  0  0  0  0  0  0
   42.1070   25.3590   34.4620 C   0  0  0  0  0  0  0  0  0  0  0  0
   42.9280   24.6650   34.5730 H   0  0  0  0  0  0  0  0  0  0  0  0
   41.8510   26.6140   34.8200 N   0  0  0  0  0  0  0  0  0  0  0  0
   42.5510   27.1750   35.3470 H   0  0  0  0  0  0  0  0  0  0  0  0
   40.6470   26.9070   34.3860 N   0  0  0  0  0  0  0  0  0  0  0  0
  1  7  1  6  0  0  0
  1  2  1  0  0  0  0
  1 19  1  0  0  0  0
  2  8  1  0  0  0  0
  2  9  1  0  0  0  0
  3 10  1  0  0  0  0
  3 11  1  0  0  0  0
  3  2  1  0  0  0  0
  4  3  1  0  0  0  0
  5  4  1  0  0  0  0
  5 14  1  0  0  0  0
  5  6  1  0  0  0  0
  6 16  1  6  0  0  0
  6 26  1  0  0  0  0
  6  1  1  0  0  0  0
 12  4  1  0  0  0  0
 13  4  1  0  0  0  0
 15  5  1  0  0  0  0
 17 23  1  0  0  0  0
 18 24  1  0  0  0  0
 18 17  2  0  0  0  0
 19 18  1  0  0  0  0
 20 19  2  0  0  0  0
 20 21  1  0  0  0  0
 21 22  2  0  0  0  0
 22 17  1  0  0  0  0
 25 21  1  0  0  0  0
 26 27  1  0  0  0  0
 26 32  2  0  0  0  0
 27 28  2  0  0  0  0
 28 29  1  0  0  0  0
 28 30  1  0  0  0  0
 30 31  1  0  0  0  0
 32 30  1  0  0  0  0
M  END
>  <minimizedAffinity>
-4.48186255

$$$$

 OpenBabel03262523553D

 32 34  0  0  1  0  0  0  0  0999 V2000
   38.8510   24.8940   36.2320 C   0  0  1  0  0  0  0  0  0  0  0  0
   37.6240   24.4790   36.9150 C   0  0  0  0  0  0  0  0  0  0  0  0
   37.9950   24.0540   38.3110 C   0  0  0  0  0  0  0  0  0  0  0  0
   39.2300   23.2350   38.3210 C   0  0  0  0  0  0  0  0  0  0  0  0
   39.6210   22.6370   37.0190 C   0  0  0  0  0  0  0  0  0  0  0  0
   39.6450   23.6240   35.8820 C   0  0  1  0  0  0  0  0  0  0  0  0
   39.5110   25.4780   36.9330 H   0  0  0  0  0  0  0  0  0  0  0  0
   37.1410   23.6010   36.4240 H   0  0  0  0  0  0  0  0  0  0  0  0
   36.8870   25.3110   36.9400 H   0  0  0  0  0  0  0  0  0  0  0  0
   38.1160   25.0140   38.8910 H   0  0  0  0  0  0  0  0  0  0  0  0
   37.1620   23.5000   38.8010 H   0  0  0  0  0  0  0  0  0  0  0  0
   40.0730   23.9300   38.6080 H   0  0  0  0  0  0  0  0  0  0  0  0
   39.2440   22.4530   39.0930 H   0  0  0  0  0  0  0  0  0  0  0  0
   38.8060   21.9030   36.7510 H   0  0  0  0  0  0  0  0  0  0  0  0
   40.5400   22.0680   37.1190 H   0  0  0  0  0  0  0  0  0  0  0  0
   40.7020   23.9550   35.8150 H   0  0  0  0  0  0  0  0  0  0  0  0
   39.6040   27.0790   33.3000 C   0  0  0  0  0  0  0  0  0  0  0  0
   39.8100   26.3620   34.5120 C   0  0  0  0  0  0  0  0  0  0  0  0
   38.7030   25.6460   34.9770 C   0  0  0  0  0  0  0  0  0  0  0  0
   37.5180   25.6650   34.2740 N   0  0  0  0  0  0  0  0  0  0  0  0
   37.3790   26.3620   33.1310 C   0  0  0  0  0  0  0  0  0  0  0  0
   38.4170   27.0660   32.6450 N   0  0  0  0  0  0  0  0  0  0  0  0
   40.3940   27.6670   32.8490 H   0  0  0  0  0  0  0  0  0  0  0  0
   40.7660   26.4260   34.9620 H   0  0  0  0  0  0  0  0  0  0  0  0
   36.3900   26.2470   32.7450 H   0  0  0  0  0  0  0  0  0  0  0  0
   39.2330   23.0330   34.5980 C   0  0  0  0  0  0  0  0  0  0  0  0
   39.6250   23.0760   33.2930 N   0  0  0  0  0  0  0  0  0  0  0  0
   38.8390   22.2960   32.5400 C   0  0  0  0  0  0  0  0  0  0  0  0
   39.0660   22.2590   31.4840 H   0  0  0  0  0  0  0  0  0  0  0  0
   37.9390   21.7500   33.3520 N   0  0  0  0  0  0  0  0  0  0  0  0
   37.2140   21.0990   32.9890 H   0  0  0  0  0  0  0  0  0  0  0  0
   38.1840   22.1940   34.5630 N   0  0  0  0  0  0  0  0  0  0  0  0
  1  2  1  0  0  0  0
  1  7  1  1  0  0  0
  2  9  1  0  0  0  0
  2  3  1  0  0  0  0
  3  4  1  0  0  0  0
  3 11  1  0  0  0  0
  3 10  1  0  0  0  0
  4 12  1  0  0  0  0
  4 13  1  0  0  0  0
  5 15  1  0  0  0  0
  5  4  1  0  0  0  0
  6 16  1  6  0  0  0
  6  1  1  0  0  0  0
  6  5  1  0  0  0  0
  8  2  1  0  0  0  0
 14  5  1  0  0  0  0
 17 18  1  0  0  0  0
 18 24  1  0  0  0  0
 18 19  2  0  0  0  0
 19  1  1  0  0  0  0
 20 19  1  0  0  0  0
 21 20  2  0  0  0  0
 22 21  1  0  0  0  0
 22 17  2  0  0  0  0
 23 17  1  0  0  0  0
 25 21  1  0  0  0  0
 26  6  1  0  0  0  0
 27 26  1  0  0  0  0
 28 27  2  0  0  0  0
 28 30  1  0  0  0  0
 29 28  1  0  0  0  0
 30 32  1  0  0  0  0
 31 30  1  0  0  0  0
 32 26  2  0  0  0  0
M  END
>  <minimizedAffinity>
-4.41084957

$$$$

 OpenBabel03262523553D

 32 34  0  0  1  0  0  0  0  0999 V2000
   38.3440   27.3430   33.2840 C   0  0  1  0  0  0  0  0  0  0  0  0
   37.3430   27.5170   34.3380 C   0  0  0  0  0  0  0  0  0  0  0  0
   38.0190   27.2740   35.6620 C   0  0  0  0  0  0  0  0  0  0  0  0
   38.9220   26.1010   35.6040 C   0  0  0  0  0  0  0  0  0  0  0  0
   38.6940   25.1610   34.4770 C   0  0  0  0  0  0  0  0  0  0  0  0
   38.6100   25.8360   33.1330 C   0  0  1  0  0  0  0  0  0  0  0  0
   39.3270   27.7920   33.6020 H   0  0  0  0  0  0  0  0  0  0  0  0
   36.5090   26.7770   34.2570 H   0  0  0  0  0  0  0  0  0  0  0  0
   36.9050   28.5380   34.3010 H   0  0  0  0  0  0  0  0  0  0  0  0
   38.5740   28.2280   35.8900 H   0  0  0  0  0  0  0  0  0  0  0  0
   37.2740   27.1460   36.4790 H   0  0  0  0  0  0  0  0  0  0  0  0
   39.9670   26.5080   35.4610 H   0  0  0  0  0  0  0  0  0  0  0  0
   38.9770   25.5290   36.5420 H   0  0  0  0  0  0  0  0  0  0  0  0
   37.6710   24.7120   34.6420 H   0  0  0  0  0  0  0  0  0  0  0  0
   39.4070   24.3440   34.5090 H   0  0  0  0  0  0  0  0  0  0  0  0
   39.6350   25.7660   32.7150 H   0  0  0  0  0  0  0  0  0  0  0  0
   36.4520   28.8310   30.4300 C   0  0  0  0  0  0  0  0  0  0  0  0
   36.7290   28.3790   31.7510 C   0  0  0  0  0  0  0  0  0  0  0  0
   38.0040   27.8380   31.9420 C   0  0  0  0  0  0  0  0  0  0  0  0
   38.8930   27.7700   30.8920 N   0  0  0  0  0  0  0  0  0  0  0  0
   38.5790   28.2130   29.6620 C   0  0  0  0  0  0  0  0  0  0  0  0
   37.3630   28.7420   29.4300 N   0  0  0  0  0  0  0  0  0  0  0  0
   35.4960   29.2690   30.1700 H   0  0  0  0  0  0  0  0  0  0  0  0
   35.9620   28.4830   32.4740 H   0  0  0  0  0  0  0  0  0  0  0  0
   39.4000   28.0700   28.9940 H   0  0  0  0  0  0  0  0  0  0  0  0
   37.6610   25.1810   32.2180 C   0  0  0  0  0  0  0  0  0  0  0  0
   36.3170   24.9670   32.1390 N   0  0  0  0  0  0  0  0  0  0  0  0
   36.0150   24.2780   31.0310 C   0  0  0  0  0  0  0  0  0  0  0  0
   34.9700   24.0540   30.8710 H   0  0  0  0  0  0  0  0  0  0  0  0
   37.1580   24.0430   30.3940 N   0  0  0  0  0  0  0  0  0  0  0  0
   37.1750   23.5170   29.4970 H   0  0  0  0  0  0  0  0  0  0  0  0
   38.1210   24.5820   31.1060 N   0  0  0  0  0  0  0  0  0  0  0  0
  1  7  1  1  0  0  0
  1  2  1  0  0  0  0
  2  3  1  0  0  0  0
  3 10  1  0  0  0  0
  3 11  1  0  0  0  0
  4  3  1  0  0  0  0
  4 13  1  0  0  0  0
  5 15  1  0  0  0  0
  5 14  1  0  0  0  0
  5  4  1  0  0  0  0
  6 16  1  6  0  0  0
  6  1  1  0  0  0  0
  6  5  1  0  0  0  0
  8  2  1  0  0  0  0
  9  2  1  0  0  0  0
 12  4  1  0  0  0  0
 17 18  1  0  0  0  0
 18 19  2  0  0  0  0
 18 24  1  0  0  0  0
 19  1  1  0  0  0  0
 20 19  1  0  0  0  0
 21 20  2  0  0  0  0
 22 21  1  0  0  0  0
 22 17  2  0  0  0  0
 23 17  1  0  0  0  0
 25 21  1  0  0  0  0
 26  6  1  0  0  0  0
 27 26  1  0  0  0  0
 28 27  2  0  0  0  0
 29 28  1  0  0  0  0
 30 28  1  0  0  0  0
 30 32  1  0  0  0  0
 31 30  1  0  0  0  0
 32 26  2  0  0  0  0
M  END
>  <minimizedAffinity>
-4.31242228

$$$$

 OpenBabel03262523553D

 32 34  0  0  1  0  0  0  0  0999 V2000
   37.2840   21.0620   32.8550 C   0  0  1  0  0  0  0  0  0  0  0  0
   36.0430   20.8790   33.6100 C   0  0  0  0  0  0  0  0  0  0  0  0
   35.4330   19.5700   33.1850 C   0  0  0  0  0  0  0  0  0  0  0  0
   35.5080   19.3870   31.7160 C   0  0  0  0  0  0  0  0  0  0  0  0
   35.7460   20.6170   30.9210 C   0  0  0  0  0  0  0  0  0  0  0  0
   36.9050   21.4430   31.4150 C   0  0  1  0  0  0  0  0  0  0  0  0
   37.8380   20.0850   32.7720 H   0  0  0  0  0  0  0  0  0  0  0  0
   35.2920   21.6760   33.3910 H   0  0  0  0  0  0  0  0  0  0  0  0
   36.2440   20.8830   34.7040 H   0  0  0  0  0  0  0  0  0  0  0  0
   36.0100   18.7780   33.7430 H   0  0  0  0  0  0  0  0  0  0  0  0
   34.3770   19.4840   33.5300 H   0  0  0  0  0  0  0  0  0  0  0  0
   36.3970   18.7150   31.5220 H   0  0  0  0  0  0  0  0  0  0  0  0
   34.6550   18.8420   31.2870 H   0  0  0  0  0  0  0  0  0  0  0  0
   34.8370   21.2710   31.0700 H   0  0  0  0  0  0  0  0  0  0  0  0
   35.7990   20.3850   29.8620 H   0  0  0  0  0  0  0  0  0  0  0  0
   37.7670   21.1220   30.7950 H   0  0  0  0  0  0  0  0  0  0  0  0
   40.3890   23.0700   33.3680 C   0  0  0  0  0  0  0  0  0  0  0  0
   39.5340   22.0470   32.8710 C   0  0  0  0  0  0  0  0  0  0  0  0
   38.2130   22.1000   33.3250 C   0  0  0  0  0  0  0  0  0  0  0  0
   37.8160   23.0950   34.1910 N   0  0  0  0  0  0  0  0  0  0  0  0
   38.6680   24.0400   34.6300 C   0  0  0  0  0  0  0  0  0  0  0  0
   39.9500   24.0290   34.2200 N   0  0  0  0  0  0  0  0  0  0  0  0
   41.4330   23.1260   33.0810 H   0  0  0  0  0  0  0  0  0  0  0  0
   39.9560   21.3350   32.2110 H   0  0  0  0  0  0  0  0  0  0  0  0
   38.1670   24.7140   35.2900 H   0  0  0  0  0  0  0  0  0  0  0  0
   36.6920   22.8900   31.2470 C   0  0  0  0  0  0  0  0  0  0  0  0
   35.7880   23.8310   31.6420 N   0  0  0  0  0  0  0  0  0  0  0  0
   36.1250   25.0360   31.1640 C   0  0  0  0  0  0  0  0  0  0  0  0
   35.4710   25.8580   31.4200 H   0  0  0  0  0  0  0  0  0  0  0  0
   37.2420   24.8780   30.4610 N   0  0  0  0  0  0  0  0  0  0  0  0
   37.6980   25.6860   29.9890 H   0  0  0  0  0  0  0  0  0  0  0  0
   37.5650   23.6070   30.5190 N   0  0  0  0  0  0  0  0  0  0  0  0
  1  7  1  6  0  0  0
  1 19  1  0  0  0  0
  1  2  1  0  0  0  0
  2  9  1  0  0  0  0
  3 11  1  0  0  0  0
  3  2  1  0  0  0  0
  3 10  1  0  0  0  0
  4  3  1  0  0  0  0
  5 14  1  0  0  0  0
  5  6  1  0  0  0  0
  5  4  1  0  0  0  0
  6 16  1  6  0  0  0
  6  1  1  0  0  0  0
  8  2  1  0  0  0  0
 12  4  1  0  0  0  0
 13  4  1  0  0  0  0
 15  5  1  0  0  0  0
 17 22  1  0  0  0  0
 18 19  1  0  0  0  0
 18 17  2  0  0  0  0
 19 20  2  0  0  0  0
 20 21  1  0  0  0  0
 21 25  1  0  0  0  0
 22 21  2  0  0  0  0
 23 17  1  0  0  0  0
 24 18  1  0  0  0  0
 26  6  1  0  0  0  0
 26 27  1  0  0  0  0
 28 29  1  0  0  0  0
 28 27  2  0  0  0  0
 30 32  1  0  0  0  0
 30 28  1  0  0  0  0
 31 30  1  0  0  0  0
 32 26  2  0  0  0  0
M  END
>  <minimizedAffinity>
-4.25199747

$$$$

 OpenBabel03262523553D

 32 34  0  0  1  0  0  0  0  0999 V2000
   36.0360   21.8490   31.4770 C   0  0  1  0  0  0  0  0  0  0  0  0
   36.6940   20.7240   30.8090 C   0  0  0  0  0  0  0  0  0  0  0  0
   35.7870   19.5270   30.9200 C   0  0  0  0  0  0  0  0  0  0  0  0
   35.1960   19.4170   32.2740 C   0  0  0  0  0  0  0  0  0  0  0  0
   35.8840   20.1790   33.3460 C   0  0  0  0  0  0  0  0  0  0  0  0
   36.1420   21.6210   32.9940 C   0  0  1  0  0  0  0  0  0  0  0  0
   34.9340   21.8480   31.2490 H   0  0  0  0  0  0  0  0  0  0  0  0
   37.6600   20.4480   31.2960 H   0  0  0  0  0  0  0  0  0  0  0  0
   36.8990   20.9650   29.7430 H   0  0  0  0  0  0  0  0  0  0  0  0
   35.0020   19.6760   30.1240 H   0  0  0  0  0  0  0  0  0  0  0  0
   36.3230   18.5870   30.6560 H   0  0  0  0  0  0  0  0  0  0  0  0
   34.1540   19.8500   32.2060 H   0  0  0  0  0  0  0  0  0  0  0  0
   35.0400   18.3820   32.6130 H   0  0  0  0  0  0  0  0  0  0  0  0
   36.9080   19.7170   33.4550 H   0  0  0  0  0  0  0  0  0  0  0  0
   35.3750   20.0490   34.2960 H   0  0  0  0  0  0  0  0  0  0  0  0
   35.2870   22.1780   33.4290 H   0  0  0  0  0  0  0  0  0  0  0  0
   36.3280   25.5630   31.2350 C   0  0  0  0  0  0  0  0  0  0  0  0
   35.7570   24.2890   31.5100 C   0  0  0  0  0  0  0  0  0  0  0  0
   36.5760   23.1930   31.2240 C   0  0  0  0  0  0  0  0  0  0  0  0
   37.8410   23.3870   30.7140 N   0  0  0  0  0  0  0  0  0  0  0  0
   38.3320   24.6160   30.4720 C   0  0  0  0  0  0  0  0  0  0  0  0
   37.5800   25.7010   30.7320 N   0  0  0  0  0  0  0  0  0  0  0  0
   35.7820   26.4810   31.4190 H   0  0  0  0  0  0  0  0  0  0  0  0
   34.7730   24.2680   31.9000 H   0  0  0  0  0  0  0  0  0  0  0  0
   39.3230   24.5490   30.0800 H   0  0  0  0  0  0  0  0  0  0  0  0
   37.4010   22.1340   33.5590 C   0  0  0  0  0  0  0  0  0  0  0  0
   37.8370   23.2520   34.2050 N   0  0  0  0  0  0  0  0  0  0  0  0
   39.1430   23.1530   34.4890 C   0  0  0  0  0  0  0  0  0  0  0  0
   39.5900   23.9910   35.0040 H   0  0  0  0  0  0  0  0  0  0  0  0
   39.5530   21.9760   34.0270 N   0  0  0  0  0  0  0  0  0  0  0  0
   40.5430   21.6730   34.1320 H   0  0  0  0  0  0  0  0  0  0  0  0
   38.5150   21.3860   33.4810 N   0  0  0  0  0  0  0  0  0  0  0  0
  1  7  1  6  0  0  0
  1  6  1  0  0  0  0
  2  3  1  0  0  0  0
  2  8  1  0  0  0  0
  2  1  1  0  0  0  0
  3  4  1  0  0  0  0
  4 13  1  0  0  0  0
  4  5  1  0  0  0  0
  5 14  1  0  0  0  0
  5 15  1  0  0  0  0
  6  5  1  0  0  0  0
  6 16  1  1  0  0  0
  6 26  1  0  0  0  0
  9  2  1  0  0  0  0
 10  3  1  0  0  0  0
 11  3  1  0  0  0  0
 12  4  1  0  0  0  0
 17 23  1  0  0  0  0
 17 18  1  0  0  0  0
 18 24  1  0  0  0  0
 19  1  1  0  0  0  0
 19 18  2  0  0  0  0
 20 19  1  0  0  0  0
 21 20  2  0  0  0  0
 21 22  1  0  0  0  0
 22 17  2  0  0  0  0
 25 21  1  0  0  0  0
 26 27  1  0  0  0  0
 27 28  2  0  0  0  0
 28 29  1  0  0  0  0
 30 31  1  0  0  0  0
 30 28  1  0  0  0  0
 32 26  2  0  0  0  0
 32 30  1  0  0  0  0
M  END
>  <minimizedAffinity>
-4.20305443

$$$$
