
 OpenBabel03272502263D

 38 41  0  0  0  0  0  0  0  0999 V2000
   37.6610   30.2100   51.0090 C   0  0  0  0  0  0  0  0  0  0  0  0
   38.1230   30.7810   49.8160 C   0  0  0  0  0  0  0  0  0  0  0  0
   37.4120   30.5060   48.6580 C   0  0  0  0  0  0  0  0  0  0  0  0
   36.3340   29.7100   48.7730 N   0  0  0  0  0  0  0  0  0  0  0  0
   35.9060   29.1700   49.9240 C   0  0  0  0  0  0  0  0  0  0  0  0
   36.5810   29.4270   51.0510 N   0  0  0  0  0  0  0  0  0  0  0  0
   38.2320   30.4400   51.8990 H   0  0  0  0  0  0  0  0  0  0  0  0
   38.9800   31.4130   49.7330 H   0  0  0  0  0  0  0  0  0  0  0  0
   37.7700   31.0330   47.3660 C   0  0  0  0  0  0  0  0  0  0  0  0
   37.0290   30.7140   46.2350 C   0  0  0  0  0  0  0  0  0  0  0  0
   37.3230   31.1920   44.9850 C   0  0  0  0  0  0  0  0  0  0  0  0
   38.3830   32.0130   44.8330 N   0  0  0  0  0  0  0  0  0  0  0  0
   39.0960   32.3160   45.9330 C   0  0  0  0  0  0  0  0  0  0  0  0
   38.8220   31.8590   47.1590 N   0  0  0  0  0  0  0  0  0  0  0  0
   36.1630   30.0540   46.3100 H   0  0  0  0  0  0  0  0  0  0  0  0
   36.7200   30.9190   44.1280 H   0  0  0  0  0  0  0  0  0  0  0  0
   40.2730   33.2210   45.7980 C   0  0  0  0  0  0  0  0  0  0  0  0
   40.3690   33.9590   46.9770 F   0  0  0  0  0  0  0  0  0  0  0  0
   41.4180   32.4940   45.5510 F   0  0  0  0  0  0  0  0  0  0  0  0
   40.0980   34.1320   44.7870 F   0  0  0  0  0  0  0  0  0  0  0  0
   34.7740   28.3730   49.8560 O   0  0  0  0  0  0  0  0  0  0  0  0
   33.6720   26.6420   46.8080 N   0  0  0  0  0  0  0  0  0  0  0  0
   34.2530   26.7790   48.0090 C   0  0  0  0  0  0  0  0  0  0  0  0
   34.2480   28.0040   48.6400 C   0  0  0  0  0  0  0  0  0  0  0  0
   33.6250   29.0820   47.9970 C   0  0  0  0  0  0  0  0  0  0  0  0
   33.5010   30.2810   48.3830 O   0  0  0  0  0  0  0  0  0  0  0  0
   33.0560   28.8740   46.7800 N   0  0  0  0  0  0  0  0  0  0  0  0
   33.0790   27.6690   46.1950 C   0  0  0  0  0  0  0  0  0  0  0  0
   32.5560   27.4480   45.0620 O   0  0  0  0  0  0  0  0  0  0  0  0
   33.7390   25.6760   46.4300 H   0  0  0  0  0  0  0  0  0  0  0  0
   34.7480   26.0130   48.5690 H   0  0  0  0  0  0  0  0  0  0  0  0
   32.3980   29.8890   46.0340 C   0  0  0  0  0  0  0  0  0  0  0  0
   32.4310   31.2320   45.9110 N   0  0  0  0  0  0  0  0  0  0  0  0
   31.5090   31.5910   44.9890 C   0  0  0  0  0  0  0  0  0  0  0  0
   31.4040   32.6290   44.7690 H   0  0  0  0  0  0  0  0  0  0  0  0
   30.9150   30.4650   44.5510 N   0  0  0  0  0  0  0  0  0  0  0  0
   30.1690   30.5450   43.8300 H   0  0  0  0  0  0  0  0  0  0  0  0
   31.4450   29.4250   45.1770 N   0  0  0  0  0  0  0  0  0  0  0  0
  1  6  1  0  0  0  0
  1  7  1  0  0  0  0
  2  1  2  0  0  0  0
  3  4  2  0  0  0  0
  3  2  1  0  0  0  0
  4  5  1  0  0  0  0
  5  6  2  0  0  0  0
  8  2  1  0  0  0  0
  9  3  1  0  0  0  0
 10 15  1  0  0  0  0
 10  9  2  0  0  0  0
 11 10  1  0  0  0  0
 12 11  2  0  0  0  0
 12 13  1  0  0  0  0
 13 14  2  0  0  0  0
 14  9  1  0  0  0  0
 16 11  1  0  0  0  0
 17 13  1  0  0  0  0
 17 18  1  0  0  0  0
 19 17  1  0  0  0  0
 20 17  1  0  0  0  0
 21  5  1  0  0  0  0
 22 23  1  0  0  0  0
 23 31  1  0  0  0  0
 23 24  2  0  0  0  0
 24 21  1  0  0  0  0
 25 26  2  0  0  0  0
 25 24  1  0  0  0  0
 27 25  1  0  0  0  0
 28 27  1  0  0  0  0
 28 22  1  0  0  0  0
 29 28  2  0  0  0  0
 30 22  1  0  0  0  0
 32 27  1  0  0  0  0
 33 32  1  0  0  0  0
 34 33  2  0  0  0  0
 35 34  1  0  0  0  0
 36 34  1  0  0  0  0
 36 38  1  0  0  0  0
 37 36  1  0  0  0  0
 38 32  2  0  0  0  0
M  END
>  <minimizedAffinity>
-6.64967346

>  <minimizedRMSD>
0.938257813

$$$$
