
     RDKit          3D

 27 29  0  0  0  0  0  0  0  0999 V2000
   36.3641   30.4783   46.3894 Cl  0  0  0  0  0  0  0  0  0  0  0  0
   36.7994   30.5415   48.0792 C   0  0  0  0  0  0  0  0  0  0  0  0
   38.0107   31.0870   48.3782 C   0  0  0  0  0  0  0  0  0  0  0  0
   38.3773   31.1472   49.7242 C   0  0  0  0  0  0  0  0  0  0  0  0
   37.5208   30.6633   50.6880 C   0  0  0  0  0  0  0  0  0  0  0  0
   36.3184   30.1284   50.3129 C   0  0  0  0  0  0  0  0  0  0  0  0
   35.9079   30.0432   49.0179 C   0  0  0  0  0  0  0  0  0  0  0  0
   40.0120   33.4253   46.4077 C   0  0  0  0  0  0  0  0  0  0  0  0
   40.5756   32.6185   45.3907 C   0  0  0  0  0  0  0  0  0  0  0  0
   40.2474   31.2589   45.4059 C   0  0  0  0  0  0  0  0  0  0  0  0
   39.4175   30.7890   46.3806 N   0  0  0  0  0  0  0  0  0  0  0  0
   38.9084   31.5975   47.3245 C   0  0  0  0  0  0  0  0  0  0  0  0
   39.2111   32.8903   47.3227 N   0  0  0  0  0  0  0  0  0  0  0  0
   34.3465   29.3527   48.4799 S   0  0  0  0  0  0  0  0  0  0  0  0
   39.3309   31.5743   49.9875 H   0  0  0  0  0  0  0  0  0  0  0  0
   37.8353   30.7251   51.7212 H   0  0  0  0  0  0  0  0  0  0  0  0
   35.6534   29.7509   51.0813 H   0  0  0  0  0  0  0  0  0  0  0  0
   40.2353   34.4720   46.4358 H   0  0  0  0  0  0  0  0  0  0  0  0
   41.2309   33.0517   44.6405 H   0  0  0  0  0  0  0  0  0  0  0  0
   40.6582   30.6066   44.6443 H   0  0  0  0  0  0  0  0  0  0  0  0
   34.5119   27.6030   48.1665 C   0  0  0  0  0  0  0  0  0  0  0  0
   33.9383   27.1589   47.0334 N   0  0  0  0  0  0  0  0  0  0  0  0
   34.1162   25.8382   46.8876 C   0  0  0  0  0  0  0  0  0  0  0  0
   33.7890   25.1702   46.1001 H   0  0  0  0  0  0  0  0  0  0  0  0
   34.8215   25.4537   47.9636 N   0  0  0  0  0  0  0  0  0  0  0  0
   35.1831   24.5167   48.2626 H   0  0  0  0  0  0  0  0  0  0  0  0
   35.0747   26.5079   48.7560 N   0  0  0  0  0  0  0  0  0  0  0  0
  1  2  1  0
  2  3  2  0
  2  7  1  0
  3  4  1  0
  4  5  2  0
  6  5  1  0
  7  6  2  0
  8 13  2  0
  9 10  2  0
  9  8  1  0
 10 11  1  0
 11 12  2  0
 12  3  1  0
 13 12  1  0
 14  7  1  0
  4 15  1  0
  5 16  1  0
  6 17  1  0
  8 18  1  0
  9 19  1  0
 10 20  1  0
 21 22  1  0
 22 23  2  0
 23 24  1  0
 23 25  1  0
 25 26  1  0
 25 27  1  0
 27 21  2  0
 14 21  1  0
M  ISO  8  15  14  16  14  17  14  18  14  19  14  20  14  24  14  26   9
M  END
>  <DihAtoms>  (1) 
6,13,20,21

>  <DihDeg>  (1) 
89.63755649116372

$$$$
