
 OpenBabel03272505093D

 27 29  0  0  0  0  0  0  0  0999 V2000
   36.3770   30.9060   45.3720 Cl  0  0  0  0  0  0  0  0  0  0  0  0
   36.6220   30.5610   47.0670 C   0  0  0  0  0  0  0  0  0  0  0  0
   37.8580   30.8300   47.5730 C   0  0  0  0  0  0  0  0  0  0  0  0
   38.0730   30.5620   48.9260 C   0  0  0  0  0  0  0  0  0  0  0  0
   37.0520   30.0450   49.6920 C   0  0  0  0  0  0  0  0  0  0  0  0
   35.8350   29.8000   49.1150 C   0  0  0  0  0  0  0  0  0  0  0  0
   35.5670   30.0410   47.8020 C   0  0  0  0  0  0  0  0  0  0  0  0
   39.0420   30.7660   49.3510 H   0  0  0  0  0  0  0  0  0  0  0  0
   37.2520   29.8500   50.7370 H   0  0  0  0  0  0  0  0  0  0  0  0
   35.0390   29.3940   49.7280 H   0  0  0  0  0  0  0  0  0  0  0  0
   40.1120   33.2640   46.0420 C   0  0  0  0  0  0  0  0  0  0  0  0
   40.9240   32.4840   45.1830 C   0  0  0  0  0  0  0  0  0  0  0  0
   40.6700   31.1090   45.1490 C   0  0  0  0  0  0  0  0  0  0  0  0
   39.6750   30.5990   45.9300 N   0  0  0  0  0  0  0  0  0  0  0  0
   38.9330   31.3840   46.7290 C   0  0  0  0  0  0  0  0  0  0  0  0
   39.1620   32.6910   46.7710 N   0  0  0  0  0  0  0  0  0  0  0  0
   40.2700   34.3210   46.1000 H   0  0  0  0  0  0  0  0  0  0  0  0
   41.7020   32.9490   44.5850 H   0  0  0  0  0  0  0  0  0  0  0  0
   41.2690   30.4770   44.5040 H   0  0  0  0  0  0  0  0  0  0  0  0
   33.9930   29.7380   47.0050 S   0  0  0  0  0  0  0  0  0  0  0  0
   33.4240   28.0830   47.3570 C   0  0  0  0  0  0  0  0  0  0  0  0
   32.1870   27.9940   47.8800 N   0  0  0  0  0  0  0  0  0  0  0  0
   31.8510   26.7160   48.1080 C   0  0  0  0  0  0  0  0  0  0  0  0
   30.9410   26.2940   48.5180 H   0  0  0  0  0  0  0  0  0  0  0  0
   32.9130   25.9930   47.7150 N   0  0  0  0  0  0  0  0  0  0  0  0
   33.0910   24.9610   47.7120 H   0  0  0  0  0  0  0  0  0  0  0  0
   33.8810   26.8010   47.2550 N   0  0  0  0  0  0  0  0  0  0  0  0
  1  2  1  0  0  0  0
  2  3  2  0  0  0  0
  2  7  1  0  0  0  0
  3  4  1  0  0  0  0
  4  8  1  0  0  0  0
  4  5  2  0  0  0  0
  5  9  1  0  0  0  0
  6  5  1  0  0  0  0
  6 10  1  0  0  0  0
  7  6  2  0  0  0  0
 11 17  1  0  0  0  0
 11 16  1  0  0  0  0
 12 11  2  0  0  0  0
 13 12  1  0  0  0  0
 13 14  2  0  0  0  0
 14 15  1  0  0  0  0
 15 16  2  0  0  0  0
 15  3  1  0  0  0  0
 18 12  1  0  0  0  0
 19 13  1  0  0  0  0
 20 21  1  0  0  0  0
 20  7  1  0  0  0  0
 21 22  1  0  0  0  0
 22 23  2  0  0  0  0
 23 24  1  0  0  0  0
 25 23  1  0  0  0  0
 26 25  1  0  0  0  0
 27 21  2  0  0  0  0
 27 25  1  0  0  0  0
M  END
>  <minimizedAffinity>
-5.254632

>  <minimizedRMSD>
1.26819742

$$$$
