
 OpenBabel03272509213D

 44 48  0  0  0  0  0  0  0  0999 V2000
   38.1500   31.4430   47.9770 C   0  0  0  0  0  0  0  0  0  0  0  0
   37.2580   31.6170   49.0160 C   0  0  0  0  0  0  0  0  0  0  0  0
   37.4110   32.8190   49.7100 C   0  0  0  0  0  0  0  0  0  0  0  0
   38.3930   33.7530   49.3640 C   0  0  0  0  0  0  0  0  0  0  0  0
   39.2640   33.4830   48.2780 C   0  0  0  0  0  0  0  0  0  0  0  0
   39.1230   32.2920   47.5790 C   0  0  0  0  0  0  0  0  0  0  0  0
   36.7660   33.0630   50.5460 H   0  0  0  0  0  0  0  0  0  0  0  0
   38.5060   34.6830   49.9070 H   0  0  0  0  0  0  0  0  0  0  0  0
   40.0150   34.1990   48.0140 H   0  0  0  0  0  0  0  0  0  0  0  0
   35.1670   30.4460   48.5440 C   0  0  0  0  0  0  0  0  0  0  0  0
   36.2530   30.6650   49.3730 C   0  0  0  0  0  0  0  0  0  0  0  0
   36.3180   29.9180   50.5630 C   0  0  0  0  0  0  0  0  0  0  0  0
   35.3330   29.0390   50.8300 N   0  0  0  0  0  0  0  0  0  0  0  0
   34.2810   28.8570   49.9810 C   0  0  0  0  0  0  0  0  0  0  0  0
   34.2060   29.5580   48.8520 N   0  0  0  0  0  0  0  0  0  0  0  0
   35.0500   30.9860   47.6090 H   0  0  0  0  0  0  0  0  0  0  0  0
   33.6050   28.1020   50.3920 H   0  0  0  0  0  0  0  0  0  0  0  0
   37.4670   30.1110   51.4990 C   0  0  0  0  0  0  0  0  0  0  0  0
   37.2760   30.9470   52.2100 H   0  0  0  0  0  0  0  0  0  0  0  0
   37.6810   29.1640   51.9970 H   0  0  0  0  0  0  0  0  0  0  0  0
   38.3530   30.3860   50.8560 H   0  0  0  0  0  0  0  0  0  0  0  0
   38.0770   30.2640   47.2160 O   0  0  0  0  0  0  0  0  0  0  0  0
   37.4520   30.2980   46.4080 H   0  0  0  0  0  0  0  0  0  0  0  0
   39.9950   32.0860   46.5370 O   0  0  0  0  0  0  0  0  0  0  0  0
   40.2000   30.8590   44.3750 C   0  0  0  0  0  0  0  0  0  0  0  0
   39.6720   31.8100   45.2420 C   0  0  0  0  0  0  0  0  0  0  0  0
   38.6600   32.6370   44.7850 C   0  0  0  0  0  0  0  0  0  0  0  0
   38.1710   32.5210   43.4670 C   0  0  0  0  0  0  0  0  0  0  0  0
   37.2300   33.1510   42.7470 N   0  0  0  0  0  0  0  0  0  0  0  0
   37.1640   32.6360   41.5070 C   0  0  0  0  0  0  0  0  0  0  0  0
   38.0940   31.6490   41.4470 N   0  0  0  0  0  0  0  0  0  0  0  0
   38.7280   31.5590   42.6430 C   0  0  0  0  0  0  0  0  0  0  0  0
   39.7290   30.7400   43.0920 C   0  0  0  0  0  0  0  0  0  0  0  0
   40.9820   30.2640   44.8240 H   0  0  0  0  0  0  0  0  0  0  0  0
   38.1440   33.4280   45.3400 H   0  0  0  0  0  0  0  0  0  0  0  0
   36.6250   33.9440   43.1100 H   0  0  0  0  0  0  0  0  0  0  0  0
   36.4730   32.9970   40.7620 H   0  0  0  0  0  0  0  0  0  0  0  0
   40.3260   29.7210   42.2320 C   0  0  0  0  0  0  0  0  0  0  0  0
   41.2850   29.9950   41.3170 N   0  0  0  0  0  0  0  0  0  0  0  0
   41.6400   28.8610   40.6760 C   0  0  0  0  0  0  0  0  0  0  0  0
   42.3730   28.7120   39.8890 H   0  0  0  0  0  0  0  0  0  0  0  0
   40.8560   27.8980   41.2420 N   0  0  0  0  0  0  0  0  0  0  0  0
   40.9360   26.8910   40.9130 H   0  0  0  0  0  0  0  0  0  0  0  0
   40.0680   28.4070   42.1730 N   0  0  0  0  0  0  0  0  0  0  0  0
  1  2  1  0  0  0  0
  2 11  1  0  0  0  0
  2  3  2  0  0  0  0
  3  7  1  0  0  0  0
  4  3  1  0  0  0  0
  4  8  1  0  0  0  0
  5  4  2  0  0  0  0
  6  1  2  0  0  0  0
  6  5  1  0  0  0  0
  9  5  1  0  0  0  0
 10 15  2  0  0  0  0
 10 11  1  0  0  0  0
 11 12  2  0  0  0  0
 12 13  1  0  0  0  0
 12 18  1  0  0  0  0
 14 17  1  0  0  0  0
 14 13  2  0  0  0  0
 15 14  1  0  0  0  0
 16 10  1  0  0  0  0
 18 20  1  0  0  0  0
 18 19  1  0  0  0  0
 21 18  1  0  0  0  0
 22  1  1  0  0  0  0
 23 22  1  0  0  0  0
 24  6  1  0  0  0  0
 25 34  1  0  0  0  0
 25 26  1  0  0  0  0
 26 24  1  0  0  0  0
 27 26  2  0  0  0  0
 27 35  1  0  0  0  0
 28 27  1  0  0  0  0
 29 36  1  0  0  0  0
 29 28  1  0  0  0  0
 30 29  1  0  0  0  0
 31 30  2  0  0  0  0
 31 32  1  0  0  0  0
 32 33  1  0  0  0  0
 32 28  2  0  0  0  0
 33 25  2  0  0  0  0
 37 30  1  0  0  0  0
 38 33  1  0  0  0  0
 39 38  1  0  0  0  0
 40 42  1  0  0  0  0
 40 39  2  0  0  0  0
 41 40  1  0  0  0  0
 42 44  1  0  0  0  0
 43 42  1  0  0  0  0
 44 38  2  0  0  0  0
M  END
>  <minimizedAffinity>
-7.51447439

>  <minimizedRMSD>
0.740651309

$$$$
