
 OpenBabel03272510133D

 39 42  0  0  0  0  0  0  0  0999 V2000
   38.4080   31.3110   48.7000 C   0  0  0  0  0  0  0  0  0  0  0  0
   38.4450   32.5200   49.3580 C   0  0  0  0  0  0  0  0  0  0  0  0
   39.0290   33.4400   48.4810 C   0  0  0  0  0  0  0  0  0  0  0  0
   39.3150   32.7760   47.3570 N   0  0  0  0  0  0  0  0  0  0  0  0
   38.9490   31.5420   47.4990 N   0  0  0  0  0  0  0  0  0  0  0  0
   38.1460   32.8880   50.3300 H   0  0  0  0  0  0  0  0  0  0  0  0
   39.2360   34.5040   48.6250 H   0  0  0  0  0  0  0  0  0  0  0  0
   39.9310   33.3300   46.1860 C   0  0  0  0  0  0  0  0  0  0  0  0
   40.5270   34.2070   46.5040 H   0  0  0  0  0  0  0  0  0  0  0  0
   39.1660   33.7660   45.4800 H   0  0  0  0  0  0  0  0  0  0  0  0
   40.7660   32.2960   45.5240 C   0  0  0  0  0  0  0  0  0  0  0  0
   41.8170   32.6770   45.5330 H   0  0  0  0  0  0  0  0  0  0  0  0
   40.8110   31.4220   46.2420 H   0  0  0  0  0  0  0  0  0  0  0  0
   40.4190   31.8640   44.1920 C   0  0  0  0  0  0  0  0  0  0  0  0
   39.7040   32.6490   43.3340 N   0  0  0  0  0  0  0  0  0  0  0  0
   39.5150   32.0260   42.1630 C   0  0  0  0  0  0  0  0  0  0  0  0
   38.9920   32.3780   41.2830 H   0  0  0  0  0  0  0  0  0  0  0  0
   40.1120   30.8280   42.2640 N   0  0  0  0  0  0  0  0  0  0  0  0
   40.1990   30.0470   41.5870 H   0  0  0  0  0  0  0  0  0  0  0  0
   40.6400   30.7520   43.4690 N   0  0  0  0  0  0  0  0  0  0  0  0
   37.8580   30.2740   49.4260 O   0  0  0  0  0  0  0  0  0  0  0  0
   34.0660   28.8280   48.3180 C   0  0  0  0  0  0  0  0  0  0  0  0
   34.6880   28.3870   49.4450 C   0  0  0  0  0  0  0  0  0  0  0  0
   35.9200   28.8140   49.8650 C   0  0  0  0  0  0  0  0  0  0  0  0
   36.6110   29.7360   49.1490 C   0  0  0  0  0  0  0  0  0  0  0  0
   35.9880   30.1990   47.9900 C   0  0  0  0  0  0  0  0  0  0  0  0
   34.7710   29.7570   47.6050 N   0  0  0  0  0  0  0  0  0  0  0  0
   34.2090   27.6530   50.0730 H   0  0  0  0  0  0  0  0  0  0  0  0
   36.4070   28.4530   50.7690 H   0  0  0  0  0  0  0  0  0  0  0  0
   36.4610   30.9400   47.3460 H   0  0  0  0  0  0  0  0  0  0  0  0
   31.9200   27.6060   48.6370 C   0  0  0  0  0  0  0  0  0  0  0  0
   32.7810   28.3900   47.8660 C   0  0  0  0  0  0  0  0  0  0  0  0
   32.3430   28.7430   46.6080 C   0  0  0  0  0  0  0  0  0  0  0  0
   31.1160   28.3250   46.1710 N   0  0  0  0  0  0  0  0  0  0  0  0
   30.3220   27.5650   46.9630 C   0  0  0  0  0  0  0  0  0  0  0  0
   30.7080   27.1900   48.2110 N   0  0  0  0  0  0  0  0  0  0  0  0
   32.2190   27.3050   49.6290 H   0  0  0  0  0  0  0  0  0  0  0  0
   32.9830   29.3550   45.9740 H   0  0  0  0  0  0  0  0  0  0  0  0
   29.3710   27.2930   46.5110 H   0  0  0  0  0  0  0  0  0  0  0  0
  1  2  1  0  0  0  0
  1 21  1  0  0  0  0
  2  6  1  0  0  0  0
  3  7  1  0  0  0  0
  3  2  2  0  0  0  0
  4  5  1  0  0  0  0
  4  3  1  0  0  0  0
  5  1  2  0  0  0  0
  8  9  1  0  0  0  0
  8  4  1  0  0  0  0
 10  8  1  0  0  0  0
 11 12  1  0  0  0  0
 11  8  1  0  0  0  0
 11 13  1  0  0  0  0
 14 11  1  0  0  0  0
 15 14  1  0  0  0  0
 16 18  1  0  0  0  0
 16 15  2  0  0  0  0
 17 16  1  0  0  0  0
 18 20  1  0  0  0  0
 19 18  1  0  0  0  0
 20 14  2  0  0  0  0
 22 23  1  0  0  0  0
 23 24  2  0  0  0  0
 23 28  1  0  0  0  0
 24 29  1  0  0  0  0
 25 21  1  0  0  0  0
 25 24  1  0  0  0  0
 26 25  2  0  0  0  0
 27 26  1  0  0  0  0
 27 22  2  0  0  0  0
 30 26  1  0  0  0  0
 31 37  1  0  0  0  0
 32 22  1  0  0  0  0
 32 31  2  0  0  0  0
 33 32  1  0  0  0  0
 34 33  2  0  0  0  0
 34 35  1  0  0  0  0
 35 36  2  0  0  0  0
 36 31  1  0  0  0  0
 38 33  1  0  0  0  0
 39 35  1  0  0  0  0
M  END
>  <minimizedAffinity>
-6.16242456

>  <minimizedRMSD>
1.14294434

$$$$
