
 OpenBabel03272502273D

 38 41  0  0  0  0  0  0  0  0999 V2000
   37.6470   30.2030   51.0060 C   0  0  0  0  0  0  0  0  0  0  0  0
   38.1070   30.7750   49.8130 C   0  0  0  0  0  0  0  0  0  0  0  0
   37.3990   30.4930   48.6540 C   0  0  0  0  0  0  0  0  0  0  0  0
   36.3260   29.6920   48.7700 N   0  0  0  0  0  0  0  0  0  0  0  0
   35.8990   29.1510   49.9210 C   0  0  0  0  0  0  0  0  0  0  0  0
   36.5720   29.4140   51.0490 N   0  0  0  0  0  0  0  0  0  0  0  0
   38.2160   30.4380   51.8960 H   0  0  0  0  0  0  0  0  0  0  0  0
   38.9600   31.4120   49.7290 H   0  0  0  0  0  0  0  0  0  0  0  0
   37.7560   31.0200   47.3620 C   0  0  0  0  0  0  0  0  0  0  0  0
   37.0110   30.7030   46.2320 C   0  0  0  0  0  0  0  0  0  0  0  0
   37.3040   31.1820   44.9820 C   0  0  0  0  0  0  0  0  0  0  0  0
   38.3650   32.0000   44.8280 N   0  0  0  0  0  0  0  0  0  0  0  0
   39.0810   32.3010   45.9270 C   0  0  0  0  0  0  0  0  0  0  0  0
   38.8090   31.8440   47.1530 N   0  0  0  0  0  0  0  0  0  0  0  0
   36.1440   30.0450   46.3090 H   0  0  0  0  0  0  0  0  0  0  0  0
   36.6970   30.9100   44.1260 H   0  0  0  0  0  0  0  0  0  0  0  0
   40.2610   33.2020   45.7890 C   0  0  0  0  0  0  0  0  0  0  0  0
   40.3580   33.9430   46.9660 F   0  0  0  0  0  0  0  0  0  0  0  0
   41.4030   32.4720   45.5440 F   0  0  0  0  0  0  0  0  0  0  0  0
   40.0870   34.1110   44.7760 F   0  0  0  0  0  0  0  0  0  0  0  0
   34.7720   28.3470   49.8530 O   0  0  0  0  0  0  0  0  0  0  0  0
   33.6770   26.5980   46.8150 N   0  0  0  0  0  0  0  0  0  0  0  0
   34.2520   26.7410   48.0170 C   0  0  0  0  0  0  0  0  0  0  0  0
   34.2510   27.9710   48.6380 C   0  0  0  0  0  0  0  0  0  0  0  0
   33.6390   29.0480   47.9820 C   0  0  0  0  0  0  0  0  0  0  0  0
   33.5210   30.2510   48.3570 O   0  0  0  0  0  0  0  0  0  0  0  0
   33.0750   28.8330   46.7630 N   0  0  0  0  0  0  0  0  0  0  0  0
   33.0940   27.6230   46.1890 C   0  0  0  0  0  0  0  0  0  0  0  0
   32.5760   27.3960   45.0550 O   0  0  0  0  0  0  0  0  0  0  0  0
   33.7390   25.6270   46.4450 H   0  0  0  0  0  0  0  0  0  0  0  0
   34.7380   25.9770   48.5870 H   0  0  0  0  0  0  0  0  0  0  0  0
   32.4290   29.8460   46.0050 C   0  0  0  0  0  0  0  0  0  0  0  0
   31.4680   29.9440   45.0640 N   0  0  0  0  0  0  0  0  0  0  0  0
   31.3200   31.2500   44.7480 C   0  0  0  0  0  0  0  0  0  0  0  0
   30.5930   31.5050   44.0120 H   0  0  0  0  0  0  0  0  0  0  0  0
   32.1920   31.9490   45.5000 N   0  0  0  0  0  0  0  0  0  0  0  0
   32.2220   32.9830   45.3930 H   0  0  0  0  0  0  0  0  0  0  0  0
   32.8700   31.1080   46.2660 N   0  0  0  0  0  0  0  0  0  0  0  0
  1  6  1  0  0  0  0
  1  7  1  0  0  0  0
  2  1  2  0  0  0  0
  3  4  2  0  0  0  0
  3  2  1  0  0  0  0
  4  5  1  0  0  0  0
  5  6  2  0  0  0  0
  8  2  1  0  0  0  0
  9  3  1  0  0  0  0
 10 15  1  0  0  0  0
 10  9  2  0  0  0  0
 11 10  1  0  0  0  0
 12 11  2  0  0  0  0
 12 13  1  0  0  0  0
 13 14  2  0  0  0  0
 14  9  1  0  0  0  0
 16 11  1  0  0  0  0
 17 13  1  0  0  0  0
 17 18  1  0  0  0  0
 19 17  1  0  0  0  0
 20 17  1  0  0  0  0
 21  5  1  0  0  0  0
 22 23  1  0  0  0  0
 23 31  1  0  0  0  0
 23 24  2  0  0  0  0
 24 21  1  0  0  0  0
 25 26  2  0  0  0  0
 25 24  1  0  0  0  0
 27 25  1  0  0  0  0
 28 27  1  0  0  0  0
 28 22  1  0  0  0  0
 29 28  2  0  0  0  0
 30 22  1  0  0  0  0
 32 38  2  0  0  0  0
 32 27  1  0  0  0  0
 33 32  1  0  0  0  0
 34 33  2  0  0  0  0
 34 36  1  0  0  0  0
 35 34  1  0  0  0  0
 36 38  1  0  0  0  0
 37 36  1  0  0  0  0
M  END
>  <minimizedAffinity>
-6.83712482

>  <minimizedRMSD>
0.952130973

$$$$
