
 OpenBabel03272502103D

 24 26  0  0  0  0  0  0  0  0999 V2000
   38.0260   32.0000   49.1420 C   0  0  0  0  0  0  0  0  0  0  0  0
   38.4860   33.1420   49.7490 C   0  0  0  0  0  0  0  0  0  0  0  0
   39.3360   34.0780   49.1680 C   0  0  0  0  0  0  0  0  0  0  0  0
   39.7290   33.8120   47.8830 N   0  0  0  0  0  0  0  0  0  0  0  0
   39.2820   32.6880   47.2710 C   0  0  0  0  0  0  0  0  0  0  0  0
   38.4660   31.8320   47.8920 N   0  0  0  0  0  0  0  0  0  0  0  0
   38.1880   33.3740   50.7700 H   0  0  0  0  0  0  0  0  0  0  0  0
   39.6690   34.9580   49.6890 H   0  0  0  0  0  0  0  0  0  0  0  0
   37.4330   30.3920   50.9770 C   0  0  0  0  0  0  0  0  0  0  0  0
   37.1470   31.0620   49.7900 C   0  0  0  0  0  0  0  0  0  0  0  0
   35.9130   30.8040   49.1830 C   0  0  0  0  0  0  0  0  0  0  0  0
   35.0670   29.9210   49.7790 N   0  0  0  0  0  0  0  0  0  0  0  0
   35.3800   29.2840   50.9400 C   0  0  0  0  0  0  0  0  0  0  0  0
   36.5670   29.5310   51.5250 N   0  0  0  0  0  0  0  0  0  0  0  0
   38.3850   30.5900   51.4470 H   0  0  0  0  0  0  0  0  0  0  0  0
   35.6360   31.2920   48.2660 H   0  0  0  0  0  0  0  0  0  0  0  0
   34.6010   28.6120   51.2850 H   0  0  0  0  0  0  0  0  0  0  0  0
   39.6910   32.3890   45.9000 C   0  0  0  0  0  0  0  0  0  0  0  0
   40.3220   31.2210   45.5870 N   0  0  0  0  0  0  0  0  0  0  0  0
   40.5810   31.2150   44.2500 C   0  0  0  0  0  0  0  0  0  0  0  0
   41.0810   30.3880   43.7490 H   0  0  0  0  0  0  0  0  0  0  0  0
   40.1090   32.3760   43.7480 N   0  0  0  0  0  0  0  0  0  0  0  0
   40.1740   32.6370   42.7400 H   0  0  0  0  0  0  0  0  0  0  0  0
   39.5730   33.0810   44.7430 N   0  0  0  0  0  0  0  0  0  0  0  0
  1  2  1  0  0  0  0
  1 10  1  0  0  0  0
  2  7  1  0  0  0  0
  3  8  1  0  0  0  0
  3  2  2  0  0  0  0
  4  3  1  0  0  0  0
  5  4  2  0  0  0  0
  5  6  1  0  0  0  0
  6  1  2  0  0  0  0
  9 15  1  0  0  0  0
  9 14  1  0  0  0  0
 10  9  2  0  0  0  0
 11 12  2  0  0  0  0
 11 10  1  0  0  0  0
 12 13  1  0  0  0  0
 13 17  1  0  0  0  0
 13 14  2  0  0  0  0
 16 11  1  0  0  0  0
 18  5  1  0  0  0  0
 19 18  1  0  0  0  0
 20 19  2  0  0  0  0
 21 20  1  0  0  0  0
 22 20  1  0  0  0  0
 22 24  1  0  0  0  0
 23 22  1  0  0  0  0
 24 18  2  0  0  0  0
M  END
>  <minimizedAffinity>
-5.75373363

>  <minimizedRMSD>
0.59883678

$$$$
