
 OpenBabel03272501213D

 38 41  0  0  0  0  0  0  0  0999 V2000
   38.3280   32.2370   47.4220 C   0  0  0  0  0  0  0  0  0  0  0  0
   38.1520   32.1110   48.7980 C   0  0  0  0  0  0  0  0  0  0  0  0
   38.8500   33.0290   49.5640 C   0  0  0  0  0  0  0  0  0  0  0  0
   39.6600   33.9940   48.9680 C   0  0  0  0  0  0  0  0  0  0  0  0
   39.7860   34.0590   47.5940 C   0  0  0  0  0  0  0  0  0  0  0  0
   39.1110   33.1690   46.8130 C   0  0  0  0  0  0  0  0  0  0  0  0
   38.7870   33.0230   50.6530 H   0  0  0  0  0  0  0  0  0  0  0  0
   40.2160   34.7230   49.5540 H   0  0  0  0  0  0  0  0  0  0  0  0
   40.4130   34.8040   47.1000 H   0  0  0  0  0  0  0  0  0  0  0  0
   35.9340   31.2150   49.3430 C   0  0  0  0  0  0  0  0  0  0  0  0
   37.3140   31.1100   49.3870 C   0  0  0  0  0  0  0  0  0  0  0  0
   37.8480   29.9780   50.0340 C   0  0  0  0  0  0  0  0  0  0  0  0
   36.9790   29.0700   50.5700 N   0  0  0  0  0  0  0  0  0  0  0  0
   35.6450   29.2240   50.4970 C   0  0  0  0  0  0  0  0  0  0  0  0
   35.1080   30.3010   49.8820 N   0  0  0  0  0  0  0  0  0  0  0  0
   35.4360   32.0680   48.8570 H   0  0  0  0  0  0  0  0  0  0  0  0
   38.9260   29.8540   50.0920 H   0  0  0  0  0  0  0  0  0  0  0  0
   35.0890   28.4360   50.9590 H   0  0  0  0  0  0  0  0  0  0  0  0
   37.6520   31.3410   46.5580 O   0  0  0  0  0  0  0  0  0  0  0  0
   36.9590   30.6960   46.9130 H   0  0  0  0  0  0  0  0  0  0  0  0
   39.2430   33.2390   45.4340 O   0  0  0  0  0  0  0  0  0  0  0  0
   37.0620   32.5340   43.4480 Cl  0  0  0  0  0  0  0  0  0  0  0  0
   38.5710   31.6820   43.6080 C   0  0  0  0  0  0  0  0  0  0  0  0
   39.4350   32.1720   44.5850 C   0  0  0  0  0  0  0  0  0  0  0  0
   40.6430   31.5180   44.7370 C   0  0  0  0  0  0  0  0  0  0  0  0
   41.0210   30.4340   43.9880 C   0  0  0  0  0  0  0  0  0  0  0  0
   40.1590   29.9580   43.0250 C   0  0  0  0  0  0  0  0  0  0  0  0
   38.9340   30.5950   42.8470 C   0  0  0  0  0  0  0  0  0  0  0  0
   41.3880   31.8220   45.4730 H   0  0  0  0  0  0  0  0  0  0  0  0
   41.9570   29.9030   44.0840 H   0  0  0  0  0  0  0  0  0  0  0  0
   40.3920   29.1030   42.3940 H   0  0  0  0  0  0  0  0  0  0  0  0
   37.9950   30.1160   41.8320 C   0  0  0  0  0  0  0  0  0  0  0  0
   37.0000   29.2210   41.9570 N   0  0  0  0  0  0  0  0  0  0  0  0
   36.3740   29.0690   40.7600 C   0  0  0  0  0  0  0  0  0  0  0  0
   35.5660   28.4980   40.3780 H   0  0  0  0  0  0  0  0  0  0  0  0
   37.0080   29.8910   39.8910 N   0  0  0  0  0  0  0  0  0  0  0  0
   36.9580   30.1740   38.8710 H   0  0  0  0  0  0  0  0  0  0  0  0
   37.9750   30.5110   40.5460 N   0  0  0  0  0  0  0  0  0  0  0  0
  1  2  1  0  0  0  0
  2 11  1  0  0  0  0
  2  3  2  0  0  0  0
  3  7  1  0  0  0  0
  4  8  1  0  0  0  0
  4  3  1  0  0  0  0
  5  4  2  0  0  0  0
  6  1  2  0  0  0  0
  6  5  1  0  0  0  0
  9  5  1  0  0  0  0
 10 11  2  0  0  0  0
 10 15  1  0  0  0  0
 11 12  1  0  0  0  0
 12 17  1  0  0  0  0
 12 13  2  0  0  0  0
 14 13  1  0  0  0  0
 14 18  1  0  0  0  0
 15 14  2  0  0  0  0
 16 10  1  0  0  0  0
 19 20  1  0  0  0  0
 19  1  1  0  0  0  0
 21  6  1  0  0  0  0
 22 23  1  0  0  0  0
 23 24  1  0  0  0  0
 24 25  2  0  0  0  0
 24 21  1  0  0  0  0
 25 29  1  0  0  0  0
 26 30  1  0  0  0  0
 26 25  1  0  0  0  0
 27 26  2  0  0  0  0
 28 27  1  0  0  0  0
 28 23  2  0  0  0  0
 31 27  1  0  0  0  0
 32 33  1  0  0  0  0
 32 28  1  0  0  0  0
 34 33  2  0  0  0  0
 35 34  1  0  0  0  0
 36 38  1  0  0  0  0
 36 34  1  0  0  0  0
 37 36  1  0  0  0  0
 38 32  2  0  0  0  0
M  END
>  <minimizedAffinity>
-5.35572195

>  <minimizedRMSD>
0.280440032

$$$$
