REMARK  Name = 
REMARK  4 active torsions:
REMARK  status: ('A' for Active; 'I' for Inactive)
REMARK    1  A    between atoms: C_1  and  O_12
REMARK    2  A    between atoms: C_2  and  C_8
REMARK    3  A    between atoms: O_12  and  C_15
REMARK    4  A    between atoms: C_19  and  C_32
REMARK                            x       y       z     vdW  Elec       q    Type
REMARK                         _______ _______ _______ _____ _____    ______ ____
ROOT
ATOM      1  C   UNL     1      38.955  32.367  47.795  0.00  0.00    +0.000 C 
ATOM      2  C   UNL     1      38.010  32.744  48.969  0.00  0.00    +0.000 C 
ATOM      3  C   UNL     1      38.892  33.547  49.802  0.00  0.00    +0.000 C 
ATOM      4  O   UNL     1      39.729  34.270  48.959  0.00  0.00    +0.000 OA
ATOM      5  C   UNL     1      39.621  33.771  47.701  0.00  0.00    +0.000 C 
ATOM      6  H   UNL     1      39.697  31.644  48.129  0.00  0.00    +0.000 HD
ATOM      7  H   UNL     1      37.206  33.336  48.447  0.00  0.00    +0.000 HD
ATOM      8  H   UNL     1      38.270  34.324  50.334  0.00  0.00    +0.000 HD
ATOM      9  H   UNL     1      39.443  33.002  50.559  0.00  0.00    +0.000 HD
ATOM     10  H   UNL     1      40.640  33.560  47.313  0.00  0.00    +0.000 HD
ATOM     11  H   UNL     1      39.079  34.379  46.965  0.00  0.00    +0.000 HD
ENDROOT
BRANCH   2  14
ATOM     12  C   UNL     1      37.358  29.696  51.084  0.00  0.00    +0.000 A 
ATOM     13  C   UNL     1      38.039  30.831  50.560  0.00  0.00    +0.000 A 
ATOM     14  C   UNL     1      37.372  31.584  49.551  0.00  0.00    +0.000 A 
ATOM     15  N   UNL     1      36.120  31.188  49.137  0.00  0.00    +0.000 NA
ATOM     16  C   UNL     1      35.526  30.116  49.661  0.00  0.00    +0.000 A 
ATOM     17  N   UNL     1      36.127  29.365  50.629  0.00  0.00    +0.000 NA
ATOM     18  H   UNL     1      37.805  29.081  51.850  0.00  0.00    +0.000 HD
ATOM     19  H   UNL     1      39.002  31.067  50.932  0.00  0.00    +0.000 HD
ATOM     20  H   UNL     1      34.548  29.915  49.249  0.00  0.00    +0.000 HD
ENDBRANCH   2  14
BRANCH   1  21
ATOM     21  O   UNL     1      38.276  32.133  46.647  0.00  0.00    +0.000 OA
BRANCH  21  24
ATOM     22 CL   UNL     1      40.944  31.263  45.371  0.00  0.00    +0.000 Cl
ATOM     23  C   UNL     1      39.362  30.693  44.899  0.00  0.00    +0.000 A 
ATOM     24  C   UNL     1      38.322  31.242  45.634  0.00  0.00    +0.000 A 
ATOM     25  C   UNL     1      37.062  30.795  45.267  0.00  0.00    +0.000 A 
ATOM     26  C   UNL     1      36.862  29.882  44.256  0.00  0.00    +0.000 A 
ATOM     27  C   UNL     1      37.940  29.382  43.572  0.00  0.00    +0.000 A 
ATOM     28  C   UNL     1      39.225  29.780  43.882  0.00  0.00    +0.000 A 
ATOM     29  H   UNL     1      36.134  31.111  45.725  0.00  0.00    +0.000 HD
ATOM     30  H   UNL     1      35.900  29.514  43.945  0.00  0.00    +0.000 HD
ATOM     31  H   UNL     1      37.832  28.663  42.771  0.00  0.00    +0.000 HD
BRANCH  28  32
ATOM     32  C   UNL     1      40.442  29.315  43.223  0.00  0.00    +0.000 A 
ATOM     33  N   UNL     1      40.698  28.129  42.641  0.00  0.00    +0.000 NA
ATOM     34  C   UNL     1      41.976  28.163  42.162  0.00  0.00    +0.000 A 
ATOM     35  H   UNL     1      42.236  27.215  41.676  0.00  0.00    +0.000 HD
ATOM     36  N   UNL     1      42.501  29.383  42.457  0.00  0.00    +0.000 N 
ATOM     37  H   UNL     1      43.473  29.496  42.128  0.00  0.00    +0.000 HD
ATOM     38  N   UNL     1      41.561  30.060  43.095  0.00  0.00    +0.000 NA
ENDBRANCH  28  32
ENDBRANCH  21  24
ENDBRANCH   1  21
TORSDOF 4
