REMARK  Name = 
REMARK  4 active torsions:
REMARK  status: ('A' for Active; 'I' for Inactive)
REMARK    1  A    between atoms: C_1  and  C_4
REMARK    2  A    between atoms: C_2  and  O_10
REMARK    3  A    between atoms: C_8  and  C_22
REMARK    4  A    between atoms: O_10  and  C_11
REMARK                            x       y       z     vdW  Elec       q    Type
REMARK                         _______ _______ _______ _____ _____    ______ ____
ROOT
ATOM      1  C   UNL     1      37.313  31.222  49.403  0.00  0.00    +0.000 A 
ATOM      2  C   UNL     1      38.310  32.192  49.461  0.00  0.00    +0.000 A 
ATOM      3  C   UNL     1      38.803  32.602  48.225  0.00  0.00    +0.000 A 
ATOM      4  N   UNL     1      38.319  32.070  47.054  0.00  0.00    +0.000 NA
ATOM      5  C   UNL     1      37.344  31.124  47.050  0.00  0.00    +0.000 A 
ATOM      6  N   UNL     1      36.836  30.697  48.241  0.00  0.00    +0.000 NA
ATOM      7  H   UNL     1      38.672  32.594  50.380  0.00  0.00    +0.000 HD
ATOM      8  H   UNL     1      39.582  33.354  48.156  0.00  0.00    +0.000 HD
ENDROOT
BRANCH   1   9
ATOM      9  C   UNL     1      36.752  30.774  50.715  0.00  0.00    +0.000 C 
ATOM     10  C   UNL     1      36.031  29.508  50.852  0.00  0.00    +0.000 C 
ATOM     11  C   UNL     1      37.474  29.520  51.250  0.00  0.00    +0.000 C 
ATOM     12  H   UNL     1      36.690  31.603  51.468  0.00  0.00    +0.000 HD
ATOM     13  H   UNL     1      35.197  29.576  51.607  0.00  0.00    +0.000 HD
ATOM     14  H   UNL     1      38.206  29.013  50.612  0.00  0.00    +0.000 HD
ATOM     15  H   UNL     1      37.684  29.516  52.334  0.00  0.00    +0.000 HD
BRANCH  10  16
ATOM     16  O   UNL     1      35.657  28.859  49.683  0.00  0.00    +0.000 OA
BRANCH  16  17
ATOM     17  C   UNL     1      34.439  28.398  49.309  0.00  0.00    +0.000 C 
ATOM     18  O   UNL     1      34.301  27.412  48.554  0.00  0.00    +0.000 OA
ATOM     19  N   UNL     1      33.458  29.193  49.898  0.00  0.00    +0.000 N 
ATOM     20  H   UNL     1      33.386  30.209  49.934  0.00  0.00    +0.000 HD
ATOM     21  H   UNL     1      32.714  28.627  50.354  0.00  0.00    +0.000 HD
ENDBRANCH  16  17
ENDBRANCH  10  16
ENDBRANCH   1   9
BRANCH   5  22
ATOM     22  C   UNL     1      36.897  30.622  45.778  0.00  0.00    +0.000 A 
ATOM     23  N   UNL     1      37.603  30.844  44.630  0.00  0.00    +0.000 NA
ATOM     24  C   UNL     1      36.975  30.272  43.578  0.00  0.00    +0.000 A 
ATOM     25  H   UNL     1      37.438  30.378  42.610  0.00  0.00    +0.000 HD
ATOM     26  N   UNL     1      35.870  29.689  44.076  0.00  0.00    +0.000 N 
ATOM     27  H   UNL     1      35.223  29.181  43.449  0.00  0.00    +0.000 HD
ATOM     28  N   UNL     1      35.816  29.895  45.398  0.00  0.00    +0.000 NA
ENDBRANCH   5  22
TORSDOF 4
