
 OpenBabel03272500283D

 32 34  0  0  0  0  0  0  0  0999 V2000
   37.0410   27.1650   33.5200 C   0  0  0  0  0  0  0  0  0  0  0  0
   37.3370   26.8110   32.4890 H   0  0  0  0  0  0  0  0  0  0  0  0
   36.3230   26.3570   33.8440 H   0  0  0  0  0  0  0  0  0  0  0  0
   36.3580   28.4110   33.3530 C   0  0  0  0  0  0  0  0  0  0  0  0
   36.2020   28.9620   32.1200 C   0  0  0  0  0  0  0  0  0  0  0  0
   35.5340   30.1840   31.9430 C   0  0  0  0  0  0  0  0  0  0  0  0
   35.0580   30.7690   33.1060 N   0  0  0  0  0  0  0  0  0  0  0  0
   35.2270   30.2020   34.3110 C   0  0  0  0  0  0  0  0  0  0  0  0
   35.8800   29.0240   34.4080 N   0  0  0  0  0  0  0  0  0  0  0  0
   36.5480   28.5510   31.2030 H   0  0  0  0  0  0  0  0  0  0  0  0
   35.3950   30.6440   30.9770 H   0  0  0  0  0  0  0  0  0  0  0  0
   34.6820   30.9120   35.4660 C   0  0  0  0  0  0  0  0  0  0  0  0
   33.4880   31.1570   36.0160 N   0  0  0  0  0  0  0  0  0  0  0  0
   33.6920   31.9090   37.1210 C   0  0  0  0  0  0  0  0  0  0  0  0
   32.9200   32.2700   37.7820 H   0  0  0  0  0  0  0  0  0  0  0  0
   35.0270   32.1370   37.2660 N   0  0  0  0  0  0  0  0  0  0  0  0
   35.4520   32.6930   38.0440 H   0  0  0  0  0  0  0  0  0  0  0  0
   35.6080   31.5240   36.2530 N   0  0  0  0  0  0  0  0  0  0  0  0
   38.2050   27.0570   34.4030 C   0  0  0  0  0  0  0  0  0  0  0  0
   38.3630   27.9380   35.0610 H   0  0  0  0  0  0  0  0  0  0  0  0
   39.1740   26.9910   33.8260 H   0  0  0  0  0  0  0  0  0  0  0  0
   38.2180   25.8480   35.2660 C   0  0  0  0  0  0  0  0  0  0  0  0
   38.2390   24.5610   34.7210 C   0  0  0  0  0  0  0  0  0  0  0  0
   38.2450   23.6790   35.7660 C   0  0  0  0  0  0  0  0  0  0  0  0
   38.2280   24.3780   36.8920 N   0  0  0  0  0  0  0  0  0  0  0  0
   38.2120   25.6640   36.5760 N   0  0  0  0  0  0  0  0  0  0  0  0
   38.2500   24.2670   33.6770 H   0  0  0  0  0  0  0  0  0  0  0  0
   38.2610   22.5910   35.7920 H   0  0  0  0  0  0  0  0  0  0  0  0
   38.2270   23.8990   38.2700 C   0  0  0  0  0  0  0  0  0  0  0  0
   39.4460   23.3510   38.5890 F   0  0  0  0  0  0  0  0  0  0  0  0
   37.2360   22.9530   38.4710 F   0  0  0  0  0  0  0  0  0  0  0  0
   37.9900   24.9430   39.1620 F   0  0  0  0  0  0  0  0  0  0  0  0
  1  3  1  0  0  0  0
  1 19  1  0  0  0  0
  2  1  1  0  0  0  0
  4  1  1  0  0  0  0
  4  9  1  0  0  0  0
  5  4  2  0  0  0  0
  6  5  1  0  0  0  0
  6  7  2  0  0  0  0
  7  8  1  0  0  0  0
  8  9  2  0  0  0  0
  8 12  1  0  0  0  0
 10  5  1  0  0  0  0
 11  6  1  0  0  0  0
 12 13  1  0  0  0  0
 12 18  2  0  0  0  0
 13 14  2  0  0  0  0
 14 16  1  0  0  0  0
 14 15  1  0  0  0  0
 16 17  1  0  0  0  0
 18 16  1  0  0  0  0
 19 20  1  0  0  0  0
 19 22  1  0  0  0  0
 21 19  1  0  0  0  0
 22 26  2  0  0  0  0
 23 22  1  0  0  0  0
 23 24  2  0  0  0  0
 24 28  1  0  0  0  0
 24 25  1  0  0  0  0
 25 29  1  0  0  0  0
 26 25  1  0  0  0  0
 27 23  1  0  0  0  0
 29 31  1  0  0  0  0
 29 30  1  0  0  0  0
 29 32  1  0  0  0  0
M  END
>  <minimizedAffinity>
-5.98252296

$$$$

 OpenBabel03272500283D

 32 34  0  0  0  0  0  0  0  0999 V2000
   36.8020   27.3980   34.5800 C   0  0  0  0  0  0  0  0  0  0  0  0
   35.8930   27.0190   35.1350 H   0  0  0  0  0  0  0  0  0  0  0  0
   37.4120   27.8480   35.4160 H   0  0  0  0  0  0  0  0  0  0  0  0
   36.3490   28.4140   33.6810 C   0  0  0  0  0  0  0  0  0  0  0  0
   35.4140   29.3220   34.0680 C   0  0  0  0  0  0  0  0  0  0  0  0
   34.9610   30.3230   33.1950 C   0  0  0  0  0  0  0  0  0  0  0  0
   35.5330   30.3090   31.9320 N   0  0  0  0  0  0  0  0  0  0  0  0
   36.4550   29.3990   31.5780 C   0  0  0  0  0  0  0  0  0  0  0  0
   36.8460   28.4630   32.4690 N   0  0  0  0  0  0  0  0  0  0  0  0
   34.9480   29.3720   35.0210 H   0  0  0  0  0  0  0  0  0  0  0  0
   34.2200   31.0570   33.4730 H   0  0  0  0  0  0  0  0  0  0  0  0
   36.9890   29.4830   30.2200 C   0  0  0  0  0  0  0  0  0  0  0  0
   37.3660   30.4250   29.3510 N   0  0  0  0  0  0  0  0  0  0  0  0
   37.7800   29.8040   28.2240 C   0  0  0  0  0  0  0  0  0  0  0  0
   38.1460   30.2960   27.3380 H   0  0  0  0  0  0  0  0  0  0  0  0
   37.6620   28.4570   28.3890 N   0  0  0  0  0  0  0  0  0  0  0  0
   37.9160   27.7460   27.6630 H   0  0  0  0  0  0  0  0  0  0  0  0
   37.1800   28.2840   29.6040 N   0  0  0  0  0  0  0  0  0  0  0  0
   37.5650   26.2460   34.0920 C   0  0  0  0  0  0  0  0  0  0  0  0
   38.5160   26.5110   33.5830 H   0  0  0  0  0  0  0  0  0  0  0  0
   37.0030   25.6660   33.3010 H   0  0  0  0  0  0  0  0  0  0  0  0
   37.8810   25.2290   35.1260 C   0  0  0  0  0  0  0  0  0  0  0  0
   38.2880   23.9360   34.7810 C   0  0  0  0  0  0  0  0  0  0  0  0
   38.4970   23.2520   35.9470 C   0  0  0  0  0  0  0  0  0  0  0  0
   38.2350   24.0720   36.9540 N   0  0  0  0  0  0  0  0  0  0  0  0
   37.8700   25.2410   36.4490 N   0  0  0  0  0  0  0  0  0  0  0  0
   38.4270   23.5110   33.7920 H   0  0  0  0  0  0  0  0  0  0  0  0
   38.8170   22.2300   36.1350 H   0  0  0  0  0  0  0  0  0  0  0  0
   38.3090   23.8160   38.3890 C   0  0  0  0  0  0  0  0  0  0  0  0
   38.0760   24.9710   39.0950 F   0  0  0  0  0  0  0  0  0  0  0  0
   39.5450   23.3060   38.7440 F   0  0  0  0  0  0  0  0  0  0  0  0
   37.3490   22.8840   38.7810 F   0  0  0  0  0  0  0  0  0  0  0  0
  1  2  1  0  0  0  0
  1  3  1  0  0  0  0
  4  5  1  0  0  0  0
  4  1  1  0  0  0  0
  5 10  1  0  0  0  0
  6 11  1  0  0  0  0
  6  5  2  0  0  0  0
  7  6  1  0  0  0  0
  8  7  2  0  0  0  0
  8  9  1  0  0  0  0
  9  4  2  0  0  0  0
 12  8  1  0  0  0  0
 13 12  1  0  0  0  0
 14 16  1  0  0  0  0
 14 13  2  0  0  0  0
 15 14  1  0  0  0  0
 16 18  1  0  0  0  0
 17 16  1  0  0  0  0
 18 12  2  0  0  0  0
 19  1  1  0  0  0  0
 19 22  1  0  0  0  0
 20 19  1  0  0  0  0
 21 19  1  0  0  0  0
 22 26  2  0  0  0  0
 23 22  1  0  0  0  0
 23 24  2  0  0  0  0
 24 28  1  0  0  0  0
 24 25  1  0  0  0  0
 25 29  1  0  0  0  0
 26 25  1  0  0  0  0
 27 23  1  0  0  0  0
 29 31  1  0  0  0  0
 29 32  1  0  0  0  0
 29 30  1  0  0  0  0
M  END
>  <minimizedAffinity>
-5.68902302

$$$$

 OpenBabel03272500283D

 32 34  0  0  0  0  0  0  0  0999 V2000
   37.6270   25.0010   32.0020 C   0  0  0  0  0  0  0  0  0  0  0  0
   38.4910   24.3350   31.7050 H   0  0  0  0  0  0  0  0  0  0  0  0
   37.8250   25.9240   31.3820 H   0  0  0  0  0  0  0  0  0  0  0  0
   37.7790   25.2860   33.3950 C   0  0  0  0  0  0  0  0  0  0  0  0
   37.2950   26.4380   33.9300 C   0  0  0  0  0  0  0  0  0  0  0  0
   37.4390   26.7280   35.2950 C   0  0  0  0  0  0  0  0  0  0  0  0
   38.1010   25.7630   36.0380 N   0  0  0  0  0  0  0  0  0  0  0  0
   38.5700   24.6340   35.4820 C   0  0  0  0  0  0  0  0  0  0  0  0
   38.3960   24.4180   34.1610 N   0  0  0  0  0  0  0  0  0  0  0  0
   36.7820   27.2040   33.4030 H   0  0  0  0  0  0  0  0  0  0  0  0
   37.0650   27.6340   35.7470 H   0  0  0  0  0  0  0  0  0  0  0  0
   39.2520   23.6890   36.3640 C   0  0  0  0  0  0  0  0  0  0  0  0
   40.3380   22.9110   36.3460 N   0  0  0  0  0  0  0  0  0  0  0  0
   40.3980   22.2610   37.5300 C   0  0  0  0  0  0  0  0  0  0  0  0
   41.1630   21.5590   37.8190 H   0  0  0  0  0  0  0  0  0  0  0  0
   39.3380   22.6360   38.2980 N   0  0  0  0  0  0  0  0  0  0  0  0
   39.1490   22.2770   39.2630 H   0  0  0  0  0  0  0  0  0  0  0  0
   38.6560   23.5010   37.5730 N   0  0  0  0  0  0  0  0  0  0  0  0
   36.3880   24.4180   31.4830 C   0  0  0  0  0  0  0  0  0  0  0  0
   36.1250   24.7450   30.4540 H   0  0  0  0  0  0  0  0  0  0  0  0
   35.4840   24.7280   32.0880 H   0  0  0  0  0  0  0  0  0  0  0  0
   36.3430   22.9350   31.5050 C   0  0  0  0  0  0  0  0  0  0  0  0
   37.3560   22.1640   30.9250 C   0  0  0  0  0  0  0  0  0  0  0  0
   37.0210   20.8500   31.1120 C   0  0  0  0  0  0  0  0  0  0  0  0
   35.8710   20.8100   31.7670 N   0  0  0  0  0  0  0  0  0  0  0  0
   35.4820   22.0560   31.9920 N   0  0  0  0  0  0  0  0  0  0  0  0
   38.2530   22.4970   30.4150 H   0  0  0  0  0  0  0  0  0  0  0  0
   37.5240   19.9300   30.8220 H   0  0  0  0  0  0  0  0  0  0  0  0
   35.1020   19.6490   32.2020 C   0  0  0  0  0  0  0  0  0  0  0  0
   33.7690   19.8230   31.9200 F   0  0  0  0  0  0  0  0  0  0  0  0
   35.2550   19.4250   33.5590 F   0  0  0  0  0  0  0  0  0  0  0  0
   35.5230   18.4950   31.5420 F   0  0  0  0  0  0  0  0  0  0  0  0
  1  4  1  0  0  0  0
  2  1  1  0  0  0  0
  3  1  1  0  0  0  0
  4  5  2  0  0  0  0
  4  9  1  0  0  0  0
  5  6  1  0  0  0  0
  6 11  1  0  0  0  0
  6  7  2  0  0  0  0
  8  7  1  0  0  0  0
  8 12  1  0  0  0  0
  9  8  2  0  0  0  0
 10  5  1  0  0  0  0
 12 18  2  0  0  0  0
 13 12  1  0  0  0  0
 13 14  2  0  0  0  0
 14 15  1  0  0  0  0
 14 16  1  0  0  0  0
 16 17  1  0  0  0  0
 18 16  1  0  0  0  0
 19 22  1  0  0  0  0
 19  1  1  0  0  0  0
 19 21  1  0  0  0  0
 20 19  1  0  0  0  0
 22 26  2  0  0  0  0
 23 24  2  0  0  0  0
 23 22  1  0  0  0  0
 24 25  1  0  0  0  0
 25 26  1  0  0  0  0
 25 29  1  0  0  0  0
 27 23  1  0  0  0  0
 28 24  1  0  0  0  0
 29 31  1  0  0  0  0
 30 29  1  0  0  0  0
 32 29  1  0  0  0  0
M  END
>  <minimizedAffinity>
-5.64809704

$$$$

 OpenBabel03272500283D

 32 34  0  0  0  0  0  0  0  0999 V2000
   38.4950   26.0120   32.8250 C   0  0  0  0  0  0  0  0  0  0  0  0
   38.8890   26.8230   32.1430 H   0  0  0  0  0  0  0  0  0  0  0  0
   39.3360   25.2600   32.7970 H   0  0  0  0  0  0  0  0  0  0  0  0
   37.3210   25.4810   32.2050 C   0  0  0  0  0  0  0  0  0  0  0  0
   36.4390   26.2950   31.5660 C   0  0  0  0  0  0  0  0  0  0  0  0
   35.2830   25.7850   30.9550 C   0  0  0  0  0  0  0  0  0  0  0  0
   35.1180   24.4120   31.0560 N   0  0  0  0  0  0  0  0  0  0  0  0
   36.0060   23.6330   31.6940 C   0  0  0  0  0  0  0  0  0  0  0  0
   37.0980   24.1900   32.2590 N   0  0  0  0  0  0  0  0  0  0  0  0
   36.5230   27.3490   31.4630 H   0  0  0  0  0  0  0  0  0  0  0  0
   34.5660   26.4070   30.4410 H   0  0  0  0  0  0  0  0  0  0  0  0
   35.7270   22.1990   31.7350 C   0  0  0  0  0  0  0  0  0  0  0  0
   34.9000   21.3590   32.3660 N   0  0  0  0  0  0  0  0  0  0  0  0
   35.1740   20.1090   31.9310 C   0  0  0  0  0  0  0  0  0  0  0  0
   34.6720   19.2110   32.2550 H   0  0  0  0  0  0  0  0  0  0  0  0
   36.1830   20.1650   31.0180 N   0  0  0  0  0  0  0  0  0  0  0  0
   36.5860   19.3330   30.5270 H   0  0  0  0  0  0  0  0  0  0  0  0
   36.5040   21.4400   30.9150 N   0  0  0  0  0  0  0  0  0  0  0  0
   38.4560   26.5310   34.1940 C   0  0  0  0  0  0  0  0  0  0  0  0
   37.5400   27.1110   34.4370 H   0  0  0  0  0  0  0  0  0  0  0  0
   39.2880   27.2710   34.3940 H   0  0  0  0  0  0  0  0  0  0  0  0
   38.6280   25.5030   35.2520 C   0  0  0  0  0  0  0  0  0  0  0  0
   39.4130   24.3650   35.0450 C   0  0  0  0  0  0  0  0  0  0  0  0
   39.3660   23.6260   36.1960 C   0  0  0  0  0  0  0  0  0  0  0  0
   38.5980   24.2690   37.0630 N   0  0  0  0  0  0  0  0  0  0  0  0
   38.1680   25.3810   36.4860 N   0  0  0  0  0  0  0  0  0  0  0  0
   39.9710   24.0780   34.1600 H   0  0  0  0  0  0  0  0  0  0  0  0
   39.8280   22.6790   36.4640 H   0  0  0  0  0  0  0  0  0  0  0  0
   38.2390   23.8920   38.4260 C   0  0  0  0  0  0  0  0  0  0  0  0
   39.3480   23.4600   39.1120 F   0  0  0  0  0  0  0  0  0  0  0  0
   37.2810   22.8930   38.4340 F   0  0  0  0  0  0  0  0  0  0  0  0
   37.7120   24.9780   39.1230 F   0  0  0  0  0  0  0  0  0  0  0  0
  1 19  1  0  0  0  0
  2  1  1  0  0  0  0
  3  1  1  0  0  0  0
  4  9  1  0  0  0  0
  4  1  1  0  0  0  0
  5  4  2  0  0  0  0
  6  7  2  0  0  0  0
  6  5  1  0  0  0  0
  7  8  1  0  0  0  0
  8 12  1  0  0  0  0
  8  9  2  0  0  0  0
 10  5  1  0  0  0  0
 11  6  1  0  0  0  0
 12 13  1  0  0  0  0
 14 15  1  0  0  0  0
 14 13  2  0  0  0  0
 16 14  1  0  0  0  0
 17 16  1  0  0  0  0
 18 16  1  0  0  0  0
 18 12  2  0  0  0  0
 19 21  1  0  0  0  0
 19 20  1  0  0  0  0
 19 22  1  0  0  0  0
 22 26  2  0  0  0  0
 23 22  1  0  0  0  0
 23 24  2  0  0  0  0
 24 28  1  0  0  0  0
 24 25  1  0  0  0  0
 25 29  1  0  0  0  0
 26 25  1  0  0  0  0
 27 23  1  0  0  0  0
 29 31  1  0  0  0  0
 29 30  1  0  0  0  0
 29 32  1  0  0  0  0
M  END
>  <minimizedAffinity>
-5.60725737

$$$$

 OpenBabel03272500283D

 32 34  0  0  0  0  0  0  0  0999 V2000
   36.7310   27.5820   34.1360 C   0  0  0  0  0  0  0  0  0  0  0  0
   36.0280   26.6970   34.1280 H   0  0  0  0  0  0  0  0  0  0  0  0
   36.3960   28.1340   35.0610 H   0  0  0  0  0  0  0  0  0  0  0  0
   36.4510   28.3470   32.9600 C   0  0  0  0  0  0  0  0  0  0  0  0
   35.4090   29.2190   32.9270 C   0  0  0  0  0  0  0  0  0  0  0  0
   35.1240   29.9750   31.7790 C   0  0  0  0  0  0  0  0  0  0  0  0
   35.9750   29.7630   30.7060 N   0  0  0  0  0  0  0  0  0  0  0  0
   36.9970   28.8940   30.7670 C   0  0  0  0  0  0  0  0  0  0  0  0
   37.2140   28.2000   31.9050 N   0  0  0  0  0  0  0  0  0  0  0  0
   34.7320   29.4150   33.7210 H   0  0  0  0  0  0  0  0  0  0  0  0
   34.3040   30.6740   31.7230 H   0  0  0  0  0  0  0  0  0  0  0  0
   37.8280   28.7540   29.5730 C   0  0  0  0  0  0  0  0  0  0  0  0
   38.8220   27.9760   29.1330 N   0  0  0  0  0  0  0  0  0  0  0  0
   39.1520   28.3960   27.8910 C   0  0  0  0  0  0  0  0  0  0  0  0
   39.9220   27.9650   27.2710 H   0  0  0  0  0  0  0  0  0  0  0  0
   38.3570   29.4470   27.5490 N   0  0  0  0  0  0  0  0  0  0  0  0
   38.4080   29.9570   26.6370 H   0  0  0  0  0  0  0  0  0  0  0  0
   37.5620   29.6480   28.5820 N   0  0  0  0  0  0  0  0  0  0  0  0
   38.0860   27.0990   34.4150 C   0  0  0  0  0  0  0  0  0  0  0  0
   38.7570   27.8600   34.8670 H   0  0  0  0  0  0  0  0  0  0  0  0
   38.6350   26.7990   33.4740 H   0  0  0  0  0  0  0  0  0  0  0  0
   38.1480   25.8860   35.2690 C   0  0  0  0  0  0  0  0  0  0  0  0
   38.2780   24.6080   34.7160 C   0  0  0  0  0  0  0  0  0  0  0  0
   38.3040   23.7180   35.7540 C   0  0  0  0  0  0  0  0  0  0  0  0
   38.1970   24.4030   36.8830 N   0  0  0  0  0  0  0  0  0  0  0  0
   38.1050   25.6890   36.5770 N   0  0  0  0  0  0  0  0  0  0  0  0
   38.3480   24.3260   33.6710 H   0  0  0  0  0  0  0  0  0  0  0  0
   38.3920   22.6340   35.7730 H   0  0  0  0  0  0  0  0  0  0  0  0
   38.1750   23.9120   38.2560 C   0  0  0  0  0  0  0  0  0  0  0  0
   37.2810   22.8760   38.3810 F   0  0  0  0  0  0  0  0  0  0  0  0
   37.8340   24.9170   39.1440 F   0  0  0  0  0  0  0  0  0  0  0  0
   39.4280   23.4320   38.6360 F   0  0  0  0  0  0  0  0  0  0  0  0
  1 19  1  0  0  0  0
  1  3  1  0  0  0  0
  2  1  1  0  0  0  0
  4  1  1  0  0  0  0
  5  4  1  0  0  0  0
  5 10  1  0  0  0  0
  6  5  2  0  0  0  0
  7  8  2  0  0  0  0
  7  6  1  0  0  0  0
  8  9  1  0  0  0  0
  9  4  2  0  0  0  0
 11  6  1  0  0  0  0
 12  8  1  0  0  0  0
 13 12  1  0  0  0  0
 14 13  2  0  0  0  0
 15 14  1  0  0  0  0
 16 14  1  0  0  0  0
 16 18  1  0  0  0  0
 17 16  1  0  0  0  0
 18 12  2  0  0  0  0
 19 20  1  0  0  0  0
 19 22  1  0  0  0  0
 21 19  1  0  0  0  0
 22 26  2  0  0  0  0
 23 22  1  0  0  0  0
 23 24  2  0  0  0  0
 24 28  1  0  0  0  0
 24 25  1  0  0  0  0
 25 29  1  0  0  0  0
 26 25  1  0  0  0  0
 27 23  1  0  0  0  0
 29 30  1  0  0  0  0
 29 32  1  0  0  0  0
 29 31  1  0  0  0  0
M  END
>  <minimizedAffinity>
-5.47329426

$$$$

 OpenBabel03272500283D

 32 34  0  0  0  0  0  0  0  0999 V2000
   38.7140   21.6080   33.3430 C   0  0  0  0  0  0  0  0  0  0  0  0
   39.0800   20.8400   32.6000 H   0  0  0  0  0  0  0  0  0  0  0  0
   38.2850   20.9540   34.1570 H   0  0  0  0  0  0  0  0  0  0  0  0
   37.6790   22.3550   32.6970 C   0  0  0  0  0  0  0  0  0  0  0  0
   36.6890   21.7250   32.0100 C   0  0  0  0  0  0  0  0  0  0  0  0
   35.6690   22.4470   31.3710 C   0  0  0  0  0  0  0  0  0  0  0  0
   35.7530   23.8250   31.4950 N   0  0  0  0  0  0  0  0  0  0  0  0
   36.7440   24.4190   32.1800 C   0  0  0  0  0  0  0  0  0  0  0  0
   37.6930   23.6630   32.7710 N   0  0  0  0  0  0  0  0  0  0  0  0
   36.5820   20.6750   31.8880 H   0  0  0  0  0  0  0  0  0  0  0  0
   34.8700   21.9750   30.8190 H   0  0  0  0  0  0  0  0  0  0  0  0
   36.7290   25.8790   32.2430 C   0  0  0  0  0  0  0  0  0  0  0  0
   37.4070   26.8600   32.8460 N   0  0  0  0  0  0  0  0  0  0  0  0
   36.8600   28.0350   32.4610 C   0  0  0  0  0  0  0  0  0  0  0  0
   37.1890   29.0110   32.7800 H   0  0  0  0  0  0  0  0  0  0  0  0
   35.8290   27.7880   31.6070 N   0  0  0  0  0  0  0  0  0  0  0  0
   35.2370   28.5280   31.1630 H   0  0  0  0  0  0  0  0  0  0  0  0
   35.7670   26.4760   31.4890 N   0  0  0  0  0  0  0  0  0  0  0  0
   39.8750   22.2820   33.9300 C   0  0  0  0  0  0  0  0  0  0  0  0
   40.1280   23.2530   33.4530 H   0  0  0  0  0  0  0  0  0  0  0  0
   40.8250   21.6810   33.8060 H   0  0  0  0  0  0  0  0  0  0  0  0
   39.7850   22.5130   35.3930 C   0  0  0  0  0  0  0  0  0  0  0  0
   40.7690   22.0460   36.2700 C   0  0  0  0  0  0  0  0  0  0  0  0
   40.3950   22.4160   37.5320 C   0  0  0  0  0  0  0  0  0  0  0  0
   39.2480   23.0740   37.4440 N   0  0  0  0  0  0  0  0  0  0  0  0
   38.9000   23.1210   36.1670 N   0  0  0  0  0  0  0  0  0  0  0  0
   41.6730   21.4920   36.0410 H   0  0  0  0  0  0  0  0  0  0  0  0
   40.8680   22.2590   38.4990 H   0  0  0  0  0  0  0  0  0  0  0  0
   38.4470   23.6690   38.5070 C   0  0  0  0  0  0  0  0  0  0  0  0
   39.2190   23.8900   39.6230 F   0  0  0  0  0  0  0  0  0  0  0  0
   37.3800   22.8560   38.8470 F   0  0  0  0  0  0  0  0  0  0  0  0
   37.9220   24.8980   38.1110 F   0  0  0  0  0  0  0  0  0  0  0  0
  1 19  1  0  0  0  0
  1  3  1  0  0  0  0
  2  1  1  0  0  0  0
  4  9  1  0  0  0  0
  4  1  1  0  0  0  0
  5  4  2  0  0  0  0
  6  7  2  0  0  0  0
  6  5  1  0  0  0  0
  7  8  1  0  0  0  0
  8 12  1  0  0  0  0
  8  9  2  0  0  0  0
 10  5  1  0  0  0  0
 11  6  1  0  0  0  0
 12 13  1  0  0  0  0
 14 15  1  0  0  0  0
 14 13  2  0  0  0  0
 16 14  1  0  0  0  0
 17 16  1  0  0  0  0
 18 16  1  0  0  0  0
 18 12  2  0  0  0  0
 19 22  1  0  0  0  0
 20 19  1  0  0  0  0
 21 19  1  0  0  0  0
 22 26  2  0  0  0  0
 22 23  1  0  0  0  0
 23 24  2  0  0  0  0
 24 28  1  0  0  0  0
 25 24  1  0  0  0  0
 25 29  1  0  0  0  0
 26 25  1  0  0  0  0
 27 23  1  0  0  0  0
 29 31  1  0  0  0  0
 29 30  1  0  0  0  0
 32 29  1  0  0  0  0
M  END
>  <minimizedAffinity>
-5.42308617

$$$$

 OpenBabel03272500283D

 32 34  0  0  0  0  0  0  0  0999 V2000
   36.3270   22.0300   32.3920 C   0  0  0  0  0  0  0  0  0  0  0  0
   35.5070   22.2920   33.1250 H   0  0  0  0  0  0  0  0  0  0  0  0
   36.0420   20.9800   32.0930 H   0  0  0  0  0  0  0  0  0  0  0  0
   37.5560   22.0320   33.1240 C   0  0  0  0  0  0  0  0  0  0  0  0
   38.7220   21.6650   32.5310 C   0  0  0  0  0  0  0  0  0  0  0  0
   39.9350   21.6630   33.2390 C   0  0  0  0  0  0  0  0  0  0  0  0
   39.8450   22.0570   34.5650 N   0  0  0  0  0  0  0  0  0  0  0  0
   38.6770   22.4150   35.1250 C   0  0  0  0  0  0  0  0  0  0  0  0
   37.5490   22.3940   34.3840 N   0  0  0  0  0  0  0  0  0  0  0  0
   38.8410   21.3570   31.5210 H   0  0  0  0  0  0  0  0  0  0  0  0
   40.8760   21.3760   32.7950 H   0  0  0  0  0  0  0  0  0  0  0  0
   38.7050   22.8130   36.5310 C   0  0  0  0  0  0  0  0  0  0  0  0
   37.9650   23.5310   37.3810 N   0  0  0  0  0  0  0  0  0  0  0  0
   38.5770   23.5010   38.5850 C   0  0  0  0  0  0  0  0  0  0  0  0
   38.2220   23.9900   39.4780 H   0  0  0  0  0  0  0  0  0  0  0  0
   39.7130   22.7560   38.4900 N   0  0  0  0  0  0  0  0  0  0  0  0
   40.3720   22.5750   39.2830 H   0  0  0  0  0  0  0  0  0  0  0  0
   39.7710   22.3480   37.2370 N   0  0  0  0  0  0  0  0  0  0  0  0
   36.1630   22.8560   31.1930 C   0  0  0  0  0  0  0  0  0  0  0  0
   35.2520   22.6230   30.6000 H   0  0  0  0  0  0  0  0  0  0  0  0
   37.0000   22.6990   30.4490 H   0  0  0  0  0  0  0  0  0  0  0  0
   36.1720   24.3190   31.4420 C   0  0  0  0  0  0  0  0  0  0  0  0
   35.1480   25.1480   30.9730 C   0  0  0  0  0  0  0  0  0  0  0  0
   35.4490   26.4240   31.3610 C   0  0  0  0  0  0  0  0  0  0  0  0
   36.5920   26.3890   32.0310 N   0  0  0  0  0  0  0  0  0  0  0  0
   37.0080   25.1310   32.0690 N   0  0  0  0  0  0  0  0  0  0  0  0
   34.2630   24.8770   30.4060 H   0  0  0  0  0  0  0  0  0  0  0  0
   34.9280   27.3660   31.2090 H   0  0  0  0  0  0  0  0  0  0  0  0
   37.3290   27.4860   32.6470 C   0  0  0  0  0  0  0  0  0  0  0  0
   37.0690   28.6660   31.9920 F   0  0  0  0  0  0  0  0  0  0  0  0
   38.6920   27.2480   32.6300 F   0  0  0  0  0  0  0  0  0  0  0  0
   36.9540   27.6550   33.9790 F   0  0  0  0  0  0  0  0  0  0  0  0
  1  4  1  0  0  0  0
  1  2  1  0  0  0  0
  3  1  1  0  0  0  0
  4  9  1  0  0  0  0
  5  4  2  0  0  0  0
  5  6  1  0  0  0  0
  6  7  2  0  0  0  0
  7  8  1  0  0  0  0
  8 12  1  0  0  0  0
  9  8  2  0  0  0  0
 10  5  1  0  0  0  0
 11  6  1  0  0  0  0
 12 18  2  0  0  0  0
 12 13  1  0  0  0  0
 13 14  2  0  0  0  0
 14 15  1  0  0  0  0
 16 14  1  0  0  0  0
 16 17  1  0  0  0  0
 18 16  1  0  0  0  0
 19 22  1  0  0  0  0
 19  1  1  0  0  0  0
 20 19  1  0  0  0  0
 21 19  1  0  0  0  0
 22 26  2  0  0  0  0
 23 24  2  0  0  0  0
 23 22  1  0  0  0  0
 24 25  1  0  0  0  0
 25 26  1  0  0  0  0
 25 29  1  0  0  0  0
 27 23  1  0  0  0  0
 28 24  1  0  0  0  0
 29 32  1  0  0  0  0
 30 29  1  0  0  0  0
 31 29  1  0  0  0  0
M  END
>  <minimizedAffinity>
-5.34761477

$$$$

 OpenBabel03272500283D

 32 34  0  0  0  0  0  0  0  0999 V2000
   39.1040   26.7030   35.1750 C   0  0  0  0  0  0  0  0  0  0  0  0
   39.9920   27.1780   35.6880 H   0  0  0  0  0  0  0  0  0  0  0  0
   38.2730   27.4180   35.4420 H   0  0  0  0  0  0  0  0  0  0  0  0
   38.8960   25.4310   35.7950 C   0  0  0  0  0  0  0  0  0  0  0  0
   37.7070   25.1260   36.3800 C   0  0  0  0  0  0  0  0  0  0  0  0
   37.4910   23.8820   36.9920 C   0  0  0  0  0  0  0  0  0  0  0  0
   38.5670   23.0080   36.9510 N   0  0  0  0  0  0  0  0  0  0  0  0
   39.7300   23.3370   36.3650 C   0  0  0  0  0  0  0  0  0  0  0  0
   39.8690   24.5530   35.7950 N   0  0  0  0  0  0  0  0  0  0  0  0
   36.8570   25.7600   36.4360 H   0  0  0  0  0  0  0  0  0  0  0  0
   36.5580   23.6110   37.4640 H   0  0  0  0  0  0  0  0  0  0  0  0
   40.7930   22.3350   36.3830 C   0  0  0  0  0  0  0  0  0  0  0  0
   41.6850   21.8090   35.5380 N   0  0  0  0  0  0  0  0  0  0  0  0
   42.4030   20.8880   36.2190 C   0  0  0  0  0  0  0  0  0  0  0  0
   43.2010   20.2900   35.8080 H   0  0  0  0  0  0  0  0  0  0  0  0
   41.9570   20.8360   37.5050 N   0  0  0  0  0  0  0  0  0  0  0  0
   42.3450   20.2030   38.2420 H   0  0  0  0  0  0  0  0  0  0  0  0
   40.9810   21.7210   37.5830 N   0  0  0  0  0  0  0  0  0  0  0  0
   39.2890   26.8140   33.7260 C   0  0  0  0  0  0  0  0  0  0  0  0
   40.0880   26.1600   33.3160 H   0  0  0  0  0  0  0  0  0  0  0  0
   39.6210   27.8490   33.4160 H   0  0  0  0  0  0  0  0  0  0  0  0
   38.0620   26.5750   32.9240 C   0  0  0  0  0  0  0  0  0  0  0  0
   37.1830   27.6150   32.6040 C   0  0  0  0  0  0  0  0  0  0  0  0
   36.1660   27.0730   31.8690 C   0  0  0  0  0  0  0  0  0  0  0  0
   36.4000   25.7750   31.7400 N   0  0  0  0  0  0  0  0  0  0  0  0
   37.5300   25.4970   32.3730 N   0  0  0  0  0  0  0  0  0  0  0  0
   37.2520   28.6650   32.8660 H   0  0  0  0  0  0  0  0  0  0  0  0
   35.2810   27.5210   31.4210 H   0  0  0  0  0  0  0  0  0  0  0  0
   35.6100   24.7650   31.0450 C   0  0  0  0  0  0  0  0  0  0  0  0
   36.4310   23.9060   30.3540 F   0  0  0  0  0  0  0  0  0  0  0  0
   34.7150   25.3460   30.1640 F   0  0  0  0  0  0  0  0  0  0  0  0
   34.8690   24.0020   31.9460 F   0  0  0  0  0  0  0  0  0  0  0  0
  1  3  1  0  0  0  0
  1  2  1  0  0  0  0
  1  4  1  0  0  0  0
  4  5  1  0  0  0  0
  5 10  1  0  0  0  0
  5  6  2  0  0  0  0
  6 11  1  0  0  0  0
  7  6  1  0  0  0  0
  8 12  1  0  0  0  0
  8  7  2  0  0  0  0
  9  4  2  0  0  0  0
  9  8  1  0  0  0  0
 12 18  2  0  0  0  0
 13 14  2  0  0  0  0
 13 12  1  0  0  0  0
 14 16  1  0  0  0  0
 15 14  1  0  0  0  0
 16 18  1  0  0  0  0
 16 17  1  0  0  0  0
 19  1  1  0  0  0  0
 20 19  1  0  0  0  0
 21 19  1  0  0  0  0
 22 19  1  0  0  0  0
 23 27  1  0  0  0  0
 23 22  1  0  0  0  0
 24 23  2  0  0  0  0
 25 24  1  0  0  0  0
 25 26  1  0  0  0  0
 26 22  2  0  0  0  0
 28 24  1  0  0  0  0
 29 25  1  0  0  0  0
 29 32  1  0  0  0  0
 30 29  1  0  0  0  0
 31 29  1  0  0  0  0
M  END
>  <minimizedAffinity>
-5.33855724

$$$$

 OpenBabel03272500283D

 32 34  0  0  0  0  0  0  0  0999 V2000
   35.6360   25.1960   31.2020 C   0  0  0  0  0  0  0  0  0  0  0  0
   34.9750   25.0490   32.1070 H   0  0  0  0  0  0  0  0  0  0  0  0
   34.8760   25.2870   30.3730 H   0  0  0  0  0  0  0  0  0  0  0  0
   36.4070   24.0000   31.0510 C   0  0  0  0  0  0  0  0  0  0  0  0
   37.6540   24.0370   30.5120 C   0  0  0  0  0  0  0  0  0  0  0  0
   38.4200   22.8710   30.3580 C   0  0  0  0  0  0  0  0  0  0  0  0
   37.8110   21.7030   30.7930 N   0  0  0  0  0  0  0  0  0  0  0  0
   36.5770   21.6980   31.3220 C   0  0  0  0  0  0  0  0  0  0  0  0
   35.8970   22.8580   31.4410 N   0  0  0  0  0  0  0  0  0  0  0  0
   38.1610   24.9040   30.1660 H   0  0  0  0  0  0  0  0  0  0  0  0
   39.4120   22.8690   29.9340 H   0  0  0  0  0  0  0  0  0  0  0  0
   36.0380   20.4070   31.7460 C   0  0  0  0  0  0  0  0  0  0  0  0
   35.4830   19.8640   32.8340 N   0  0  0  0  0  0  0  0  0  0  0  0
   35.2000   18.5740   32.5510 C   0  0  0  0  0  0  0  0  0  0  0  0
   34.7450   17.8700   33.2300 H   0  0  0  0  0  0  0  0  0  0  0  0
   35.5810   18.3040   31.2710 N   0  0  0  0  0  0  0  0  0  0  0  0
   35.4720   17.3740   30.8040 H   0  0  0  0  0  0  0  0  0  0  0  0
   36.0860   19.4280   30.8020 N   0  0  0  0  0  0  0  0  0  0  0  0
   36.2870   26.5040   31.3060 C   0  0  0  0  0  0  0  0  0  0  0  0
   35.6660   27.3530   30.9480 H   0  0  0  0  0  0  0  0  0  0  0  0
   37.2120   26.5730   30.6580 H   0  0  0  0  0  0  0  0  0  0  0  0
   36.7740   26.8480   32.6650 C   0  0  0  0  0  0  0  0  0  0  0  0
   36.2650   27.9440   33.3690 C   0  0  0  0  0  0  0  0  0  0  0  0
   36.9130   27.9890   34.5720 C   0  0  0  0  0  0  0  0  0  0  0  0
   37.7740   26.9820   34.6120 N   0  0  0  0  0  0  0  0  0  0  0  0
   37.6780   26.3150   33.4710 N   0  0  0  0  0  0  0  0  0  0  0  0
   35.5010   28.6510   33.0630 H   0  0  0  0  0  0  0  0  0  0  0  0
   36.8250   28.6720   35.4140 H   0  0  0  0  0  0  0  0  0  0  0  0
   38.6960   26.6040   35.6770 C   0  0  0  0  0  0  0  0  0  0  0  0
   38.8320   25.2370   35.7310 F   0  0  0  0  0  0  0  0  0  0  0  0
   38.2590   27.0660   36.9060 F   0  0  0  0  0  0  0  0  0  0  0  0
   39.9620   27.1430   35.4570 F   0  0  0  0  0  0  0  0  0  0  0  0
  1 19  1  0  0  0  0
  1  2  1  0  0  0  0
  3  1  1  0  0  0  0
  4  1  1  0  0  0  0
  4  9  1  0  0  0  0
  5  4  2  0  0  0  0
  6  5  1  0  0  0  0
  6  7  2  0  0  0  0
  7  8  1  0  0  0  0
  8  9  2  0  0  0  0
  8 12  1  0  0  0  0
 10  5  1  0  0  0  0
 11  6  1  0  0  0  0
 12 13  1  0  0  0  0
 14 13  2  0  0  0  0
 14 15  1  0  0  0  0
 16 14  1  0  0  0  0
 17 16  1  0  0  0  0
 18 16  1  0  0  0  0
 18 12  2  0  0  0  0
 19 22  1  0  0  0  0
 20 19  1  0  0  0  0
 21 19  1  0  0  0  0
 22 23  1  0  0  0  0
 22 26  2  0  0  0  0
 23 24  2  0  0  0  0
 24 25  1  0  0  0  0
 24 28  1  0  0  0  0
 25 29  1  0  0  0  0
 26 25  1  0  0  0  0
 27 23  1  0  0  0  0
 29 30  1  0  0  0  0
 29 31  1  0  0  0  0
 32 29  1  0  0  0  0
M  END
>  <minimizedAffinity>
-5.31434917

$$$$
