
 OpenBabel03272509403D

 33 35  0  0  0  0  0  0  0  0999 V2000
   37.1180   30.9710   49.0440 C   0  0  0  0  0  0  0  0  0  0  0  0
   36.8970   31.9600   50.0060 C   0  0  0  0  0  0  0  0  0  0  0  0
   37.5430   33.1880   49.9680 C   0  0  0  0  0  0  0  0  0  0  0  0
   38.4470   33.4520   48.9320 C   0  0  0  0  0  0  0  0  0  0  0  0
   38.6520   32.4770   47.9990 C   0  0  0  0  0  0  0  0  0  0  0  0
   37.9960   31.2610   48.0620 C   0  0  0  0  0  0  0  0  0  0  0  0
   36.1920   31.7370   50.8040 H   0  0  0  0  0  0  0  0  0  0  0  0
   37.3010   33.8820   50.7610 H   0  0  0  0  0  0  0  0  0  0  0  0
   38.9290   34.4130   48.9310 H   0  0  0  0  0  0  0  0  0  0  0  0
   39.3650   32.7670   47.2380 H   0  0  0  0  0  0  0  0  0  0  0  0
   36.4000   29.7140   49.1640 C   0  0  0  0  0  0  0  0  0  0  0  0
   36.9030   28.8940   50.0120 O   0  0  0  0  0  0  0  0  0  0  0  0
   33.6300   30.1470   46.8670 C   0  0  0  0  0  0  0  0  0  0  0  0
   32.9670   28.9340   46.8960 C   0  0  0  0  0  0  0  0  0  0  0  0
   33.4700   27.9310   47.7210 C   0  0  0  0  0  0  0  0  0  0  0  0
   34.5860   28.1860   48.4580 N   0  0  0  0  0  0  0  0  0  0  0  0
   35.1960   29.3630   48.4050 C   0  0  0  0  0  0  0  0  0  0  0  0
   34.7090   30.3380   47.6050 N   0  0  0  0  0  0  0  0  0  0  0  0
   33.1950   30.9010   46.2050 H   0  0  0  0  0  0  0  0  0  0  0  0
   32.0760   28.6690   46.3340 H   0  0  0  0  0  0  0  0  0  0  0  0
   33.0770   26.9320   47.8600 H   0  0  0  0  0  0  0  0  0  0  0  0
   38.3300   30.3400   46.9960 C   0  0  0  0  0  3  0  0  0  0  0  0
   38.7740   30.6610   45.7880 C   0  0  0  0  0  3  0  0  0  0  0  0
   39.1530   29.8480   44.6240 C   0  0  0  0  0  0  0  0  0  0  0  0
   38.4220   29.0190   44.5020 H   0  0  0  0  0  0  0  0  0  0  0  0
   40.1380   29.3480   44.7180 H   0  0  0  0  0  0  0  0  0  0  0  0
   39.1670   30.6470   43.3670 C   0  0  0  0  0  0  0  0  0  0  0  0
   38.1240   31.0930   42.6300 N   0  0  0  0  0  0  0  0  0  0  0  0
   38.6320   31.7720   41.5760 C   0  0  0  0  0  0  0  0  0  0  0  0
   38.2290   32.3040   40.7270 H   0  0  0  0  0  0  0  0  0  0  0  0
   39.9760   31.7270   41.6900 N   0  0  0  0  0  0  0  0  0  0  0  0
   40.7700   32.1140   41.1060 H   0  0  0  0  0  0  0  0  0  0  0  0
   40.3150   31.0490   42.7710 N   0  0  0  0  0  0  0  0  0  0  0  0
  1 11  1  0  0  0  0
  1  2  1  0  0  0  0
  2  7  1  0  0  0  0
  3  2  2  0  0  0  0
  3  8  1  0  0  0  0
  4  3  1  0  0  0  0
  5  6  1  0  0  0  0
  5  4  2  0  0  0  0
  6  1  2  0  0  0  0
  9  4  1  0  0  0  0
 10  5  1  0  0  0  0
 11 12  2  0  0  0  0
 13 14  2  0  0  0  0
 13 18  1  0  0  0  0
 14 15  1  0  0  0  0
 15 21  1  0  0  0  0
 15 16  2  0  0  0  0
 17 16  1  0  0  0  0
 17 11  1  0  0  0  0
 18 17  2  0  0  0  0
 19 13  1  0  0  0  0
 20 14  1  0  0  0  0
 22  6  1  0  0  0  0
 23 22  2  0  0  0  0
 24 26  1  0  0  0  0
 24 23  1  0  0  0  0
 25 24  1  0  0  0  0
 27 24  1  0  0  0  0
 28 27  1  0  0  0  0
 29 31  1  0  0  0  0
 29 28  2  0  0  0  0
 30 29  1  0  0  0  0
 31 33  1  0  0  0  0
 32 31  1  0  0  0  0
 33 27  2  0  0  0  0
M  END
>  <minimizedAffinity>
-5.75696087

>  <minimizedRMSD>
1.62638915

$$$$
