
 OpenBabel03272509303D

 36 38  0  0  1  0  0  0  0  0999 V2000
   36.2470   30.7030   48.9820 C   0  0  2  0  0  0  0  0  0  0  0  0
   37.2250   31.5900   49.6970 C   0  0  0  0  0  0  0  0  0  0  0  0
   38.1470   30.8210   50.6200 C   0  0  0  0  0  0  0  0  0  0  0  0
   37.3270   30.0380   51.6420 C   0  0  0  0  0  0  0  0  0  0  0  0
   36.0620   29.4380   51.0820 C   0  0  0  0  0  0  0  0  0  0  0  0
   36.2200   29.3250   49.5540 C   0  0  1  0  0  0  0  0  0  0  0  0
   35.1830   31.0750   49.0230 H   0  0  0  0  0  0  0  0  0  0  0  0
   36.5750   32.1860   50.4220 H   0  0  0  0  0  0  0  0  0  0  0  0
   37.7340   32.3330   49.1140 H   0  0  0  0  0  0  0  0  0  0  0  0
   38.7600   31.5470   51.1590 H   0  0  0  0  0  0  0  0  0  0  0  0
   38.7900   30.0990   50.1010 H   0  0  0  0  0  0  0  0  0  0  0  0
   37.9830   29.2250   52.0320 H   0  0  0  0  0  0  0  0  0  0  0  0
   37.1410   30.7080   52.4910 H   0  0  0  0  0  0  0  0  0  0  0  0
   35.9410   28.4180   51.4880 H   0  0  0  0  0  0  0  0  0  0  0  0
   35.2130   30.0650   51.3640 H   0  0  0  0  0  0  0  0  0  0  0  0
   37.1760   28.8630   49.5080 H   0  0  0  0  0  0  0  0  0  0  0  0
   36.5700   30.6150   47.5340 C   0  0  0  0  0  0  0  0  0  0  0  0
   37.9070   30.8710   47.1910 C   0  0  0  0  0  0  0  0  0  0  0  0
   38.2350   30.7870   45.8310 C   0  0  0  0  0  0  0  0  0  0  0  0
   37.2450   30.4620   44.9290 N   0  0  0  0  0  0  0  0  0  0  0  0
   35.9550   30.2200   45.3190 C   0  0  0  0  0  0  0  0  0  0  0  0
   35.6390   30.3020   46.6230 N   0  0  0  0  0  0  0  0  0  0  0  0
   38.7600   31.1210   47.7880 H   0  0  0  0  0  0  0  0  0  0  0  0
   39.2110   30.9570   45.4260 H   0  0  0  0  0  0  0  0  0  0  0  0
   35.2250   29.9690   44.5620 H   0  0  0  0  0  0  0  0  0  0  0  0
   33.9160   28.3380   49.1210 C   0  0  0  0  0  0  0  0  0  0  0  0
   33.1230   29.0290   49.8550 O   0  0  0  0  0  0  0  0  0  0  0  0
   35.3190   28.4290   48.9250 N   0  0  0  0  0  0  0  0  0  0  0  0
   35.6760   27.7180   48.2080 H   0  0  0  0  0  0  0  0  0  0  0  0
   33.1020   27.3050   48.4160 C   0  0  0  0  0  0  0  0  0  0  0  0
   33.5360   26.3320   47.6250 N   0  0  0  0  0  0  0  0  0  0  0  0
   32.4430   25.6300   47.2030 C   0  0  0  0  0  0  0  0  0  0  0  0
   32.5020   24.7790   46.5430 H   0  0  0  0  0  0  0  0  0  0  0  0
   31.3840   26.2070   47.7550 N   0  0  0  0  0  0  0  0  0  0  0  0
   30.3730   25.9220   47.6430 H   0  0  0  0  0  0  0  0  0  0  0  0
   31.7640   27.2190   48.4910 N   0  0  0  0  0  0  0  0  0  0  0  0
  1  7  1  1  0  0  0
  1  6  1  0  0  0  0
  1  2  1  0  0  0  0
  2  8  1  0  0  0  0
  2  3  1  0  0  0  0
  3 10  1  0  0  0  0
  3  4  1  0  0  0  0
  4 12  1  0  0  0  0
  4 13  1  0  0  0  0
  5 15  1  0  0  0  0
  5 14  1  0  0  0  0
  5  4  1  0  0  0  0
  6 16  1  6  0  0  0
  6  5  1  0  0  0  0
  9  2  1  0  0  0  0
 11  3  1  0  0  0  0
 17  1  1  0  0  0  0
 18 17  1  0  0  0  0
 18 23  1  0  0  0  0
 19 18  2  0  0  0  0
 20 21  2  0  0  0  0
 20 19  1  0  0  0  0
 21 22  1  0  0  0  0
 22 17  2  0  0  0  0
 24 19  1  0  0  0  0
 25 21  1  0  0  0  0
 26 27  2  0  0  0  0
 28 26  1  0  0  0  0
 28  6  1  0  0  0  0
 29 28  1  0  0  0  0
 30 36  2  0  0  0  0
 30 26  1  0  0  0  0
 31 30  1  0  0  0  0
 32 31  2  0  0  0  0
 32 34  1  0  0  0  0
 33 32  1  0  0  0  0
 34 36  1  0  0  0  0
 35 34  1  0  0  0  0
M  END
>  <minimizedAffinity>
-5.76498699

>  <minimizedRMSD>
0.28533715

$$$$
