REMARK  Name = 
REMARK  5 active torsions:
REMARK  status: ('A' for Active; 'I' for Inactive)
REMARK    1  A    between atoms: C_1  and  O_14
REMARK    2  A    between atoms: C_2  and  C_8
REMARK    3  A    between atoms: C_6  and  O_15
REMARK    4  A    between atoms: C_9  and  C_13
REMARK    5  A    between atoms: O_15  and  C_25
REMARK                            x       y       z     vdW  Elec       q    Type
REMARK                         _______ _______ _______ _____ _____    ______ ____
ROOT
ATOM      1  C   UNL     1      37.993  31.394  47.637  0.00  0.00    +0.000 A 
ATOM      2  C   UNL     1      37.077  31.319  48.668  0.00  0.00    +0.000 A 
ATOM      3  C   UNL     1      37.202  32.351  49.619  0.00  0.00    +0.000 A 
ATOM      4  C   UNL     1      38.174  33.343  49.503  0.00  0.00    +0.000 A 
ATOM      5  C   UNL     1      39.050  33.331  48.427  0.00  0.00    +0.000 A 
ATOM      6  C   UNL     1      38.951  32.328  47.474  0.00  0.00    +0.000 A 
ATOM      7  H   UNL     1      36.524  32.353  50.443  0.00  0.00    +0.000 HD
ATOM      8  H   UNL     1      38.245  34.123  50.250  0.00  0.00    +0.000 HD
ATOM      9  H   UNL     1      39.819  34.086  48.303  0.00  0.00    +0.000 HD
ENDROOT
BRANCH   2  11
ATOM     10  C   UNL     1      34.938  30.354  47.973  0.00  0.00    +0.000 A 
ATOM     11  C   UNL     1      36.079  30.304  48.792  0.00  0.00    +0.000 A 
ATOM     12  C   UNL     1      36.199  29.256  49.707  0.00  0.00    +0.000 A 
ATOM     13  N   UNL     1      35.190  28.339  49.746  0.00  0.00    +0.000 NA
ATOM     14  C   UNL     1      34.108  28.411  48.950  0.00  0.00    +0.000 A 
ATOM     15  N   UNL     1      33.984  29.409  48.071  0.00  0.00    +0.000 NA
ATOM     16  H   UNL     1      34.833  31.166  47.256  0.00  0.00    +0.000 HD
ATOM     17  H   UNL     1      33.374  27.631  49.068  0.00  0.00    +0.000 HD
BRANCH  12  18
ATOM     18  C   UNL     1      37.383  29.165  50.590  0.00  0.00    +0.000 C 
ATOM     19  H   UNL     1      37.693  28.123  50.819  0.00  0.00    +0.000 HD
ATOM     20  H   UNL     1      38.198  29.771  50.122  0.00  0.00    +0.000 HD
ATOM     21  H   UNL     1      37.116  29.726  51.521  0.00  0.00    +0.000 HD
ENDBRANCH  12  18
ENDBRANCH   2  11
BRANCH   1  22
ATOM     22  O   UNL     1      37.944  30.407  46.643  0.00  0.00    +0.000 OA
ATOM     23  H   UNL     1      37.126  30.201  46.089  0.00  0.00    +0.000 HD
ENDBRANCH   1  22
BRANCH   6  24
ATOM     24  O   UNL     1      39.843  32.333  46.398  0.00  0.00    +0.000 OA
BRANCH  24  25
ATOM     25  C   UNL     1      39.270  32.428  45.137  0.00  0.00    +0.000 A 
ATOM     26  N   UNL     1      38.026  32.779  44.764  0.00  0.00    +0.000 NA
ATOM     27  C   UNL     1      37.972  32.712  43.421  0.00  0.00    +0.000 A 
ATOM     28  H   UNL     1      37.097  32.938  42.821  0.00  0.00    +0.000 HD
ATOM     29  N   UNL     1      39.175  32.322  42.964  0.00  0.00    +0.000 N 
ATOM     30  H   UNL     1      39.434  32.183  41.961  0.00  0.00    +0.000 HD
ATOM     31  N   UNL     1      39.941  32.157  44.020  0.00  0.00    +0.000 NA
ENDBRANCH  24  25
ENDBRANCH   6  24
TORSDOF 5
