
 OpenBabel03272509213D

 44 48  0  0  0  0  0  0  0  0999 V2000
   38.0520   31.2670   47.7780 C   0  0  0  0  0  0  0  0  0  0  0  0
   37.0970   31.3020   48.7750 C   0  0  0  0  0  0  0  0  0  0  0  0
   37.1760   32.4180   49.6080 C   0  0  0  0  0  0  0  0  0  0  0  0
   38.1490   33.4070   49.4300 C   0  0  0  0  0  0  0  0  0  0  0  0
   39.0890   33.2820   48.3760 C   0  0  0  0  0  0  0  0  0  0  0  0
   39.0220   32.1770   47.5390 C   0  0  0  0  0  0  0  0  0  0  0  0
   36.4770   32.5520   50.4260 H   0  0  0  0  0  0  0  0  0  0  0  0
   38.2040   34.2710   50.0810 H   0  0  0  0  0  0  0  0  0  0  0  0
   39.8330   34.0400   48.2400 H   0  0  0  0  0  0  0  0  0  0  0  0
   34.9550   30.2870   48.1830 C   0  0  0  0  0  0  0  0  0  0  0  0
   36.1000   30.2940   48.9600 C   0  0  0  0  0  0  0  0  0  0  0  0
   36.2330   29.2770   49.9240 C   0  0  0  0  0  0  0  0  0  0  0  0
   35.2510   28.3620   50.0380 N   0  0  0  0  0  0  0  0  0  0  0  0
   34.1400   28.3970   49.2490 C   0  0  0  0  0  0  0  0  0  0  0  0
   34.0000   29.3520   48.3340 N   0  0  0  0  0  0  0  0  0  0  0  0
   34.7840   31.0400   47.4190 H   0  0  0  0  0  0  0  0  0  0  0  0
   33.4780   27.5660   49.5110 H   0  0  0  0  0  0  0  0  0  0  0  0
   37.4480   29.2320   50.7930 C   0  0  0  0  0  0  0  0  0  0  0  0
   37.3230   29.8690   51.6980 H   0  0  0  0  0  0  0  0  0  0  0  0
   37.6770   28.1920   51.0270 H   0  0  0  0  0  0  0  0  0  0  0  0
   38.2920   29.6540   50.1740 H   0  0  0  0  0  0  0  0  0  0  0  0
   38.0560   30.1820   46.8860 O   0  0  0  0  0  0  0  0  0  0  0  0
   37.4780   30.2950   46.0500 H   0  0  0  0  0  0  0  0  0  0  0  0
   39.9580   32.1110   46.5340 O   0  0  0  0  0  0  0  0  0  0  0  0
   40.4360   31.2160   44.2560 C   0  0  0  0  0  0  0  0  0  0  0  0
   39.7190   31.9390   45.2040 C   0  0  0  0  0  0  0  0  0  0  0  0
   38.5780   32.6120   44.8030 C   0  0  0  0  0  0  0  0  0  0  0  0
   38.1460   32.5690   43.4600 C   0  0  0  0  0  0  0  0  0  0  0  0
   37.1180   33.0950   42.7780 N   0  0  0  0  0  0  0  0  0  0  0  0
   37.1760   32.7310   41.4850 C   0  0  0  0  0  0  0  0  0  0  0  0
   38.2770   31.9510   41.3510 N   0  0  0  0  0  0  0  0  0  0  0  0
   38.8930   31.8350   42.5550 C   0  0  0  0  0  0  0  0  0  0  0  0
   40.0230   31.1690   42.9490 C   0  0  0  0  0  0  0  0  0  0  0  0
   41.3080   30.7280   44.6660 H   0  0  0  0  0  0  0  0  0  0  0  0
   37.9100   33.2200   45.4230 H   0  0  0  0  0  0  0  0  0  0  0  0
   36.3660   33.7120   43.2050 H   0  0  0  0  0  0  0  0  0  0  0  0
   36.4440   33.0450   40.7580 H   0  0  0  0  0  0  0  0  0  0  0  0
   40.8200   30.3910   42.0030 C   0  0  0  0  0  0  0  0  0  0  0  0
   40.9720   30.7390   40.7030 N   0  0  0  0  0  0  0  0  0  0  0  0
   41.7560   29.8370   40.0800 C   0  0  0  0  0  0  0  0  0  0  0  0
   42.0840   29.8030   39.0450 H   0  0  0  0  0  0  0  0  0  0  0  0
   42.0680   28.9350   41.0540 N   0  0  0  0  0  0  0  0  0  0  0  0
   42.6890   28.1030   40.8250 H   0  0  0  0  0  0  0  0  0  0  0  0
   41.5110   29.2620   42.2050 N   0  0  0  0  0  0  0  0  0  0  0  0
  1  2  1  0  0  0  0
  2 11  1  0  0  0  0
  2  3  2  0  0  0  0
  3  7  1  0  0  0  0
  4  3  1  0  0  0  0
  4  8  1  0  0  0  0
  5  4  2  0  0  0  0
  6  1  2  0  0  0  0
  6  5  1  0  0  0  0
  9  5  1  0  0  0  0
 10 15  2  0  0  0  0
 10 11  1  0  0  0  0
 11 12  2  0  0  0  0
 12 13  1  0  0  0  0
 12 18  1  0  0  0  0
 14 17  1  0  0  0  0
 14 13  2  0  0  0  0
 15 14  1  0  0  0  0
 16 10  1  0  0  0  0
 18 20  1  0  0  0  0
 18 19  1  0  0  0  0
 21 18  1  0  0  0  0
 22  1  1  0  0  0  0
 23 22  1  0  0  0  0
 24  6  1  0  0  0  0
 25 34  1  0  0  0  0
 25 26  1  0  0  0  0
 26 24  1  0  0  0  0
 27 26  2  0  0  0  0
 27 35  1  0  0  0  0
 28 27  1  0  0  0  0
 29 36  1  0  0  0  0
 29 28  1  0  0  0  0
 30 29  1  0  0  0  0
 31 30  2  0  0  0  0
 31 32  1  0  0  0  0
 32 33  1  0  0  0  0
 32 28  2  0  0  0  0
 33 25  2  0  0  0  0
 37 30  1  0  0  0  0
 38 44  2  0  0  0  0
 38 33  1  0  0  0  0
 39 38  1  0  0  0  0
 40 39  2  0  0  0  0
 40 42  1  0  0  0  0
 41 40  1  0  0  0  0
 42 44  1  0  0  0  0
 43 42  1  0  0  0  0
M  END
>  <minimizedAffinity>
-7.96290636

>  <minimizedRMSD>
0.25463298

$$$$
