
 OpenBabel03272509293D

 32 34  0  0  1  0  0  0  0  0999 V2000
   37.4490   31.1790   46.5910 C   0  0  2  0  0  0  0  0  0  0  0  0
   37.3070   30.4590   45.2650 C   0  0  0  0  0  0  0  0  0  0  0  0
   38.5770   29.7980   44.8200 C   0  0  0  0  0  0  0  0  0  0  0  0
   39.7470   30.7360   44.7820 C   0  0  0  0  0  0  0  0  0  0  0  0
   39.7980   31.6850   45.9530 C   0  0  0  0  0  0  0  0  0  0  0  0
   38.8600   31.2640   47.0650 C   0  0  1  0  0  0  0  0  0  0  0  0
   37.0320   32.2040   46.5200 H   0  0  0  0  0  0  0  0  0  0  0  0
   36.4980   29.7140   45.2520 H   0  0  0  0  0  0  0  0  0  0  0  0
   37.0510   31.2170   44.5000 H   0  0  0  0  0  0  0  0  0  0  0  0
   38.7870   28.8930   45.4320 H   0  0  0  0  0  0  0  0  0  0  0  0
   38.4080   29.4530   43.7750 H   0  0  0  0  0  0  0  0  0  0  0  0
   39.8890   31.2450   43.8060 H   0  0  0  0  0  0  0  0  0  0  0  0
   40.6570   30.0790   44.8780 H   0  0  0  0  0  0  0  0  0  0  0  0
   40.8140   31.8110   46.3610 H   0  0  0  0  0  0  0  0  0  0  0  0
   39.4270   32.6760   45.5910 H   0  0  0  0  0  0  0  0  0  0  0  0
   39.1800   30.2720   47.4460 H   0  0  0  0  0  0  0  0  0  0  0  0
   36.6670   30.4530   47.6380 C   0  0  0  0  0  0  0  0  0  0  0  0
   35.2640   30.5170   47.5300 C   0  0  0  0  0  0  0  0  0  0  0  0
   34.5210   29.8540   48.4980 C   0  0  0  0  0  0  0  0  0  0  0  0
   35.1690   29.1730   49.5080 N   0  0  0  0  0  0  0  0  0  0  0  0
   36.5370   29.1400   49.5700 C   0  0  0  0  0  0  0  0  0  0  0  0
   37.2610   29.7720   48.6470 N   0  0  0  0  0  0  0  0  0  0  0  0
   34.7050   31.0230   46.7830 H   0  0  0  0  0  0  0  0  0  0  0  0
   33.4440   29.8410   48.5060 H   0  0  0  0  0  0  0  0  0  0  0  0
   37.0080   28.5950   50.3760 H   0  0  0  0  0  0  0  0  0  0  0  0
   38.9370   32.2900   48.1370 C   0  0  0  0  0  0  0  0  0  0  0  0
   39.4420   33.5350   47.9080 N   0  0  0  0  0  0  0  0  0  0  0  0
   39.3770   34.2330   49.0690 C   0  0  0  0  0  0  0  0  0  0  0  0
   39.7120   35.2570   49.1780 H   0  0  0  0  0  0  0  0  0  0  0  0
   38.8400   33.4060   49.9750 N   0  0  0  0  0  0  0  0  0  0  0  0
   38.6830   33.7000   50.9490 H   0  0  0  0  0  0  0  0  0  0  0  0
   38.5630   32.2220   49.4370 N   0  0  0  0  0  0  0  0  0  0  0  0
  1  7  1  6  0  0  0
  1  6  1  0  0  0  0
  1 17  1  0  0  0  0
  2  1  1  0  0  0  0
  3  2  1  0  0  0  0
  3 10  1  0  0  0  0
  4  3  1  0  0  0  0
  4 13  1  0  0  0  0
  4  5  1  0  0  0  0
  5 14  1  0  0  0  0
  5  6  1  0  0  0  0
  6 16  1  1  0  0  0
  6 26  1  0  0  0  0
  8  2  1  0  0  0  0
  9  2  1  0  0  0  0
 11  3  1  0  0  0  0
 12  4  1  0  0  0  0
 15  5  1  0  0  0  0
 17 22  1  0  0  0  0
 18 17  2  0  0  0  0
 18 19  1  0  0  0  0
 19 24  1  0  0  0  0
 19 20  2  0  0  0  0
 20 21  1  0  0  0  0
 21 25  1  0  0  0  0
 22 21  2  0  0  0  0
 23 18  1  0  0  0  0
 26 32  2  0  0  0  0
 27 26  1  0  0  0  0
 27 28  2  0  0  0  0
 28 29  1  0  0  0  0
 28 30  1  0  0  0  0
 30 31  1  0  0  0  0
 32 30  1  0  0  0  0
M  END
>  <minimizedAffinity>
-4.98492146

>  <minimizedRMSD>
5.30193615

$$$$
