
 OpenBabel03262521533D

 21 22  0  0  0  0  0  0  0  0999 V2000
   39.4080   23.9170   33.8010 C   0  0  0  0  0  0  0  0  0  0  0  0
   40.4480   24.1000   34.1810 H   0  0  0  0  0  0  0  0  0  0  0  0
   39.5170   23.6910   32.7200 H   0  0  0  0  0  0  0  0  0  0  0  0
   38.3350   25.3390   33.9860 S   0  0  0  0  0  0  0  0  0  0  0  0
   37.0960   25.2970   32.7130 C   0  0  0  0  0  0  0  0  0  0  0  0
   36.6400   26.5390   32.3020 C   0  0  0  0  0  0  0  0  0  0  0  0
   35.6630   26.5610   31.3010 C   0  0  0  0  0  0  0  0  0  0  0  0
   35.1950   25.3880   30.7690 N   0  0  0  0  0  0  0  0  0  0  0  0
   35.6870   24.2100   31.2190 C   0  0  0  0  0  0  0  0  0  0  0  0
   36.6080   24.1690   32.1610 N   0  0  0  0  0  0  0  0  0  0  0  0
   36.9890   27.4800   32.7030 H   0  0  0  0  0  0  0  0  0  0  0  0
   35.2850   27.5180   30.9570 H   0  0  0  0  0  0  0  0  0  0  0  0
   35.3410   23.2590   30.8220 H   0  0  0  0  0  0  0  0  0  0  0  0
   38.7880   22.4570   34.7070 S   0  0  0  0  0  0  0  0  0  0  0  0
   38.9480   22.7110   36.4620 C   0  0  0  0  0  0  0  0  0  0  0  0
   37.8570   23.2530   37.0690 N   0  0  0  0  0  0  0  0  0  0  0  0
   38.1090   23.3910   38.3850 C   0  0  0  0  0  0  0  0  0  0  0  0
   37.4720   23.7820   39.1580 H   0  0  0  0  0  0  0  0  0  0  0  0
   39.3670   22.9300   38.5910 N   0  0  0  0  0  0  0  0  0  0  0  0
   39.9270   22.8690   39.4730 H   0  0  0  0  0  0  0  0  0  0  0  0
   39.8700   22.5250   37.4480 N   0  0  0  0  0  0  0  0  0  0  0  0
  1  4  1  0  0  0  0
  1  2  1  0  0  0  0
  1 14  1  0  0  0  0
  3  1  1  0  0  0  0
  5  4  1  0  0  0  0
  6 11  1  0  0  0  0
  6  5  1  0  0  0  0
  7  6  2  0  0  0  0
  8  9  2  0  0  0  0
  8  7  1  0  0  0  0
  9 10  1  0  0  0  0
 10  5  2  0  0  0  0
 12  7  1  0  0  0  0
 13  9  1  0  0  0  0
 14 15  1  0  0  0  0
 15 16  1  0  0  0  0
 15 21  2  0  0  0  0
 16 17  2  0  0  0  0
 17 19  1  0  0  0  0
 17 18  1  0  0  0  0
 19 20  1  0  0  0  0
 21 19  1  0  0  0  0
M  END
>  <minimizedAffinity>
-3.96410775

$$$$

 OpenBabel03262521533D

 21 22  0  0  0  0  0  0  0  0999 V2000
   39.1020   25.7370   34.5720 C   0  0  0  0  0  0  0  0  0  0  0  0
   40.1610   25.7070   34.9410 H   0  0  0  0  0  0  0  0  0  0  0  0
   39.1650   25.9690   33.4890 H   0  0  0  0  0  0  0  0  0  0  0  0
   38.1180   26.9990   35.3750 S   0  0  0  0  0  0  0  0  0  0  0  0
   36.9680   27.6710   34.1980 C   0  0  0  0  0  0  0  0  0  0  0  0
   36.9500   27.0320   32.9690 C   0  0  0  0  0  0  0  0  0  0  0  0
   36.0610   27.5230   32.0070 C   0  0  0  0  0  0  0  0  0  0  0  0
   35.2550   28.5920   32.2970 N   0  0  0  0  0  0  0  0  0  0  0  0
   35.3250   29.1670   33.5210 C   0  0  0  0  0  0  0  0  0  0  0  0
   36.1560   28.7180   34.4400 N   0  0  0  0  0  0  0  0  0  0  0  0
   37.5750   26.1880   32.7120 H   0  0  0  0  0  0  0  0  0  0  0  0
   36.0240   27.0450   31.0340 H   0  0  0  0  0  0  0  0  0  0  0  0
   34.7010   30.0160   33.7880 H   0  0  0  0  0  0  0  0  0  0  0  0
   38.4280   24.0600   34.8350 S   0  0  0  0  0  0  0  0  0  0  0  0
   38.8730   23.4650   36.4530 C   0  0  0  0  0  0  0  0  0  0  0  0
   38.1800   24.0230   37.4830 N   0  0  0  0  0  0  0  0  0  0  0  0
   38.6110   23.4900   38.6420 C   0  0  0  0  0  0  0  0  0  0  0  0
   38.2860   23.6980   39.6460 H   0  0  0  0  0  0  0  0  0  0  0  0
   39.5790   22.5960   38.3240 N   0  0  0  0  0  0  0  0  0  0  0  0
   40.1580   21.9780   38.9400 H   0  0  0  0  0  0  0  0  0  0  0  0
   39.7380   22.5790   37.0210 N   0  0  0  0  0  0  0  0  0  0  0  0
  1 14  1  0  0  0  0
  1  2  1  0  0  0  0
  1  4  1  0  0  0  0
  3  1  1  0  0  0  0
  5 10  1  0  0  0  0
  5  4  1  0  0  0  0
  6  5  2  0  0  0  0
  7  8  2  0  0  0  0
  7  6  1  0  0  0  0
  8  9  1  0  0  0  0
  9 13  1  0  0  0  0
  9 10  2  0  0  0  0
 11  6  1  0  0  0  0
 12  7  1  0  0  0  0
 14 15  1  0  0  0  0
 15 21  2  0  0  0  0
 15 16  1  0  0  0  0
 16 17  2  0  0  0  0
 17 18  1  0  0  0  0
 19 17  1  0  0  0  0
 19 20  1  0  0  0  0
 21 19  1  0  0  0  0
M  END
>  <minimizedAffinity>
-3.9347322

$$$$

 OpenBabel03262521533D

 21 22  0  0  0  0  0  0  0  0999 V2000
   38.4810   22.8160   33.7600 C   0  0  0  0  0  0  0  0  0  0  0  0
   38.2750   21.9480   33.0790 H   0  0  0  0  0  0  0  0  0  0  0  0
   37.5630   22.9480   34.3670 H   0  0  0  0  0  0  0  0  0  0  0  0
   38.8110   24.3370   32.8750 S   0  0  0  0  0  0  0  0  0  0  0  0
   38.3420   25.7130   33.8960 C   0  0  0  0  0  0  0  0  0  0  0  0
   39.2980   26.1090   34.8170 C   0  0  0  0  0  0  0  0  0  0  0  0
   38.9770   27.1900   35.6450 C   0  0  0  0  0  0  0  0  0  0  0  0
   37.7610   27.8100   35.5280 N   0  0  0  0  0  0  0  0  0  0  0  0
   36.8750   27.3700   34.6040 C   0  0  0  0  0  0  0  0  0  0  0  0
   37.1590   26.3540   33.8140 N   0  0  0  0  0  0  0  0  0  0  0  0
   40.2640   25.6390   34.9330 H   0  0  0  0  0  0  0  0  0  0  0  0
   39.7040   27.5240   36.3770 H   0  0  0  0  0  0  0  0  0  0  0  0
   35.9010   27.8360   34.4810 H   0  0  0  0  0  0  0  0  0  0  0  0
   39.8850   22.3080   34.8140 S   0  0  0  0  0  0  0  0  0  0  0  0
   39.5170   22.6340   36.5260 C   0  0  0  0  0  0  0  0  0  0  0  0
   38.2850   23.1640   36.7600 N   0  0  0  0  0  0  0  0  0  0  0  0
   38.1360   23.3600   38.0840 C   0  0  0  0  0  0  0  0  0  0  0  0
   37.2930   23.7600   38.6180 H   0  0  0  0  0  0  0  0  0  0  0  0
   39.2870   22.9490   38.6710 N   0  0  0  0  0  0  0  0  0  0  0  0
   39.5640   22.9390   39.6800 H   0  0  0  0  0  0  0  0  0  0  0  0
   40.1110   22.5170   37.7460 N   0  0  0  0  0  0  0  0  0  0  0  0
  1  3  1  0  0  0  0
  1 14  1  0  0  0  0
  2  1  1  0  0  0  0
  4  1  1  0  0  0  0
  4  5  1  0  0  0  0
  5  6  1  0  0  0  0
  6 11  1  0  0  0  0
  6  7  2  0  0  0  0
  7 12  1  0  0  0  0
  8  7  1  0  0  0  0
  9  8  2  0  0  0  0
 10  5  2  0  0  0  0
 10  9  1  0  0  0  0
 13  9  1  0  0  0  0
 14 15  1  0  0  0  0
 15 16  1  0  0  0  0
 15 21  2  0  0  0  0
 16 17  2  0  0  0  0
 17 18  1  0  0  0  0
 17 19  1  0  0  0  0
 19 20  1  0  0  0  0
 21 19  1  0  0  0  0
M  END
>  <minimizedAffinity>
-3.92147946

$$$$

 OpenBabel03262521533D

 21 22  0  0  0  0  0  0  0  0999 V2000
   40.0400   25.1760   34.5200 C   0  0  0  0  0  0  0  0  0  0  0  0
   41.0860   25.0270   34.8970 H   0  0  0  0  0  0  0  0  0  0  0  0
   40.1350   25.3640   33.4310 H   0  0  0  0  0  0  0  0  0  0  0  0
   39.2170   26.5750   35.2760 S   0  0  0  0  0  0  0  0  0  0  0  0
   38.1110   27.3050   34.0920 C   0  0  0  0  0  0  0  0  0  0  0  0
   36.9750   27.8830   34.6340 C   0  0  0  0  0  0  0  0  0  0  0  0
   36.0720   28.4720   33.7430 C   0  0  0  0  0  0  0  0  0  0  0  0
   36.3270   28.4620   32.3970 N   0  0  0  0  0  0  0  0  0  0  0  0
   37.4590   27.8790   31.9370 C   0  0  0  0  0  0  0  0  0  0  0  0
   38.3220   27.3190   32.7620 N   0  0  0  0  0  0  0  0  0  0  0  0
   36.7470   27.9050   35.6900 H   0  0  0  0  0  0  0  0  0  0  0  0
   35.1720   28.9330   34.1360 H   0  0  0  0  0  0  0  0  0  0  0  0
   37.6960   27.8510   30.8770 H   0  0  0  0  0  0  0  0  0  0  0  0
   39.1620   23.6040   34.8310 S   0  0  0  0  0  0  0  0  0  0  0  0
   39.0360   23.3060   36.5820 C   0  0  0  0  0  0  0  0  0  0  0  0
   37.8520   23.6700   37.1450 N   0  0  0  0  0  0  0  0  0  0  0  0
   37.8890   23.3930   38.4630 C   0  0  0  0  0  0  0  0  0  0  0  0
   37.1300   23.5490   39.2090 H   0  0  0  0  0  0  0  0  0  0  0  0
   39.1070   22.8550   38.7140 N   0  0  0  0  0  0  0  0  0  0  0  0
   39.5220   22.5110   39.6110 H   0  0  0  0  0  0  0  0  0  0  0  0
   39.7940   22.8020   37.5960 N   0  0  0  0  0  0  0  0  0  0  0  0
  1 14  1  0  0  0  0
  1  2  1  0  0  0  0
  1  4  1  0  0  0  0
  3  1  1  0  0  0  0
  5  6  1  0  0  0  0
  5  4  1  0  0  0  0
  6 11  1  0  0  0  0
  7 12  1  0  0  0  0
  7  6  2  0  0  0  0
  8  7  1  0  0  0  0
  9  8  2  0  0  0  0
  9 10  1  0  0  0  0
 10  5  2  0  0  0  0
 13  9  1  0  0  0  0
 14 15  1  0  0  0  0
 15 16  1  0  0  0  0
 15 21  2  0  0  0  0
 16 17  2  0  0  0  0
 17 19  1  0  0  0  0
 17 18  1  0  0  0  0
 19 20  1  0  0  0  0
 21 19  1  0  0  0  0
M  END
>  <minimizedAffinity>
-3.91386342

$$$$

 OpenBabel03262521533D

 21 22  0  0  0  0  0  0  0  0999 V2000
   39.2370   25.5520   34.4900 C   0  0  0  0  0  0  0  0  0  0  0  0
   39.1250   26.6620   34.3690 H   0  0  0  0  0  0  0  0  0  0  0  0
   40.2530   25.3940   34.9050 H   0  0  0  0  0  0  0  0  0  0  0  0
   39.1030   24.6630   32.9420 S   0  0  0  0  0  0  0  0  0  0  0  0
   37.5240   25.0160   32.2070 C   0  0  0  0  0  0  0  0  0  0  0  0
   36.7560   23.9010   31.9110 C   0  0  0  0  0  0  0  0  0  0  0  0
   35.5030   24.1250   31.3300 C   0  0  0  0  0  0  0  0  0  0  0  0
   35.0800   25.4040   31.0770 N   0  0  0  0  0  0  0  0  0  0  0  0
   35.8830   26.4460   31.3940 C   0  0  0  0  0  0  0  0  0  0  0  0
   37.0670   26.2550   31.9420 N   0  0  0  0  0  0  0  0  0  0  0  0
   37.0640   22.8820   32.0970 H   0  0  0  0  0  0  0  0  0  0  0  0
   34.8780   23.2730   31.0850 H   0  0  0  0  0  0  0  0  0  0  0  0
   35.5830   27.4740   31.2100 H   0  0  0  0  0  0  0  0  0  0  0  0
   37.9600   25.0450   35.6940 S   0  0  0  0  0  0  0  0  0  0  0  0
   38.6650   23.9540   36.9130 C   0  0  0  0  0  0  0  0  0  0  0  0
   39.8210   23.3410   36.5380 N   0  0  0  0  0  0  0  0  0  0  0  0
   40.2440   22.5510   37.5430 C   0  0  0  0  0  0  0  0  0  0  0  0
   41.1180   21.9250   37.5910 H   0  0  0  0  0  0  0  0  0  0  0  0
   39.3400   22.6750   38.5450 N   0  0  0  0  0  0  0  0  0  0  0  0
   39.3110   22.2250   39.4900 H   0  0  0  0  0  0  0  0  0  0  0  0
   38.3970   23.5100   38.1720 N   0  0  0  0  0  0  0  0  0  0  0  0
  1  3  1  0  0  0  0
  1 14  1  0  0  0  0
  2  1  1  0  0  0  0
  4  1  1  0  0  0  0
  5  4  1  0  0  0  0
  6 11  1  0  0  0  0
  6  5  2  0  0  0  0
  7  6  1  0  0  0  0
  8  7  2  0  0  0  0
  8  9  1  0  0  0  0
  9 10  2  0  0  0  0
 10  5  1  0  0  0  0
 12  7  1  0  0  0  0
 13  9  1  0  0  0  0
 14 15  1  0  0  0  0
 15 21  2  0  0  0  0
 16 15  1  0  0  0  0
 16 17  2  0  0  0  0
 17 18  1  0  0  0  0
 17 19  1  0  0  0  0
 19 20  1  0  0  0  0
 21 19  1  0  0  0  0
M  END
>  <minimizedAffinity>
-3.87814951

$$$$

 OpenBabel03262521533D

 21 22  0  0  0  0  0  0  0  0999 V2000
   38.4820   26.9670   34.6180 C   0  0  0  0  0  0  0  0  0  0  0  0
   39.2380   27.5490   34.0270 H   0  0  0  0  0  0  0  0  0  0  0  0
   38.7090   27.1710   35.6840 H   0  0  0  0  0  0  0  0  0  0  0  0
   38.5830   25.2020   34.3350 S   0  0  0  0  0  0  0  0  0  0  0  0
   38.7810   24.3770   35.8960 C   0  0  0  0  0  0  0  0  0  0  0  0
   37.9260   24.8080   36.8970 C   0  0  0  0  0  0  0  0  0  0  0  0
   38.0430   24.1900   38.1460 C   0  0  0  0  0  0  0  0  0  0  0  0
   38.9720   23.2020   38.3420 N   0  0  0  0  0  0  0  0  0  0  0  0
   39.7750   22.8300   37.3170 C   0  0  0  0  0  0  0  0  0  0  0  0
   39.6800   23.4010   36.1330 N   0  0  0  0  0  0  0  0  0  0  0  0
   37.1850   25.5850   36.7730 H   0  0  0  0  0  0  0  0  0  0  0  0
   37.3880   24.5050   38.9520 H   0  0  0  0  0  0  0  0  0  0  0  0
   40.5230   22.0510   37.4330 H   0  0  0  0  0  0  0  0  0  0  0  0
   36.8500   27.6510   34.1620 S   0  0  0  0  0  0  0  0  0  0  0  0
   36.5920   27.5050   32.4060 C   0  0  0  0  0  0  0  0  0  0  0  0
   36.9590   28.5940   31.6770 N   0  0  0  0  0  0  0  0  0  0  0  0
   36.7130   28.3530   30.3750 C   0  0  0  0  0  0  0  0  0  0  0  0
   36.8810   28.9910   29.5250 H   0  0  0  0  0  0  0  0  0  0  0  0
   36.1880   27.1060   30.3010 N   0  0  0  0  0  0  0  0  0  0  0  0
   35.8660   26.5560   29.4700 H   0  0  0  0  0  0  0  0  0  0  0  0
   36.1140   26.5980   31.5090 N   0  0  0  0  0  0  0  0  0  0  0  0
  1  3  1  0  0  0  0
  2  1  1  0  0  0  0
  4  1  1  0  0  0  0
  4  5  1  0  0  0  0
  5 10  2  0  0  0  0
  5  6  1  0  0  0  0
  6  7  2  0  0  0  0
  7  8  1  0  0  0  0
  7 12  1  0  0  0  0
  9 13  1  0  0  0  0
  9  8  2  0  0  0  0
 10  9  1  0  0  0  0
 11  6  1  0  0  0  0
 14  1  1  0  0  0  0
 15 14  1  0  0  0  0
 16 15  1  0  0  0  0
 17 16  2  0  0  0  0
 18 17  1  0  0  0  0
 19 17  1  0  0  0  0
 19 21  1  0  0  0  0
 20 19  1  0  0  0  0
 21 15  2  0  0  0  0
M  END
>  <minimizedAffinity>
-3.85963559

$$$$

 OpenBabel03262521533D

 21 22  0  0  0  0  0  0  0  0999 V2000
   41.7720   24.3310   34.7880 C   0  0  0  0  0  0  0  0  0  0  0  0
   41.9770   24.6850   35.8330 H   0  0  0  0  0  0  0  0  0  0  0  0
   42.7370   23.9360   34.4090 H   0  0  0  0  0  0  0  0  0  0  0  0
   41.2200   25.6420   33.7010 S   0  0  0  0  0  0  0  0  0  0  0  0
   39.5800   26.1350   34.1760 C   0  0  0  0  0  0  0  0  0  0  0  0
   39.5160   26.9420   35.3000 C   0  0  0  0  0  0  0  0  0  0  0  0
   38.2470   27.3580   35.7150 C   0  0  0  0  0  0  0  0  0  0  0  0
   37.1320   26.9670   35.0200 N   0  0  0  0  0  0  0  0  0  0  0  0
   37.2700   26.1780   33.9300 C   0  0  0  0  0  0  0  0  0  0  0  0
   38.4580   25.7760   33.5220 N   0  0  0  0  0  0  0  0  0  0  0  0
   40.3770   27.2650   35.8680 H   0  0  0  0  0  0  0  0  0  0  0  0
   38.1630   27.9910   36.5930 H   0  0  0  0  0  0  0  0  0  0  0  0
   36.4100   25.8470   33.3530 H   0  0  0  0  0  0  0  0  0  0  0  0
   40.5400   22.9910   34.9420 S   0  0  0  0  0  0  0  0  0  0  0  0
   39.8130   23.0080   36.5670 C   0  0  0  0  0  0  0  0  0  0  0  0
   38.5970   23.6140   36.6490 N   0  0  0  0  0  0  0  0  0  0  0  0
   38.1640   23.5580   37.9230 C   0  0  0  0  0  0  0  0  0  0  0  0
   37.2480   23.9340   38.3440 H   0  0  0  0  0  0  0  0  0  0  0  0
   39.1210   22.9130   38.6330 N   0  0  0  0  0  0  0  0  0  0  0  0
   39.1600   22.6710   39.6510 H   0  0  0  0  0  0  0  0  0  0  0  0
   40.1060   22.5850   37.8290 N   0  0  0  0  0  0  0  0  0  0  0  0
  1 14  1  0  0  0  0
  1  2  1  0  0  0  0
  3  1  1  0  0  0  0
  4  5  1  0  0  0  0
  4  1  1  0  0  0  0
  5  6  1  0  0  0  0
  6  7  2  0  0  0  0
  6 11  1  0  0  0  0
  7 12  1  0  0  0  0
  8  7  1  0  0  0  0
  9  8  2  0  0  0  0
 10  9  1  0  0  0  0
 10  5  2  0  0  0  0
 13  9  1  0  0  0  0
 14 15  1  0  0  0  0
 15 16  1  0  0  0  0
 15 21  2  0  0  0  0
 16 17  2  0  0  0  0
 17 18  1  0  0  0  0
 17 19  1  0  0  0  0
 19 20  1  0  0  0  0
 21 19  1  0  0  0  0
M  END
>  <minimizedAffinity>
-3.85249281

$$$$

 OpenBabel03262521533D

 21 22  0  0  0  0  0  0  0  0999 V2000
   38.1540   23.5280   33.6760 C   0  0  0  0  0  0  0  0  0  0  0  0
   37.3640   24.0850   33.1070 H   0  0  0  0  0  0  0  0  0  0  0  0
   38.9540   23.3030   32.9410 H   0  0  0  0  0  0  0  0  0  0  0  0
   37.5610   21.9880   34.3710 S   0  0  0  0  0  0  0  0  0  0  0  0
   36.8850   20.9870   33.0670 C   0  0  0  0  0  0  0  0  0  0  0  0
   35.5710   20.5930   33.2570 C   0  0  0  0  0  0  0  0  0  0  0  0
   34.9920   19.8030   32.2580 C   0  0  0  0  0  0  0  0  0  0  0  0
   35.7180   19.4500   31.1500 N   0  0  0  0  0  0  0  0  0  0  0  0
   36.9980   19.8730   31.0310 C   0  0  0  0  0  0  0  0  0  0  0  0
   37.5610   20.6180   31.9610 N   0  0  0  0  0  0  0  0  0  0  0  0
   34.9750   20.8540   34.1190 H   0  0  0  0  0  0  0  0  0  0  0  0
   33.9640   19.4770   32.3770 H   0  0  0  0  0  0  0  0  0  0  0  0
   37.6060   19.6150   30.1680 H   0  0  0  0  0  0  0  0  0  0  0  0
   38.7590   24.6800   34.9580 S   0  0  0  0  0  0  0  0  0  0  0  0
   39.0010   23.8150   36.4960 C   0  0  0  0  0  0  0  0  0  0  0  0
   38.0920   24.1030   37.4680 N   0  0  0  0  0  0  0  0  0  0  0  0
   38.3870   23.3870   38.5700 C   0  0  0  0  0  0  0  0  0  0  0  0
   37.8820   23.3670   39.5190 H   0  0  0  0  0  0  0  0  0  0  0  0
   39.4880   22.6530   38.2760 N   0  0  0  0  0  0  0  0  0  0  0  0
   40.0240   21.9740   38.8650 H   0  0  0  0  0  0  0  0  0  0  0  0
   39.8560   22.9060   37.0410 N   0  0  0  0  0  0  0  0  0  0  0  0
  1  4  1  0  0  0  0
  1 14  1  0  0  0  0
  2  1  1  0  0  0  0
  3  1  1  0  0  0  0
  5  6  1  0  0  0  0
  5  4  1  0  0  0  0
  6 11  1  0  0  0  0
  7 12  1  0  0  0  0
  7  6  2  0  0  0  0
  8  7  1  0  0  0  0
  9  8  2  0  0  0  0
  9 10  1  0  0  0  0
 10  5  2  0  0  0  0
 13  9  1  0  0  0  0
 14 15  1  0  0  0  0
 15 21  2  0  0  0  0
 15 16  1  0  0  0  0
 16 17  2  0  0  0  0
 17 18  1  0  0  0  0
 19 17  1  0  0  0  0
 19 20  1  0  0  0  0
 21 19  1  0  0  0  0
M  END
>  <minimizedAffinity>
-3.83617544

$$$$

 OpenBabel03262521533D

 21 22  0  0  0  0  0  0  0  0999 V2000
   38.7430   22.6930   33.7260 C   0  0  0  0  0  0  0  0  0  0  0  0
   38.7400   21.7910   33.0600 H   0  0  0  0  0  0  0  0  0  0  0  0
   37.7730   22.6760   34.2640 H   0  0  0  0  0  0  0  0  0  0  0  0
   38.8700   24.2320   32.8200 S   0  0  0  0  0  0  0  0  0  0  0  0
   38.5470   25.5840   33.9260 C   0  0  0  0  0  0  0  0  0  0  0  0
   37.2850   26.1440   33.8100 C   0  0  0  0  0  0  0  0  0  0  0  0
   36.9810   27.2120   34.6600 C   0  0  0  0  0  0  0  0  0  0  0  0
   37.9120   27.6640   35.5590 N   0  0  0  0  0  0  0  0  0  0  0  0
   39.1260   27.0680   35.6180 C   0  0  0  0  0  0  0  0  0  0  0  0
   39.4310   26.0600   34.8250 N   0  0  0  0  0  0  0  0  0  0  0  0
   36.5330   25.8100   33.1110 H   0  0  0  0  0  0  0  0  0  0  0  0
   36.0010   27.6730   34.5940 H   0  0  0  0  0  0  0  0  0  0  0  0
   39.8890   27.3980   36.3170 H   0  0  0  0  0  0  0  0  0  0  0  0
   40.1310   22.4570   34.8910 S   0  0  0  0  0  0  0  0  0  0  0  0
   39.5840   22.7320   36.5630 C   0  0  0  0  0  0  0  0  0  0  0  0
   38.3140   23.2070   36.6830 N   0  0  0  0  0  0  0  0  0  0  0  0
   38.0280   23.3690   37.9890 C   0  0  0  0  0  0  0  0  0  0  0  0
   37.1210   23.7240   38.4450 H   0  0  0  0  0  0  0  0  0  0  0  0
   39.1320   22.9910   38.6800 N   0  0  0  0  0  0  0  0  0  0  0  0
   39.3090   22.9710   39.7120 H   0  0  0  0  0  0  0  0  0  0  0  0
   40.0600   22.6120   37.8330 N   0  0  0  0  0  0  0  0  0  0  0  0
  1  3  1  0  0  0  0
  1 14  1  0  0  0  0
  2  1  1  0  0  0  0
  4  1  1  0  0  0  0
  4  5  1  0  0  0  0
  5 10  1  0  0  0  0
  6  5  2  0  0  0  0
  6  7  1  0  0  0  0
  7  8  2  0  0  0  0
  8  9  1  0  0  0  0
  9 13  1  0  0  0  0
 10  9  2  0  0  0  0
 11  6  1  0  0  0  0
 12  7  1  0  0  0  0
 14 15  1  0  0  0  0
 15 16  1  0  0  0  0
 15 21  2  0  0  0  0
 16 17  2  0  0  0  0
 17 18  1  0  0  0  0
 17 19  1  0  0  0  0
 19 20  1  0  0  0  0
 21 19  1  0  0  0  0
M  END
>  <minimizedAffinity>
-3.83399248

$$$$
