
 OpenBabel03272504543D

 23 25  0  0  0  0  0  0  0  0999 V2000
   37.2100   21.9060   33.2220 C   0  0  0  0  0  0  0  0  0  0  0  0
   37.5160   22.9450   32.3150 C   0  0  0  0  0  0  0  0  0  0  0  0
   38.1660   24.0350   32.8600 C   0  0  0  0  0  0  0  0  0  0  0  0
   38.4750   24.0710   34.1770 N   0  0  0  0  0  0  0  0  0  0  0  0
   38.1700   23.0620   35.0230 C   0  0  0  0  0  0  0  0  0  0  0  0
   37.5270   21.9640   34.5310 N   0  0  0  0  0  0  0  0  0  0  0  0
   37.2670   22.9030   31.2790 H   0  0  0  0  0  0  0  0  0  0  0  0
   38.4470   24.8930   32.2450 H   0  0  0  0  0  0  0  0  0  0  0  0
   36.5200   20.6880   32.6650 C   0  0  0  0  0  0  0  0  0  0  0  0
   35.5330   19.9640   33.4620 C   0  0  0  0  0  0  0  0  0  0  0  0
   35.0390   20.9240   32.4150 C   0  0  0  0  0  0  0  0  0  0  0  0
   37.0870   20.2350   31.8250 H   0  0  0  0  0  0  0  0  0  0  0  0
   35.3470   20.3320   34.5150 H   0  0  0  0  0  0  0  0  0  0  0  0
   35.3140   18.9090   33.3210 H   0  0  0  0  0  0  0  0  0  0  0  0
   34.6820   20.5340   31.4420 H   0  0  0  0  0  0  0  0  0  0  0  0
   34.5830   21.8750   32.6940 H   0  0  0  0  0  0  0  0  0  0  0  0
   38.5020   23.0990   36.4450 C   0  0  0  0  0  0  0  0  0  0  0  0
   37.8580   23.6880   37.4920 N   0  0  0  0  0  0  0  0  0  0  0  0
   38.5740   23.4320   38.6250 C   0  0  0  0  0  0  0  0  0  0  0  0
   38.3310   23.7610   39.6380 H   0  0  0  0  0  0  0  0  0  0  0  0
   39.6590   22.6840   38.2590 N   0  0  0  0  0  0  0  0  0  0  0  0
   40.4180   22.3100   38.8730 H   0  0  0  0  0  0  0  0  0  0  0  0
   39.6170   22.4810   36.9380 N   0  0  0  0  0  0  0  0  0  0  0  0
  1  6  1  0  0  0  0
  2  3  1  0  0  0  0
  2  1  2  0  0  0  0
  3  4  2  0  0  0  0
  4  5  1  0  0  0  0
  5 17  1  0  0  0  0
  6  5  2  0  0  0  0
  7  2  1  0  0  0  0
  8  3  1  0  0  0  0
  9  1  1  0  0  0  0
  9 10  1  0  0  0  0
 10 13  1  0  0  0  0
 11  9  1  0  0  0  0
 11 16  1  0  0  0  0
 11 10  1  0  0  0  0
 12  9  1  0  0  0  0
 14 10  1  0  0  0  0
 15 11  1  0  0  0  0
 17 23  2  0  0  0  0
 17 18  1  0  0  0  0
 18 19  2  0  0  0  0
 19 20  1  0  0  0  0
 21 19  1  0  0  0  0
 21 22  1  0  0  0  0
 23 21  1  0  0  0  0
M  END
>  <minimizedAffinity>
-4.48306847

$$$$

 OpenBabel03272504543D

 23 25  0  0  0  0  0  0  0  0999 V2000
   38.2260   25.3260   36.0300 C   0  0  0  0  0  0  0  0  0  0  0  0
   38.3750   26.6740   36.4260 C   0  0  0  0  0  0  0  0  0  0  0  0
   37.9950   27.6140   35.4880 C   0  0  0  0  0  0  0  0  0  0  0  0
   37.5150   27.2330   34.2810 N   0  0  0  0  0  0  0  0  0  0  0  0
   37.3840   25.9360   33.9270 C   0  0  0  0  0  0  0  0  0  0  0  0
   37.7470   24.9700   34.8210 N   0  0  0  0  0  0  0  0  0  0  0  0
   38.7530   26.9600   37.3820 H   0  0  0  0  0  0  0  0  0  0  0  0
   38.0700   28.6840   35.6940 H   0  0  0  0  0  0  0  0  0  0  0  0
   38.6090   24.2680   37.0320 C   0  0  0  0  0  0  0  0  0  0  0  0
   38.0500   24.2880   38.3820 C   0  0  0  0  0  0  0  0  0  0  0  0
   37.4470   23.3480   37.3740 C   0  0  0  0  0  0  0  0  0  0  0  0
   39.5620   23.7660   36.7670 H   0  0  0  0  0  0  0  0  0  0  0  0
   37.3620   25.1470   38.6450 H   0  0  0  0  0  0  0  0  0  0  0  0
   38.5540   23.8520   39.2400 H   0  0  0  0  0  0  0  0  0  0  0  0
   37.7200   22.2750   37.3990 H   0  0  0  0  0  0  0  0  0  0  0  0
   36.4590   23.5350   36.9510 H   0  0  0  0  0  0  0  0  0  0  0  0
   36.8670   25.5230   32.6240 C   0  0  0  0  0  0  0  0  0  0  0  0
   36.7010   24.2810   32.0880 N   0  0  0  0  0  0  0  0  0  0  0  0
   36.1800   24.4290   30.8360 C   0  0  0  0  0  0  0  0  0  0  0  0
   35.9270   23.6280   30.1370 H   0  0  0  0  0  0  0  0  0  0  0  0
   36.0300   25.7700   30.6140 N   0  0  0  0  0  0  0  0  0  0  0  0
   35.6580   26.2420   29.7600 H   0  0  0  0  0  0  0  0  0  0  0  0
   36.4450   26.4350   31.6970 N   0  0  0  0  0  0  0  0  0  0  0  0
  1  2  1  0  0  0  0
  1  9  1  0  0  0  0
  2  7  1  0  0  0  0
  3  8  1  0  0  0  0
  3  2  2  0  0  0  0
  4  3  1  0  0  0  0
  5  4  2  0  0  0  0
  5  6  1  0  0  0  0
  6  1  2  0  0  0  0
  9 11  1  0  0  0  0
  9 10  1  0  0  0  0
 10 13  1  0  0  0  0
 10 14  1  0  0  0  0
 11 15  1  0  0  0  0
 11 10  1  0  0  0  0
 12  9  1  0  0  0  0
 16 11  1  0  0  0  0
 17  5  1  0  0  0  0
 18 17  1  0  0  0  0
 19 18  2  0  0  0  0
 20 19  1  0  0  0  0
 21 19  1  0  0  0  0
 21 23  1  0  0  0  0
 22 21  1  0  0  0  0
 23 17  2  0  0  0  0
M  END
>  <minimizedAffinity>
-4.28422022

$$$$

 OpenBabel03272504543D

 23 25  0  0  0  0  0  0  0  0999 V2000
   37.9230   25.8030   33.6450 C   0  0  0  0  0  0  0  0  0  0  0  0
   37.6360   24.8890   32.6070 C   0  0  0  0  0  0  0  0  0  0  0  0
   37.6730   23.5550   32.9640 C   0  0  0  0  0  0  0  0  0  0  0  0
   37.9660   23.1850   34.2320 N   0  0  0  0  0  0  0  0  0  0  0  0
   38.2370   24.0810   35.2070 C   0  0  0  0  0  0  0  0  0  0  0  0
   38.2130   25.4110   34.9020 N   0  0  0  0  0  0  0  0  0  0  0  0
   37.4060   25.1940   31.6110 H   0  0  0  0  0  0  0  0  0  0  0  0
   37.4670   22.7670   32.2360 H   0  0  0  0  0  0  0  0  0  0  0  0
   37.8720   27.2700   33.3030 C   0  0  0  0  0  0  0  0  0  0  0  0
   36.8730   27.7790   32.3670 C   0  0  0  0  0  0  0  0  0  0  0  0
   36.6210   27.9460   33.8410 C   0  0  0  0  0  0  0  0  0  0  0  0
   38.8320   27.7830   33.5210 H   0  0  0  0  0  0  0  0  0  0  0  0
   36.1800   27.0250   31.8880 H   0  0  0  0  0  0  0  0  0  0  0  0
   37.0180   28.6790   31.7760 H   0  0  0  0  0  0  0  0  0  0  0  0
   36.8130   28.9260   34.3200 H   0  0  0  0  0  0  0  0  0  0  0  0
   35.8580   27.3570   34.3520 H   0  0  0  0  0  0  0  0  0  0  0  0
   38.5530   23.6840   36.5760 C   0  0  0  0  0  0  0  0  0  0  0  0
   38.0440   24.1130   37.7660 N   0  0  0  0  0  0  0  0  0  0  0  0
   38.6730   23.4300   38.7650 C   0  0  0  0  0  0  0  0  0  0  0  0
   38.4970   23.5360   39.8380 H   0  0  0  0  0  0  0  0  0  0  0  0
   39.5690   22.5820   38.1750 N   0  0  0  0  0  0  0  0  0  0  0  0
   40.2200   21.9100   38.6410 H   0  0  0  0  0  0  0  0  0  0  0  0
   39.4980   22.7340   36.8480 N   0  0  0  0  0  0  0  0  0  0  0  0
  1  6  1  0  0  0  0
  2  3  1  0  0  0  0
  2  1  2  0  0  0  0
  3  4  2  0  0  0  0
  4  5  1  0  0  0  0
  5 17  1  0  0  0  0
  6  5  2  0  0  0  0
  7  2  1  0  0  0  0
  8  3  1  0  0  0  0
  9 12  1  0  0  0  0
  9  1  1  0  0  0  0
  9 11  1  0  0  0  0
 10  9  1  0  0  0  0
 10 11  1  0  0  0  0
 11 15  1  0  0  0  0
 11 16  1  0  0  0  0
 13 10  1  0  0  0  0
 14 10  1  0  0  0  0
 17 23  2  0  0  0  0
 17 18  1  0  0  0  0
 18 19  2  0  0  0  0
 19 20  1  0  0  0  0
 21 22  1  0  0  0  0
 21 19  1  0  0  0  0
 23 21  1  0  0  0  0
M  END
>  <minimizedAffinity>
-4.2761898

$$$$

 OpenBabel03272504543D

 23 25  0  0  0  0  0  0  0  0999 V2000
   37.6030   25.1790   33.3560 C   0  0  0  0  0  0  0  0  0  0  0  0
   37.1400   26.4660   33.7080 C   0  0  0  0  0  0  0  0  0  0  0  0
   37.3450   26.8310   35.0250 C   0  0  0  0  0  0  0  0  0  0  0  0
   37.9530   25.9880   35.8900 N   0  0  0  0  0  0  0  0  0  0  0  0
   38.3870   24.7610   35.5280 C   0  0  0  0  0  0  0  0  0  0  0  0
   38.2060   24.3550   34.2370 N   0  0  0  0  0  0  0  0  0  0  0  0
   36.6630   27.1210   33.0140 H   0  0  0  0  0  0  0  0  0  0  0  0
   37.0240   27.8060   35.3990 H   0  0  0  0  0  0  0  0  0  0  0  0
   37.4200   24.7490   31.9240 C   0  0  0  0  0  0  0  0  0  0  0  0
   37.2320   23.3400   31.5900 C   0  0  0  0  0  0  0  0  0  0  0  0
   36.0180   24.2260   31.6510 C   0  0  0  0  0  0  0  0  0  0  0  0
   37.8010   25.5070   31.2080 H   0  0  0  0  0  0  0  0  0  0  0  0
   37.2740   22.5960   32.4400 H   0  0  0  0  0  0  0  0  0  0  0  0
   37.4990   22.9180   30.6250 H   0  0  0  0  0  0  0  0  0  0  0  0
   35.5730   24.6080   30.7110 H   0  0  0  0  0  0  0  0  0  0  0  0
   35.2990   24.1400   32.4670 H   0  0  0  0  0  0  0  0  0  0  0  0
   39.0430   23.8490   36.4610 C   0  0  0  0  0  0  0  0  0  0  0  0
   40.2540   23.2250   36.3900 N   0  0  0  0  0  0  0  0  0  0  0  0
   40.4080   22.4750   37.5190 C   0  0  0  0  0  0  0  0  0  0  0  0
   41.2670   21.8520   37.7750 H   0  0  0  0  0  0  0  0  0  0  0  0
   39.2830   22.6470   38.2780 N   0  0  0  0  0  0  0  0  0  0  0  0
   39.0630   22.2210   39.2060 H   0  0  0  0  0  0  0  0  0  0  0  0
   38.4550   23.4800   37.6380 N   0  0  0  0  0  0  0  0  0  0  0  0
  1  2  2  0  0  0  0
  1  6  1  0  0  0  0
  2  3  1  0  0  0  0
  3  8  1  0  0  0  0
  3  4  2  0  0  0  0
  5  4  1  0  0  0  0
  5 17  1  0  0  0  0
  6  5  2  0  0  0  0
  7  2  1  0  0  0  0
  9  1  1  0  0  0  0
 10 11  1  0  0  0  0
 10  9  1  0  0  0  0
 10 13  1  0  0  0  0
 11  9  1  0  0  0  0
 11 16  1  0  0  0  0
 12  9  1  0  0  0  0
 14 10  1  0  0  0  0
 15 11  1  0  0  0  0
 17 23  2  0  0  0  0
 18 17  1  0  0  0  0
 18 19  2  0  0  0  0
 19 20  1  0  0  0  0
 19 21  1  0  0  0  0
 21 22  1  0  0  0  0
 23 21  1  0  0  0  0
M  END
>  <minimizedAffinity>
-4.24496698

$$$$

 OpenBabel03272504543D

 23 25  0  0  0  0  0  0  0  0999 V2000
   39.8760   22.5450   37.2620 C   0  0  0  0  0  0  0  0  0  0  0  0
   39.3340   23.4290   38.2220 C   0  0  0  0  0  0  0  0  0  0  0  0
   37.9810   23.6790   38.1010 C   0  0  0  0  0  0  0  0  0  0  0  0
   37.2540   23.0970   37.1190 N   0  0  0  0  0  0  0  0  0  0  0  0
   37.7980   22.2550   36.2130 C   0  0  0  0  0  0  0  0  0  0  0  0
   39.1320   21.9780   36.2910 N   0  0  0  0  0  0  0  0  0  0  0  0
   39.9190   23.8800   38.9920 H   0  0  0  0  0  0  0  0  0  0  0  0
   37.4640   24.3480   38.7920 H   0  0  0  0  0  0  0  0  0  0  0  0
   41.3450   22.2280   37.3710 C   0  0  0  0  0  0  0  0  0  0  0  0
   42.0370   21.5340   36.2890 C   0  0  0  0  0  0  0  0  0  0  0  0
   42.1850   23.0280   36.3870 C   0  0  0  0  0  0  0  0  0  0  0  0
   41.6970   22.2340   38.4240 H   0  0  0  0  0  0  0  0  0  0  0  0
   41.4160   21.2140   35.3990 H   0  0  0  0  0  0  0  0  0  0  0  0
   42.9260   20.9280   36.4430 H   0  0  0  0  0  0  0  0  0  0  0  0
   43.1050   23.4570   36.8290 H   0  0  0  0  0  0  0  0  0  0  0  0
   41.7000   23.6900   35.6680 H   0  0  0  0  0  0  0  0  0  0  0  0
   37.0150   21.6260   35.1520 C   0  0  0  0  0  0  0  0  0  0  0  0
   37.1550   21.6770   33.7970 N   0  0  0  0  0  0  0  0  0  0  0  0
   36.1670   20.9150   33.2430 C   0  0  0  0  0  0  0  0  0  0  0  0
   35.9970   20.7440   32.1780 H   0  0  0  0  0  0  0  0  0  0  0  0
   35.4260   20.4020   34.2710 N   0  0  0  0  0  0  0  0  0  0  0  0
   34.5920   19.7750   34.2100 H   0  0  0  0  0  0  0  0  0  0  0  0
   35.9380   20.8310   35.4290 N   0  0  0  0  0  0  0  0  0  0  0  0
  1  9  1  0  0  0  0
  1  2  1  0  0  0  0
  2  7  1  0  0  0  0
  3  2  2  0  0  0  0
  3  8  1  0  0  0  0
  4  3  1  0  0  0  0
  5  6  1  0  0  0  0
  5  4  2  0  0  0  0
  6  1  2  0  0  0  0
  9 12  1  0  0  0  0
 10 11  1  0  0  0  0
 10 14  1  0  0  0  0
 10  9  1  0  0  0  0
 11 15  1  0  0  0  0
 11  9  1  0  0  0  0
 13 10  1  0  0  0  0
 16 11  1  0  0  0  0
 17 23  2  0  0  0  0
 17  5  1  0  0  0  0
 18 17  1  0  0  0  0
 19 18  2  0  0  0  0
 19 21  1  0  0  0  0
 20 19  1  0  0  0  0
 21 23  1  0  0  0  0
 22 21  1  0  0  0  0
M  END
>  <minimizedAffinity>
-4.2384491

$$$$

 OpenBabel03272504543D

 23 25  0  0  0  0  0  0  0  0999 V2000
   37.4230   25.7770   33.7970 C   0  0  0  0  0  0  0  0  0  0  0  0
   37.3330   27.1230   34.2140 C   0  0  0  0  0  0  0  0  0  0  0  0
   37.8470   27.3910   35.4680 C   0  0  0  0  0  0  0  0  0  0  0  0
   38.3940   26.4070   36.2170 N   0  0  0  0  0  0  0  0  0  0  0  0
   38.4680   25.1250   35.7930 C   0  0  0  0  0  0  0  0  0  0  0  0
   37.9720   24.8110   34.5610 N   0  0  0  0  0  0  0  0  0  0  0  0
   36.8990   27.8900   33.6120 H   0  0  0  0  0  0  0  0  0  0  0  0
   37.8270   28.4010   35.8850 H   0  0  0  0  0  0  0  0  0  0  0  0
   36.8930   25.4450   32.4250 C   0  0  0  0  0  0  0  0  0  0  0  0
   36.9100   26.4460   31.3620 C   0  0  0  0  0  0  0  0  0  0  0  0
   37.9920   25.4010   31.3750 C   0  0  0  0  0  0  0  0  0  0  0  0
   36.2040   24.5750   32.4430 H   0  0  0  0  0  0  0  0  0  0  0  0
   37.2940   27.4760   31.6250 H   0  0  0  0  0  0  0  0  0  0  0  0
   36.2130   26.4380   30.5280 H   0  0  0  0  0  0  0  0  0  0  0  0
   37.9210   24.5330   30.6900 H   0  0  0  0  0  0  0  0  0  0  0  0
   39.0170   25.6560   31.6470 H   0  0  0  0  0  0  0  0  0  0  0  0
   39.0580   24.0610   36.6010 C   0  0  0  0  0  0  0  0  0  0  0  0
   40.1560   23.2840   36.3790 N   0  0  0  0  0  0  0  0  0  0  0  0
   40.2890   22.4320   37.4370 C   0  0  0  0  0  0  0  0  0  0  0  0
   41.0680   21.6780   37.5720 H   0  0  0  0  0  0  0  0  0  0  0  0
   39.2660   22.6970   38.3030 N   0  0  0  0  0  0  0  0  0  0  0  0
   39.0610   22.2340   39.2170 H   0  0  0  0  0  0  0  0  0  0  0  0
   38.5180   23.6850   37.7990 N   0  0  0  0  0  0  0  0  0  0  0  0
  1  2  2  0  0  0  0
  1  6  1  0  0  0  0
  2  3  1  0  0  0  0
  3  8  1  0  0  0  0
  3  4  2  0  0  0  0
  5  4  1  0  0  0  0
  5 17  1  0  0  0  0
  6  5  2  0  0  0  0
  7  2  1  0  0  0  0
  9 12  1  0  0  0  0
  9  1  1  0  0  0  0
 10 11  1  0  0  0  0
 10 13  1  0  0  0  0
 10  9  1  0  0  0  0
 11 16  1  0  0  0  0
 11  9  1  0  0  0  0
 14 10  1  0  0  0  0
 15 11  1  0  0  0  0
 17 23  2  0  0  0  0
 18 17  1  0  0  0  0
 18 19  2  0  0  0  0
 19 20  1  0  0  0  0
 19 21  1  0  0  0  0
 21 22  1  0  0  0  0
 23 21  1  0  0  0  0
M  END
>  <minimizedAffinity>
-4.21777296

$$$$

 OpenBabel03272504543D

 23 25  0  0  0  0  0  0  0  0999 V2000
   37.1490   27.1350   33.9550 C   0  0  0  0  0  0  0  0  0  0  0  0
   36.5750   28.2050   33.2340 C   0  0  0  0  0  0  0  0  0  0  0  0
   36.0140   27.8670   32.0170 C   0  0  0  0  0  0  0  0  0  0  0  0
   36.0300   26.5880   31.5780 N   0  0  0  0  0  0  0  0  0  0  0  0
   36.5870   25.5820   32.2890 C   0  0  0  0  0  0  0  0  0  0  0  0
   37.1550   25.8670   33.4970 N   0  0  0  0  0  0  0  0  0  0  0  0
   36.5680   29.2100   33.5930 H   0  0  0  0  0  0  0  0  0  0  0  0
   35.5430   28.6210   31.3810 H   0  0  0  0  0  0  0  0  0  0  0  0
   37.7530   27.4560   35.2980 C   0  0  0  0  0  0  0  0  0  0  0  0
   38.2240   26.3870   36.1740 C   0  0  0  0  0  0  0  0  0  0  0  0
   39.2390   27.1380   35.3560 C   0  0  0  0  0  0  0  0  0  0  0  0
   37.4590   28.4640   35.6580 H   0  0  0  0  0  0  0  0  0  0  0  0
   38.0780   25.3230   35.8180 H   0  0  0  0  0  0  0  0  0  0  0  0
   38.2770   26.4840   37.2550 H   0  0  0  0  0  0  0  0  0  0  0  0
   39.8470   27.9300   35.8340 H   0  0  0  0  0  0  0  0  0  0  0  0
   39.7310   26.6710   34.5010 H   0  0  0  0  0  0  0  0  0  0  0  0
   36.6060   24.2000   31.8160 C   0  0  0  0  0  0  0  0  0  0  0  0
   37.6510   23.3590   31.5740 N   0  0  0  0  0  0  0  0  0  0  0  0
   37.1420   22.1680   31.1440 C   0  0  0  0  0  0  0  0  0  0  0  0
   37.7120   21.2790   30.8650 H   0  0  0  0  0  0  0  0  0  0  0  0
   35.7800   22.2910   31.1270 N   0  0  0  0  0  0  0  0  0  0  0  0
   35.0740   21.5720   30.8500 H   0  0  0  0  0  0  0  0  0  0  0  0
   35.4530   23.5220   31.5340 N   0  0  0  0  0  0  0  0  0  0  0  0
  1  9  1  0  0  0  0
  2  7  1  0  0  0  0
  2  1  2  0  0  0  0
  3  2  1  0  0  0  0
  4  3  2  0  0  0  0
  4  5  1  0  0  0  0
  5  6  2  0  0  0  0
  6  1  1  0  0  0  0
  8  3  1  0  0  0  0
  9 11  1  0  0  0  0
  9 12  1  0  0  0  0
  9 10  1  0  0  0  0
 10 14  1  0  0  0  0
 11 15  1  0  0  0  0
 11 10  1  0  0  0  0
 13 10  1  0  0  0  0
 16 11  1  0  0  0  0
 17  5  1  0  0  0  0
 18 17  1  0  0  0  0
 19 18  2  0  0  0  0
 20 19  1  0  0  0  0
 21 19  1  0  0  0  0
 21 23  1  0  0  0  0
 22 21  1  0  0  0  0
 23 17  2  0  0  0  0
M  END
>  <minimizedAffinity>
-4.15435457

$$$$

 OpenBabel03272504543D

 23 25  0  0  0  0  0  0  0  0999 V2000
   38.2500   24.5240   36.2580 C   0  0  0  0  0  0  0  0  0  0  0  0
   39.5210   24.1600   35.7610 C   0  0  0  0  0  0  0  0  0  0  0  0
   39.9340   24.8420   34.6320 C   0  0  0  0  0  0  0  0  0  0  0  0
   39.1490   25.7890   34.0690 N   0  0  0  0  0  0  0  0  0  0  0  0
   37.9360   26.1180   34.5660 C   0  0  0  0  0  0  0  0  0  0  0  0
   37.4840   25.4710   35.6800 N   0  0  0  0  0  0  0  0  0  0  0  0
   40.1310   23.4120   36.2160 H   0  0  0  0  0  0  0  0  0  0  0  0
   40.9010   24.6360   34.1680 H   0  0  0  0  0  0  0  0  0  0  0  0
   37.7710   23.8200   37.5020 C   0  0  0  0  0  0  0  0  0  0  0  0
   38.7220   23.3840   38.5210 C   0  0  0  0  0  0  0  0  0  0  0  0
   37.9620   24.6620   38.7540 C   0  0  0  0  0  0  0  0  0  0  0  0
   36.7630   23.3740   37.3670 H   0  0  0  0  0  0  0  0  0  0  0  0
   39.8200   23.5600   38.3140 H   0  0  0  0  0  0  0  0  0  0  0  0
   38.5310   22.5540   39.1960 H   0  0  0  0  0  0  0  0  0  0  0  0
   37.0870   24.6600   39.4320 H   0  0  0  0  0  0  0  0  0  0  0  0
   38.4580   25.6310   38.6900 H   0  0  0  0  0  0  0  0  0  0  0  0
   37.0860   27.1400   33.9590 C   0  0  0  0  0  0  0  0  0  0  0  0
   36.5190   28.2570   34.4970 N   0  0  0  0  0  0  0  0  0  0  0  0
   35.8130   28.8860   33.5130 C   0  0  0  0  0  0  0  0  0  0  0  0
   35.2400   29.8100   33.6130 H   0  0  0  0  0  0  0  0  0  0  0  0
   35.9550   28.1440   32.3740 N   0  0  0  0  0  0  0  0  0  0  0  0
   35.5490   28.3330   31.4290 H   0  0  0  0  0  0  0  0  0  0  0  0
   36.7270   27.0850   32.6410 N   0  0  0  0  0  0  0  0  0  0  0  0
  1  9  1  0  0  0  0
  2  7  1  0  0  0  0
  2  1  1  0  0  0  0
  3  2  2  0  0  0  0
  4  5  2  0  0  0  0
  4  3  1  0  0  0  0
  5  6  1  0  0  0  0
  6  1  2  0  0  0  0
  8  3  1  0  0  0  0
  9 10  1  0  0  0  0
  9 11  1  0  0  0  0
 10 11  1  0  0  0  0
 10 14  1  0  0  0  0
 11 15  1  0  0  0  0
 12  9  1  0  0  0  0
 13 10  1  0  0  0  0
 16 11  1  0  0  0  0
 17 18  1  0  0  0  0
 17  5  1  0  0  0  0
 19 20  1  0  0  0  0
 19 18  2  0  0  0  0
 21 23  1  0  0  0  0
 21 19  1  0  0  0  0
 22 21  1  0  0  0  0
 23 17  2  0  0  0  0
M  END
>  <minimizedAffinity>
-4.08226156

$$$$

 OpenBabel03272504543D

 23 25  0  0  0  0  0  0  0  0999 V2000
   36.2600   24.2280   31.6400 C   0  0  0  0  0  0  0  0  0  0  0  0
   35.4400   25.0440   30.8310 C   0  0  0  0  0  0  0  0  0  0  0  0
   35.4350   26.3870   31.1560 C   0  0  0  0  0  0  0  0  0  0  0  0
   36.1790   26.8540   32.1850 N   0  0  0  0  0  0  0  0  0  0  0  0
   36.9560   26.0490   32.9440 C   0  0  0  0  0  0  0  0  0  0  0  0
   36.9920   24.7140   32.6620 N   0  0  0  0  0  0  0  0  0  0  0  0
   34.8580   24.6640   30.0210 H   0  0  0  0  0  0  0  0  0  0  0  0
   34.8340   27.1050   30.5920 H   0  0  0  0  0  0  0  0  0  0  0  0
   36.3110   22.7590   31.3060 C   0  0  0  0  0  0  0  0  0  0  0  0
   36.7940   21.7910   32.2870 C   0  0  0  0  0  0  0  0  0  0  0  0
   35.3090   21.9460   32.1110 C   0  0  0  0  0  0  0  0  0  0  0  0
   36.3110   22.5800   30.2110 H   0  0  0  0  0  0  0  0  0  0  0  0
   37.1620   22.1970   33.2770 H   0  0  0  0  0  0  0  0  0  0  0  0
   37.2370   20.8380   32.0130 H   0  0  0  0  0  0  0  0  0  0  0  0
   34.7500   21.2030   31.5100 H   0  0  0  0  0  0  0  0  0  0  0  0
   34.6990   22.4330   32.8740 H   0  0  0  0  0  0  0  0  0  0  0  0
   37.7600   26.5510   34.0560 C   0  0  0  0  0  0  0  0  0  0  0  0
   39.0550   26.3020   34.3980 N   0  0  0  0  0  0  0  0  0  0  0  0
   39.3380   27.0160   35.5250 C   0  0  0  0  0  0  0  0  0  0  0  0
   40.2910   27.0390   36.0590 H   0  0  0  0  0  0  0  0  0  0  0  0
   38.2060   27.7010   35.8670 N   0  0  0  0  0  0  0  0  0  0  0  0
   38.0650   28.3460   36.6770 H   0  0  0  0  0  0  0  0  0  0  0  0
   37.2470   27.4210   34.9770 N   0  0  0  0  0  0  0  0  0  0  0  0
  1  6  1  0  0  0  0
  2  3  1  0  0  0  0
  2  1  2  0  0  0  0
  3  4  2  0  0  0  0
  4  5  1  0  0  0  0
  5 17  1  0  0  0  0
  6  5  2  0  0  0  0
  7  2  1  0  0  0  0
  8  3  1  0  0  0  0
  9  1  1  0  0  0  0
  9 11  1  0  0  0  0
  9 10  1  0  0  0  0
 10 13  1  0  0  0  0
 11 10  1  0  0  0  0
 11 16  1  0  0  0  0
 12  9  1  0  0  0  0
 14 10  1  0  0  0  0
 15 11  1  0  0  0  0
 17 18  1  0  0  0  0
 17 23  2  0  0  0  0
 18 19  2  0  0  0  0
 19 21  1  0  0  0  0
 19 20  1  0  0  0  0
 21 22  1  0  0  0  0
 23 21  1  0  0  0  0
M  END
>  <minimizedAffinity>
-4.05821609

$$$$
