
 OpenBabel03272505093D

 27 29  0  0  0  0  0  0  0  0999 V2000
   36.4010   30.8810   45.8090 Cl  0  0  0  0  0  0  0  0  0  0  0  0
   36.7420   30.8430   47.5210 C   0  0  0  0  0  0  0  0  0  0  0  0
   38.0020   31.1960   47.9000 C   0  0  0  0  0  0  0  0  0  0  0  0
   38.2950   31.1730   49.2650 C   0  0  0  0  0  0  0  0  0  0  0  0
   37.3230   30.8010   50.1670 C   0  0  0  0  0  0  0  0  0  0  0  0
   36.0780   30.4590   49.7130 C   0  0  0  0  0  0  0  0  0  0  0  0
   35.7350   30.4640   48.3960 C   0  0  0  0  0  0  0  0  0  0  0  0
   39.2850   31.4470   49.5920 H   0  0  0  0  0  0  0  0  0  0  0  0
   37.5830   30.7940   51.2170 H   0  0  0  0  0  0  0  0  0  0  0  0
   35.3220   30.1690   50.4320 H   0  0  0  0  0  0  0  0  0  0  0  0
   40.2500   33.3070   45.9410 C   0  0  0  0  0  0  0  0  0  0  0  0
   40.9220   32.3940   45.0920 C   0  0  0  0  0  0  0  0  0  0  0  0
   40.5770   31.0450   45.2150 C   0  0  0  0  0  0  0  0  0  0  0  0
   39.6320   30.6830   46.1300 N   0  0  0  0  0  0  0  0  0  0  0  0
   39.0240   31.5900   46.9130 C   0  0  0  0  0  0  0  0  0  0  0  0
   39.3400   32.8740   46.8060 N   0  0  0  0  0  0  0  0  0  0  0  0
   40.4810   34.3510   45.8810 H   0  0  0  0  0  0  0  0  0  0  0  0
   41.6660   32.7450   44.3830 H   0  0  0  0  0  0  0  0  0  0  0  0
   41.0680   30.3140   44.5830 H   0  0  0  0  0  0  0  0  0  0  0  0
   34.1220   30.0250   47.7540 S   0  0  0  0  0  0  0  0  0  0  0  0
   34.0100   28.2620   47.4980 C   0  0  0  0  0  0  0  0  0  0  0  0
   33.8750   27.8680   46.2200 N   0  0  0  0  0  0  0  0  0  0  0  0
   33.7990   26.5320   46.1320 C   0  0  0  0  0  0  0  0  0  0  0  0
   33.6880   25.8920   45.2640 H   0  0  0  0  0  0  0  0  0  0  0  0
   33.8920   26.0870   47.3950 N   0  0  0  0  0  0  0  0  0  0  0  0
   33.8790   25.1190   47.7970 H   0  0  0  0  0  0  0  0  0  0  0  0
   34.0200   27.1190   48.2450 N   0  0  0  0  0  0  0  0  0  0  0  0
  1  2  1  0  0  0  0
  2  3  2  0  0  0  0
  2  7  1  0  0  0  0
  3  4  1  0  0  0  0
  4  8  1  0  0  0  0
  4  5  2  0  0  0  0
  5  9  1  0  0  0  0
  6  5  1  0  0  0  0
  6 10  1  0  0  0  0
  7  6  2  0  0  0  0
 11 16  1  0  0  0  0
 12 13  1  0  0  0  0
 12 11  2  0  0  0  0
 13 14  2  0  0  0  0
 14 15  1  0  0  0  0
 15  3  1  0  0  0  0
 16 15  2  0  0  0  0
 17 11  1  0  0  0  0
 18 12  1  0  0  0  0
 19 13  1  0  0  0  0
 20  7  1  0  0  0  0
 21 20  1  0  0  0  0
 21 27  2  0  0  0  0
 22 21  1  0  0  0  0
 23 22  2  0  0  0  0
 23 25  1  0  0  0  0
 24 23  1  0  0  0  0
 25 26  1  0  0  0  0
 25 27  1  0  0  0  0
M  END
>  <minimizedAffinity>
-5.29520512

>  <minimizedRMSD>
0.812304854

$$$$
