
 OpenBabel03272509393D

 33 35  0  0  0  0  0  0  0  0999 V2000
   37.0490   30.9570   49.0790 C   0  0  0  0  0  0  0  0  0  0  0  0
   36.7900   31.9040   50.0730 C   0  0  0  0  0  0  0  0  0  0  0  0
   37.4050   33.1480   50.0890 C   0  0  0  0  0  0  0  0  0  0  0  0
   38.3180   33.4730   49.0780 C   0  0  0  0  0  0  0  0  0  0  0  0
   38.5600   32.5370   48.1130 C   0  0  0  0  0  0  0  0  0  0  0  0
   37.9330   31.3040   48.1220 C   0  0  0  0  0  0  0  0  0  0  0  0
   36.0790   31.6360   50.8510 H   0  0  0  0  0  0  0  0  0  0  0  0
   37.1350   33.8060   50.9030 H   0  0  0  0  0  0  0  0  0  0  0  0
   38.7760   34.4440   49.1190 H   0  0  0  0  0  0  0  0  0  0  0  0
   39.2770   32.8720   47.3740 H   0  0  0  0  0  0  0  0  0  0  0  0
   36.3600   29.6800   49.1420 C   0  0  0  0  0  0  0  0  0  0  0  0
   36.8840   28.8340   49.9510 O   0  0  0  0  0  0  0  0  0  0  0  0
   33.6070   30.1360   46.8300 C   0  0  0  0  0  0  0  0  0  0  0  0
   32.9470   28.9210   46.8370 C   0  0  0  0  0  0  0  0  0  0  0  0
   33.4460   27.9090   47.6520 C   0  0  0  0  0  0  0  0  0  0  0  0
   34.5560   28.1570   48.4010 N   0  0  0  0  0  0  0  0  0  0  0  0
   35.1630   29.3360   48.3680 C   0  0  0  0  0  0  0  0  0  0  0  0
   34.6800   30.3200   47.5780 N   0  0  0  0  0  0  0  0  0  0  0  0
   33.1760   30.8990   46.1740 H   0  0  0  0  0  0  0  0  0  0  0  0
   32.0620   28.6620   46.2650 H   0  0  0  0  0  0  0  0  0  0  0  0
   33.0550   26.9070   47.7750 H   0  0  0  0  0  0  0  0  0  0  0  0
   38.3060   30.4320   47.0280 C   0  0  0  0  0  3  0  0  0  0  0  0
   38.9000   30.7930   45.8990 C   0  0  0  0  0  3  0  0  0  0  0  0
   39.3360   30.0310   44.7200 C   0  0  0  0  0  0  0  0  0  0  0  0
   38.5890   29.2350   44.5020 H   0  0  0  0  0  0  0  0  0  0  0  0
   40.2950   29.4920   44.8550 H   0  0  0  0  0  0  0  0  0  0  0  0
   39.4640   30.8940   43.5130 C   0  0  0  0  0  0  0  0  0  0  0  0
   38.9520   32.1250   43.2900 N   0  0  0  0  0  0  0  0  0  0  0  0
   39.3370   32.5060   42.0500 C   0  0  0  0  0  0  0  0  0  0  0  0
   39.1940   33.3750   41.4230 H   0  0  0  0  0  0  0  0  0  0  0  0
   40.0780   31.4990   41.5420 N   0  0  0  0  0  0  0  0  0  0  0  0
   40.5780   31.3560   40.6180 H   0  0  0  0  0  0  0  0  0  0  0  0
   40.1630   30.5150   42.4180 N   0  0  0  0  0  0  0  0  0  0  0  0
  1 11  1  0  0  0  0
  1  2  1  0  0  0  0
  2  3  2  0  0  0  0
  2  7  1  0  0  0  0
  3  8  1  0  0  0  0
  4  9  1  0  0  0  0
  4  3  1  0  0  0  0
  5  6  1  0  0  0  0
  5  4  2  0  0  0  0
  6  1  2  0  0  0  0
 10  5  1  0  0  0  0
 11 12  2  0  0  0  0
 13 14  2  0  0  0  0
 13 18  1  0  0  0  0
 14 15  1  0  0  0  0
 15 21  1  0  0  0  0
 15 16  2  0  0  0  0
 17 16  1  0  0  0  0
 17 11  1  0  0  0  0
 18 17  2  0  0  0  0
 19 13  1  0  0  0  0
 20 14  1  0  0  0  0
 22  6  1  0  0  0  0
 23 22  2  0  0  0  0
 24 26  1  0  0  0  0
 24 23  1  0  0  0  0
 25 24  1  0  0  0  0
 27 24  1  0  0  0  0
 28 27  1  0  0  0  0
 29 28  2  0  0  0  0
 30 29  1  0  0  0  0
 31 29  1  0  0  0  0
 31 33  1  0  0  0  0
 32 31  1  0  0  0  0
 33 27  2  0  0  0  0
M  END
>  <minimizedAffinity>
-5.81791973

>  <minimizedRMSD>
1.44663584

$$$$
