
 OpenBabel03272510133D

 39 42  0  0  0  0  0  0  0  0999 V2000
   38.4130   31.3130   48.7090 C   0  0  0  0  0  0  0  0  0  0  0  0
   38.4350   32.5170   49.3750 C   0  0  0  0  0  0  0  0  0  0  0  0
   39.0150   33.4490   48.5090 C   0  0  0  0  0  0  0  0  0  0  0  0
   39.3150   32.7950   47.3820 N   0  0  0  0  0  0  0  0  0  0  0  0
   38.9600   31.5570   47.5130 N   0  0  0  0  0  0  0  0  0  0  0  0
   38.1260   32.8770   50.3480 H   0  0  0  0  0  0  0  0  0  0  0  0
   39.2120   34.5140   48.6610 H   0  0  0  0  0  0  0  0  0  0  0  0
   39.9330   33.3620   46.2190 C   0  0  0  0  0  0  0  0  0  0  0  0
   40.5740   34.2000   46.5550 H   0  0  0  0  0  0  0  0  0  0  0  0
   39.1760   33.8570   45.5440 H   0  0  0  0  0  0  0  0  0  0  0  0
   40.7070   32.3170   45.5030 C   0  0  0  0  0  0  0  0  0  0  0  0
   41.7810   32.6290   45.5400 H   0  0  0  0  0  0  0  0  0  0  0  0
   40.6900   31.4020   46.1710 H   0  0  0  0  0  0  0  0  0  0  0  0
   40.3460   31.9830   44.1480 C   0  0  0  0  0  0  0  0  0  0  0  0
   40.6820   30.7880   43.5790 N   0  0  0  0  0  0  0  0  0  0  0  0
   40.2310   30.7160   42.3180 C   0  0  0  0  0  0  0  0  0  0  0  0
   40.3310   29.9080   41.6060 H   0  0  0  0  0  0  0  0  0  0  0  0
   39.5970   31.8730   42.0720 N   0  0  0  0  0  0  0  0  0  0  0  0
   39.1090   32.2200   41.2230 H   0  0  0  0  0  0  0  0  0  0  0  0
   39.6760   32.6080   43.1620 N   0  0  0  0  0  0  0  0  0  0  0  0
   37.8680   30.2660   49.4240 O   0  0  0  0  0  0  0  0  0  0  0  0
   34.0720   28.8280   48.3180 C   0  0  0  0  0  0  0  0  0  0  0  0
   34.6930   28.3870   49.4450 C   0  0  0  0  0  0  0  0  0  0  0  0
   35.9260   28.8110   49.8650 C   0  0  0  0  0  0  0  0  0  0  0  0
   36.6200   29.7310   49.1480 C   0  0  0  0  0  0  0  0  0  0  0  0
   35.9980   30.1940   47.9890 C   0  0  0  0  0  0  0  0  0  0  0  0
   34.7800   29.7550   47.6030 N   0  0  0  0  0  0  0  0  0  0  0  0
   34.2110   27.6560   50.0740 H   0  0  0  0  0  0  0  0  0  0  0  0
   36.4120   28.4500   50.7700 H   0  0  0  0  0  0  0  0  0  0  0  0
   36.4730   30.9330   47.3440 H   0  0  0  0  0  0  0  0  0  0  0  0
   31.9180   27.6220   48.6430 C   0  0  0  0  0  0  0  0  0  0  0  0
   32.7870   28.3940   47.8660 C   0  0  0  0  0  0  0  0  0  0  0  0
   32.3540   28.7360   46.6030 C   0  0  0  0  0  0  0  0  0  0  0  0
   31.1260   28.3210   46.1660 N   0  0  0  0  0  0  0  0  0  0  0  0
   30.3250   27.5740   46.9630 C   0  0  0  0  0  0  0  0  0  0  0  0
   30.7050   27.2100   48.2160 N   0  0  0  0  0  0  0  0  0  0  0  0
   32.2120   27.3300   49.6390 H   0  0  0  0  0  0  0  0  0  0  0  0
   33.0000   29.3370   45.9650 H   0  0  0  0  0  0  0  0  0  0  0  0
   29.3740   27.3020   46.5120 H   0  0  0  0  0  0  0  0  0  0  0  0
  1  2  1  0  0  0  0
  1 21  1  0  0  0  0
  2  6  1  0  0  0  0
  3  7  1  0  0  0  0
  3  2  2  0  0  0  0
  4  5  1  0  0  0  0
  4  3  1  0  0  0  0
  5  1  2  0  0  0  0
  8  9  1  0  0  0  0
  8  4  1  0  0  0  0
 10  8  1  0  0  0  0
 11 12  1  0  0  0  0
 11 13  1  0  0  0  0
 11  8  1  0  0  0  0
 14 11  1  0  0  0  0
 15 14  1  0  0  0  0
 16 15  2  0  0  0  0
 17 16  1  0  0  0  0
 18 16  1  0  0  0  0
 18 20  1  0  0  0  0
 19 18  1  0  0  0  0
 20 14  2  0  0  0  0
 22 23  1  0  0  0  0
 23 24  2  0  0  0  0
 23 28  1  0  0  0  0
 24 29  1  0  0  0  0
 25 21  1  0  0  0  0
 25 24  1  0  0  0  0
 26 25  2  0  0  0  0
 27 26  1  0  0  0  0
 27 22  2  0  0  0  0
 30 26  1  0  0  0  0
 31 37  1  0  0  0  0
 32 22  1  0  0  0  0
 32 31  2  0  0  0  0
 33 32  1  0  0  0  0
 34 33  2  0  0  0  0
 34 35  1  0  0  0  0
 35 36  2  0  0  0  0
 36 31  1  0  0  0  0
 38 33  1  0  0  0  0
 39 35  1  0  0  0  0
M  END
>  <minimizedAffinity>
-6.16920376

>  <minimizedRMSD>
1.20534515

$$$$
