
 OpenBabel03272508103D

 32 34  0  0  0  0  0  0  0  0999 V2000
   36.6270   29.5920   44.1170 Cl  0  0  0  0  0  0  0  0  0  0  0  0
   38.2590   29.9390   43.5190 C   0  0  0  0  0  0  0  0  0  0  0  0
   39.3010   30.3860   44.3370 C   0  0  0  0  0  0  0  0  0  0  0  0
   40.5350   30.6230   43.7440 C   0  0  0  0  0  0  0  0  0  0  0  0
   40.7170   30.4220   42.4000 C   0  0  0  0  0  0  0  0  0  0  0  0
   39.7050   29.9840   41.5860 C   0  0  0  0  0  0  0  0  0  0  0  0
   38.4860   29.7460   42.1510 C   0  0  0  0  0  0  0  0  0  0  0  0
   41.2650   30.9650   44.4710 H   0  0  0  0  0  0  0  0  0  0  0  0
   41.7140   30.6350   42.0400 H   0  0  0  0  0  0  0  0  0  0  0  0
   39.8710   29.8320   40.5270 H   0  0  0  0  0  0  0  0  0  0  0  0
   37.3900   29.2780   41.3010 C   0  0  0  0  0  0  0  0  0  0  0  0
   37.1430   27.9770   41.0600 N   0  0  0  0  0  0  0  0  0  0  0  0
   36.0620   27.8740   40.2360 C   0  0  0  0  0  0  0  0  0  0  0  0
   35.5650   26.9880   39.8240 H   0  0  0  0  0  0  0  0  0  0  0  0
   35.6500   29.1510   39.9770 N   0  0  0  0  0  0  0  0  0  0  0  0
   34.8400   29.4860   39.3760 H   0  0  0  0  0  0  0  0  0  0  0  0
   36.4690   29.9900   40.6310 N   0  0  0  0  0  0  0  0  0  0  0  0
   38.9310   30.5260   45.6400 O   0  0  0  0  0  0  0  0  0  0  0  0
   39.4610   32.5290   47.1660 O   0  0  0  0  0  0  0  0  0  0  0  0
   38.3400   31.8690   46.4430 P   0  0  1  0  0  0  0  0  0  0  0  0
   37.7740   32.9060   45.2130 O   0  0  0  0  0  0  0  0  0  0  0  0
   38.5230   33.4940   44.9690 H   0  0  0  0  0  0  0  0  0  0  0  0
   37.0510   31.4020   47.4440 O   0  0  0  0  0  0  0  0  0  0  0  0
   37.6010   30.5320   50.9850 C   0  0  0  0  0  0  0  0  0  0  0  0
   37.7130   31.3070   49.8280 C   0  0  0  0  0  0  0  0  0  0  0  0
   37.0880   30.8440   48.6680 C   0  0  0  0  0  0  0  0  0  0  0  0
   36.4040   29.6570   48.7310 N   0  0  0  0  0  0  0  0  0  0  0  0
   36.3210   28.9400   49.8690 C   0  0  0  0  0  0  0  0  0  0  0  0
   36.9180   29.3770   50.9920 N   0  0  0  0  0  0  0  0  0  0  0  0
   38.1180   30.9610   51.8550 H   0  0  0  0  0  0  0  0  0  0  0  0
   38.2270   32.2360   49.7060 H   0  0  0  0  0  0  0  0  0  0  0  0
   35.7870   28.0050   49.9380 H   0  0  0  0  0  0  0  0  0  0  0  0
  2  1  1  0  0  0  0
  2  3  1  0  0  0  0
  3 18  1  0  0  0  0
  4  3  2  0  0  0  0
  4  8  1  0  0  0  0
  5  4  1  0  0  0  0
  6  7  1  0  0  0  0
  6  5  2  0  0  0  0
  7  2  2  0  0  0  0
  9  5  1  0  0  0  0
 10  6  1  0  0  0  0
 11  7  1  0  0  0  0
 12 11  1  0  0  0  0
 13 12  2  0  0  0  0
 14 13  1  0  0  0  0
 15 13  1  0  0  0  0
 15 17  1  0  0  0  0
 16 15  1  0  0  0  0
 17 11  2  0  0  0  0
 18 20  1  0  0  0  0
 20 19  2  1  0  0  0
 20 23  1  0  0  0  0
 21 20  1  0  0  0  0
 22 21  1  0  0  0  0
 23 26  1  0  0  0  0
 24 29  1  0  0  0  0
 24 30  1  0  0  0  0
 25 24  2  0  0  0  0
 26 27  2  0  0  0  0
 26 25  1  0  0  0  0
 27 28  1  0  0  0  0
 28 32  1  0  0  0  0
 28 29  2  0  0  0  0
 31 25  1  0  0  0  0
M  END
>  <minimizedAffinity>
-4.82702208

>  <minimizedRMSD>
0.546306014

$$$$
