
 OpenBabel03272505093D

 27 29  0  0  0  0  0  0  0  0999 V2000
   36.3910   30.7860   45.6620 Cl  0  0  0  0  0  0  0  0  0  0  0  0
   36.6710   30.7110   47.3840 C   0  0  0  0  0  0  0  0  0  0  0  0
   37.9080   31.0830   47.8180 C   0  0  0  0  0  0  0  0  0  0  0  0
   38.1520   31.0300   49.1920 C   0  0  0  0  0  0  0  0  0  0  0  0
   37.1570   30.6140   50.0480 C   0  0  0  0  0  0  0  0  0  0  0  0
   35.9370   30.2560   49.5400 C   0  0  0  0  0  0  0  0  0  0  0  0
   35.6420   30.2870   48.2110 C   0  0  0  0  0  0  0  0  0  0  0  0
   39.1220   31.3180   49.5610 H   0  0  0  0  0  0  0  0  0  0  0  0
   37.3780   30.5850   51.1060 H   0  0  0  0  0  0  0  0  0  0  0  0
   35.1620   29.9300   50.2240 H   0  0  0  0  0  0  0  0  0  0  0  0
   40.1820   33.2930   46.0030 C   0  0  0  0  0  0  0  0  0  0  0  0
   40.8980   32.4190   45.1500 C   0  0  0  0  0  0  0  0  0  0  0  0
   40.5750   31.0600   45.2210 C   0  0  0  0  0  0  0  0  0  0  0  0
   39.6060   30.6540   46.0900 N   0  0  0  0  0  0  0  0  0  0  0  0
   38.9550   31.5250   46.8790 C   0  0  0  0  0  0  0  0  0  0  0  0
   39.2510   32.8170   46.8230 N   0  0  0  0  0  0  0  0  0  0  0  0
   40.3950   34.3420   45.9830 H   0  0  0  0  0  0  0  0  0  0  0  0
   41.6600   32.8040   44.4780 H   0  0  0  0  0  0  0  0  0  0  0  0
   41.1000   30.3580   44.5840 H   0  0  0  0  0  0  0  0  0  0  0  0
   34.0640   29.8290   47.5010 S   0  0  0  0  0  0  0  0  0  0  0  0
   33.9500   28.0560   47.3230 C   0  0  0  0  0  0  0  0  0  0  0  0
   33.8760   27.6030   46.0580 N   0  0  0  0  0  0  0  0  0  0  0  0
   33.7930   26.2650   46.0290 C   0  0  0  0  0  0  0  0  0  0  0  0
   33.7220   25.5860   45.1880 H   0  0  0  0  0  0  0  0  0  0  0  0
   33.8160   25.8790   47.3150 N   0  0  0  0  0  0  0  0  0  0  0  0
   33.7750   24.9310   47.7600 H   0  0  0  0  0  0  0  0  0  0  0  0
   33.9110   26.9490   48.1210 N   0  0  0  0  0  0  0  0  0  0  0  0
  1  2  1  0  0  0  0
  2  3  2  0  0  0  0
  2  7  1  0  0  0  0
  3  4  1  0  0  0  0
  4  8  1  0  0  0  0
  4  5  2  0  0  0  0
  5  9  1  0  0  0  0
  6  5  1  0  0  0  0
  6 10  1  0  0  0  0
  7  6  2  0  0  0  0
 11 16  1  0  0  0  0
 12 13  1  0  0  0  0
 12 11  2  0  0  0  0
 13 14  2  0  0  0  0
 14 15  1  0  0  0  0
 15  3  1  0  0  0  0
 16 15  2  0  0  0  0
 17 11  1  0  0  0  0
 18 12  1  0  0  0  0
 19 13  1  0  0  0  0
 20  7  1  0  0  0  0
 21 20  1  0  0  0  0
 21 27  2  0  0  0  0
 22 21  1  0  0  0  0
 23 22  2  0  0  0  0
 23 25  1  0  0  0  0
 24 23  1  0  0  0  0
 25 26  1  0  0  0  0
 25 27  1  0  0  0  0
M  END
>  <minimizedAffinity>
-5.29719067

>  <minimizedRMSD>
0.918458164

$$$$
