
     RDKit          3D

 44 48  0  0  0  0  0  0  0  0999 V2000
   38.0825   31.3025   47.7765 C   0  0  0  0  0  0  0  0  0  0  0  0
   37.0869   31.3104   48.7319 C   0  0  0  0  0  0  0  0  0  0  0  0
   37.1213   32.4108   49.5886 C   0  0  0  0  0  0  0  0  0  0  0  0
   38.0926   33.4101   49.4707 C   0  0  0  0  0  0  0  0  0  0  0  0
   39.0766   33.3135   48.4546 C   0  0  0  0  0  0  0  0  0  0  0  0
   39.0549   32.2243   47.5948 C   0  0  0  0  0  0  0  0  0  0  0  0
   34.9667   30.3065   48.0496 C   0  0  0  0  0  0  0  0  0  0  0  0
   36.0923   30.2910   48.8559 C   0  0  0  0  0  0  0  0  0  0  0  0
   36.2063   29.2417   49.7858 C   0  0  0  0  0  0  0  0  0  0  0  0
   35.2269   28.3183   49.8427 N   0  0  0  0  0  0  0  0  0  0  0  0
   34.1363   28.3755   49.0273 C   0  0  0  0  0  0  0  0  0  0  0  0
   34.0139   29.3617   48.1427 N   0  0  0  0  0  0  0  0  0  0  0  0
   37.3992   29.1716   50.6838 C   0  0  0  0  0  0  0  0  0  0  0  0
   38.1338   30.2342   46.8639 O   0  0  0  0  0  0  0  0  0  0  0  0
   40.0332   32.1839   46.6295 O   0  0  0  0  0  0  0  0  0  0  0  0
   40.5678   31.1777   44.4117 C   0  0  0  0  0  0  0  0  0  0  0  0
   39.8562   31.9837   45.2939 C   0  0  0  0  0  0  0  0  0  0  0  0
   38.7923   32.7237   44.8070 C   0  0  0  0  0  0  0  0  0  0  0  0
   38.4328   32.6652   43.4443 C   0  0  0  0  0  0  0  0  0  0  0  0
   37.4857   33.2408   42.6883 N   0  0  0  0  0  0  0  0  0  0  0  0
   37.5881   32.8287   41.4117 C   0  0  0  0  0  0  0  0  0  0  0  0
   38.6342   31.9660   41.3663 N   0  0  0  0  0  0  0  0  0  0  0  0
   39.1715   31.8484   42.6064 C   0  0  0  0  0  0  0  0  0  0  0  0
   40.2250   31.1148   43.0853 C   0  0  0  0  0  0  0  0  0  0  0  0
   36.3870   32.5230   50.3794 H   0  0  0  0  0  0  0  0  0  0  0  0
   38.1133   34.2621   50.1397 H   0  0  0  0  0  0  0  0  0  0  0  0
   39.8198   34.0787   48.3648 H   0  0  0  0  0  0  0  0  0  0  0  0
   34.8114   31.0853   47.3095 H   0  0  0  0  0  0  0  0  0  0  0  0
   33.4726   27.5323   49.2420 H   0  0  0  0  0  0  0  0  0  0  0  0
   37.2469   29.7755   51.6082 H   0  0  0  0  0  0  0  0  0  0  0  0
   37.6279   28.1255   50.8873 H   0  0  0  0  0  0  0  0  0  0  0  0
   38.2558   29.6196   50.1018 H   0  0  0  0  0  0  0  0  0  0  0  0
   37.5909   30.3586   46.0067 H   0  0  0  0  0  0  0  0  0  0  0  0
   41.3770   30.6417   44.8864 H   0  0  0  0  0  0  0  0  0  0  0  0
   38.1384   33.4003   45.3686 H   0  0  0  0  0  0  0  0  0  0  0  0
   36.7601   33.9245   43.0510 H   0  0  0  0  0  0  0  0  0  0  0  0
   36.9230   33.1697   40.6352 H   0  0  0  0  0  0  0  0  0  0  0  0
   41.0127   30.2487   42.2105 C   0  0  0  0  0  0  0  0  0  0  0  0
   40.4986   29.6392   41.1160 N   0  0  0  0  0  0  0  0  0  0  0  0
   41.4577   28.9089   40.5106 C   0  0  0  0  0  0  0  0  0  0  0  0
   41.3986   28.2965   39.6159 H   0  0  0  0  0  0  0  0  0  0  0  0
   42.5647   29.1036   41.2830 N   0  0  0  0  0  0  0  0  0  0  0  0
   43.4807   28.6311   41.0237 H   0  0  0  0  0  0  0  0  0  0  0  0
   42.3039   29.9041   42.3009 N   0  0  0  0  0  0  0  0  0  0  0  0
  1  2  2  0
  2  8  1  0
  2  3  1  0
  4  3  2  0
  5  4  1  0
  6  1  1  0
  6  5  2  0
  7 12  2  0
  7  8  1  0
  8  9  2  0
  9 10  1  0
  9 13  1  0
 11 10  2  0
 12 11  1  0
 14  1  1  0
 15  6  1  0
 16 17  2  0
 17 15  1  0
 18 17  1  0
 19 18  2  0
 20 19  1  0
 21 20  1  0
 22 21  2  0
 22 23  1  0
 23 24  2  0
 23 19  1  0
 24 16  1  0
  3 25  1  0
  4 26  1  0
  5 27  1  0
  7 28  1  0
 11 29  1  0
 13 30  1  0
 13 31  1  0
 13 32  1  0
 14 33  1  0
 16 34  1  0
 18 35  1  0
 20 36  1  0
 21 37  1  0
 38 39  1  0
 39 40  2  0
 40 41  1  0
 40 42  1  0
 42 43  1  0
 42 44  1  0
 44 38  2  0
 24 38  1  0
M  ISO  8  25  14  26  14  27  14  28  14  29  14  30   8  31   8  32   8
M  ISO  7  33   3  34  14  35  14  36   9  37  14  41  14  43   9
M  END
>  <DihAtoms>  (1) 
22,23,37,38

>  <DihDeg>  (1) 
-179.99945779490957

$$$$
