
 OpenBabel03272510133D

 39 42  0  0  0  0  0  0  0  0999 V2000
   38.1820   31.5470   48.8450 C   0  0  0  0  0  0  0  0  0  0  0  0
   38.4710   32.7980   49.3420 C   0  0  0  0  0  0  0  0  0  0  0  0
   39.1630   33.4820   48.3370 C   0  0  0  0  0  0  0  0  0  0  0  0
   39.2640   32.6470   47.2980 N   0  0  0  0  0  0  0  0  0  0  0  0
   38.6900   31.5280   47.6070 N   0  0  0  0  0  0  0  0  0  0  0  0
   38.2960   33.3290   50.2670 H   0  0  0  0  0  0  0  0  0  0  0  0
   39.5660   34.4990   48.3370 H   0  0  0  0  0  0  0  0  0  0  0  0
   39.9060   32.9330   46.0480 C   0  0  0  0  0  0  0  0  0  0  0  0
   40.5430   33.8260   46.1950 H   0  0  0  0  0  0  0  0  0  0  0  0
   39.1630   33.2590   45.2640 H   0  0  0  0  0  0  0  0  0  0  0  0
   40.6890   31.7520   45.6060 C   0  0  0  0  0  0  0  0  0  0  0  0
   41.6940   32.1300   45.2940 H   0  0  0  0  0  0  0  0  0  0  0  0
   40.9260   31.1630   46.5450 H   0  0  0  0  0  0  0  0  0  0  0  0
   40.1500   30.8990   44.5750 C   0  0  0  0  0  0  0  0  0  0  0  0
   40.5660   30.9730   43.2770 N   0  0  0  0  0  0  0  0  0  0  0  0
   39.9200   30.0780   42.5180 C   0  0  0  0  0  0  0  0  0  0  0  0
   40.0230   29.8880   41.4570 H   0  0  0  0  0  0  0  0  0  0  0  0
   39.0800   29.4200   43.3310 N   0  0  0  0  0  0  0  0  0  0  0  0
   38.4050   28.6530   43.1440 H   0  0  0  0  0  0  0  0  0  0  0  0
   39.2300   29.9180   44.5410 N   0  0  0  0  0  0  0  0  0  0  0  0
   37.4930   30.7250   49.7130 O   0  0  0  0  0  0  0  0  0  0  0  0
   33.9670   28.8500   48.3910 C   0  0  0  0  0  0  0  0  0  0  0  0
   34.7210   28.3130   49.3880 C   0  0  0  0  0  0  0  0  0  0  0  0
   35.8780   28.8680   49.8670 C   0  0  0  0  0  0  0  0  0  0  0  0
   36.3500   30.0300   49.3510 C   0  0  0  0  0  0  0  0  0  0  0  0
   35.5890   30.5950   48.3270 C   0  0  0  0  0  0  0  0  0  0  0  0
   34.4520   30.0210   47.8780 N   0  0  0  0  0  0  0  0  0  0  0  0
   34.4170   27.3890   49.8550 H   0  0  0  0  0  0  0  0  0  0  0  0
   36.4720   28.4280   50.6660 H   0  0  0  0  0  0  0  0  0  0  0  0
   35.8850   31.5280   47.8460 H   0  0  0  0  0  0  0  0  0  0  0  0
   31.9470   27.4100   48.6110 C   0  0  0  0  0  0  0  0  0  0  0  0
   32.7590   28.2810   47.8790 C   0  0  0  0  0  0  0  0  0  0  0  0
   32.3470   28.5870   46.6000 C   0  0  0  0  0  0  0  0  0  0  0  0
   31.1930   28.0440   46.1060 N   0  0  0  0  0  0  0  0  0  0  0  0
   30.4450   27.2040   46.8620 C   0  0  0  0  0  0  0  0  0  0  0  0
   30.8070   26.8710   48.1280 N   0  0  0  0  0  0  0  0  0  0  0  0
   32.2280   27.1410   49.6180 H   0  0  0  0  0  0  0  0  0  0  0  0
   32.9500   29.2630   45.9960 H   0  0  0  0  0  0  0  0  0  0  0  0
   29.5510   26.8340   46.3660 H   0  0  0  0  0  0  0  0  0  0  0  0
  1  2  1  0  0  0  0
  1 21  1  0  0  0  0
  2  6  1  0  0  0  0
  3  2  2  0  0  0  0
  4  5  1  0  0  0  0
  4  3  1  0  0  0  0
  5  1  2  0  0  0  0
  7  3  1  0  0  0  0
  8  9  1  0  0  0  0
  8  4  1  0  0  0  0
 10  8  1  0  0  0  0
 11  8  1  0  0  0  0
 11 13  1  0  0  0  0
 12 11  1  0  0  0  0
 14 11  1  0  0  0  0
 15 14  1  0  0  0  0
 16 15  2  0  0  0  0
 16 18  1  0  0  0  0
 17 16  1  0  0  0  0
 18 20  1  0  0  0  0
 19 18  1  0  0  0  0
 20 14  2  0  0  0  0
 22 23  1  0  0  0  0
 23 28  1  0  0  0  0
 23 24  2  0  0  0  0
 24 29  1  0  0  0  0
 25 21  1  0  0  0  0
 25 24  1  0  0  0  0
 26 25  2  0  0  0  0
 27 26  1  0  0  0  0
 27 22  2  0  0  0  0
 30 26  1  0  0  0  0
 31 37  1  0  0  0  0
 32 22  1  0  0  0  0
 32 31  2  0  0  0  0
 33 32  1  0  0  0  0
 34 33  2  0  0  0  0
 34 35  1  0  0  0  0
 35 36  2  0  0  0  0
 36 31  1  0  0  0  0
 38 33  1  0  0  0  0
 39 35  1  0  0  0  0
M  END
>  <minimizedAffinity>
-5.98214388

>  <minimizedRMSD>
0.59579885

$$$$
