REMARK  Name = 
REMARK  3 active torsions:
REMARK  status: ('A' for Active; 'I' for Inactive)
REMARK    1  A    between atoms: C_2  and  C_12
REMARK    2  A    between atoms: C_6  and  O_16
REMARK    3  A    between atoms: O_16  and  C_24
REMARK                            x       y       z     vdW  Elec       q    Type
REMARK                         _______ _______ _______ _____ _____    ______ ____
ROOT
ATOM      1  C   UNL     1      36.858  30.546  46.911  0.00  0.00    +0.000 A 
ATOM      2  C   UNL     1      37.526  31.045  48.034  0.00  0.00    +0.000 A 
ATOM      3  C   UNL     1      38.509  31.999  47.901  0.00  0.00    +0.000 A 
ATOM      4  C   UNL     1      38.793  32.430  46.596  0.00  0.00    +0.000 A 
ATOM      5  N   UNL     1      39.723  33.362  46.234  0.00  0.00    +0.000 N 
ATOM      6  C   UNL     1      39.651  33.458  44.910  0.00  0.00    +0.000 A 
ATOM      7  N   UNL     1      38.717  32.627  44.418  0.00  0.00    +0.000 NA
ATOM      8  C   UNL     1      38.161  31.967  45.470  0.00  0.00    +0.000 A 
ATOM      9  C   UNL     1      37.171  31.002  45.633  0.00  0.00    +0.000 A 
ATOM     10  H   UNL     1      36.069  29.788  46.951  0.00  0.00    +0.000 HD
ATOM     11  H   UNL     1      39.022  32.382  48.758  0.00  0.00    +0.000 HD
ATOM     12  H   UNL     1      40.364  33.892  46.893  0.00  0.00    +0.000 HD
ATOM     13  H   UNL     1      36.667  30.631  44.748  0.00  0.00    +0.000 HD
ENDROOT
BRANCH   2  16
ATOM     14  C   UNL     1      37.396  30.072  51.664  0.00  0.00    +0.000 A 
ATOM     15  C   UNL     1      37.865  30.627  50.479  0.00  0.00    +0.000 A 
ATOM     16  C   UNL     1      37.123  30.502  49.317  0.00  0.00    +0.000 A 
ATOM     17  N   UNL     1      35.943  29.824  49.402  0.00  0.00    +0.000 NA
ATOM     18  C   UNL     1      35.497  29.287  50.566  0.00  0.00    +0.000 A 
ATOM     19  N   UNL     1      36.210  29.409  51.672  0.00  0.00    +0.000 NA
ATOM     20  H   UNL     1      38.055  30.229  52.511  0.00  0.00    +0.000 HD
ATOM     21  H   UNL     1      38.800  31.166  50.407  0.00  0.00    +0.000 HD
ATOM     22  H   UNL     1      34.539  28.753  50.567  0.00  0.00    +0.000 HD
ENDBRANCH   2  16
BRANCH   6  23
ATOM     23  O   UNL     1      40.453  34.316  44.151  0.00  0.00    +0.000 OA
BRANCH  23  24
ATOM     24  C   UNL     1      40.255  34.297  42.777  0.00  0.00    +0.000 A 
ATOM     25  N   UNL     1      39.621  35.236  42.052  0.00  0.00    +0.000 NA
ATOM     26  C   UNL     1      39.618  34.888  40.748  0.00  0.00    +0.000 A 
ATOM     27  H   UNL     1      39.250  35.293  39.815  0.00  0.00    +0.000 HD
ATOM     28  N   UNL     1      40.276  33.693  40.697  0.00  0.00    +0.000 N 
ATOM     29  H   UNL     1      40.556  32.989  39.953  0.00  0.00    +0.000 HD
ATOM     30  N   UNL     1      40.653  33.347  41.905  0.00  0.00    +0.000 NA
ENDBRANCH  23  24
ENDBRANCH   6  23
TORSDOF 3
