
 OpenBabel03272507193D

 28 30  0  0  1  0  0  0  0  0999 V2000
   37.4650   31.3080   49.3800 C   0  0  0  0  0  0  0  0  0  0  0  0
   38.3860   32.3210   49.6330 C   0  0  0  0  0  0  0  0  0  0  0  0
   38.9130   32.9320   48.4990 C   0  0  0  0  0  0  0  0  0  0  0  0
   38.5300   32.5430   47.2380 N   0  0  0  0  0  0  0  0  0  0  0  0
   37.6270   31.5480   47.0420 C   0  0  0  0  0  0  0  0  0  0  0  0
   37.0880   30.9240   48.1290 N   0  0  0  0  0  0  0  0  0  0  0  0
   38.6690   32.6100   50.6200 H   0  0  0  0  0  0  0  0  0  0  0  0
   39.6390   33.7340   48.5830 H   0  0  0  0  0  0  0  0  0  0  0  0
   36.8690   30.6430   50.5800 C   0  0  1  0  0  0  0  0  0  0  0  0
   36.0700   29.4220   50.4660 C   0  0  2  0  0  0  0  0  0  0  0  0
   37.5080   29.2660   50.8500 C   0  0  0  0  0  0  0  0  0  0  0  0
   36.8530   31.3080   51.4830 H   0  0  0  0  0  0  0  0  0  0  0  0
   35.2370   29.3900   51.2250 H   0  0  0  0  0  0  0  0  0  0  0  0
   38.2110   28.8510   50.1200 H   0  0  0  0  0  0  0  0  0  0  0  0
   37.7100   29.0330   51.9100 H   0  0  0  0  0  0  0  0  0  0  0  0
   35.6640   29.0430   49.1940 O   0  0  0  0  0  0  0  0  0  0  0  0
   34.4530   28.6030   48.7740 C   0  0  0  0  0  0  0  0  0  0  0  0
   34.3190   27.8780   47.7650 O   0  0  0  0  0  0  0  0  0  0  0  0
   33.4740   29.0920   49.6370 N   0  0  0  0  0  0  0  0  0  0  0  0
   33.3350   30.0400   49.9850 H   0  0  0  0  0  0  0  0  0  0  0  0
   32.8150   28.3490   49.9450 H   0  0  0  0  0  0  0  0  0  0  0  0
   37.2840   31.2040   45.6880 C   0  0  0  0  0  0  0  0  0  0  0  0
   37.7040   31.9570   44.6280 N   0  0  0  0  0  0  0  0  0  0  0  0
   37.2510   31.4260   43.4700 C   0  0  0  0  0  0  0  0  0  0  0  0
   37.5170   31.9340   42.5570 H   0  0  0  0  0  0  0  0  0  0  0  0
   36.5450   30.3340   43.8120 N   0  0  0  0  0  0  0  0  0  0  0  0
   36.0950   29.7550   43.0820 H   0  0  0  0  0  0  0  0  0  0  0  0
   36.5600   30.1930   45.1440 N   0  0  0  0  0  0  0  0  0  0  0  0
  1  2  1  0  0  0  0
  1  9  1  0  0  0  0
  2  7  1  0  0  0  0
  3  8  1  0  0  0  0
  3  2  2  0  0  0  0
  4  3  1  0  0  0  0
  5  4  2  0  0  0  0
  5  6  1  0  0  0  0
  6  1  2  0  0  0  0
  9 11  1  0  0  0  0
  9 12  1  1  0  0  0
 10  9  1  0  0  0  0
 10 11  1  0  0  0  0
 10 13  1  1  0  0  0
 11 15  1  0  0  0  0
 14 11  1  0  0  0  0
 16 10  1  0  0  0  0
 17 16  1  0  0  0  0
 17 19  1  0  0  0  0
 18 17  2  0  0  0  0
 19 21  1  0  0  0  0
 19 20  1  0  0  0  0
 22  5  1  0  0  0  0
 23 22  1  0  0  0  0
 24 26  1  0  0  0  0
 24 23  2  0  0  0  0
 25 24  1  0  0  0  0
 26 28  1  0  0  0  0
 27 26  1  0  0  0  0
 28 22  2  0  0  0  0
M  END
>  <minimizedAffinity>
-5.041996

>  <minimizedRMSD>
0.668291807

$$$$
