
 OpenBabel03272509213D

 44 48  0  0  0  0  0  0  0  0999 V2000
   38.0840   31.3920   47.9470 C   0  0  0  0  0  0  0  0  0  0  0  0
   37.1600   31.5240   48.9640 C   0  0  0  0  0  0  0  0  0  0  0  0
   37.2790   32.7020   49.7010 C   0  0  0  0  0  0  0  0  0  0  0  0
   38.2620   33.6560   49.4160 C   0  0  0  0  0  0  0  0  0  0  0  0
   39.1680   33.4310   48.3500 C   0  0  0  0  0  0  0  0  0  0  0  0
   39.0610   32.2630   47.6080 C   0  0  0  0  0  0  0  0  0  0  0  0
   36.6060   32.9130   50.5240 H   0  0  0  0  0  0  0  0  0  0  0  0
   38.3480   34.5690   49.9930 H   0  0  0  0  0  0  0  0  0  0  0  0
   39.9200   34.1620   48.1320 H   0  0  0  0  0  0  0  0  0  0  0  0
   35.0810   30.3690   48.4020 C   0  0  0  0  0  0  0  0  0  0  0  0
   36.1540   30.5510   49.2580 C   0  0  0  0  0  0  0  0  0  0  0  0
   36.2040   29.7460   50.4100 C   0  0  0  0  0  0  0  0  0  0  0  0
   35.2190   28.8510   50.6180 N   0  0  0  0  0  0  0  0  0  0  0  0
   34.1810   28.7080   49.7450 C   0  0  0  0  0  0  0  0  0  0  0  0
   34.1200   29.4630   48.6510 N   0  0  0  0  0  0  0  0  0  0  0  0
   34.9760   30.9540   47.4930 H   0  0  0  0  0  0  0  0  0  0  0  0
   33.5020   27.9310   50.1080 H   0  0  0  0  0  0  0  0  0  0  0  0
   37.3380   29.8970   51.3720 C   0  0  0  0  0  0  0  0  0  0  0  0
   37.1320   30.6970   52.1200 H   0  0  0  0  0  0  0  0  0  0  0  0
   37.5490   28.9280   51.8250 H   0  0  0  0  0  0  0  0  0  0  0  0
   38.2320   30.2070   50.7570 H   0  0  0  0  0  0  0  0  0  0  0  0
   38.0470   30.2380   47.1460 O   0  0  0  0  0  0  0  0  0  0  0  0
   37.4470   30.2940   46.3200 H   0  0  0  0  0  0  0  0  0  0  0  0
   39.9670   32.0990   46.5860 O   0  0  0  0  0  0  0  0  0  0  0  0
   40.2600   30.9130   44.4130 C   0  0  0  0  0  0  0  0  0  0  0  0
   39.6860   31.8380   45.2790 C   0  0  0  0  0  0  0  0  0  0  0  0
   38.6700   32.6500   44.8060 C   0  0  0  0  0  0  0  0  0  0  0  0
   38.2210   32.5460   43.4730 C   0  0  0  0  0  0  0  0  0  0  0  0
   37.2880   33.1670   42.7360 N   0  0  0  0  0  0  0  0  0  0  0  0
   37.2680   32.6710   41.4860 C   0  0  0  0  0  0  0  0  0  0  0  0
   38.2210   31.7060   41.4370 N   0  0  0  0  0  0  0  0  0  0  0  0
   38.8230   31.6100   42.6500 C   0  0  0  0  0  0  0  0  0  0  0  0
   39.8290   30.8050   43.1150 C   0  0  0  0  0  0  0  0  0  0  0  0
   41.0420   30.3280   44.8740 H   0  0  0  0  0  0  0  0  0  0  0  0
   38.1210   33.4210   45.3590 H   0  0  0  0  0  0  0  0  0  0  0  0
   36.6560   33.9410   43.0940 H   0  0  0  0  0  0  0  0  0  0  0  0
   36.5910   33.0290   40.7280 H   0  0  0  0  0  0  0  0  0  0  0  0
   40.4720   29.8130   42.2560 C   0  0  0  0  0  0  0  0  0  0  0  0
   39.8810   28.6460   41.9040 N   0  0  0  0  0  0  0  0  0  0  0  0
   40.7120   27.9400   41.1090 C   0  0  0  0  0  0  0  0  0  0  0  0
   40.5650   26.9680   40.6470 H   0  0  0  0  0  0  0  0  0  0  0  0
   41.8200   28.7250   41.0000 N   0  0  0  0  0  0  0  0  0  0  0  0
   42.6460   28.3980   40.4160 H   0  0  0  0  0  0  0  0  0  0  0  0
   41.6820   29.8470   41.6830 N   0  0  0  0  0  0  0  0  0  0  0  0
  1  2  1  0  0  0  0
  2 11  1  0  0  0  0
  2  3  2  0  0  0  0
  3  7  1  0  0  0  0
  4  3  1  0  0  0  0
  4  8  1  0  0  0  0
  5  4  2  0  0  0  0
  6  1  2  0  0  0  0
  6  5  1  0  0  0  0
  9  5  1  0  0  0  0
 10 15  2  0  0  0  0
 10 11  1  0  0  0  0
 11 12  2  0  0  0  0
 12 13  1  0  0  0  0
 12 18  1  0  0  0  0
 14 17  1  0  0  0  0
 14 13  2  0  0  0  0
 15 14  1  0  0  0  0
 16 10  1  0  0  0  0
 18 20  1  0  0  0  0
 18 19  1  0  0  0  0
 21 18  1  0  0  0  0
 22  1  1  0  0  0  0
 23 22  1  0  0  0  0
 24  6  1  0  0  0  0
 25 34  1  0  0  0  0
 25 26  1  0  0  0  0
 26 24  1  0  0  0  0
 27 26  2  0  0  0  0
 27 35  1  0  0  0  0
 28 27  1  0  0  0  0
 29 36  1  0  0  0  0
 29 28  1  0  0  0  0
 30 29  1  0  0  0  0
 31 30  2  0  0  0  0
 31 32  1  0  0  0  0
 32 33  1  0  0  0  0
 32 28  2  0  0  0  0
 33 25  2  0  0  0  0
 37 30  1  0  0  0  0
 38 33  1  0  0  0  0
 39 38  1  0  0  0  0
 40 39  2  0  0  0  0
 41 40  1  0  0  0  0
 42 40  1  0  0  0  0
 42 44  1  0  0  0  0
 43 42  1  0  0  0  0
 44 38  2  0  0  0  0
M  END
>  <minimizedAffinity>
-7.54389381

>  <minimizedRMSD>
0.570026875

$$$$
