
 OpenBabel03272505093D

 27 29  0  0  0  0  0  0  0  0999 V2000
   36.4000   30.8800   45.8080 Cl  0  0  0  0  0  0  0  0  0  0  0  0
   36.7420   30.8420   47.5210 C   0  0  0  0  0  0  0  0  0  0  0  0
   38.0020   31.1950   47.9000 C   0  0  0  0  0  0  0  0  0  0  0  0
   38.2940   31.1710   49.2650 C   0  0  0  0  0  0  0  0  0  0  0  0
   37.3220   30.8000   50.1670 C   0  0  0  0  0  0  0  0  0  0  0  0
   36.0770   30.4580   49.7120 C   0  0  0  0  0  0  0  0  0  0  0  0
   35.7340   30.4620   48.3950 C   0  0  0  0  0  0  0  0  0  0  0  0
   39.2840   31.4460   49.5910 H   0  0  0  0  0  0  0  0  0  0  0  0
   37.5820   30.7920   51.2170 H   0  0  0  0  0  0  0  0  0  0  0  0
   35.3210   30.1680   50.4320 H   0  0  0  0  0  0  0  0  0  0  0  0
   40.2500   33.3060   45.9410 C   0  0  0  0  0  0  0  0  0  0  0  0
   40.9210   32.3940   45.0920 C   0  0  0  0  0  0  0  0  0  0  0  0
   40.5760   31.0440   45.2140 C   0  0  0  0  0  0  0  0  0  0  0  0
   39.6300   30.6830   46.1290 N   0  0  0  0  0  0  0  0  0  0  0  0
   39.0230   31.5890   46.9120 C   0  0  0  0  0  0  0  0  0  0  0  0
   39.3400   32.8730   46.8070 N   0  0  0  0  0  0  0  0  0  0  0  0
   40.4810   34.3500   45.8820 H   0  0  0  0  0  0  0  0  0  0  0  0
   41.6650   32.7440   44.3830 H   0  0  0  0  0  0  0  0  0  0  0  0
   41.0660   30.3140   44.5820 H   0  0  0  0  0  0  0  0  0  0  0  0
   34.1210   30.0240   47.7540 S   0  0  0  0  0  0  0  0  0  0  0  0
   34.0100   28.2600   47.4990 C   0  0  0  0  0  0  0  0  0  0  0  0
   33.8730   27.8650   46.2200 N   0  0  0  0  0  0  0  0  0  0  0  0
   33.7980   26.5300   46.1320 C   0  0  0  0  0  0  0  0  0  0  0  0
   33.6880   25.8900   45.2650 H   0  0  0  0  0  0  0  0  0  0  0  0
   33.8910   26.0850   47.3960 N   0  0  0  0  0  0  0  0  0  0  0  0
   33.8790   25.1180   47.7980 H   0  0  0  0  0  0  0  0  0  0  0  0
   34.0200   27.1170   48.2450 N   0  0  0  0  0  0  0  0  0  0  0  0
  1  2  1  0  0  0  0
  2  3  2  0  0  0  0
  2  7  1  0  0  0  0
  3  4  1  0  0  0  0
  4  8  1  0  0  0  0
  4  5  2  0  0  0  0
  5  9  1  0  0  0  0
  6  5  1  0  0  0  0
  6 10  1  0  0  0  0
  7  6  2  0  0  0  0
 11 16  1  0  0  0  0
 12 13  1  0  0  0  0
 12 11  2  0  0  0  0
 13 14  2  0  0  0  0
 14 15  1  0  0  0  0
 15  3  1  0  0  0  0
 16 15  2  0  0  0  0
 17 11  1  0  0  0  0
 18 12  1  0  0  0  0
 19 13  1  0  0  0  0
 20  7  1  0  0  0  0
 21 20  1  0  0  0  0
 21 27  2  0  0  0  0
 22 21  1  0  0  0  0
 23 22  2  0  0  0  0
 23 25  1  0  0  0  0
 24 23  1  0  0  0  0
 25 26  1  0  0  0  0
 25 27  1  0  0  0  0
M  END
>  <minimizedAffinity>
-5.29631567

>  <minimizedRMSD>
0.854809225

$$$$
