
 OpenBabel03272506463D

 40 43  0  0  1  0  0  0  0  0999 V2000
   32.1130   28.4430   47.4490 C   0  0  2  0  0  0  0  0  0  0  0  0
   33.3670   28.2770   48.2560 C   0  0  1  0  0  0  0  0  0  0  0  0
   33.7690   26.9810   48.1480 O   0  0  0  0  0  0  0  0  0  0  0  0
   33.0560   26.3630   47.1250 C   0  0  0  0  0  0  0  0  0  0  0  0
   32.4420   27.4580   46.2830 C   0  0  1  0  0  0  0  0  0  0  0  0
   31.1980   28.0920   47.9160 H   0  0  0  0  0  0  0  0  0  0  0  0
   33.1880   28.6110   49.3080 H   0  0  0  0  0  0  0  0  0  0  0  0
   32.3550   25.6920   47.6070 H   0  0  0  0  0  0  0  0  0  0  0  0
   33.7710   25.7690   46.4850 H   0  0  0  0  0  0  0  0  0  0  0  0
   33.1650   27.9520   45.6410 H   0  0  0  0  0  0  0  0  0  0  0  0
   32.0260   29.7520   46.9300 O   0  0  0  0  0  0  0  0  0  0  0  0
   32.1940   29.7490   45.9540 H   0  0  0  0  0  0  0  0  0  0  0  0
   34.6640   29.3370   47.4930 S   0  0  0  0  0  0  0  0  0  0  0  0
   37.0890   29.2710   50.6270 C   0  0  0  0  0  0  0  0  0  0  0  0
   37.5560   30.5850   50.7520 C   0  0  0  0  0  0  0  0  0  0  0  0
   37.0960   31.5300   49.8190 C   0  0  0  0  0  0  0  0  0  0  0  0
   36.2340   31.1220   48.8610 N   0  0  0  0  0  0  0  0  0  0  0  0
   35.8060   29.8430   48.7730 C   0  0  0  0  0  0  0  0  0  0  0  0
   36.2280   28.9000   49.6550 N   0  0  0  0  0  0  0  0  0  0  0  0
   37.4680   28.5740   51.3650 H   0  0  0  0  0  0  0  0  0  0  0  0
   38.2490   30.8420   51.5490 H   0  0  0  0  0  0  0  0  0  0  0  0
   37.4380   32.5470   49.8920 H   0  0  0  0  0  0  0  0  0  0  0  0
   31.2920   26.9790   45.7040 O   0  0  0  0  0  0  0  0  0  0  0  0
   30.0030   29.1460   44.1810 Cl  0  0  0  0  0  0  0  0  0  0  0  0
   29.3480   28.2020   45.4970 C   0  0  0  0  0  0  0  0  0  0  0  0
   30.0500   27.1970   46.1230 C   0  0  0  0  0  0  0  0  0  0  0  0
   29.4080   26.4870   47.1400 C   0  0  0  0  0  0  0  0  0  0  0  0
   28.1100   26.7920   47.4990 C   0  0  0  0  0  0  0  0  0  0  0  0
   27.3980   27.8020   46.8750 C   0  0  0  0  0  0  0  0  0  0  0  0
   28.0450   28.4980   45.8690 C   0  0  0  0  0  0  0  0  0  0  0  0
   29.8560   25.6800   47.6910 H   0  0  0  0  0  0  0  0  0  0  0  0
   27.5600   26.2820   48.2750 H   0  0  0  0  0  0  0  0  0  0  0  0
   26.3840   28.0770   47.1200 H   0  0  0  0  0  0  0  0  0  0  0  0
   27.3150   29.5710   45.1940 C   0  0  0  0  0  0  0  0  0  0  0  0
   26.6260   29.5250   44.0370 N   0  0  0  0  0  0  0  0  0  0  0  0
   26.0900   30.7410   43.7520 C   0  0  0  0  0  0  0  0  0  0  0  0
   25.4900   31.0880   42.9350 H   0  0  0  0  0  0  0  0  0  0  0  0
   26.4620   31.5390   44.7530 N   0  0  0  0  0  0  0  0  0  0  0  0
   26.3060   32.5540   44.9920 H   0  0  0  0  0  0  0  0  0  0  0  0
   27.1870   30.8390   45.6030 N   0  0  0  0  0  0  0  0  0  0  0  0
  1  6  1  1  0  0  0
  1  2  1  0  0  0  0
  2  7  1  1  0  0  0
  3  2  1  0  0  0  0
  4  8  1  0  0  0  0
  4  3  1  0  0  0  0
  5 10  1  6  0  0  0
  5  4  1  0  0  0  0
  5  1  1  0  0  0  0
  9  4  1  0  0  0  0
 11  1  1  0  0  0  0
 12 11  1  0  0  0  0
 13  2  1  0  0  0  0
 13 18  1  0  0  0  0
 14 15  1  0  0  0  0
 14 20  1  0  0  0  0
 15 21  1  0  0  0  0
 16 22  1  0  0  0  0
 16 15  2  0  0  0  0
 17 16  1  0  0  0  0
 18 17  2  0  0  0  0
 18 19  1  0  0  0  0
 19 14  2  0  0  0  0
 23 26  1  0  0  0  0
 23  5  1  0  0  0  0
 24 25  1  0  0  0  0
 25 30  2  0  0  0  0
 25 26  1  0  0  0  0
 26 27  2  0  0  0  0
 27 28  1  0  0  0  0
 27 31  1  0  0  0  0
 28 32  1  0  0  0  0
 29 33  1  0  0  0  0
 29 28  2  0  0  0  0
 30 29  1  0  0  0  0
 34 40  2  0  0  0  0
 34 30  1  0  0  0  0
 35 34  1  0  0  0  0
 36 35  2  0  0  0  0
 36 38  1  0  0  0  0
 37 36  1  0  0  0  0
 38 39  1  0  0  0  0
 38 40  1  0  0  0  0
M  END
>  <minimizedAffinity>
-5.11033392

>  <minimizedRMSD>
0.200551227

$$$$
