
 OpenBabel03272506493D

 40 43  0  0  1  0  0  0  0  0999 V2000
   37.2480   27.8770   33.1090 C   0  0  2  0  0  0  0  0  0  0  0  0
   36.3540   28.8660   32.4200 C   0  0  1  0  0  0  0  0  0  0  0  0
   36.1790   28.4510   31.1350 O   0  0  0  0  0  0  0  0  0  0  0  0
   36.6440   27.1460   31.0070 C   0  0  0  0  0  0  0  0  0  0  0  0
   36.7620   26.5740   32.4010 C   0  0  1  0  0  0  0  0  0  0  0  0
   38.3110   27.9760   32.9040 H   0  0  0  0  0  0  0  0  0  0  0  0
   36.7840   29.8940   32.5110 H   0  0  0  0  0  0  0  0  0  0  0  0
   37.5680   27.2070   30.4440 H   0  0  0  0  0  0  0  0  0  0  0  0
   35.8870   26.5410   30.4290 H   0  0  0  0  0  0  0  0  0  0  0  0
   35.8010   26.3140   32.8340 H   0  0  0  0  0  0  0  0  0  0  0  0
   36.9350   27.7960   34.4820 O   0  0  0  0  0  0  0  0  0  0  0  0
   36.4790   26.9400   34.6820 H   0  0  0  0  0  0  0  0  0  0  0  0
   34.7170   28.8130   33.2590 S   0  0  0  0  0  0  0  0  0  0  0  0
   33.5110   31.2440   36.1470 C   0  0  0  0  0  0  0  0  0  0  0  0
   34.6750   31.8800   36.5960 C   0  0  0  0  0  0  0  0  0  0  0  0
   35.8850   31.5340   35.9720 C   0  0  0  0  0  0  0  0  0  0  0  0
   35.8600   30.6160   34.9800 N   0  0  0  0  0  0  0  0  0  0  0  0
   34.7160   30.0240   34.5750 C   0  0  0  0  0  0  0  0  0  0  0  0
   33.5250   30.3290   35.1530 N   0  0  0  0  0  0  0  0  0  0  0  0
   32.5990   31.5380   36.6540 H   0  0  0  0  0  0  0  0  0  0  0  0
   34.6200   32.6100   37.3990 H   0  0  0  0  0  0  0  0  0  0  0  0
   36.7950   32.0080   36.2970 H   0  0  0  0  0  0  0  0  0  0  0  0
   37.7460   25.6150   32.4040 O   0  0  0  0  0  0  0  0  0  0  0  0
   39.2620   25.4170   34.9220 Cl  0  0  0  0  0  0  0  0  0  0  0  0
   38.3420   24.1760   34.1040 C   0  0  0  0  0  0  0  0  0  0  0  0
   37.6590   24.3990   32.9310 C   0  0  0  0  0  0  0  0  0  0  0  0
   36.9290   23.3390   32.3880 C   0  0  0  0  0  0  0  0  0  0  0  0
   36.9010   22.1100   33.0170 C   0  0  0  0  0  0  0  0  0  0  0  0
   37.5870   21.8780   34.1980 C   0  0  0  0  0  0  0  0  0  0  0  0
   38.3060   22.9360   34.7250 C   0  0  0  0  0  0  0  0  0  0  0  0
   36.3530   23.4010   31.4820 H   0  0  0  0  0  0  0  0  0  0  0  0
   36.3570   21.2530   32.6500 H   0  0  0  0  0  0  0  0  0  0  0  0
   37.5960   20.9370   34.7250 H   0  0  0  0  0  0  0  0  0  0  0  0
   39.0410   22.7180   35.9700 C   0  0  0  0  0  0  0  0  0  0  0  0
   40.2880   22.2360   36.1420 N   0  0  0  0  0  0  0  0  0  0  0  0
   40.6030   22.1870   37.4630 C   0  0  0  0  0  0  0  0  0  0  0  0
   41.4860   21.8690   37.9800 H   0  0  0  0  0  0  0  0  0  0  0  0
   39.5280   22.6460   38.1050 N   0  0  0  0  0  0  0  0  0  0  0  0
   39.2760   22.8020   39.1160 H   0  0  0  0  0  0  0  0  0  0  0  0
   38.6070   22.9580   37.2140 N   0  0  0  0  0  0  0  0  0  0  0  0
  1  6  1  6  0  0  0
  1 11  1  0  0  0  0
  2  7  1  1  0  0  0
  2  1  1  0  0  0  0
  2 13  1  0  0  0  0
  3  2  1  0  0  0  0
  4  3  1  0  0  0  0
  4  5  1  0  0  0  0
  5 23  1  0  0  0  0
  5 10  1  1  0  0  0
  5  1  1  0  0  0  0
  8  4  1  0  0  0  0
  9  4  1  0  0  0  0
 11 12  1  0  0  0  0
 13 18  1  0  0  0  0
 14 15  1  0  0  0  0
 14 20  1  0  0  0  0
 15 21  1  0  0  0  0
 16 22  1  0  0  0  0
 16 15  2  0  0  0  0
 17 16  1  0  0  0  0
 18 17  2  0  0  0  0
 18 19  1  0  0  0  0
 19 14  2  0  0  0  0
 23 26  1  0  0  0  0
 25 30  1  0  0  0  0
 25 24  1  0  0  0  0
 26 25  2  0  0  0  0
 27 26  1  0  0  0  0
 27 28  2  0  0  0  0
 28 29  1  0  0  0  0
 29 30  2  0  0  0  0
 29 33  1  0  0  0  0
 30 34  1  0  0  0  0
 31 27  1  0  0  0  0
 32 28  1  0  0  0  0
 34 35  1  0  0  0  0
 34 40  2  0  0  0  0
 35 36  2  0  0  0  0
 36 37  1  0  0  0  0
 36 38  1  0  0  0  0
 38 39  1  0  0  0  0
 40 38  1  0  0  0  0
M  END
>  <minimizedAffinity>
-5.72446728

$$$$

 OpenBabel03272506493D

 40 43  0  0  1  0  0  0  0  0999 V2000
   36.9620   26.5320   30.8690 C   0  0  2  0  0  0  0  0  0  0  0  0
   37.2080   25.0840   31.1770 C   0  0  1  0  0  0  0  0  0  0  0  0
   37.7990   25.0080   32.4010 O   0  0  0  0  0  0  0  0  0  0  0  0
   37.7030   26.2430   33.0340 C   0  0  0  0  0  0  0  0  0  0  0  0
   36.6390   27.0360   32.3120 C   0  0  1  0  0  0  0  0  0  0  0  0
   37.8220   27.0960   30.5180 H   0  0  0  0  0  0  0  0  0  0  0  0
   37.8050   24.6180   30.3540 H   0  0  0  0  0  0  0  0  0  0  0  0
   38.6990   26.6710   33.0180 H   0  0  0  0  0  0  0  0  0  0  0  0
   37.3760   26.0850   34.1020 H   0  0  0  0  0  0  0  0  0  0  0  0
   35.6320   26.7040   32.5480 H   0  0  0  0  0  0  0  0  0  0  0  0
   35.8130   26.6820   30.0650 O   0  0  0  0  0  0  0  0  0  0  0  0
   35.0690   27.0660   30.5930 H   0  0  0  0  0  0  0  0  0  0  0  0
   35.5690   24.2540   31.2880 S   0  0  0  0  0  0  0  0  0  0  0  0
   37.1470   20.6180   31.2520 C   0  0  0  0  0  0  0  0  0  0  0  0
   36.2800   19.8390   32.0280 C   0  0  0  0  0  0  0  0  0  0  0  0
   35.1580   20.4750   32.5860 C   0  0  0  0  0  0  0  0  0  0  0  0
   34.9780   21.7930   32.3440 N   0  0  0  0  0  0  0  0  0  0  0  0
   35.8380   22.5110   31.5900 C   0  0  0  0  0  0  0  0  0  0  0  0
   36.9340   21.9340   31.0330 N   0  0  0  0  0  0  0  0  0  0  0  0
   37.9980   20.0900   30.8400 H   0  0  0  0  0  0  0  0  0  0  0  0
   36.4880   18.7820   32.1800 H   0  0  0  0  0  0  0  0  0  0  0  0
   34.4760   19.9000   33.1870 H   0  0  0  0  0  0  0  0  0  0  0  0
   36.9190   28.3750   32.4390 O   0  0  0  0  0  0  0  0  0  0  0  0
   36.5190   29.1440   35.2540 Cl  0  0  0  0  0  0  0  0  0  0  0  0
   35.7470   29.7940   33.8280 C   0  0  0  0  0  0  0  0  0  0  0  0
   36.0330   29.3580   32.5550 C   0  0  0  0  0  0  0  0  0  0  0  0
   35.3780   29.9780   31.4880 C   0  0  0  0  0  0  0  0  0  0  0  0
   34.4730   30.9960   31.7170 C   0  0  0  0  0  0  0  0  0  0  0  0
   34.1790   31.4390   32.9950 C   0  0  0  0  0  0  0  0  0  0  0  0
   34.8350   30.8160   34.0420 C   0  0  0  0  0  0  0  0  0  0  0  0
   35.5280   29.7240   30.4550 H   0  0  0  0  0  0  0  0  0  0  0  0
   33.9340   31.5140   30.9370 H   0  0  0  0  0  0  0  0  0  0  0  0
   33.4810   32.2290   33.2230 H   0  0  0  0  0  0  0  0  0  0  0  0
   34.5420   31.2650   35.4030 C   0  0  0  0  0  0  0  0  0  0  0  0
   33.4070   31.1170   36.1150 N   0  0  0  0  0  0  0  0  0  0  0  0
   33.5400   31.6790   37.3460 C   0  0  0  0  0  0  0  0  0  0  0  0
   32.8670   31.7580   38.1750 H   0  0  0  0  0  0  0  0  0  0  0  0
   34.7760   32.1760   37.3820 N   0  0  0  0  0  0  0  0  0  0  0  0
   35.3490   32.6960   38.0970 H   0  0  0  0  0  0  0  0  0  0  0  0
   35.3630   31.9280   36.2270 N   0  0  0  0  0  0  0  0  0  0  0  0
  1  6  1  6  0  0  0
  1  2  1  0  0  0  0
  1  5  1  0  0  0  0
  2  7  1  6  0  0  0
  2 13  1  0  0  0  0
  2  3  1  0  0  0  0
  3  4  1  0  0  0  0
  4  9  1  0  0  0  0
  5 23  1  0  0  0  0
  5 10  1  1  0  0  0
  5  4  1  0  0  0  0
  8  4  1  0  0  0  0
 11 12  1  0  0  0  0
 11  1  1  0  0  0  0
 13 18  1  0  0  0  0
 14 15  1  0  0  0  0
 15 21  1  0  0  0  0
 15 16  2  0  0  0  0
 16 22  1  0  0  0  0
 17 16  1  0  0  0  0
 18 17  2  0  0  0  0
 19 14  2  0  0  0  0
 19 18  1  0  0  0  0
 20 14  1  0  0  0  0
 23 26  1  0  0  0  0
 25 30  1  0  0  0  0
 25 24  1  0  0  0  0
 26 25  2  0  0  0  0
 27 28  2  0  0  0  0
 27 26  1  0  0  0  0
 28 29  1  0  0  0  0
 29 33  1  0  0  0  0
 29 30  2  0  0  0  0
 30 34  1  0  0  0  0
 31 27  1  0  0  0  0
 32 28  1  0  0  0  0
 34 35  1  0  0  0  0
 34 40  2  0  0  0  0
 35 36  2  0  0  0  0
 36 38  1  0  0  0  0
 36 37  1  0  0  0  0
 38 39  1  0  0  0  0
 40 38  1  0  0  0  0
M  END
>  <minimizedAffinity>
-5.64536572

$$$$

 OpenBabel03272506493D

 40 43  0  0  1  0  0  0  0  0999 V2000
   36.6400   28.5530   33.1590 C   0  0  2  0  0  0  0  0  0  0  0  0
   35.7870   29.7060   32.7190 C   0  0  1  0  0  0  0  0  0  0  0  0
   35.6690   29.6500   31.3640 O   0  0  0  0  0  0  0  0  0  0  0  0
   36.1290   28.4170   30.9140 C   0  0  0  0  0  0  0  0  0  0  0  0
   36.1780   27.4930   32.1090 C   0  0  1  0  0  0  0  0  0  0  0  0
   37.7120   28.6810   33.0340 H   0  0  0  0  0  0  0  0  0  0  0  0
   36.2200   30.6650   33.0980 H   0  0  0  0  0  0  0  0  0  0  0  0
   37.0790   28.6060   30.4280 H   0  0  0  0  0  0  0  0  0  0  0  0
   35.3960   28.0020   30.1630 H   0  0  0  0  0  0  0  0  0  0  0  0
   35.1950   27.1480   32.4160 H   0  0  0  0  0  0  0  0  0  0  0  0
   36.2620   28.1170   34.4450 O   0  0  0  0  0  0  0  0  0  0  0  0
   35.7910   27.2480   34.3920 H   0  0  0  0  0  0  0  0  0  0  0  0
   34.1110   29.4650   33.4420 S   0  0  0  0  0  0  0  0  0  0  0  0
   35.0400   31.7930   36.5120 C   0  0  0  0  0  0  0  0  0  0  0  0
   33.8370   31.9790   37.2030 C   0  0  0  0  0  0  0  0  0  0  0  0
   32.6890   31.3530   36.6890 C   0  0  0  0  0  0  0  0  0  0  0  0
   32.8080   30.6110   35.5650 N   0  0  0  0  0  0  0  0  0  0  0  0
   33.9880   30.4550   34.9260 C   0  0  0  0  0  0  0  0  0  0  0  0
   35.1200   31.0440   35.3910 N   0  0  0  0  0  0  0  0  0  0  0  0
   35.9010   32.2920   36.9410 H   0  0  0  0  0  0  0  0  0  0  0  0
   33.8150   32.5900   38.1030 H   0  0  0  0  0  0  0  0  0  0  0  0
   31.7510   31.4790   37.2010 H   0  0  0  0  0  0  0  0  0  0  0  0
   37.1530   26.5490   31.9010 O   0  0  0  0  0  0  0  0  0  0  0  0
   38.7360   25.7110   34.2390 Cl  0  0  0  0  0  0  0  0  0  0  0  0
   37.7560   24.7270   33.1780 C   0  0  0  0  0  0  0  0  0  0  0  0
   37.0450   25.2430   32.1190 C   0  0  0  0  0  0  0  0  0  0  0  0
   36.2670   24.3640   31.3630 C   0  0  0  0  0  0  0  0  0  0  0  0
   36.2210   23.0200   31.6760 C   0  0  0  0  0  0  0  0  0  0  0  0
   36.9350   22.4920   32.7390 C   0  0  0  0  0  0  0  0  0  0  0  0
   37.7010   23.3740   33.4810 C   0  0  0  0  0  0  0  0  0  0  0  0
   35.6670   24.6570   30.5200 H   0  0  0  0  0  0  0  0  0  0  0  0
   35.6410   22.2900   31.1310 H   0  0  0  0  0  0  0  0  0  0  0  0
   36.9310   21.4520   33.0220 H   0  0  0  0  0  0  0  0  0  0  0  0
   38.4650   22.8430   34.6090 C   0  0  0  0  0  0  0  0  0  0  0  0
   39.7650   22.4880   34.6560 N   0  0  0  0  0  0  0  0  0  0  0  0
   40.0920   22.0390   35.8970 C   0  0  0  0  0  0  0  0  0  0  0  0
   41.0110   21.6770   36.3100 H   0  0  0  0  0  0  0  0  0  0  0  0
   38.9710   22.1230   36.6150 N   0  0  0  0  0  0  0  0  0  0  0  0
   38.7070   21.9000   37.6100 H   0  0  0  0  0  0  0  0  0  0  0  0
   38.0120   22.5990   35.8450 N   0  0  0  0  0  0  0  0  0  0  0  0
  1  6  1  6  0  0  0
  1 11  1  0  0  0  0
  2  7  1  1  0  0  0
  2  1  1  0  0  0  0
  2 13  1  0  0  0  0
  3  2  1  0  0  0  0
  4  3  1  0  0  0  0
  4  5  1  0  0  0  0
  5 10  1  1  0  0  0
  5  1  1  0  0  0  0
  8  4  1  0  0  0  0
  9  4  1  0  0  0  0
 12 11  1  0  0  0  0
 13 18  1  0  0  0  0
 14 20  1  0  0  0  0
 14 15  1  0  0  0  0
 15 21  1  0  0  0  0
 16 22  1  0  0  0  0
 16 15  2  0  0  0  0
 17 16  1  0  0  0  0
 18 19  1  0  0  0  0
 18 17  2  0  0  0  0
 19 14  2  0  0  0  0
 23  5  1  0  0  0  0
 23 26  1  0  0  0  0
 25 30  1  0  0  0  0
 25 24  1  0  0  0  0
 26 25  2  0  0  0  0
 27 28  2  0  0  0  0
 27 26  1  0  0  0  0
 28 29  1  0  0  0  0
 29 33  1  0  0  0  0
 29 30  2  0  0  0  0
 30 34  1  0  0  0  0
 31 27  1  0  0  0  0
 32 28  1  0  0  0  0
 34 35  1  0  0  0  0
 34 40  2  0  0  0  0
 35 36  2  0  0  0  0
 36 37  1  0  0  0  0
 36 38  1  0  0  0  0
 38 39  1  0  0  0  0
 40 38  1  0  0  0  0
M  END
>  <minimizedAffinity>
-5.36480522

$$$$

 OpenBabel03272506493D

 40 43  0  0  1  0  0  0  0  0999 V2000
   37.9180   23.9920   34.9060 C   0  0  2  0  0  0  0  0  0  0  0  0
   38.1410   22.8920   35.9020 C   0  0  1  0  0  0  0  0  0  0  0  0
   38.7310   21.8500   35.2550 O   0  0  0  0  0  0  0  0  0  0  0  0
   39.1660   22.2750   34.0030 C   0  0  0  0  0  0  0  0  0  0  0  0
   39.1920   23.7860   34.0260 C   0  0  1  0  0  0  0  0  0  0  0  0
   37.0570   23.8740   34.2550 H   0  0  0  0  0  0  0  0  0  0  0  0
   37.1750   22.6290   36.4000 H   0  0  0  0  0  0  0  0  0  0  0  0
   38.4920   21.8280   33.2810 H   0  0  0  0  0  0  0  0  0  0  0  0
   40.2140   21.8950   33.8280 H   0  0  0  0  0  0  0  0  0  0  0  0
   40.0340   24.1850   34.5840 H   0  0  0  0  0  0  0  0  0  0  0  0
   37.9950   25.2530   35.5320 O   0  0  0  0  0  0  0  0  0  0  0  0
   38.8320   25.7160   35.2770 H   0  0  0  0  0  0  0  0  0  0  0  0
   39.3280   23.5170   37.1640 S   0  0  0  0  0  0  0  0  0  0  0  0
   42.2670   20.8630   37.3150 C   0  0  0  0  0  0  0  0  0  0  0  0
   43.3020   21.4250   36.5570 C   0  0  0  0  0  0  0  0  0  0  0  0
   43.0710   22.6820   35.9730 C   0  0  0  0  0  0  0  0  0  0  0  0
   41.8740   23.2770   36.1760 N   0  0  0  0  0  0  0  0  0  0  0  0
   40.9000   22.7030   36.9140 C   0  0  0  0  0  0  0  0  0  0  0  0
   41.0830   21.4880   37.4940 N   0  0  0  0  0  0  0  0  0  0  0  0
   42.4840   19.8940   37.7470 H   0  0  0  0  0  0  0  0  0  0  0  0
   44.2400   20.8880   36.4360 H   0  0  0  0  0  0  0  0  0  0  0  0
   43.8500   23.1360   35.3860 H   0  0  0  0  0  0  0  0  0  0  0  0
   38.9890   24.2530   32.7500 O   0  0  0  0  0  0  0  0  0  0  0  0
   38.7000   27.1590   32.3730 Cl  0  0  0  0  0  0  0  0  0  0  0  0
   37.5590   25.8930   31.9890 C   0  0  0  0  0  0  0  0  0  0  0  0
   37.8190   24.5580   32.2000 C   0  0  0  0  0  0  0  0  0  0  0  0
   36.8440   23.6330   31.8210 C   0  0  0  0  0  0  0  0  0  0  0  0
   35.6580   24.0560   31.2530 C   0  0  0  0  0  0  0  0  0  0  0  0
   35.3880   25.3980   31.0380 C   0  0  0  0  0  0  0  0  0  0  0  0
   36.3630   26.3030   31.4190 C   0  0  0  0  0  0  0  0  0  0  0  0
   36.9420   22.5690   31.9310 H   0  0  0  0  0  0  0  0  0  0  0  0
   34.8660   23.3930   30.9380 H   0  0  0  0  0  0  0  0  0  0  0  0
   34.4790   25.7760   30.5990 H   0  0  0  0  0  0  0  0  0  0  0  0
   36.1030   27.7260   31.2040 C   0  0  0  0  0  0  0  0  0  0  0  0
   35.4390   28.5920   31.9970 N   0  0  0  0  0  0  0  0  0  0  0  0
   35.4170   29.8300   31.4360 C   0  0  0  0  0  0  0  0  0  0  0  0
   34.9930   30.7590   31.7620 H   0  0  0  0  0  0  0  0  0  0  0  0
   36.0780   29.7140   30.2840 N   0  0  0  0  0  0  0  0  0  0  0  0
   36.3300   30.3730   29.5010 H   0  0  0  0  0  0  0  0  0  0  0  0
   36.4800   28.4650   30.1540 N   0  0  0  0  0  0  0  0  0  0  0  0
  1  6  1  6  0  0  0
  1 11  1  0  0  0  0
  1  2  1  0  0  0  0
  2  7  1  1  0  0  0
  2 13  1  0  0  0  0
  3  2  1  0  0  0  0
  4  5  1  0  0  0  0
  4  3  1  0  0  0  0
  5 10  1  1  0  0  0
  5  1  1  0  0  0  0
  8  4  1  0  0  0  0
  9  4  1  0  0  0  0
 12 11  1  0  0  0  0
 14 19  1  0  0  0  0
 14 20  1  0  0  0  0
 15 14  2  0  0  0  0
 16 17  2  0  0  0  0
 16 15  1  0  0  0  0
 17 18  1  0  0  0  0
 18 13  1  0  0  0  0
 18 19  2  0  0  0  0
 21 15  1  0  0  0  0
 22 16  1  0  0  0  0
 23  5  1  0  0  0  0
 25 26  1  0  0  0  0
 25 24  1  0  0  0  0
 26 23  1  0  0  0  0
 27 31  1  0  0  0  0
 27 26  2  0  0  0  0
 28 27  1  0  0  0  0
 29 28  2  0  0  0  0
 29 30  1  0  0  0  0
 30 25  2  0  0  0  0
 32 28  1  0  0  0  0
 33 29  1  0  0  0  0
 34 30  1  0  0  0  0
 34 35  1  0  0  0  0
 36 37  1  0  0  0  0
 36 35  2  0  0  0  0
 38 36  1  0  0  0  0
 39 38  1  0  0  0  0
 40 38  1  0  0  0  0
 40 34  2  0  0  0  0
M  END
>  <minimizedAffinity>
-5.36405325

$$$$

 OpenBabel03272506493D

 40 43  0  0  1  0  0  0  0  0999 V2000
   36.9740   25.1660   30.8610 C   0  0  2  0  0  0  0  0  0  0  0  0
   37.1440   23.6820   31.0060 C   0  0  1  0  0  0  0  0  0  0  0  0
   38.0500   23.4570   31.9970 O   0  0  0  0  0  0  0  0  0  0  0  0
   38.2710   24.6400   32.6940 C   0  0  0  0  0  0  0  0  0  0  0  0
   37.1340   25.5770   32.3590 C   0  0  1  0  0  0  0  0  0  0  0  0
   37.7520   25.6810   30.3030 H   0  0  0  0  0  0  0  0  0  0  0  0
   37.4270   23.2350   30.0210 H   0  0  0  0  0  0  0  0  0  0  0  0
   39.2600   24.9810   32.4090 H   0  0  0  0  0  0  0  0  0  0  0  0
   38.2500   24.4240   33.8010 H   0  0  0  0  0  0  0  0  0  0  0  0
   36.2080   25.3150   32.8620 H   0  0  0  0  0  0  0  0  0  0  0  0
   35.6660   25.4780   30.4390 O   0  0  0  0  0  0  0  0  0  0  0  0
   35.1490   25.8810   31.1810 H   0  0  0  0  0  0  0  0  0  0  0  0
   35.5280   22.9890   31.5500 S   0  0  0  0  0  0  0  0  0  0  0  0
   36.3420   19.1870   30.7830 C   0  0  0  0  0  0  0  0  0  0  0  0
   35.9790   18.4970   31.9470 C   0  0  0  0  0  0  0  0  0  0  0  0
   35.4620   19.2490   33.0140 C   0  0  0  0  0  0  0  0  0  0  0  0
   35.3410   20.5870   32.8600 N   0  0  0  0  0  0  0  0  0  0  0  0
   35.7020   21.2170   31.7210 C   0  0  0  0  0  0  0  0  0  0  0  0
   36.2070   20.5260   30.6670 N   0  0  0  0  0  0  0  0  0  0  0  0
   36.7360   18.5700   29.9850 H   0  0  0  0  0  0  0  0  0  0  0  0
   36.1040   17.4180   32.0000 H   0  0  0  0  0  0  0  0  0  0  0  0
   35.1750   18.7450   33.9190 H   0  0  0  0  0  0  0  0  0  0  0  0
   37.5790   26.8720   32.4690 O   0  0  0  0  0  0  0  0  0  0  0  0
   36.6360   28.7680   30.4220 Cl  0  0  0  0  0  0  0  0  0  0  0  0
   36.4420   28.8540   32.1570 C   0  0  0  0  0  0  0  0  0  0  0  0
   36.9190   27.8890   33.0140 C   0  0  0  0  0  0  0  0  0  0  0  0
   36.6730   28.0470   34.3790 C   0  0  0  0  0  0  0  0  0  0  0  0
   35.9720   29.1420   34.8440 C   0  0  0  0  0  0  0  0  0  0  0  0
   35.4900   30.1180   33.9880 C   0  0  0  0  0  0  0  0  0  0  0  0
   35.7410   29.9490   32.6380 C   0  0  0  0  0  0  0  0  0  0  0  0
   36.9910   27.3540   35.1370 H   0  0  0  0  0  0  0  0  0  0  0  0
   35.7490   29.3220   35.8850 H   0  0  0  0  0  0  0  0  0  0  0  0
   34.9390   30.9900   34.3030 H   0  0  0  0  0  0  0  0  0  0  0  0
   35.2430   30.9660   31.7120 C   0  0  0  0  0  0  0  0  0  0  0  0
   35.8810   32.0490   31.2240 N   0  0  0  0  0  0  0  0  0  0  0  0
   35.0670   32.7460   30.3880 C   0  0  0  0  0  0  0  0  0  0  0  0
   35.2180   33.6430   29.8220 H   0  0  0  0  0  0  0  0  0  0  0  0
   33.9150   32.0750   30.3680 N   0  0  0  0  0  0  0  0  0  0  0  0
   32.9880   32.2030   29.8840 H   0  0  0  0  0  0  0  0  0  0  0  0
   34.0270   31.0230   31.1550 N   0  0  0  0  0  0  0  0  0  0  0  0
  1  6  1  6  0  0  0
  1  2  1  0  0  0  0
  1  5  1  0  0  0  0
  2  7  1  6  0  0  0
  2 13  1  0  0  0  0
  2  3  1  0  0  0  0
  3  4  1  0  0  0  0
  4  9  1  0  0  0  0
  5 23  1  0  0  0  0
  5  4  1  0  0  0  0
  5 10  1  1  0  0  0
  8  4  1  0  0  0  0
 11  1  1  0  0  0  0
 11 12  1  0  0  0  0
 13 18  1  0  0  0  0
 14 15  1  0  0  0  0
 15 21  1  0  0  0  0
 15 16  2  0  0  0  0
 16 22  1  0  0  0  0
 17 16  1  0  0  0  0
 18 17  2  0  0  0  0
 19 14  2  0  0  0  0
 19 18  1  0  0  0  0
 20 14  1  0  0  0  0
 23 26  1  0  0  0  0
 24 25  1  0  0  0  0
 25 30  2  0  0  0  0
 25 26  1  0  0  0  0
 26 27  2  0  0  0  0
 27 28  1  0  0  0  0
 27 31  1  0  0  0  0
 28 32  1  0  0  0  0
 29 33  1  0  0  0  0
 29 28  2  0  0  0  0
 30 29  1  0  0  0  0
 34 30  1  0  0  0  0
 35 34  1  0  0  0  0
 36 35  2  0  0  0  0
 37 36  1  0  0  0  0
 38 36  1  0  0  0  0
 38 40  1  0  0  0  0
 39 38  1  0  0  0  0
 40 34  2  0  0  0  0
M  END
>  <minimizedAffinity>
-5.31425142

$$$$

 OpenBabel03272506493D

 40 43  0  0  1  0  0  0  0  0999 V2000
   38.8810   27.1150   31.9190 C   0  0  2  0  0  0  0  0  0  0  0  0
   38.6310   27.9750   30.7150 C   0  0  1  0  0  0  0  0  0  0  0  0
   38.9940   27.2680   29.6100 O   0  0  0  0  0  0  0  0  0  0  0  0
   39.1900   25.9360   29.9610 C   0  0  0  0  0  0  0  0  0  0  0  0
   38.5280   25.7250   31.3030 C   0  0  1  0  0  0  0  0  0  0  0  0
   39.9110   27.0630   32.2590 H   0  0  0  0  0  0  0  0  0  0  0  0
   39.1670   28.9500   30.8260 H   0  0  0  0  0  0  0  0  0  0  0  0
   40.2610   25.7690   29.9350 H   0  0  0  0  0  0  0  0  0  0  0  0
   38.6850   25.2750   29.1990 H   0  0  0  0  0  0  0  0  0  0  0  0
   37.4450   25.6710   31.2360 H   0  0  0  0  0  0  0  0  0  0  0  0
   37.9550   27.4110   32.9410 O   0  0  0  0  0  0  0  0  0  0  0  0
   37.2960   26.6780   33.0340 H   0  0  0  0  0  0  0  0  0  0  0  0
   36.8190   28.2830   30.6180 S   0  0  0  0  0  0  0  0  0  0  0  0
   36.5540   32.1520   31.4300 C   0  0  0  0  0  0  0  0  0  0  0  0
   35.9340   32.2180   32.6840 C   0  0  0  0  0  0  0  0  0  0  0  0
   35.5820   31.0050   33.2990 C   0  0  0  0  0  0  0  0  0  0  0  0
   35.8620   29.8500   32.6540 N   0  0  0  0  0  0  0  0  0  0  0  0
   36.4620   29.8280   31.4440 C   0  0  0  0  0  0  0  0  0  0  0  0
   36.8170   30.9790   30.8160 N   0  0  0  0  0  0  0  0  0  0  0  0
   36.8090   33.1090   30.9900 H   0  0  0  0  0  0  0  0  0  0  0  0
   35.7400   33.1840   33.1440 H   0  0  0  0  0  0  0  0  0  0  0  0
   35.1040   31.0260   34.2630 H   0  0  0  0  0  0  0  0  0  0  0  0
   39.1800   24.7140   31.9660 O   0  0  0  0  0  0  0  0  0  0  0  0
   39.8930   25.0700   34.8010 Cl  0  0  0  0  0  0  0  0  0  0  0  0
   38.8940   23.8330   34.0770 C   0  0  0  0  0  0  0  0  0  0  0  0
   38.6200   23.7820   32.7300 C   0  0  0  0  0  0  0  0  0  0  0  0
   37.7780   22.7670   32.2710 C   0  0  0  0  0  0  0  0  0  0  0  0
   37.2430   21.8470   33.1510 C   0  0  0  0  0  0  0  0  0  0  0  0
   37.5150   21.8900   34.5090 C   0  0  0  0  0  0  0  0  0  0  0  0
   38.3500   22.9010   34.9500 C   0  0  0  0  0  0  0  0  0  0  0  0
   37.4900   22.6360   31.2440 H   0  0  0  0  0  0  0  0  0  0  0  0
   36.5870   21.0400   32.8610 H   0  0  0  0  0  0  0  0  0  0  0  0
   37.1220   21.1950   35.2330 H   0  0  0  0  0  0  0  0  0  0  0  0
   38.6550   22.9700   36.3780 C   0  0  0  0  0  0  0  0  0  0  0  0
   37.9700   23.5920   37.3590 N   0  0  0  0  0  0  0  0  0  0  0  0
   38.5870   23.4170   38.5570 C   0  0  0  0  0  0  0  0  0  0  0  0
   38.3470   23.7540   39.5450 H   0  0  0  0  0  0  0  0  0  0  0  0
   39.6650   22.6750   38.3000 N   0  0  0  0  0  0  0  0  0  0  0  0
   40.4500   22.2770   38.8790 H   0  0  0  0  0  0  0  0  0  0  0  0
   39.6980   22.4150   37.0080 N   0  0  0  0  0  0  0  0  0  0  0  0
  1  6  1  1  0  0  0
  1 11  1  0  0  0  0
  2  7  1  1  0  0  0
  2  1  1  0  0  0  0
  3  4  1  0  0  0  0
  3  2  1  0  0  0  0
  4  5  1  0  0  0  0
  5 10  1  6  0  0  0
  5  1  1  0  0  0  0
  5 23  1  0  0  0  0
  8  4  1  0  0  0  0
  9  4  1  0  0  0  0
 11 12  1  0  0  0  0
 13  2  1  0  0  0  0
 13 18  1  0  0  0  0
 14 15  1  0  0  0  0
 15 21  1  0  0  0  0
 15 16  2  0  0  0  0
 16 22  1  0  0  0  0
 17 16  1  0  0  0  0
 18 17  2  0  0  0  0
 19 14  2  0  0  0  0
 19 18  1  0  0  0  0
 20 14  1  0  0  0  0
 23 26  1  0  0  0  0
 25 24  1  0  0  0  0
 25 30  1  0  0  0  0
 26 25  2  0  0  0  0
 27 26  1  0  0  0  0
 27 28  2  0  0  0  0
 28 29  1  0  0  0  0
 29 30  2  0  0  0  0
 29 33  1  0  0  0  0
 30 34  1  0  0  0  0
 31 27  1  0  0  0  0
 32 28  1  0  0  0  0
 34 40  2  0  0  0  0
 34 35  1  0  0  0  0
 35 36  2  0  0  0  0
 36 37  1  0  0  0  0
 38 36  1  0  0  0  0
 38 39  1  0  0  0  0
 40 38  1  0  0  0  0
M  END
>  <minimizedAffinity>
-5.25267076

$$$$

 OpenBabel03272506493D

 40 43  0  0  1  0  0  0  0  0999 V2000
   37.0430   28.0780   33.0080 C   0  0  2  0  0  0  0  0  0  0  0  0
   36.1200   29.1360   32.4790 C   0  0  1  0  0  0  0  0  0  0  0  0
   35.8520   28.8470   31.1760 O   0  0  0  0  0  0  0  0  0  0  0  0
   36.2860   27.5550   30.8930 C   0  0  0  0  0  0  0  0  0  0  0  0
   36.4900   26.8520   32.2160 C   0  0  1  0  0  0  0  0  0  0  0  0
   38.0910   28.1860   32.7420 H   0  0  0  0  0  0  0  0  0  0  0  0
   36.5710   30.1470   32.6370 H   0  0  0  0  0  0  0  0  0  0  0  0
   37.1710   27.6610   30.2770 H   0  0  0  0  0  0  0  0  0  0  0  0
   35.4830   27.0150   30.3140 H   0  0  0  0  0  0  0  0  0  0  0  0
   35.5560   26.5610   32.6870 H   0  0  0  0  0  0  0  0  0  0  0  0
   36.8220   27.8690   34.3860 O   0  0  0  0  0  0  0  0  0  0  0  0
   36.3680   27.0020   34.5360 H   0  0  0  0  0  0  0  0  0  0  0  0
   34.5420   29.0180   33.4190 S   0  0  0  0  0  0  0  0  0  0  0  0
   35.8360   31.6650   36.0700 C   0  0  0  0  0  0  0  0  0  0  0  0
   34.6980   32.0360   36.7970 C   0  0  0  0  0  0  0  0  0  0  0  0
   33.4770   31.4360   36.4450 C   0  0  0  0  0  0  0  0  0  0  0  0
   33.4680   30.5400   35.4320 N   0  0  0  0  0  0  0  0  0  0  0  0
   34.5880   30.2080   34.7530 C   0  0  0  0  0  0  0  0  0  0  0  0
   35.7870   30.7660   35.0630 N   0  0  0  0  0  0  0  0  0  0  0  0
   36.7560   32.1500   36.3730 H   0  0  0  0  0  0  0  0  0  0  0  0
   34.7800   32.7640   37.6010 H   0  0  0  0  0  0  0  0  0  0  0  0
   32.5880   31.7020   36.9870 H   0  0  0  0  0  0  0  0  0  0  0  0
   37.4570   25.8890   32.0610 O   0  0  0  0  0  0  0  0  0  0  0  0
   36.0120   23.6500   30.8070 Cl  0  0  0  0  0  0  0  0  0  0  0  0
   36.9290   23.6570   32.2950 C   0  0  0  0  0  0  0  0  0  0  0  0
   37.5780   24.7730   32.7720 C   0  0  0  0  0  0  0  0  0  0  0  0
   38.3100   24.6480   33.9550 C   0  0  0  0  0  0  0  0  0  0  0  0
   38.3730   23.4380   34.6170 C   0  0  0  0  0  0  0  0  0  0  0  0
   37.7220   22.3110   34.1440 C   0  0  0  0  0  0  0  0  0  0  0  0
   37.0010   22.4480   32.9710 C   0  0  0  0  0  0  0  0  0  0  0  0
   38.8600   25.4490   34.4140 H   0  0  0  0  0  0  0  0  0  0  0  0
   38.9210   23.2770   35.5340 H   0  0  0  0  0  0  0  0  0  0  0  0
   37.7420   21.3460   34.6260 H   0  0  0  0  0  0  0  0  0  0  0  0
   36.3030   21.2730   32.4500 C   0  0  0  0  0  0  0  0  0  0  0  0
   35.0440   20.8600   32.6980 N   0  0  0  0  0  0  0  0  0  0  0  0
   34.7750   19.7150   32.0160 C   0  0  0  0  0  0  0  0  0  0  0  0
   33.8980   19.1020   31.9610 H   0  0  0  0  0  0  0  0  0  0  0  0
   35.8900   19.4280   31.3440 N   0  0  0  0  0  0  0  0  0  0  0  0
   36.1840   18.6600   30.6850 H   0  0  0  0  0  0  0  0  0  0  0  0
   36.7900   20.3550   31.6060 N   0  0  0  0  0  0  0  0  0  0  0  0
  1  6  1  6  0  0  0
  1 11  1  0  0  0  0
  2  7  1  1  0  0  0
  2  1  1  0  0  0  0
  2 13  1  0  0  0  0
  3  2  1  0  0  0  0
  4  3  1  0  0  0  0
  4  5  1  0  0  0  0
  5 10  1  1  0  0  0
  5  1  1  0  0  0  0
  8  4  1  0  0  0  0
  9  4  1  0  0  0  0
 11 12  1  0  0  0  0
 13 18  1  0  0  0  0
 14 20  1  0  0  0  0
 14 15  1  0  0  0  0
 15 21  1  0  0  0  0
 16 15  2  0  0  0  0
 16 22  1  0  0  0  0
 17 16  1  0  0  0  0
 18 19  1  0  0  0  0
 18 17  2  0  0  0  0
 19 14  2  0  0  0  0
 23  5  1  0  0  0  0
 23 26  1  0  0  0  0
 24 25  1  0  0  0  0
 25 26  2  0  0  0  0
 25 30  1  0  0  0  0
 26 27  1  0  0  0  0
 27 31  1  0  0  0  0
 27 28  2  0  0  0  0
 28 32  1  0  0  0  0
 29 28  1  0  0  0  0
 29 33  1  0  0  0  0
 30 29  2  0  0  0  0
 34 35  1  0  0  0  0
 34 30  1  0  0  0  0
 36 35  2  0  0  0  0
 37 36  1  0  0  0  0
 38 40  1  0  0  0  0
 38 36  1  0  0  0  0
 39 38  1  0  0  0  0
 40 34  2  0  0  0  0
M  END
>  <minimizedAffinity>
-5.23058081

$$$$

 OpenBabel03272506493D

 40 43  0  0  1  0  0  0  0  0999 V2000
   37.1970   24.8410   32.6520 C   0  0  2  0  0  0  0  0  0  0  0  0
   36.1600   23.9050   32.1040 C   0  0  1  0  0  0  0  0  0  0  0  0
   35.3070   24.6300   31.3290 O   0  0  0  0  0  0  0  0  0  0  0  0
   35.8530   25.8880   31.0980 C   0  0  0  0  0  0  0  0  0  0  0  0
   37.3250   25.8060   31.4310 C   0  0  1  0  0  0  0  0  0  0  0  0
   36.8900   25.4410   33.5050 H   0  0  0  0  0  0  0  0  0  0  0  0
   35.6600   23.3590   32.9420 H   0  0  0  0  0  0  0  0  0  0  0  0
   35.2750   26.5840   31.6940 H   0  0  0  0  0  0  0  0  0  0  0  0
   35.7420   26.1420   30.0040 H   0  0  0  0  0  0  0  0  0  0  0  0
   37.9010   25.2860   30.6730 H   0  0  0  0  0  0  0  0  0  0  0  0
   38.4240   24.1710   32.8360 O   0  0  0  0  0  0  0  0  0  0  0  0
   39.0810   24.4590   32.1540 H   0  0  0  0  0  0  0  0  0  0  0  0
   37.0220   22.6960   31.0160 S   0  0  0  0  0  0  0  0  0  0  0  0
   35.5420   19.6430   33.0640 C   0  0  0  0  0  0  0  0  0  0  0  0
   35.6940   18.5340   32.2220 C   0  0  0  0  0  0  0  0  0  0  0  0
   36.2820   18.7490   30.9640 C   0  0  0  0  0  0  0  0  0  0  0  0
   36.6660   20.0030   30.6380 N   0  0  0  0  0  0  0  0  0  0  0  0
   36.5020   21.0490   31.4780 C   0  0  0  0  0  0  0  0  0  0  0  0
   35.9370   20.8820   32.7030 N   0  0  0  0  0  0  0  0  0  0  0  0
   35.0850   19.4340   34.0240 H   0  0  0  0  0  0  0  0  0  0  0  0
   35.3620   17.5520   32.5510 H   0  0  0  0  0  0  0  0  0  0  0  0
   36.4110   17.9140   30.2980 H   0  0  0  0  0  0  0  0  0  0  0  0
   37.7590   27.0470   31.8290 O   0  0  0  0  0  0  0  0  0  0  0  0
   36.5900   27.8960   34.3950 Cl  0  0  0  0  0  0  0  0  0  0  0  0
   36.4860   28.6820   32.8390 C   0  0  0  0  0  0  0  0  0  0  0  0
   37.0950   28.1910   31.7070 C   0  0  0  0  0  0  0  0  0  0  0  0
   36.9710   28.9260   30.5260 C   0  0  0  0  0  0  0  0  0  0  0  0
   36.2580   30.1080   30.5060 C   0  0  0  0  0  0  0  0  0  0  0  0
   35.6420   30.6090   31.6410 C   0  0  0  0  0  0  0  0  0  0  0  0
   35.7720   29.8710   32.8040 C   0  0  0  0  0  0  0  0  0  0  0  0
   37.4090   28.6420   29.5860 H   0  0  0  0  0  0  0  0  0  0  0  0
   36.1250   30.7220   29.6270 H   0  0  0  0  0  0  0  0  0  0  0  0
   35.0750   31.5260   31.6740 H   0  0  0  0  0  0  0  0  0  0  0  0
   35.1300   30.3770   34.0170 C   0  0  0  0  0  0  0  0  0  0  0  0
   33.8690   30.1810   34.4490 N   0  0  0  0  0  0  0  0  0  0  0  0
   33.6630   30.8260   35.6280 C   0  0  0  0  0  0  0  0  0  0  0  0
   32.8060   30.9010   36.2650 H   0  0  0  0  0  0  0  0  0  0  0  0
   34.8200   31.4240   35.9160 N   0  0  0  0  0  0  0  0  0  0  0  0
   35.1670   32.0320   36.7030 H   0  0  0  0  0  0  0  0  0  0  0  0
   35.6830   31.1540   34.9570 N   0  0  0  0  0  0  0  0  0  0  0  0
  1 11  1  0  0  0  0
  1  6  1  1  0  0  0
  2  1  1  0  0  0  0
  2  7  1  1  0  0  0
  3  2  1  0  0  0  0
  4  3  1  0  0  0  0
  4  5  1  0  0  0  0
  4  8  1  0  0  0  0
  5 10  1  6  0  0  0
  5 23  1  0  0  0  0
  5  1  1  0  0  0  0
  9  4  1  0  0  0  0
 12 11  1  0  0  0  0
 13 18  1  0  0  0  0
 13  2  1  0  0  0  0
 14 20  1  0  0  0  0
 15 21  1  0  0  0  0
 15 14  2  0  0  0  0
 16 15  1  0  0  0  0
 17 16  2  0  0  0  0
 17 18  1  0  0  0  0
 18 19  2  0  0  0  0
 19 14  1  0  0  0  0
 22 16  1  0  0  0  0
 25 24  1  0  0  0  0
 26 23  1  0  0  0  0
 26 25  2  0  0  0  0
 27 26  1  0  0  0  0
 28 27  2  0  0  0  0
 28 29  1  0  0  0  0
 29 33  1  0  0  0  0
 29 30  2  0  0  0  0
 30 25  1  0  0  0  0
 30 34  1  0  0  0  0
 31 27  1  0  0  0  0
 32 28  1  0  0  0  0
 34 35  1  0  0  0  0
 34 40  2  0  0  0  0
 35 36  2  0  0  0  0
 36 38  1  0  0  0  0
 36 37  1  0  0  0  0
 38 39  1  0  0  0  0
 40 38  1  0  0  0  0
M  END
>  <minimizedAffinity>
-5.19170237

$$$$

 OpenBabel03272506493D

 40 43  0  0  1  0  0  0  0  0999 V2000
   37.0170   26.0260   33.0240 C   0  0  2  0  0  0  0  0  0  0  0  0
   38.1290   25.1680   32.4970 C   0  0  1  0  0  0  0  0  0  0  0  0
   38.3730   25.5360   31.2100 O   0  0  0  0  0  0  0  0  0  0  0  0
   37.7180   26.7350   30.9440 C   0  0  0  0  0  0  0  0  0  0  0  0
   37.3580   27.3530   32.2750 C   0  0  1  0  0  0  0  0  0  0  0  0
   36.0130   25.7380   32.7240 H   0  0  0  0  0  0  0  0  0  0  0  0
   37.8650   24.0880   32.6190 H   0  0  0  0  0  0  0  0  0  0  0  0
   36.8830   26.4880   30.2990 H   0  0  0  0  0  0  0  0  0  0  0  0
   38.4250   27.4270   30.4010 H   0  0  0  0  0  0  0  0  0  0  0  0
   38.2120   27.7950   32.7800 H   0  0  0  0  0  0  0  0  0  0  0  0
   37.1620   26.2340   34.4110 O   0  0  0  0  0  0  0  0  0  0  0  0
   37.4480   27.1640   34.5940 H   0  0  0  0  0  0  0  0  0  0  0  0
   39.6360   25.5420   33.4860 S   0  0  0  0  0  0  0  0  0  0  0  0
   41.2550   22.9840   36.0430 C   0  0  0  0  0  0  0  0  0  0  0  0
   40.1690   22.3140   36.6220 C   0  0  0  0  0  0  0  0  0  0  0  0
   38.8800   22.6770   36.1970 C   0  0  0  0  0  0  0  0  0  0  0  0
   38.7590   23.6440   35.2600 N   0  0  0  0  0  0  0  0  0  0  0  0
   39.8310   24.2680   34.7250 C   0  0  0  0  0  0  0  0  0  0  0  0
   41.0940   23.9460   35.1090 N   0  0  0  0  0  0  0  0  0  0  0  0
   42.2300   22.6740   36.3980 H   0  0  0  0  0  0  0  0  0  0  0  0
   40.3420   21.5450   37.3710 H   0  0  0  0  0  0  0  0  0  0  0  0
   38.0290   22.1780   36.6250 H   0  0  0  0  0  0  0  0  0  0  0  0
   36.2370   28.1300   32.1140 O   0  0  0  0  0  0  0  0  0  0  0  0
   35.2210   28.7220   34.8150 Cl  0  0  0  0  0  0  0  0  0  0  0  0
   35.6670   29.8420   33.5500 C   0  0  0  0  0  0  0  0  0  0  0  0
   36.1480   29.4390   32.3250 C   0  0  0  0  0  0  0  0  0  0  0  0
   36.5060   30.4270   31.4060 C   0  0  0  0  0  0  0  0  0  0  0  0
   36.3770   31.7640   31.7260 C   0  0  0  0  0  0  0  0  0  0  0  0
   35.8930   32.1780   32.9560 C   0  0  0  0  0  0  0  0  0  0  0  0
   35.5420   31.1880   33.8580 C   0  0  0  0  0  0  0  0  0  0  0  0
   36.8980   30.2290   30.4250 H   0  0  0  0  0  0  0  0  0  0  0  0
   36.6360   32.5750   31.0610 H   0  0  0  0  0  0  0  0  0  0  0  0
   35.7750   33.2080   33.2510 H   0  0  0  0  0  0  0  0  0  0  0  0
   35.0270   31.5980   35.1640 C   0  0  0  0  0  0  0  0  0  0  0  0
   33.7520   31.8290   35.5340 N   0  0  0  0  0  0  0  0  0  0  0  0
   33.6940   32.1930   36.8430 C   0  0  0  0  0  0  0  0  0  0  0  0
   32.8730   32.4500   37.4810 H   0  0  0  0  0  0  0  0  0  0  0  0
   34.9550   32.1830   37.2740 N   0  0  0  0  0  0  0  0  0  0  0  0
   35.4290   32.3870   38.1930 H   0  0  0  0  0  0  0  0  0  0  0  0
   35.7390   31.8300   36.2740 N   0  0  0  0  0  0  0  0  0  0  0  0
  1  6  1  6  0  0  0
  1 11  1  0  0  0  0
  2  7  1  1  0  0  0
  2  1  1  0  0  0  0
  2 13  1  0  0  0  0
  3  2  1  0  0  0  0
  4  3  1  0  0  0  0
  4  5  1  0  0  0  0
  5 10  1  1  0  0  0
  5  1  1  0  0  0  0
  8  4  1  0  0  0  0
  9  4  1  0  0  0  0
 11 12  1  0  0  0  0
 13 18  1  0  0  0  0
 14 20  1  0  0  0  0
 14 15  1  0  0  0  0
 15 21  1  0  0  0  0
 16 15  2  0  0  0  0
 16 22  1  0  0  0  0
 17 16  1  0  0  0  0
 18 19  1  0  0  0  0
 18 17  2  0  0  0  0
 19 14  2  0  0  0  0
 23  5  1  0  0  0  0
 23 26  1  0  0  0  0
 25 30  1  0  0  0  0
 25 24  1  0  0  0  0
 26 25  2  0  0  0  0
 27 28  2  0  0  0  0
 27 26  1  0  0  0  0
 28 29  1  0  0  0  0
 29 33  1  0  0  0  0
 29 30  2  0  0  0  0
 30 34  1  0  0  0  0
 31 27  1  0  0  0  0
 32 28  1  0  0  0  0
 34 35  1  0  0  0  0
 34 40  2  0  0  0  0
 35 36  2  0  0  0  0
 36 38  1  0  0  0  0
 36 37  1  0  0  0  0
 38 39  1  0  0  0  0
 40 38  1  0  0  0  0
M  END
>  <minimizedAffinity>
-5.16203165

$$$$
