
 OpenBabel03272506473D

 40 43  0  0  1  0  0  0  0  0999 V2000
   32.1730   28.4590   47.4860 C   0  0  2  0  0  0  0  0  0  0  0  0
   33.4370   28.2540   48.2680 C   0  0  1  0  0  0  0  0  0  0  0  0
   33.8050   26.9490   48.1390 O   0  0  0  0  0  0  0  0  0  0  0  0
   33.0580   26.3600   47.1240 C   0  0  0  0  0  0  0  0  0  0  0  0
   32.4560   27.4780   46.3040 C   0  0  1  0  0  0  0  0  0  0  0  0
   31.2580   28.1250   47.9670 H   0  0  0  0  0  0  0  0  0  0  0  0
   33.2860   28.5800   49.3270 H   0  0  0  0  0  0  0  0  0  0  0  0
   32.3500   25.7010   47.6120 H   0  0  0  0  0  0  0  0  0  0  0  0
   33.7460   25.7560   46.4640 H   0  0  0  0  0  0  0  0  0  0  0  0
   33.1780   27.9610   45.6540 H   0  0  0  0  0  0  0  0  0  0  0  0
   32.1090   29.7740   46.9820 O   0  0  0  0  0  0  0  0  0  0  0  0
   32.2590   29.7780   46.0030 H   0  0  0  0  0  0  0  0  0  0  0  0
   34.7460   29.2890   47.4920 S   0  0  0  0  0  0  0  0  0  0  0  0
   37.1240   29.3010   50.6620 C   0  0  0  0  0  0  0  0  0  0  0  0
   37.6070   30.6120   50.7480 C   0  0  0  0  0  0  0  0  0  0  0  0
   37.1740   31.5300   49.7760 C   0  0  0  0  0  0  0  0  0  0  0  0
   36.3200   31.1000   48.8190 N   0  0  0  0  0  0  0  0  0  0  0  0
   35.8760   29.8250   48.7700 C   0  0  0  0  0  0  0  0  0  0  0  0
   36.2720   28.9080   49.6900 N   0  0  0  0  0  0  0  0  0  0  0  0
   37.4820   28.6260   51.4300 H   0  0  0  0  0  0  0  0  0  0  0  0
   38.2930   30.8880   51.5460 H   0  0  0  0  0  0  0  0  0  0  0  0
   37.5290   32.5440   49.8180 H   0  0  0  0  0  0  0  0  0  0  0  0
   31.2840   27.0340   45.7430 O   0  0  0  0  0  0  0  0  0  0  0  0
   30.0430   29.3180   44.3570 Cl  0  0  0  0  0  0  0  0  0  0  0  0
   29.3780   28.3260   45.6330 C   0  0  0  0  0  0  0  0  0  0  0  0
   30.0560   27.2680   46.1930 C   0  0  0  0  0  0  0  0  0  0  0  0
   29.4070   26.5260   47.1820 C   0  0  0  0  0  0  0  0  0  0  0  0
   28.1260   26.8520   47.5790 C   0  0  0  0  0  0  0  0  0  0  0  0
   27.4370   27.9160   47.0210 C   0  0  0  0  0  0  0  0  0  0  0  0
   28.0910   28.6440   46.0420 C   0  0  0  0  0  0  0  0  0  0  0  0
   29.8370   25.6770   47.6820 H   0  0  0  0  0  0  0  0  0  0  0  0
   27.5710   26.3190   48.3360 H   0  0  0  0  0  0  0  0  0  0  0  0
   26.4360   28.2090   47.2970 H   0  0  0  0  0  0  0  0  0  0  0  0
   27.3860   29.7730   45.4370 C   0  0  0  0  0  0  0  0  0  0  0  0
   26.7000   29.8170   44.2760 N   0  0  0  0  0  0  0  0  0  0  0  0
   26.1910   31.0600   44.0710 C   0  0  0  0  0  0  0  0  0  0  0  0
   25.6020   31.4720   43.2780 H   0  0  0  0  0  0  0  0  0  0  0  0
   26.5740   31.7840   45.1240 N   0  0  0  0  0  0  0  0  0  0  0  0
   26.4370   32.7830   45.4290 H   0  0  0  0  0  0  0  0  0  0  0  0
   27.2810   31.0140   45.9280 N   0  0  0  0  0  0  0  0  0  0  0  0
  1  6  1  1  0  0  0
  1  2  1  0  0  0  0
  2  7  1  1  0  0  0
  3  2  1  0  0  0  0
  4  8  1  0  0  0  0
  4  3  1  0  0  0  0
  5 10  1  6  0  0  0
  5  4  1  0  0  0  0
  5  1  1  0  0  0  0
  9  4  1  0  0  0  0
 11  1  1  0  0  0  0
 12 11  1  0  0  0  0
 13  2  1  0  0  0  0
 13 18  1  0  0  0  0
 14 15  1  0  0  0  0
 14 20  1  0  0  0  0
 15 21  1  0  0  0  0
 16 22  1  0  0  0  0
 16 15  2  0  0  0  0
 17 16  1  0  0  0  0
 18 17  2  0  0  0  0
 18 19  1  0  0  0  0
 19 14  2  0  0  0  0
 23 26  1  0  0  0  0
 23  5  1  0  0  0  0
 24 25  1  0  0  0  0
 25 30  2  0  0  0  0
 25 26  1  0  0  0  0
 26 27  2  0  0  0  0
 27 28  1  0  0  0  0
 27 31  1  0  0  0  0
 28 32  1  0  0  0  0
 29 33  1  0  0  0  0
 29 28  2  0  0  0  0
 30 29  1  0  0  0  0
 34 40  2  0  0  0  0
 34 30  1  0  0  0  0
 35 34  1  0  0  0  0
 36 35  2  0  0  0  0
 36 38  1  0  0  0  0
 37 36  1  0  0  0  0
 38 39  1  0  0  0  0
 38 40  1  0  0  0  0
M  END
>  <minimizedAffinity>
-5.13076687

>  <minimizedRMSD>
0.33357814

$$$$
