
 OpenBabel03272506473D

 40 43  0  0  1  0  0  0  0  0999 V2000
   32.1130   28.4440   47.4490 C   0  0  2  0  0  0  0  0  0  0  0  0
   33.3670   28.2780   48.2570 C   0  0  1  0  0  0  0  0  0  0  0  0
   33.7690   26.9830   48.1480 O   0  0  0  0  0  0  0  0  0  0  0  0
   33.0560   26.3640   47.1260 C   0  0  0  0  0  0  0  0  0  0  0  0
   32.4420   27.4580   46.2840 C   0  0  1  0  0  0  0  0  0  0  0  0
   31.1970   28.0930   47.9170 H   0  0  0  0  0  0  0  0  0  0  0  0
   33.1870   28.6120   49.3090 H   0  0  0  0  0  0  0  0  0  0  0  0
   32.3560   25.6930   47.6080 H   0  0  0  0  0  0  0  0  0  0  0  0
   33.7710   25.7710   46.4860 H   0  0  0  0  0  0  0  0  0  0  0  0
   33.1640   27.9530   45.6410 H   0  0  0  0  0  0  0  0  0  0  0  0
   32.0250   29.7520   46.9300 O   0  0  0  0  0  0  0  0  0  0  0  0
   32.1930   29.7490   45.9540 H   0  0  0  0  0  0  0  0  0  0  0  0
   34.6630   29.3380   47.4930 S   0  0  0  0  0  0  0  0  0  0  0  0
   37.0880   29.2710   50.6270 C   0  0  0  0  0  0  0  0  0  0  0  0
   37.5580   30.5840   50.7510 C   0  0  0  0  0  0  0  0  0  0  0  0
   37.1000   31.5290   49.8160 C   0  0  0  0  0  0  0  0  0  0  0  0
   36.2370   31.1220   48.8590 N   0  0  0  0  0  0  0  0  0  0  0  0
   35.8060   29.8440   48.7720 C   0  0  0  0  0  0  0  0  0  0  0  0
   36.2260   28.9010   49.6560 N   0  0  0  0  0  0  0  0  0  0  0  0
   37.4650   28.5750   51.3670 H   0  0  0  0  0  0  0  0  0  0  0  0
   38.2520   30.8410   51.5480 H   0  0  0  0  0  0  0  0  0  0  0  0
   37.4450   32.5450   49.8880 H   0  0  0  0  0  0  0  0  0  0  0  0
   31.2910   26.9790   45.7050 O   0  0  0  0  0  0  0  0  0  0  0  0
   30.0040   29.1460   44.1820 Cl  0  0  0  0  0  0  0  0  0  0  0  0
   29.3480   28.2020   45.4980 C   0  0  0  0  0  0  0  0  0  0  0  0
   30.0500   27.1970   46.1240 C   0  0  0  0  0  0  0  0  0  0  0  0
   29.4080   26.4870   47.1410 C   0  0  0  0  0  0  0  0  0  0  0  0
   28.1100   26.7920   47.4990 C   0  0  0  0  0  0  0  0  0  0  0  0
   27.3980   27.8020   46.8750 C   0  0  0  0  0  0  0  0  0  0  0  0
   28.0450   28.4990   45.8690 C   0  0  0  0  0  0  0  0  0  0  0  0
   29.8560   25.6800   47.6920 H   0  0  0  0  0  0  0  0  0  0  0  0
   27.5590   26.2820   48.2760 H   0  0  0  0  0  0  0  0  0  0  0  0
   26.3840   28.0770   47.1200 H   0  0  0  0  0  0  0  0  0  0  0  0
   27.3150   29.5710   45.1940 C   0  0  0  0  0  0  0  0  0  0  0  0
   26.6260   29.5250   44.0370 N   0  0  0  0  0  0  0  0  0  0  0  0
   26.0910   30.7410   43.7510 C   0  0  0  0  0  0  0  0  0  0  0  0
   25.4910   31.0890   42.9340 H   0  0  0  0  0  0  0  0  0  0  0  0
   26.4610   31.5400   44.7530 N   0  0  0  0  0  0  0  0  0  0  0  0
   26.3050   32.5540   44.9930 H   0  0  0  0  0  0  0  0  0  0  0  0
   27.1860   30.8390   45.6030 N   0  0  0  0  0  0  0  0  0  0  0  0
  1  6  1  1  0  0  0
  1  2  1  0  0  0  0
  2  7  1  1  0  0  0
  3  2  1  0  0  0  0
  4  8  1  0  0  0  0
  4  3  1  0  0  0  0
  5 10  1  6  0  0  0
  5  4  1  0  0  0  0
  5  1  1  0  0  0  0
  9  4  1  0  0  0  0
 11  1  1  0  0  0  0
 12 11  1  0  0  0  0
 13  2  1  0  0  0  0
 13 18  1  0  0  0  0
 14 15  1  0  0  0  0
 14 20  1  0  0  0  0
 15 21  1  0  0  0  0
 16 22  1  0  0  0  0
 16 15  2  0  0  0  0
 17 16  1  0  0  0  0
 18 17  2  0  0  0  0
 18 19  1  0  0  0  0
 19 14  2  0  0  0  0
 23 26  1  0  0  0  0
 23  5  1  0  0  0  0
 24 25  1  0  0  0  0
 25 30  2  0  0  0  0
 25 26  1  0  0  0  0
 26 27  2  0  0  0  0
 27 28  1  0  0  0  0
 27 31  1  0  0  0  0
 28 32  1  0  0  0  0
 29 33  1  0  0  0  0
 29 28  2  0  0  0  0
 30 29  1  0  0  0  0
 34 40  2  0  0  0  0
 34 30  1  0  0  0  0
 35 34  1  0  0  0  0
 36 35  2  0  0  0  0
 36 38  1  0  0  0  0
 37 36  1  0  0  0  0
 38 39  1  0  0  0  0
 38 40  1  0  0  0  0
M  END
>  <minimizedAffinity>
-5.11047697

>  <minimizedRMSD>
0.284086764

$$$$
