REMARK  Name = 
REMARK  7 active torsions:
REMARK  status: ('A' for Active; 'I' for Inactive)
REMARK    1  A    between atoms: C_3  and  C_9
REMARK    2  A    between atoms: C_5  and  O_14
REMARK    3  A    between atoms: O_14  and  C_15
REMARK    4  A    between atoms: C_15  and  C_16
REMARK    5  A    between atoms: C_16  and  C_17
REMARK    6  A    between atoms: C_21  and  C_23
REMARK    7  A    between atoms: C_23  and  C_38
REMARK                            x       y       z     vdW  Elec       q    Type
REMARK                         _______ _______ _______ _____ _____    ______ ____
ROOT
ATOM      1  C   UNL     1      34.444  28.640  48.185  0.00  0.00    +0.000 C 
ATOM      2  H   UNL     1      35.245  28.903  47.441  0.00  0.00    +0.000 HD
ATOM      3  H   UNL     1      33.823  29.549  48.280  0.00  0.00    +0.000 HD
ENDROOT
BRANCH   1   4
ATOM      4  C   UNL     1      33.557  27.527  47.710  0.00  0.00    +0.000 C 
ATOM      5  H   UNL     1      33.816  27.345  46.644  0.00  0.00    +0.000 HD
ATOM      6  H   UNL     1      33.706  26.604  48.308  0.00  0.00    +0.000 HD
BRANCH   4   7
ATOM      7  C   UNL     1      32.121  27.890  47.742  0.00  0.00    +0.000 A 
ATOM      8  C   UNL     1      31.371  27.483  48.839  0.00  0.00    +0.000 A 
ATOM      9  C   UNL     1      30.037  27.769  48.961  0.00  0.00    +0.000 A 
ATOM     10  N   UNL     1      29.431  28.459  48.003  0.00  0.00    +0.000 NA
ATOM     11  C   UNL     1      30.172  28.853  46.933  0.00  0.00    +0.000 A 
ATOM     12  N   UNL     1      31.475  28.593  46.779  0.00  0.00    +0.000 NA
ATOM     13  H   UNL     1      31.824  26.916  49.646  0.00  0.00    +0.000 HD
ATOM     14  H   UNL     1      29.440  27.461  49.804  0.00  0.00    +0.000 HD
BRANCH  11  15
ATOM     15  C   UNL     1      29.450  29.632  45.871  0.00  0.00    +0.000 C 
ATOM     16  H   UNL     1      28.544  30.129  46.311  0.00  0.00    +0.000 HD
ATOM     17  H   UNL     1      30.092  30.303  45.306  0.00  0.00    +0.000 HD
BRANCH  15  18
ATOM     18  C   UNL     1      28.935  28.596  44.914  0.00  0.00    +0.000 A 
ATOM     19  N   UNL     1      29.736  27.732  44.233  0.00  0.00    +0.000 NA
ATOM     20  C   UNL     1      28.954  26.950  43.472  0.00  0.00    +0.000 A 
ATOM     21  H   UNL     1      29.326  26.167  42.822  0.00  0.00    +0.000 HD
ATOM     22  N   UNL     1      27.662  27.330  43.682  0.00  0.00    +0.000 N 
ATOM     23  H   UNL     1      26.819  26.915  43.238  0.00  0.00    +0.000 HD
ATOM     24  N   UNL     1      27.665  28.313  44.544  0.00  0.00    +0.000 NA
ENDBRANCH  15  18
ENDBRANCH  11  15
ENDBRANCH   4   7
ENDBRANCH   1   4
BRANCH   1  25
ATOM     25  O   UNL     1      34.997  28.353  49.455  0.00  0.00    +0.000 OA
BRANCH  25  30
ATOM     26  C   UNL     1      37.328  30.177  51.510  0.00  0.00    +0.000 A 
ATOM     27  C   UNL     1      38.068  30.866  50.528  0.00  0.00    +0.000 A 
ATOM     28  C   UNL     1      37.708  30.653  49.207  0.00  0.00    +0.000 A 
ATOM     29  N   UNL     1      36.670  29.794  48.989  0.00  0.00    +0.000 NA
ATOM     30  C   UNL     1      35.984  29.152  49.931  0.00  0.00    +0.000 A 
ATOM     31  N   UNL     1      36.336  29.361  51.224  0.00  0.00    +0.000 NA
ATOM     32  H   UNL     1      37.617  30.351  52.535  0.00  0.00    +0.000 HD
ATOM     33  H   UNL     1      38.879  31.538  50.704  0.00  0.00    +0.000 HD
BRANCH  28  36
ATOM     34  F   UNL     1      38.941  33.261  49.023  0.00  0.00    +0.000 F 
ATOM     35  C   UNL     1      38.910  32.472  47.947  0.00  0.00    +0.000 A 
ATOM     36  C   UNL     1      38.332  31.258  48.045  0.00  0.00    +0.000 A 
ATOM     37  C   UNL     1      38.355  30.520  46.869  0.00  0.00    +0.000 A 
ATOM     38  C   UNL     1      38.915  30.985  45.710  0.00  0.00    +0.000 A 
ATOM     39  C   UNL     1      39.496  32.233  45.651  0.00  0.00    +0.000 A 
ATOM     40  C   UNL     1      39.488  32.983  46.798  0.00  0.00    +0.000 A 
ATOM     41  H   UNL     1      37.928  29.526  46.794  0.00  0.00    +0.000 HD
ATOM     42  H   UNL     1      38.932  30.409  44.793  0.00  0.00    +0.000 HD
ATOM     43  H   UNL     1      39.951  32.641  44.757  0.00  0.00    +0.000 HD
ATOM     44  H   UNL     1      39.936  33.966  46.786  0.00  0.00    +0.000 HD
ENDBRANCH  28  36
ENDBRANCH  25  30
ENDBRANCH   1  25
TORSDOF 7
