
 OpenBabel03272509573D

 44 47  0  0  0  0  0  0  0  0999 V2000
   34.4390   28.6200   48.1650 C   0  0  0  0  0  0  0  0  0  0  0  0
   35.2380   28.8700   47.4150 H   0  0  0  0  0  0  0  0  0  0  0  0
   33.8270   29.5360   48.2580 H   0  0  0  0  0  0  0  0  0  0  0  0
   33.5380   27.5130   47.7020 C   0  0  0  0  0  0  0  0  0  0  0  0
   33.7770   27.3340   46.6310 H   0  0  0  0  0  0  0  0  0  0  0  0
   33.6920   26.5870   48.2940 H   0  0  0  0  0  0  0  0  0  0  0  0
   32.1040   27.8830   47.7600 C   0  0  0  0  0  0  0  0  0  0  0  0
   31.3670   27.4590   48.8580 C   0  0  0  0  0  0  0  0  0  0  0  0
   30.0360   27.7500   49.0040 C   0  0  0  0  0  0  0  0  0  0  0  0
   29.4210   28.4620   48.0670 N   0  0  0  0  0  0  0  0  0  0  0  0
   30.1510   28.8730   46.9960 C   0  0  0  0  0  0  0  0  0  0  0  0
   31.4500   28.6090   46.8190 N   0  0  0  0  0  0  0  0  0  0  0  0
   31.8270   26.8740   49.6480 H   0  0  0  0  0  0  0  0  0  0  0  0
   29.4480   27.4290   49.8480 H   0  0  0  0  0  0  0  0  0  0  0  0
   29.4190   29.6760   45.9590 C   0  0  0  0  0  0  0  0  0  0  0  0
   28.9400   30.5720   46.4370 H   0  0  0  0  0  0  0  0  0  0  0  0
   30.0180   29.9100   45.0820 H   0  0  0  0  0  0  0  0  0  0  0  0
   28.2930   28.7920   45.5070 C   0  0  0  0  0  0  0  0  0  0  0  0
   26.9780   29.1090   45.6460 N   0  0  0  0  0  0  0  0  0  0  0  0
   26.2500   28.1030   45.1400 C   0  0  0  0  0  0  0  0  0  0  0  0
   25.1660   28.0890   45.1180 H   0  0  0  0  0  0  0  0  0  0  0  0
   27.1160   27.1560   44.6820 N   0  0  0  0  0  0  0  0  0  0  0  0
   26.8610   26.2540   44.2330 H   0  0  0  0  0  0  0  0  0  0  0  0
   28.3330   27.5780   44.9080 N   0  0  0  0  0  0  0  0  0  0  0  0
   34.9960   28.3350   49.4340 O   0  0  0  0  0  0  0  0  0  0  0  0
   37.3180   30.1740   51.4850 C   0  0  0  0  0  0  0  0  0  0  0  0
   38.0600   30.8590   50.5020 C   0  0  0  0  0  0  0  0  0  0  0  0
   37.7040   30.6370   49.1810 C   0  0  0  0  0  0  0  0  0  0  0  0
   36.6680   29.7760   48.9650 N   0  0  0  0  0  0  0  0  0  0  0  0
   35.9800   29.1380   49.9080 C   0  0  0  0  0  0  0  0  0  0  0  0
   36.3280   29.3550   51.2010 N   0  0  0  0  0  0  0  0  0  0  0  0
   37.6030   30.3540   52.5100 H   0  0  0  0  0  0  0  0  0  0  0  0
   38.8690   31.5330   50.6760 H   0  0  0  0  0  0  0  0  0  0  0  0
   38.9590   33.2340   48.9930 F   0  0  0  0  0  0  0  0  0  0  0  0
   38.9190   32.4460   47.9180 C   0  0  0  0  0  0  0  0  0  0  0  0
   38.3300   31.2370   48.0170 C   0  0  0  0  0  0  0  0  0  0  0  0
   38.3440   30.4980   46.8410 C   0  0  0  0  0  0  0  0  0  0  0  0
   38.9050   30.9580   45.6810 C   0  0  0  0  0  0  0  0  0  0  0  0
   39.4970   32.2010   45.6200 C   0  0  0  0  0  0  0  0  0  0  0  0
   39.4980   32.9510   46.7670 C   0  0  0  0  0  0  0  0  0  0  0  0
   37.9080   29.5080   46.7670 H   0  0  0  0  0  0  0  0  0  0  0  0
   38.9150   30.3820   44.7640 H   0  0  0  0  0  0  0  0  0  0  0  0
   39.9530   32.6050   44.7250 H   0  0  0  0  0  0  0  0  0  0  0  0
   39.9550   33.9300   46.7540 H   0  0  0  0  0  0  0  0  0  0  0  0
  1  3  1  0  0  0  0
  1 25  1  0  0  0  0
  2  1  1  0  0  0  0
  4  7  1  0  0  0  0
  4  1  1  0  0  0  0
  4  6  1  0  0  0  0
  5  4  1  0  0  0  0
  7  8  1  0  0  0  0
  8  9  2  0  0  0  0
  8 13  1  0  0  0  0
  9 14  1  0  0  0  0
 10  9  1  0  0  0  0
 11 10  2  0  0  0  0
 12 11  1  0  0  0  0
 12  7  2  0  0  0  0
 15 16  1  0  0  0  0
 15 11  1  0  0  0  0
 17 15  1  0  0  0  0
 18 19  1  0  0  0  0
 18 15  1  0  0  0  0
 20 19  2  0  0  0  0
 21 20  1  0  0  0  0
 22 24  1  0  0  0  0
 22 20  1  0  0  0  0
 23 22  1  0  0  0  0
 24 18  2  0  0  0  0
 25 30  1  0  0  0  0
 26 32  1  0  0  0  0
 27 33  1  0  0  0  0
 27 26  2  0  0  0  0
 28 27  1  0  0  0  0
 29 28  2  0  0  0  0
 29 30  1  0  0  0  0
 30 31  2  0  0  0  0
 31 26  1  0  0  0  0
 35 36  1  0  0  0  0
 35 34  1  0  0  0  0
 36 28  1  0  0  0  0
 37 36  2  0  0  0  0
 38 37  1  0  0  0  0
 39 38  2  0  0  0  0
 39 40  1  0  0  0  0
 40 35  2  0  0  0  0
 41 37  1  0  0  0  0
 42 38  1  0  0  0  0
 43 39  1  0  0  0  0
 44 40  1  0  0  0  0
M  END
>  <minimizedAffinity>
-6.49625731

>  <minimizedRMSD>
0.6973176

$$$$
