
 OpenBabel03272509593D

 44 47  0  0  0  0  0  0  0  0999 V2000
   36.3330   26.0860   31.8830 C   0  0  0  0  0  0  0  0  0  0  0  0
   35.8830   26.6030   30.9920 H   0  0  0  0  0  0  0  0  0  0  0  0
   35.5740   25.3530   32.2110 H   0  0  0  0  0  0  0  0  0  0  0  0
   37.5830   25.3290   31.5420 C   0  0  0  0  0  0  0  0  0  0  0  0
   37.3700   24.7670   30.6060 H   0  0  0  0  0  0  0  0  0  0  0  0
   38.4460   26.0120   31.3960 H   0  0  0  0  0  0  0  0  0  0  0  0
   37.9390   24.3240   32.5700 C   0  0  0  0  0  0  0  0  0  0  0  0
   37.2500   23.1160   32.5650 C   0  0  0  0  0  0  0  0  0  0  0  0
   37.5050   22.1240   33.4740 C   0  0  0  0  0  0  0  0  0  0  0  0
   38.4420   22.3130   34.3950 N   0  0  0  0  0  0  0  0  0  0  0  0
   39.1110   23.4970   34.3930 C   0  0  0  0  0  0  0  0  0  0  0  0
   38.8900   24.4880   33.5220 N   0  0  0  0  0  0  0  0  0  0  0  0
   36.4750   22.9180   31.8320 H   0  0  0  0  0  0  0  0  0  0  0  0
   36.9810   21.1820   33.4860 H   0  0  0  0  0  0  0  0  0  0  0  0
   40.1640   23.6710   35.4500 C   0  0  0  0  0  0  0  0  0  0  0  0
   40.8990   22.8240   35.4010 H   0  0  0  0  0  0  0  0  0  0  0  0
   40.6230   24.6560   35.4530 H   0  0  0  0  0  0  0  0  0  0  0  0
   39.4330   23.5160   36.7530 C   0  0  0  0  0  0  0  0  0  0  0  0
   38.3350   24.2440   37.0950 N   0  0  0  0  0  0  0  0  0  0  0  0
   37.9400   23.8520   38.3160 C   0  0  0  0  0  0  0  0  0  0  0  0
   37.0860   24.2650   38.8390 H   0  0  0  0  0  0  0  0  0  0  0  0
   38.7960   22.8770   38.7340 N   0  0  0  0  0  0  0  0  0  0  0  0
   38.7560   22.3700   39.6410 H   0  0  0  0  0  0  0  0  0  0  0  0
   39.6820   22.6860   37.7920 N   0  0  0  0  0  0  0  0  0  0  0  0
   36.5540   26.9930   32.9470 O   0  0  0  0  0  0  0  0  0  0  0  0
   36.4010   30.3200   31.5720 C   0  0  0  0  0  0  0  0  0  0  0  0
   35.7930   31.0200   32.6330 C   0  0  0  0  0  0  0  0  0  0  0  0
   35.4730   30.2890   33.7650 C   0  0  0  0  0  0  0  0  0  0  0  0
   35.7790   28.9590   33.7390 N   0  0  0  0  0  0  0  0  0  0  0  0
   36.3540   28.3160   32.7260 C   0  0  0  0  0  0  0  0  0  0  0  0
   36.6680   29.0320   31.6180 N   0  0  0  0  0  0  0  0  0  0  0  0
   36.6460   30.9000   30.6950 H   0  0  0  0  0  0  0  0  0  0  0  0
   35.5550   32.0610   32.6490 H   0  0  0  0  0  0  0  0  0  0  0  0
   36.6730   31.9440   35.8090 F   0  0  0  0  0  0  0  0  0  0  0  0
   35.3940   31.5800   35.9260 C   0  0  0  0  0  0  0  0  0  0  0  0
   34.8450   30.8080   34.9670 C   0  0  0  0  0  0  0  0  0  0  0  0
   33.5120   30.4880   35.1860 C   0  0  0  0  0  0  0  0  0  0  0  0
   32.8150   30.9190   36.2820 C   0  0  0  0  0  0  0  0  0  0  0  0
   33.4130   31.7080   37.2410 C   0  0  0  0  0  0  0  0  0  0  0  0
   34.7290   32.0390   37.0490 C   0  0  0  0  0  0  0  0  0  0  0  0
   32.9370   29.8740   34.5020 H   0  0  0  0  0  0  0  0  0  0  0  0
   31.7750   30.6690   36.4530 H   0  0  0  0  0  0  0  0  0  0  0  0
   32.9000   32.0720   38.1230 H   0  0  0  0  0  0  0  0  0  0  0  0
   35.2270   32.6560   37.7820 H   0  0  0  0  0  0  0  0  0  0  0  0
  1  3  1  0  0  0  0
  1 25  1  0  0  0  0
  2  1  1  0  0  0  0
  4  1  1  0  0  0  0
  4  7  1  0  0  0  0
  5  4  1  0  0  0  0
  6  4  1  0  0  0  0
  7 12  1  0  0  0  0
  8  7  2  0  0  0  0
  8  9  1  0  0  0  0
  9 14  1  0  0  0  0
  9 10  2  0  0  0  0
 11 10  1  0  0  0  0
 11 15  1  0  0  0  0
 12 11  2  0  0  0  0
 13  8  1  0  0  0  0
 15 17  1  0  0  0  0
 15 18  1  0  0  0  0
 16 15  1  0  0  0  0
 18 19  1  0  0  0  0
 18 24  2  0  0  0  0
 19 20  2  0  0  0  0
 20 22  1  0  0  0  0
 20 21  1  0  0  0  0
 22 23  1  0  0  0  0
 24 22  1  0  0  0  0
 26 31  2  0  0  0  0
 26 27  1  0  0  0  0
 27 33  1  0  0  0  0
 27 28  2  0  0  0  0
 28 36  1  0  0  0  0
 29 28  1  0  0  0  0
 30 25  1  0  0  0  0
 30 29  2  0  0  0  0
 31 30  1  0  0  0  0
 32 26  1  0  0  0  0
 34 35  1  0  0  0  0
 35 40  1  0  0  0  0
 36 37  1  0  0  0  0
 36 35  2  0  0  0  0
 37 38  2  0  0  0  0
 38 42  1  0  0  0  0
 38 39  1  0  0  0  0
 39 43  1  0  0  0  0
 40 39  2  0  0  0  0
 40 44  1  0  0  0  0
 41 37  1  0  0  0  0
M  END
>  <minimizedAffinity>
-6.3066268

$$$$

 OpenBabel03272509593D

 44 47  0  0  0  0  0  0  0  0999 V2000
   37.9290   27.4270   35.3280 C   0  0  0  0  0  0  0  0  0  0  0  0
   37.2260   27.4480   36.2050 H   0  0  0  0  0  0  0  0  0  0  0  0
   38.3450   28.4490   35.2630 H   0  0  0  0  0  0  0  0  0  0  0  0
   39.0740   26.4780   35.5260 C   0  0  0  0  0  0  0  0  0  0  0  0
   39.6860   26.5180   34.5990 H   0  0  0  0  0  0  0  0  0  0  0  0
   39.6870   26.7580   36.4080 H   0  0  0  0  0  0  0  0  0  0  0  0
   38.6280   25.0740   35.6810 C   0  0  0  0  0  0  0  0  0  0  0  0
   38.0240   24.7110   36.8790 C   0  0  0  0  0  0  0  0  0  0  0  0
   37.5780   23.4380   37.1180 C   0  0  0  0  0  0  0  0  0  0  0  0
   37.7250   22.5120   36.1790 N   0  0  0  0  0  0  0  0  0  0  0  0
   38.3180   22.8750   35.0110 C   0  0  0  0  0  0  0  0  0  0  0  0
   38.7650   24.1060   34.7410 N   0  0  0  0  0  0  0  0  0  0  0  0
   37.8830   25.4350   37.6750 H   0  0  0  0  0  0  0  0  0  0  0  0
   37.1080   23.1390   38.0410 H   0  0  0  0  0  0  0  0  0  0  0  0
   38.4650   21.7980   33.9740 C   0  0  0  0  0  0  0  0  0  0  0  0
   39.2210   22.1100   33.2040 H   0  0  0  0  0  0  0  0  0  0  0  0
   38.6400   20.8090   34.3890 H   0  0  0  0  0  0  0  0  0  0  0  0
   37.1410   21.7580   33.2670 C   0  0  0  0  0  0  0  0  0  0  0  0
   36.8100   22.5820   32.2350 N   0  0  0  0  0  0  0  0  0  0  0  0
   35.5630   22.2780   31.8430 C   0  0  0  0  0  0  0  0  0  0  0  0
   35.0420   22.7770   31.0360 H   0  0  0  0  0  0  0  0  0  0  0  0
   35.1180   21.2610   32.6350 N   0  0  0  0  0  0  0  0  0  0  0  0
   34.1860   20.8010   32.5810 H   0  0  0  0  0  0  0  0  0  0  0  0
   36.0690   20.9610   33.4800 N   0  0  0  0  0  0  0  0  0  0  0  0
   37.2380   27.1590   34.1230 O   0  0  0  0  0  0  0  0  0  0  0  0
   35.5390   29.3940   31.8650 C   0  0  0  0  0  0  0  0  0  0  0  0
   34.9340   30.2850   32.7750 C   0  0  0  0  0  0  0  0  0  0  0  0
   35.1570   30.0520   34.1230 C   0  0  0  0  0  0  0  0  0  0  0  0
   35.9420   28.9790   34.4340 N   0  0  0  0  0  0  0  0  0  0  0  0
   36.5030   28.1490   33.5590 C   0  0  0  0  0  0  0  0  0  0  0  0
   36.2850   28.3780   32.2400 N   0  0  0  0  0  0  0  0  0  0  0  0
   35.3580   29.5860   30.8190 H   0  0  0  0  0  0  0  0  0  0  0  0
   34.3220   31.1230   32.5260 H   0  0  0  0  0  0  0  0  0  0  0  0
   36.6320   31.7710   35.9180 F   0  0  0  0  0  0  0  0  0  0  0  0
   35.3120   31.6460   36.0660 C   0  0  0  0  0  0  0  0  0  0  0  0
   34.6340   30.8410   35.2220 C   0  0  0  0  0  0  0  0  0  0  0  0
   33.2680   30.7840   35.4640 C   0  0  0  0  0  0  0  0  0  0  0  0
   32.6610   31.4840   36.4710 C   0  0  0  0  0  0  0  0  0  0  0  0
   33.3890   32.2960   37.3130 C   0  0  0  0  0  0  0  0  0  0  0  0
   34.7410   32.3720   37.0970 C   0  0  0  0  0  0  0  0  0  0  0  0
   32.5940   30.1790   34.8680 H   0  0  0  0  0  0  0  0  0  0  0  0
   31.5950   31.4390   36.6590 H   0  0  0  0  0  0  0  0  0  0  0  0
   32.9520   32.8680   38.1210 H   0  0  0  0  0  0  0  0  0  0  0  0
   35.3410   33.0000   37.7380 H   0  0  0  0  0  0  0  0  0  0  0  0
  1  4  1  0  0  0  0
  1  2  1  0  0  0  0
  3  1  1  0  0  0  0
  4  7  1  0  0  0  0
  4  6  1  0  0  0  0
  5  4  1  0  0  0  0
  7  8  1  0  0  0  0
  8  9  2  0  0  0  0
  8 13  1  0  0  0  0
  9 14  1  0  0  0  0
 10  9  1  0  0  0  0
 11 10  2  0  0  0  0
 12 11  1  0  0  0  0
 12  7  2  0  0  0  0
 15 17  1  0  0  0  0
 15 11  1  0  0  0  0
 16 15  1  0  0  0  0
 18 24  2  0  0  0  0
 18 15  1  0  0  0  0
 19 18  1  0  0  0  0
 20 19  2  0  0  0  0
 20 22  1  0  0  0  0
 21 20  1  0  0  0  0
 22 24  1  0  0  0  0
 23 22  1  0  0  0  0
 25  1  1  0  0  0  0
 26 31  2  0  0  0  0
 26 27  1  0  0  0  0
 27 28  2  0  0  0  0
 28 29  1  0  0  0  0
 28 36  1  0  0  0  0
 30 25  1  0  0  0  0
 30 29  2  0  0  0  0
 31 30  1  0  0  0  0
 32 26  1  0  0  0  0
 33 27  1  0  0  0  0
 34 35  1  0  0  0  0
 35 40  1  0  0  0  0
 36 37  1  0  0  0  0
 36 35  2  0  0  0  0
 37 38  2  0  0  0  0
 38 42  1  0  0  0  0
 38 39  1  0  0  0  0
 39 43  1  0  0  0  0
 40 39  2  0  0  0  0
 40 44  1  0  0  0  0
 41 37  1  0  0  0  0
M  END
>  <minimizedAffinity>
-6.28532553

$$$$

 OpenBabel03272509593D

 44 47  0  0  0  0  0  0  0  0999 V2000
   35.3540   22.5630   31.3860 C   0  0  0  0  0  0  0  0  0  0  0  0
   34.5160   22.3700   30.6610 H   0  0  0  0  0  0  0  0  0  0  0  0
   34.8910   23.1060   32.2300 H   0  0  0  0  0  0  0  0  0  0  0  0
   35.9530   21.2980   31.9280 C   0  0  0  0  0  0  0  0  0  0  0  0
   35.1350   20.5450   31.9580 H   0  0  0  0  0  0  0  0  0  0  0  0
   36.7880   20.9380   31.2910 H   0  0  0  0  0  0  0  0  0  0  0  0
   36.4430   21.4500   33.3180 C   0  0  0  0  0  0  0  0  0  0  0  0
   35.7190   20.8360   34.3330 C   0  0  0  0  0  0  0  0  0  0  0  0
   36.0910   20.9180   35.6490 C   0  0  0  0  0  0  0  0  0  0  0  0
   37.1780   21.6050   35.9750 N   0  0  0  0  0  0  0  0  0  0  0  0
   37.8800   22.2030   34.9750 C   0  0  0  0  0  0  0  0  0  0  0  0
   37.5490   22.1450   33.6810 N   0  0  0  0  0  0  0  0  0  0  0  0
   34.8230   20.2650   34.1140 H   0  0  0  0  0  0  0  0  0  0  0  0
   35.5420   20.4490   36.4500 H   0  0  0  0  0  0  0  0  0  0  0  0
   39.1040   22.9700   35.3850 C   0  0  0  0  0  0  0  0  0  0  0  0
   40.0060   22.3020   35.3430 H   0  0  0  0  0  0  0  0  0  0  0  0
   39.2280   23.9130   34.8590 H   0  0  0  0  0  0  0  0  0  0  0  0
   38.8910   23.2930   36.8360 C   0  0  0  0  0  0  0  0  0  0  0  0
   37.9540   24.1730   37.2840 N   0  0  0  0  0  0  0  0  0  0  0  0
   38.0360   24.2210   38.6230 C   0  0  0  0  0  0  0  0  0  0  0  0
   37.4050   24.8420   39.2470 H   0  0  0  0  0  0  0  0  0  0  0  0
   39.0280   23.3690   39.0070 N   0  0  0  0  0  0  0  0  0  0  0  0
   39.3350   23.1820   39.9830 H   0  0  0  0  0  0  0  0  0  0  0  0
   39.5300   22.8220   37.9310 N   0  0  0  0  0  0  0  0  0  0  0  0
   36.3420   23.3990   30.8170 O   0  0  0  0  0  0  0  0  0  0  0  0
   35.5640   26.8820   31.3150 C   0  0  0  0  0  0  0  0  0  0  0  0
   36.7270   27.3240   31.9770 C   0  0  0  0  0  0  0  0  0  0  0  0
   37.7140   26.3800   32.2090 C   0  0  0  0  0  0  0  0  0  0  0  0
   37.4590   25.1120   31.7720 N   0  0  0  0  0  0  0  0  0  0  0  0
   36.3530   24.7140   31.1490 C   0  0  0  0  0  0  0  0  0  0  0  0
   35.3870   25.6390   30.9220 N   0  0  0  0  0  0  0  0  0  0  0  0
   34.8020   27.6260   31.1400 H   0  0  0  0  0  0  0  0  0  0  0  0
   36.9220   28.3180   32.3160 H   0  0  0  0  0  0  0  0  0  0  0  0
   38.2790   26.2650   35.0410 F   0  0  0  0  0  0  0  0  0  0  0  0
   39.2600   26.5670   34.1880 C   0  0  0  0  0  0  0  0  0  0  0  0
   38.9840   26.6180   32.8690 C   0  0  0  0  0  0  0  0  0  0  0  0
   40.0740   26.9400   32.0710 C   0  0  0  0  0  0  0  0  0  0  0  0
   41.3210   27.1860   32.5800 C   0  0  0  0  0  0  0  0  0  0  0  0
   41.5610   27.1240   33.9350 C   0  0  0  0  0  0  0  0  0  0  0  0
   40.5030   26.8080   34.7460 C   0  0  0  0  0  0  0  0  0  0  0  0
   40.0060   27.0190   30.9920 H   0  0  0  0  0  0  0  0  0  0  0  0
   42.1700   27.4380   31.9570 H   0  0  0  0  0  0  0  0  0  0  0  0
   42.5310   27.3110   34.3810 H   0  0  0  0  0  0  0  0  0  0  0  0
   40.6580   26.7510   35.8140 H   0  0  0  0  0  0  0  0  0  0  0  0
  1  4  1  0  0  0  0
  1  3  1  0  0  0  0
  2  1  1  0  0  0  0
  4  5  1  0  0  0  0
  4  7  1  0  0  0  0
  6  4  1  0  0  0  0
  7 12  2  0  0  0  0
  7  8  1  0  0  0  0
  8  9  2  0  0  0  0
  9 10  1  0  0  0  0
  9 14  1  0  0  0  0
 11 15  1  0  0  0  0
 11 10  2  0  0  0  0
 12 11  1  0  0  0  0
 13  8  1  0  0  0  0
 15 18  1  0  0  0  0
 16 15  1  0  0  0  0
 17 15  1  0  0  0  0
 18 19  1  0  0  0  0
 18 24  2  0  0  0  0
 19 20  2  0  0  0  0
 20 22  1  0  0  0  0
 20 21  1  0  0  0  0
 22 23  1  0  0  0  0
 24 22  1  0  0  0  0
 25 30  1  0  0  0  0
 25  1  1  0  0  0  0
 26 27  1  0  0  0  0
 27 28  2  0  0  0  0
 27 33  1  0  0  0  0
 28 36  1  0  0  0  0
 29 28  1  0  0  0  0
 30 29  2  0  0  0  0
 31 30  1  0  0  0  0
 31 26  2  0  0  0  0
 32 26  1  0  0  0  0
 35 40  1  0  0  0  0
 35 34  1  0  0  0  0
 36 35  2  0  0  0  0
 37 38  2  0  0  0  0
 37 36  1  0  0  0  0
 38 39  1  0  0  0  0
 39 43  1  0  0  0  0
 39 40  2  0  0  0  0
 40 44  1  0  0  0  0
 41 37  1  0  0  0  0
 42 38  1  0  0  0  0
M  END
>  <minimizedAffinity>
-6.14803886

$$$$

 OpenBabel03272509593D

 44 47  0  0  0  0  0  0  0  0999 V2000
   35.3860   21.4680   32.0680 C   0  0  0  0  0  0  0  0  0  0  0  0
   34.6450   20.8920   31.4480 H   0  0  0  0  0  0  0  0  0  0  0  0
   34.7770   22.1050   32.7350 H   0  0  0  0  0  0  0  0  0  0  0  0
   36.2310   20.5780   32.9320 C   0  0  0  0  0  0  0  0  0  0  0  0
   35.6320   19.6620   33.1290 H   0  0  0  0  0  0  0  0  0  0  0  0
   37.1870   20.3170   32.4340 H   0  0  0  0  0  0  0  0  0  0  0  0
   36.5290   21.1820   34.2510 C   0  0  0  0  0  0  0  0  0  0  0  0
   35.6990   20.8590   35.3180 C   0  0  0  0  0  0  0  0  0  0  0  0
   35.8920   21.3660   36.5760 C   0  0  0  0  0  0  0  0  0  0  0  0
   36.9050   22.1950   36.7930 N   0  0  0  0  0  0  0  0  0  0  0  0
   37.7130   22.5060   35.7440 C   0  0  0  0  0  0  0  0  0  0  0  0
   37.5560   22.0320   34.5030 N   0  0  0  0  0  0  0  0  0  0  0  0
   34.8580   20.1860   35.1870 H   0  0  0  0  0  0  0  0  0  0  0  0
   35.2580   21.1270   37.4140 H   0  0  0  0  0  0  0  0  0  0  0  0
   38.8480   23.4460   36.0310 C   0  0  0  0  0  0  0  0  0  0  0  0
   39.2180   23.9020   35.0730 H   0  0  0  0  0  0  0  0  0  0  0  0
   38.6310   24.1720   36.8110 H   0  0  0  0  0  0  0  0  0  0  0  0
   39.9590   22.5700   36.5330 C   0  0  0  0  0  0  0  0  0  0  0  0
   40.8750   21.9720   35.7230 N   0  0  0  0  0  0  0  0  0  0  0  0
   41.7170   21.2680   36.4950 C   0  0  0  0  0  0  0  0  0  0  0  0
   42.5490   20.6880   36.1140 H   0  0  0  0  0  0  0  0  0  0  0  0
   41.3220   21.4290   37.7900 N   0  0  0  0  0  0  0  0  0  0  0  0
   41.7730   21.0090   38.6280 H   0  0  0  0  0  0  0  0  0  0  0  0
   40.2720   22.2080   37.7990 N   0  0  0  0  0  0  0  0  0  0  0  0
   36.1830   22.3130   31.2620 O   0  0  0  0  0  0  0  0  0  0  0  0
   35.0670   25.7240   30.9390 C   0  0  0  0  0  0  0  0  0  0  0  0
   35.9640   26.3820   31.8040 C   0  0  0  0  0  0  0  0  0  0  0  0
   36.9060   25.5960   32.4480 C   0  0  0  0  0  0  0  0  0  0  0  0
   36.8690   24.2580   32.1790 N   0  0  0  0  0  0  0  0  0  0  0  0
   36.0120   23.6550   31.3590 C   0  0  0  0  0  0  0  0  0  0  0  0
   35.0910   24.4260   30.7280 N   0  0  0  0  0  0  0  0  0  0  0  0
   34.3390   26.3470   30.4430 H   0  0  0  0  0  0  0  0  0  0  0  0
   35.9890   27.4300   32.0100 H   0  0  0  0  0  0  0  0  0  0  0  0
   36.5000   26.9540   34.9670 F   0  0  0  0  0  0  0  0  0  0  0  0
   37.7420   26.6990   34.5510 C   0  0  0  0  0  0  0  0  0  0  0  0
   37.9190   26.0650   33.3750 C   0  0  0  0  0  0  0  0  0  0  0  0
   39.2490   25.8490   33.0390 C   0  0  0  0  0  0  0  0  0  0  0  0
   40.2900   26.2460   33.8320 C   0  0  0  0  0  0  0  0  0  0  0  0
   40.0670   26.8920   35.0290 C   0  0  0  0  0  0  0  0  0  0  0  0
   38.7640   27.1180   35.3860 C   0  0  0  0  0  0  0  0  0  0  0  0
   39.5470   25.3510   32.1220 H   0  0  0  0  0  0  0  0  0  0  0  0
   41.3270   26.0780   33.5690 H   0  0  0  0  0  0  0  0  0  0  0  0
   40.8600   27.2230   35.6880 H   0  0  0  0  0  0  0  0  0  0  0  0
   38.5540   27.6220   36.3180 H   0  0  0  0  0  0  0  0  0  0  0  0
  1  3  1  0  0  0  0
  1  4  1  0  0  0  0
  2  1  1  0  0  0  0
  4  5  1  0  0  0  0
  4  7  1  0  0  0  0
  6  4  1  0  0  0  0
  7 12  2  0  0  0  0
  7  8  1  0  0  0  0
  8  9  2  0  0  0  0
  9 10  1  0  0  0  0
  9 14  1  0  0  0  0
 11 15  1  0  0  0  0
 11 10  2  0  0  0  0
 12 11  1  0  0  0  0
 13  8  1  0  0  0  0
 15 18  1  0  0  0  0
 15 17  1  0  0  0  0
 16 15  1  0  0  0  0
 18 24  2  0  0  0  0
 19 20  2  0  0  0  0
 19 18  1  0  0  0  0
 20 22  1  0  0  0  0
 21 20  1  0  0  0  0
 22 24  1  0  0  0  0
 22 23  1  0  0  0  0
 25 30  1  0  0  0  0
 25  1  1  0  0  0  0
 26 27  1  0  0  0  0
 27 33  1  0  0  0  0
 27 28  2  0  0  0  0
 28 36  1  0  0  0  0
 29 28  1  0  0  0  0
 30 29  2  0  0  0  0
 31 26  2  0  0  0  0
 31 30  1  0  0  0  0
 32 26  1  0  0  0  0
 35 34  1  0  0  0  0
 35 40  1  0  0  0  0
 36 35  2  0  0  0  0
 37 36  1  0  0  0  0
 37 38  2  0  0  0  0
 38 39  1  0  0  0  0
 39 40  2  0  0  0  0
 39 43  1  0  0  0  0
 40 44  1  0  0  0  0
 41 37  1  0  0  0  0
 42 38  1  0  0  0  0
M  END
>  <minimizedAffinity>
-6.03592491

$$$$

 OpenBabel03272509593D

 44 47  0  0  0  0  0  0  0  0999 V2000
   39.0810   26.8820   35.3010 C   0  0  0  0  0  0  0  0  0  0  0  0
   39.0560   27.1190   36.4000 H   0  0  0  0  0  0  0  0  0  0  0  0
   39.4450   27.8030   34.8110 H   0  0  0  0  0  0  0  0  0  0  0  0
   40.0390   25.7770   34.9690 C   0  0  0  0  0  0  0  0  0  0  0  0
   40.5580   26.0740   34.0310 H   0  0  0  0  0  0  0  0  0  0  0  0
   40.7750   25.6170   35.7840 H   0  0  0  0  0  0  0  0  0  0  0  0
   39.3540   24.4940   34.6870 C   0  0  0  0  0  0  0  0  0  0  0  0
   39.1120   23.6370   35.7540 C   0  0  0  0  0  0  0  0  0  0  0  0
   38.4850   22.4290   35.5960 C   0  0  0  0  0  0  0  0  0  0  0  0
   38.0920   22.0560   34.3840 N   0  0  0  0  0  0  0  0  0  0  0  0
   38.3330   22.9000   33.3460 C   0  0  0  0  0  0  0  0  0  0  0  0
   38.9420   24.0860   33.4610 N   0  0  0  0  0  0  0  0  0  0  0  0
   39.4160   23.9000   36.7620 H   0  0  0  0  0  0  0  0  0  0  0  0
   38.2890   21.7520   36.4110 H   0  0  0  0  0  0  0  0  0  0  0  0
   37.8730   22.4420   31.9920 C   0  0  0  0  0  0  0  0  0  0  0  0
   38.7480   22.3830   31.2900 H   0  0  0  0  0  0  0  0  0  0  0  0
   37.2640   21.5410   32.0170 H   0  0  0  0  0  0  0  0  0  0  0  0
   37.0030   23.5540   31.4820 C   0  0  0  0  0  0  0  0  0  0  0  0
   35.6720   23.6570   31.7530 N   0  0  0  0  0  0  0  0  0  0  0  0
   35.2080   24.7610   31.1450 C   0  0  0  0  0  0  0  0  0  0  0  0
   34.1780   25.0910   31.1910 H   0  0  0  0  0  0  0  0  0  0  0  0
   36.2550   25.3450   30.4960 N   0  0  0  0  0  0  0  0  0  0  0  0
   36.2190   26.2180   29.9320 H   0  0  0  0  0  0  0  0  0  0  0  0
   37.3190   24.6150   30.7050 N   0  0  0  0  0  0  0  0  0  0  0  0
   37.7840   26.6070   34.8060 O   0  0  0  0  0  0  0  0  0  0  0  0
   36.5780   28.5680   32.0350 C   0  0  0  0  0  0  0  0  0  0  0  0
   35.8230   29.5490   32.7100 C   0  0  0  0  0  0  0  0  0  0  0  0
   35.7810   29.4660   34.0920 C   0  0  0  0  0  0  0  0  0  0  0  0
   36.4770   28.4410   34.6630 N   0  0  0  0  0  0  0  0  0  0  0  0
   37.1840   27.5240   34.0070 C   0  0  0  0  0  0  0  0  0  0  0  0
   37.2250   27.6050   32.6540 N   0  0  0  0  0  0  0  0  0  0  0  0
   36.6040   28.6430   30.9580 H   0  0  0  0  0  0  0  0  0  0  0  0
   35.2810   30.3500   32.2580 H   0  0  0  0  0  0  0  0  0  0  0  0
   32.9290   29.6160   34.5380 F   0  0  0  0  0  0  0  0  0  0  0  0
   33.7400   30.4470   35.1950 C   0  0  0  0  0  0  0  0  0  0  0  0
   35.0690   30.3680   34.9790 C   0  0  0  0  0  0  0  0  0  0  0  0
   35.8200   31.2760   35.7130 C   0  0  0  0  0  0  0  0  0  0  0  0
   35.2600   32.1740   36.5810 C   0  0  0  0  0  0  0  0  0  0  0  0
   33.8970   32.2230   36.7730 C   0  0  0  0  0  0  0  0  0  0  0  0
   33.1310   31.3370   36.0610 C   0  0  0  0  0  0  0  0  0  0  0  0
   36.9010   31.3320   35.6440 H   0  0  0  0  0  0  0  0  0  0  0  0
   35.8470   32.8830   37.1530 H   0  0  0  0  0  0  0  0  0  0  0  0
   33.4110   32.9160   37.4490 H   0  0  0  0  0  0  0  0  0  0  0  0
   32.0580   31.3490   36.1900 H   0  0  0  0  0  0  0  0  0  0  0  0
  1  2  1  0  0  0  0
  3  1  1  0  0  0  0
  4  1  1  0  0  0  0
  4  6  1  0  0  0  0
  5  4  1  0  0  0  0
  7  4  1  0  0  0  0
  7  8  1  0  0  0  0
  8 13  1  0  0  0  0
  9  8  2  0  0  0  0
  9 14  1  0  0  0  0
 10  9  1  0  0  0  0
 11 12  1  0  0  0  0
 11 10  2  0  0  0  0
 12  7  2  0  0  0  0
 15 17  1  0  0  0  0
 15 11  1  0  0  0  0
 16 15  1  0  0  0  0
 18 19  1  0  0  0  0
 18 15  1  0  0  0  0
 20 21  1  0  0  0  0
 20 19  2  0  0  0  0
 22 24  1  0  0  0  0
 22 20  1  0  0  0  0
 23 22  1  0  0  0  0
 24 18  2  0  0  0  0
 25  1  1  0  0  0  0
 26 31  2  0  0  0  0
 26 27  1  0  0  0  0
 27 28  2  0  0  0  0
 28 29  1  0  0  0  0
 28 36  1  0  0  0  0
 30 29  2  0  0  0  0
 30 25  1  0  0  0  0
 31 30  1  0  0  0  0
 32 26  1  0  0  0  0
 33 27  1  0  0  0  0
 34 35  1  0  0  0  0
 35 40  1  0  0  0  0
 36 35  2  0  0  0  0
 36 37  1  0  0  0  0
 37 38  2  0  0  0  0
 38 39  1  0  0  0  0
 38 42  1  0  0  0  0
 39 43  1  0  0  0  0
 40 44  1  0  0  0  0
 40 39  2  0  0  0  0
 41 37  1  0  0  0  0
M  END
>  <minimizedAffinity>
-5.91367531

$$$$

 OpenBabel03272509593D

 44 47  0  0  0  0  0  0  0  0999 V2000
   35.9880   26.5500   31.5120 C   0  0  0  0  0  0  0  0  0  0  0  0
   35.5490   27.1680   30.6820 H   0  0  0  0  0  0  0  0  0  0  0  0
   35.1530   25.9320   31.8900 H   0  0  0  0  0  0  0  0  0  0  0  0
   37.0640   25.6200   31.0330 C   0  0  0  0  0  0  0  0  0  0  0  0
   36.9430   25.5320   29.9310 H   0  0  0  0  0  0  0  0  0  0  0  0
   38.0750   26.0050   31.2820 H   0  0  0  0  0  0  0  0  0  0  0  0
   36.9240   24.2530   31.5870 C   0  0  0  0  0  0  0  0  0  0  0  0
   35.8030   23.5160   31.2250 C   0  0  0  0  0  0  0  0  0  0  0  0
   35.5840   22.2440   31.6840 C   0  0  0  0  0  0  0  0  0  0  0  0
   36.4670   21.6880   32.5030 N   0  0  0  0  0  0  0  0  0  0  0  0
   37.5610   22.4170   32.8530 C   0  0  0  0  0  0  0  0  0  0  0  0
   37.8090   23.6600   32.4250 N   0  0  0  0  0  0  0  0  0  0  0  0
   35.0540   23.9300   30.5580 H   0  0  0  0  0  0  0  0  0  0  0  0
   34.7200   21.6580   31.4140 H   0  0  0  0  0  0  0  0  0  0  0  0
   38.5370   21.7520   33.7810 C   0  0  0  0  0  0  0  0  0  0  0  0
   38.3790   20.6400   33.7690 H   0  0  0  0  0  0  0  0  0  0  0  0
   39.5690   22.0540   33.6210 H   0  0  0  0  0  0  0  0  0  0  0  0
   38.1440   22.2160   35.1530 C   0  0  0  0  0  0  0  0  0  0  0  0
   38.8160   23.1750   35.8480 N   0  0  0  0  0  0  0  0  0  0  0  0
   38.1990   23.3430   37.0290 C   0  0  0  0  0  0  0  0  0  0  0  0
   38.5200   24.0470   37.7870 H   0  0  0  0  0  0  0  0  0  0  0  0
   37.1390   22.4850   37.0660 N   0  0  0  0  0  0  0  0  0  0  0  0
   36.4630   22.3760   37.8490 H   0  0  0  0  0  0  0  0  0  0  0  0
   37.1180   21.8190   35.9410 N   0  0  0  0  0  0  0  0  0  0  0  0
   36.4450   27.3650   32.5740 O   0  0  0  0  0  0  0  0  0  0  0  0
   36.4000   30.8220   31.5580 C   0  0  0  0  0  0  0  0  0  0  0  0
   35.7390   31.4140   32.6540 C   0  0  0  0  0  0  0  0  0  0  0  0
   35.3500   30.5700   33.6820 C   0  0  0  0  0  0  0  0  0  0  0  0
   35.6460   29.2470   33.5290 N   0  0  0  0  0  0  0  0  0  0  0  0
   36.2700   28.7070   32.4860 C   0  0  0  0  0  0  0  0  0  0  0  0
   36.6520   29.5330   31.4800 N   0  0  0  0  0  0  0  0  0  0  0  0
   36.6980   31.4890   30.7640 H   0  0  0  0  0  0  0  0  0  0  0  0
   35.5110   32.4510   32.7690 H   0  0  0  0  0  0  0  0  0  0  0  0
   32.6390   29.9390   34.4610 F   0  0  0  0  0  0  0  0  0  0  0  0
   33.3990   30.6790   35.2700 C   0  0  0  0  0  0  0  0  0  0  0  0
   34.6620   30.9670   34.8960 C   0  0  0  0  0  0  0  0  0  0  0  0
   35.3640   31.7410   35.8110 C   0  0  0  0  0  0  0  0  0  0  0  0
   34.8210   32.1750   36.9890 C   0  0  0  0  0  0  0  0  0  0  0  0
   33.5250   31.8590   37.3350 C   0  0  0  0  0  0  0  0  0  0  0  0
   32.8090   31.0950   36.4510 C   0  0  0  0  0  0  0  0  0  0  0  0
   36.3890   32.0530   35.6470 H   0  0  0  0  0  0  0  0  0  0  0  0
   35.3680   32.7790   37.7020 H   0  0  0  0  0  0  0  0  0  0  0  0
   33.0550   32.1790   38.2560 H   0  0  0  0  0  0  0  0  0  0  0  0
   31.7900   30.8290   36.6920 H   0  0  0  0  0  0  0  0  0  0  0  0
  1  3  1  0  0  0  0
  1 25  1  0  0  0  0
  2  1  1  0  0  0  0
  4  6  1  0  0  0  0
  4  1  1  0  0  0  0
  4  7  1  0  0  0  0
  5  4  1  0  0  0  0
  7 12  1  0  0  0  0
  8  7  2  0  0  0  0
  8  9  1  0  0  0  0
  9 10  2  0  0  0  0
 10 11  1  0  0  0  0
 11 15  1  0  0  0  0
 12 11  2  0  0  0  0
 13  8  1  0  0  0  0
 14  9  1  0  0  0  0
 15 18  1  0  0  0  0
 16 15  1  0  0  0  0
 17 15  1  0  0  0  0
 18 19  1  0  0  0  0
 18 24  2  0  0  0  0
 19 20  2  0  0  0  0
 20 22  1  0  0  0  0
 20 21  1  0  0  0  0
 22 23  1  0  0  0  0
 24 22  1  0  0  0  0
 26 27  1  0  0  0  0
 27 33  1  0  0  0  0
 27 28  2  0  0  0  0
 28 36  1  0  0  0  0
 29 28  1  0  0  0  0
 30 25  1  0  0  0  0
 30 29  2  0  0  0  0
 31 26  2  0  0  0  0
 31 30  1  0  0  0  0
 32 26  1  0  0  0  0
 34 35  1  0  0  0  0
 35 40  1  0  0  0  0
 36 35  2  0  0  0  0
 36 37  1  0  0  0  0
 37 38  2  0  0  0  0
 38 39  1  0  0  0  0
 38 42  1  0  0  0  0
 39 43  1  0  0  0  0
 40 44  1  0  0  0  0
 40 39  2  0  0  0  0
 41 37  1  0  0  0  0
M  END
>  <minimizedAffinity>
-5.89278841

$$$$

 OpenBabel03272509593D

 44 47  0  0  0  0  0  0  0  0999 V2000
   36.2830   26.6460   31.0540 C   0  0  0  0  0  0  0  0  0  0  0  0
   37.3830   26.4920   30.8830 H   0  0  0  0  0  0  0  0  0  0  0  0
   35.9450   27.2900   30.2220 H   0  0  0  0  0  0  0  0  0  0  0  0
   35.5030   25.3660   30.9880 C   0  0  0  0  0  0  0  0  0  0  0  0
   34.7310   25.4210   31.7860 H   0  0  0  0  0  0  0  0  0  0  0  0
   35.0250   25.2310   29.9950 H   0  0  0  0  0  0  0  0  0  0  0  0
   36.3350   24.1760   31.2820 C   0  0  0  0  0  0  0  0  0  0  0  0
   37.4680   23.9660   30.5060 C   0  0  0  0  0  0  0  0  0  0  0  0
   38.3000   22.8960   30.7000 C   0  0  0  0  0  0  0  0  0  0  0  0
   38.0240   22.0240   31.6610 N   0  0  0  0  0  0  0  0  0  0  0  0
   36.9130   22.2370   32.4170 C   0  0  0  0  0  0  0  0  0  0  0  0
   36.0770   23.2700   32.2570 N   0  0  0  0  0  0  0  0  0  0  0  0
   37.7330   24.6520   29.7070 H   0  0  0  0  0  0  0  0  0  0  0  0
   39.1830   22.7160   30.1070 H   0  0  0  0  0  0  0  0  0  0  0  0
   36.6350   21.2290   33.4950 C   0  0  0  0  0  0  0  0  0  0  0  0
   37.6010   20.8170   33.8910 H   0  0  0  0  0  0  0  0  0  0  0  0
   35.9570   21.5870   34.2660 H   0  0  0  0  0  0  0  0  0  0  0  0
   35.9510   20.0920   32.7930 C   0  0  0  0  0  0  0  0  0  0  0  0
   36.5700   18.9240   32.4680 N   0  0  0  0  0  0  0  0  0  0  0  0
   35.6730   18.1340   31.8550 C   0  0  0  0  0  0  0  0  0  0  0  0
   35.8920   17.1400   31.4860 H   0  0  0  0  0  0  0  0  0  0  0  0
   34.4930   18.8150   31.8010 N   0  0  0  0  0  0  0  0  0  0  0  0
   33.6030   18.4720   31.3860 H   0  0  0  0  0  0  0  0  0  0  0  0
   34.6730   19.9810   32.3640 N   0  0  0  0  0  0  0  0  0  0  0  0
   36.0420   27.3350   32.2660 O   0  0  0  0  0  0  0  0  0  0  0  0
   36.4170   30.8210   31.4350 C   0  0  0  0  0  0  0  0  0  0  0  0
   35.8700   31.4300   32.5830 C   0  0  0  0  0  0  0  0  0  0  0  0
   35.4040   30.5870   33.5780 C   0  0  0  0  0  0  0  0  0  0  0  0
   35.5210   29.2470   33.3460 N   0  0  0  0  0  0  0  0  0  0  0  0
   36.0410   28.6910   32.2540 C   0  0  0  0  0  0  0  0  0  0  0  0
   36.4980   29.5170   31.2800 N   0  0  0  0  0  0  0  0  0  0  0  0
   36.7780   31.4880   30.6670 H   0  0  0  0  0  0  0  0  0  0  0  0
   35.7820   32.4790   32.7600 H   0  0  0  0  0  0  0  0  0  0  0  0
   36.6800   31.9840   35.7630 F   0  0  0  0  0  0  0  0  0  0  0  0
   35.3910   31.6510   35.8600 C   0  0  0  0  0  0  0  0  0  0  0  0
   34.8070   30.9990   34.8350 C   0  0  0  0  0  0  0  0  0  0  0  0
   33.4660   30.7020   35.0390 C   0  0  0  0  0  0  0  0  0  0  0  0
   32.7950   31.0400   36.1830 C   0  0  0  0  0  0  0  0  0  0  0  0
   33.4290   31.7060   37.2090 C   0  0  0  0  0  0  0  0  0  0  0  0
   34.7530   32.0130   37.0340 C   0  0  0  0  0  0  0  0  0  0  0  0
   32.8640   30.1800   34.3030 H   0  0  0  0  0  0  0  0  0  0  0  0
   31.7500   30.8070   36.3420 H   0  0  0  0  0  0  0  0  0  0  0  0
   32.9390   31.9930   38.1310 H   0  0  0  0  0  0  0  0  0  0  0  0
   35.2800   32.5350   37.8190 H   0  0  0  0  0  0  0  0  0  0  0  0
  1 25  1  0  0  0  0
  2  1  1  0  0  0  0
  3  1  1  0  0  0  0
  4  1  1  0  0  0  0
  4  7  1  0  0  0  0
  4  5  1  0  0  0  0
  6  4  1  0  0  0  0
  7 12  1  0  0  0  0
  8  9  1  0  0  0  0
  8  7  2  0  0  0  0
  9 10  2  0  0  0  0
 10 11  1  0  0  0  0
 11 15  1  0  0  0  0
 12 11  2  0  0  0  0
 13  8  1  0  0  0  0
 14  9  1  0  0  0  0
 15 16  1  0  0  0  0
 15 17  1  0  0  0  0
 18 15  1  0  0  0  0
 19 18  1  0  0  0  0
 20 19  2  0  0  0  0
 21 20  1  0  0  0  0
 22 20  1  0  0  0  0
 22 24  1  0  0  0  0
 23 22  1  0  0  0  0
 24 18  2  0  0  0  0
 26 27  1  0  0  0  0
 27 33  1  0  0  0  0
 27 28  2  0  0  0  0
 28 36  1  0  0  0  0
 29 28  1  0  0  0  0
 30 25  1  0  0  0  0
 30 29  2  0  0  0  0
 31 26  2  0  0  0  0
 31 30  1  0  0  0  0
 32 26  1  0  0  0  0
 34 35  1  0  0  0  0
 35 40  1  0  0  0  0
 36 37  1  0  0  0  0
 36 35  2  0  0  0  0
 37 38  2  0  0  0  0
 38 42  1  0  0  0  0
 38 39  1  0  0  0  0
 39 43  1  0  0  0  0
 40 39  2  0  0  0  0
 40 44  1  0  0  0  0
 41 37  1  0  0  0  0
M  END
>  <minimizedAffinity>
-5.86974955

$$$$

 OpenBabel03272509593D

 44 47  0  0  0  0  0  0  0  0999 V2000
   37.2190   26.3660   33.6530 C   0  0  0  0  0  0  0  0  0  0  0  0
   36.3700   25.6310   33.7130 H   0  0  0  0  0  0  0  0  0  0  0  0
   37.2480   26.6930   32.5980 H   0  0  0  0  0  0  0  0  0  0  0  0
   36.9910   27.5820   34.5030 C   0  0  0  0  0  0  0  0  0  0  0  0
   36.4730   27.2350   35.4230 H   0  0  0  0  0  0  0  0  0  0  0  0
   37.9480   28.0820   34.7610 H   0  0  0  0  0  0  0  0  0  0  0  0
   36.0950   28.5690   33.8570 C   0  0  0  0  0  0  0  0  0  0  0  0
   36.2570   28.8040   32.4970 C   0  0  0  0  0  0  0  0  0  0  0  0
   35.4790   29.6970   31.8100 C   0  0  0  0  0  0  0  0  0  0  0  0
   34.5330   30.3650   32.4570 N   0  0  0  0  0  0  0  0  0  0  0  0
   34.3810   30.1300   33.7880 C   0  0  0  0  0  0  0  0  0  0  0  0
   35.1210   29.2670   34.4920 N   0  0  0  0  0  0  0  0  0  0  0  0
   37.0180   28.2810   31.9270 H   0  0  0  0  0  0  0  0  0  0  0  0
   35.5910   29.8920   30.7560 H   0  0  0  0  0  0  0  0  0  0  0  0
   33.2990   30.9060   34.4840 C   0  0  0  0  0  0  0  0  0  0  0  0
   32.8590   31.6630   33.7810 H   0  0  0  0  0  0  0  0  0  0  0  0
   32.5610   30.2810   34.9810 H   0  0  0  0  0  0  0  0  0  0  0  0
   34.0100   31.6890   35.5500 C   0  0  0  0  0  0  0  0  0  0  0  0
   34.8510   32.7280   35.2900 N   0  0  0  0  0  0  0  0  0  0  0  0
   35.3080   33.1960   36.4620 C   0  0  0  0  0  0  0  0  0  0  0  0
   35.9980   34.0270   36.5560 H   0  0  0  0  0  0  0  0  0  0  0  0
   34.7500   32.4450   37.4530 N   0  0  0  0  0  0  0  0  0  0  0  0
   34.9060   32.5600   38.4750 H   0  0  0  0  0  0  0  0  0  0  0  0
   33.9780   31.5500   36.8950 N   0  0  0  0  0  0  0  0  0  0  0  0
   38.4550   25.7490   33.9550 O   0  0  0  0  0  0  0  0  0  0  0  0
   38.9000   22.9550   36.1850 C   0  0  0  0  0  0  0  0  0  0  0  0
   38.2240   21.9390   35.4800 C   0  0  0  0  0  0  0  0  0  0  0  0
   37.6540   22.2910   34.2670 C   0  0  0  0  0  0  0  0  0  0  0  0
   37.8050   23.5900   33.8760 N   0  0  0  0  0  0  0  0  0  0  0  0
   38.4460   24.5350   34.5580 C   0  0  0  0  0  0  0  0  0  0  0  0
   39.0050   24.1900   35.7450 N   0  0  0  0  0  0  0  0  0  0  0  0
   39.3400   22.6690   37.1280 H   0  0  0  0  0  0  0  0  0  0  0  0
   38.1100   20.9230   35.7890 H   0  0  0  0  0  0  0  0  0  0  0  0
   35.3870   20.6230   34.9250 F   0  0  0  0  0  0  0  0  0  0  0  0
   35.8600   20.6250   33.6770 C   0  0  0  0  0  0  0  0  0  0  0  0
   36.9180   21.4060   33.3820 C   0  0  0  0  0  0  0  0  0  0  0  0
   37.3280   21.3330   32.0580 C   0  0  0  0  0  0  0  0  0  0  0  0
   36.7120   20.5360   31.1310 C   0  0  0  0  0  0  0  0  0  0  0  0
   35.6330   19.7510   31.4740 C   0  0  0  0  0  0  0  0  0  0  0  0
   35.2060   19.8040   32.7750 C   0  0  0  0  0  0  0  0  0  0  0  0
   38.1650   21.9040   31.6720 H   0  0  0  0  0  0  0  0  0  0  0  0
   37.0330   20.4790   30.0990 H   0  0  0  0  0  0  0  0  0  0  0  0
   35.1150   19.1060   30.7750 H   0  0  0  0  0  0  0  0  0  0  0  0
   34.3620   19.2010   33.0760 H   0  0  0  0  0  0  0  0  0  0  0  0
  1  2  1  0  0  0  0
  1 25  1  0  0  0  0
  1  4  1  0  0  0  0
  3  1  1  0  0  0  0
  4  6  1  0  0  0  0
  4  5  1  0  0  0  0
  7 12  1  0  0  0  0
  7  4  1  0  0  0  0
  8  7  2  0  0  0  0
  9 10  2  0  0  0  0
  9  8  1  0  0  0  0
 10 11  1  0  0  0  0
 11 15  1  0  0  0  0
 11 12  2  0  0  0  0
 13  8  1  0  0  0  0
 14  9  1  0  0  0  0
 15 17  1  0  0  0  0
 15 18  1  0  0  0  0
 16 15  1  0  0  0  0
 18 24  2  0  0  0  0
 19 18  1  0  0  0  0
 19 20  2  0  0  0  0
 20 21  1  0  0  0  0
 20 22  1  0  0  0  0
 22 23  1  0  0  0  0
 24 22  1  0  0  0  0
 25 30  1  0  0  0  0
 26 32  1  0  0  0  0
 27 33  1  0  0  0  0
 27 26  2  0  0  0  0
 28 27  1  0  0  0  0
 29 28  2  0  0  0  0
 29 30  1  0  0  0  0
 30 31  2  0  0  0  0
 31 26  1  0  0  0  0
 35 34  1  0  0  0  0
 36 35  1  0  0  0  0
 36 28  1  0  0  0  0
 37 36  2  0  0  0  0
 38 39  2  0  0  0  0
 38 37  1  0  0  0  0
 39 40  1  0  0  0  0
 40 44  1  0  0  0  0
 40 35  2  0  0  0  0
 41 37  1  0  0  0  0
 42 38  1  0  0  0  0
 43 39  1  0  0  0  0
M  END
>  <minimizedAffinity>
-5.86204767

$$$$

 OpenBabel03272509593D

 44 47  0  0  0  0  0  0  0  0999 V2000
   37.2280   26.7450   34.7860 C   0  0  0  0  0  0  0  0  0  0  0  0
   36.2940   26.1810   35.0560 H   0  0  0  0  0  0  0  0  0  0  0  0
   36.9200   27.8030   34.7090 H   0  0  0  0  0  0  0  0  0  0  0  0
   38.2860   26.6530   35.8460 C   0  0  0  0  0  0  0  0  0  0  0  0
   39.1820   27.1800   35.4500 H   0  0  0  0  0  0  0  0  0  0  0  0
   37.9520   27.1180   36.7960 H   0  0  0  0  0  0  0  0  0  0  0  0
   38.7010   25.2570   36.1170 C   0  0  0  0  0  0  0  0  0  0  0  0
   38.0150   24.5530   37.1000 C   0  0  0  0  0  0  0  0  0  0  0  0
   38.3230   23.2580   37.4240 C   0  0  0  0  0  0  0  0  0  0  0  0
   39.3090   22.6460   36.7820 N   0  0  0  0  0  0  0  0  0  0  0  0
   39.9760   23.3410   35.8220 C   0  0  0  0  0  0  0  0  0  0  0  0
   39.7040   24.6050   35.4780 N   0  0  0  0  0  0  0  0  0  0  0  0
   37.2010   25.0140   37.6510 H   0  0  0  0  0  0  0  0  0  0  0  0
   37.8020   22.6980   38.1830 H   0  0  0  0  0  0  0  0  0  0  0  0
   41.0850   22.6130   35.1180 C   0  0  0  0  0  0  0  0  0  0  0  0
   41.2200   21.5940   35.5700 H   0  0  0  0  0  0  0  0  0  0  0  0
   40.9880   22.6080   34.0350 H   0  0  0  0  0  0  0  0  0  0  0  0
   42.3280   23.3860   35.4510 C   0  0  0  0  0  0  0  0  0  0  0  0
   42.8860   23.4200   36.6920 N   0  0  0  0  0  0  0  0  0  0  0  0
   43.9780   24.1990   36.6360 C   0  0  0  0  0  0  0  0  0  0  0  0
   44.6210   24.4050   37.4830 H   0  0  0  0  0  0  0  0  0  0  0  0
   44.0980   24.6500   35.3550 N   0  0  0  0  0  0  0  0  0  0  0  0
   44.8440   25.2760   34.9900 H   0  0  0  0  0  0  0  0  0  0  0  0
   43.1070   24.1580   34.6590 N   0  0  0  0  0  0  0  0  0  0  0  0
   37.7250   26.3410   33.5240 O   0  0  0  0  0  0  0  0  0  0  0  0
   35.2320   26.0110   30.9440 C   0  0  0  0  0  0  0  0  0  0  0  0
   35.1820   24.6100   30.7970 C   0  0  0  0  0  0  0  0  0  0  0  0
   36.0220   23.8640   31.6090 C   0  0  0  0  0  0  0  0  0  0  0  0
   36.8160   24.5640   32.4710 N   0  0  0  0  0  0  0  0  0  0  0  0
   36.8480   25.8880   32.5940 C   0  0  0  0  0  0  0  0  0  0  0  0
   36.0260   26.6180   31.8000 N   0  0  0  0  0  0  0  0  0  0  0  0
   34.5730   26.5810   30.3070 H   0  0  0  0  0  0  0  0  0  0  0  0
   34.5590   24.0670   30.1220 H   0  0  0  0  0  0  0  0  0  0  0  0
   38.0740   22.2360   30.3860 F   0  0  0  0  0  0  0  0  0  0  0  0
   37.0820   21.6470   31.0570 C   0  0  0  0  0  0  0  0  0  0  0  0
   36.1310   22.4170   31.6230 C   0  0  0  0  0  0  0  0  0  0  0  0
   35.1480   21.7040   32.2970 C   0  0  0  0  0  0  0  0  0  0  0  0
   35.1440   20.3380   32.3790 C   0  0  0  0  0  0  0  0  0  0  0  0
   36.1350   19.5870   31.7860 C   0  0  0  0  0  0  0  0  0  0  0  0
   37.1190   20.2650   31.1140 C   0  0  0  0  0  0  0  0  0  0  0  0
   34.3180   22.1860   32.8020 H   0  0  0  0  0  0  0  0  0  0  0  0
   34.3770   19.7830   32.9040 H   0  0  0  0  0  0  0  0  0  0  0  0
   36.1730   18.5050   31.8250 H   0  0  0  0  0  0  0  0  0  0  0  0
   37.9110   19.7060   30.6380 H   0  0  0  0  0  0  0  0  0  0  0  0
  1  2  1  0  0  0  0
  1  4  1  0  0  0  0
  3  1  1  0  0  0  0
  4  7  1  0  0  0  0
  4  6  1  0  0  0  0
  5  4  1  0  0  0  0
  7  8  1  0  0  0  0
  8  9  2  0  0  0  0
  8 13  1  0  0  0  0
  9 14  1  0  0  0  0
 10  9  1  0  0  0  0
 11 10  2  0  0  0  0
 12 11  1  0  0  0  0
 12  7  2  0  0  0  0
 15 18  1  0  0  0  0
 15 16  1  0  0  0  0
 15 11  1  0  0  0  0
 17 15  1  0  0  0  0
 18 19  1  0  0  0  0
 20 19  2  0  0  0  0
 20 21  1  0  0  0  0
 22 20  1  0  0  0  0
 23 22  1  0  0  0  0
 24 22  1  0  0  0  0
 24 18  2  0  0  0  0
 25  1  1  0  0  0  0
 26 31  1  0  0  0  0
 27 26  2  0  0  0  0
 27 28  1  0  0  0  0
 28 36  1  0  0  0  0
 28 29  2  0  0  0  0
 29 30  1  0  0  0  0
 30 25  1  0  0  0  0
 31 30  2  0  0  0  0
 32 26  1  0  0  0  0
 33 27  1  0  0  0  0
 34 35  1  0  0  0  0
 35 40  2  0  0  0  0
 35 36  1  0  0  0  0
 36 37  2  0  0  0  0
 37 38  1  0  0  0  0
 37 41  1  0  0  0  0
 38 42  1  0  0  0  0
 39 43  1  0  0  0  0
 39 38  2  0  0  0  0
 40 39  1  0  0  0  0
 44 40  1  0  0  0  0
M  END
>  <minimizedAffinity>
-5.82264328

$$$$
