
 OpenBabel03272509573D

 44 47  0  0  0  0  0  0  0  0999 V2000
   34.3810   28.5060   48.1600 C   0  0  0  0  0  0  0  0  0  0  0  0
   35.4140   28.3060   47.7630 H   0  0  0  0  0  0  0  0  0  0  0  0
   34.0100   29.3750   47.5860 H   0  0  0  0  0  0  0  0  0  0  0  0
   33.4390   27.3630   47.9200 C   0  0  0  0  0  0  0  0  0  0  0  0
   33.6650   26.9710   46.9040 H   0  0  0  0  0  0  0  0  0  0  0  0
   33.5650   26.5650   48.6800 H   0  0  0  0  0  0  0  0  0  0  0  0
   32.0200   27.7880   47.9040 C   0  0  0  0  0  0  0  0  0  0  0  0
   31.2220   27.4330   48.9860 C   0  0  0  0  0  0  0  0  0  0  0  0
   29.8990   27.7780   49.0650 C   0  0  0  0  0  0  0  0  0  0  0  0
   29.3510   28.4770   48.0790 N   0  0  0  0  0  0  0  0  0  0  0  0
   30.1380   28.8200   47.0240 C   0  0  0  0  0  0  0  0  0  0  0  0
   31.4330   28.5020   46.9120 N   0  0  0  0  0  0  0  0  0  0  0  0
   31.6270   26.8610   49.8140 H   0  0  0  0  0  0  0  0  0  0  0  0
   29.2660   27.5110   49.8950 H   0  0  0  0  0  0  0  0  0  0  0  0
   29.4810   29.6120   45.9300 C   0  0  0  0  0  0  0  0  0  0  0  0
   29.0340   30.5510   46.3530 H   0  0  0  0  0  0  0  0  0  0  0  0
   30.1180   29.7760   45.0640 H   0  0  0  0  0  0  0  0  0  0  0  0
   28.3260   28.7650   45.4800 C   0  0  0  0  0  0  0  0  0  0  0  0
   27.0230   29.1340   45.6050 N   0  0  0  0  0  0  0  0  0  0  0  0
   26.2600   28.1500   45.1050 C   0  0  0  0  0  0  0  0  0  0  0  0
   25.1770   28.1770   45.0750 H   0  0  0  0  0  0  0  0  0  0  0  0
   27.0940   27.1640   44.6680 N   0  0  0  0  0  0  0  0  0  0  0  0
   26.8070   26.2660   44.2270 H   0  0  0  0  0  0  0  0  0  0  0  0
   28.3230   27.5430   44.8970 N   0  0  0  0  0  0  0  0  0  0  0  0
   34.4170   28.8670   49.5270 O   0  0  0  0  0  0  0  0  0  0  0  0
   37.1370   29.9440   51.6310 C   0  0  0  0  0  0  0  0  0  0  0  0
   37.9560   30.6030   50.6920 C   0  0  0  0  0  0  0  0  0  0  0  0
   37.5090   30.6320   49.3810 C   0  0  0  0  0  0  0  0  0  0  0  0
   36.3170   30.0170   49.1290 N   0  0  0  0  0  0  0  0  0  0  0  0
   35.5580   29.3990   50.0300 C   0  0  0  0  0  0  0  0  0  0  0  0
   35.9950   29.3710   51.3140 N   0  0  0  0  0  0  0  0  0  0  0  0
   37.4940   29.9280   52.6490 H   0  0  0  0  0  0  0  0  0  0  0  0
   38.8880   31.0830   50.8940 H   0  0  0  0  0  0  0  0  0  0  0  0
   38.7830   33.2260   49.3100 F   0  0  0  0  0  0  0  0  0  0  0  0
   38.7890   32.4610   48.2160 C   0  0  0  0  0  0  0  0  0  0  0  0
   38.1920   31.2540   48.2610 C   0  0  0  0  0  0  0  0  0  0  0  0
   38.2570   30.5410   47.0710 C   0  0  0  0  0  0  0  0  0  0  0  0
   38.8730   31.0240   45.9480 C   0  0  0  0  0  0  0  0  0  0  0  0
   39.4720   32.2650   45.9430 C   0  0  0  0  0  0  0  0  0  0  0  0
   39.4240   32.9890   47.1050 C   0  0  0  0  0  0  0  0  0  0  0  0
   37.8210   29.5550   46.9550 H   0  0  0  0  0  0  0  0  0  0  0  0
   38.9230   30.4680   45.0200 H   0  0  0  0  0  0  0  0  0  0  0  0
   39.9720   32.6860   45.0790 H   0  0  0  0  0  0  0  0  0  0  0  0
   39.8840   33.9660   47.1350 H   0  0  0  0  0  0  0  0  0  0  0  0
  1 25  1  0  0  0  0
  2  1  1  0  0  0  0
  3  1  1  0  0  0  0
  4  1  1  0  0  0  0
  4  6  1  0  0  0  0
  5  4  1  0  0  0  0
  7  4  1  0  0  0  0
  7  8  1  0  0  0  0
  8  9  2  0  0  0  0
  8 13  1  0  0  0  0
  9 14  1  0  0  0  0
 10  9  1  0  0  0  0
 11 10  2  0  0  0  0
 12 11  1  0  0  0  0
 12  7  2  0  0  0  0
 15 16  1  0  0  0  0
 15 11  1  0  0  0  0
 17 15  1  0  0  0  0
 18 19  1  0  0  0  0
 18 15  1  0  0  0  0
 20 19  2  0  0  0  0
 21 20  1  0  0  0  0
 22 24  1  0  0  0  0
 22 20  1  0  0  0  0
 23 22  1  0  0  0  0
 24 18  2  0  0  0  0
 25 30  1  0  0  0  0
 26 32  1  0  0  0  0
 27 33  1  0  0  0  0
 27 26  2  0  0  0  0
 28 27  1  0  0  0  0
 29 28  2  0  0  0  0
 29 30  1  0  0  0  0
 30 31  2  0  0  0  0
 31 26  1  0  0  0  0
 35 36  1  0  0  0  0
 35 34  1  0  0  0  0
 36 28  1  0  0  0  0
 37 36  2  0  0  0  0
 38 37  1  0  0  0  0
 39 38  2  0  0  0  0
 39 40  1  0  0  0  0
 40 44  1  0  0  0  0
 40 35  2  0  0  0  0
 41 37  1  0  0  0  0
 42 38  1  0  0  0  0
 43 39  1  0  0  0  0
M  END
>  <minimizedAffinity>
-6.43562937

>  <minimizedRMSD>
0.738598108

$$$$
