
 OpenBabel03272509573D

 44 47  0  0  0  0  0  0  0  0999 V2000
   34.0770   29.0020   47.9960 C   0  0  0  0  0  0  0  0  0  0  0  0
   34.6160   29.6680   47.2680 H   0  0  0  0  0  0  0  0  0  0  0  0
   33.4180   29.6740   48.5750 H   0  0  0  0  0  0  0  0  0  0  0  0
   33.2100   27.9850   47.3150 C   0  0  0  0  0  0  0  0  0  0  0  0
   33.2240   28.2280   46.2300 H   0  0  0  0  0  0  0  0  0  0  0  0
   33.5810   26.9530   47.4860 H   0  0  0  0  0  0  0  0  0  0  0  0
   31.7950   28.0600   47.7480 C   0  0  0  0  0  0  0  0  0  0  0  0
   31.4880   27.6550   49.0420 C   0  0  0  0  0  0  0  0  0  0  0  0
   30.2110   27.6870   49.5360 C   0  0  0  0  0  0  0  0  0  0  0  0
   29.2260   28.1200   48.7590 N   0  0  0  0  0  0  0  0  0  0  0  0
   29.5350   28.5140   47.4950 C   0  0  0  0  0  0  0  0  0  0  0  0
   30.7680   28.4970   46.9780 N   0  0  0  0  0  0  0  0  0  0  0  0
   32.2610   27.2930   49.7120 H   0  0  0  0  0  0  0  0  0  0  0  0
   29.9550   27.3760   50.5350 H   0  0  0  0  0  0  0  0  0  0  0  0
   28.3920   28.9980   46.6480 C   0  0  0  0  0  0  0  0  0  0  0  0
   27.4360   28.9540   47.2360 H   0  0  0  0  0  0  0  0  0  0  0  0
   28.5750   29.9580   46.1720 H   0  0  0  0  0  0  0  0  0  0  0  0
   28.2600   27.9760   45.5560 C   0  0  0  0  0  0  0  0  0  0  0  0
   27.9560   26.6680   45.7780 N   0  0  0  0  0  0  0  0  0  0  0  0
   27.9190   26.0430   44.5910 C   0  0  0  0  0  0  0  0  0  0  0  0
   27.6990   24.9890   44.4660 H   0  0  0  0  0  0  0  0  0  0  0  0
   28.2030   26.9660   43.6280 N   0  0  0  0  0  0  0  0  0  0  0  0
   28.2510   26.7920   42.6040 H   0  0  0  0  0  0  0  0  0  0  0  0
   28.4040   28.1150   44.2180 N   0  0  0  0  0  0  0  0  0  0  0  0
   34.9800   28.3900   48.8970 O   0  0  0  0  0  0  0  0  0  0  0  0
   37.1700   30.0900   51.1990 C   0  0  0  0  0  0  0  0  0  0  0  0
   37.9840   30.8150   50.3070 C   0  0  0  0  0  0  0  0  0  0  0  0
   37.7200   30.6680   48.9550 C   0  0  0  0  0  0  0  0  0  0  0  0
   36.6930   29.8320   48.6220 N   0  0  0  0  0  0  0  0  0  0  0  0
   35.9360   29.1550   49.4810 C   0  0  0  0  0  0  0  0  0  0  0  0
   36.1950   29.2990   50.8040 N   0  0  0  0  0  0  0  0  0  0  0  0
   37.3850   30.2130   52.2490 H   0  0  0  0  0  0  0  0  0  0  0  0
   38.7860   31.4690   50.5730 H   0  0  0  0  0  0  0  0  0  0  0  0
   38.8190   33.3420   48.9200 F   0  0  0  0  0  0  0  0  0  0  0  0
   38.9480   32.5640   47.8430 C   0  0  0  0  0  0  0  0  0  0  0  0
   38.4310   31.3200   47.8710 C   0  0  0  0  0  0  0  0  0  0  0  0
   38.6220   30.5980   46.7000 C   0  0  0  0  0  0  0  0  0  0  0  0
   39.2780   31.1060   45.6120 C   0  0  0  0  0  0  0  0  0  0  0  0
   39.7920   32.3840   45.6230 C   0  0  0  0  0  0  0  0  0  0  0  0
   39.6180   33.1190   46.7660 C   0  0  0  0  0  0  0  0  0  0  0  0
   38.2620   29.5830   46.5740 H   0  0  0  0  0  0  0  0  0  0  0  0
   39.4260   30.5420   44.6990 H   0  0  0  0  0  0  0  0  0  0  0  0
   40.3170   32.8270   44.7860 H   0  0  0  0  0  0  0  0  0  0  0  0
   40.0100   34.1250   46.8080 H   0  0  0  0  0  0  0  0  0  0  0  0
  1  3  1  0  0  0  0
  1 25  1  0  0  0  0
  2  1  1  0  0  0  0
  4  6  1  0  0  0  0
  4  7  1  0  0  0  0
  4  1  1  0  0  0  0
  5  4  1  0  0  0  0
  7  8  1  0  0  0  0
  8  9  2  0  0  0  0
  8 13  1  0  0  0  0
  9 14  1  0  0  0  0
 10  9  1  0  0  0  0
 11 10  2  0  0  0  0
 12 11  1  0  0  0  0
 12  7  2  0  0  0  0
 15 16  1  0  0  0  0
 15 11  1  0  0  0  0
 17 15  1  0  0  0  0
 18 19  1  0  0  0  0
 18 15  1  0  0  0  0
 20 19  2  0  0  0  0
 21 20  1  0  0  0  0
 22 24  1  0  0  0  0
 22 20  1  0  0  0  0
 23 22  1  0  0  0  0
 24 18  2  0  0  0  0
 25 30  1  0  0  0  0
 26 32  1  0  0  0  0
 27 33  1  0  0  0  0
 27 26  2  0  0  0  0
 28 27  1  0  0  0  0
 29 28  2  0  0  0  0
 29 30  1  0  0  0  0
 30 31  2  0  0  0  0
 31 26  1  0  0  0  0
 35 36  1  0  0  0  0
 35 34  1  0  0  0  0
 36 28  1  0  0  0  0
 37 36  2  0  0  0  0
 38 39  2  0  0  0  0
 38 37  1  0  0  0  0
 39 40  1  0  0  0  0
 40 44  1  0  0  0  0
 40 35  2  0  0  0  0
 41 37  1  0  0  0  0
 42 38  1  0  0  0  0
 43 39  1  0  0  0  0
M  END
>  <minimizedAffinity>
-6.23162937

>  <minimizedRMSD>
0.656533182

$$$$
