
 OpenBabel03272509573D

 44 47  0  0  0  0  0  0  0  0999 V2000
   34.4190   28.6840   48.1170 C   0  0  0  0  0  0  0  0  0  0  0  0
   35.2170   28.9650   47.3760 H   0  0  0  0  0  0  0  0  0  0  0  0
   33.7970   29.5900   48.2350 H   0  0  0  0  0  0  0  0  0  0  0  0
   33.5310   27.5810   47.6180 C   0  0  0  0  0  0  0  0  0  0  0  0
   33.7210   27.4870   46.5270 H   0  0  0  0  0  0  0  0  0  0  0  0
   33.7450   26.6220   48.1330 H   0  0  0  0  0  0  0  0  0  0  0  0
   32.0920   27.8950   47.7730 C   0  0  0  0  0  0  0  0  0  0  0  0
   31.4540   27.4730   48.9340 C   0  0  0  0  0  0  0  0  0  0  0  0
   30.1270   27.7150   49.1700 C   0  0  0  0  0  0  0  0  0  0  0  0
   29.4160   28.3750   48.2640 N   0  0  0  0  0  0  0  0  0  0  0  0
   30.0470   28.7840   47.1310 C   0  0  0  0  0  0  0  0  0  0  0  0
   31.3400   28.5670   46.8660 N   0  0  0  0  0  0  0  0  0  0  0  0
   31.9950   26.9290   49.7020 H   0  0  0  0  0  0  0  0  0  0  0  0
   29.6160   27.3940   50.0630 H   0  0  0  0  0  0  0  0  0  0  0  0
   29.2090   29.5280   46.1310 C   0  0  0  0  0  0  0  0  0  0  0  0
   28.3520   30.0340   46.6520 H   0  0  0  0  0  0  0  0  0  0  0  0
   29.7810   30.1850   45.4810 H   0  0  0  0  0  0  0  0  0  0  0  0
   28.6020   28.4620   45.2660 C   0  0  0  0  0  0  0  0  0  0  0  0
   27.3570   27.9480   45.4600 N   0  0  0  0  0  0  0  0  0  0  0  0
   27.1360   27.0220   44.5130 C   0  0  0  0  0  0  0  0  0  0  0  0
   26.2200   26.4480   44.4260 H   0  0  0  0  0  0  0  0  0  0  0  0
   28.2490   26.9620   43.7270 N   0  0  0  0  0  0  0  0  0  0  0  0
   28.3880   26.3410   42.9050 H   0  0  0  0  0  0  0  0  0  0  0  0
   29.1150   27.8260   44.1860 N   0  0  0  0  0  0  0  0  0  0  0  0
   34.9760   28.3670   49.3780 O   0  0  0  0  0  0  0  0  0  0  0  0
   37.3010   30.1590   51.4680 C   0  0  0  0  0  0  0  0  0  0  0  0
   38.0560   30.8480   50.4980 C   0  0  0  0  0  0  0  0  0  0  0  0
   37.7080   30.6470   49.1720 C   0  0  0  0  0  0  0  0  0  0  0  0
   36.6650   29.7980   48.9380 N   0  0  0  0  0  0  0  0  0  0  0  0
   35.9650   29.1550   49.8690 C   0  0  0  0  0  0  0  0  0  0  0  0
   36.3050   29.3530   51.1670 N   0  0  0  0  0  0  0  0  0  0  0  0
   37.5810   30.3240   52.4970 H   0  0  0  0  0  0  0  0  0  0  0  0
   38.8710   31.5120   50.6860 H   0  0  0  0  0  0  0  0  0  0  0  0
   38.9230   33.2650   49.0050 F   0  0  0  0  0  0  0  0  0  0  0  0
   38.9180   32.4730   47.9300 C   0  0  0  0  0  0  0  0  0  0  0  0
   38.3480   31.2540   48.0200 C   0  0  0  0  0  0  0  0  0  0  0  0
   38.3990   30.5140   46.8470 C   0  0  0  0  0  0  0  0  0  0  0  0
   38.9770   30.9810   45.6970 C   0  0  0  0  0  0  0  0  0  0  0  0
   39.5480   32.2340   45.6460 C   0  0  0  0  0  0  0  0  0  0  0  0
   39.5130   32.9860   46.7910 C   0  0  0  0  0  0  0  0  0  0  0  0
   37.9820   29.5160   46.7660 H   0  0  0  0  0  0  0  0  0  0  0  0
   39.0150   30.4030   44.7820 H   0  0  0  0  0  0  0  0  0  0  0  0
   40.0160   32.6440   44.7600 H   0  0  0  0  0  0  0  0  0  0  0  0
   39.9530   33.9730   46.7850 H   0  0  0  0  0  0  0  0  0  0  0  0
  1  3  1  0  0  0  0
  1 25  1  0  0  0  0
  2  1  1  0  0  0  0
  4  7  1  0  0  0  0
  4  1  1  0  0  0  0
  4  6  1  0  0  0  0
  5  4  1  0  0  0  0
  7  8  1  0  0  0  0
  8  9  2  0  0  0  0
  8 13  1  0  0  0  0
  9 14  1  0  0  0  0
 10  9  1  0  0  0  0
 11 10  2  0  0  0  0
 12 11  1  0  0  0  0
 12  7  2  0  0  0  0
 15 16  1  0  0  0  0
 15 11  1  0  0  0  0
 17 15  1  0  0  0  0
 18 19  1  0  0  0  0
 18 15  1  0  0  0  0
 20 19  2  0  0  0  0
 21 20  1  0  0  0  0
 22 24  1  0  0  0  0
 22 20  1  0  0  0  0
 23 22  1  0  0  0  0
 24 18  2  0  0  0  0
 25 30  1  0  0  0  0
 26 32  1  0  0  0  0
 27 33  1  0  0  0  0
 27 26  2  0  0  0  0
 28 27  1  0  0  0  0
 29 28  2  0  0  0  0
 29 30  1  0  0  0  0
 30 31  2  0  0  0  0
 31 26  1  0  0  0  0
 35 36  1  0  0  0  0
 35 34  1  0  0  0  0
 36 28  1  0  0  0  0
 37 36  2  0  0  0  0
 38 37  1  0  0  0  0
 39 38  2  0  0  0  0
 39 40  1  0  0  0  0
 40 35  2  0  0  0  0
 41 37  1  0  0  0  0
 42 38  1  0  0  0  0
 43 39  1  0  0  0  0
 44 40  1  0  0  0  0
M  END
>  <minimizedAffinity>
-6.23967695

>  <minimizedRMSD>
0.287081867

$$$$
