
 OpenBabel03272503063D

 30 31  0  0  0  0  0  0  0  0999 V2000
   38.6180   30.5390   47.2170 F   0  0  0  0  0  0  0  0  0  0  0  0
   38.8700   31.7680   47.7310 C   0  0  0  0  0  0  0  0  0  0  0  0
   38.2830   32.1660   48.9050 C   0  0  0  0  0  0  0  0  0  0  0  0
   38.5840   33.4160   49.3620 C   0  0  0  0  0  0  0  0  0  0  0  0
   39.4370   34.2670   48.6960 C   0  0  0  0  0  0  0  0  0  0  0  0
   40.0180   33.8520   47.5190 C   0  0  0  0  0  0  0  0  0  0  0  0
   39.7360   32.5910   47.0260 C   0  0  0  0  0  0  0  0  0  0  0  0
   38.1240   33.7350   50.2850 H   0  0  0  0  0  0  0  0  0  0  0  0
   39.6830   35.2600   49.0480 H   0  0  0  0  0  0  0  0  0  0  0  0
   40.7100   34.4350   46.9000 H   0  0  0  0  0  0  0  0  0  0  0  0
   36.8550   29.6130   51.3040 C   0  0  0  0  0  0  0  0  0  0  0  0
   37.7440   30.5080   50.6980 C   0  0  0  0  0  0  0  0  0  0  0  0
   37.3880   31.2250   49.5670 C   0  0  0  0  0  0  0  0  0  0  0  0
   36.1210   31.0010   49.0890 N   0  0  0  0  0  0  0  0  0  0  0  0
   35.2800   30.1390   49.6820 C   0  0  0  0  0  0  0  0  0  0  0  0
   35.6390   29.4530   50.7740 N   0  0  0  0  0  0  0  0  0  0  0  0
   37.2030   29.1020   52.1660 H   0  0  0  0  0  0  0  0  0  0  0  0
   38.7450   30.6630   51.1040 H   0  0  0  0  0  0  0  0  0  0  0  0
   34.2740   29.9740   49.2850 H   0  0  0  0  0  0  0  0  0  0  0  0
   39.5240   32.3810   44.6480 C   0  0  0  0  0  0  0  0  0  0  0  0
   38.4070   32.9380   44.8800 O   0  0  0  0  0  0  0  0  0  0  0  0
   40.3180   32.1150   45.8030 N   0  0  0  0  0  0  0  0  0  0  0  0
   41.2150   31.6140   45.6400 H   0  0  0  0  0  0  0  0  0  0  0  0
   39.9280   32.0580   43.3220 N   0  0  0  0  0  0  0  0  0  0  0  0
   40.8600   31.5980   43.1730 H   0  0  0  0  0  0  0  0  0  0  0  0
   38.9510   32.3900   41.9360 S   0  0  0  0  0  0  0  0  0  0  0  0
   39.4900   31.6620   40.7650 O   0  0  0  0  0  1  0  0  0  0  0  0
   38.9620   33.8710   41.6260 O   0  0  0  0  0  1  0  0  0  0  0  0
   37.3520   31.9880   42.2850 O   0  0  0  0  0  0  0  0  0  0  0  0
   36.8680   31.6680   41.4800 H   0  0  0  0  0  0  0  0  0  0  0  0
  1  2  1  0  0  0  0
  2  3  1  0  0  0  0
  3  4  2  0  0  0  0
  3 13  1  0  0  0  0
  4  8  1  0  0  0  0
  5  9  1  0  0  0  0
  5  4  1  0  0  0  0
  6  5  2  0  0  0  0
  7  6  1  0  0  0  0
  7  2  2  0  0  0  0
 10  6  1  0  0  0  0
 11 17  1  0  0  0  0
 12 18  1  0  0  0  0
 12 11  2  0  0  0  0
 13 12  1  0  0  0  0
 14 13  2  0  0  0  0
 14 15  1  0  0  0  0
 15 16  2  0  0  0  0
 16 11  1  0  0  0  0
 19 15  1  0  0  0  0
 20 21  2  0  0  0  0
 20 22  1  0  0  0  0
 22  7  1  0  0  0  0
 23 22  1  0  0  0  0
 24 20  1  0  0  0  0
 25 24  1  0  0  0  0
 26 29  1  0  0  0  0
 26 24  1  0  0  0  0
 27 26  1  0  0  0  0
 28 26  1  0  0  0  0
 30 29  1  0  0  0  0
M  END
>  <minimizedAffinity>
-6.27102995

>  <minimizedRMSD>
0.539638817

$$$$
