
 OpenBabel03272510253D

 43 46  0  0  1  0  0  0  0  0999 V2000
   36.0640   30.2140   46.9780 C   0  0  0  0  0  0  0  0  0  0  0  0
   36.9740   30.7130   47.9090 C   0  0  0  0  0  0  0  0  0  0  0  0
   38.0060   31.5570   47.5240 C   0  0  0  0  0  0  0  0  0  0  0  0
   38.0840   31.8730   46.1720 C   0  0  0  0  0  0  0  0  0  0  0  0
   38.9980   32.6770   45.5520 N   0  0  0  0  0  0  0  0  0  0  0  0
   38.6690   32.6840   44.2480 C   0  0  0  0  0  0  0  0  0  0  0  0
   37.6090   31.9300   44.0460 N   0  0  0  0  0  0  0  0  0  0  0  0
   37.2100   31.4050   45.2180 C   0  0  0  0  0  0  0  0  0  0  0  0
   36.1700   30.5510   45.6320 C   0  0  0  0  0  0  0  0  0  0  0  0
   35.2460   29.5540   47.2370 H   0  0  0  0  0  0  0  0  0  0  0  0
   38.7000   31.9370   48.2370 H   0  0  0  0  0  0  0  0  0  0  0  0
   39.7770   33.1710   46.0140 H   0  0  0  0  0  0  0  0  0  0  0  0
   35.4840   30.1810   44.8860 H   0  0  0  0  0  0  0  0  0  0  0  0
   37.4210   30.1060   51.5900 C   0  0  0  0  0  0  0  0  0  0  0  0
   37.7010   30.5390   50.3030 C   0  0  0  0  0  0  0  0  0  0  0  0
   36.7840   30.3060   49.2830 C   0  0  0  0  0  0  0  0  0  0  0  0
   35.6410   29.6510   49.6210 N   0  0  0  0  0  0  0  0  0  0  0  0
   35.3670   29.2290   50.8700 C   0  0  0  0  0  0  0  0  0  0  0  0
   36.2440   29.4550   51.8320 N   0  0  0  0  0  0  0  0  0  0  0  0
   38.1750   30.3190   52.3350 H   0  0  0  0  0  0  0  0  0  0  0  0
   38.6160   31.0650   50.0320 H   0  0  0  0  0  0  0  0  0  0  0  0
   34.4380   28.7110   51.0770 H   0  0  0  0  0  0  0  0  0  0  0  0
   39.3930   33.4110   43.3010 O   0  0  0  0  0  0  0  0  0  0  0  0
   39.1870   31.4610   42.1180 N   0  0  0  0  0  0  0  0  0  0  0  0
   39.4110   32.8750   41.9910 C   0  0  1  0  0  0  0  0  0  0  0  0
   38.3800   33.4860   41.1610 C   0  0  0  0  0  0  0  0  0  0  0  0
   38.4500   32.9300   39.8710 O   0  0  0  0  0  0  0  0  0  0  0  0
   38.3810   31.5700   39.8120 C   0  0  0  0  0  0  0  0  0  0  0  0
   39.2910   30.8900   40.8110 C   0  0  1  0  0  0  0  0  0  0  0  0
   38.5090   31.1020   42.7370 H   0  0  0  0  0  0  0  0  0  0  0  0
   40.4100   33.0570   41.5750 H   0  0  0  0  0  0  0  0  0  0  0  0
   38.6940   34.5600   40.9870 H   0  0  0  0  0  0  0  0  0  0  0  0
   37.3490   33.5060   41.3770 H   0  0  0  0  0  0  0  0  0  0  0  0
   38.7030   31.2470   38.8230 H   0  0  0  0  0  0  0  0  0  0  0  0
   37.3450   31.2030   40.0170 H   0  0  0  0  0  0  0  0  0  0  0  0
   38.9610   29.8110   40.8430 H   0  0  0  0  0  0  0  0  0  0  0  0
   40.6230   30.8800   40.2880 N   0  0  0  0  0  0  0  0  0  0  0  0
   41.1590   31.7190   40.6470 H   0  0  0  0  0  0  0  0  0  0  0  0
   41.4760   29.4490   40.7410 S   0  0  0  0  0  0  0  0  0  0  0  0
   40.6750   28.2540   40.2990 O   0  0  0  0  0  0  0  0  0  0  0  0
   41.7170   29.3410   42.2060 O   0  0  0  0  0  0  0  0  0  0  0  0
   42.9400   29.4120   39.9040 O   0  0  0  0  0  0  0  0  0  0  0  0
   43.2960   30.3280   39.7760 H   0  0  0  0  0  0  0  0  0  0  0  0
  1 10  1  0  0  0  0
  1  2  1  0  0  0  0
  2 16  1  0  0  0  0
  3  2  2  0  0  0  0
  3 11  1  0  0  0  0
  4  3  1  0  0  0  0
  5 12  1  0  0  0  0
  5  4  1  0  0  0  0
  6  5  1  0  0  0  0
  7  6  2  0  0  0  0
  7  8  1  0  0  0  0
  8  9  1  0  0  0  0
  8  4  2  0  0  0  0
  9  1  2  0  0  0  0
 13  9  1  0  0  0  0
 14 19  1  0  0  0  0
 14 20  1  0  0  0  0
 15 14  2  0  0  0  0
 16 17  2  0  0  0  0
 16 15  1  0  0  0  0
 17 18  1  0  0  0  0
 18 22  1  0  0  0  0
 18 19  2  0  0  0  0
 21 15  1  0  0  0  0
 23  6  1  0  0  0  0
 24 30  1  0  0  0  0
 25 31  1  6  0  0  0
 25 24  1  0  0  0  0
 25 23  1  0  0  0  0
 26 33  1  0  0  0  0
 26 25  1  0  0  0  0
 27 26  1  0  0  0  0
 28 27  1  0  0  0  0
 28 35  1  0  0  0  0
 28 29  1  0  0  0  0
 29 36  1  1  0  0  0
 29 24  1  0  0  0  0
 32 26  1  0  0  0  0
 34 28  1  0  0  0  0
 37 38  1  0  0  0  0
 37 39  1  0  0  0  0
 37 29  1  0  0  0  0
 39 41  1  0  0  0  0
 40 39  1  0  0  0  0
 42 39  1  0  0  0  0
 43 42  1  0  0  0  0
M  END
>  <minimizedAffinity>
-6.01229191

>  <minimizedRMSD>
1.08731568

$$$$
