
 OpenBabel03272503063D

 30 31  0  0  0  0  0  0  0  0999 V2000
   38.0980   30.1210   47.3040 F   0  0  0  0  0  0  0  0  0  0  0  0
   38.4550   31.3430   47.7710 C   0  0  0  0  0  0  0  0  0  0  0  0
   37.9510   31.8100   48.9580 C   0  0  0  0  0  0  0  0  0  0  0  0
   38.3560   33.0480   49.3650 C   0  0  0  0  0  0  0  0  0  0  0  0
   39.2320   33.8220   48.6370 C   0  0  0  0  0  0  0  0  0  0  0  0
   39.7280   33.3380   47.4480 C   0  0  0  0  0  0  0  0  0  0  0  0
   39.3410   32.0870   47.0040 C   0  0  0  0  0  0  0  0  0  0  0  0
   37.9630   33.4200   50.2990 H   0  0  0  0  0  0  0  0  0  0  0  0
   39.5600   34.8040   48.9500 H   0  0  0  0  0  0  0  0  0  0  0  0
   40.4290   33.8570   46.7820 H   0  0  0  0  0  0  0  0  0  0  0  0
   36.4620   29.4430   51.5050 C   0  0  0  0  0  0  0  0  0  0  0  0
   37.3790   30.2600   50.8350 C   0  0  0  0  0  0  0  0  0  0  0  0
   37.0280   30.9490   49.6860 C   0  0  0  0  0  0  0  0  0  0  0  0
   35.7360   30.7770   49.2560 N   0  0  0  0  0  0  0  0  0  0  0  0
   34.8680   29.9890   49.9100 C   0  0  0  0  0  0  0  0  0  0  0  0
   35.2230   29.3300   51.0190 N   0  0  0  0  0  0  0  0  0  0  0  0
   36.8090   28.9490   52.3780 H   0  0  0  0  0  0  0  0  0  0  0  0
   38.4000   30.3750   51.2050 H   0  0  0  0  0  0  0  0  0  0  0  0
   33.8420   29.8640   49.5500 H   0  0  0  0  0  0  0  0  0  0  0  0
   39.0900   31.9560   44.6240 C   0  0  0  0  0  0  0  0  0  0  0  0
   38.0820   32.6880   44.8710 O   0  0  0  0  0  0  0  0  0  0  0  0
   39.8320   31.5420   45.7710 N   0  0  0  0  0  0  0  0  0  0  0  0
   40.6320   30.9010   45.5940 H   0  0  0  0  0  0  0  0  0  0  0  0
   39.4320   31.5930   43.2900 N   0  0  0  0  0  0  0  0  0  0  0  0
   39.4170   32.3310   42.5440 H   0  0  0  0  0  0  0  0  0  0  0  0
   39.8720   29.9850   42.8410 S   0  0  0  0  0  0  0  0  0  0  0  0
   41.3250   29.9300   42.5590 O   0  0  0  0  0  1  0  0  0  0  0  0
   39.1260   29.5640   41.5930 O   0  0  0  0  0  1  0  0  0  0  0  0
   39.3960   28.9250   44.0620 O   0  0  0  0  0  0  0  0  0  0  0  0
   40.0120   28.1510   44.1380 H   0  0  0  0  0  0  0  0  0  0  0  0
  1  2  1  0  0  0  0
  2  3  1  0  0  0  0
  3  4  2  0  0  0  0
  3 13  1  0  0  0  0
  4  8  1  0  0  0  0
  5  9  1  0  0  0  0
  5  4  1  0  0  0  0
  6  5  2  0  0  0  0
  7  6  1  0  0  0  0
  7  2  2  0  0  0  0
 10  6  1  0  0  0  0
 11 17  1  0  0  0  0
 12 18  1  0  0  0  0
 12 11  2  0  0  0  0
 13 12  1  0  0  0  0
 14 13  2  0  0  0  0
 14 15  1  0  0  0  0
 15 16  2  0  0  0  0
 16 11  1  0  0  0  0
 19 15  1  0  0  0  0
 20 21  2  0  0  0  0
 20 22  1  0  0  0  0
 22  7  1  0  0  0  0
 23 22  1  0  0  0  0
 24 20  1  0  0  0  0
 25 24  1  0  0  0  0
 26 24  1  0  0  0  0
 26 29  1  0  0  0  0
 27 26  1  0  0  0  0
 28 26  1  0  0  0  0
 29 30  1  0  0  0  0
M  END
>  <minimizedAffinity>
-6.50306511

>  <minimizedRMSD>
0.513028085

$$$$
