REMARK  Name = 
REMARK  6 active torsions:
REMARK  status: ('A' for Active; 'I' for Inactive)
REMARK    1  A    between atoms: C_1  and  C_8
REMARK    2  A    between atoms: C_6  and  N_15
REMARK    3  A    between atoms: C_13  and  O_16
REMARK    4  A    between atoms: O_16  and  C_17
REMARK    5  A    between atoms: N_27  and  S_29
REMARK    6  A    between atoms: S_29  and  O_32
REMARK                            x       y       z     vdW  Elec       q    Type
REMARK                         _______ _______ _______ _____ _____    ______ ____
ROOT
ATOM      1  C   UNL     1      38.116  31.886  47.413  0.00  0.00    +0.000 A 
ATOM      2  C   UNL     1      38.589  32.788  48.323  0.00  0.00    +0.000 A 
ATOM      3  C   UNL     1      38.084  32.864  49.630  0.00  0.00    +0.000 A 
ATOM      4  C   UNL     1      37.028  31.939  49.992  0.00  0.00    +0.000 A 
ATOM      5  C   UNL     1      36.604  31.069  49.043  0.00  0.00    +0.000 A 
ATOM      6  C   UNL     1      37.093  31.005  47.790  0.00  0.00    +0.000 A 
ATOM      7  H   UNL     1      39.391  33.501  48.074  0.00  0.00    +0.000 HD
ATOM      8  H   UNL     1      38.505  33.602  50.297  0.00  0.00    +0.000 HD
ATOM      9  H   UNL     1      36.753  32.117  51.003  0.00  0.00    +0.000 HD
ATOM     10  H   UNL     1      35.851  30.474  49.535  0.00  0.00    +0.000 HD
ENDROOT
BRANCH   1  12
ATOM     11  C   UNL     1      39.997  31.264  45.990  0.00  0.00    +0.000 A 
ATOM     12  C   UNL     1      38.747  31.913  46.117  0.00  0.00    +0.000 A 
ATOM     13  C   UNL     1      38.283  32.493  44.962  0.00  0.00    +0.000 A 
ATOM     14  N   UNL     1      38.995  32.422  43.822  0.00  0.00    +0.000 NA
ATOM     15  C   UNL     1      40.154  31.815  43.724  0.00  0.00    +0.000 A 
ATOM     16  N   UNL     1      40.653  31.237  44.805  0.00  0.00    +0.000 NA
ATOM     17  H   UNL     1      40.460  30.768  46.849  0.00  0.00    +0.000 HD
ATOM     18  H   UNL     1      37.319  32.994  45.058  0.00  0.00    +0.000 HD
ATOM     19  H   UNL     1      40.621  31.835  42.744  0.00  0.00    +0.000 HD
ENDBRANCH   1  12
BRANCH   6  22
ATOM     20  C   UNL     1      35.158  29.971  46.943  0.00  0.00    +0.000 C 
ATOM     21  O   UNL     1      34.519  30.634  47.854  0.00  0.00    +0.000 OA
ATOM     22  N   UNL     1      36.598  30.115  46.872  0.00  0.00    +0.000 N 
ATOM     23  H   UNL     1      37.169  29.597  46.202  0.00  0.00    +0.000 HD
BRANCH  20  24
ATOM     24  O   UNL     1      34.456  29.162  46.085  0.00  0.00    +0.000 OA
BRANCH  24  25
ATOM     25  C   UNL     1      33.362  29.577  45.330  0.00  0.00    +0.000 C 
ATOM     26  O   UNL     1      33.371  30.716  44.673  0.00  0.00    +0.000 OA
ATOM     27  N   UNL     1      32.127  28.905  45.113  0.00  0.00    +0.000 N 
ATOM     28  H   UNL     1      31.271  29.449  45.432  0.00  0.00    +0.000 HD
BRANCH  27  29
ATOM     29  S   UNL     1      32.100  27.341  44.391  0.00  0.00    +0.000 S 
ATOM     30  O   UNL     1      30.729  27.197  43.752  0.00  0.00    +0.000 OA
ATOM     31  O   UNL     1      33.157  27.209  43.343  0.00  0.00    +0.000 OA
BRANCH  29  32
ATOM     32  O   UNL     1      32.197  26.114  45.525  0.00  0.00    +0.000 OA
ATOM     33  H   UNL     1      32.601  26.393  46.382  0.00  0.00    +0.000 HD
ENDBRANCH  29  32
ENDBRANCH  27  29
ENDBRANCH  24  25
ENDBRANCH  20  24
ENDBRANCH   6  22
TORSDOF 6
