
 OpenBabel03272502193D

 26 27  0  0  0  0  0  0  0  0999 V2000
   38.1780   32.0520   46.9400 C   0  0  0  0  0  0  0  0  0  0  0  0
   38.2600   32.0520   45.5310 C   0  0  0  0  0  0  0  0  0  0  0  0
   37.3510   31.2460   44.8660 C   0  0  0  0  0  0  0  0  0  0  0  0
   36.4330   30.4990   45.5660 N   0  0  0  0  0  0  0  0  0  0  0  0
   36.4100   30.5460   46.9350 C   0  0  0  0  0  0  0  0  0  0  0  0
   37.2850   31.3240   47.6110 N   0  0  0  0  0  0  0  0  0  0  0  0
   38.9790   32.6380   45.0160 H   0  0  0  0  0  0  0  0  0  0  0  0
   37.3530   31.1940   43.7730 H   0  0  0  0  0  0  0  0  0  0  0  0
   39.0870   32.8610   47.6750 N   0  0  0  0  0  0  0  0  0  0  0  0
   39.9510   33.2830   47.2740 H   0  0  0  0  0  0  0  0  0  0  0  0
   37.5300   29.5110   49.6650 Br  0  0  0  0  0  0  0  0  0  0  0  0
   35.7780   29.2340   48.9310 C   0  0  0  0  0  0  0  0  0  0  0  0
   35.4480   29.7650   47.7020 C   0  0  0  0  0  0  0  0  0  0  0  0
   34.1720   29.5270   47.2350 C   0  0  0  0  0  0  0  0  0  0  0  0
   33.2240   28.7930   47.9260 C   0  0  0  0  0  0  0  0  0  0  0  0
   33.6010   28.2800   49.1520 C   0  0  0  0  0  0  0  0  0  0  0  0
   34.8720   28.5040   49.6420 C   0  0  0  0  0  0  0  0  0  0  0  0
   33.9320   29.9520   46.2690 H   0  0  0  0  0  0  0  0  0  0  0  0
   32.2560   28.6640   47.4740 H   0  0  0  0  0  0  0  0  0  0  0  0
   32.8640   27.7100   49.6870 H   0  0  0  0  0  0  0  0  0  0  0  0
   35.0750   28.0620   50.6130 H   0  0  0  0  0  0  0  0  0  0  0  0
   38.7500   33.1710   49.3350 S   0  0  0  0  0  0  0  0  0  0  0  0
   39.4860   34.3980   49.8050 O   0  0  0  0  0  0  0  0  0  0  0  0
   39.2080   32.0320   50.2030 O   0  0  0  0  0  0  0  0  0  0  0  0
   37.1070   33.3670   49.6060 O   0  0  0  0  0  0  0  0  0  0  0  0
   36.9610   33.8790   50.4440 H   0  0  0  0  0  0  0  0  0  0  0  0
  1  6  1  0  0  0  0
  1  9  1  0  0  0  0
  2  1  2  0  0  0  0
  3  2  1  0  0  0  0
  3  4  2  0  0  0  0
  4  5  1  0  0  0  0
  5  6  2  0  0  0  0
  5 13  1  0  0  0  0
  7  2  1  0  0  0  0
  8  3  1  0  0  0  0
  9 22  1  0  0  0  0
 10  9  1  0  0  0  0
 12 17  1  0  0  0  0
 12 11  1  0  0  0  0
 13 12  2  0  0  0  0
 14 13  1  0  0  0  0
 14 15  2  0  0  0  0
 15 16  1  0  0  0  0
 16 17  2  0  0  0  0
 16 20  1  0  0  0  0
 17 21  1  0  0  0  0
 18 14  1  0  0  0  0
 19 15  1  0  0  0  0
 22 25  1  0  0  0  0
 22 23  1  0  0  0  0
 22 24  1  0  0  0  0
 25 26  1  0  0  0  0
M  END
>  <minimizedAffinity>
-5.35006905

>  <minimizedRMSD>
2.51310587

$$$$
