
 OpenBabel03272502203D

 26 27  0  0  0  0  0  0  0  0999 V2000
   39.7890   22.8580   37.4270 C   0  0  0  0  0  0  0  0  0  0  0  0
   38.6210   23.0250   38.2000 C   0  0  0  0  0  0  0  0  0  0  0  0
   37.7390   24.0030   37.7720 C   0  0  0  0  0  0  0  0  0  0  0  0
   38.0150   24.7540   36.6530 N   0  0  0  0  0  0  0  0  0  0  0  0
   39.1710   24.5390   35.9490 C   0  0  0  0  0  0  0  0  0  0  0  0
   40.0500   23.5900   36.3440 N   0  0  0  0  0  0  0  0  0  0  0  0
   38.4320   22.4310   39.0590 H   0  0  0  0  0  0  0  0  0  0  0  0
   36.8110   24.1900   38.3200 H   0  0  0  0  0  0  0  0  0  0  0  0
   40.7300   21.8670   37.8200 N   0  0  0  0  0  0  0  0  0  0  0  0
   40.7380   21.4060   38.7540 H   0  0  0  0  0  0  0  0  0  0  0  0
   37.9850   23.3450   33.3130 Br  0  0  0  0  0  0  0  0  0  0  0  0
   39.0420   24.9350   33.5140 C   0  0  0  0  0  0  0  0  0  0  0  0
   39.4880   25.3200   34.7610 C   0  0  0  0  0  0  0  0  0  0  0  0
   40.2430   26.4730   34.8320 C   0  0  0  0  0  0  0  0  0  0  0  0
   40.5700   27.2480   33.7330 C   0  0  0  0  0  0  0  0  0  0  0  0
   40.1020   26.8220   32.5050 C   0  0  0  0  0  0  0  0  0  0  0  0
   39.3440   25.6720   32.4070 C   0  0  0  0  0  0  0  0  0  0  0  0
   40.5830   26.7580   35.8190 H   0  0  0  0  0  0  0  0  0  0  0  0
   41.1650   28.1290   33.8950 H   0  0  0  0  0  0  0  0  0  0  0  0
   40.3560   27.4240   31.6530 H   0  0  0  0  0  0  0  0  0  0  0  0
   39.0210   25.4180   31.4010 H   0  0  0  0  0  0  0  0  0  0  0  0
   41.9400   21.3920   36.6910 S   0  0  0  0  0  0  0  0  0  0  0  0
   42.4430   20.0070   37.0050 O   0  0  0  0  0  1  0  0  0  0  0  0
   43.1290   22.3090   36.7520 O   0  0  0  0  0  1  0  0  0  0  0  0
   41.3660   21.4330   35.1160 O   0  0  0  0  0  0  0  0  0  0  0  0
   41.9160   20.8420   34.5400 H   0  0  0  0  0  0  0  0  0  0  0  0
  1  9  1  0  0  0  0
  1  2  1  0  0  0  0
  2  7  1  0  0  0  0
  3  2  2  0  0  0  0
  3  8  1  0  0  0  0
  4  3  1  0  0  0  0
  5  6  1  0  0  0  0
  5  4  2  0  0  0  0
  6  1  2  0  0  0  0
  9 10  1  0  0  0  0
 11 12  1  0  0  0  0
 12 13  1  0  0  0  0
 13 14  2  0  0  0  0
 13  5  1  0  0  0  0
 14 18  1  0  0  0  0
 15 19  1  0  0  0  0
 15 14  1  0  0  0  0
 16 15  2  0  0  0  0
 17 16  1  0  0  0  0
 17 12  2  0  0  0  0
 20 16  1  0  0  0  0
 21 17  1  0  0  0  0
 22 24  1  0  0  0  0
 22 23  1  0  0  0  0
 22  9  1  0  0  0  0
 25 22  1  0  0  0  0
 26 25  1  0  0  0  0
M  END
>  <minimizedAffinity>
-4.94233418

$$$$

 OpenBabel03272502203D

 26 27  0  0  0  0  0  0  0  0999 V2000
   38.2220   24.3970   34.3720 C   0  0  0  0  0  0  0  0  0  0  0  0
   37.8430   25.6670   33.8870 C   0  0  0  0  0  0  0  0  0  0  0  0
   37.0480   25.6770   32.7530 C   0  0  0  0  0  0  0  0  0  0  0  0
   36.6650   24.4990   32.1550 N   0  0  0  0  0  0  0  0  0  0  0  0
   37.0700   23.2990   32.6790 C   0  0  0  0  0  0  0  0  0  0  0  0
   37.8470   23.2590   33.7850 N   0  0  0  0  0  0  0  0  0  0  0  0
   38.1520   26.5610   34.3690 H   0  0  0  0  0  0  0  0  0  0  0  0
   36.7140   26.6240   32.3200 H   0  0  0  0  0  0  0  0  0  0  0  0
   39.0380   24.3260   35.5330 N   0  0  0  0  0  0  0  0  0  0  0  0
   39.5630   25.1340   35.9290 H   0  0  0  0  0  0  0  0  0  0  0  0
   39.0480   22.3190   30.4640 Br  0  0  0  0  0  0  0  0  0  0  0  0
   37.4420   21.4610   31.0710 C   0  0  0  0  0  0  0  0  0  0  0  0
   36.6800   22.0360   32.0660 C   0  0  0  0  0  0  0  0  0  0  0  0
   35.5390   21.3650   32.4530 C   0  0  0  0  0  0  0  0  0  0  0  0
   35.1270   20.1650   31.9020 C   0  0  0  0  0  0  0  0  0  0  0  0
   35.9220   19.6270   30.9090 C   0  0  0  0  0  0  0  0  0  0  0  0
   37.0690   20.2790   30.5030 C   0  0  0  0  0  0  0  0  0  0  0  0
   34.9550   21.8330   33.2360 H   0  0  0  0  0  0  0  0  0  0  0  0
   34.2200   19.7220   32.2750 H   0  0  0  0  0  0  0  0  0  0  0  0
   35.6010   18.6950   30.4820 H   0  0  0  0  0  0  0  0  0  0  0  0
   37.6290   19.7790   29.7170 H   0  0  0  0  0  0  0  0  0  0  0  0
   39.1760   22.8150   36.3470 S   0  0  0  0  0  0  0  0  0  0  0  0
   39.5400   23.0240   37.7940 O   0  0  0  0  0  1  0  0  0  0  0  0
   40.2660   21.9730   35.7440 O   0  0  0  0  0  1  0  0  0  0  0  0
   37.7570   21.9290   36.2510 O   0  0  0  0  0  0  0  0  0  0  0  0
   37.7220   21.2640   36.9870 H   0  0  0  0  0  0  0  0  0  0  0  0
  1  9  1  0  0  0  0
  2  7  1  0  0  0  0
  2  1  1  0  0  0  0
  3  2  2  0  0  0  0
  4  5  2  0  0  0  0
  4  3  1  0  0  0  0
  5  6  1  0  0  0  0
  6  1  2  0  0  0  0
  8  3  1  0  0  0  0
  9 10  1  0  0  0  0
  9 22  1  0  0  0  0
 11 12  1  0  0  0  0
 12 13  1  0  0  0  0
 13 14  2  0  0  0  0
 13  5  1  0  0  0  0
 14 18  1  0  0  0  0
 15 19  1  0  0  0  0
 15 14  1  0  0  0  0
 16 15  2  0  0  0  0
 17 16  1  0  0  0  0
 17 12  2  0  0  0  0
 20 16  1  0  0  0  0
 21 17  1  0  0  0  0
 22 23  1  0  0  0  0
 24 22  1  0  0  0  0
 25 22  1  0  0  0  0
 25 26  1  0  0  0  0
M  END
>  <minimizedAffinity>
-4.7753644

$$$$

 OpenBabel03272502203D

 26 27  0  0  0  0  0  0  0  0999 V2000
   37.6140   24.2570   32.6350 C   0  0  0  0  0  0  0  0  0  0  0  0
   37.1660   23.0940   31.9730 C   0  0  0  0  0  0  0  0  0  0  0  0
   37.1380   21.9320   32.7260 C   0  0  0  0  0  0  0  0  0  0  0  0
   37.5310   21.9430   34.0440 N   0  0  0  0  0  0  0  0  0  0  0  0
   37.9560   23.1090   34.6250 C   0  0  0  0  0  0  0  0  0  0  0  0
   37.9940   24.2580   33.9130 N   0  0  0  0  0  0  0  0  0  0  0  0
   36.8680   23.1140   30.9540 H   0  0  0  0  0  0  0  0  0  0  0  0
   36.8010   20.9920   32.2810 H   0  0  0  0  0  0  0  0  0  0  0  0
   37.6630   25.4780   31.9100 N   0  0  0  0  0  0  0  0  0  0  0  0
   37.6080   25.5450   30.8710 H   0  0  0  0  0  0  0  0  0  0  0  0
   40.9110   22.1830   35.0650 Br  0  0  0  0  0  0  0  0  0  0  0  0
   39.6520   22.7740   36.3900 C   0  0  0  0  0  0  0  0  0  0  0  0
   38.3780   23.1480   36.0190 C   0  0  0  0  0  0  0  0  0  0  0  0
   37.5260   23.5620   37.0230 C   0  0  0  0  0  0  0  0  0  0  0  0
   37.8810   23.6180   38.3590 C   0  0  0  0  0  0  0  0  0  0  0  0
   39.1670   23.2320   38.6820 C   0  0  0  0  0  0  0  0  0  0  0  0
   40.0390   22.8140   37.6970 C   0  0  0  0  0  0  0  0  0  0  0  0
   36.5310   23.8520   36.7110 H   0  0  0  0  0  0  0  0  0  0  0  0
   37.1410   23.9550   39.0640 H   0  0  0  0  0  0  0  0  0  0  0  0
   39.4410   23.2750   39.7200 H   0  0  0  0  0  0  0  0  0  0  0  0
   41.0280   22.5310   38.0470 H   0  0  0  0  0  0  0  0  0  0  0  0
   37.8260   26.9480   32.7910 S   0  0  0  0  0  0  0  0  0  0  0  0
   37.3250   28.1120   31.9770 O   0  0  0  0  0  1  0  0  0  0  0  0
   39.2670   27.2320   33.1110 O   0  0  0  0  0  1  0  0  0  0  0  0
   37.0000   26.8900   34.2490 O   0  0  0  0  0  0  0  0  0  0  0  0
   36.8030   27.8110   34.5630 H   0  0  0  0  0  0  0  0  0  0  0  0
  1  6  1  0  0  0  0
  2  1  2  0  0  0  0
  2  3  1  0  0  0  0
  3  4  2  0  0  0  0
  4  5  1  0  0  0  0
  5 13  1  0  0  0  0
  6  5  2  0  0  0  0
  7  2  1  0  0  0  0
  8  3  1  0  0  0  0
  9  1  1  0  0  0  0
  9 22  1  0  0  0  0
 10  9  1  0  0  0  0
 11 12  1  0  0  0  0
 12 17  1  0  0  0  0
 13 12  2  0  0  0  0
 13 14  1  0  0  0  0
 14 15  2  0  0  0  0
 15 16  1  0  0  0  0
 15 19  1  0  0  0  0
 16 20  1  0  0  0  0
 17 21  1  0  0  0  0
 17 16  2  0  0  0  0
 18 14  1  0  0  0  0
 22 24  1  0  0  0  0
 22 25  1  0  0  0  0
 23 22  1  0  0  0  0
 25 26  1  0  0  0  0
M  END
>  <minimizedAffinity>
-4.76174116

$$$$

 OpenBabel03272502203D

 26 27  0  0  0  0  0  0  0  0999 V2000
   37.4100   25.9710   33.7670 C   0  0  0  0  0  0  0  0  0  0  0  0
   37.3220   27.2610   34.3340 C   0  0  0  0  0  0  0  0  0  0  0  0
   38.1300   27.5030   35.4320 C   0  0  0  0  0  0  0  0  0  0  0  0
   38.9610   26.5210   35.9210 N   0  0  0  0  0  0  0  0  0  0  0  0
   38.9960   25.2900   35.3210 C   0  0  0  0  0  0  0  0  0  0  0  0
   38.2180   25.0260   34.2470 N   0  0  0  0  0  0  0  0  0  0  0  0
   36.6720   28.0000   33.9360 H   0  0  0  0  0  0  0  0  0  0  0  0
   38.1160   28.4790   35.9250 H   0  0  0  0  0  0  0  0  0  0  0  0
   36.6030   25.6670   32.6370 N   0  0  0  0  0  0  0  0  0  0  0  0
   35.7900   26.2410   32.3270 H   0  0  0  0  0  0  0  0  0  0  0  0
   37.7310   23.6100   37.6360 Br  0  0  0  0  0  0  0  0  0  0  0  0
   39.4640   23.3960   36.8370 C   0  0  0  0  0  0  0  0  0  0  0  0
   39.8660   24.2320   35.8170 C   0  0  0  0  0  0  0  0  0  0  0  0
   41.1240   24.0220   35.2900 C   0  0  0  0  0  0  0  0  0  0  0  0
   41.9860   23.0320   35.7270 C   0  0  0  0  0  0  0  0  0  0  0  0
   41.5390   22.2200   36.7500 C   0  0  0  0  0  0  0  0  0  0  0  0
   40.2850   22.4090   37.2960 C   0  0  0  0  0  0  0  0  0  0  0  0
   41.4210   24.6880   34.4900 H   0  0  0  0  0  0  0  0  0  0  0  0
   42.9470   22.9510   35.2490 H   0  0  0  0  0  0  0  0  0  0  0  0
   42.2100   21.4510   37.0890 H   0  0  0  0  0  0  0  0  0  0  0  0
   40.0220   21.7220   38.0950 H   0  0  0  0  0  0  0  0  0  0  0  0
   36.9810   24.2640   31.7140 S   0  0  0  0  0  0  0  0  0  0  0  0
   38.2160   24.4940   30.8820 O   0  0  0  0  0  1  0  0  0  0  0  0
   35.8710   23.9280   30.7580 O   0  0  0  0  0  1  0  0  0  0  0  0
   37.2110   22.9230   32.6940 O   0  0  0  0  0  0  0  0  0  0  0  0
   37.7570   22.2450   32.2170 H   0  0  0  0  0  0  0  0  0  0  0  0
  1  6  2  0  0  0  0
  1  2  1  0  0  0  0
  2  3  2  0  0  0  0
  3  4  1  0  0  0  0
  3  8  1  0  0  0  0
  5 13  1  0  0  0  0
  5  4  2  0  0  0  0
  6  5  1  0  0  0  0
  7  2  1  0  0  0  0
  9  1  1  0  0  0  0
 10  9  1  0  0  0  0
 12 17  1  0  0  0  0
 12 11  1  0  0  0  0
 13 12  2  0  0  0  0
 14 15  2  0  0  0  0
 14 13  1  0  0  0  0
 15 16  1  0  0  0  0
 16 20  1  0  0  0  0
 16 17  2  0  0  0  0
 17 21  1  0  0  0  0
 18 14  1  0  0  0  0
 19 15  1  0  0  0  0
 22  9  1  0  0  0  0
 22 25  1  0  0  0  0
 23 22  1  0  0  0  0
 24 22  1  0  0  0  0
 26 25  1  0  0  0  0
M  END
>  <minimizedAffinity>
-4.72587585

$$$$

 OpenBabel03272502203D

 26 27  0  0  0  0  0  0  0  0999 V2000
   37.6450   24.0490   32.3200 C   0  0  0  0  0  0  0  0  0  0  0  0
   38.1770   25.2420   31.7860 C   0  0  0  0  0  0  0  0  0  0  0  0
   38.8840   26.0450   32.6660 C   0  0  0  0  0  0  0  0  0  0  0  0
   39.0420   25.6730   33.9800 N   0  0  0  0  0  0  0  0  0  0  0  0
   38.4980   24.5000   34.4330 C   0  0  0  0  0  0  0  0  0  0  0  0
   37.8030   23.6960   33.5960 N   0  0  0  0  0  0  0  0  0  0  0  0
   38.0400   25.5040   30.7670 H   0  0  0  0  0  0  0  0  0  0  0  0
   39.3260   26.9850   32.3240 H   0  0  0  0  0  0  0  0  0  0  0  0
   36.9100   23.1870   31.4620 N   0  0  0  0  0  0  0  0  0  0  0  0
   36.5410   23.4650   30.5280 H   0  0  0  0  0  0  0  0  0  0  0  0
   40.8920   22.5420   34.8960 Br  0  0  0  0  0  0  0  0  0  0  0  0
   39.6570   23.2200   36.2000 C   0  0  0  0  0  0  0  0  0  0  0  0
   38.6500   24.0820   35.8210 C   0  0  0  0  0  0  0  0  0  0  0  0
   37.7990   24.5300   36.8090 C   0  0  0  0  0  0  0  0  0  0  0  0
   37.9030   24.1630   38.1400 C   0  0  0  0  0  0  0  0  0  0  0  0
   38.9270   23.2970   38.4710 C   0  0  0  0  0  0  0  0  0  0  0  0
   39.7930   22.8340   37.5010 C   0  0  0  0  0  0  0  0  0  0  0  0
   37.0150   25.2060   36.4920 H   0  0  0  0  0  0  0  0  0  0  0  0
   37.1880   24.5680   38.8330 H   0  0  0  0  0  0  0  0  0  0  0  0
   39.0060   23.0120   39.5040 H   0  0  0  0  0  0  0  0  0  0  0  0
   40.5650   22.1580   37.8570 H   0  0  0  0  0  0  0  0  0  0  0  0
   36.6020   21.5760   31.9880 S   0  0  0  0  0  0  0  0  0  0  0  0
   36.3800   20.6670   30.8080 O   0  0  0  0  0  1  0  0  0  0  0  0
   35.3560   21.5090   32.8260 O   0  0  0  0  0  1  0  0  0  0  0  0
   37.8580   20.9800   32.9230 O   0  0  0  0  0  0  0  0  0  0  0  0
   37.8450   19.9880   32.9160 H   0  0  0  0  0  0  0  0  0  0  0  0
  1  6  1  0  0  0  0
  2  1  2  0  0  0  0
  2  3  1  0  0  0  0
  3  4  2  0  0  0  0
  4  5  1  0  0  0  0
  5 13  1  0  0  0  0
  6  5  2  0  0  0  0
  7  2  1  0  0  0  0
  8  3  1  0  0  0  0
  9 22  1  0  0  0  0
  9  1  1  0  0  0  0
 10  9  1  0  0  0  0
 11 12  1  0  0  0  0
 12 17  1  0  0  0  0
 13 12  2  0  0  0  0
 13 14  1  0  0  0  0
 14 15  2  0  0  0  0
 15 16  1  0  0  0  0
 15 19  1  0  0  0  0
 16 20  1  0  0  0  0
 17 21  1  0  0  0  0
 17 16  2  0  0  0  0
 18 14  1  0  0  0  0
 22 24  1  0  0  0  0
 22 25  1  0  0  0  0
 23 22  1  0  0  0  0
 26 25  1  0  0  0  0
M  END
>  <minimizedAffinity>
-4.71894121

$$$$

 OpenBabel03272502203D

 26 27  0  0  0  0  0  0  0  0999 V2000
   37.7500   22.2920   34.6840 C   0  0  0  0  0  0  0  0  0  0  0  0
   37.1710   21.2840   33.8850 C   0  0  0  0  0  0  0  0  0  0  0  0
   36.8160   21.6510   32.5980 C   0  0  0  0  0  0  0  0  0  0  0  0
   37.0290   22.9340   32.1510 N   0  0  0  0  0  0  0  0  0  0  0  0
   37.5970   23.8640   32.9810 C   0  0  0  0  0  0  0  0  0  0  0  0
   37.9530   23.5340   34.2430 N   0  0  0  0  0  0  0  0  0  0  0  0
   37.0170   20.3010   34.2550 H   0  0  0  0  0  0  0  0  0  0  0  0
   36.3620   20.9220   31.9200 H   0  0  0  0  0  0  0  0  0  0  0  0
   38.1340   21.9720   36.0140 N   0  0  0  0  0  0  0  0  0  0  0  0
   37.8220   21.1180   36.5240 H   0  0  0  0  0  0  0  0  0  0  0  0
   40.3670   24.2620   31.5850 Br  0  0  0  0  0  0  0  0  0  0  0  0
   39.0060   25.5800   31.8980 C   0  0  0  0  0  0  0  0  0  0  0  0
   37.8340   25.2310   32.5340 C   0  0  0  0  0  0  0  0  0  0  0  0
   36.9000   26.2280   32.7260 C   0  0  0  0  0  0  0  0  0  0  0  0
   37.0790   27.5390   32.3190 C   0  0  0  0  0  0  0  0  0  0  0  0
   38.2690   27.8410   31.6870 C   0  0  0  0  0  0  0  0  0  0  0  0
   39.2200   26.8610   31.4820 C   0  0  0  0  0  0  0  0  0  0  0  0
   35.9870   25.9340   33.2260 H   0  0  0  0  0  0  0  0  0  0  0  0
   36.2880   28.2410   32.5160 H   0  0  0  0  0  0  0  0  0  0  0  0
   38.4070   28.8590   31.3720 H   0  0  0  0  0  0  0  0  0  0  0  0
   40.1230   27.1940   30.9770 H   0  0  0  0  0  0  0  0  0  0  0  0
   39.1800   23.0550   36.8490 S   0  0  0  0  0  0  0  0  0  0  0  0
   38.4590   24.3350   37.1830 O   0  0  0  0  0  1  0  0  0  0  0  0
   40.3600   23.4330   35.9980 O   0  0  0  0  0  1  0  0  0  0  0  0
   39.7840   22.3720   38.2550 O   0  0  0  0  0  0  0  0  0  0  0  0
   40.0730   23.0850   38.8820 H   0  0  0  0  0  0  0  0  0  0  0  0
  1  9  1  0  0  0  0
  2  7  1  0  0  0  0
  2  1  2  0  0  0  0
  3  2  1  0  0  0  0
  4  3  2  0  0  0  0
  4  5  1  0  0  0  0
  5  6  2  0  0  0  0
  6  1  1  0  0  0  0
  8  3  1  0  0  0  0
  9 10  1  0  0  0  0
  9 22  1  0  0  0  0
 11 12  1  0  0  0  0
 12 13  1  0  0  0  0
 13 14  2  0  0  0  0
 13  5  1  0  0  0  0
 14 18  1  0  0  0  0
 15 19  1  0  0  0  0
 15 14  1  0  0  0  0
 16 15  2  0  0  0  0
 17 16  1  0  0  0  0
 17 12  2  0  0  0  0
 20 16  1  0  0  0  0
 21 17  1  0  0  0  0
 22 23  1  0  0  0  0
 22 25  1  0  0  0  0
 24 22  1  0  0  0  0
 25 26  1  0  0  0  0
M  END
>  <minimizedAffinity>
-4.69864702

$$$$

 OpenBabel03272502203D

 26 27  0  0  0  0  0  0  0  0999 V2000
   39.9580   23.4640   35.2650 C   0  0  0  0  0  0  0  0  0  0  0  0
   41.2360   23.5490   34.6720 C   0  0  0  0  0  0  0  0  0  0  0  0
   41.2640   23.8250   33.3150 C   0  0  0  0  0  0  0  0  0  0  0  0
   40.0950   24.0020   32.6120 N   0  0  0  0  0  0  0  0  0  0  0  0
   38.8870   23.9050   33.2520 C   0  0  0  0  0  0  0  0  0  0  0  0
   38.8300   23.6370   34.5760 N   0  0  0  0  0  0  0  0  0  0  0  0
   42.1230   23.4090   35.2380 H   0  0  0  0  0  0  0  0  0  0  0  0
   42.2170   23.9070   32.7860 H   0  0  0  0  0  0  0  0  0  0  0  0
   39.8700   23.1830   36.6550 N   0  0  0  0  0  0  0  0  0  0  0  0
   40.6580   22.8150   37.2290 H   0  0  0  0  0  0  0  0  0  0  0  0
   38.0570   26.9020   32.9210 Br  0  0  0  0  0  0  0  0  0  0  0  0
   37.1220   25.3460   32.2970 C   0  0  0  0  0  0  0  0  0  0  0  0
   37.6330   24.0880   32.5320 C   0  0  0  0  0  0  0  0  0  0  0  0
   36.9090   23.0140   32.0550 C   0  0  0  0  0  0  0  0  0  0  0  0
   35.7150   23.1360   31.3660 C   0  0  0  0  0  0  0  0  0  0  0  0
   35.2420   24.4170   31.1550 C   0  0  0  0  0  0  0  0  0  0  0  0
   35.9480   25.5080   31.6220 C   0  0  0  0  0  0  0  0  0  0  0  0
   37.3270   22.0350   32.2490 H   0  0  0  0  0  0  0  0  0  0  0  0
   35.2280   22.2360   31.0360 H   0  0  0  0  0  0  0  0  0  0  0  0
   34.3150   24.5100   30.6200 H   0  0  0  0  0  0  0  0  0  0  0  0
   35.4980   26.4730   31.4080 H   0  0  0  0  0  0  0  0  0  0  0  0
   38.3710   23.4630   37.4540 S   0  0  0  0  0  0  0  0  0  0  0  0
   37.9520   24.9020   37.3070 O   0  0  0  0  0  1  0  0  0  0  0  0
   38.4830   23.1930   38.9280 O   0  0  0  0  0  1  0  0  0  0  0  0
   37.1590   22.4670   36.8610 O   0  0  0  0  0  0  0  0  0  0  0  0
   36.2700   22.8630   37.0540 H   0  0  0  0  0  0  0  0  0  0  0  0
  1  9  1  0  0  0  0
  2  7  1  0  0  0  0
  2  1  1  0  0  0  0
  3  2  2  0  0  0  0
  4  5  2  0  0  0  0
  4  3  1  0  0  0  0
  5  6  1  0  0  0  0
  6  1  2  0  0  0  0
  8  3  1  0  0  0  0
  9 10  1  0  0  0  0
  9 22  1  0  0  0  0
 12 13  1  0  0  0  0
 12 11  1  0  0  0  0
 13  5  1  0  0  0  0
 14 18  1  0  0  0  0
 14 13  2  0  0  0  0
 15 14  1  0  0  0  0
 16 15  2  0  0  0  0
 16 17  1  0  0  0  0
 17 12  2  0  0  0  0
 19 15  1  0  0  0  0
 20 16  1  0  0  0  0
 21 17  1  0  0  0  0
 22 24  1  0  0  0  0
 23 22  1  0  0  0  0
 25 26  1  0  0  0  0
 25 22  1  0  0  0  0
M  END
>  <minimizedAffinity>
-4.64751768

$$$$

 OpenBabel03272502203D

 26 27  0  0  0  0  0  0  0  0999 V2000
   37.0530   25.6650   32.5750 C   0  0  0  0  0  0  0  0  0  0  0  0
   36.2000   26.4740   31.7940 C   0  0  0  0  0  0  0  0  0  0  0  0
   35.3060   25.8070   30.9730 C   0  0  0  0  0  0  0  0  0  0  0  0
   35.2750   24.4320   30.9420 N   0  0  0  0  0  0  0  0  0  0  0  0
   36.1330   23.7080   31.7270 C   0  0  0  0  0  0  0  0  0  0  0  0
   37.0160   24.3330   32.5390 N   0  0  0  0  0  0  0  0  0  0  0  0
   36.2450   27.5340   31.8370 H   0  0  0  0  0  0  0  0  0  0  0  0
   34.6130   26.3670   30.3390 H   0  0  0  0  0  0  0  0  0  0  0  0
   37.9900   26.2970   33.4370 N   0  0  0  0  0  0  0  0  0  0  0  0
   38.2550   27.3030   33.3770 H   0  0  0  0  0  0  0  0  0  0  0  0
   38.6040   22.4500   30.2820 Br  0  0  0  0  0  0  0  0  0  0  0  0
   37.1380   21.5350   31.1190 C   0  0  0  0  0  0  0  0  0  0  0  0
   36.1220   22.2510   31.7140 C   0  0  0  0  0  0  0  0  0  0  0  0
   35.1000   21.5290   32.2970 C   0  0  0  0  0  0  0  0  0  0  0  0
   35.0450   20.1470   32.3110 C   0  0  0  0  0  0  0  0  0  0  0  0
   36.0850   19.4730   31.7010 C   0  0  0  0  0  0  0  0  0  0  0  0
   37.1200   20.1710   31.1110 C   0  0  0  0  0  0  0  0  0  0  0  0
   34.3120   22.1100   32.7590 H   0  0  0  0  0  0  0  0  0  0  0  0
   34.2030   19.6800   32.7910 H   0  0  0  0  0  0  0  0  0  0  0  0
   36.0410   18.4000   31.7120 H   0  0  0  0  0  0  0  0  0  0  0  0
   37.8910   19.5560   30.6570 H   0  0  0  0  0  0  0  0  0  0  0  0
   38.7460   25.3500   34.6600 S   0  0  0  0  0  0  0  0  0  0  0  0
   37.7790   25.0580   35.7770 O   0  0  0  0  0  1  0  0  0  0  0  0
   39.9070   26.0820   35.2720 O   0  0  0  0  0  1  0  0  0  0  0  0
   39.3400   23.9070   34.0460 O   0  0  0  0  0  0  0  0  0  0  0  0
   39.4390   23.2440   34.7770 H   0  0  0  0  0  0  0  0  0  0  0  0
  1  9  1  0  0  0  0
  2  7  1  0  0  0  0
  2  1  2  0  0  0  0
  3  2  1  0  0  0  0
  4  3  2  0  0  0  0
  4  5  1  0  0  0  0
  5  6  2  0  0  0  0
  6  1  1  0  0  0  0
  8  3  1  0  0  0  0
  9 22  1  0  0  0  0
 10  9  1  0  0  0  0
 11 12  1  0  0  0  0
 12 13  1  0  0  0  0
 13  5  1  0  0  0  0
 13 14  2  0  0  0  0
 14 15  1  0  0  0  0
 14 18  1  0  0  0  0
 15 19  1  0  0  0  0
 16 20  1  0  0  0  0
 16 15  2  0  0  0  0
 17 12  2  0  0  0  0
 17 16  1  0  0  0  0
 21 17  1  0  0  0  0
 22 24  1  0  0  0  0
 22 23  1  0  0  0  0
 25 22  1  0  0  0  0
 25 26  1  0  0  0  0
M  END
>  <minimizedAffinity>
-4.63836813

$$$$

 OpenBabel03272502203D

 26 27  0  0  0  0  0  0  0  0999 V2000
   39.8390   22.3260   35.5210 C   0  0  0  0  0  0  0  0  0  0  0  0
   41.0570   22.0590   34.8620 C   0  0  0  0  0  0  0  0  0  0  0  0
   40.9600   21.5840   33.5650 C   0  0  0  0  0  0  0  0  0  0  0  0
   39.7310   21.3920   32.9790 N   0  0  0  0  0  0  0  0  0  0  0  0
   38.5860   21.6710   33.6780 C   0  0  0  0  0  0  0  0  0  0  0  0
   38.6500   22.1370   34.9460 N   0  0  0  0  0  0  0  0  0  0  0  0
   41.9930   22.2170   35.3380 H   0  0  0  0  0  0  0  0  0  0  0  0
   41.8620   21.3550   32.9900 H   0  0  0  0  0  0  0  0  0  0  0  0
   39.8780   22.8160   36.8550 N   0  0  0  0  0  0  0  0  0  0  0  0
   40.7230   22.7850   37.4650 H   0  0  0  0  0  0  0  0  0  0  0  0
   37.5870   24.1290   32.0220 Br  0  0  0  0  0  0  0  0  0  0  0  0
   36.6810   22.4620   32.3190 C   0  0  0  0  0  0  0  0  0  0  0  0
   37.2700   21.4770   33.0820 C   0  0  0  0  0  0  0  0  0  0  0  0
   36.5630   20.3050   33.2540 C   0  0  0  0  0  0  0  0  0  0  0  0
   35.3120   20.0740   32.7090 C   0  0  0  0  0  0  0  0  0  0  0  0
   34.7620   21.0900   31.9520 C   0  0  0  0  0  0  0  0  0  0  0  0
   35.4490   22.2720   31.7650 C   0  0  0  0  0  0  0  0  0  0  0  0
   37.0430   19.5450   33.8570 H   0  0  0  0  0  0  0  0  0  0  0  0
   34.8440   19.1250   32.9030 H   0  0  0  0  0  0  0  0  0  0  0  0
   33.7910   20.9090   31.5300 H   0  0  0  0  0  0  0  0  0  0  0  0
   34.9360   23.0110   31.1550 H   0  0  0  0  0  0  0  0  0  0  0  0
   38.4460   23.5050   37.5170 S   0  0  0  0  0  0  0  0  0  0  0  0
   38.1360   24.8220   36.8550 O   0  0  0  0  0  1  0  0  0  0  0  0
   38.6080   23.7860   38.9850 O   0  0  0  0  0  1  0  0  0  0  0  0
   37.1320   22.4760   37.3540 O   0  0  0  0  0  0  0  0  0  0  0  0
   36.2880   22.9960   37.4010 H   0  0  0  0  0  0  0  0  0  0  0  0
  1  9  1  0  0  0  0
  2  7  1  0  0  0  0
  2  1  2  0  0  0  0
  3  2  1  0  0  0  0
  4  3  2  0  0  0  0
  4  5  1  0  0  0  0
  5  6  2  0  0  0  0
  6  1  1  0  0  0  0
  8  3  1  0  0  0  0
  9 10  1  0  0  0  0
  9 22  1  0  0  0  0
 11 12  1  0  0  0  0
 12 13  1  0  0  0  0
 13 14  2  0  0  0  0
 13  5  1  0  0  0  0
 14 18  1  0  0  0  0
 15 19  1  0  0  0  0
 15 14  1  0  0  0  0
 16 15  2  0  0  0  0
 17 16  1  0  0  0  0
 17 12  2  0  0  0  0
 20 16  1  0  0  0  0
 21 17  1  0  0  0  0
 22 24  1  0  0  0  0
 23 22  1  0  0  0  0
 25 26  1  0  0  0  0
 25 22  1  0  0  0  0
M  END
>  <minimizedAffinity>
-4.63632488

$$$$
