
 OpenBabel03272509463D

 23 23  0  0  0  0  0  0  0  0999 V2000
   33.8300   28.6650   48.7080 C   0  0  0  0  0  0  0  0  0  0  0  0
   34.3100   28.7340   47.7290 H   0  0  0  0  0  0  0  0  0  0  0  0
   33.5050   29.7140   48.9590 H   0  0  0  0  0  0  0  0  0  0  0  0
   32.5640   27.8380   48.6630 C   0  0  0  0  0  0  0  0  0  0  0  0
   32.2140   27.6990   47.6300 H   0  0  0  0  0  0  0  0  0  0  0  0
   32.8590   26.8210   49.0500 H   0  0  0  0  0  0  0  0  0  0  0  0
   31.5580   28.3220   49.5710 N   0  0  0  0  0  0  0  0  0  0  0  0
   31.4960   29.3600   49.5980 H   0  0  0  0  0  0  0  0  0  0  0  0
   30.0530   27.5920   49.1300 S   0  0  0  0  0  0  0  0  0  0  0  0
   30.3550   26.5670   48.0710 O   0  0  0  0  0  0  0  0  0  0  0  0
   29.0690   28.6300   48.6250 O   0  0  0  0  0  0  0  0  0  0  0  0
   29.3860   26.8740   50.5020 O   0  0  0  0  0  0  0  0  0  0  0  0
   29.7500   27.3340   51.2820 H   0  0  0  0  0  0  0  0  0  0  0  0
   34.6660   28.2770   49.7690 O   0  0  0  0  0  0  0  0  0  0  0  0
   37.2830   30.1880   51.4060 C   0  0  0  0  0  0  0  0  0  0  0  0
   37.9910   30.6290   50.2760 C   0  0  0  0  0  0  0  0  0  0  0  0
   37.5380   30.2520   49.0140 C   0  0  0  0  0  0  0  0  0  0  0  0
   36.4250   29.4690   48.9500 N   0  0  0  0  0  0  0  0  0  0  0  0
   35.7660   29.0610   50.0530 C   0  0  0  0  0  0  0  0  0  0  0  0
   36.2160   29.4350   51.2660 N   0  0  0  0  0  0  0  0  0  0  0  0
   37.6720   30.5050   52.3570 H   0  0  0  0  0  0  0  0  0  0  0  0
   38.8820   31.2550   50.3570 H   0  0  0  0  0  0  0  0  0  0  0  0
   38.0390   30.5570   48.0900 H   0  0  0  0  0  0  0  0  0  0  0  0
  1  3  1  0  0  0  0
  1 14  1  0  0  0  0
  2  1  1  0  0  0  0
  4  1  1  0  0  0  0
  4  6  1  0  0  0  0
  4  7  1  0  0  0  0
  5  4  1  0  0  0  0
  7  8  1  0  0  0  0
  9  7  1  0  0  0  0
  9 12  1  0  0  0  0
 10  9  1  0  0  0  0
 11  9  1  0  0  0  0
 12 13  1  0  0  0  0
 14 19  1  0  0  0  0
 15 21  1  0  0  0  0
 16 22  1  0  0  0  0
 16 15  2  0  0  0  0
 17 16  1  0  0  0  0
 18 17  2  0  0  0  0
 18 19  1  0  0  0  0
 19 20  2  0  0  0  0
 20 15  1  0  0  0  0
 23 17  1  0  0  0  0
M  END
>  <minimizedAffinity>
-4.28089762

>  <minimizedRMSD>
1.59673631

$$$$
