
     RDKit          3D

 33 34  0  0  0  0  0  0  0  0999 V2000
   38.1160   31.8864   47.4132 C   0  0  0  0  0  0  0  0  0  0  0  0
   38.5888   32.7882   48.3230 C   0  0  0  0  0  0  0  0  0  0  0  0
   38.0841   32.8638   49.6297 C   0  0  0  0  0  0  0  0  0  0  0  0
   37.0282   31.9394   49.9919 C   0  0  0  0  0  0  0  0  0  0  0  0
   36.6043   31.0692   49.0426 C   0  0  0  0  0  0  0  0  0  0  0  0
   37.0934   31.0054   47.7900 C   0  0  0  0  0  0  0  0  0  0  0  0
   39.9968   31.2636   45.9903 C   0  0  0  0  0  0  0  0  0  0  0  0
   38.7471   31.9132   46.1165 C   0  0  0  0  0  0  0  0  0  0  0  0
   38.2828   32.4927   44.9619 C   0  0  0  0  0  0  0  0  0  0  0  0
   38.9955   32.4225   43.8224 N   0  0  0  0  0  0  0  0  0  0  0  0
   40.1542   31.8149   43.7239 C   0  0  0  0  0  0  0  0  0  0  0  0
   40.6534   31.2372   44.8049 N   0  0  0  0  0  0  0  0  0  0  0  0
   35.1581   29.9712   46.9426 C   0  0  0  0  0  0  0  0  0  0  0  0
   34.5185   30.6335   47.8538 O   0  0  0  0  0  0  0  0  0  0  0  0
   36.5982   30.1153   46.8722 N   0  0  0  0  0  0  0  0  0  0  0  0
   34.4564   29.1617   46.0854 O   0  0  0  0  0  0  0  0  0  0  0  0
   33.3624   29.5768   45.3303 C   0  0  0  0  0  0  0  0  0  0  0  0
   33.3709   30.7162   44.6730 O   0  0  0  0  0  0  0  0  0  0  0  0
   39.3906   33.5008   48.0739 H   0  0  0  0  0  0  0  0  0  0  0  0
   38.5048   33.6024   50.2970 H   0  0  0  0  0  0  0  0  0  0  0  0
   36.7534   32.1170   51.0032 H   0  0  0  0  0  0  0  0  0  0  0  0
   35.8514   30.4742   49.5351 H   0  0  0  0  0  0  0  0  0  0  0  0
   40.4596   30.7683   46.8492 H   0  0  0  0  0  0  0  0  0  0  0  0
   37.3193   32.9939   45.0584 H   0  0  0  0  0  0  0  0  0  0  0  0
   40.6208   31.8348   42.7437 H   0  0  0  0  0  0  0  0  0  0  0  0
   37.1690   29.5968   46.2015 H   0  0  0  0  0  0  0  0  0  0  0  0
   32.1271   28.9047   45.1133 N   0  0  0  0  0  0  0  0  0  0  0  0
   31.2699   29.5287   45.1916 H   0  0  0  0  0  0  0  0  0  0  0  0
   32.1021   27.2190   44.7593 S   0  0  0  0  0  0  0  0  0  0  0  0
   30.8095   26.9690   43.9989 O   0  0  0  0  0  0  0  0  0  0  0  0
   33.2662   26.8251   43.9093 O   0  0  0  0  0  0  0  0  0  0  0  0
   31.9993   26.2795   46.1399 O   0  0  0  0  0  0  0  0  0  0  0  0
   32.3132   26.7358   46.9575 H   0  0  0  0  0  0  0  0  0  0  0  0
  1  6  1  0
  1  2  2  0
  2  3  1  0
  3  4  2  0
  5  4  1  0
  6  5  2  0
  7  8  2  0
  8  1  1  0
  9  8  1  0
 10  9  2  0
 11 10  1  0
 11 12  2  0
 12  7  1  0
 13 14  2  0
 15 13  1  0
 15  6  1  0
 16 13  1  0
 17 16  1  0
 18 17  2  0
  2 19  1  0
  3 20  1  0
  4 21  1  0
  5 22  1  0
  7 23  1  0
  9 24  1  0
 11 25  1  0
 15 26  1  0
 27 28  1  0
 27 29  1  0
 29 30  2  0
 29 31  2  0
 29 32  1  0
 32 33  1  0
 17 27  1  0
M  ISO  8  19  14  20  14  21  14  22  14  23  14  24  14  25  14  28   5
M  ISO  1  33   3
M  END
>  <DihAtoms>  (1) 
15,16,26,27

>  <DihDeg>  (1) 
0.919083901518426

$$$$
