
     RDKit          3D

 41 43  0  0  0  0  0  0  0  0999 V2000
   37.3372   30.1724   51.5178 C   0  0  0  0  0  0  0  0  0  0  0  0
   38.0786   30.8640   50.5175 C   0  0  0  0  0  0  0  0  0  0  0  0
   37.7071   30.6515   49.1956 C   0  0  0  0  0  0  0  0  0  0  0  0
   36.6632   29.7975   48.9741 N   0  0  0  0  0  0  0  0  0  0  0  0
   35.9903   29.1668   49.9245 C   0  0  0  0  0  0  0  0  0  0  0  0
   36.3369   29.3610   51.2127 N   0  0  0  0  0  0  0  0  0  0  0  0
   38.9410   33.2616   49.0111 F   0  0  0  0  0  0  0  0  0  0  0  0
   38.9164   32.4713   47.9385 C   0  0  0  0  0  0  0  0  0  0  0  0
   38.3358   31.2597   48.0497 C   0  0  0  0  0  0  0  0  0  0  0  0
   38.3679   30.5155   46.8612 C   0  0  0  0  0  0  0  0  0  0  0  0
   38.9347   30.9793   45.7044 C   0  0  0  0  0  0  0  0  0  0  0  0
   39.5153   32.2266   45.6455 C   0  0  0  0  0  0  0  0  0  0  0  0
   39.4980   32.9753   46.7927 C   0  0  0  0  0  0  0  0  0  0  0  0
   34.9868   28.3655   49.4464 O   0  0  0  0  0  0  0  0  0  0  0  0
   34.4407   28.6733   48.1607 C   0  0  0  0  0  0  0  0  0  0  0  0
   33.5663   27.5400   47.7061 C   0  0  0  0  0  0  0  0  0  0  0  0
   32.1293   27.9079   47.6914 C   0  0  0  0  0  0  0  0  0  0  0  0
   31.3588   27.5169   48.7882 C   0  0  0  0  0  0  0  0  0  0  0  0
   30.0264   27.8068   48.8709 C   0  0  0  0  0  0  0  0  0  0  0  0
   29.4481   28.4724   47.8930 N   0  0  0  0  0  0  0  0  0  0  0  0
   30.1964   28.8568   46.8188 C   0  0  0  0  0  0  0  0  0  0  0  0
   31.5129   28.5922   46.6963 N   0  0  0  0  0  0  0  0  0  0  0  0
   37.6483   30.3565   52.5420 H   0  0  0  0  0  0  0  0  0  0  0  0
   38.8951   31.5316   50.6942 H   0  0  0  0  0  0  0  0  0  0  0  0
   37.9331   29.5144   46.8077 H   0  0  0  0  0  0  0  0  0  0  0  0
   38.9534   30.3955   44.7930 H   0  0  0  0  0  0  0  0  0  0  0  0
   39.9559   32.5795   44.7355 H   0  0  0  0  0  0  0  0  0  0  0  0
   39.9477   33.9625   46.7779 H   0  0  0  0  0  0  0  0  0  0  0  0
   33.8407   29.6056   48.2133 H   0  0  0  0  0  0  0  0  0  0  0  0
   35.3198   28.7750   47.4693 H   0  0  0  0  0  0  0  0  0  0  0  0
   33.8172   27.2226   46.6553 H   0  0  0  0  0  0  0  0  0  0  0  0
   33.7084   26.6396   48.3239 H   0  0  0  0  0  0  0  0  0  0  0  0
   31.8369   26.9663   49.5973 H   0  0  0  0  0  0  0  0  0  0  0  0
   29.4256   27.5003   49.7290 H   0  0  0  0  0  0  0  0  0  0  0  0
   29.5504   29.5772   45.7699 N   0  0  0  0  0  0  0  0  0  0  0  0
   30.0036   29.6923   44.8360 H   0  0  0  0  0  0  0  0  0  0  0  0
   27.9995   30.3083   45.9388 S   0  0  0  0  0  0  0  0  0  0  0  0
   27.4769   30.1689   47.3400 O   0  0  0  0  0  0  0  0  0  0  0  0
   28.0566   31.7922   45.6609 O   0  0  0  0  0  0  0  0  0  0  0  0
   26.9686   29.5750   44.8173 O   0  0  0  0  0  0  0  0  0  0  0  0
   27.0818   30.0915   43.9634 H   0  0  0  0  0  0  0  0  0  0  0  0
  2  1  2  0
  3  2  1  0
  4  3  2  0
  4  5  1  0
  5  6  2  0
  6  1  1  0
  8  9  2  0
  8  7  1  0
  9  3  1  0
 10  9  1  0
 11 10  2  0
 12 11  1  0
 12 13  2  0
 13  8  1  0
 14  5  1  0
 15 14  1  0
 16 15  1  0
 17 16  1  0
 17 18  2  0
 18 19  1  0
 20 19  2  0
 21 20  1  0
 22 21  2  0
 22 17  1  0
  1 23  1  0
  2 24  1  0
 10 25  1  0
 11 26  1  0
 12 27  1  0
 13 28  1  0
 15 29  1  0
 15 30  1  0
 16 31  1  0
 16 32  1  0
 18 33  1  0
 19 34  1  0
 35 36  1  0
 35 37  1  0
 37 38  2  0
 37 39  2  0
 37 40  1  0
 40 41  1  0
 21 35  1  0
M  ISO  8  23  14  24  14  25  14  26  14  27  14  28  14  29   8  30   8
M  ISO  6  31   8  32   8  33  14  34  14  36   5  41   3
M  END
>  <DihAtoms>  (1) 
19,20,34,35

>  <DihDeg>  (1) 
-0.0008440864670864064

$$$$
