
 OpenBabel03272503063D

 30 31  0  0  0  0  0  0  0  0999 V2000
   38.3230   30.4980   47.2400 F   0  0  0  0  0  0  0  0  0  0  0  0
   38.6960   31.7060   47.7300 C   0  0  0  0  0  0  0  0  0  0  0  0
   38.3280   32.0900   48.9940 C   0  0  0  0  0  0  0  0  0  0  0  0
   38.7390   33.3190   49.4190 C   0  0  0  0  0  0  0  0  0  0  0  0
   39.4930   34.1650   48.6360 C   0  0  0  0  0  0  0  0  0  0  0  0
   39.8530   33.7650   47.3690 C   0  0  0  0  0  0  0  0  0  0  0  0
   39.4540   32.5250   46.9050 C   0  0  0  0  0  0  0  0  0  0  0  0
   38.4530   33.6260   50.4140 H   0  0  0  0  0  0  0  0  0  0  0  0
   39.8240   35.1420   48.9620 H   0  0  0  0  0  0  0  0  0  0  0  0
   40.4480   34.3450   46.6540 H   0  0  0  0  0  0  0  0  0  0  0  0
   37.2110   29.6210   51.6340 C   0  0  0  0  0  0  0  0  0  0  0  0
   38.0100   30.5120   50.9080 C   0  0  0  0  0  0  0  0  0  0  0  0
   37.5310   31.1550   49.7790 C   0  0  0  0  0  0  0  0  0  0  0  0
   36.2360   30.8630   49.4270 N   0  0  0  0  0  0  0  0  0  0  0  0
   35.4830   30.0060   50.1340 C   0  0  0  0  0  0  0  0  0  0  0  0
   35.9620   29.3920   51.2220 N   0  0  0  0  0  0  0  0  0  0  0  0
   37.6520   29.1680   52.4870 H   0  0  0  0  0  0  0  0  0  0  0  0
   39.0360   30.7220   51.2160 H   0  0  0  0  0  0  0  0  0  0  0  0
   34.4540   29.7860   49.8360 H   0  0  0  0  0  0  0  0  0  0  0  0
   38.7210   32.0920   44.6650 C   0  0  0  0  0  0  0  0  0  0  0  0
   37.6060   32.4560   45.1520 O   0  0  0  0  0  0  0  0  0  0  0  0
   39.8060   32.0660   45.5910 N   0  0  0  0  0  0  0  0  0  0  0  0
   40.7160   31.7230   45.2240 H   0  0  0  0  0  0  0  0  0  0  0  0
   38.8490   31.7430   43.2900 N   0  0  0  0  0  0  0  0  0  0  0  0
   39.1720   30.7760   43.0400 H   0  0  0  0  0  0  0  0  0  0  0  0
   38.4960   32.8440   42.0060 S   0  0  0  0  0  0  0  0  0  0  0  0
   38.6800   32.1620   40.7050 O   0  0  0  0  0  1  0  0  0  0  0  0
   39.4310   34.0320   42.0600 O   0  0  0  0  0  1  0  0  0  0  0  0
   36.9390   33.4510   42.2180 O   0  0  0  0  0  0  0  0  0  0  0  0
   36.4970   33.6440   41.3510 H   0  0  0  0  0  0  0  0  0  0  0  0
  1  2  1  0  0  0  0
  2  3  1  0  0  0  0
  3  4  2  0  0  0  0
  3 13  1  0  0  0  0
  4  8  1  0  0  0  0
  5  9  1  0  0  0  0
  5  4  1  0  0  0  0
  6  5  2  0  0  0  0
  7  6  1  0  0  0  0
  7  2  2  0  0  0  0
 10  6  1  0  0  0  0
 11 17  1  0  0  0  0
 12 18  1  0  0  0  0
 12 11  2  0  0  0  0
 13 12  1  0  0  0  0
 14 13  2  0  0  0  0
 14 15  1  0  0  0  0
 15 16  2  0  0  0  0
 16 11  1  0  0  0  0
 19 15  1  0  0  0  0
 20 21  2  0  0  0  0
 20 22  1  0  0  0  0
 22  7  1  0  0  0  0
 23 22  1  0  0  0  0
 24 20  1  0  0  0  0
 25 24  1  0  0  0  0
 26 28  1  0  0  0  0
 26 29  1  0  0  0  0
 26 24  1  0  0  0  0
 27 26  1  0  0  0  0
 30 29  1  0  0  0  0
M  END
>  <minimizedAffinity>
-6.11594868

>  <minimizedRMSD>
0.777898073

$$$$
