
 OpenBabel03272503063D

 30 31  0  0  0  0  0  0  0  0999 V2000
   38.5190   30.4140   47.3190 F   0  0  0  0  0  0  0  0  0  0  0  0
   38.7770   31.6530   47.8060 C   0  0  0  0  0  0  0  0  0  0  0  0
   38.1920   32.0800   48.9710 C   0  0  0  0  0  0  0  0  0  0  0  0
   38.4980   33.3380   49.3990 C   0  0  0  0  0  0  0  0  0  0  0  0
   39.3540   34.1710   48.7140 C   0  0  0  0  0  0  0  0  0  0  0  0
   39.9320   33.7280   47.5460 C   0  0  0  0  0  0  0  0  0  0  0  0
   39.6450   32.4580   47.0820 C   0  0  0  0  0  0  0  0  0  0  0  0
   38.0410   33.6800   50.3160 H   0  0  0  0  0  0  0  0  0  0  0  0
   39.6040   35.1710   49.0440 H   0  0  0  0  0  0  0  0  0  0  0  0
   40.6260   34.2940   46.9140 H   0  0  0  0  0  0  0  0  0  0  0  0
   36.7570   29.5860   51.4260 C   0  0  0  0  0  0  0  0  0  0  0  0
   37.6490   30.4630   50.8000 C   0  0  0  0  0  0  0  0  0  0  0  0
   37.2940   31.1570   49.6540 C   0  0  0  0  0  0  0  0  0  0  0  0
   36.0260   30.9270   49.1830 N   0  0  0  0  0  0  0  0  0  0  0  0
   35.1820   30.0820   49.7960 C   0  0  0  0  0  0  0  0  0  0  0  0
   35.5400   29.4190   50.9020 N   0  0  0  0  0  0  0  0  0  0  0  0
   37.1040   29.0920   52.3000 H   0  0  0  0  0  0  0  0  0  0  0  0
   38.6510   30.6230   51.2020 H   0  0  0  0  0  0  0  0  0  0  0  0
   34.1750   29.9130   49.4040 H   0  0  0  0  0  0  0  0  0  0  0  0
   39.4550   32.2400   44.7030 C   0  0  0  0  0  0  0  0  0  0  0  0
   38.3570   32.8400   44.9170 O   0  0  0  0  0  0  0  0  0  0  0  0
   40.2240   31.9520   45.8690 N   0  0  0  0  0  0  0  0  0  0  0  0
   41.1030   31.4170   45.7200 H   0  0  0  0  0  0  0  0  0  0  0  0
   39.8640   31.8940   43.3830 N   0  0  0  0  0  0  0  0  0  0  0  0
   40.8890   31.8540   43.1640 H   0  0  0  0  0  0  0  0  0  0  0  0
   38.7430   31.5350   42.1180 S   0  0  0  0  0  0  0  0  0  0  0  0
   39.2540   30.4040   41.3110 O   0  0  0  0  0  1  0  0  0  0  0  0
   38.5730   32.7330   41.2090 O   0  0  0  0  0  1  0  0  0  0  0  0
   37.2310   31.2310   42.7960 O   0  0  0  0  0  0  0  0  0  0  0  0
   36.7170   30.5670   42.2690 H   0  0  0  0  0  0  0  0  0  0  0  0
  1  2  1  0  0  0  0
  2  3  1  0  0  0  0
  3  4  2  0  0  0  0
  3 13  1  0  0  0  0
  4  8  1  0  0  0  0
  5  9  1  0  0  0  0
  5  4  1  0  0  0  0
  6  5  2  0  0  0  0
  7  6  1  0  0  0  0
  7  2  2  0  0  0  0
 10  6  1  0  0  0  0
 11 17  1  0  0  0  0
 12 18  1  0  0  0  0
 12 11  2  0  0  0  0
 13 12  1  0  0  0  0
 14 13  2  0  0  0  0
 14 15  1  0  0  0  0
 15 16  2  0  0  0  0
 16 11  1  0  0  0  0
 19 15  1  0  0  0  0
 20 21  2  0  0  0  0
 20 22  1  0  0  0  0
 22  7  1  0  0  0  0
 23 22  1  0  0  0  0
 24 20  1  0  0  0  0
 25 24  1  0  0  0  0
 26 29  1  0  0  0  0
 26 24  1  0  0  0  0
 27 26  1  0  0  0  0
 28 26  1  0  0  0  0
 30 29  1  0  0  0  0
M  END
>  <minimizedAffinity>
-6.14485216

>  <minimizedRMSD>
0.297589183

$$$$
