
 OpenBabel03272509523D

 41 43  0  0  0  0  0  0  0  0999 V2000
   34.1380   28.8660   47.9940 C   0  0  0  0  0  0  0  0  0  0  0  0
   33.4720   29.7290   48.2010 H   0  0  0  0  0  0  0  0  0  0  0  0
   35.0130   29.1540   47.3510 H   0  0  0  0  0  0  0  0  0  0  0  0
   33.3520   27.7770   47.3210 C   0  0  0  0  0  0  0  0  0  0  0  0
   33.4240   27.8500   46.2000 H   0  0  0  0  0  0  0  0  0  0  0  0
   33.7390   26.7780   47.5740 H   0  0  0  0  0  0  0  0  0  0  0  0
   31.9060   27.8430   47.6450 C   0  0  0  0  0  0  0  0  0  0  0  0
   31.4420   27.0120   48.6660 C   0  0  0  0  0  0  0  0  0  0  0  0
   30.1280   26.9980   49.0400 C   0  0  0  0  0  0  0  0  0  0  0  0
   29.2720   27.7870   48.4240 N   0  0  0  0  0  0  0  0  0  0  0  0
   29.7210   28.6010   47.4260 C   0  0  0  0  0  0  0  0  0  0  0  0
   31.0080   28.6470   47.0250 N   0  0  0  0  0  0  0  0  0  0  0  0
   32.1490   26.3590   49.1750 H   0  0  0  0  0  0  0  0  0  0  0  0
   29.7670   26.3470   49.8380 H   0  0  0  0  0  0  0  0  0  0  0  0
   28.7770   29.4490   46.7720 N   0  0  0  0  0  0  0  0  0  0  0  0
   29.0080   29.9120   45.8640 H   0  0  0  0  0  0  0  0  0  0  0  0
   27.2090   29.7810   47.4000 S   0  0  0  0  0  0  0  0  0  0  0  0
   27.2800   30.3090   48.8040 O   0  0  0  0  0  1  0  0  0  0  0  0
   26.5040   30.8440   46.5900 O   0  0  0  0  0  1  0  0  0  0  0  0
   26.3170   28.3460   47.3220 O   0  0  0  0  0  0  0  0  0  0  0  0
   25.9090   28.3270   46.4040 H   0  0  0  0  0  0  0  0  0  0  0  0
   34.6940   28.3680   49.2130 O   0  0  0  0  0  0  0  0  0  0  0  0
   36.9930   29.9170   51.5360 C   0  0  0  0  0  0  0  0  0  0  0  0
   37.8070   30.6590   50.6310 C   0  0  0  0  0  0  0  0  0  0  0  0
   37.4970   30.5650   49.2810 C   0  0  0  0  0  0  0  0  0  0  0  0
   36.4380   29.7700   48.9400 N   0  0  0  0  0  0  0  0  0  0  0  0
   35.6970   29.0920   49.8030 C   0  0  0  0  0  0  0  0  0  0  0  0
   35.9840   29.1700   51.1180 N   0  0  0  0  0  0  0  0  0  0  0  0
   37.2570   30.0090   52.5850 H   0  0  0  0  0  0  0  0  0  0  0  0
   38.6350   31.2800   50.9010 H   0  0  0  0  0  0  0  0  0  0  0  0
   38.7280   33.1830   49.3350 F   0  0  0  0  0  0  0  0  0  0  0  0
   38.7840   32.4550   48.2190 C   0  0  0  0  0  0  0  0  0  0  0  0
   38.2030   31.2390   48.2200 C   0  0  0  0  0  0  0  0  0  0  0  0
   38.3230   30.5640   46.9950 C   0  0  0  0  0  0  0  0  0  0  0  0
   38.9690   31.0940   45.9100 C   0  0  0  0  0  0  0  0  0  0  0  0
   39.5460   32.3440   45.9650 C   0  0  0  0  0  0  0  0  0  0  0  0
   39.4440   33.0250   47.1500 C   0  0  0  0  0  0  0  0  0  0  0  0
   37.8980   29.5680   46.8540 H   0  0  0  0  0  0  0  0  0  0  0  0
   39.0550   30.5640   44.9710 H   0  0  0  0  0  0  0  0  0  0  0  0
   40.0490   32.7490   45.1110 H   0  0  0  0  0  0  0  0  0  0  0  0
   39.8890   34.0110   47.2240 H   0  0  0  0  0  0  0  0  0  0  0  0
  1  2  1  0  0  0  0
  1 22  1  0  0  0  0
  3  1  1  0  0  0  0
  4  6  1  0  0  0  0
  4  7  1  0  0  0  0
  4  1  1  0  0  0  0
  5  4  1  0  0  0  0
  7  8  1  0  0  0  0
  8  9  2  0  0  0  0
  8 13  1  0  0  0  0
  9 14  1  0  0  0  0
 10  9  1  0  0  0  0
 11 10  2  0  0  0  0
 12 11  1  0  0  0  0
 12  7  2  0  0  0  0
 15 17  1  0  0  0  0
 15 11  1  0  0  0  0
 16 15  1  0  0  0  0
 17 18  1  0  0  0  0
 19 17  1  0  0  0  0
 20 17  1  0  0  0  0
 21 20  1  0  0  0  0
 22 27  1  0  0  0  0
 23 29  1  0  0  0  0
 24 30  1  0  0  0  0
 24 23  2  0  0  0  0
 25 24  1  0  0  0  0
 26 25  2  0  0  0  0
 26 27  1  0  0  0  0
 27 28  2  0  0  0  0
 28 23  1  0  0  0  0
 32 33  1  0  0  0  0
 32 31  1  0  0  0  0
 33 25  1  0  0  0  0
 34 33  2  0  0  0  0
 35 36  2  0  0  0  0
 35 34  1  0  0  0  0
 36 37  1  0  0  0  0
 37 41  1  0  0  0  0
 37 32  2  0  0  0  0
 38 34  1  0  0  0  0
 39 35  1  0  0  0  0
 40 36  1  0  0  0  0
M  END
>  <minimizedAffinity>
-6.92043543

>  <minimizedRMSD>
0.941808045

$$$$
