
 OpenBabel03272506073D

 28 29  0  0  0  0  0  0  0  0999 V2000
   38.5660   25.8240   34.8860 C   0  0  0  0  0  0  0  0  0  0  0  0
   39.5670   26.0990   34.4970 H   0  0  0  0  0  0  0  0  0  0  0  0
   38.0450   25.3560   34.0020 H   0  0  0  0  0  0  0  0  0  0  0  0
   38.6670   24.7810   35.9670 C   0  0  0  0  0  0  0  0  0  0  0  0
   37.9470   24.9950   37.1970 C   0  0  0  0  0  0  0  0  0  0  0  0
   38.3850   23.5340   38.0990 S   0  0  0  0  0  0  0  0  0  0  0  0
   39.4570   22.8530   36.7190 C   0  0  0  0  0  0  0  0  0  0  0  0
   39.3690   23.6850   35.8690 N   0  0  0  0  0  0  0  0  0  0  0  0
   37.2990   25.8990   37.4210 H   0  0  0  0  0  0  0  0  0  0  0  0
   40.1320   21.5380   36.9510 N   0  0  0  0  0  0  0  0  0  0  0  0
   39.4120   20.8320   37.1210 H   0  0  0  0  0  0  0  0  0  0  0  0
   41.8400   21.3750   36.9110 S   0  0  0  0  0  0  0  0  0  0  0  0
   42.4560   22.7320   37.1100 O   0  0  0  0  0  1  0  0  0  0  0  0
   42.2930   20.8430   35.6040 O   0  0  0  0  0  1  0  0  0  0  0  0
   42.3220   20.3480   38.1640 O   0  0  0  0  0  0  0  0  0  0  0  0
   41.5830   19.6890   38.2640 H   0  0  0  0  0  0  0  0  0  0  0  0
   37.8660   27.0500   35.3380 C   0  0  0  0  0  0  0  0  0  0  0  0
   38.5640   27.8740   35.6330 H   0  0  0  0  0  0  0  0  0  0  0  0
   37.1890   26.8310   36.1920 H   0  0  0  0  0  0  0  0  0  0  0  0
   36.1820   27.6000   32.0670 C   0  0  0  0  0  0  0  0  0  0  0  0
   35.3780   28.7070   32.3260 C   0  0  0  0  0  0  0  0  0  0  0  0
   35.4220   29.2500   33.6130 C   0  0  0  0  0  0  0  0  0  0  0  0
   36.2360   28.6800   34.5380 N   0  0  0  0  0  0  0  0  0  0  0  0
   36.9940   27.6070   34.2310 C   0  0  0  0  0  0  0  0  0  0  0  0
   36.9800   27.0590   33.0150 N   0  0  0  0  0  0  0  0  0  0  0  0
   36.1120   27.2200   31.0650 H   0  0  0  0  0  0  0  0  0  0  0  0
   34.7350   29.1470   31.5750 H   0  0  0  0  0  0  0  0  0  0  0  0
   34.8190   30.1100   33.8750 H   0  0  0  0  0  0  0  0  0  0  0  0
  1 17  1  0  0  0  0
  1  4  1  0  0  0  0
  2  1  1  0  0  0  0
  3  1  1  0  0  0  0
  4  5  2  0  0  0  0
  5  9  1  0  0  0  0
  5  6  1  0  0  0  0
  7 10  1  0  0  0  0
  7  6  1  0  0  0  0
  8  4  1  0  0  0  0
  8  7  2  0  0  0  0
 10 11  1  0  0  0  0
 12 10  1  0  0  0  0
 12 13  1  0  0  0  0
 12 15  1  0  0  0  0
 14 12  1  0  0  0  0
 15 16  1  0  0  0  0
 17 18  1  0  0  0  0
 17 19  1  0  0  0  0
 20 21  2  0  0  0  0
 20 25  1  0  0  0  0
 21 22  1  0  0  0  0
 22 28  1  0  0  0  0
 22 23  2  0  0  0  0
 24 23  1  0  0  0  0
 24 17  1  0  0  0  0
 25 24  2  0  0  0  0
 26 20  1  0  0  0  0
 27 21  1  0  0  0  0
M  END
>  <minimizedAffinity>
-4.79819775

$$$$

 OpenBabel03272506073D

 28 29  0  0  0  0  0  0  0  0999 V2000
   38.6840   23.6600   33.5650 C   0  0  0  0  0  0  0  0  0  0  0  0
   38.4040   22.7440   34.1240 H   0  0  0  0  0  0  0  0  0  0  0  0
   39.5060   23.3200   32.8710 H   0  0  0  0  0  0  0  0  0  0  0  0
   37.5410   24.1520   32.7170 C   0  0  0  0  0  0  0  0  0  0  0  0
   36.7540   23.1840   31.9970 C   0  0  0  0  0  0  0  0  0  0  0  0
   35.5830   24.2400   31.1860 S   0  0  0  0  0  0  0  0  0  0  0  0
   36.3070   25.8090   31.9170 C   0  0  0  0  0  0  0  0  0  0  0  0
   37.2090   25.4070   32.5860 N   0  0  0  0  0  0  0  0  0  0  0  0
   36.9260   22.0630   32.0160 H   0  0  0  0  0  0  0  0  0  0  0  0
   35.6640   27.1070   31.5440 N   0  0  0  0  0  0  0  0  0  0  0  0
   34.6870   27.0810   31.8460 H   0  0  0  0  0  0  0  0  0  0  0  0
   36.5310   28.3520   30.7440 S   0  0  0  0  0  0  0  0  0  0  0  0
   37.9000   28.4530   31.3570 O   0  0  0  0  0  1  0  0  0  0  0  0
   35.8510   29.6600   30.9010 O   0  0  0  0  0  1  0  0  0  0  0  0
   36.6750   27.9560   29.1070 O   0  0  0  0  0  0  0  0  0  0  0  0
   35.8410   27.4620   28.8810 H   0  0  0  0  0  0  0  0  0  0  0  0
   39.1710   24.6840   34.5190 C   0  0  0  0  0  0  0  0  0  0  0  0
   38.5780   25.6330   34.4880 H   0  0  0  0  0  0  0  0  0  0  0  0
   40.2400   24.9240   34.3340 H   0  0  0  0  0  0  0  0  0  0  0  0
   39.8170   22.8450   37.6870 C   0  0  0  0  0  0  0  0  0  0  0  0
   38.8210   23.3370   38.5270 C   0  0  0  0  0  0  0  0  0  0  0  0
   37.9440   24.2890   38.0010 C   0  0  0  0  0  0  0  0  0  0  0  0
   38.1010   24.6840   36.7110 N   0  0  0  0  0  0  0  0  0  0  0  0
   39.0850   24.1730   35.9430 C   0  0  0  0  0  0  0  0  0  0  0  0
   39.9420   23.2630   36.4070 N   0  0  0  0  0  0  0  0  0  0  0  0
   40.4640   22.1170   38.1380 H   0  0  0  0  0  0  0  0  0  0  0  0
   38.7120   23.0090   39.5530 H   0  0  0  0  0  0  0  0  0  0  0  0
   37.1500   24.7080   38.6050 H   0  0  0  0  0  0  0  0  0  0  0  0
  1  2  1  0  0  0  0
  1 17  1  0  0  0  0
  3  1  1  0  0  0  0
  4  1  1  0  0  0  0
  5  9  1  0  0  0  0
  5  4  2  0  0  0  0
  6  7  1  0  0  0  0
  6  5  1  0  0  0  0
  7  8  2  0  0  0  0
  8  4  1  0  0  0  0
 10 11  1  0  0  0  0
 10  7  1  0  0  0  0
 12 14  1  0  0  0  0
 12 13  1  0  0  0  0
 12 10  1  0  0  0  0
 15 12  1  0  0  0  0
 16 15  1  0  0  0  0
 17 24  1  0  0  0  0
 18 17  1  0  0  0  0
 19 17  1  0  0  0  0
 20 26  1  0  0  0  0
 20 21  1  0  0  0  0
 21 27  1  0  0  0  0
 22 21  2  0  0  0  0
 22 28  1  0  0  0  0
 23 22  1  0  0  0  0
 24 25  1  0  0  0  0
 24 23  2  0  0  0  0
 25 20  2  0  0  0  0
M  END
>  <minimizedAffinity>
-4.79191685

$$$$

 OpenBabel03272506073D

 28 29  0  0  0  0  0  0  0  0999 V2000
   37.9720   25.5490   34.9760 C   0  0  0  0  0  0  0  0  0  0  0  0
   36.8900   25.7920   34.9570 H   0  0  0  0  0  0  0  0  0  0  0  0
   38.4740   26.5350   35.1930 H   0  0  0  0  0  0  0  0  0  0  0  0
   38.3000   24.6070   36.1040 C   0  0  0  0  0  0  0  0  0  0  0  0
   37.7610   24.8870   37.4110 C   0  0  0  0  0  0  0  0  0  0  0  0
   38.4200   23.5310   38.3420 S   0  0  0  0  0  0  0  0  0  0  0  0
   39.3140   22.7910   36.8680 C   0  0  0  0  0  0  0  0  0  0  0  0
   39.0460   23.5430   35.9820 N   0  0  0  0  0  0  0  0  0  0  0  0
   37.0990   25.7720   37.6640 H   0  0  0  0  0  0  0  0  0  0  0  0
   40.0970   21.5360   37.0910 N   0  0  0  0  0  0  0  0  0  0  0  0
   39.4560   20.8110   37.4230 H   0  0  0  0  0  0  0  0  0  0  0  0
   41.7860   21.4570   36.7990 S   0  0  0  0  0  0  0  0  0  0  0  0
   42.3670   22.8330   36.9690 O   0  0  0  0  0  1  0  0  0  0  0  0
   42.0670   20.9970   35.4190 O   0  0  0  0  0  1  0  0  0  0  0  0
   42.4870   20.4080   37.9240 O   0  0  0  0  0  0  0  0  0  0  0  0
   41.8000   19.7110   38.1000 H   0  0  0  0  0  0  0  0  0  0  0  0
   38.3750   25.0180   33.6520 C   0  0  0  0  0  0  0  0  0  0  0  0
   38.6810   23.9410   33.6830 H   0  0  0  0  0  0  0  0  0  0  0  0
   39.2090   25.6140   33.2210 H   0  0  0  0  0  0  0  0  0  0  0  0
   35.7170   26.3030   31.3900 C   0  0  0  0  0  0  0  0  0  0  0  0
   35.1580   25.1310   30.8880 C   0  0  0  0  0  0  0  0  0  0  0  0
   35.6960   23.9190   31.3280 C   0  0  0  0  0  0  0  0  0  0  0  0
   36.7260   23.9410   32.2140 N   0  0  0  0  0  0  0  0  0  0  0  0
   37.2270   25.1070   32.6670 C   0  0  0  0  0  0  0  0  0  0  0  0
   36.7420   26.2860   32.2720 N   0  0  0  0  0  0  0  0  0  0  0  0
   35.2690   27.2070   31.0220 H   0  0  0  0  0  0  0  0  0  0  0  0
   34.3370   25.1340   30.1820 H   0  0  0  0  0  0  0  0  0  0  0  0
   35.3040   22.9740   30.9730 H   0  0  0  0  0  0  0  0  0  0  0  0
  1  3  1  0  0  0  0
  1  4  1  0  0  0  0
  2  1  1  0  0  0  0
  4  5  2  0  0  0  0
  5  9  1  0  0  0  0
  5  6  1  0  0  0  0
  7 10  1  0  0  0  0
  7  6  1  0  0  0  0
  8  4  1  0  0  0  0
  8  7  2  0  0  0  0
 10 11  1  0  0  0  0
 12 13  1  0  0  0  0
 12 10  1  0  0  0  0
 12 15  1  0  0  0  0
 14 12  1  0  0  0  0
 15 16  1  0  0  0  0
 17 18  1  0  0  0  0
 17  1  1  0  0  0  0
 19 17  1  0  0  0  0
 20 25  1  0  0  0  0
 21 22  1  0  0  0  0
 21 20  2  0  0  0  0
 22 23  2  0  0  0  0
 23 24  1  0  0  0  0
 24 17  1  0  0  0  0
 25 24  2  0  0  0  0
 26 20  1  0  0  0  0
 27 21  1  0  0  0  0
 28 22  1  0  0  0  0
M  END
>  <minimizedAffinity>
-4.78856611

$$$$

 OpenBabel03272506073D

 28 29  0  0  0  0  0  0  0  0999 V2000
   36.4880   28.2190   34.5560 C   0  0  0  0  0  0  0  0  0  0  0  0
   35.6280   28.1890   35.2540 H   0  0  0  0  0  0  0  0  0  0  0  0
   37.2150   28.9320   35.0420 H   0  0  0  0  0  0  0  0  0  0  0  0
   37.1580   26.8750   34.4560 C   0  0  0  0  0  0  0  0  0  0  0  0
   37.1400   26.1910   33.1880 C   0  0  0  0  0  0  0  0  0  0  0  0
   38.0280   24.7110   33.5920 S   0  0  0  0  0  0  0  0  0  0  0  0
   38.2940   25.2120   35.3800 C   0  0  0  0  0  0  0  0  0  0  0  0
   37.7610   26.2770   35.4470 N   0  0  0  0  0  0  0  0  0  0  0  0
   36.6550   26.5880   32.2420 H   0  0  0  0  0  0  0  0  0  0  0  0
   39.0450   24.2640   36.2600 N   0  0  0  0  0  0  0  0  0  0  0  0
   39.9790   24.1280   35.8650 H   0  0  0  0  0  0  0  0  0  0  0  0
   38.3430   23.5860   37.6710 S   0  0  0  0  0  0  0  0  0  0  0  0
   37.0940   22.8470   37.2780 O   0  0  0  0  0  1  0  0  0  0  0  0
   37.9750   24.6430   38.6430 O   0  0  0  0  0  1  0  0  0  0  0  0
   39.4420   22.5050   38.3650 O   0  0  0  0  0  0  0  0  0  0  0  0
   40.3420   22.8840   38.1750 H   0  0  0  0  0  0  0  0  0  0  0  0
   36.0310   28.7290   33.2410 C   0  0  0  0  0  0  0  0  0  0  0  0
   35.9510   27.9300   32.4610 H   0  0  0  0  0  0  0  0  0  0  0  0
   36.7060   29.5290   32.8670 H   0  0  0  0  0  0  0  0  0  0  0  0
   32.7810   30.3580   32.4510 C   0  0  0  0  0  0  0  0  0  0  0  0
   32.1770   30.4430   33.7030 C   0  0  0  0  0  0  0  0  0  0  0  0
   32.8860   29.9430   34.7980 C   0  0  0  0  0  0  0  0  0  0  0  0
   34.1160   29.4050   34.5930 N   0  0  0  0  0  0  0  0  0  0  0  0
   34.6530   29.3490   33.3580 C   0  0  0  0  0  0  0  0  0  0  0  0
   34.0080   29.8150   32.2870 N   0  0  0  0  0  0  0  0  0  0  0  0
   32.1960   30.7550   31.6430 H   0  0  0  0  0  0  0  0  0  0  0  0
   31.1940   30.8750   33.8460 H   0  0  0  0  0  0  0  0  0  0  0  0
   32.4680   29.9810   35.7960 H   0  0  0  0  0  0  0  0  0  0  0  0
  1  3  1  0  0  0  0
  1  2  1  0  0  0  0
  4  1  1  0  0  0  0
  4  8  1  0  0  0  0
  5  6  1  0  0  0  0
  5  4  2  0  0  0  0
  6  7  1  0  0  0  0
  7  8  2  0  0  0  0
  7 10  1  0  0  0  0
  9  5  1  0  0  0  0
 10 12  1  0  0  0  0
 11 10  1  0  0  0  0
 12 15  1  0  0  0  0
 12 14  1  0  0  0  0
 13 12  1  0  0  0  0
 16 15  1  0  0  0  0
 17 24  1  0  0  0  0
 17  1  1  0  0  0  0
 18 17  1  0  0  0  0
 19 17  1  0  0  0  0
 20 21  1  0  0  0  0
 21 27  1  0  0  0  0
 21 22  2  0  0  0  0
 22 28  1  0  0  0  0
 23 22  1  0  0  0  0
 24 23  2  0  0  0  0
 25 20  2  0  0  0  0
 25 24  1  0  0  0  0
 26 20  1  0  0  0  0
M  END
>  <minimizedAffinity>
-4.75432491

$$$$

 OpenBabel03272506073D

 28 29  0  0  0  0  0  0  0  0999 V2000
   38.5950   26.9800   35.5880 C   0  0  0  0  0  0  0  0  0  0  0  0
   39.3210   27.0020   36.4260 H   0  0  0  0  0  0  0  0  0  0  0  0
   37.9950   27.9270   35.7160 H   0  0  0  0  0  0  0  0  0  0  0  0
   39.2940   27.0540   34.2570 C   0  0  0  0  0  0  0  0  0  0  0  0
   40.7340   27.0130   34.2360 C   0  0  0  0  0  0  0  0  0  0  0  0
   41.0470   27.1280   32.4940 S   0  0  0  0  0  0  0  0  0  0  0  0
   39.2260   27.2150   32.0480 C   0  0  0  0  0  0  0  0  0  0  0  0
   38.6830   27.1540   33.1080 N   0  0  0  0  0  0  0  0  0  0  0  0
   41.3960   26.9270   35.1530 H   0  0  0  0  0  0  0  0  0  0  0  0
   38.8730   27.3310   30.5990 N   0  0  0  0  0  0  0  0  0  0  0  0
   39.2430   26.5110   30.1120 H   0  0  0  0  0  0  0  0  0  0  0  0
   37.9910   28.6670   29.9840 S   0  0  0  0  0  0  0  0  0  0  0  0
   38.9630   29.6650   29.4200 O   0  0  0  0  0  1  0  0  0  0  0  0
   37.2100   29.3280   31.0570 O   0  0  0  0  0  1  0  0  0  0  0  0
   36.9630   28.1260   28.7560 O   0  0  0  0  0  0  0  0  0  0  0  0
   36.6950   27.2050   29.0220 H   0  0  0  0  0  0  0  0  0  0  0  0
   37.7380   25.7780   35.7180 C   0  0  0  0  0  0  0  0  0  0  0  0
   37.4410   25.3380   34.7310 H   0  0  0  0  0  0  0  0  0  0  0  0
   36.8180   26.0050   36.2990 H   0  0  0  0  0  0  0  0  0  0  0  0
   40.0660   23.0240   36.6290 C   0  0  0  0  0  0  0  0  0  0  0  0
   39.6890   22.7330   37.9370 C   0  0  0  0  0  0  0  0  0  0  0  0
   38.6450   23.4810   38.4900 C   0  0  0  0  0  0  0  0  0  0  0  0
   38.0560   24.4430   37.7350 N   0  0  0  0  0  0  0  0  0  0  0  0
   38.4630   24.6820   36.4720 C   0  0  0  0  0  0  0  0  0  0  0  0
   39.4560   23.9910   35.9080 N   0  0  0  0  0  0  0  0  0  0  0  0
   40.8720   22.4230   36.2510 H   0  0  0  0  0  0  0  0  0  0  0  0
   40.1720   21.9620   38.5240 H   0  0  0  0  0  0  0  0  0  0  0  0
   38.3080   23.3010   39.5030 H   0  0  0  0  0  0  0  0  0  0  0  0
  1  3  1  0  0  0  0
  1 17  1  0  0  0  0
  1  2  1  0  0  0  0
  4  1  1  0  0  0  0
  5  4  2  0  0  0  0
  5  9  1  0  0  0  0
  6  5  1  0  0  0  0
  7  6  1  0  0  0  0
  7  8  2  0  0  0  0
  8  4  1  0  0  0  0
 10  7  1  0  0  0  0
 11 10  1  0  0  0  0
 12 10  1  0  0  0  0
 12 14  1  0  0  0  0
 13 12  1  0  0  0  0
 15 16  1  0  0  0  0
 15 12  1  0  0  0  0
 17 19  1  0  0  0  0
 17 24  1  0  0  0  0
 18 17  1  0  0  0  0
 20 21  1  0  0  0  0
 21 22  2  0  0  0  0
 21 27  1  0  0  0  0
 22 28  1  0  0  0  0
 23 22  1  0  0  0  0
 24 23  2  0  0  0  0
 25 24  1  0  0  0  0
 25 20  2  0  0  0  0
 26 20  1  0  0  0  0
M  END
>  <minimizedAffinity>
-4.68352079

$$$$

 OpenBabel03272506073D

 28 29  0  0  0  0  0  0  0  0999 V2000
   38.6150   26.6160   34.8260 C   0  0  0  0  0  0  0  0  0  0  0  0
   39.6240   26.9140   34.4760 H   0  0  0  0  0  0  0  0  0  0  0  0
   38.6000   26.9120   35.9150 H   0  0  0  0  0  0  0  0  0  0  0  0
   37.5400   27.4010   34.1210 C   0  0  0  0  0  0  0  0  0  0  0  0
   37.4550   27.3120   32.6860 C   0  0  0  0  0  0  0  0  0  0  0  0
   36.0780   28.3810   32.3650 S   0  0  0  0  0  0  0  0  0  0  0  0
   35.8150   28.7900   34.1770 C   0  0  0  0  0  0  0  0  0  0  0  0
   36.6700   28.1640   34.7240 N   0  0  0  0  0  0  0  0  0  0  0  0
   38.1420   26.6900   32.0310 H   0  0  0  0  0  0  0  0  0  0  0  0
   34.6990   29.7240   34.5210 N   0  0  0  0  0  0  0  0  0  0  0  0
   33.8210   29.3100   34.1960 H   0  0  0  0  0  0  0  0  0  0  0  0
   34.9770   31.2130   35.3270 S   0  0  0  0  0  0  0  0  0  0  0  0
   33.8670   31.4390   36.3150 O   0  0  0  0  0  1  0  0  0  0  0  0
   34.9880   32.3430   34.3680 O   0  0  0  0  0  1  0  0  0  0  0  0
   36.4520   31.1230   36.1490 O   0  0  0  0  0  0  0  0  0  0  0  0
   37.0320   30.5410   35.5880 H   0  0  0  0  0  0  0  0  0  0  0  0
   38.4550   25.1520   34.6630 C   0  0  0  0  0  0  0  0  0  0  0  0
   39.1960   24.7040   33.9520 H   0  0  0  0  0  0  0  0  0  0  0  0
   37.4290   24.8990   34.3170 H   0  0  0  0  0  0  0  0  0  0  0  0
   39.7080   22.8950   37.3410 C   0  0  0  0  0  0  0  0  0  0  0  0
   38.9000   23.2370   38.4220 C   0  0  0  0  0  0  0  0  0  0  0  0
   37.9400   24.2320   38.2230 C   0  0  0  0  0  0  0  0  0  0  0  0
   37.8410   24.8120   36.9980 N   0  0  0  0  0  0  0  0  0  0  0  0
   38.6500   24.4410   35.9860 C   0  0  0  0  0  0  0  0  0  0  0  0
   39.5790   23.4950   36.1360 N   0  0  0  0  0  0  0  0  0  0  0  0
   40.4290   22.1260   37.5450 H   0  0  0  0  0  0  0  0  0  0  0  0
   38.9950   22.7630   39.3910 H   0  0  0  0  0  0  0  0  0  0  0  0
   37.2830   24.5410   39.0260 H   0  0  0  0  0  0  0  0  0  0  0  0
  1  3  1  0  0  0  0
  2  1  1  0  0  0  0
  4  8  1  0  0  0  0
  4  1  1  0  0  0  0
  5  4  2  0  0  0  0
  6  5  1  0  0  0  0
  6  7  1  0  0  0  0
  7 10  1  0  0  0  0
  7  8  2  0  0  0  0
  9  5  1  0  0  0  0
 10 12  1  0  0  0  0
 11 10  1  0  0  0  0
 12 15  1  0  0  0  0
 12 13  1  0  0  0  0
 14 12  1  0  0  0  0
 16 15  1  0  0  0  0
 17  1  1  0  0  0  0
 17 24  1  0  0  0  0
 18 17  1  0  0  0  0
 19 17  1  0  0  0  0
 20 26  1  0  0  0  0
 20 21  1  0  0  0  0
 21 27  1  0  0  0  0
 22 21  2  0  0  0  0
 22 28  1  0  0  0  0
 23 22  1  0  0  0  0
 24 25  1  0  0  0  0
 24 23  2  0  0  0  0
 25 20  2  0  0  0  0
M  END
>  <minimizedAffinity>
-4.67487192

$$$$

 OpenBabel03272506073D

 28 29  0  0  0  0  0  0  0  0999 V2000
   36.6190   22.9240   31.2780 C   0  0  0  0  0  0  0  0  0  0  0  0
   37.6370   23.2920   31.0390 H   0  0  0  0  0  0  0  0  0  0  0  0
   36.4080   22.1550   30.4800 H   0  0  0  0  0  0  0  0  0  0  0  0
   36.5920   22.2230   32.6110 C   0  0  0  0  0  0  0  0  0  0  0  0
   35.5070   21.3150   32.8860 C   0  0  0  0  0  0  0  0  0  0  0  0
   35.9280   20.7780   34.5220 S   0  0  0  0  0  0  0  0  0  0  0  0
   37.4770   21.8330   34.6030 C   0  0  0  0  0  0  0  0  0  0  0  0
   37.4900   22.3810   33.5440 N   0  0  0  0  0  0  0  0  0  0  0  0
   34.6590   21.0800   32.1710 H   0  0  0  0  0  0  0  0  0  0  0  0
   38.2920   21.7710   35.8560 N   0  0  0  0  0  0  0  0  0  0  0  0
   38.6020   20.8050   35.9910 H   0  0  0  0  0  0  0  0  0  0  0  0
   38.5840   23.1610   36.8180 S   0  0  0  0  0  0  0  0  0  0  0  0
   37.2740   23.8540   37.0700 O   0  0  0  0  0  1  0  0  0  0  0  0
   39.4890   24.1080   36.1250 O   0  0  0  0  0  1  0  0  0  0  0  0
   39.2560   22.6760   38.2920 O   0  0  0  0  0  0  0  0  0  0  0  0
   39.8060   21.8740   38.0810 H   0  0  0  0  0  0  0  0  0  0  0  0
   35.6630   24.0540   31.2060 C   0  0  0  0  0  0  0  0  0  0  0  0
   34.9330   24.0690   32.0560 H   0  0  0  0  0  0  0  0  0  0  0  0
   35.0970   24.0370   30.2490 H   0  0  0  0  0  0  0  0  0  0  0  0
   38.3160   26.6480   31.4570 C   0  0  0  0  0  0  0  0  0  0  0  0
   37.5950   27.8300   31.3090 C   0  0  0  0  0  0  0  0  0  0  0  0
   36.2130   27.7240   31.1250 C   0  0  0  0  0  0  0  0  0  0  0  0
   35.6470   26.4900   31.1010 N   0  0  0  0  0  0  0  0  0  0  0  0
   36.3960   25.3790   31.2500 C   0  0  0  0  0  0  0  0  0  0  0  0
   37.7170   25.4370   31.4270 N   0  0  0  0  0  0  0  0  0  0  0  0
   39.3720   26.7820   31.5950 H   0  0  0  0  0  0  0  0  0  0  0  0
   38.0650   28.8050   31.3310 H   0  0  0  0  0  0  0  0  0  0  0  0
   35.5990   28.6080   31.0040 H   0  0  0  0  0  0  0  0  0  0  0  0
  1  4  1  0  0  0  0
  2  1  1  0  0  0  0
  3  1  1  0  0  0  0
  4  5  2  0  0  0  0
  4  8  1  0  0  0  0
  5  6  1  0  0  0  0
  6  7  1  0  0  0  0
  7 10  1  0  0  0  0
  8  7  2  0  0  0  0
  9  5  1  0  0  0  0
 10 11  1  0  0  0  0
 10 12  1  0  0  0  0
 12 13  1  0  0  0  0
 12 15  1  0  0  0  0
 14 12  1  0  0  0  0
 16 15  1  0  0  0  0
 17 24  1  0  0  0  0
 17  1  1  0  0  0  0
 17 18  1  0  0  0  0
 19 17  1  0  0  0  0
 20 26  1  0  0  0  0
 21 27  1  0  0  0  0
 21 20  2  0  0  0  0
 22 21  1  0  0  0  0
 23 22  2  0  0  0  0
 23 24  1  0  0  0  0
 24 25  2  0  0  0  0
 25 20  1  0  0  0  0
 28 22  1  0  0  0  0
M  END
>  <minimizedAffinity>
-4.66075659

$$$$

 OpenBabel03272506073D

 28 29  0  0  0  0  0  0  0  0999 V2000
   38.5680   25.0390   33.6470 C   0  0  0  0  0  0  0  0  0  0  0  0
   39.3330   24.2570   33.8250 H   0  0  0  0  0  0  0  0  0  0  0  0
   39.1240   25.8510   33.0950 H   0  0  0  0  0  0  0  0  0  0  0  0
   37.4720   24.5360   32.7450 C   0  0  0  0  0  0  0  0  0  0  0  0
   36.5700   25.4960   32.1610 C   0  0  0  0  0  0  0  0  0  0  0  0
   35.5090   24.4300   31.2220 S   0  0  0  0  0  0  0  0  0  0  0  0
   36.4140   22.8700   31.7400 C   0  0  0  0  0  0  0  0  0  0  0  0
   37.2790   23.2800   32.4520 N   0  0  0  0  0  0  0  0  0  0  0  0
   36.6170   26.6170   32.3270 H   0  0  0  0  0  0  0  0  0  0  0  0
   35.9100   21.5670   31.2040 N   0  0  0  0  0  0  0  0  0  0  0  0
   35.9640   21.5970   30.1830 H   0  0  0  0  0  0  0  0  0  0  0  0
   35.3620   20.3120   32.2370 S   0  0  0  0  0  0  0  0  0  0  0  0
   36.2230   19.0990   32.0180 O   0  0  0  0  0  1  0  0  0  0  0  0
   33.9570   19.9500   31.9350 O   0  0  0  0  0  1  0  0  0  0  0  0
   35.5070   20.8220   33.8420 O   0  0  0  0  0  0  0  0  0  0  0  0
   35.3400   21.8020   33.8240 H   0  0  0  0  0  0  0  0  0  0  0  0
   38.0570   25.5260   34.9510 C   0  0  0  0  0  0  0  0  0  0  0  0
   36.9390   25.5590   35.0020 H   0  0  0  0  0  0  0  0  0  0  0  0
   38.4550   26.5380   35.1820 H   0  0  0  0  0  0  0  0  0  0  0  0
   39.8850   22.9830   36.9570 C   0  0  0  0  0  0  0  0  0  0  0  0
   39.2250   23.0370   38.1820 C   0  0  0  0  0  0  0  0  0  0  0  0
   38.1660   23.9410   38.3060 C   0  0  0  0  0  0  0  0  0  0  0  0
   37.8340   24.7130   37.2390 N   0  0  0  0  0  0  0  0  0  0  0  0
   38.5090   24.6180   36.0760 C   0  0  0  0  0  0  0  0  0  0  0  0
   39.5260   23.7690   35.9170 N   0  0  0  0  0  0  0  0  0  0  0  0
   40.6900   22.2750   36.9130 H   0  0  0  0  0  0  0  0  0  0  0  0
   39.5050   22.4130   39.0220 H   0  0  0  0  0  0  0  0  0  0  0  0
   37.6150   24.0290   39.2340 H   0  0  0  0  0  0  0  0  0  0  0  0
  1  2  1  0  0  0  0
  1 17  1  0  0  0  0
  3  1  1  0  0  0  0
  4  1  1  0  0  0  0
  5  9  1  0  0  0  0
  5  4  2  0  0  0  0
  6  7  1  0  0  0  0
  6  5  1  0  0  0  0
  7  8  2  0  0  0  0
  8  4  1  0  0  0  0
 10  7  1  0  0  0  0
 10 12  1  0  0  0  0
 11 10  1  0  0  0  0
 12 15  1  0  0  0  0
 13 12  1  0  0  0  0
 14 12  1  0  0  0  0
 16 15  1  0  0  0  0
 17 18  1  0  0  0  0
 17 19  1  0  0  0  0
 17 24  1  0  0  0  0
 20 21  1  0  0  0  0
 21 22  2  0  0  0  0
 21 27  1  0  0  0  0
 22 28  1  0  0  0  0
 23 22  1  0  0  0  0
 24 23  2  0  0  0  0
 25 24  1  0  0  0  0
 25 20  2  0  0  0  0
 26 20  1  0  0  0  0
M  END
>  <minimizedAffinity>
-4.5691843

$$$$

 OpenBabel03272506073D

 28 29  0  0  0  0  0  0  0  0999 V2000
   36.6490   26.3540   32.4240 C   0  0  0  0  0  0  0  0  0  0  0  0
   35.7020   25.8410   32.6880 H   0  0  0  0  0  0  0  0  0  0  0  0
   36.3490   27.4320   32.2810 H   0  0  0  0  0  0  0  0  0  0  0  0
   37.6360   26.2980   33.5590 C   0  0  0  0  0  0  0  0  0  0  0  0
   38.8590   27.0520   33.4440 C   0  0  0  0  0  0  0  0  0  0  0  0
   39.6410   26.6590   34.9850 S   0  0  0  0  0  0  0  0  0  0  0  0
   38.2380   25.5540   35.5570 C   0  0  0  0  0  0  0  0  0  0  0  0
   37.4620   25.6070   34.6520 N   0  0  0  0  0  0  0  0  0  0  0  0
   39.1430   27.6950   32.5540 H   0  0  0  0  0  0  0  0  0  0  0  0
   38.3720   24.9020   36.8970 N   0  0  0  0  0  0  0  0  0  0  0  0
   38.4580   25.6350   37.6050 H   0  0  0  0  0  0  0  0  0  0  0  0
   38.3670   23.1960   37.0800 S   0  0  0  0  0  0  0  0  0  0  0  0
   39.3400   22.6050   36.0980 O   0  0  0  0  0  1  0  0  0  0  0  0
   37.0240   22.6350   36.8050 O   0  0  0  0  0  1  0  0  0  0  0  0
   38.8540   22.8130   38.6530 O   0  0  0  0  0  0  0  0  0  0  0  0
   38.5130   23.5530   39.2230 H   0  0  0  0  0  0  0  0  0  0  0  0
   37.1850   25.7720   31.1700 C   0  0  0  0  0  0  0  0  0  0  0  0
   38.2810   25.9550   31.0330 H   0  0  0  0  0  0  0  0  0  0  0  0
   36.6430   26.1670   30.2840 H   0  0  0  0  0  0  0  0  0  0  0  0
   37.7600   22.1170   30.7950 C   0  0  0  0  0  0  0  0  0  0  0  0
   36.5310   21.5800   31.1700 C   0  0  0  0  0  0  0  0  0  0  0  0
   35.5240   22.4730   31.5460 C   0  0  0  0  0  0  0  0  0  0  0  0
   35.7870   23.8050   31.5270 N   0  0  0  0  0  0  0  0  0  0  0  0
   36.9970   24.2690   31.1550 C   0  0  0  0  0  0  0  0  0  0  0  0
   37.9850   23.4500   30.7890 N   0  0  0  0  0  0  0  0  0  0  0  0
   38.4990   21.3910   30.5160 H   0  0  0  0  0  0  0  0  0  0  0  0
   36.3400   20.5140   31.1790 H   0  0  0  0  0  0  0  0  0  0  0  0
   34.5470   22.1160   31.8480 H   0  0  0  0  0  0  0  0  0  0  0  0
  1  2  1  0  0  0  0
  1  4  1  0  0  0  0
  3  1  1  0  0  0  0
  4  8  1  0  0  0  0
  5  4  2  0  0  0  0
  5  6  1  0  0  0  0
  6  7  1  0  0  0  0
  7 10  1  0  0  0  0
  8  7  2  0  0  0  0
  9  5  1  0  0  0  0
 10 12  1  0  0  0  0
 10 11  1  0  0  0  0
 12 15  1  0  0  0  0
 13 12  1  0  0  0  0
 14 12  1  0  0  0  0
 15 16  1  0  0  0  0
 17  1  1  0  0  0  0
 18 17  1  0  0  0  0
 19 17  1  0  0  0  0
 20 21  1  0  0  0  0
 21 27  1  0  0  0  0
 21 22  2  0  0  0  0
 22 28  1  0  0  0  0
 23 22  1  0  0  0  0
 24 17  1  0  0  0  0
 24 23  2  0  0  0  0
 25 20  2  0  0  0  0
 25 24  1  0  0  0  0
 26 20  1  0  0  0  0
M  END
>  <minimizedAffinity>
-4.47682571

$$$$
