
 OpenBabel03262521583D

 34 35  0  0  1  0  0  0  0  0999 V2000
   36.0210   29.7880   48.7290 N   0  0  0  0  0  0  0  0  0  0  0  0
   36.8720   28.9840   49.5330 C   0  0  0  0  0  0  0  0  0  0  0  0
   37.2920   29.5140   50.8410 C   0  0  0  0  0  0  0  0  0  0  0  0
   37.2980   30.9880   51.0350 C   0  0  0  0  0  0  0  0  0  0  0  0
   36.4840   31.7650   50.0520 C   0  0  0  0  0  0  0  0  0  0  0  0
   36.5550   31.1100   48.6610 C   0  0  1  0  0  0  0  0  0  0  0  0
   36.2840   28.0260   49.6690 H   0  0  0  0  0  0  0  0  0  0  0  0
   37.7810   28.5750   49.0000 H   0  0  0  0  0  0  0  0  0  0  0  0
   38.3450   29.1840   51.0940 H   0  0  0  0  0  0  0  0  0  0  0  0
   36.7040   28.9920   51.6500 H   0  0  0  0  0  0  0  0  0  0  0  0
   36.7800   31.2030   52.0160 H   0  0  0  0  0  0  0  0  0  0  0  0
   38.3070   31.4280   51.2660 H   0  0  0  0  0  0  0  0  0  0  0  0
   35.4050   31.7090   50.3100 H   0  0  0  0  0  0  0  0  0  0  0  0
   36.8370   32.8090   50.0070 H   0  0  0  0  0  0  0  0  0  0  0  0
   35.8100   31.6910   48.0740 H   0  0  0  0  0  0  0  0  0  0  0  0
   34.8140   29.3480   48.0820 C   0  0  0  0  0  0  0  0  0  0  0  0
   34.6070   29.3330   46.7040 C   0  0  0  0  0  0  0  0  0  0  0  0
   33.3820   28.8770   46.2350 C   0  0  0  0  0  0  0  0  0  0  0  0
   32.4450   28.4680   47.1570 N   0  0  0  0  0  0  0  0  0  0  0  0
   32.6830   28.5000   48.4580 C   0  0  0  0  0  0  0  0  0  0  0  0
   33.8520   28.9340   48.9110 N   0  0  0  0  0  0  0  0  0  0  0  0
   35.4080   29.6740   46.0940 H   0  0  0  0  0  0  0  0  0  0  0  0
   33.2050   28.8580   45.1800 H   0  0  0  0  0  0  0  0  0  0  0  0
   31.6610   28.0590   49.3420 N   0  0  0  0  0  0  0  0  0  0  0  0
   31.8320   28.0780   50.3740 H   0  0  0  0  0  0  0  0  0  0  0  0
   30.1460   27.4970   48.7380 S   0  0  0  0  0  0  0  0  0  0  0  0
   29.3720   28.6620   48.2240 O   0  0  0  0  0  0  0  0  0  0  0  0
   29.3350   26.8930   49.8690 O   0  0  0  0  0  0  0  0  0  0  0  0
   30.3820   26.3700   47.5210 O   0  0  0  0  0  0  0  0  0  0  0  0
   31.2480   26.5670   47.0790 H   0  0  0  0  0  0  0  0  0  0  0  0
   37.9530   31.2440   48.1590 C   0  0  0  0  0  0  0  0  0  0  0  0
   37.9310   32.2890   47.2270 F   0  0  0  0  0  0  0  0  0  0  0  0
   38.2840   30.1460   47.3980 F   0  0  0  0  0  0  0  0  0  0  0  0
   38.8900   31.5820   49.0620 F   0  0  0  0  0  0  0  0  0  0  0  0
  1  2  1  0  0  0  0
  2  7  1  0  0  0  0
  2  3  1  0  0  0  0
  3  4  1  0  0  0  0
  3  9  1  0  0  0  0
  3 10  1  0  0  0  0
  4 12  1  0  0  0  0
  4 11  1  0  0  0  0
  5 13  1  0  0  0  0
  5  4  1  0  0  0  0
  6 15  1  6  0  0  0
  6  1  1  0  0  0  0
  6  5  1  0  0  0  0
  8  2  1  0  0  0  0
 14  5  1  0  0  0  0
 16  1  1  0  0  0  0
 16 21  1  0  0  0  0
 17 16  2  0  0  0  0
 18 17  1  0  0  0  0
 18 19  2  0  0  0  0
 19 20  1  0  0  0  0
 20 21  2  0  0  0  0
 20 24  1  0  0  0  0
 22 17  1  0  0  0  0
 23 18  1  0  0  0  0
 24 25  1  0  0  0  0
 26 24  1  0  0  0  0
 26 28  1  0  0  0  0
 27 26  1  0  0  0  0
 29 26  1  0  0  0  0
 30 29  1  0  0  0  0
 31  6  1  0  0  0  0
 31 34  1  0  0  0  0
 32 31  1  0  0  0  0
 33 31  1  0  0  0  0
M  END
>  <minimizedAffinity>
-5.73235464

>  <minimizedRMSD>
0.799280167

$$$$
