REMARK  Name = 
REMARK  4 active torsions:
REMARK  status: ('A' for Active; 'I' for Inactive)
REMARK    1  A    between atoms: C_3  and  C_10
REMARK    2  A    between atoms: C_7  and  N_16
REMARK    3  A    between atoms: N_24  and  S_26
REMARK    4  A    between atoms: S_26  and  O_29
REMARK                            x       y       z     vdW  Elec       q    Type
REMARK                         _______ _______ _______ _____ _____    ______ ____
ROOT
ATOM      1  F   UNL     1      38.461  30.440  47.307  0.00  0.00    +0.000 F 
ATOM      2  C   UNL     1      38.753  31.671  47.794  0.00  0.00    +0.000 A 
ATOM      3  C   UNL     1      38.238  32.085  48.996  0.00  0.00    +0.000 A 
ATOM      4  C   UNL     1      38.575  33.336  49.423  0.00  0.00    +0.000 A 
ATOM      5  C   UNL     1      39.395  34.174  48.701  0.00  0.00    +0.000 A 
ATOM      6  C   UNL     1      39.903  33.743  47.496  0.00  0.00    +0.000 A 
ATOM      7  C   UNL     1      39.583  32.481  47.032  0.00  0.00    +0.000 A 
ATOM      8  H   UNL     1      38.173  33.667  50.369  0.00  0.00    +0.000 HD
ATOM      9  H   UNL     1      39.669  35.168  49.029  0.00  0.00    +0.000 HD
ATOM     10  H   UNL     1      40.563  34.315  46.833  0.00  0.00    +0.000 HD
ENDROOT
BRANCH   3  13
ATOM     11  C   UNL     1      36.918  29.597  51.522  0.00  0.00    +0.000 A 
ATOM     12  C   UNL     1      37.777  30.480  50.858  0.00  0.00    +0.000 A 
ATOM     13  C   UNL     1      37.376  31.157  49.718  0.00  0.00    +0.000 A 
ATOM     14  N   UNL     1      36.096  30.906  49.291  0.00  0.00    +0.000 NA
ATOM     15  C   UNL     1      35.284  30.056  49.939  0.00  0.00    +0.000 A 
ATOM     16  N   UNL     1      35.687  29.409  51.039  0.00  0.00    +0.000 NA
ATOM     17  H   UNL     1      37.300  29.117  52.388  0.00  0.00    +0.000 HD
ATOM     18  H   UNL     1      38.790  30.657  51.225  0.00  0.00    +0.000 HD
ATOM     19  H   UNL     1      34.267  29.869  49.582  0.00  0.00    +0.000 HD
ENDBRANCH   3  13
BRANCH   7  22
ATOM     20  C   UNL     1      39.196  32.181  44.686  0.00  0.00    +0.000 C 
ATOM     21  O   UNL     1      38.076  32.697  44.989  0.00  0.00    +0.000 OA
ATOM     22  N   UNL     1      40.089  31.989  45.782  0.00  0.00    +0.000 N 
ATOM     23  H   UNL     1      40.992  31.522  45.563  0.00  0.00    +0.000 HD
ATOM     24  N   UNL     1      39.510  31.831  43.342  0.00  0.00    +0.000 N 
ATOM     25  H   UNL     1      38.915  32.213  42.566  0.00  0.00    +0.000 HD
BRANCH  24  26
ATOM     26  S   UNL     1      40.833  30.801  42.926  0.00  0.00    +0.000 S 
ATOM     27  O   UNL     1      41.723  31.500  41.972  0.00  0.00    +0.000 OA
ATOM     28  O   UNL     1      40.329  29.534  42.271  0.00  0.00    +0.000 OA
BRANCH  26  29
ATOM     29  O   UNL     1      41.622  30.328  44.339  0.00  0.00    +0.000 OA
ATOM     30  H   UNL     1      42.595  30.197  44.191  0.00  0.00    +0.000 HD
ENDBRANCH  26  29
ENDBRANCH  24  26
ENDBRANCH   7  22
TORSDOF 4
