
 OpenBabel03272506133D

 42 44  0  0  1  0  0  0  0  0999 V2000
   38.6670   24.1910   34.2570 C   0  0  1  0  0  0  0  0  0  0  0  0
   38.9420   23.1080   33.1130 C   0  0  0  0  0  0  0  0  0  0  0  0
   37.7270   22.2090   32.9180 C   0  0  0  0  0  0  0  0  0  0  0  0
   37.1720   21.7780   34.2460 C   0  0  0  0  0  0  0  0  0  0  0  0
   38.2620   21.8970   35.2350 C   0  0  0  0  0  0  0  0  0  0  0  0
   38.5730   23.3540   35.4840 C   0  0  2  0  0  0  0  0  0  0  0  0
   37.6810   24.3930   33.9860 H   0  0  0  0  0  0  0  0  0  0  0  0
   39.7890   22.4970   33.4000 H   0  0  0  0  0  0  0  0  0  0  0  0
   39.1720   23.6540   32.1910 H   0  0  0  0  0  0  0  0  0  0  0  0
   36.9500   22.7680   32.3480 H   0  0  0  0  0  0  0  0  0  0  0  0
   38.0810   21.3430   32.3460 H   0  0  0  0  0  0  0  0  0  0  0  0
   36.2400   22.2970   34.4810 H   0  0  0  0  0  0  0  0  0  0  0  0
   36.8970   20.7010   34.1550 H   0  0  0  0  0  0  0  0  0  0  0  0
   38.0190   21.4730   36.2230 H   0  0  0  0  0  0  0  0  0  0  0  0
   39.1130   21.2910   34.8730 H   0  0  0  0  0  0  0  0  0  0  0  0
   39.5640   23.2170   35.9050 H   0  0  0  0  0  0  0  0  0  0  0  0
   39.6500   26.4390   34.0240 C   0  0  0  0  0  0  0  0  0  0  0  0
   40.8000   27.2080   34.0160 C   0  0  0  0  0  0  0  0  0  0  0  0
   42.0720   26.6990   34.1770 C   0  0  0  0  0  0  0  0  0  0  0  0
   42.2490   25.3440   34.3610 C   0  0  0  0  0  0  0  0  0  0  0  0
   41.1190   24.5930   34.3680 C   0  0  0  0  0  0  0  0  0  0  0  0
   39.8030   25.0660   34.2050 C   0  0  0  0  0  0  0  0  0  0  0  0
   40.7360   28.3030   33.8830 H   0  0  0  0  0  0  0  0  0  0  0  0
   42.9030   27.4230   34.1510 H   0  0  0  0  0  0  0  0  0  0  0  0
   43.2590   25.0520   34.4770 H   0  0  0  0  0  0  0  0  0  0  0  0
   41.4420   23.5670   34.5160 H   0  0  0  0  0  0  0  0  0  0  0  0
   38.0730   27.4380   32.4760 C   0  0  0  0  0  0  0  0  0  0  0  0
   38.4200   27.1220   33.8270 C   0  0  0  0  0  0  0  0  0  0  0  0
   37.5340   27.5100   34.8060 C   0  0  0  0  0  0  0  0  0  0  0  0
   36.3980   28.1540   34.4630 N   0  0  0  0  0  0  0  0  0  0  0  0
   36.0950   28.4430   33.1490 C   0  0  0  0  0  0  0  0  0  0  0  0
   36.9510   28.0790   32.1270 N   0  0  0  0  0  0  0  0  0  0  0  0
   38.6420   27.2060   31.5890 H   0  0  0  0  0  0  0  0  0  0  0  0
   37.5910   27.4650   35.8480 H   0  0  0  0  0  0  0  0  0  0  0  0
   35.1730   28.9630   32.8930 H   0  0  0  0  0  0  0  0  0  0  0  0
   37.7570   23.9260   36.5140 N   0  0  0  0  0  0  0  0  0  0  0  0
   36.7770   23.5360   36.3280 H   0  0  0  0  0  0  0  0  0  0  0  0
   38.0630   23.5960   38.1230 S   0  0  0  0  0  0  0  0  0  0  0  0
   39.4960   23.1630   38.2490 O   0  0  0  0  0  1  0  0  0  0  0  0
   38.0120   24.8520   38.9940 O   0  0  0  0  0  1  0  0  0  0  0  0
   37.1470   22.3800   38.7950 O   0  0  0  0  0  0  0  0  0  0  0  0
   36.4310   22.7400   39.4100 H   0  0  0  0  0  0  0  0  0  0  0  0
  1  7  1  6  0  0  0
  1  6  1  0  0  0  0
  2  8  1  0  0  0  0
  2  1  1  0  0  0  0
  3  2  1  0  0  0  0
  3  4  1  0  0  0  0
  4 12  1  0  0  0  0
  4  5  1  0  0  0  0
  5  6  1  0  0  0  0
  5 14  1  0  0  0  0
  6 16  1  1  0  0  0
  6 36  1  0  0  0  0
  9  2  1  0  0  0  0
 10  3  1  0  0  0  0
 11  3  1  0  0  0  0
 13  4  1  0  0  0  0
 15  5  1  0  0  0  0
 17 22  1  0  0  0  0
 18 17  2  0  0  0  0
 18 19  1  0  0  0  0
 19 20  2  0  0  0  0
 20 21  1  0  0  0  0
 20 25  1  0  0  0  0
 21 26  1  0  0  0  0
 22  1  1  0  0  0  0
 22 21  2  0  0  0  0
 23 18  1  0  0  0  0
 24 19  1  0  0  0  0
 27 28  1  0  0  0  0
 28 17  1  0  0  0  0
 28 29  2  0  0  0  0
 29 34  1  0  0  0  0
 30 29  1  0  0  0  0
 31 30  2  0  0  0  0
 32 27  2  0  0  0  0
 32 31  1  0  0  0  0
 33 27  1  0  0  0  0
 35 31  1  0  0  0  0
 36 38  1  0  0  0  0
 37 36  1  0  0  0  0
 38 39  1  0  0  0  0
 38 41  1  0  0  0  0
 38 40  1  0  0  0  0
 41 42  1  0  0  0  0
M  END
>  <minimizedAffinity>
-5.55947733

$$$$

 OpenBabel03272506133D

 42 44  0  0  1  0  0  0  0  0999 V2000
   32.7150   29.4020   34.9830 C   0  0  1  0  0  0  0  0  0  0  0  0
   32.0390   28.8490   36.3230 C   0  0  0  0  0  0  0  0  0  0  0  0
   31.1230   27.6690   36.0190 C   0  0  0  0  0  0  0  0  0  0  0  0
   30.2760   27.9580   34.8110 C   0  0  0  0  0  0  0  0  0  0  0  0
   30.2090   29.4250   34.6650 C   0  0  0  0  0  0  0  0  0  0  0  0
   31.5550   29.9620   34.2390 C   0  0  2  0  0  0  0  0  0  0  0  0
   32.8920   28.4680   34.5530 H   0  0  0  0  0  0  0  0  0  0  0  0
   31.4540   29.6400   36.7770 H   0  0  0  0  0  0  0  0  0  0  0  0
   32.8470   28.5480   37.0000 H   0  0  0  0  0  0  0  0  0  0  0  0
   31.7460   26.7640   35.8350 H   0  0  0  0  0  0  0  0  0  0  0  0
   30.4960   27.5360   36.9090 H   0  0  0  0  0  0  0  0  0  0  0  0
   30.6150   27.3940   33.9380 H   0  0  0  0  0  0  0  0  0  0  0  0
   29.2500   27.5780   35.0290 H   0  0  0  0  0  0  0  0  0  0  0  0
   29.4970   29.7660   33.8960 H   0  0  0  0  0  0  0  0  0  0  0  0
   29.8170   29.8400   35.6110 H   0  0  0  0  0  0  0  0  0  0  0  0
   31.3960   30.9930   34.5380 H   0  0  0  0  0  0  0  0  0  0  0  0
   34.9400   30.4520   34.8670 C   0  0  0  0  0  0  0  0  0  0  0  0
   35.7870   31.4370   35.3470 C   0  0  0  0  0  0  0  0  0  0  0  0
   35.4470   32.3300   36.3420 C   0  0  0  0  0  0  0  0  0  0  0  0
   34.1960   32.2710   36.9170 C   0  0  0  0  0  0  0  0  0  0  0  0
   33.3700   31.3040   36.4450 C   0  0  0  0  0  0  0  0  0  0  0  0
   33.6720   30.3700   35.4350 C   0  0  0  0  0  0  0  0  0  0  0  0
   36.8010   31.5510   34.9270 H   0  0  0  0  0  0  0  0  0  0  0  0
   36.2160   33.0660   36.6310 H   0  0  0  0  0  0  0  0  0  0  0  0
   34.0310   32.9980   37.6680 H   0  0  0  0  0  0  0  0  0  0  0  0
   32.4440   31.3990   37.0060 H   0  0  0  0  0  0  0  0  0  0  0  0
   36.1960   28.4600   34.2850 C   0  0  0  0  0  0  0  0  0  0  0  0
   35.4560   29.6040   33.8500 C   0  0  0  0  0  0  0  0  0  0  0  0
   35.3150   29.7770   32.4920 C   0  0  0  0  0  0  0  0  0  0  0  0
   35.8610   28.8810   31.6430 N   0  0  0  0  0  0  0  0  0  0  0  0
   36.5700   27.7870   32.0980 C   0  0  0  0  0  0  0  0  0  0  0  0
   36.7450   27.5690   33.4510 N   0  0  0  0  0  0  0  0  0  0  0  0
   36.3980   28.1680   35.3050 H   0  0  0  0  0  0  0  0  0  0  0  0
   34.8950   30.5520   31.9330 H   0  0  0  0  0  0  0  0  0  0  0  0
   37.0040   27.0760   31.3970 H   0  0  0  0  0  0  0  0  0  0  0  0
   31.7260   29.9630   32.8150 N   0  0  0  0  0  0  0  0  0  0  0  0
   30.8310   29.5100   32.4380 H   0  0  0  0  0  0  0  0  0  0  0  0
   31.8780   31.4000   31.9780 S   0  0  0  0  0  0  0  0  0  0  0  0
   30.5640   32.1260   32.0500 O   0  0  0  0  0  1  0  0  0  0  0  0
   32.8400   32.3720   32.6620 O   0  0  0  0  0  1  0  0  0  0  0  0
   32.2430   31.2560   30.3610 O   0  0  0  0  0  0  0  0  0  0  0  0
   33.2060   31.4940   30.1660 H   0  0  0  0  0  0  0  0  0  0  0  0
  1  7  1  6  0  0  0
  1 22  1  0  0  0  0
  1  2  1  0  0  0  0
  2  8  1  0  0  0  0
  2  9  1  0  0  0  0
  3  2  1  0  0  0  0
  3 11  1  0  0  0  0
  4 13  1  0  0  0  0
  4  3  1  0  0  0  0
  5  4  1  0  0  0  0
  5 15  1  0  0  0  0
  6 16  1  1  0  0  0
  6  5  1  0  0  0  0
  6  1  1  0  0  0  0
 10  3  1  0  0  0  0
 12  4  1  0  0  0  0
 14  5  1  0  0  0  0
 17 18  2  0  0  0  0
 17 22  1  0  0  0  0
 18 19  1  0  0  0  0
 19 24  1  0  0  0  0
 19 20  2  0  0  0  0
 20 25  1  0  0  0  0
 21 20  1  0  0  0  0
 21 26  1  0  0  0  0
 22 21  2  0  0  0  0
 23 18  1  0  0  0  0
 27 33  1  0  0  0  0
 28 27  1  0  0  0  0
 28 17  1  0  0  0  0
 29 28  2  0  0  0  0
 30 31  2  0  0  0  0
 30 29  1  0  0  0  0
 31 32  1  0  0  0  0
 32 27  2  0  0  0  0
 34 29  1  0  0  0  0
 35 31  1  0  0  0  0
 36  6  1  0  0  0  0
 37 36  1  0  0  0  0
 38 39  1  0  0  0  0
 38 40  1  0  0  0  0
 38 36  1  0  0  0  0
 41 38  1  0  0  0  0
 42 41  1  0  0  0  0
M  END
>  <minimizedAffinity>
-5.45307398

$$$$

 OpenBabel03272506133D

 42 44  0  0  1  0  0  0  0  0999 V2000
   38.0520   24.7530   32.8510 C   0  0  1  0  0  0  0  0  0  0  0  0
   38.5620   25.2260   31.4100 C   0  0  0  0  0  0  0  0  0  0  0  0
   39.4800   26.4370   31.5340 C   0  0  0  0  0  0  0  0  0  0  0  0
   38.9050   27.4380   32.4970 C   0  0  0  0  0  0  0  0  0  0  0  0
   37.4520   27.1910   32.5690 C   0  0  0  0  0  0  0  0  0  0  0  0
   37.1870   25.8850   33.2800 C   0  0  2  0  0  0  0  0  0  0  0  0
   38.9600   24.8990   33.3440 H   0  0  0  0  0  0  0  0  0  0  0  0
   37.7070   25.4950   30.8030 H   0  0  0  0  0  0  0  0  0  0  0  0
   39.0930   24.3830   30.9550 H   0  0  0  0  0  0  0  0  0  0  0  0
   40.4790   26.1000   31.8920 H   0  0  0  0  0  0  0  0  0  0  0  0
   39.5520   26.8660   30.5270 H   0  0  0  0  0  0  0  0  0  0  0  0
   39.4490   27.4410   33.4450 H   0  0  0  0  0  0  0  0  0  0  0  0
   39.0690   28.4500   32.0570 H   0  0  0  0  0  0  0  0  0  0  0  0
   36.8950   27.9550   33.1360 H   0  0  0  0  0  0  0  0  0  0  0  0
   37.0480   27.2560   31.5420 H   0  0  0  0  0  0  0  0  0  0  0  0
   36.1770   25.7280   32.9140 H   0  0  0  0  0  0  0  0  0  0  0  0
   37.6570   22.3680   33.3240 C   0  0  0  0  0  0  0  0  0  0  0  0
   36.9200   21.2330   33.0350 C   0  0  0  0  0  0  0  0  0  0  0  0
   35.9200   21.1820   32.0850 C   0  0  0  0  0  0  0  0  0  0  0  0
   35.6070   22.3120   31.3600 C   0  0  0  0  0  0  0  0  0  0  0  0
   36.3320   23.4210   31.6450 C   0  0  0  0  0  0  0  0  0  0  0  0
   37.3620   23.5210   32.6020 C   0  0  0  0  0  0  0  0  0  0  0  0
   37.1080   20.2930   33.5820 H   0  0  0  0  0  0  0  0  0  0  0  0
   35.4090   20.2130   31.9540 H   0  0  0  0  0  0  0  0  0  0  0  0
   34.8260   22.1720   30.6590 H   0  0  0  0  0  0  0  0  0  0  0  0
   35.9610   24.2010   30.9860 H   0  0  0  0  0  0  0  0  0  0  0  0
   40.0030   22.0560   33.8570 C   0  0  0  0  0  0  0  0  0  0  0  0
   38.6630   22.2420   34.3200 C   0  0  0  0  0  0  0  0  0  0  0  0
   38.4730   22.2790   35.6820 C   0  0  0  0  0  0  0  0  0  0  0  0
   39.5320   22.1480   36.5090 N   0  0  0  0  0  0  0  0  0  0  0  0
   40.8120   21.9690   36.0270 C   0  0  0  0  0  0  0  0  0  0  0  0
   41.0580   21.9210   34.6680 N   0  0  0  0  0  0  0  0  0  0  0  0
   40.3340   22.0090   32.8300 H   0  0  0  0  0  0  0  0  0  0  0  0
   37.6040   22.3270   36.2590 H   0  0  0  0  0  0  0  0  0  0  0  0
   41.6530   21.8640   36.7110 H   0  0  0  0  0  0  0  0  0  0  0  0
   37.0950   26.0370   34.7020 N   0  0  0  0  0  0  0  0  0  0  0  0
   36.6340   25.1310   35.0390 H   0  0  0  0  0  0  0  0  0  0  0  0
   38.4750   26.2000   35.6310 S   0  0  0  0  0  0  0  0  0  0  0  0
   38.2640   25.4550   36.9180 O   0  0  0  0  0  1  0  0  0  0  0  0
   39.6770   25.4820   35.0160 O   0  0  0  0  0  1  0  0  0  0  0  0
   38.8780   27.7590   36.0540 O   0  0  0  0  0  0  0  0  0  0  0  0
   39.6650   28.1040   35.5240 H   0  0  0  0  0  0  0  0  0  0  0  0
  1  6  1  0  0  0  0
  1  7  1  1  0  0  0
  2  3  1  0  0  0  0
  2  1  1  0  0  0  0
  3 10  1  0  0  0  0
  3  4  1  0  0  0  0
  4  5  1  0  0  0  0
  4 12  1  0  0  0  0
  5 14  1  0  0  0  0
  5  6  1  0  0  0  0
  6 16  1  6  0  0  0
  6 36  1  0  0  0  0
  8  2  1  0  0  0  0
  9  2  1  0  0  0  0
 11  3  1  0  0  0  0
 13  4  1  0  0  0  0
 15  5  1  0  0  0  0
 17 28  1  0  0  0  0
 18 17  1  0  0  0  0
 18 23  1  0  0  0  0
 19 18  2  0  0  0  0
 20 21  2  0  0  0  0
 20 19  1  0  0  0  0
 21 22  1  0  0  0  0
 22  1  1  0  0  0  0
 22 17  2  0  0  0  0
 24 19  1  0  0  0  0
 25 20  1  0  0  0  0
 26 21  1  0  0  0  0
 27 28  2  0  0  0  0
 27 32  1  0  0  0  0
 28 29  1  0  0  0  0
 29 34  1  0  0  0  0
 29 30  2  0  0  0  0
 31 30  1  0  0  0  0
 31 35  1  0  0  0  0
 32 31  2  0  0  0  0
 33 27  1  0  0  0  0
 36 37  1  0  0  0  0
 36 38  1  0  0  0  0
 38 41  1  0  0  0  0
 38 39  1  0  0  0  0
 40 38  1  0  0  0  0
 42 41  1  0  0  0  0
M  END
>  <minimizedAffinity>
-5.20216799

$$$$

 OpenBabel03272506133D

 42 44  0  0  1  0  0  0  0  0999 V2000
   38.3800   25.5800   34.8200 C   0  0  1  0  0  0  0  0  0  0  0  0
   38.8000   27.0150   35.3880 C   0  0  0  0  0  0  0  0  0  0  0  0
   37.5910   27.9420   35.4570 C   0  0  0  0  0  0  0  0  0  0  0  0
   36.7750   27.8380   34.1990 C   0  0  0  0  0  0  0  0  0  0  0  0
   37.6680   27.3270   33.1400 C   0  0  0  0  0  0  0  0  0  0  0  0
   38.0110   25.8820   33.4100 C   0  0  2  0  0  0  0  0  0  0  0  0
   37.4740   25.5160   35.3330 H   0  0  0  0  0  0  0  0  0  0  0  0
   39.5410   27.4530   34.7320 H   0  0  0  0  0  0  0  0  0  0  0  0
   39.2270   26.8630   36.3860 H   0  0  0  0  0  0  0  0  0  0  0  0
   36.9670   27.6600   36.3360 H   0  0  0  0  0  0  0  0  0  0  0  0
   37.9940   28.9550   35.5750 H   0  0  0  0  0  0  0  0  0  0  0  0
   35.8480   27.2850   34.3650 H   0  0  0  0  0  0  0  0  0  0  0  0
   36.4590   28.8720   33.9240 H   0  0  0  0  0  0  0  0  0  0  0  0
   37.2220   27.3420   32.1320 H   0  0  0  0  0  0  0  0  0  0  0  0
   38.5340   28.0100   33.0710 H   0  0  0  0  0  0  0  0  0  0  0  0
   38.8970   25.8280   32.7850 H   0  0  0  0  0  0  0  0  0  0  0  0
   39.4630   23.4130   35.2680 C   0  0  0  0  0  0  0  0  0  0  0  0
   40.6480   22.7070   35.3770 C   0  0  0  0  0  0  0  0  0  0  0  0
   41.8990   23.2680   35.2180 C   0  0  0  0  0  0  0  0  0  0  0  0
   42.0160   24.6110   34.9300 C   0  0  0  0  0  0  0  0  0  0  0  0
   40.8520   25.2990   34.8240 C   0  0  0  0  0  0  0  0  0  0  0  0
   39.5550   24.7720   34.9810 C   0  0  0  0  0  0  0  0  0  0  0  0
   40.6340   21.6250   35.5970 H   0  0  0  0  0  0  0  0  0  0  0  0
   42.7630   22.5920   35.3310 H   0  0  0  0  0  0  0  0  0  0  0  0
   43.0140   24.9450   34.8240 H   0  0  0  0  0  0  0  0  0  0  0  0
   41.1290   26.3260   34.6030 H   0  0  0  0  0  0  0  0  0  0  0  0
   37.7680   21.9280   34.3710 C   0  0  0  0  0  0  0  0  0  0  0  0
   38.2610   22.6840   35.4790 C   0  0  0  0  0  0  0  0  0  0  0  0
   37.5280   22.6390   36.6420 C   0  0  0  0  0  0  0  0  0  0  0  0
   36.4010   21.8960   36.6940 N   0  0  0  0  0  0  0  0  0  0  0  0
   35.9540   21.1780   35.6040 C   0  0  0  0  0  0  0  0  0  0  0  0
   36.6510   21.1920   34.4110 N   0  0  0  0  0  0  0  0  0  0  0  0
   38.2160   21.8440   33.3920 H   0  0  0  0  0  0  0  0  0  0  0  0
   37.6310   23.1490   37.5470 H   0  0  0  0  0  0  0  0  0  0  0  0
   35.0420   20.5850   35.6660 H   0  0  0  0  0  0  0  0  0  0  0  0
   37.0540   24.9710   32.8550 N   0  0  0  0  0  0  0  0  0  0  0  0
   36.1320   25.2260   33.3370 H   0  0  0  0  0  0  0  0  0  0  0  0
   36.7130   24.9880   31.2190 S   0  0  0  0  0  0  0  0  0  0  0  0
   36.2750   23.6080   30.8180 O   0  0  0  0  0  1  0  0  0  0  0  0
   35.4880   25.8410   30.8900 O   0  0  0  0  0  1  0  0  0  0  0  0
   37.9870   25.3820   30.2230 O   0  0  0  0  0  0  0  0  0  0  0  0
   37.9030   26.3180   29.8520 H   0  0  0  0  0  0  0  0  0  0  0  0
  1 22  1  0  0  0  0
  1  7  1  1  0  0  0
  1  2  1  0  0  0  0
  2  3  1  0  0  0  0
  2  9  1  0  0  0  0
  3 11  1  0  0  0  0
  3 10  1  0  0  0  0
  4 12  1  0  0  0  0
  4  3  1  0  0  0  0
  5  6  1  0  0  0  0
  5  4  1  0  0  0  0
  6 16  1  6  0  0  0
  6  1  1  0  0  0  0
  8  2  1  0  0  0  0
 13  4  1  0  0  0  0
 14  5  1  0  0  0  0
 15  5  1  0  0  0  0
 17 18  1  0  0  0  0
 17 28  1  0  0  0  0
 18 23  1  0  0  0  0
 19 24  1  0  0  0  0
 19 18  2  0  0  0  0
 20 19  1  0  0  0  0
 21 20  2  0  0  0  0
 21 22  1  0  0  0  0
 22 17  2  0  0  0  0
 25 20  1  0  0  0  0
 26 21  1  0  0  0  0
 27 32  2  0  0  0  0
 27 28  1  0  0  0  0
 28 29  2  0  0  0  0
 29 30  1  0  0  0  0
 29 34  1  0  0  0  0
 31 35  1  0  0  0  0
 31 30  2  0  0  0  0
 32 31  1  0  0  0  0
 33 27  1  0  0  0  0
 36 37  1  0  0  0  0
 36  6  1  0  0  0  0
 38 36  1  0  0  0  0
 39 38  1  0  0  0  0
 40 38  1  0  0  0  0
 41 38  1  0  0  0  0
 42 41  1  0  0  0  0
M  END
>  <minimizedAffinity>
-5.17897034

$$$$

 OpenBabel03272506133D

 42 44  0  0  1  0  0  0  0  0999 V2000
   38.6400   22.3990   33.1950 C   0  0  1  0  0  0  0  0  0  0  0  0
   39.9320   22.6270   32.2810 C   0  0  0  0  0  0  0  0  0  0  0  0
   41.0770   21.7260   32.7320 C   0  0  0  0  0  0  0  0  0  0  0  0
   41.2000   21.7410   34.2290 C   0  0  0  0  0  0  0  0  0  0  0  0
   40.5750   22.9900   34.7070 C   0  0  0  0  0  0  0  0  0  0  0  0
   39.0790   22.9210   34.5180 C   0  0  2  0  0  0  0  0  0  0  0  0
   38.7320   21.3630   33.2650 H   0  0  0  0  0  0  0  0  0  0  0  0
   40.2450   23.6600   32.3620 H   0  0  0  0  0  0  0  0  0  0  0  0
   39.6470   22.4030   31.2470 H   0  0  0  0  0  0  0  0  0  0  0  0
   40.8810   20.6870   32.3800 H   0  0  0  0  0  0  0  0  0  0  0  0
   41.9820   22.1310   32.2640 H   0  0  0  0  0  0  0  0  0  0  0  0
   40.8360   20.8110   34.6730 H   0  0  0  0  0  0  0  0  0  0  0  0
   42.2890   21.7780   34.4700 H   0  0  0  0  0  0  0  0  0  0  0  0
   40.7300   23.1860   35.7810 H   0  0  0  0  0  0  0  0  0  0  0  0
   41.0740   23.8330   34.1960 H   0  0  0  0  0  0  0  0  0  0  0  0
   38.8810   23.9870   34.5700 H   0  0  0  0  0  0  0  0  0  0  0  0
   36.4330   22.5570   32.1100 C   0  0  0  0  0  0  0  0  0  0  0  0
   35.4800   23.3750   31.5290 C   0  0  0  0  0  0  0  0  0  0  0  0
   35.6250   24.7380   31.3710 C   0  0  0  0  0  0  0  0  0  0  0  0
   36.7760   25.3600   31.8060 C   0  0  0  0  0  0  0  0  0  0  0  0
   37.7080   24.5540   32.3740 C   0  0  0  0  0  0  0  0  0  0  0  0
   37.6060   23.1610   32.5550 C   0  0  0  0  0  0  0  0  0  0  0  0
   34.5280   22.9500   31.1660 H   0  0  0  0  0  0  0  0  0  0  0  0
   34.7880   25.2730   30.8920 H   0  0  0  0  0  0  0  0  0  0  0  0
   36.7910   26.4050   31.6420 H   0  0  0  0  0  0  0  0  0  0  0  0
   38.5360   25.2000   32.6480 H   0  0  0  0  0  0  0  0  0  0  0  0
   36.3590   20.4050   30.9930 C   0  0  0  0  0  0  0  0  0  0  0  0
   36.1310   21.1700   32.1790 C   0  0  0  0  0  0  0  0  0  0  0  0
   35.6390   20.4950   33.2720 C   0  0  0  0  0  0  0  0  0  0  0  0
   35.4020   19.1680   33.1880 N   0  0  0  0  0  0  0  0  0  0  0  0
   35.6330   18.4610   32.0260 C   0  0  0  0  0  0  0  0  0  0  0  0
   36.1230   19.0910   30.8980 N   0  0  0  0  0  0  0  0  0  0  0  0
   36.7440   20.7680   30.0510 H   0  0  0  0  0  0  0  0  0  0  0  0
   35.3250   20.8300   34.2100 H   0  0  0  0  0  0  0  0  0  0  0  0
   35.4350   17.3910   31.9780 H   0  0  0  0  0  0  0  0  0  0  0  0
   38.4060   22.3170   35.6310 N   0  0  0  0  0  0  0  0  0  0  0  0
   38.9050   21.3790   35.7670 H   0  0  0  0  0  0  0  0  0  0  0  0
   38.4250   23.0480   37.1330 S   0  0  0  0  0  0  0  0  0  0  0  0
   38.5320   24.5330   36.9320 O   0  0  0  0  0  1  0  0  0  0  0  0
   37.0910   22.9010   37.8670 O   0  0  0  0  0  1  0  0  0  0  0  0
   39.6890   22.6180   38.1270 O   0  0  0  0  0  0  0  0  0  0  0  0
   39.3970   21.9950   38.8660 H   0  0  0  0  0  0  0  0  0  0  0  0
  1  7  1  1  0  0  0
  1  6  1  0  0  0  0
  2  8  1  0  0  0  0
  2  3  1  0  0  0  0
  2  1  1  0  0  0  0
  3  4  1  0  0  0  0
  4 13  1  0  0  0  0
  4 12  1  0  0  0  0
  4  5  1  0  0  0  0
  5 14  1  0  0  0  0
  6 16  1  1  0  0  0
  6  5  1  0  0  0  0
  6 36  1  0  0  0  0
  9  2  1  0  0  0  0
 10  3  1  0  0  0  0
 11  3  1  0  0  0  0
 15  5  1  0  0  0  0
 17 28  1  0  0  0  0
 17 22  1  0  0  0  0
 18 17  2  0  0  0  0
 19 18  1  0  0  0  0
 19 20  2  0  0  0  0
 20 21  1  0  0  0  0
 21 22  2  0  0  0  0
 21 26  1  0  0  0  0
 22  1  1  0  0  0  0
 23 18  1  0  0  0  0
 24 19  1  0  0  0  0
 25 20  1  0  0  0  0
 27 28  1  0  0  0  0
 28 29  2  0  0  0  0
 29 34  1  0  0  0  0
 30 29  1  0  0  0  0
 31 30  2  0  0  0  0
 32 27  2  0  0  0  0
 32 31  1  0  0  0  0
 33 27  1  0  0  0  0
 35 31  1  0  0  0  0
 36 37  1  0  0  0  0
 36 38  1  0  0  0  0
 38 40  1  0  0  0  0
 38 41  1  0  0  0  0
 39 38  1  0  0  0  0
 41 42  1  0  0  0  0
M  END
>  <minimizedAffinity>
-5.15552235

$$$$

 OpenBabel03272506133D

 42 44  0  0  1  0  0  0  0  0999 V2000
   39.1640   25.1910   33.9360 C   0  0  1  0  0  0  0  0  0  0  0  0
   40.7320   24.8750   33.9480 C   0  0  0  0  0  0  0  0  0  0  0  0
   41.5220   26.0880   34.4260 C   0  0  0  0  0  0  0  0  0  0  0  0
   41.0100   27.3410   33.7730 C   0  0  0  0  0  0  0  0  0  0  0  0
   40.3260   26.9380   32.5290 C   0  0  0  0  0  0  0  0  0  0  0  0
   39.0440   26.2110   32.8590 C   0  0  2  0  0  0  0  0  0  0  0  0
   39.1510   25.7300   34.8280 H   0  0  0  0  0  0  0  0  0  0  0  0
   41.0500   24.6220   32.9450 H   0  0  0  0  0  0  0  0  0  0  0  0
   40.8910   24.0210   34.6170 H   0  0  0  0  0  0  0  0  0  0  0  0
   41.4240   26.1720   35.5330 H   0  0  0  0  0  0  0  0  0  0  0  0
   42.5650   25.9010   34.1420 H   0  0  0  0  0  0  0  0  0  0  0  0
   40.4340   27.9520   34.4720 H   0  0  0  0  0  0  0  0  0  0  0  0
   41.8990   27.9580   33.5020 H   0  0  0  0  0  0  0  0  0  0  0  0
   40.0310   27.7830   31.8860 H   0  0  0  0  0  0  0  0  0  0  0  0
   41.0470   26.3630   31.9200 H   0  0  0  0  0  0  0  0  0  0  0  0
   38.9130   25.7150   31.9030 H   0  0  0  0  0  0  0  0  0  0  0  0
   38.1440   23.0710   34.6690 C   0  0  0  0  0  0  0  0  0  0  0  0
   37.5290   21.8880   34.2970 C   0  0  0  0  0  0  0  0  0  0  0  0
   37.2930   21.5170   32.9890 C   0  0  0  0  0  0  0  0  0  0  0  0
   37.6780   22.3520   31.9610 C   0  0  0  0  0  0  0  0  0  0  0  0
   38.2810   23.5090   32.3290 C   0  0  0  0  0  0  0  0  0  0  0  0
   38.5450   23.9290   33.6480 C   0  0  0  0  0  0  0  0  0  0  0  0
   37.1850   21.1740   35.0650 H   0  0  0  0  0  0  0  0  0  0  0  0
   36.7940   20.5470   32.8300 H   0  0  0  0  0  0  0  0  0  0  0  0
   37.4520   21.9810   30.9960 H   0  0  0  0  0  0  0  0  0  0  0  0
   38.5170   24.0320   31.4070 H   0  0  0  0  0  0  0  0  0  0  0  0
   39.4810   22.6930   36.6570 C   0  0  0  0  0  0  0  0  0  0  0  0
   38.3260   23.2890   36.0610 C   0  0  0  0  0  0  0  0  0  0  0  0
   37.4990   24.0120   36.8890 C   0  0  0  0  0  0  0  0  0  0  0  0
   37.8050   24.1340   38.1990 N   0  0  0  0  0  0  0  0  0  0  0  0
   38.9290   23.5450   38.7410 C   0  0  0  0  0  0  0  0  0  0  0  0
   39.7900   22.8040   37.9540 N   0  0  0  0  0  0  0  0  0  0  0  0
   40.2350   22.1010   36.1590 H   0  0  0  0  0  0  0  0  0  0  0  0
   36.5770   24.4700   36.7180 H   0  0  0  0  0  0  0  0  0  0  0  0
   39.1570   23.6550   39.8000 H   0  0  0  0  0  0  0  0  0  0  0  0
   37.9310   27.0990   33.0240 N   0  0  0  0  0  0  0  0  0  0  0  0
   38.3650   28.0080   33.3870 H   0  0  0  0  0  0  0  0  0  0  0  0
   36.9990   27.5480   31.7120 S   0  0  0  0  0  0  0  0  0  0  0  0
   35.6150   27.8630   32.2050 O   0  0  0  0  0  1  0  0  0  0  0  0
   37.4530   28.8760   31.1060 O   0  0  0  0  0  1  0  0  0  0  0  0
   36.8210   26.3930   30.5270 O   0  0  0  0  0  0  0  0  0  0  0  0
   37.3760   26.6010   29.7080 H   0  0  0  0  0  0  0  0  0  0  0  0
  1  2  1  0  0  0  0
  1  7  1  1  0  0  0
  2  3  1  0  0  0  0
  2  9  1  0  0  0  0
  3 10  1  0  0  0  0
  4  3  1  0  0  0  0
  4 12  1  0  0  0  0
  5  6  1  0  0  0  0
  5  4  1  0  0  0  0
  6 16  1  6  0  0  0
  6 36  1  0  0  0  0
  6  1  1  0  0  0  0
  8  2  1  0  0  0  0
 11  3  1  0  0  0  0
 13  4  1  0  0  0  0
 14  5  1  0  0  0  0
 15  5  1  0  0  0  0
 17 28  1  0  0  0  0
 18 17  1  0  0  0  0
 18 23  1  0  0  0  0
 19 18  2  0  0  0  0
 20 21  2  0  0  0  0
 20 19  1  0  0  0  0
 21 22  1  0  0  0  0
 22  1  1  0  0  0  0
 22 17  2  0  0  0  0
 24 19  1  0  0  0  0
 25 20  1  0  0  0  0
 26 21  1  0  0  0  0
 27 32  1  0  0  0  0
 28 27  2  0  0  0  0
 28 29  1  0  0  0  0
 29 30  2  0  0  0  0
 30 31  1  0  0  0  0
 31 35  1  0  0  0  0
 32 31  2  0  0  0  0
 33 27  1  0  0  0  0
 34 29  1  0  0  0  0
 36 37  1  0  0  0  0
 38 39  1  0  0  0  0
 38 36  1  0  0  0  0
 40 38  1  0  0  0  0
 41 38  1  0  0  0  0
 42 41  1  0  0  0  0
M  END
>  <minimizedAffinity>
-5.13841772

$$$$

 OpenBabel03272506133D

 42 44  0  0  1  0  0  0  0  0999 V2000
   40.6050   25.3260   34.0740 C   0  0  1  0  0  0  0  0  0  0  0  0
   41.7080   26.4610   33.8390 C   0  0  0  0  0  0  0  0  0  0  0  0
   43.0280   25.8440   33.3900 C   0  0  0  0  0  0  0  0  0  0  0  0
   43.3540   24.6350   34.2210 C   0  0  0  0  0  0  0  0  0  0  0  0
   42.6180   24.7670   35.4930 C   0  0  0  0  0  0  0  0  0  0  0  0
   41.1380   24.5900   35.2520 C   0  0  2  0  0  0  0  0  0  0  0  0
   40.8630   24.7450   33.2470 H   0  0  0  0  0  0  0  0  0  0  0  0
   41.8680   26.9960   34.7670 H   0  0  0  0  0  0  0  0  0  0  0  0
   41.3200   27.1440   33.0760 H   0  0  0  0  0  0  0  0  0  0  0  0
   42.9470   25.5550   32.3180 H   0  0  0  0  0  0  0  0  0  0  0  0
   43.7870   26.6240   33.5260 H   0  0  0  0  0  0  0  0  0  0  0  0
   43.2010   23.7090   33.6610 H   0  0  0  0  0  0  0  0  0  0  0  0
   44.4470   24.6720   34.4410 H   0  0  0  0  0  0  0  0  0  0  0  0
   42.8880   24.0100   36.2470 H   0  0  0  0  0  0  0  0  0  0  0  0
   42.9070   25.7310   35.9510 H   0  0  0  0  0  0  0  0  0  0  0  0
   40.7880   25.0640   36.1630 H   0  0  0  0  0  0  0  0  0  0  0  0
   38.2380   25.7900   33.5690 C   0  0  0  0  0  0  0  0  0  0  0  0
   37.1040   26.5170   33.8850 C   0  0  0  0  0  0  0  0  0  0  0  0
   37.0500   27.4700   34.8810 C   0  0  0  0  0  0  0  0  0  0  0  0
   38.1750   27.7430   35.6300 C   0  0  0  0  0  0  0  0  0  0  0  0
   39.2850   27.0290   35.3160 C   0  0  0  0  0  0  0  0  0  0  0  0
   39.3890   26.0500   34.3090 C   0  0  0  0  0  0  0  0  0  0  0  0
   36.1620   26.3460   33.3350 H   0  0  0  0  0  0  0  0  0  0  0  0
   36.0820   27.9770   35.0310 H   0  0  0  0  0  0  0  0  0  0  0  0
   38.0320   28.4860   36.3690 H   0  0  0  0  0  0  0  0  0  0  0  0
   40.0630   27.3720   35.9910 H   0  0  0  0  0  0  0  0  0  0  0  0
   37.7570   23.5220   32.8550 C   0  0  0  0  0  0  0  0  0  0  0  0
   38.1250   24.8580   32.5020 C   0  0  0  0  0  0  0  0  0  0  0  0
   38.3390   25.1150   31.1670 C   0  0  0  0  0  0  0  0  0  0  0  0
   38.1900   24.1230   30.2630 N   0  0  0  0  0  0  0  0  0  0  0  0
   37.8330   22.8440   30.6390 C   0  0  0  0  0  0  0  0  0  0  0  0
   37.6110   22.5320   31.9670 N   0  0  0  0  0  0  0  0  0  0  0  0
   37.5470   23.1470   33.8460 H   0  0  0  0  0  0  0  0  0  0  0  0
   38.6810   25.9680   30.6720 H   0  0  0  0  0  0  0  0  0  0  0  0
   37.7200   22.0580   29.8950 H   0  0  0  0  0  0  0  0  0  0  0  0
   40.7270   23.2180   35.3110 N   0  0  0  0  0  0  0  0  0  0  0  0
   41.6280   22.6770   35.5180 H   0  0  0  0  0  0  0  0  0  0  0  0
   39.6330   22.7070   36.4670 S   0  0  0  0  0  0  0  0  0  0  0  0
   38.8730   23.9070   36.9560 O   0  0  0  0  0  1  0  0  0  0  0  0
   38.5320   21.8270   35.8750 O   0  0  0  0  0  1  0  0  0  0  0  0
   40.2940   21.9910   37.8160 O   0  0  0  0  0  0  0  0  0  0  0  0
   40.1660   20.9890   37.8150 H   0  0  0  0  0  0  0  0  0  0  0  0
  1  7  1  6  0  0  0
  1 22  1  0  0  0  0
  1  6  1  0  0  0  0
  2  1  1  0  0  0  0
  2  8  1  0  0  0  0
  3 11  1  0  0  0  0
  3  2  1  0  0  0  0
  3  4  1  0  0  0  0
  4 13  1  0  0  0  0
  4  5  1  0  0  0  0
  5 15  1  0  0  0  0
  5 14  1  0  0  0  0
  6 36  1  0  0  0  0
  6  5  1  0  0  0  0
  6 16  1  1  0  0  0
  9  2  1  0  0  0  0
 10  3  1  0  0  0  0
 12  4  1  0  0  0  0
 17 18  2  0  0  0  0
 17 22  1  0  0  0  0
 18 19  1  0  0  0  0
 19 24  1  0  0  0  0
 19 20  2  0  0  0  0
 20 25  1  0  0  0  0
 21 20  1  0  0  0  0
 21 26  1  0  0  0  0
 22 21  2  0  0  0  0
 23 18  1  0  0  0  0
 27 33  1  0  0  0  0
 28 27  1  0  0  0  0
 28 17  1  0  0  0  0
 29 28  2  0  0  0  0
 30 31  2  0  0  0  0
 30 29  1  0  0  0  0
 31 32  1  0  0  0  0
 32 27  2  0  0  0  0
 34 29  1  0  0  0  0
 35 31  1  0  0  0  0
 36 37  1  0  0  0  0
 36 38  1  0  0  0  0
 38 39  1  0  0  0  0
 38 41  1  0  0  0  0
 40 38  1  0  0  0  0
 42 41  1  0  0  0  0
M  END
>  <minimizedAffinity>
-5.13712358

$$$$

 OpenBabel03272506133D

 42 44  0  0  1  0  0  0  0  0999 V2000
   40.5100   23.0710   35.0980 C   0  0  1  0  0  0  0  0  0  0  0  0
   42.0760   23.0900   34.7730 C   0  0  0  0  0  0  0  0  0  0  0  0
   42.7100   21.7430   35.1010 C   0  0  0  0  0  0  0  0  0  0  0  0
   42.2210   21.2400   36.4290 C   0  0  0  0  0  0  0  0  0  0  0  0
   41.7530   22.4110   37.1950 C   0  0  0  0  0  0  0  0  0  0  0  0
   40.4840   22.9530   36.5810 C   0  0  2  0  0  0  0  0  0  0  0  0
   40.3330   22.1070   34.7430 H   0  0  0  0  0  0  0  0  0  0  0  0
   42.5520   23.8570   35.3700 H   0  0  0  0  0  0  0  0  0  0  0  0
   42.1890   23.3220   33.7080 H   0  0  0  0  0  0  0  0  0  0  0  0
   42.4470   21.0130   34.3010 H   0  0  0  0  0  0  0  0  0  0  0  0
   43.7930   21.9170   35.1260 H   0  0  0  0  0  0  0  0  0  0  0  0
   41.5120   20.4160   36.3120 H   0  0  0  0  0  0  0  0  0  0  0  0
   43.1000   20.8010   36.9590 H   0  0  0  0  0  0  0  0  0  0  0  0
   41.5020   22.1890   38.2450 H   0  0  0  0  0  0  0  0  0  0  0  0
   42.5900   23.1310   37.2550 H   0  0  0  0  0  0  0  0  0  0  0  0
   40.5250   23.9440   37.0230 H   0  0  0  0  0  0  0  0  0  0  0  0
   38.9360   24.3580   33.7060 C   0  0  0  0  0  0  0  0  0  0  0  0
   38.5140   25.6060   33.2800 C   0  0  0  0  0  0  0  0  0  0  0  0
   39.1000   26.7940   33.6680 C   0  0  0  0  0  0  0  0  0  0  0  0
   40.1720   26.7770   34.5340 C   0  0  0  0  0  0  0  0  0  0  0  0
   40.5830   25.5530   34.9490 C   0  0  0  0  0  0  0  0  0  0  0  0
   40.0200   24.3160   34.5790 C   0  0  0  0  0  0  0  0  0  0  0  0
   37.6550   25.6980   32.5930 H   0  0  0  0  0  0  0  0  0  0  0  0
   38.6650   27.7190   33.2540 H   0  0  0  0  0  0  0  0  0  0  0  0
   40.5490   27.7370   34.7730 H   0  0  0  0  0  0  0  0  0  0  0  0
   41.4270   25.7270   35.6100 H   0  0  0  0  0  0  0  0  0  0  0  0
   38.3560   22.9850   31.7930 C   0  0  0  0  0  0  0  0  0  0  0  0
   38.2310   23.2350   33.1950 C   0  0  0  0  0  0  0  0  0  0  0  0
   37.4420   22.3690   33.9160 C   0  0  0  0  0  0  0  0  0  0  0  0
   36.8340   21.3390   33.2890 N   0  0  0  0  0  0  0  0  0  0  0  0
   36.9760   21.1270   31.9330 C   0  0  0  0  0  0  0  0  0  0  0  0
   37.7540   21.9700   31.1620 N   0  0  0  0  0  0  0  0  0  0  0  0
   38.9350   23.5550   31.0810 H   0  0  0  0  0  0  0  0  0  0  0  0
   37.1370   22.3780   34.9140 H   0  0  0  0  0  0  0  0  0  0  0  0
   36.4770   20.2910   31.4460 H   0  0  0  0  0  0  0  0  0  0  0  0
   39.3050   22.3170   37.0910 N   0  0  0  0  0  0  0  0  0  0  0  0
   39.6730   21.6010   37.7980 H   0  0  0  0  0  0  0  0  0  0  0  0
   38.1530   23.2000   37.9170 S   0  0  0  0  0  0  0  0  0  0  0  0
   38.8390   23.9480   39.0240 O   0  0  0  0  0  1  0  0  0  0  0  0
   37.5610   24.3240   37.0650 O   0  0  0  0  0  1  0  0  0  0  0  0
   36.9430   22.3110   38.6350 O   0  0  0  0  0  0  0  0  0  0  0  0
   36.0700   22.3810   38.1310 H   0  0  0  0  0  0  0  0  0  0  0  0
  1  7  1  6  0  0  0
  1  6  1  0  0  0  0
  2  1  1  0  0  0  0
  2  3  1  0  0  0  0
  2  8  1  0  0  0  0
  3 11  1  0  0  0  0
  3  4  1  0  0  0  0
  4 13  1  0  0  0  0
  4  5  1  0  0  0  0
  5 15  1  0  0  0  0
  5 14  1  0  0  0  0
  6 16  1  1  0  0  0
  6 36  1  0  0  0  0
  6  5  1  0  0  0  0
  9  2  1  0  0  0  0
 10  3  1  0  0  0  0
 12  4  1  0  0  0  0
 17 22  1  0  0  0  0
 18 19  1  0  0  0  0
 18 17  2  0  0  0  0
 19 20  2  0  0  0  0
 20 25  1  0  0  0  0
 20 21  1  0  0  0  0
 21 26  1  0  0  0  0
 22 21  2  0  0  0  0
 22  1  1  0  0  0  0
 23 18  1  0  0  0  0
 24 19  1  0  0  0  0
 27 28  1  0  0  0  0
 28 17  1  0  0  0  0
 28 29  2  0  0  0  0
 29 34  1  0  0  0  0
 30 29  1  0  0  0  0
 31 30  2  0  0  0  0
 32 27  2  0  0  0  0
 32 31  1  0  0  0  0
 33 27  1  0  0  0  0
 35 31  1  0  0  0  0
 36 37  1  0  0  0  0
 36 38  1  0  0  0  0
 38 41  1  0  0  0  0
 38 39  1  0  0  0  0
 40 38  1  0  0  0  0
 42 41  1  0  0  0  0
M  END
>  <minimizedAffinity>
-5.10219097

$$$$

 OpenBabel03272506133D

 42 44  0  0  1  0  0  0  0  0999 V2000
   38.3160   23.8570   32.5060 C   0  0  1  0  0  0  0  0  0  0  0  0
   39.5550   23.1280   31.8060 C   0  0  0  0  0  0  0  0  0  0  0  0
   40.7280   24.0890   31.6470 C   0  0  0  0  0  0  0  0  0  0  0  0
   40.2520   25.4210   31.1400 C   0  0  0  0  0  0  0  0  0  0  0  0
   38.9610   25.1950   30.4630 C   0  0  0  0  0  0  0  0  0  0  0  0
   37.8990   24.8510   31.4800 C   0  0  2  0  0  0  0  0  0  0  0  0
   38.8800   24.3970   33.1980 H   0  0  0  0  0  0  0  0  0  0  0  0
   39.2530   22.7780   30.8260 H   0  0  0  0  0  0  0  0  0  0  0  0
   39.8350   22.2760   32.4360 H   0  0  0  0  0  0  0  0  0  0  0  0
   41.2270   24.2180   32.6350 H   0  0  0  0  0  0  0  0  0  0  0  0
   41.4080   23.6200   30.9260 H   0  0  0  0  0  0  0  0  0  0  0  0
   40.2660   26.1800   31.9270 H   0  0  0  0  0  0  0  0  0  0  0  0
   40.9920   25.7680   30.3810 H   0  0  0  0  0  0  0  0  0  0  0  0
   38.5780   26.0770   29.9220 H   0  0  0  0  0  0  0  0  0  0  0  0
   39.1210   24.4350   29.6770 H   0  0  0  0  0  0  0  0  0  0  0  0
   37.1920   24.3910   30.7970 H   0  0  0  0  0  0  0  0  0  0  0  0
   37.3490   22.1240   33.9660 C   0  0  0  0  0  0  0  0  0  0  0  0
   36.3840   21.1450   34.1250 C   0  0  0  0  0  0  0  0  0  0  0  0
   35.4540   20.8130   33.1610 C   0  0  0  0  0  0  0  0  0  0  0  0
   35.4540   21.4770   31.9530 C   0  0  0  0  0  0  0  0  0  0  0  0
   36.4020   22.4350   31.8010 C   0  0  0  0  0  0  0  0  0  0  0  0
   37.3720   22.8060   32.7530 C   0  0  0  0  0  0  0  0  0  0  0  0
   36.3170   20.5780   35.0700 H   0  0  0  0  0  0  0  0  0  0  0  0
   34.7390   20.0130   33.4170 H   0  0  0  0  0  0  0  0  0  0  0  0
   34.7020   21.1520   31.2820 H   0  0  0  0  0  0  0  0  0  0  0  0
   36.2590   22.8420   30.8040 H   0  0  0  0  0  0  0  0  0  0  0  0
   37.7300   23.0550   36.1740 C   0  0  0  0  0  0  0  0  0  0  0  0
   38.2410   22.3270   35.0540 C   0  0  0  0  0  0  0  0  0  0  0  0
   39.5450   21.8960   35.1320 C   0  0  0  0  0  0  0  0  0  0  0  0
   40.2730   22.1640   36.2370 N   0  0  0  0  0  0  0  0  0  0  0  0
   39.7480   22.8690   37.3000 C   0  0  0  0  0  0  0  0  0  0  0  0
   38.4450   23.3290   37.2710 N   0  0  0  0  0  0  0  0  0  0  0  0
   36.7350   23.4590   36.2850 H   0  0  0  0  0  0  0  0  0  0  0  0
   40.1610   21.4230   34.4340 H   0  0  0  0  0  0  0  0  0  0  0  0
   40.3520   23.0760   38.1820 H   0  0  0  0  0  0  0  0  0  0  0  0
   37.2570   26.0110   32.0250 N   0  0  0  0  0  0  0  0  0  0  0  0
   38.0300   26.7520   32.0630 H   0  0  0  0  0  0  0  0  0  0  0  0
   35.9890   26.7390   31.2180 S   0  0  0  0  0  0  0  0  0  0  0  0
   34.9500   25.6910   30.9330 O   0  0  0  0  0  1  0  0  0  0  0  0
   35.2330   27.7340   32.1000 O   0  0  0  0  0  1  0  0  0  0  0  0
   36.3700   27.4290   29.7520 O   0  0  0  0  0  0  0  0  0  0  0  0
   36.4020   28.4380   29.8030 H   0  0  0  0  0  0  0  0  0  0  0  0
  1 22  1  0  0  0  0
  1  7  1  1  0  0  0
  2  9  1  0  0  0  0
  2  1  1  0  0  0  0
  3  2  1  0  0  0  0
  3 10  1  0  0  0  0
  4  3  1  0  0  0  0
  4 12  1  0  0  0  0
  5  4  1  0  0  0  0
  5  6  1  0  0  0  0
  6 16  1  6  0  0  0
  6 36  1  0  0  0  0
  6  1  1  0  0  0  0
  8  2  1  0  0  0  0
 11  3  1  0  0  0  0
 13  4  1  0  0  0  0
 14  5  1  0  0  0  0
 15  5  1  0  0  0  0
 17 18  1  0  0  0  0
 17 28  1  0  0  0  0
 18 23  1  0  0  0  0
 19 24  1  0  0  0  0
 19 18  2  0  0  0  0
 20 19  1  0  0  0  0
 21 20  2  0  0  0  0
 21 22  1  0  0  0  0
 22 17  2  0  0  0  0
 25 20  1  0  0  0  0
 26 21  1  0  0  0  0
 27 33  1  0  0  0  0
 27 32  1  0  0  0  0
 28 29  1  0  0  0  0
 28 27  2  0  0  0  0
 29 30  2  0  0  0  0
 30 31  1  0  0  0  0
 31 35  1  0  0  0  0
 32 31  2  0  0  0  0
 34 29  1  0  0  0  0
 36 37  1  0  0  0  0
 38 36  1  0  0  0  0
 38 40  1  0  0  0  0
 39 38  1  0  0  0  0
 41 42  1  0  0  0  0
 41 38  1  0  0  0  0
M  END
>  <minimizedAffinity>
-5.0668416

$$$$
