
 OpenBabel03272502083D

 37 39  0  0  0  0  0  0  0  0999 V2000
   36.6030   28.4240   35.6830 F   0  0  0  0  0  0  0  0  0  0  0  0
   36.4990   28.6400   34.3320 C   0  0  0  0  0  0  0  0  0  0  0  0
   37.1180   27.8190   33.4050 C   0  0  0  0  0  0  0  0  0  0  0  0
   36.9520   28.0880   32.0640 C   0  0  0  0  0  0  0  0  0  0  0  0
   36.1730   29.1710   31.6440 C   0  0  0  0  0  0  0  0  0  0  0  0
   35.5850   29.9490   32.6240 C   0  0  0  0  0  0  0  0  0  0  0  0
   35.7190   29.7250   33.9410 C   0  0  0  0  0  0  0  0  0  0  0  0
   37.4610   27.4100   31.3690 H   0  0  0  0  0  0  0  0  0  0  0  0
   36.0740   29.3370   30.5840 H   0  0  0  0  0  0  0  0  0  0  0  0
   35.0010   30.7630   32.2110 H   0  0  0  0  0  0  0  0  0  0  0  0
   32.6820   29.2760   34.5490 Br  0  0  0  0  0  0  0  0  0  0  0  0
   33.7970   30.5830   35.3710 C   0  0  0  0  0  0  0  0  0  0  0  0
   35.0870   30.5960   34.9100 C   0  0  0  0  0  0  0  0  0  0  0  0
   35.9590   31.5620   35.4390 C   0  0  0  0  0  0  0  0  0  0  0  0
   35.5330   32.4530   36.3790 C   0  0  0  0  0  0  0  0  0  0  0  0
   34.2240   32.3780   36.7960 C   0  0  0  0  0  0  0  0  0  0  0  0
   33.3270   31.4280   36.2890 C   0  0  0  0  0  0  0  0  0  0  0  0
   36.9940   31.6540   35.1400 H   0  0  0  0  0  0  0  0  0  0  0  0
   36.1900   33.2040   36.7970 H   0  0  0  0  0  0  0  0  0  0  0  0
   33.8380   33.0700   37.5470 H   0  0  0  0  0  0  0  0  0  0  0  0
   32.0190   31.2970   36.6600 O   0  0  0  0  0  0  0  0  0  0  0  0
   31.7280   31.5720   37.5860 H   0  0  0  0  0  0  0  0  0  0  0  0
   39.1620   27.0510   34.4230 C   0  0  0  0  0  0  0  0  0  0  0  0
   37.8880   26.7430   33.9640 C   0  0  0  0  0  0  0  0  0  0  0  0
   37.4510   25.4350   34.0880 C   0  0  0  0  0  0  0  0  0  0  0  0
   38.2560   24.4960   34.6440 N   0  0  0  0  0  0  0  0  0  0  0  0
   39.4780   24.8310   35.0770 C   0  0  0  0  0  0  0  0  0  0  0  0
   39.9300   26.0710   34.9730 N   0  0  0  0  0  0  0  0  0  0  0  0
   39.5520   28.0580   34.3490 H   0  0  0  0  0  0  0  0  0  0  0  0
   36.4700   25.2350   33.7260 H   0  0  0  0  0  0  0  0  0  0  0  0
   40.2920   23.8160   35.6540 N   0  0  0  0  0  0  0  0  0  0  0  0
   41.3010   23.7030   35.4110 H   0  0  0  0  0  0  0  0  0  0  0  0
   39.7080   22.6730   36.8100 S   0  0  0  0  0  0  0  0  0  0  0  0
   40.7990   21.6960   37.1320 O   0  0  0  0  0  1  0  0  0  0  0  0
   39.2510   23.3020   38.0740 O   0  0  0  0  0  1  0  0  0  0  0  0
   38.4630   21.8080   36.0630 O   0  0  0  0  0  0  0  0  0  0  0  0
   38.4100   21.9980   35.0840 H   0  0  0  0  0  0  0  0  0  0  0  0
  2  1  1  0  0  0  0
  3 24  1  0  0  0  0
  3  2  2  0  0  0  0
  4  3  1  0  0  0  0
  5  4  2  0  0  0  0
  5  6  1  0  0  0  0
  6  7  2  0  0  0  0
  7  2  1  0  0  0  0
  7 13  1  0  0  0  0
  8  4  1  0  0  0  0
  9  5  1  0  0  0  0
 10  6  1  0  0  0  0
 11 12  1  0  0  0  0
 12 17  1  0  0  0  0
 13 12  2  0  0  0  0
 13 14  1  0  0  0  0
 14 15  2  0  0  0  0
 15 16  1  0  0  0  0
 15 19  1  0  0  0  0
 16 20  1  0  0  0  0
 17 21  1  0  0  0  0
 17 16  2  0  0  0  0
 18 14  1  0  0  0  0
 21 22  1  0  0  0  0
 23 28  1  0  0  0  0
 24 25  1  0  0  0  0
 24 23  2  0  0  0  0
 25 26  2  0  0  0  0
 26 27  1  0  0  0  0
 27 31  1  0  0  0  0
 28 27  2  0  0  0  0
 29 23  1  0  0  0  0
 30 25  1  0  0  0  0
 31 33  1  0  0  0  0
 32 31  1  0  0  0  0
 33 34  1  0  0  0  0
 33 35  1  0  0  0  0
 36 33  1  0  0  0  0
 37 36  1  0  0  0  0
M  END
>  <minimizedAffinity>
-6.40757895

$$$$

 OpenBabel03272502083D

 37 39  0  0  0  0  0  0  0  0999 V2000
   35.7260   28.2210   34.6260 F   0  0  0  0  0  0  0  0  0  0  0  0
   35.9300   29.0310   33.5370 C   0  0  0  0  0  0  0  0  0  0  0  0
   36.5980   28.5900   32.4080 C   0  0  0  0  0  0  0  0  0  0  0  0
   36.7480   29.4550   31.3450 C   0  0  0  0  0  0  0  0  0  0  0  0
   36.2350   30.7550   31.4050 C   0  0  0  0  0  0  0  0  0  0  0  0
   35.5800   31.1270   32.5630 C   0  0  0  0  0  0  0  0  0  0  0  0
   35.4110   30.3190   33.6230 C   0  0  0  0  0  0  0  0  0  0  0  0
   37.2850   29.0600   30.4740 H   0  0  0  0  0  0  0  0  0  0  0  0
   36.3790   31.3900   30.5470 H   0  0  0  0  0  0  0  0  0  0  0  0
   35.2160   32.1470   32.5230 H   0  0  0  0  0  0  0  0  0  0  0  0
   32.3860   29.5860   33.9560 Br  0  0  0  0  0  0  0  0  0  0  0  0
   33.4330   30.5740   35.2030 C   0  0  0  0  0  0  0  0  0  0  0  0
   34.7270   30.7870   34.8110 C   0  0  0  0  0  0  0  0  0  0  0  0
   35.5500   31.5450   35.6600 C   0  0  0  0  0  0  0  0  0  0  0  0
   35.0730   32.0490   36.8340 C   0  0  0  0  0  0  0  0  0  0  0  0
   33.7620   31.7920   37.1640 C   0  0  0  0  0  0  0  0  0  0  0  0
   32.9130   31.0410   36.3400 C   0  0  0  0  0  0  0  0  0  0  0  0
   36.5840   31.7690   35.4400 H   0  0  0  0  0  0  0  0  0  0  0  0
   35.6910   32.6360   37.5000 H   0  0  0  0  0  0  0  0  0  0  0  0
   33.3360   32.1740   38.0930 H   0  0  0  0  0  0  0  0  0  0  0  0
   31.6070   30.7470   36.6070 O   0  0  0  0  0  0  0  0  0  0  0  0
   31.2900   30.6800   37.5630 H   0  0  0  0  0  0  0  0  0  0  0  0
   38.3120   27.0320   33.0700 C   0  0  0  0  0  0  0  0  0  0  0  0
   37.0750   27.2370   32.4720 C   0  0  0  0  0  0  0  0  0  0  0  0
   36.3920   26.1300   31.9960 C   0  0  0  0  0  0  0  0  0  0  0  0
   36.9290   24.8910   32.1200 N   0  0  0  0  0  0  0  0  0  0  0  0
   38.1240   24.7320   32.7030 C   0  0  0  0  0  0  0  0  0  0  0  0
   38.8060   25.7670   33.1680 N   0  0  0  0  0  0  0  0  0  0  0  0
   38.8870   27.8630   33.4580 H   0  0  0  0  0  0  0  0  0  0  0  0
   35.4480   26.3240   31.5450 H   0  0  0  0  0  0  0  0  0  0  0  0
   38.6520   23.4150   32.8130 N   0  0  0  0  0  0  0  0  0  0  0  0
   39.6450   23.1910   32.5850 H   0  0  0  0  0  0  0  0  0  0  0  0
   37.7190   22.0570   33.3310 S   0  0  0  0  0  0  0  0  0  0  0  0
   38.3780   20.7960   32.8570 O   0  0  0  0  0  1  0  0  0  0  0  0
   37.5650   21.9830   34.8050 O   0  0  0  0  0  1  0  0  0  0  0  0
   36.2210   22.1630   32.5550 O   0  0  0  0  0  0  0  0  0  0  0  0
   36.2140   22.8680   31.8480 H   0  0  0  0  0  0  0  0  0  0  0  0
  2  7  1  0  0  0  0
  2  1  1  0  0  0  0
  3 24  1  0  0  0  0
  3  2  2  0  0  0  0
  4  5  2  0  0  0  0
  4  3  1  0  0  0  0
  5  6  1  0  0  0  0
  6  7  2  0  0  0  0
  7 13  1  0  0  0  0
  8  4  1  0  0  0  0
  9  5  1  0  0  0  0
 10  6  1  0  0  0  0
 11 12  1  0  0  0  0
 12 17  1  0  0  0  0
 13 12  2  0  0  0  0
 13 14  1  0  0  0  0
 14 15  2  0  0  0  0
 15 16  1  0  0  0  0
 15 19  1  0  0  0  0
 16 20  1  0  0  0  0
 17 21  1  0  0  0  0
 17 16  2  0  0  0  0
 18 14  1  0  0  0  0
 21 22  1  0  0  0  0
 23 28  1  0  0  0  0
 23 29  1  0  0  0  0
 24 23  2  0  0  0  0
 25 26  2  0  0  0  0
 25 24  1  0  0  0  0
 26 27  1  0  0  0  0
 27 31  1  0  0  0  0
 27 28  2  0  0  0  0
 30 25  1  0  0  0  0
 31 33  1  0  0  0  0
 32 31  1  0  0  0  0
 33 35  1  0  0  0  0
 34 33  1  0  0  0  0
 36 33  1  0  0  0  0
 37 36  1  0  0  0  0
M  END
>  <minimizedAffinity>
-6.20542049

$$$$

 OpenBabel03272502083D

 37 39  0  0  0  0  0  0  0  0999 V2000
   35.5850   28.1840   33.9450 F   0  0  0  0  0  0  0  0  0  0  0  0
   35.9000   28.8960   32.8150 C   0  0  0  0  0  0  0  0  0  0  0  0
   35.8030   30.2760   32.7640 C   0  0  0  0  0  0  0  0  0  0  0  0
   36.1560   30.9240   31.5990 C   0  0  0  0  0  0  0  0  0  0  0  0
   36.6030   30.2020   30.4880 C   0  0  0  0  0  0  0  0  0  0  0  0
   36.6740   28.8270   30.6100 C   0  0  0  0  0  0  0  0  0  0  0  0
   36.3410   28.1540   31.7240 C   0  0  0  0  0  0  0  0  0  0  0  0
   36.0620   32.0170   31.6070 H   0  0  0  0  0  0  0  0  0  0  0  0
   36.8670   30.7560   29.6030 H   0  0  0  0  0  0  0  0  0  0  0  0
   37.0300   28.3490   29.7050 H   0  0  0  0  0  0  0  0  0  0  0  0
   38.8440   26.8760   33.1030 Br  0  0  0  0  0  0  0  0  0  0  0  0
   37.3860   25.9170   32.3390 C   0  0  0  0  0  0  0  0  0  0  0  0
   36.4250   26.7080   31.7700 C   0  0  0  0  0  0  0  0  0  0  0  0
   35.3380   26.0710   31.1480 C   0  0  0  0  0  0  0  0  0  0  0  0
   35.2470   24.7110   31.1160 C   0  0  0  0  0  0  0  0  0  0  0  0
   36.2500   23.9800   31.7120 C   0  0  0  0  0  0  0  0  0  0  0  0
   37.3480   24.5840   32.3390 C   0  0  0  0  0  0  0  0  0  0  0  0
   34.5300   26.6060   30.6710 H   0  0  0  0  0  0  0  0  0  0  0  0
   34.4190   24.2020   30.6420 H   0  0  0  0  0  0  0  0  0  0  0  0
   36.2200   22.8900   31.7110 H   0  0  0  0  0  0  0  0  0  0  0  0
   38.3740   23.9210   32.9500 O   0  0  0  0  0  0  0  0  0  0  0  0
   38.2150   23.0110   33.3550 H   0  0  0  0  0  0  0  0  0  0  0  0
   36.1750   30.8570   35.0720 C   0  0  0  0  0  0  0  0  0  0  0  0
   35.3320   30.8980   33.9690 C   0  0  0  0  0  0  0  0  0  0  0  0
   34.1130   31.5420   34.1060 C   0  0  0  0  0  0  0  0  0  0  0  0
   33.7700   32.1100   35.2890 N   0  0  0  0  0  0  0  0  0  0  0  0
   34.6100   32.0510   36.3300 C   0  0  0  0  0  0  0  0  0  0  0  0
   35.7820   31.4430   36.2370 N   0  0  0  0  0  0  0  0  0  0  0  0
   37.1380   30.3660   35.0190 H   0  0  0  0  0  0  0  0  0  0  0  0
   33.4930   31.5550   33.2410 H   0  0  0  0  0  0  0  0  0  0  0  0
   34.2110   32.6590   37.5540 N   0  0  0  0  0  0  0  0  0  0  0  0
   34.3310   32.1870   38.4770 H   0  0  0  0  0  0  0  0  0  0  0  0
   33.4970   34.2290   37.6470 S   0  0  0  0  0  0  0  0  0  0  0  0
   32.0070   34.1000   37.5400 O   0  0  0  0  0  1  0  0  0  0  0  0
   33.8190   34.9430   38.9070 O   0  0  0  0  0  1  0  0  0  0  0  0
   34.0250   35.0920   36.2920 O   0  0  0  0  0  0  0  0  0  0  0  0
   34.4980   34.5070   35.6360 H   0  0  0  0  0  0  0  0  0  0  0  0
  2  1  1  0  0  0  0
  3  2  1  0  0  0  0
  3 24  1  0  0  0  0
  4  8  1  0  0  0  0
  4  3  2  0  0  0  0
  5  6  2  0  0  0  0
  5  4  1  0  0  0  0
  6  7  1  0  0  0  0
  7 13  1  0  0  0  0
  7  2  2  0  0  0  0
  9  5  1  0  0  0  0
 10  6  1  0  0  0  0
 12 17  1  0  0  0  0
 12 11  1  0  0  0  0
 13 12  2  0  0  0  0
 14 13  1  0  0  0  0
 15 14  2  0  0  0  0
 15 16  1  0  0  0  0
 16 17  2  0  0  0  0
 17 21  1  0  0  0  0
 18 14  1  0  0  0  0
 19 15  1  0  0  0  0
 20 16  1  0  0  0  0
 21 22  1  0  0  0  0
 23 28  1  0  0  0  0
 24 25  1  0  0  0  0
 24 23  2  0  0  0  0
 25 26  2  0  0  0  0
 26 27  1  0  0  0  0
 27 31  1  0  0  0  0
 28 27  2  0  0  0  0
 29 23  1  0  0  0  0
 30 25  1  0  0  0  0
 31 33  1  0  0  0  0
 31 32  1  0  0  0  0
 33 35  1  0  0  0  0
 34 33  1  0  0  0  0
 36 33  1  0  0  0  0
 37 36  1  0  0  0  0
M  END
>  <minimizedAffinity>
-6.14815617

$$$$

 OpenBabel03272502083D

 37 39  0  0  0  0  0  0  0  0999 V2000
   35.8150   28.1170   34.9550 F   0  0  0  0  0  0  0  0  0  0  0  0
   35.7620   28.8060   33.7690 C   0  0  0  0  0  0  0  0  0  0  0  0
   36.4620   28.3950   32.6470 C   0  0  0  0  0  0  0  0  0  0  0  0
   36.3440   29.1270   31.4850 C   0  0  0  0  0  0  0  0  0  0  0  0
   35.5330   30.2660   31.4380 C   0  0  0  0  0  0  0  0  0  0  0  0
   34.8640   30.6180   32.5950 C   0  0  0  0  0  0  0  0  0  0  0  0
   34.9490   29.9340   33.7490 C   0  0  0  0  0  0  0  0  0  0  0  0
   36.9180   28.7630   30.6250 H   0  0  0  0  0  0  0  0  0  0  0  0
   35.4750   30.8020   30.5060 H   0  0  0  0  0  0  0  0  0  0  0  0
   34.2600   31.5080   32.4700 H   0  0  0  0  0  0  0  0  0  0  0  0
   36.2740   32.1420   35.5290 Br  0  0  0  0  0  0  0  0  0  0  0  0
   34.5740   31.3400   35.8370 C   0  0  0  0  0  0  0  0  0  0  0  0
   34.2310   30.3760   34.9270 C   0  0  0  0  0  0  0  0  0  0  0  0
   33.0090   29.7080   35.1130 C   0  0  0  0  0  0  0  0  0  0  0  0
   32.1950   30.0130   36.1630 C   0  0  0  0  0  0  0  0  0  0  0  0
   32.6050   30.9960   37.0360 C   0  0  0  0  0  0  0  0  0  0  0  0
   33.8170   31.6800   36.8810 C   0  0  0  0  0  0  0  0  0  0  0  0
   32.6490   28.9330   34.4510 H   0  0  0  0  0  0  0  0  0  0  0  0
   31.2510   29.5100   36.3240 H   0  0  0  0  0  0  0  0  0  0  0  0
   31.9860   31.2740   37.8910 H   0  0  0  0  0  0  0  0  0  0  0  0
   34.2820   32.6650   37.7060 O   0  0  0  0  0  0  0  0  0  0  0  0
   33.6320   33.2460   38.2130 H   0  0  0  0  0  0  0  0  0  0  0  0
   38.5940   27.3960   33.1560 C   0  0  0  0  0  0  0  0  0  0  0  0
   37.2580   27.2130   32.8260 C   0  0  0  0  0  0  0  0  0  0  0  0
   36.7900   25.9150   32.7050 C   0  0  0  0  0  0  0  0  0  0  0  0
   37.6260   24.8660   32.9080 N   0  0  0  0  0  0  0  0  0  0  0  0
   38.9090   25.0820   33.2270 C   0  0  0  0  0  0  0  0  0  0  0  0
   39.3910   26.3090   33.3490 N   0  0  0  0  0  0  0  0  0  0  0  0
   39.0100   28.3900   33.2620 H   0  0  0  0  0  0  0  0  0  0  0  0
   35.7620   25.8120   32.4510 H   0  0  0  0  0  0  0  0  0  0  0  0
   39.7530   23.9540   33.4310 N   0  0  0  0  0  0  0  0  0  0  0  0
   40.7130   23.8950   33.0260 H   0  0  0  0  0  0  0  0  0  0  0  0
   39.2880   22.5760   34.3630 S   0  0  0  0  0  0  0  0  0  0  0  0
   38.7650   21.5130   33.4440 O   0  0  0  0  0  1  0  0  0  0  0  0
   40.4050   22.0050   35.1560 O   0  0  0  0  0  1  0  0  0  0  0  0
   38.0070   23.0590   35.3540 O   0  0  0  0  0  0  0  0  0  0  0  0
   37.6650   23.9650   35.1090 H   0  0  0  0  0  0  0  0  0  0  0  0
  2  1  1  0  0  0  0
  3 24  1  0  0  0  0
  3  2  2  0  0  0  0
  4  3  1  0  0  0  0
  5  4  2  0  0  0  0
  5  6  1  0  0  0  0
  6  7  2  0  0  0  0
  7  2  1  0  0  0  0
  7 13  1  0  0  0  0
  8  4  1  0  0  0  0
  9  5  1  0  0  0  0
 10  6  1  0  0  0  0
 11 12  1  0  0  0  0
 12 17  1  0  0  0  0
 13 14  1  0  0  0  0
 13 12  2  0  0  0  0
 14 15  2  0  0  0  0
 15 19  1  0  0  0  0
 15 16  1  0  0  0  0
 16 20  1  0  0  0  0
 17 16  2  0  0  0  0
 17 21  1  0  0  0  0
 18 14  1  0  0  0  0
 21 22  1  0  0  0  0
 23 29  1  0  0  0  0
 23 28  1  0  0  0  0
 24 23  2  0  0  0  0
 25 24  1  0  0  0  0
 25 26  2  0  0  0  0
 26 27  1  0  0  0  0
 27 28  2  0  0  0  0
 27 31  1  0  0  0  0
 30 25  1  0  0  0  0
 31 33  1  0  0  0  0
 32 31  1  0  0  0  0
 33 35  1  0  0  0  0
 33 36  1  0  0  0  0
 34 33  1  0  0  0  0
 37 36  1  0  0  0  0
M  END
>  <minimizedAffinity>
-6.0818615

$$$$

 OpenBabel03272502083D

 37 39  0  0  0  0  0  0  0  0999 V2000
   35.4350   28.2720   34.5360 F   0  0  0  0  0  0  0  0  0  0  0  0
   35.8970   28.6160   33.2900 C   0  0  0  0  0  0  0  0  0  0  0  0
   36.9980   28.0010   32.7190 C   0  0  0  0  0  0  0  0  0  0  0  0
   37.3930   28.3860   31.4550 C   0  0  0  0  0  0  0  0  0  0  0  0
   36.6950   29.3800   30.7610 C   0  0  0  0  0  0  0  0  0  0  0  0
   35.6060   29.9510   31.3930 C   0  0  0  0  0  0  0  0  0  0  0  0
   35.1860   29.6080   32.6220 C   0  0  0  0  0  0  0  0  0  0  0  0
   38.2690   27.8710   31.0450 H   0  0  0  0  0  0  0  0  0  0  0  0
   37.0430   29.6430   29.7770 H   0  0  0  0  0  0  0  0  0  0  0  0
   35.1260   30.7090   30.7850 H   0  0  0  0  0  0  0  0  0  0  0  0
   35.7320   32.0430   34.5110 Br  0  0  0  0  0  0  0  0  0  0  0  0
   34.0160   31.3590   34.0500 C   0  0  0  0  0  0  0  0  0  0  0  0
   34.0450   30.2650   33.2270 C   0  0  0  0  0  0  0  0  0  0  0  0
   32.8190   29.6770   32.8770 C   0  0  0  0  0  0  0  0  0  0  0  0
   31.6410   30.1810   33.3430 C   0  0  0  0  0  0  0  0  0  0  0  0
   31.6880   31.2840   34.1650 C   0  0  0  0  0  0  0  0  0  0  0  0
   32.8940   31.8950   34.5350 C   0  0  0  0  0  0  0  0  0  0  0  0
   32.7370   28.8130   32.2340 H   0  0  0  0  0  0  0  0  0  0  0  0
   30.6860   29.7420   33.0850 H   0  0  0  0  0  0  0  0  0  0  0  0
   30.7710   31.7230   34.5620 H   0  0  0  0  0  0  0  0  0  0  0  0
   33.0130   32.9900   35.3420 O   0  0  0  0  0  0  0  0  0  0  0  0
   32.2680   33.6690   35.3830 H   0  0  0  0  0  0  0  0  0  0  0  0
   38.5100   27.4400   34.5080 C   0  0  0  0  0  0  0  0  0  0  0  0
   37.6260   26.9980   33.5320 C   0  0  0  0  0  0  0  0  0  0  0  0
   37.4060   25.6350   33.4240 C   0  0  0  0  0  0  0  0  0  0  0  0
   38.0420   24.7720   34.2540 N   0  0  0  0  0  0  0  0  0  0  0  0
   38.8870   25.2350   35.1830 C   0  0  0  0  0  0  0  0  0  0  0  0
   39.1230   26.5310   35.3150 N   0  0  0  0  0  0  0  0  0  0  0  0
   38.7180   28.4940   34.6340 H   0  0  0  0  0  0  0  0  0  0  0  0
   36.7220   25.3320   32.6660 H   0  0  0  0  0  0  0  0  0  0  0  0
   39.5350   24.2960   36.0350 N   0  0  0  0  0  0  0  0  0  0  0  0
   40.5540   24.3510   36.2530 H   0  0  0  0  0  0  0  0  0  0  0  0
   38.7170   22.9790   36.7940 S   0  0  0  0  0  0  0  0  0  0  0  0
   37.3980   23.4560   37.3220 O   0  0  0  0  0  1  0  0  0  0  0  0
   38.4720   21.8380   35.8770 O   0  0  0  0  0  1  0  0  0  0  0  0
   39.6530   22.5150   38.1230 O   0  0  0  0  0  0  0  0  0  0  0  0
   40.3870   23.1660   38.3090 H   0  0  0  0  0  0  0  0  0  0  0  0
  2  1  1  0  0  0  0
  3  2  1  0  0  0  0
  3 24  1  0  0  0  0
  4  3  2  0  0  0  0
  5  6  2  0  0  0  0
  5  4  1  0  0  0  0
  6  7  1  0  0  0  0
  7 13  1  0  0  0  0
  7  2  2  0  0  0  0
  8  4  1  0  0  0  0
  9  5  1  0  0  0  0
 10  6  1  0  0  0  0
 12 11  1  0  0  0  0
 12 17  1  0  0  0  0
 13 12  2  0  0  0  0
 14 13  1  0  0  0  0
 14 15  2  0  0  0  0
 15 16  1  0  0  0  0
 16 17  2  0  0  0  0
 16 20  1  0  0  0  0
 17 21  1  0  0  0  0
 18 14  1  0  0  0  0
 19 15  1  0  0  0  0
 21 22  1  0  0  0  0
 23 29  1  0  0  0  0
 23 28  1  0  0  0  0
 24 23  2  0  0  0  0
 25 24  1  0  0  0  0
 25 26  2  0  0  0  0
 26 27  1  0  0  0  0
 27 28  2  0  0  0  0
 27 31  1  0  0  0  0
 30 25  1  0  0  0  0
 31 32  1  0  0  0  0
 31 33  1  0  0  0  0
 33 34  1  0  0  0  0
 33 36  1  0  0  0  0
 35 33  1  0  0  0  0
 36 37  1  0  0  0  0
M  END
>  <minimizedAffinity>
-6.0508976

$$$$

 OpenBabel03272502083D

 37 39  0  0  0  0  0  0  0  0999 V2000
   36.1830   23.5310   31.7420 F   0  0  0  0  0  0  0  0  0  0  0  0
   37.3300   23.4030   32.4850 C   0  0  0  0  0  0  0  0  0  0  0  0
   37.9100   24.4790   33.1340 C   0  0  0  0  0  0  0  0  0  0  0  0
   39.0510   24.2700   33.8790 C   0  0  0  0  0  0  0  0  0  0  0  0
   39.6150   22.9930   33.9770 C   0  0  0  0  0  0  0  0  0  0  0  0
   38.9840   21.9660   33.3020 C   0  0  0  0  0  0  0  0  0  0  0  0
   37.8710   22.1230   32.5660 C   0  0  0  0  0  0  0  0  0  0  0  0
   39.4740   25.1520   34.3730 H   0  0  0  0  0  0  0  0  0  0  0  0
   40.5070   22.8840   34.5710 H   0  0  0  0  0  0  0  0  0  0  0  0
   39.4860   21.0150   33.4330 H   0  0  0  0  0  0  0  0  0  0  0  0
   35.5750   20.5610   34.0110 Br  0  0  0  0  0  0  0  0  0  0  0  0
   36.2470   20.1870   32.2680 C   0  0  0  0  0  0  0  0  0  0  0  0
   37.2760   21.0000   31.8720 C   0  0  0  0  0  0  0  0  0  0  0  0
   37.8520   20.7580   30.6140 C   0  0  0  0  0  0  0  0  0  0  0  0
   37.3990   19.7480   29.8170 C   0  0  0  0  0  0  0  0  0  0  0  0
   36.3600   18.9740   30.2800 C   0  0  0  0  0  0  0  0  0  0  0  0
   35.7630   19.1870   31.5300 C   0  0  0  0  0  0  0  0  0  0  0  0
   38.6670   21.3420   30.2130 H   0  0  0  0  0  0  0  0  0  0  0  0
   37.8310   19.5460   28.8460 H   0  0  0  0  0  0  0  0  0  0  0  0
   35.9640   18.1550   29.6770 H   0  0  0  0  0  0  0  0  0  0  0  0
   34.7290   18.4600   32.0480 O   0  0  0  0  0  0  0  0  0  0  0  0
   34.0650   18.0180   31.4310 H   0  0  0  0  0  0  0  0  0  0  0  0
   37.1470   26.5670   34.0620 C   0  0  0  0  0  0  0  0  0  0  0  0
   37.2350   25.7340   32.9550 C   0  0  0  0  0  0  0  0  0  0  0  0
   36.6830   26.1750   31.7640 C   0  0  0  0  0  0  0  0  0  0  0  0
   36.0780   27.3870   31.6990 N   0  0  0  0  0  0  0  0  0  0  0  0
   36.0120   28.1630   32.7880 C   0  0  0  0  0  0  0  0  0  0  0  0
   36.5280   27.7740   33.9430 N   0  0  0  0  0  0  0  0  0  0  0  0
   37.5620   26.2700   35.0160 H   0  0  0  0  0  0  0  0  0  0  0  0
   36.7690   25.5110   30.9360 H   0  0  0  0  0  0  0  0  0  0  0  0
   35.3690   29.4280   32.6780 N   0  0  0  0  0  0  0  0  0  0  0  0
   34.6900   29.7730   33.3910 H   0  0  0  0  0  0  0  0  0  0  0  0
   35.6370   30.5200   31.3670 S   0  0  0  0  0  0  0  0  0  0  0  0
   34.3580   31.2360   31.0510 O   0  0  0  0  0  1  0  0  0  0  0  0
   36.6840   31.5320   31.6550 O   0  0  0  0  0  1  0  0  0  0  0  0
   36.0350   29.5830   30.0170 O   0  0  0  0  0  0  0  0  0  0  0  0
   35.8870   28.6100   30.1810 H   0  0  0  0  0  0  0  0  0  0  0  0
  1  2  1  0  0  0  0
  2  7  2  0  0  0  0
  2  3  1  0  0  0  0
  3  4  2  0  0  0  0
  4  5  1  0  0  0  0
  4  8  1  0  0  0  0
  5  9  1  0  0  0  0
  6 10  1  0  0  0  0
  6  5  2  0  0  0  0
  7  6  1  0  0  0  0
 12 11  1  0  0  0  0
 13 12  1  0  0  0  0
 13  7  1  0  0  0  0
 14 13  2  0  0  0  0
 15 16  2  0  0  0  0
 15 14  1  0  0  0  0
 16 17  1  0  0  0  0
 17 21  1  0  0  0  0
 17 12  2  0  0  0  0
 18 14  1  0  0  0  0
 19 15  1  0  0  0  0
 20 16  1  0  0  0  0
 22 21  1  0  0  0  0
 23 29  1  0  0  0  0
 24  3  1  0  0  0  0
 24 23  2  0  0  0  0
 25 24  1  0  0  0  0
 26 25  2  0  0  0  0
 26 27  1  0  0  0  0
 27 28  2  0  0  0  0
 28 23  1  0  0  0  0
 30 25  1  0  0  0  0
 31 27  1  0  0  0  0
 31 32  1  0  0  0  0
 33 35  1  0  0  0  0
 33 31  1  0  0  0  0
 34 33  1  0  0  0  0
 36 37  1  0  0  0  0
 36 33  1  0  0  0  0
M  END
>  <minimizedAffinity>
-5.85706663

$$$$

 OpenBabel03272502083D

 37 39  0  0  0  0  0  0  0  0999 V2000
   35.8650   27.9580   34.8500 F   0  0  0  0  0  0  0  0  0  0  0  0
   36.1250   28.6370   33.6860 C   0  0  0  0  0  0  0  0  0  0  0  0
   36.8230   28.0600   32.6390 C   0  0  0  0  0  0  0  0  0  0  0  0
   37.0290   28.7980   31.4930 C   0  0  0  0  0  0  0  0  0  0  0  0
   36.5440   30.1050   31.3880 C   0  0  0  0  0  0  0  0  0  0  0  0
   35.8560   30.6170   32.4730 C   0  0  0  0  0  0  0  0  0  0  0  0
   35.6310   29.9350   33.6080 C   0  0  0  0  0  0  0  0  0  0  0  0
   37.5880   28.2990   30.6920 H   0  0  0  0  0  0  0  0  0  0  0  0
   36.7310   30.6380   30.4710 H   0  0  0  0  0  0  0  0  0  0  0  0
   35.5160   31.6320   32.3060 H   0  0  0  0  0  0  0  0  0  0  0  0
   32.5460   29.4440   33.8040 Br  0  0  0  0  0  0  0  0  0  0  0  0
   33.5900   30.4560   35.0350 C   0  0  0  0  0  0  0  0  0  0  0  0
   34.9170   30.5460   34.7110 C   0  0  0  0  0  0  0  0  0  0  0  0
   35.7430   31.3130   35.5490 C   0  0  0  0  0  0  0  0  0  0  0  0
   35.2380   31.9430   36.6470 C   0  0  0  0  0  0  0  0  0  0  0  0
   33.8940   31.8060   36.9110 C   0  0  0  0  0  0  0  0  0  0  0  0
   33.0410   31.0500   36.0960 C   0  0  0  0  0  0  0  0  0  0  0  0
   36.8020   31.4450   35.3790 H   0  0  0  0  0  0  0  0  0  0  0  0
   35.8580   32.5380   37.3040 H   0  0  0  0  0  0  0  0  0  0  0  0
   33.4450   32.2910   37.7790 H   0  0  0  0  0  0  0  0  0  0  0  0
   31.7030   30.8700   36.3010 O   0  0  0  0  0  0  0  0  0  0  0  0
   31.3280   30.9040   37.2370 H   0  0  0  0  0  0  0  0  0  0  0  0
   36.5680   25.7000   32.2340 C   0  0  0  0  0  0  0  0  0  0  0  0
   37.2680   26.7150   32.8710 C   0  0  0  0  0  0  0  0  0  0  0  0
   38.3440   26.3610   33.6690 C   0  0  0  0  0  0  0  0  0  0  0  0
   38.6890   25.0570   33.8100 N   0  0  0  0  0  0  0  0  0  0  0  0
   37.9900   24.1060   33.1780 C   0  0  0  0  0  0  0  0  0  0  0  0
   36.9560   24.4070   32.4100 N   0  0  0  0  0  0  0  0  0  0  0  0
   35.7190   25.9220   31.6000 H   0  0  0  0  0  0  0  0  0  0  0  0
   38.8580   27.1640   34.1420 H   0  0  0  0  0  0  0  0  0  0  0  0
   38.3850   22.7490   33.3530 N   0  0  0  0  0  0  0  0  0  0  0  0
   37.6970   21.9870   33.5390 H   0  0  0  0  0  0  0  0  0  0  0  0
   40.0280   22.2200   33.2780 S   0  0  0  0  0  0  0  0  0  0  0  0
   40.5630   22.0720   34.6710 O   0  0  0  0  0  1  0  0  0  0  0  0
   40.1920   20.9260   32.5710 O   0  0  0  0  0  1  0  0  0  0  0  0
   40.9090   23.4530   32.5290 O   0  0  0  0  0  0  0  0  0  0  0  0
   40.3710   24.2870   32.4230 H   0  0  0  0  0  0  0  0  0  0  0  0
  2  1  1  0  0  0  0
  3 24  1  0  0  0  0
  3  2  2  0  0  0  0
  4  3  1  0  0  0  0
  5  4  2  0  0  0  0
  5  6  1  0  0  0  0
  6  7  2  0  0  0  0
  7  2  1  0  0  0  0
  7 13  1  0  0  0  0
  8  4  1  0  0  0  0
  9  5  1  0  0  0  0
 10  6  1  0  0  0  0
 11 12  1  0  0  0  0
 12 17  1  0  0  0  0
 13 12  2  0  0  0  0
 13 14  1  0  0  0  0
 14 15  2  0  0  0  0
 15 16  1  0  0  0  0
 15 19  1  0  0  0  0
 16 20  1  0  0  0  0
 17 21  1  0  0  0  0
 17 16  2  0  0  0  0
 18 14  1  0  0  0  0
 21 22  1  0  0  0  0
 23 28  2  0  0  0  0
 23 24  1  0  0  0  0
 24 25  2  0  0  0  0
 25 26  1  0  0  0  0
 25 30  1  0  0  0  0
 27 31  1  0  0  0  0
 27 26  2  0  0  0  0
 28 27  1  0  0  0  0
 29 23  1  0  0  0  0
 31 32  1  0  0  0  0
 33 31  1  0  0  0  0
 33 34  1  0  0  0  0
 35 33  1  0  0  0  0
 36 33  1  0  0  0  0
 37 36  1  0  0  0  0
M  END
>  <minimizedAffinity>
-5.80600071

$$$$

 OpenBabel03272502083D

 37 39  0  0  0  0  0  0  0  0999 V2000
   35.3750   28.6330   34.1730 F   0  0  0  0  0  0  0  0  0  0  0  0
   35.2350   29.5550   33.1660 C   0  0  0  0  0  0  0  0  0  0  0  0
   35.7050   29.3220   31.8850 C   0  0  0  0  0  0  0  0  0  0  0  0
   35.5120   30.2880   30.9200 C   0  0  0  0  0  0  0  0  0  0  0  0
   34.8540   31.4830   31.2290 C   0  0  0  0  0  0  0  0  0  0  0  0
   34.4120   31.6490   32.5280 C   0  0  0  0  0  0  0  0  0  0  0  0
   34.5790   30.7360   33.5000 C   0  0  0  0  0  0  0  0  0  0  0  0
   35.9010   30.0570   29.9220 H   0  0  0  0  0  0  0  0  0  0  0  0
   34.7280   32.2040   30.4390 H   0  0  0  0  0  0  0  0  0  0  0  0
   33.9150   32.5990   32.6780 H   0  0  0  0  0  0  0  0  0  0  0  0
   36.3260   32.5580   35.3500 Br  0  0  0  0  0  0  0  0  0  0  0  0
   34.6580   31.7690   35.8230 C   0  0  0  0  0  0  0  0  0  0  0  0
   34.1040   30.9890   34.8440 C   0  0  0  0  0  0  0  0  0  0  0  0
   32.8930   30.3380   35.1350 C   0  0  0  0  0  0  0  0  0  0  0  0
   32.2940   30.4820   36.3510 C   0  0  0  0  0  0  0  0  0  0  0  0
   32.9080   31.2850   37.2860 C   0  0  0  0  0  0  0  0  0  0  0  0
   34.1160   31.9470   37.0290 C   0  0  0  0  0  0  0  0  0  0  0  0
   32.3770   29.7020   34.4310 H   0  0  0  0  0  0  0  0  0  0  0  0
   31.3620   29.9890   36.5940 H   0  0  0  0  0  0  0  0  0  0  0  0
   32.4650   31.4310   38.2720 H   0  0  0  0  0  0  0  0  0  0  0  0
   34.7760   32.7580   37.9070 O   0  0  0  0  0  0  0  0  0  0  0  0
   34.2610   33.2630   38.6120 H   0  0  0  0  0  0  0  0  0  0  0  0
   35.5500   26.9420   31.5420 C   0  0  0  0  0  0  0  0  0  0  0  0
   36.3620   28.0590   31.6980 C   0  0  0  0  0  0  0  0  0  0  0  0
   37.7340   27.8760   31.6490 C   0  0  0  0  0  0  0  0  0  0  0  0
   38.2520   26.6380   31.4540 N   0  0  0  0  0  0  0  0  0  0  0  0
   37.4370   25.5860   31.3070 C   0  0  0  0  0  0  0  0  0  0  0  0
   36.1210   25.7220   31.3490 N   0  0  0  0  0  0  0  0  0  0  0  0
   34.4720   27.0300   31.5720 H   0  0  0  0  0  0  0  0  0  0  0  0
   38.3250   28.7530   31.7720 H   0  0  0  0  0  0  0  0  0  0  0  0
   38.0210   24.3030   31.1040 N   0  0  0  0  0  0  0  0  0  0  0  0
   37.6910   23.4530   31.6110 H   0  0  0  0  0  0  0  0  0  0  0  0
   39.3240   24.0150   30.0080 S   0  0  0  0  0  0  0  0  0  0  0  0
   40.6250   24.1650   30.7380 O   0  0  0  0  0  1  0  0  0  0  0  0
   39.2820   22.6640   29.3940 O   0  0  0  0  0  1  0  0  0  0  0  0
   39.2620   25.2310   28.8360 O   0  0  0  0  0  0  0  0  0  0  0  0
   38.6140   25.9510   29.0780 H   0  0  0  0  0  0  0  0  0  0  0  0
  2  7  1  0  0  0  0
  2  1  1  0  0  0  0
  3  2  2  0  0  0  0
  4  5  2  0  0  0  0
  4  3  1  0  0  0  0
  5  6  1  0  0  0  0
  6 10  1  0  0  0  0
  6  7  2  0  0  0  0
  7 13  1  0  0  0  0
  8  4  1  0  0  0  0
  9  5  1  0  0  0  0
 11 12  1  0  0  0  0
 12 17  1  0  0  0  0
 13 14  1  0  0  0  0
 13 12  2  0  0  0  0
 14 15  2  0  0  0  0
 15 19  1  0  0  0  0
 15 16  1  0  0  0  0
 16 20  1  0  0  0  0
 17 16  2  0  0  0  0
 17 21  1  0  0  0  0
 18 14  1  0  0  0  0
 21 22  1  0  0  0  0
 23 29  1  0  0  0  0
 23 24  1  0  0  0  0
 24  3  1  0  0  0  0
 25 24  2  0  0  0  0
 25 30  1  0  0  0  0
 26 25  1  0  0  0  0
 27 28  1  0  0  0  0
 27 26  2  0  0  0  0
 28 23  2  0  0  0  0
 31 27  1  0  0  0  0
 31 32  1  0  0  0  0
 33 34  1  0  0  0  0
 33 31  1  0  0  0  0
 35 33  1  0  0  0  0
 36 37  1  0  0  0  0
 36 33  1  0  0  0  0
M  END
>  <minimizedAffinity>
-5.79154539

$$$$

 OpenBabel03272502083D

 37 39  0  0  0  0  0  0  0  0999 V2000
   36.5980   26.8570   34.5090 F   0  0  0  0  0  0  0  0  0  0  0  0
   37.1000   27.1910   33.2770 C   0  0  0  0  0  0  0  0  0  0  0  0
   36.6950   28.3290   32.6020 C   0  0  0  0  0  0  0  0  0  0  0  0
   37.2580   28.6100   31.3750 C   0  0  0  0  0  0  0  0  0  0  0  0
   38.2210   27.7610   30.8210 C   0  0  0  0  0  0  0  0  0  0  0  0
   38.5780   26.6420   31.5500 C   0  0  0  0  0  0  0  0  0  0  0  0
   38.0560   26.3290   32.7480 C   0  0  0  0  0  0  0  0  0  0  0  0
   36.9050   29.5220   30.8790 H   0  0  0  0  0  0  0  0  0  0  0  0
   38.6310   28.0260   29.8600 H   0  0  0  0  0  0  0  0  0  0  0  0
   39.3280   26.0430   31.0480 H   0  0  0  0  0  0  0  0  0  0  0  0
   40.4640   26.5420   34.7360 Br  0  0  0  0  0  0  0  0  0  0  0  0
   39.4550   24.9670   34.3790 C   0  0  0  0  0  0  0  0  0  0  0  0
   38.4670   25.1280   33.4450 C   0  0  0  0  0  0  0  0  0  0  0  0
   37.7070   23.9990   33.0970 C   0  0  0  0  0  0  0  0  0  0  0  0
   37.9470   22.7860   33.6730 C   0  0  0  0  0  0  0  0  0  0  0  0
   38.9550   22.7010   34.6060 C   0  0  0  0  0  0  0  0  0  0  0  0
   39.7330   23.8060   34.9750 C   0  0  0  0  0  0  0  0  0  0  0  0
   36.9060   24.0230   32.3710 H   0  0  0  0  0  0  0  0  0  0  0  0
   37.3730   21.9060   33.4170 H   0  0  0  0  0  0  0  0  0  0  0  0
   39.1830   21.7520   35.0940 H   0  0  0  0  0  0  0  0  0  0  0  0
   40.7430   23.7920   35.8930 O   0  0  0  0  0  0  0  0  0  0  0  0
   40.7260   23.1270   36.6520 H   0  0  0  0  0  0  0  0  0  0  0  0
   34.4200   29.1100   32.7410 C   0  0  0  0  0  0  0  0  0  0  0  0
   35.7010   29.1160   33.2770 C   0  0  0  0  0  0  0  0  0  0  0  0
   35.9240   29.8650   34.4210 C   0  0  0  0  0  0  0  0  0  0  0  0
   34.9090   30.5640   34.9870 N   0  0  0  0  0  0  0  0  0  0  0  0
   33.6860   30.5320   34.4430 C   0  0  0  0  0  0  0  0  0  0  0  0
   33.4370   29.8290   33.3500 N   0  0  0  0  0  0  0  0  0  0  0  0
   34.1930   28.5420   31.8480 H   0  0  0  0  0  0  0  0  0  0  0  0
   36.9170   29.8470   34.8040 H   0  0  0  0  0  0  0  0  0  0  0  0
   32.6490   31.2800   35.0690 N   0  0  0  0  0  0  0  0  0  0  0  0
   31.9840   31.8740   34.5270 H   0  0  0  0  0  0  0  0  0  0  0  0
   32.3770   31.2850   36.7740 S   0  0  0  0  0  0  0  0  0  0  0  0
   31.2790   32.2530   37.0960 O   0  0  0  0  0  1  0  0  0  0  0  0
   32.0030   29.9520   37.3100 O   0  0  0  0  0  1  0  0  0  0  0  0
   33.7900   31.8690   37.4970 O   0  0  0  0  0  0  0  0  0  0  0  0
   34.4280   32.2390   36.8260 H   0  0  0  0  0  0  0  0  0  0  0  0
  2  1  1  0  0  0  0
  3  2  2  0  0  0  0
  3 24  1  0  0  0  0
  4  3  1  0  0  0  0
  5  4  2  0  0  0  0
  5  6  1  0  0  0  0
  6  7  2  0  0  0  0
  7  2  1  0  0  0  0
  7 13  1  0  0  0  0
  8  4  1  0  0  0  0
  9  5  1  0  0  0  0
 10  6  1  0  0  0  0
 12 11  1  0  0  0  0
 12 17  1  0  0  0  0
 13 12  2  0  0  0  0
 14 13  1  0  0  0  0
 14 15  2  0  0  0  0
 15 16  1  0  0  0  0
 16 17  2  0  0  0  0
 16 20  1  0  0  0  0
 17 21  1  0  0  0  0
 18 14  1  0  0  0  0
 19 15  1  0  0  0  0
 21 22  1  0  0  0  0
 23 24  2  0  0  0  0
 23 28  1  0  0  0  0
 24 25  1  0  0  0  0
 25 30  1  0  0  0  0
 25 26  2  0  0  0  0
 27 26  1  0  0  0  0
 27 31  1  0  0  0  0
 28 27  2  0  0  0  0
 29 23  1  0  0  0  0
 31 33  1  0  0  0  0
 32 31  1  0  0  0  0
 33 34  1  0  0  0  0
 33 35  1  0  0  0  0
 33 36  1  0  0  0  0
 37 36  1  0  0  0  0
M  END
>  <minimizedAffinity>
-5.74471092

$$$$
