
 OpenBabel03272503063D

 30 31  0  0  0  0  0  0  0  0999 V2000
   38.0150   30.0690   47.2370 F   0  0  0  0  0  0  0  0  0  0  0  0
   38.4550   31.2910   47.6250 C   0  0  0  0  0  0  0  0  0  0  0  0
   38.1300   31.7880   48.8620 C   0  0  0  0  0  0  0  0  0  0  0  0
   38.6090   33.0230   49.1850 C   0  0  0  0  0  0  0  0  0  0  0  0
   39.3890   33.7680   48.3280 C   0  0  0  0  0  0  0  0  0  0  0  0
   39.7050   33.2540   47.0900 C   0  0  0  0  0  0  0  0  0  0  0  0
   39.2380   32.0050   46.7290 C   0  0  0  0  0  0  0  0  0  0  0  0
   38.3570   33.4190   50.1570 H   0  0  0  0  0  0  0  0  0  0  0  0
   39.7740   34.7490   48.5720 H   0  0  0  0  0  0  0  0  0  0  0  0
   40.3150   33.7480   46.3240 H   0  0  0  0  0  0  0  0  0  0  0  0
   36.9300   29.6220   51.7220 C   0  0  0  0  0  0  0  0  0  0  0  0
   37.7580   30.4140   50.9190 C   0  0  0  0  0  0  0  0  0  0  0  0
   37.3030   30.9570   49.7280 C   0  0  0  0  0  0  0  0  0  0  0  0
   36.0030   30.6680   49.3960 N   0  0  0  0  0  0  0  0  0  0  0  0
   35.2220   29.9060   50.1780 C   0  0  0  0  0  0  0  0  0  0  0  0
   35.6770   29.3880   51.3250 N   0  0  0  0  0  0  0  0  0  0  0  0
   37.3530   29.2430   52.6190 H   0  0  0  0  0  0  0  0  0  0  0  0
   38.7880   30.6250   51.2130 H   0  0  0  0  0  0  0  0  0  0  0  0
   34.1880   29.6870   49.8950 H   0  0  0  0  0  0  0  0  0  0  0  0
   38.6240   31.7970   44.4220 C   0  0  0  0  0  0  0  0  0  0  0  0
   37.6520   32.5210   44.8020 O   0  0  0  0  0  0  0  0  0  0  0  0
   39.5420   31.4290   45.4500 N   0  0  0  0  0  0  0  0  0  0  0  0
   40.3170   30.7950   45.1680 H   0  0  0  0  0  0  0  0  0  0  0  0
   38.7610   31.3980   43.0620 N   0  0  0  0  0  0  0  0  0  0  0  0
   38.0420   31.7130   42.3650 H   0  0  0  0  0  0  0  0  0  0  0  0
   40.0670   30.4150   42.5000 S   0  0  0  0  0  0  0  0  0  0  0  0
   40.6550   31.0210   41.2850 O   0  0  0  0  0  1  0  0  0  0  0  0
   39.5690   29.0290   42.1530 O   0  0  0  0  0  1  0  0  0  0  0  0
   41.1820   30.2240   43.7480 O   0  0  0  0  0  0  0  0  0  0  0  0
   42.1100   30.1430   43.4040 H   0  0  0  0  0  0  0  0  0  0  0  0
  1  2  1  0  0  0  0
  2  3  1  0  0  0  0
  3  4  2  0  0  0  0
  3 13  1  0  0  0  0
  4  8  1  0  0  0  0
  5  9  1  0  0  0  0
  5  4  1  0  0  0  0
  6  5  2  0  0  0  0
  7  6  1  0  0  0  0
  7  2  2  0  0  0  0
 10  6  1  0  0  0  0
 11 17  1  0  0  0  0
 12 18  1  0  0  0  0
 12 11  2  0  0  0  0
 13 12  1  0  0  0  0
 14 13  2  0  0  0  0
 14 15  1  0  0  0  0
 15 16  2  0  0  0  0
 16 11  1  0  0  0  0
 19 15  1  0  0  0  0
 20 21  2  0  0  0  0
 20 22  1  0  0  0  0
 22  7  1  0  0  0  0
 23 22  1  0  0  0  0
 24 20  1  0  0  0  0
 25 24  1  0  0  0  0
 26 24  1  0  0  0  0
 26 29  1  0  0  0  0
 27 26  1  0  0  0  0
 28 26  1  0  0  0  0
 30 29  1  0  0  0  0
M  END
>  <minimizedAffinity>
-6.33279037

>  <minimizedRMSD>
0.755435467

$$$$
