
 OpenBabel03262523423D

 26 27  0  0  0  0  0  0  0  0999 V2000
   38.0100   33.3210   49.4440 Cl  0  0  0  0  0  0  0  0  0  0  0  0
   38.4890   32.3620   48.0780 C   0  0  0  0  0  0  0  0  0  0  0  0
   38.0510   31.0690   47.9510 C   0  0  0  0  0  0  0  0  0  0  0  0
   38.4760   30.3650   46.8320 C   0  0  0  0  0  0  0  0  0  0  0  0
   39.2930   30.9110   45.8820 C   0  0  0  0  0  0  0  0  0  0  0  0
   39.7190   32.2230   46.0370 C   0  0  0  0  0  0  0  0  0  0  0  0
   40.7590   32.9090   44.8210 Cl  0  0  0  0  0  0  0  0  0  0  0  0
   39.3210   32.9420   47.1250 C   0  0  0  0  0  0  0  0  0  0  0  0
   38.1120   29.3490   46.7630 H   0  0  0  0  0  0  0  0  0  0  0  0
   39.6790   33.9650   47.2080 H   0  0  0  0  0  0  0  0  0  0  0  0
   36.8740   29.4300   51.1480 C   0  0  0  0  0  0  0  0  0  0  0  0
   37.7110   29.9450   50.1490 C   0  0  0  0  0  0  0  0  0  0  0  0
   37.1860   30.5340   48.9890 C   0  0  0  0  0  0  0  0  0  0  0  0
   35.8410   30.5710   48.9030 N   0  0  0  0  0  0  0  0  0  0  0  0
   35.0390   30.0780   49.8590 C   0  0  0  0  0  0  0  0  0  0  0  0
   35.5420   29.5180   50.9620 N   0  0  0  0  0  0  0  0  0  0  0  0
   37.3350   28.9850   52.0260 H   0  0  0  0  0  0  0  0  0  0  0  0
   38.7970   29.9240   50.2040 H   0  0  0  0  0  0  0  0  0  0  0  0
   33.9570   30.1250   49.7570 H   0  0  0  0  0  0  0  0  0  0  0  0
   39.7230   30.1890   44.7400 N   0  0  0  0  0  0  0  0  0  0  0  0
   40.7360   30.0560   44.5330 H   0  0  0  0  0  0  0  0  0  0  0  0
   38.8790   29.3900   43.4720 S   0  0  0  0  0  0  0  0  0  0  0  0
   39.1800   27.9170   43.4390 O   0  0  0  0  0  0  0  0  0  0  0  0
   37.4090   29.6600   43.4670 O   0  0  0  0  0  0  0  0  0  0  0  0
   39.4670   29.9970   41.9970 O   0  0  0  0  0  0  0  0  0  0  0  0
   38.8830   29.5860   41.3070 H   0  0  0  0  0  0  0  0  0  0  0  0
  2  1  1  0  0  0  0
  3  2  1  0  0  0  0
  3 13  1  0  0  0  0
  4  3  2  0  0  0  0
  5  6  2  0  0  0  0
  5  4  1  0  0  0  0
  6  8  1  0  0  0  0
  7  6  1  0  0  0  0
  8 10  1  0  0  0  0
  8  2  2  0  0  0  0
  9  4  1  0  0  0  0
 11 17  1  0  0  0  0
 12 18  1  0  0  0  0
 12 11  2  0  0  0  0
 13 12  1  0  0  0  0
 14 13  2  0  0  0  0
 14 15  1  0  0  0  0
 15 16  2  0  0  0  0
 16 11  1  0  0  0  0
 19 15  1  0  0  0  0
 20  5  1  0  0  0  0
 21 20  1  0  0  0  0
 22 20  1  0  0  0  0
 23 22  1  0  0  0  0
 24 22  1  0  0  0  0
 25 22  1  0  0  0  0
 26 25  1  0  0  0  0
M  END
>  <minimizedAffinity>
-5.93371391

>  <minimizedRMSD>
0.391628027

$$$$
