
 OpenBabel03272505563D

 32 33  0  0  1  0  0  0  0  0999 V2000
   37.9710   26.2430   33.4230 C   0  0  2  0  0  0  0  0  0  0  0  0
   38.9620   25.4830   34.2790 C   0  0  0  0  0  0  0  0  0  0  0  0
   38.6560   25.5520   35.7380 C   0  0  1  0  0  0  0  0  0  0  0  0
   38.4640   26.9460   36.2610 C   0  0  0  0  0  0  0  0  0  0  0  0
   37.7650   27.8650   35.3060 C   0  0  0  0  0  0  0  0  0  0  0  0
   37.0450   27.1030   34.2100 C   0  0  0  0  0  0  0  0  0  0  0  0
   38.5750   26.8570   32.7290 H   0  0  0  0  0  0  0  0  0  0  0  0
   38.9280   24.4240   33.9900 H   0  0  0  0  0  0  0  0  0  0  0  0
   39.9960   25.8380   34.1480 H   0  0  0  0  0  0  0  0  0  0  0  0
   39.5760   25.1540   36.2560 H   0  0  0  0  0  0  0  0  0  0  0  0
   39.4260   27.3830   36.6410 H   0  0  0  0  0  0  0  0  0  0  0  0
   37.8300   26.8650   37.1720 H   0  0  0  0  0  0  0  0  0  0  0  0
   36.9900   28.4890   35.7890 H   0  0  0  0  0  0  0  0  0  0  0  0
   38.5540   28.4730   34.7980 H   0  0  0  0  0  0  0  0  0  0  0  0
   36.6370   27.8620   33.4990 H   0  0  0  0  0  0  0  0  0  0  0  0
   36.1560   26.5680   34.5970 H   0  0  0  0  0  0  0  0  0  0  0  0
   37.1480   25.2890   32.6250 C   0  0  0  0  0  0  0  0  0  0  0  0
   36.2080   25.8620   31.7510 C   0  0  0  0  0  0  0  0  0  0  0  0
   35.4230   24.9600   31.0040 C   0  0  0  0  0  0  0  0  0  0  0  0
   35.6150   23.6220   31.1660 N   0  0  0  0  0  0  0  0  0  0  0  0
   36.5330   23.1130   32.0210 C   0  0  0  0  0  0  0  0  0  0  0  0
   37.2890   23.9490   32.7400 N   0  0  0  0  0  0  0  0  0  0  0  0
   36.0140   26.8930   31.5870 H   0  0  0  0  0  0  0  0  0  0  0  0
   34.6750   25.2850   30.3070 H   0  0  0  0  0  0  0  0  0  0  0  0
   36.5990   22.0360   32.0700 H   0  0  0  0  0  0  0  0  0  0  0  0
   37.5870   24.6570   36.1130 N   0  0  0  0  0  0  0  0  0  0  0  0
   37.4360   24.0010   35.3170 H   0  0  0  0  0  0  0  0  0  0  0  0
   38.1180   23.6520   37.4410 S   0  0  0  0  0  0  0  0  0  0  0  0
   38.0370   24.4920   38.6860 O   0  0  0  0  0  1  0  0  0  0  0  0
   39.5580   23.2520   37.2660 O   0  0  0  0  0  1  0  0  0  0  0  0
   37.1150   22.3460   37.6330 O   0  0  0  0  0  0  0  0  0  0  0  0
   37.5080   21.4690   37.4510 H   0  0  0  0  0  0  0  0  0  0  0  0
  1  7  1  6  0  0  0
  1  6  1  0  0  0  0
  1  2  1  0  0  0  0
  2  3  1  0  0  0  0
  3 26  1  0  0  0  0
  3 10  1  1  0  0  0
  3  4  1  0  0  0  0
  4 11  1  0  0  0  0
  4 12  1  0  0  0  0
  5 13  1  0  0  0  0
  5  4  1  0  0  0  0
  6 16  1  0  0  0  0
  6  5  1  0  0  0  0
  8  2  1  0  0  0  0
  9  2  1  0  0  0  0
 14  5  1  0  0  0  0
 15  6  1  0  0  0  0
 17 22  1  0  0  0  0
 17  1  1  0  0  0  0
 18 17  2  0  0  0  0
 19 20  2  0  0  0  0
 19 18  1  0  0  0  0
 20 21  1  0  0  0  0
 21 25  1  0  0  0  0
 21 22  2  0  0  0  0
 23 18  1  0  0  0  0
 24 19  1  0  0  0  0
 26 28  1  0  0  0  0
 27 26  1  0  0  0  0
 28 31  1  0  0  0  0
 28 29  1  0  0  0  0
 30 28  1  0  0  0  0
 32 31  1  0  0  0  0
M  END
>  <minimizedAffinity>
-5.02064705

$$$$

 OpenBabel03272505563D

 32 33  0  0  1  0  0  0  0  0999 V2000
   37.9610   26.2290   33.4240 C   0  0  2  0  0  0  0  0  0  0  0  0
   38.9490   25.4360   34.2530 C   0  0  0  0  0  0  0  0  0  0  0  0
   38.6670   25.4930   35.7180 C   0  0  1  0  0  0  0  0  0  0  0  0
   38.5150   26.8830   36.2630 C   0  0  0  0  0  0  0  0  0  0  0  0
   37.8220   27.8310   35.3310 C   0  0  0  0  0  0  0  0  0  0  0  0
   37.0670   27.1000   34.2380 C   0  0  0  0  0  0  0  0  0  0  0  0
   38.5670   26.8390   32.7290 H   0  0  0  0  0  0  0  0  0  0  0  0
   38.8860   24.3830   33.9510 H   0  0  0  0  0  0  0  0  0  0  0  0
   39.9880   25.7710   34.1100 H   0  0  0  0  0  0  0  0  0  0  0  0
   39.5870   25.0680   36.2160 H   0  0  0  0  0  0  0  0  0  0  0  0
   39.4930   27.2940   36.6320 H   0  0  0  0  0  0  0  0  0  0  0  0
   37.8940   26.8050   37.1830 H   0  0  0  0  0  0  0  0  0  0  0  0
   37.0680   28.4650   35.8350 H   0  0  0  0  0  0  0  0  0  0  0  0
   38.6150   28.4280   34.8180 H   0  0  0  0  0  0  0  0  0  0  0  0
   36.6640   27.8770   33.5430 H   0  0  0  0  0  0  0  0  0  0  0  0
   36.1720   26.5800   34.6320 H   0  0  0  0  0  0  0  0  0  0  0  0
   37.1040   25.3050   32.6280 C   0  0  0  0  0  0  0  0  0  0  0  0
   37.4420   23.9410   32.6860 C   0  0  0  0  0  0  0  0  0  0  0  0
   36.6380   23.0670   31.9250 C   0  0  0  0  0  0  0  0  0  0  0  0
   35.6080   23.5800   31.1980 N   0  0  0  0  0  0  0  0  0  0  0  0
   35.3170   24.9020   31.1700 C   0  0  0  0  0  0  0  0  0  0  0  0
   36.0660   25.7500   31.8840 N   0  0  0  0  0  0  0  0  0  0  0  0
   38.2330   23.4880   33.2320 H   0  0  0  0  0  0  0  0  0  0  0  0
   36.8030   22.0080   31.8950 H   0  0  0  0  0  0  0  0  0  0  0  0
   34.4780   25.1980   30.5590 H   0  0  0  0  0  0  0  0  0  0  0  0
   37.5850   24.6170   36.0990 N   0  0  0  0  0  0  0  0  0  0  0  0
   37.0900   24.3350   35.2260 H   0  0  0  0  0  0  0  0  0  0  0  0
   38.2460   23.1350   36.7500 S   0  0  0  0  0  0  0  0  0  0  0  0
   39.7290   23.3420   36.8890 O   0  0  0  0  0  1  0  0  0  0  0  0
   38.0430   21.9930   35.7910 O   0  0  0  0  0  1  0  0  0  0  0  0
   37.6260   22.8200   38.2540 O   0  0  0  0  0  0  0  0  0  0  0  0
   37.0580   22.0270   38.3290 H   0  0  0  0  0  0  0  0  0  0  0  0
  1  7  1  6  0  0  0
  1  6  1  0  0  0  0
  1  2  1  0  0  0  0
  2  3  1  0  0  0  0
  3 26  1  0  0  0  0
  3 10  1  1  0  0  0
  3  4  1  0  0  0  0
  4 11  1  0  0  0  0
  4 12  1  0  0  0  0
  5 13  1  0  0  0  0
  5  4  1  0  0  0  0
  6 16  1  0  0  0  0
  6  5  1  0  0  0  0
  8  2  1  0  0  0  0
  9  2  1  0  0  0  0
 14  5  1  0  0  0  0
 15  6  1  0  0  0  0
 17 18  1  0  0  0  0
 17  1  1  0  0  0  0
 18 23  1  0  0  0  0
 19 18  2  0  0  0  0
 20 19  1  0  0  0  0
 21 20  2  0  0  0  0
 21 22  1  0  0  0  0
 22 17  2  0  0  0  0
 24 19  1  0  0  0  0
 25 21  1  0  0  0  0
 26 28  1  0  0  0  0
 27 26  1  0  0  0  0
 28 29  1  0  0  0  0
 28 31  1  0  0  0  0
 30 28  1  0  0  0  0
 31 32  1  0  0  0  0
M  END
>  <minimizedAffinity>
-4.84425879

$$$$

 OpenBabel03272505563D

 32 33  0  0  1  0  0  0  0  0999 V2000
   37.9820   25.9640   33.4140 C   0  0  2  0  0  0  0  0  0  0  0  0
   39.1610   25.3990   34.1770 C   0  0  0  0  0  0  0  0  0  0  0  0
   39.0000   25.4890   35.6590 C   0  0  1  0  0  0  0  0  0  0  0  0
   38.6540   26.8600   36.1590 C   0  0  0  0  0  0  0  0  0  0  0  0
   37.7280   27.6220   35.2600 C   0  0  0  0  0  0  0  0  0  0  0  0
   37.0220   26.7130   34.2730 C   0  0  0  0  0  0  0  0  0  0  0  0
   38.4090   26.6290   32.6410 H   0  0  0  0  0  0  0  0  0  0  0  0
   39.2580   24.3360   33.9250 H   0  0  0  0  0  0  0  0  0  0  0  0
   40.1090   25.8980   33.9230 H   0  0  0  0  0  0  0  0  0  0  0  0
   40.0200   25.2560   36.0840 H   0  0  0  0  0  0  0  0  0  0  0  0
   39.5730   27.4530   36.4180 H   0  0  0  0  0  0  0  0  0  0  0  0
   38.1380   26.7280   37.1370 H   0  0  0  0  0  0  0  0  0  0  0  0
   36.9210   28.1450   35.8070 H   0  0  0  0  0  0  0  0  0  0  0  0
   38.3570   28.3160   34.6510 H   0  0  0  0  0  0  0  0  0  0  0  0
   36.4310   27.3700   33.5890 H   0  0  0  0  0  0  0  0  0  0  0  0
   36.2700   26.0700   34.7710 H   0  0  0  0  0  0  0  0  0  0  0  0
   37.2350   24.8640   32.7400 C   0  0  0  0  0  0  0  0  0  0  0  0
   36.2460   25.2580   31.8200 C   0  0  0  0  0  0  0  0  0  0  0  0
   35.5330   24.2170   31.1890 C   0  0  0  0  0  0  0  0  0  0  0  0
   35.8340   22.9260   31.4980 N   0  0  0  0  0  0  0  0  0  0  0  0
   36.7950   22.5910   32.3910 C   0  0  0  0  0  0  0  0  0  0  0  0
   37.4850   23.5610   33.0010 N   0  0  0  0  0  0  0  0  0  0  0  0
   35.9690   26.2450   31.5450 H   0  0  0  0  0  0  0  0  0  0  0  0
   34.7580   24.4000   30.4710 H   0  0  0  0  0  0  0  0  0  0  0  0
   36.9500   21.5360   32.5590 H   0  0  0  0  0  0  0  0  0  0  0  0
   38.1260   24.4630   36.1750 N   0  0  0  0  0  0  0  0  0  0  0  0
   37.5320   24.1320   35.3840 H   0  0  0  0  0  0  0  0  0  0  0  0
   39.0790   23.0750   36.6430 S   0  0  0  0  0  0  0  0  0  0  0  0
   40.5200   23.4280   36.3910 O   0  0  0  0  0  1  0  0  0  0  0  0
   38.7550   21.8870   35.7770 O   0  0  0  0  0  1  0  0  0  0  0  0
   38.9030   22.7510   38.2590 O   0  0  0  0  0  0  0  0  0  0  0  0
   38.4580   21.9100   38.4840 H   0  0  0  0  0  0  0  0  0  0  0  0
  1  7  1  6  0  0  0
  1  2  1  0  0  0  0
  1  6  1  0  0  0  0
  2  3  1  0  0  0  0
  3 10  1  1  0  0  0
  3  4  1  0  0  0  0
  3 26  1  0  0  0  0
  4 11  1  0  0  0  0
  4 12  1  0  0  0  0
  5 13  1  0  0  0  0
  5  4  1  0  0  0  0
  6 16  1  0  0  0  0
  6  5  1  0  0  0  0
  8  2  1  0  0  0  0
  9  2  1  0  0  0  0
 14  5  1  0  0  0  0
 15  6  1  0  0  0  0
 17 22  1  0  0  0  0
 17  1  1  0  0  0  0
 18 17  2  0  0  0  0
 19 20  2  0  0  0  0
 19 18  1  0  0  0  0
 20 21  1  0  0  0  0
 21 25  1  0  0  0  0
 21 22  2  0  0  0  0
 23 18  1  0  0  0  0
 24 19  1  0  0  0  0
 26 28  1  0  0  0  0
 27 26  1  0  0  0  0
 28 31  1  0  0  0  0
 29 28  1  0  0  0  0
 30 28  1  0  0  0  0
 31 32  1  0  0  0  0
M  END
>  <minimizedAffinity>
-4.82030392

$$$$

 OpenBabel03272505563D

 32 33  0  0  1  0  0  0  0  0999 V2000
   38.4250   26.3740   35.5920 C   0  0  2  0  0  0  0  0  0  0  0  0
   37.2060   26.7400   34.7720 C   0  0  0  0  0  0  0  0  0  0  0  0
   37.3930   26.5200   33.3070 C   0  0  1  0  0  0  0  0  0  0  0  0
   38.6250   27.1620   32.7410 C   0  0  0  0  0  0  0  0  0  0  0  0
   39.8090   27.1270   33.6590 C   0  0  0  0  0  0  0  0  0  0  0  0
   39.6360   26.1070   34.7680 C   0  0  0  0  0  0  0  0  0  0  0  0
   38.6010   27.2260   36.2750 H   0  0  0  0  0  0  0  0  0  0  0  0
   36.3710   26.1050   35.0920 H   0  0  0  0  0  0  0  0  0  0  0  0
   36.9050   27.7910   34.9050 H   0  0  0  0  0  0  0  0  0  0  0  0
   36.5220   27.0390   32.8130 H   0  0  0  0  0  0  0  0  0  0  0  0
   38.4170   28.1980   32.3600 H   0  0  0  0  0  0  0  0  0  0  0  0
   38.8960   26.5910   31.8240 H   0  0  0  0  0  0  0  0  0  0  0  0
   40.7500   26.8490   33.1480 H   0  0  0  0  0  0  0  0  0  0  0  0
   39.8670   28.1250   34.1580 H   0  0  0  0  0  0  0  0  0  0  0  0
   40.5140   26.2160   35.4510 H   0  0  0  0  0  0  0  0  0  0  0  0
   39.6990   25.0700   34.3860 H   0  0  0  0  0  0  0  0  0  0  0  0
   38.1450   25.1580   36.4080 C   0  0  0  0  0  0  0  0  0  0  0  0
   38.1010   25.3420   37.8010 C   0  0  0  0  0  0  0  0  0  0  0  0
   37.8460   24.1900   38.5730 C   0  0  0  0  0  0  0  0  0  0  0  0
   37.6620   22.9970   37.9430 N   0  0  0  0  0  0  0  0  0  0  0  0
   37.7130   22.8650   36.5960 C   0  0  0  0  0  0  0  0  0  0  0  0
   37.9530   23.9440   35.8440 N   0  0  0  0  0  0  0  0  0  0  0  0
   38.2400   26.2440   38.3440 H   0  0  0  0  0  0  0  0  0  0  0  0
   37.7900   24.2120   39.6440 H   0  0  0  0  0  0  0  0  0  0  0  0
   37.5530   21.8720   36.2040 H   0  0  0  0  0  0  0  0  0  0  0  0
   37.2660   25.1280   32.9460 N   0  0  0  0  0  0  0  0  0  0  0  0
   36.6780   24.6690   33.6750 H   0  0  0  0  0  0  0  0  0  0  0  0
   36.3430   24.9990   31.4670 S   0  0  0  0  0  0  0  0  0  0  0  0
   35.5700   26.2820   31.3210 O   0  0  0  0  0  1  0  0  0  0  0  0
   35.3380   23.8830   31.5590 O   0  0  0  0  0  1  0  0  0  0  0  0
   37.3430   24.8480   30.1550 O   0  0  0  0  0  0  0  0  0  0  0  0
   37.3040   23.9940   29.6790 H   0  0  0  0  0  0  0  0  0  0  0  0
  1  7  1  1  0  0  0
  1 17  1  0  0  0  0
  2  9  1  0  0  0  0
  2  8  1  0  0  0  0
  2  1  1  0  0  0  0
  3 10  1  6  0  0  0
  3  2  1  0  0  0  0
  4  3  1  0  0  0  0
  4  5  1  0  0  0  0
  5 14  1  0  0  0  0
  5  6  1  0  0  0  0
  6 15  1  0  0  0  0
  6  1  1  0  0  0  0
 11  4  1  0  0  0  0
 12  4  1  0  0  0  0
 13  5  1  0  0  0  0
 16  6  1  0  0  0  0
 17 18  1  0  0  0  0
 18 23  1  0  0  0  0
 18 19  2  0  0  0  0
 19 24  1  0  0  0  0
 20 19  1  0  0  0  0
 21 20  2  0  0  0  0
 22 17  2  0  0  0  0
 22 21  1  0  0  0  0
 25 21  1  0  0  0  0
 26  3  1  0  0  0  0
 26 27  1  0  0  0  0
 28 30  1  0  0  0  0
 28 26  1  0  0  0  0
 29 28  1  0  0  0  0
 31 28  1  0  0  0  0
 32 31  1  0  0  0  0
M  END
>  <minimizedAffinity>
-4.66994524

$$$$

 OpenBabel03272505563D

 32 33  0  0  1  0  0  0  0  0999 V2000
   39.7780   22.1520   36.6200 C   0  0  2  0  0  0  0  0  0  0  0  0
   38.8660   22.7780   35.5860 C   0  0  0  0  0  0  0  0  0  0  0  0
   38.4590   24.1730   35.9270 C   0  0  1  0  0  0  0  0  0  0  0  0
   37.8830   24.3280   37.3040 C   0  0  0  0  0  0  0  0  0  0  0  0
   38.5400   23.4660   38.3400 C   0  0  0  0  0  0  0  0  0  0  0  0
   39.8860   22.9470   37.8750 C   0  0  0  0  0  0  0  0  0  0  0  0
   39.3590   21.1510   36.8300 H   0  0  0  0  0  0  0  0  0  0  0  0
   39.4050   22.8210   34.6310 H   0  0  0  0  0  0  0  0  0  0  0  0
   37.9420   22.2000   35.4310 H   0  0  0  0  0  0  0  0  0  0  0  0
   37.6200   24.4230   35.2150 H   0  0  0  0  0  0  0  0  0  0  0  0
   36.7660   24.2100   37.3040 H   0  0  0  0  0  0  0  0  0  0  0  0
   38.0390   25.3880   37.6040 H   0  0  0  0  0  0  0  0  0  0  0  0
   38.7420   24.0000   39.2880 H   0  0  0  0  0  0  0  0  0  0  0  0
   37.8900   22.5680   38.4810 H   0  0  0  0  0  0  0  0  0  0  0  0
   40.2560   22.2460   38.6630 H   0  0  0  0  0  0  0  0  0  0  0  0
   40.6450   23.7520   37.8320 H   0  0  0  0  0  0  0  0  0  0  0  0
   41.1490   21.9880   36.0580 C   0  0  0  0  0  0  0  0  0  0  0  0
   42.0340   21.1880   36.8050 C   0  0  0  0  0  0  0  0  0  0  0  0
   43.3340   21.0410   36.2790 C   0  0  0  0  0  0  0  0  0  0  0  0
   43.6510   21.6640   35.1110 N   0  0  0  0  0  0  0  0  0  0  0  0
   42.7670   22.4260   34.4240 C   0  0  0  0  0  0  0  0  0  0  0  0
   41.5280   22.5800   34.9030 N   0  0  0  0  0  0  0  0  0  0  0  0
   41.8420   20.6840   37.7190 H   0  0  0  0  0  0  0  0  0  0  0  0
   44.0900   20.4550   36.7630 H   0  0  0  0  0  0  0  0  0  0  0  0
   43.1260   22.8730   33.5090 H   0  0  0  0  0  0  0  0  0  0  0  0
   39.5020   25.1300   35.6420 N   0  0  0  0  0  0  0  0  0  0  0  0
   40.0290   24.7780   34.8130 H   0  0  0  0  0  0  0  0  0  0  0  0
   38.7780   26.6320   35.1200 S   0  0  0  0  0  0  0  0  0  0  0  0
   37.3710   26.3150   34.6930 O   0  0  0  0  0  1  0  0  0  0  0  0
   39.4960   27.1820   33.9160 O   0  0  0  0  0  1  0  0  0  0  0  0
   38.7050   27.7210   36.3680 O   0  0  0  0  0  0  0  0  0  0  0  0
   39.2610   28.5210   36.2750 H   0  0  0  0  0  0  0  0  0  0  0  0
  1  7  1  1  0  0  0
  1  6  1  0  0  0  0
  2  3  1  0  0  0  0
  2  1  1  0  0  0  0
  3 10  1  6  0  0  0
  3  4  1  0  0  0  0
  4 12  1  0  0  0  0
  4  5  1  0  0  0  0
  5 14  1  0  0  0  0
  5 13  1  0  0  0  0
  6  5  1  0  0  0  0
  6 15  1  0  0  0  0
  8  2  1  0  0  0  0
  9  2  1  0  0  0  0
 11  4  1  0  0  0  0
 16  6  1  0  0  0  0
 17  1  1  0  0  0  0
 17 18  1  0  0  0  0
 18 23  1  0  0  0  0
 19 24  1  0  0  0  0
 19 18  2  0  0  0  0
 20 19  1  0  0  0  0
 21 22  1  0  0  0  0
 21 20  2  0  0  0  0
 22 17  2  0  0  0  0
 25 21  1  0  0  0  0
 26  3  1  0  0  0  0
 27 26  1  0  0  0  0
 28 26  1  0  0  0  0
 28 31  1  0  0  0  0
 29 28  1  0  0  0  0
 30 28  1  0  0  0  0
 32 31  1  0  0  0  0
M  END
>  <minimizedAffinity>
-4.60461569

$$$$

 OpenBabel03272505563D

 32 33  0  0  1  0  0  0  0  0999 V2000
   38.2880   23.2930   35.4810 C   0  0  2  0  0  0  0  0  0  0  0  0
   39.7210   23.5380   35.9010 C   0  0  0  0  0  0  0  0  0  0  0  0
   40.0540   22.9480   37.2320 C   0  0  1  0  0  0  0  0  0  0  0  0
   39.1070   23.3320   38.3300 C   0  0  0  0  0  0  0  0  0  0  0  0
   37.6760   23.4350   37.8940 C   0  0  0  0  0  0  0  0  0  0  0  0
   37.4370   22.7370   36.5690 C   0  0  0  0  0  0  0  0  0  0  0  0
   37.8970   24.2710   35.1440 H   0  0  0  0  0  0  0  0  0  0  0  0
   40.3830   23.0680   35.1630 H   0  0  0  0  0  0  0  0  0  0  0  0
   39.9720   24.6090   35.9510 H   0  0  0  0  0  0  0  0  0  0  0  0
   41.0510   23.3940   37.5160 H   0  0  0  0  0  0  0  0  0  0  0  0
   39.4500   24.2540   38.8710 H   0  0  0  0  0  0  0  0  0  0  0  0
   39.1650   22.5330   39.1030 H   0  0  0  0  0  0  0  0  0  0  0  0
   36.9690   22.9670   38.6050 H   0  0  0  0  0  0  0  0  0  0  0  0
   37.4620   24.5180   37.7220 H   0  0  0  0  0  0  0  0  0  0  0  0
   36.3770   22.9430   36.2790 H   0  0  0  0  0  0  0  0  0  0  0  0
   37.4960   21.6360   36.6670 H   0  0  0  0  0  0  0  0  0  0  0  0
   38.2480   22.3420   34.3330 C   0  0  0  0  0  0  0  0  0  0  0  0
   39.4760   22.0840   33.6990 C   0  0  0  0  0  0  0  0  0  0  0  0
   39.4370   21.1920   32.6070 C   0  0  0  0  0  0  0  0  0  0  0  0
   38.2450   20.6450   32.2400 N   0  0  0  0  0  0  0  0  0  0  0  0
   37.0840   20.9230   32.8800 C   0  0  0  0  0  0  0  0  0  0  0  0
   37.0970   21.7660   33.9180 N   0  0  0  0  0  0  0  0  0  0  0  0
   40.4310   22.4820   33.9390 H   0  0  0  0  0  0  0  0  0  0  0  0
   40.3120   20.9220   32.0490 H   0  0  0  0  0  0  0  0  0  0  0  0
   36.1980   20.4340   32.5040 H   0  0  0  0  0  0  0  0  0  0  0  0
   40.2790   21.5240   37.1540 N   0  0  0  0  0  0  0  0  0  0  0  0
   39.8280   21.1840   36.2780 H   0  0  0  0  0  0  0  0  0  0  0  0
   41.9870   21.2230   36.9360 S   0  0  0  0  0  0  0  0  0  0  0  0
   42.6930   22.5340   37.1470 O   0  0  0  0  0  1  0  0  0  0  0  0
   42.2770   20.7830   35.5270 O   0  0  0  0  0  1  0  0  0  0  0  0
   42.5490   20.1470   38.0660 O   0  0  0  0  0  0  0  0  0  0  0  0
   42.8490   19.2810   37.7240 H   0  0  0  0  0  0  0  0  0  0  0  0
  1  7  1  6  0  0  0
  1  2  1  0  0  0  0
  1  6  1  0  0  0  0
  2  9  1  0  0  0  0
  2  3  1  0  0  0  0
  3 10  1  1  0  0  0
  3  4  1  0  0  0  0
  4 11  1  0  0  0  0
  4 12  1  0  0  0  0
  5  4  1  0  0  0  0
  5 13  1  0  0  0  0
  6 16  1  0  0  0  0
  6  5  1  0  0  0  0
  8  2  1  0  0  0  0
 14  5  1  0  0  0  0
 15  6  1  0  0  0  0
 17  1  1  0  0  0  0
 18 23  1  0  0  0  0
 18 17  2  0  0  0  0
 19 18  1  0  0  0  0
 20 19  2  0  0  0  0
 20 21  1  0  0  0  0
 21 22  2  0  0  0  0
 22 17  1  0  0  0  0
 24 19  1  0  0  0  0
 25 21  1  0  0  0  0
 26  3  1  0  0  0  0
 27 26  1  0  0  0  0
 28 29  1  0  0  0  0
 28 26  1  0  0  0  0
 28 31  1  0  0  0  0
 30 28  1  0  0  0  0
 32 31  1  0  0  0  0
M  END
>  <minimizedAffinity>
-4.57467031

$$$$

 OpenBabel03272505563D

 32 33  0  0  1  0  0  0  0  0999 V2000
   38.5110   23.0950   33.2930 C   0  0  2  0  0  0  0  0  0  0  0  0
   39.2420   22.6520   34.5430 C   0  0  0  0  0  0  0  0  0  0  0  0
   39.1910   23.6590   35.6430 C   0  0  1  0  0  0  0  0  0  0  0  0
   39.6240   25.0380   35.2370 C   0  0  0  0  0  0  0  0  0  0  0  0
   39.2070   25.4240   33.8500 C   0  0  0  0  0  0  0  0  0  0  0  0
   38.1050   24.5280   33.3200 C   0  0  0  0  0  0  0  0  0  0  0  0
   39.2010   22.9040   32.4510 H   0  0  0  0  0  0  0  0  0  0  0  0
   38.7640   21.7380   34.9160 H   0  0  0  0  0  0  0  0  0  0  0  0
   40.3040   22.4300   34.3560 H   0  0  0  0  0  0  0  0  0  0  0  0
   39.9510   23.3110   36.4020 H   0  0  0  0  0  0  0  0  0  0  0  0
   40.7230   25.1950   35.4070 H   0  0  0  0  0  0  0  0  0  0  0  0
   39.1410   25.7500   35.9430 H   0  0  0  0  0  0  0  0  0  0  0  0
   38.8060   26.4540   33.7870 H   0  0  0  0  0  0  0  0  0  0  0  0
   40.0900   25.2630   33.1850 H   0  0  0  0  0  0  0  0  0  0  0  0
   37.9250   24.8260   32.2580 H   0  0  0  0  0  0  0  0  0  0  0  0
   37.1420   24.7120   33.8340 H   0  0  0  0  0  0  0  0  0  0  0  0
   37.2830   22.2720   33.1010 C   0  0  0  0  0  0  0  0  0  0  0  0
   36.6260   22.4160   31.8660 C   0  0  0  0  0  0  0  0  0  0  0  0
   35.4590   21.6450   31.6880 C   0  0  0  0  0  0  0  0  0  0  0  0
   35.0450   20.8270   32.6940 N   0  0  0  0  0  0  0  0  0  0  0  0
   35.7090   20.7180   33.8700 C   0  0  0  0  0  0  0  0  0  0  0  0
   36.8190   21.4400   34.0610 N   0  0  0  0  0  0  0  0  0  0  0  0
   36.9010   23.0390   31.0510 H   0  0  0  0  0  0  0  0  0  0  0  0
   34.8780   21.6750   30.7870 H   0  0  0  0  0  0  0  0  0  0  0  0
   35.2910   20.0390   34.5970 H   0  0  0  0  0  0  0  0  0  0  0  0
   37.9240   23.6470   36.3350 N   0  0  0  0  0  0  0  0  0  0  0  0
   37.4110   22.7910   36.0300 H   0  0  0  0  0  0  0  0  0  0  0  0
   38.2040   23.4280   38.0460 S   0  0  0  0  0  0  0  0  0  0  0  0
   38.0100   24.7700   38.6960 O   0  0  0  0  0  1  0  0  0  0  0  0
   39.6260   23.0080   38.3060 O   0  0  0  0  0  1  0  0  0  0  0  0
   37.1020   22.3750   38.6970 O   0  0  0  0  0  0  0  0  0  0  0  0
   37.4590   21.5260   39.0260 H   0  0  0  0  0  0  0  0  0  0  0  0
  1  7  1  6  0  0  0
  1  6  1  0  0  0  0
  1  2  1  0  0  0  0
  2  8  1  0  0  0  0
  2  3  1  0  0  0  0
  3 26  1  0  0  0  0
  3 10  1  1  0  0  0
  4 11  1  0  0  0  0
  4  3  1  0  0  0  0
  4 12  1  0  0  0  0
  5  4  1  0  0  0  0
  6 16  1  0  0  0  0
  6  5  1  0  0  0  0
  9  2  1  0  0  0  0
 13  5  1  0  0  0  0
 14  5  1  0  0  0  0
 15  6  1  0  0  0  0
 17  1  1  0  0  0  0
 17 22  1  0  0  0  0
 18 17  2  0  0  0  0
 19 18  1  0  0  0  0
 19 20  2  0  0  0  0
 20 21  1  0  0  0  0
 21 22  2  0  0  0  0
 21 25  1  0  0  0  0
 23 18  1  0  0  0  0
 24 19  1  0  0  0  0
 26 28  1  0  0  0  0
 27 26  1  0  0  0  0
 28 30  1  0  0  0  0
 28 29  1  0  0  0  0
 28 31  1  0  0  0  0
 31 32  1  0  0  0  0
M  END
>  <minimizedAffinity>
-4.57408285

$$$$

 OpenBabel03272505563D

 32 33  0  0  1  0  0  0  0  0999 V2000
   38.0890   24.7680   34.8050 C   0  0  2  0  0  0  0  0  0  0  0  0
   39.2100   24.8160   33.7880 C   0  0  0  0  0  0  0  0  0  0  0  0
   39.7010   26.2000   33.5170 C   0  0  1  0  0  0  0  0  0  0  0  0
   38.6210   27.1780   33.1620 C   0  0  0  0  0  0  0  0  0  0  0  0
   37.3400   26.9730   33.9130 C   0  0  0  0  0  0  0  0  0  0  0  0
   37.5380   26.1100   35.1440 C   0  0  0  0  0  0  0  0  0  0  0  0
   37.3040   24.1260   34.3650 H   0  0  0  0  0  0  0  0  0  0  0  0
   40.0580   24.2410   34.1810 H   0  0  0  0  0  0  0  0  0  0  0  0
   38.9210   24.3790   32.8190 H   0  0  0  0  0  0  0  0  0  0  0  0
   40.3500   26.1110   32.5980 H   0  0  0  0  0  0  0  0  0  0  0  0
   38.4550   27.2290   32.0520 H   0  0  0  0  0  0  0  0  0  0  0  0
   39.0030   28.1910   33.4210 H   0  0  0  0  0  0  0  0  0  0  0  0
   36.8960   27.9170   34.2840 H   0  0  0  0  0  0  0  0  0  0  0  0
   36.6510   26.4070   33.2400 H   0  0  0  0  0  0  0  0  0  0  0  0
   36.5260   25.9340   35.5850 H   0  0  0  0  0  0  0  0  0  0  0  0
   38.1040   26.6410   35.9330 H   0  0  0  0  0  0  0  0  0  0  0  0
   38.5720   24.1370   36.0670 C   0  0  0  0  0  0  0  0  0  0  0  0
   37.8070   24.3920   37.2200 C   0  0  0  0  0  0  0  0  0  0  0  0
   38.2690   23.8020   38.4150 C   0  0  0  0  0  0  0  0  0  0  0  0
   39.3970   23.0400   38.3860 N   0  0  0  0  0  0  0  0  0  0  0  0
   40.1030   22.8210   37.2510 C   0  0  0  0  0  0  0  0  0  0  0  0
   39.6840   23.3690   36.1060 N   0  0  0  0  0  0  0  0  0  0  0  0
   36.9260   24.9780   37.3010 H   0  0  0  0  0  0  0  0  0  0  0  0
   37.7660   23.9290   39.3540 H   0  0  0  0  0  0  0  0  0  0  0  0
   40.9820   22.2010   37.3440 H   0  0  0  0  0  0  0  0  0  0  0  0
   40.5760   26.6800   34.5600 N   0  0  0  0  0  0  0  0  0  0  0  0
   40.3430   26.1530   35.4300 H   0  0  0  0  0  0  0  0  0  0  0  0
   42.2230   26.2330   34.1810 S   0  0  0  0  0  0  0  0  0  0  0  0
   42.2520   25.8650   32.7230 O   0  0  0  0  0  1  0  0  0  0  0  0
   42.6370   25.0110   34.9570 O   0  0  0  0  0  1  0  0  0  0  0  0
   43.2520   27.5110   34.4120 O   0  0  0  0  0  0  0  0  0  0  0  0
   43.9070   27.4130   35.1330 H   0  0  0  0  0  0  0  0  0  0  0  0
  1  7  1  6  0  0  0
  1  6  1  0  0  0  0
  1 17  1  0  0  0  0
  2  8  1  0  0  0  0
  2  1  1  0  0  0  0
  3 10  1  6  0  0  0
  3  2  1  0  0  0  0
  3 26  1  0  0  0  0
  4 12  1  0  0  0  0
  4  3  1  0  0  0  0
  4  5  1  0  0  0  0
  5 13  1  0  0  0  0
  5  6  1  0  0  0  0
  6 15  1  0  0  0  0
  6 16  1  0  0  0  0
  9  2  1  0  0  0  0
 11  4  1  0  0  0  0
 14  5  1  0  0  0  0
 17 22  2  0  0  0  0
 17 18  1  0  0  0  0
 18 23  1  0  0  0  0
 18 19  2  0  0  0  0
 19 24  1  0  0  0  0
 20 19  1  0  0  0  0
 21 25  1  0  0  0  0
 21 20  2  0  0  0  0
 22 21  1  0  0  0  0
 26 27  1  0  0  0  0
 28 31  1  0  0  0  0
 28 26  1  0  0  0  0
 28 30  1  0  0  0  0
 29 28  1  0  0  0  0
 31 32  1  0  0  0  0
M  END
>  <minimizedAffinity>
-4.47981215

$$$$

 OpenBabel03272505563D

 32 33  0  0  1  0  0  0  0  0999 V2000
   37.0350   24.7530   31.2690 C   0  0  2  0  0  0  0  0  0  0  0  0
   38.3420   25.3720   31.7160 C   0  0  0  0  0  0  0  0  0  0  0  0
   38.1610   26.6430   32.4770 C   0  0  1  0  0  0  0  0  0  0  0  0
   37.3050   27.6600   31.7820 C   0  0  0  0  0  0  0  0  0  0  0  0
   36.1520   27.0720   31.0240 C   0  0  0  0  0  0  0  0  0  0  0  0
   35.8600   25.6480   31.4550 C   0  0  0  0  0  0  0  0  0  0  0  0
   37.1660   24.5030   30.2000 H   0  0  0  0  0  0  0  0  0  0  0  0
   38.8490   24.6630   32.3830 H   0  0  0  0  0  0  0  0  0  0  0  0
   39.0180   25.5910   30.8750 H   0  0  0  0  0  0  0  0  0  0  0  0
   39.1910   27.1020   32.5410 H   0  0  0  0  0  0  0  0  0  0  0  0
   37.9170   28.3550   31.1460 H   0  0  0  0  0  0  0  0  0  0  0  0
   36.8830   28.3230   32.5710 H   0  0  0  0  0  0  0  0  0  0  0  0
   35.2050   27.6250   31.1730 H   0  0  0  0  0  0  0  0  0  0  0  0
   36.4580   27.0190   29.9510 H   0  0  0  0  0  0  0  0  0  0  0  0
   35.0570   25.2620   30.7800 H   0  0  0  0  0  0  0  0  0  0  0  0
   35.4210   25.6070   32.4710 H   0  0  0  0  0  0  0  0  0  0  0  0
   36.7800   23.4940   32.0260 C   0  0  0  0  0  0  0  0  0  0  0  0
   35.6820   22.7250   31.6000 C   0  0  0  0  0  0  0  0  0  0  0  0
   35.4350   21.5400   32.3240 C   0  0  0  0  0  0  0  0  0  0  0  0
   36.2510   21.2150   33.3630 N   0  0  0  0  0  0  0  0  0  0  0  0
   37.2990   21.9860   33.7400 C   0  0  0  0  0  0  0  0  0  0  0  0
   37.5530   23.1150   33.0690 N   0  0  0  0  0  0  0  0  0  0  0  0
   35.0130   22.9310   30.8020 H   0  0  0  0  0  0  0  0  0  0  0  0
   34.6250   20.8770   32.0870 H   0  0  0  0  0  0  0  0  0  0  0  0
   37.8790   21.6320   34.5790 H   0  0  0  0  0  0  0  0  0  0  0  0
   37.7610   26.4080   33.8430 N   0  0  0  0  0  0  0  0  0  0  0  0
   37.5010   25.4010   33.9240 H   0  0  0  0  0  0  0  0  0  0  0  0
   39.1450   26.6080   34.8920 S   0  0  0  0  0  0  0  0  0  0  0  0
   40.2320   27.2390   34.0660 O   0  0  0  0  0  1  0  0  0  0  0  0
   39.6590   25.2740   35.3600 O   0  0  0  0  0  1  0  0  0  0  0  0
   38.7940   27.6300   36.1490 O   0  0  0  0  0  0  0  0  0  0  0  0
   38.7890   27.2300   37.0410 H   0  0  0  0  0  0  0  0  0  0  0  0
  1  7  1  6  0  0  0
  1  6  1  0  0  0  0
  1  2  1  0  0  0  0
  1 17  1  0  0  0  0
  2  8  1  0  0  0  0
  2  3  1  0  0  0  0
  3 10  1  1  0  0  0
  3 26  1  0  0  0  0
  4  3  1  0  0  0  0
  4 12  1  0  0  0  0
  5 13  1  0  0  0  0
  5  6  1  0  0  0  0
  5  4  1  0  0  0  0
  6 16  1  0  0  0  0
  9  2  1  0  0  0  0
 11  4  1  0  0  0  0
 14  5  1  0  0  0  0
 15  6  1  0  0  0  0
 17 22  1  0  0  0  0
 18 17  2  0  0  0  0
 18 19  1  0  0  0  0
 19 20  2  0  0  0  0
 20 21  1  0  0  0  0
 21 25  1  0  0  0  0
 22 21  2  0  0  0  0
 23 18  1  0  0  0  0
 24 19  1  0  0  0  0
 26 27  1  0  0  0  0
 26 28  1  0  0  0  0
 28 30  1  0  0  0  0
 28 31  1  0  0  0  0
 29 28  1  0  0  0  0
 31 32  1  0  0  0  0
M  END
>  <minimizedAffinity>
-4.40910387

$$$$
