
 OpenBabel03272504363D

 41 43  0  0  0  0  0  0  0  0999 V2000
   36.8640   26.6050   32.8160 C   0  0  0  0  0  0  0  0  0  0  0  0
   36.5110   25.9260   31.6620 C   0  0  0  0  0  0  0  0  0  0  0  0
   36.8140   24.5660   31.5350 C   0  0  0  0  0  0  0  0  0  0  0  0
   37.4570   23.9690   32.5790 N   0  0  0  0  0  0  0  0  0  0  0  0
   37.7880   24.6700   33.6980 C   0  0  0  0  0  0  0  0  0  0  0  0
   37.4980   25.9720   33.8210 N   0  0  0  0  0  0  0  0  0  0  0  0
   36.0020   26.4820   30.8850 H   0  0  0  0  0  0  0  0  0  0  0  0
   36.5450   24.0400   30.6500 H   0  0  0  0  0  0  0  0  0  0  0  0
   36.5760   27.9870   32.9900 N   0  0  0  0  0  0  0  0  0  0  0  0
   36.1890   28.5410   34.2860 C   0  0  0  0  0  0  0  0  0  0  0  0
   35.0650   29.5030   34.2420 C   0  0  0  0  0  0  0  0  0  0  0  0
   34.8770   30.2340   33.0610 N   0  0  0  0  0  0  0  0  0  0  0  0
   35.1780   29.4990   31.8420 C   0  0  0  0  0  0  0  0  0  0  0  0
   36.6080   29.0120   32.0160 C   0  0  0  0  0  0  0  0  0  0  0  0
   35.8760   27.6650   34.9040 H   0  0  0  0  0  0  0  0  0  0  0  0
   37.0820   28.9480   34.8180 H   0  0  0  0  0  0  0  0  0  0  0  0
   34.1070   29.0090   34.5240 H   0  0  0  0  0  0  0  0  0  0  0  0
   35.2510   30.2430   35.0750 H   0  0  0  0  0  0  0  0  0  0  0  0
   35.1580   31.2180   33.0290 H   0  0  0  0  0  0  0  0  0  0  0  0
   35.2180   30.2300   30.9900 H   0  0  0  0  0  0  0  0  0  0  0  0
   34.4660   28.7100   31.6150 H   0  0  0  0  0  0  0  0  0  0  0  0
   37.0320   28.6740   31.0340 H   0  0  0  0  0  0  0  0  0  0  0  0
   37.2140   29.8850   32.3280 H   0  0  0  0  0  0  0  0  0  0  0  0
   38.4740   23.9770   34.7810 C   0  0  0  0  0  0  0  0  0  0  0  0
   39.5310   23.1250   34.4930 C   0  0  0  0  0  0  0  0  0  0  0  0
   40.2030   22.4540   35.4860 C   0  0  0  0  0  0  0  0  0  0  0  0
   39.7950   22.6570   36.7660 N   0  0  0  0  0  0  0  0  0  0  0  0
   38.7670   23.4890   37.0320 C   0  0  0  0  0  0  0  0  0  0  0  0
   38.0940   24.1570   36.0510 N   0  0  0  0  0  0  0  0  0  0  0  0
   39.8770   22.9440   33.4980 H   0  0  0  0  0  0  0  0  0  0  0  0
   41.2900   21.5710   35.2500 N   0  0  0  0  0  0  0  0  0  0  0  0
   41.3630   21.0250   34.3660 H   0  0  0  0  0  0  0  0  0  0  0  0
   38.3390   23.6930   38.4330 C   0  0  0  0  0  0  0  0  0  0  0  0
   37.3080   22.8420   38.7690 F   0  0  0  0  0  0  0  0  0  0  0  0
   37.8960   25.0070   38.5650 F   0  0  0  0  0  0  0  0  0  0  0  0
   39.4190   23.5520   39.2710 F   0  0  0  0  0  0  0  0  0  0  0  0
   42.5070   21.4070   36.4550 S   0  0  0  0  0  0  0  0  0  0  0  0
   43.6230   20.5280   36.0210 O   0  0  0  0  0  1  0  0  0  0  0  0
   43.0900   22.7620   36.7210 O   0  0  0  0  0  1  0  0  0  0  0  0
   41.8710   20.8680   37.9160 O   0  0  0  0  0  0  0  0  0  0  0  0
   42.5650   20.3040   38.3450 H   0  0  0  0  0  0  0  0  0  0  0  0
  1  9  1  0  0  0  0
  1  6  1  0  0  0  0
  2  1  2  0  0  0  0
  3  2  1  0  0  0  0
  3  4  2  0  0  0  0
  4  5  1  0  0  0  0
  5  6  2  0  0  0  0
  5 24  1  0  0  0  0
  7  2  1  0  0  0  0
  8  3  1  0  0  0  0
  9 10  1  0  0  0  0
 10 16  1  0  0  0  0
 10 15  1  0  0  0  0
 11 10  1  0  0  0  0
 11 17  1  0  0  0  0
 11 18  1  0  0  0  0
 12 11  1  0  0  0  0
 13 14  1  0  0  0  0
 13 12  1  0  0  0  0
 14 23  1  0  0  0  0
 14  9  1  0  0  0  0
 19 12  1  0  0  0  0
 20 13  1  0  0  0  0
 21 13  1  0  0  0  0
 22 14  1  0  0  0  0
 24 29  1  0  0  0  0
 25 24  2  0  0  0  0
 25 26  1  0  0  0  0
 26 27  2  0  0  0  0
 27 28  1  0  0  0  0
 28 33  1  0  0  0  0
 29 28  2  0  0  0  0
 30 25  1  0  0  0  0
 31 26  1  0  0  0  0
 31 37  1  0  0  0  0
 32 31  1  0  0  0  0
 33 35  1  0  0  0  0
 33 34  1  0  0  0  0
 33 36  1  0  0  0  0
 37 39  1  0  0  0  0
 37 40  1  0  0  0  0
 38 37  1  0  0  0  0
 40 41  1  0  0  0  0
M  END
>  <minimizedAffinity>
-6.35620213

$$$$

 OpenBabel03272504363D

 41 43  0  0  0  0  0  0  0  0999 V2000
   37.3100   27.2060   32.3850 C   0  0  0  0  0  0  0  0  0  0  0  0
   36.6010   28.2250   32.9970 C   0  0  0  0  0  0  0  0  0  0  0  0
   36.4520   28.2300   34.3880 C   0  0  0  0  0  0  0  0  0  0  0  0
   37.0270   27.2060   35.0820 N   0  0  0  0  0  0  0  0  0  0  0  0
   37.7170   26.2210   34.4440 C   0  0  0  0  0  0  0  0  0  0  0  0
   37.8600   26.2150   33.1120 N   0  0  0  0  0  0  0  0  0  0  0  0
   36.1800   28.9970   32.3660 H   0  0  0  0  0  0  0  0  0  0  0  0
   35.9080   29.0110   34.8640 H   0  0  0  0  0  0  0  0  0  0  0  0
   37.4880   27.1590   30.9740 N   0  0  0  0  0  0  0  0  0  0  0  0
   38.5930   26.4290   30.3560 C   0  0  0  0  0  0  0  0  0  0  0  0
   39.2710   27.1440   29.2510 C   0  0  0  0  0  0  0  0  0  0  0  0
   38.5220   28.0730   28.5170 N   0  0  0  0  0  0  0  0  0  0  0  0
   37.5510   28.8200   29.3020 C   0  0  0  0  0  0  0  0  0  0  0  0
   36.6890   27.7630   29.9750 C   0  0  0  0  0  0  0  0  0  0  0  0
   39.3360   26.2620   31.1730 H   0  0  0  0  0  0  0  0  0  0  0  0
   38.2670   25.4010   30.0670 H   0  0  0  0  0  0  0  0  0  0  0  0
   40.2090   27.6280   29.6070 H   0  0  0  0  0  0  0  0  0  0  0  0
   39.6270   26.3480   28.5320 H   0  0  0  0  0  0  0  0  0  0  0  0
   38.1900   27.8240   27.5810 H   0  0  0  0  0  0  0  0  0  0  0  0
   36.8610   29.3550   28.5940 H   0  0  0  0  0  0  0  0  0  0  0  0
   37.9960   29.5340   29.9910 H   0  0  0  0  0  0  0  0  0  0  0  0
   35.7480   28.2220   30.3810 H   0  0  0  0  0  0  0  0  0  0  0  0
   36.3700   27.0530   29.1890 H   0  0  0  0  0  0  0  0  0  0  0  0
   38.3080   25.1520   35.2390 C   0  0  0  0  0  0  0  0  0  0  0  0
   39.2190   24.2830   34.6560 C   0  0  0  0  0  0  0  0  0  0  0  0
   39.7980   23.2630   35.3730 C   0  0  0  0  0  0  0  0  0  0  0  0
   39.4450   23.1380   36.6790 N   0  0  0  0  0  0  0  0  0  0  0  0
   38.5590   23.9900   37.2330 C   0  0  0  0  0  0  0  0  0  0  0  0
   37.9800   25.0040   36.5280 N   0  0  0  0  0  0  0  0  0  0  0  0
   39.5180   24.3540   33.6320 H   0  0  0  0  0  0  0  0  0  0  0  0
   40.7350   22.3450   34.8280 N   0  0  0  0  0  0  0  0  0  0  0  0
   40.7100   22.0770   33.8220 H   0  0  0  0  0  0  0  0  0  0  0  0
   38.1900   23.8330   38.6570 C   0  0  0  0  0  0  0  0  0  0  0  0
   37.2870   22.8050   38.8270 F   0  0  0  0  0  0  0  0  0  0  0  0
   37.6030   25.0200   39.0880 F   0  0  0  0  0  0  0  0  0  0  0  0
   39.3240   23.6530   39.4110 F   0  0  0  0  0  0  0  0  0  0  0  0
   41.9320   21.6670   35.8610 S   0  0  0  0  0  0  0  0  0  0  0  0
   42.7260   20.6050   35.1910 O   0  0  0  0  0  1  0  0  0  0  0  0
   42.8890   22.7540   36.2490 O   0  0  0  0  0  1  0  0  0  0  0  0
   41.2660   21.0860   37.2930 O   0  0  0  0  0  0  0  0  0  0  0  0
   41.8000   20.2940   37.5620 H   0  0  0  0  0  0  0  0  0  0  0  0
  1  2  2  0  0  0  0
  1  6  1  0  0  0  0
  2  3  1  0  0  0  0
  3  8  1  0  0  0  0
  3  4  2  0  0  0  0
  5  4  1  0  0  0  0
  5 24  1  0  0  0  0
  6  5  2  0  0  0  0
  7  2  1  0  0  0  0
  9  1  1  0  0  0  0
 10  9  1  0  0  0  0
 10 15  1  0  0  0  0
 11 17  1  0  0  0  0
 11 10  1  0  0  0  0
 12 11  1  0  0  0  0
 12 13  1  0  0  0  0
 13 14  1  0  0  0  0
 13 21  1  0  0  0  0
 14 22  1  0  0  0  0
 14  9  1  0  0  0  0
 16 10  1  0  0  0  0
 18 11  1  0  0  0  0
 19 12  1  0  0  0  0
 20 13  1  0  0  0  0
 23 14  1  0  0  0  0
 24 29  1  0  0  0  0
 25 24  2  0  0  0  0
 25 26  1  0  0  0  0
 26 27  2  0  0  0  0
 27 28  1  0  0  0  0
 28 33  1  0  0  0  0
 29 28  2  0  0  0  0
 30 25  1  0  0  0  0
 31 26  1  0  0  0  0
 31 37  1  0  0  0  0
 32 31  1  0  0  0  0
 33 34  1  0  0  0  0
 33 35  1  0  0  0  0
 33 36  1  0  0  0  0
 37 39  1  0  0  0  0
 37 40  1  0  0  0  0
 38 37  1  0  0  0  0
 40 41  1  0  0  0  0
M  END
>  <minimizedAffinity>
-6.33376455

$$$$

 OpenBabel03272504363D

 41 43  0  0  0  0  0  0  0  0999 V2000
   38.3840   27.1230   32.1920 C   0  0  0  0  0  0  0  0  0  0  0  0
   37.2820   27.9000   32.5050 C   0  0  0  0  0  0  0  0  0  0  0  0
   36.6240   27.7140   33.7260 C   0  0  0  0  0  0  0  0  0  0  0  0
   37.1150   26.7530   34.5600 N   0  0  0  0  0  0  0  0  0  0  0  0
   38.2020   26.0090   34.2170 C   0  0  0  0  0  0  0  0  0  0  0  0
   38.8330   26.1860   33.0490 N   0  0  0  0  0  0  0  0  0  0  0  0
   36.9630   28.6390   31.7810 H   0  0  0  0  0  0  0  0  0  0  0  0
   35.7760   28.3080   33.9710 H   0  0  0  0  0  0  0  0  0  0  0  0
   39.0850   27.2760   30.9640 N   0  0  0  0  0  0  0  0  0  0  0  0
   38.8030   28.3760   30.0430 C   0  0  0  0  0  0  0  0  0  0  0  0
   38.7340   27.9920   28.6150 C   0  0  0  0  0  0  0  0  0  0  0  0
   39.4780   26.8790   28.2010 N   0  0  0  0  0  0  0  0  0  0  0  0
   39.5540   25.8060   29.1820 C   0  0  0  0  0  0  0  0  0  0  0  0
   40.1110   26.4570   30.4380 C   0  0  0  0  0  0  0  0  0  0  0  0
   37.8050   28.7740   30.3480 H   0  0  0  0  0  0  0  0  0  0  0  0
   39.5050   29.2260   30.2260 H   0  0  0  0  0  0  0  0  0  0  0  0
   37.6770   27.8680   28.2870 H   0  0  0  0  0  0  0  0  0  0  0  0
   39.1020   28.8860   28.0300 H   0  0  0  0  0  0  0  0  0  0  0  0
   40.3470   27.0220   27.6790 H   0  0  0  0  0  0  0  0  0  0  0  0
   40.3470   25.0810   28.8500 H   0  0  0  0  0  0  0  0  0  0  0  0
   38.6160   25.2790   29.3330 H   0  0  0  0  0  0  0  0  0  0  0  0
   40.4660   25.6760   31.1620 H   0  0  0  0  0  0  0  0  0  0  0  0
   41.0100   27.0290   30.1390 H   0  0  0  0  0  0  0  0  0  0  0  0
   38.6810   24.9970   35.1510 C   0  0  0  0  0  0  0  0  0  0  0  0
   39.6160   24.0610   34.7320 C   0  0  0  0  0  0  0  0  0  0  0  0
   40.0900   23.0910   35.5820 C   0  0  0  0  0  0  0  0  0  0  0  0
   39.6110   23.0840   36.8540 N   0  0  0  0  0  0  0  0  0  0  0  0
   38.7030   24.0000   37.2470 C   0  0  0  0  0  0  0  0  0  0  0  0
   38.2260   24.9640   36.4090 N   0  0  0  0  0  0  0  0  0  0  0  0
   40.0130   24.0390   33.7400 H   0  0  0  0  0  0  0  0  0  0  0  0
   41.0460   22.1090   35.2080 N   0  0  0  0  0  0  0  0  0  0  0  0
   41.1100   21.7590   34.2300 H   0  0  0  0  0  0  0  0  0  0  0  0
   38.1940   23.9710   38.6360 C   0  0  0  0  0  0  0  0  0  0  0  0
   37.6450   25.1850   38.9920 F   0  0  0  0  0  0  0  0  0  0  0  0
   39.2620   23.6960   39.4850 F   0  0  0  0  0  0  0  0  0  0  0  0
   37.2970   22.9390   38.7780 F   0  0  0  0  0  0  0  0  0  0  0  0
   42.1170   21.4920   36.4050 S   0  0  0  0  0  0  0  0  0  0  0  0
   42.8880   20.3160   35.9260 O   0  0  0  0  0  1  0  0  0  0  0  0
   43.1100   22.5620   36.7440 O   0  0  0  0  0  1  0  0  0  0  0  0
   41.3110   21.1210   37.8350 O   0  0  0  0  0  0  0  0  0  0  0  0
   41.7710   20.3380   38.2340 H   0  0  0  0  0  0  0  0  0  0  0  0
  1  2  2  0  0  0  0
  1  6  1  0  0  0  0
  2  3  1  0  0  0  0
  3  8  1  0  0  0  0
  3  4  2  0  0  0  0
  5  4  1  0  0  0  0
  5 24  1  0  0  0  0
  6  5  2  0  0  0  0
  7  2  1  0  0  0  0
  9  1  1  0  0  0  0
 10 16  1  0  0  0  0
 10 15  1  0  0  0  0
 10  9  1  0  0  0  0
 11 10  1  0  0  0  0
 12 11  1  0  0  0  0
 12 13  1  0  0  0  0
 13 21  1  0  0  0  0
 13 14  1  0  0  0  0
 14  9  1  0  0  0  0
 14 22  1  0  0  0  0
 17 11  1  0  0  0  0
 18 11  1  0  0  0  0
 19 12  1  0  0  0  0
 20 13  1  0  0  0  0
 23 14  1  0  0  0  0
 24 29  1  0  0  0  0
 25 24  2  0  0  0  0
 25 26  1  0  0  0  0
 26 27  2  0  0  0  0
 27 28  1  0  0  0  0
 28 33  1  0  0  0  0
 29 28  2  0  0  0  0
 30 25  1  0  0  0  0
 31 26  1  0  0  0  0
 31 37  1  0  0  0  0
 32 31  1  0  0  0  0
 33 36  1  0  0  0  0
 33 34  1  0  0  0  0
 33 35  1  0  0  0  0
 37 39  1  0  0  0  0
 37 40  1  0  0  0  0
 38 37  1  0  0  0  0
 40 41  1  0  0  0  0
M  END
>  <minimizedAffinity>
-6.23644495

$$$$

 OpenBabel03272504363D

 41 43  0  0  0  0  0  0  0  0999 V2000
   39.3540   24.8090   35.1410 C   0  0  0  0  0  0  0  0  0  0  0  0
   40.6490   24.8430   34.6560 C   0  0  0  0  0  0  0  0  0  0  0  0
   41.0020   25.7840   33.6810 C   0  0  0  0  0  0  0  0  0  0  0  0
   40.0260   26.6350   33.2520 N   0  0  0  0  0  0  0  0  0  0  0  0
   38.7620   26.5700   33.7550 C   0  0  0  0  0  0  0  0  0  0  0  0
   38.4240   25.6700   34.6880 N   0  0  0  0  0  0  0  0  0  0  0  0
   41.3580   24.1290   35.0540 H   0  0  0  0  0  0  0  0  0  0  0  0
   41.9960   25.8140   33.3030 H   0  0  0  0  0  0  0  0  0  0  0  0
   38.9500   23.8710   36.1320 N   0  0  0  0  0  0  0  0  0  0  0  0
   37.8240   24.1270   37.0290 C   0  0  0  0  0  0  0  0  0  0  0  0
   38.0600   23.7670   38.4450 C   0  0  0  0  0  0  0  0  0  0  0  0
   38.9750   22.7410   38.7140 N   0  0  0  0  0  0  0  0  0  0  0  0
   40.1170   22.7000   37.8130 C   0  0  0  0  0  0  0  0  0  0  0  0
   39.5170   22.6080   36.4180 C   0  0  0  0  0  0  0  0  0  0  0  0
   37.6400   25.2270   36.9730 H   0  0  0  0  0  0  0  0  0  0  0  0
   36.8890   23.6720   36.6190 H   0  0  0  0  0  0  0  0  0  0  0  0
   38.3290   24.6660   39.0440 H   0  0  0  0  0  0  0  0  0  0  0  0
   37.0580   23.4480   38.8590 H   0  0  0  0  0  0  0  0  0  0  0  0
   38.6290   21.8160   38.9820 H   0  0  0  0  0  0  0  0  0  0  0  0
   40.6530   21.7240   37.9670 H   0  0  0  0  0  0  0  0  0  0  0  0
   40.8120   23.5250   37.9430 H   0  0  0  0  0  0  0  0  0  0  0  0
   40.2970   22.2960   35.6740 H   0  0  0  0  0  0  0  0  0  0  0  0
   38.7680   21.7930   36.4380 H   0  0  0  0  0  0  0  0  0  0  0  0
   37.7620   27.5070   33.2570 C   0  0  0  0  0  0  0  0  0  0  0  0
   36.7330   27.9230   34.0910 C   0  0  0  0  0  0  0  0  0  0  0  0
   35.7720   28.8040   33.6580 C   0  0  0  0  0  0  0  0  0  0  0  0
   35.8660   29.2560   32.3800 N   0  0  0  0  0  0  0  0  0  0  0  0
   36.8720   28.8440   31.5820 C   0  0  0  0  0  0  0  0  0  0  0  0
   37.8290   27.9680   32.0030 N   0  0  0  0  0  0  0  0  0  0  0  0
   36.6300   27.5870   35.1000 H   0  0  0  0  0  0  0  0  0  0  0  0
   34.6980   29.2630   34.4660 N   0  0  0  0  0  0  0  0  0  0  0  0
   34.2950   28.6700   35.2220 H   0  0  0  0  0  0  0  0  0  0  0  0
   36.9530   29.3490   30.1940 C   0  0  0  0  0  0  0  0  0  0  0  0
   36.7570   28.3340   29.2810 F   0  0  0  0  0  0  0  0  0  0  0  0
   38.2230   29.8860   30.0000 F   0  0  0  0  0  0  0  0  0  0  0  0
   36.0570   30.3760   30.0230 F   0  0  0  0  0  0  0  0  0  0  0  0
   34.0550   30.8340   34.1820 S   0  0  0  0  0  0  0  0  0  0  0  0
   32.8700   30.8100   33.2860 O   0  0  0  0  0  1  0  0  0  0  0  0
   33.6030   31.4010   35.4950 O   0  0  0  0  0  1  0  0  0  0  0  0
   35.2220   31.8890   33.5840 O   0  0  0  0  0  0  0  0  0  0  0  0
   34.7600   32.5140   32.9680 H   0  0  0  0  0  0  0  0  0  0  0  0
  1  9  1  0  0  0  0
  2  7  1  0  0  0  0
  2  1  2  0  0  0  0
  3  2  1  0  0  0  0
  4  3  2  0  0  0  0
  4  5  1  0  0  0  0
  5  6  2  0  0  0  0
  6  1  1  0  0  0  0
  8  3  1  0  0  0  0
  9 14  1  0  0  0  0
  9 10  1  0  0  0  0
 10 11  1  0  0  0  0
 11 12  1  0  0  0  0
 11 18  1  0  0  0  0
 11 17  1  0  0  0  0
 12 19  1  0  0  0  0
 13 21  1  0  0  0  0
 13 20  1  0  0  0  0
 13 12  1  0  0  0  0
 14 23  1  0  0  0  0
 14 13  1  0  0  0  0
 15 10  1  0  0  0  0
 16 10  1  0  0  0  0
 22 14  1  0  0  0  0
 24  5  1  0  0  0  0
 24 25  1  0  0  0  0
 25 30  1  0  0  0  0
 26 25  2  0  0  0  0
 26 31  1  0  0  0  0
 27 26  1  0  0  0  0
 28 29  1  0  0  0  0
 28 27  2  0  0  0  0
 29 24  2  0  0  0  0
 31 32  1  0  0  0  0
 33 28  1  0  0  0  0
 34 33  1  0  0  0  0
 35 33  1  0  0  0  0
 36 33  1  0  0  0  0
 37 31  1  0  0  0  0
 37 39  1  0  0  0  0
 38 37  1  0  0  0  0
 40 37  1  0  0  0  0
 41 40  1  0  0  0  0
M  END
>  <minimizedAffinity>
-6.02493382

$$$$

 OpenBabel03272504363D

 41 43  0  0  0  0  0  0  0  0999 V2000
   40.2610   22.9950   36.9110 C   0  0  0  0  0  0  0  0  0  0  0  0
   39.4760   23.0170   38.0510 C   0  0  0  0  0  0  0  0  0  0  0  0
   38.1700   23.5150   37.9860 C   0  0  0  0  0  0  0  0  0  0  0  0
   37.7310   23.9620   36.7740 N   0  0  0  0  0  0  0  0  0  0  0  0
   38.5330   23.9230   35.6750 C   0  0  0  0  0  0  0  0  0  0  0  0
   39.7840   23.4470   35.7370 N   0  0  0  0  0  0  0  0  0  0  0  0
   39.9080   22.6410   38.9700 H   0  0  0  0  0  0  0  0  0  0  0  0
   37.5620   23.5350   38.8590 H   0  0  0  0  0  0  0  0  0  0  0  0
   41.5940   22.4970   36.9290 N   0  0  0  0  0  0  0  0  0  0  0  0
   42.7390   23.3340   36.5750 C   0  0  0  0  0  0  0  0  0  0  0  0
   43.7420   22.6830   35.7040 C   0  0  0  0  0  0  0  0  0  0  0  0
   43.8650   21.2890   35.7790 N   0  0  0  0  0  0  0  0  0  0  0  0
   42.6120   20.5840   36.0020 C   0  0  0  0  0  0  0  0  0  0  0  0
   42.0330   21.1960   37.2670 C   0  0  0  0  0  0  0  0  0  0  0  0
   42.3120   24.2080   36.0260 H   0  0  0  0  0  0  0  0  0  0  0  0
   43.1920   23.7820   37.4930 H   0  0  0  0  0  0  0  0  0  0  0  0
   43.5990   22.9820   34.6410 H   0  0  0  0  0  0  0  0  0  0  0  0
   44.7410   23.1290   35.9860 H   0  0  0  0  0  0  0  0  0  0  0  0
   44.6610   20.8810   36.2760 H   0  0  0  0  0  0  0  0  0  0  0  0
   42.8500   19.5190   36.2720 H   0  0  0  0  0  0  0  0  0  0  0  0
   41.9360   20.6040   35.1500 H   0  0  0  0  0  0  0  0  0  0  0  0
   41.2150   20.5480   37.6800 H   0  0  0  0  0  0  0  0  0  0  0  0
   42.8380   21.1960   38.0280 H   0  0  0  0  0  0  0  0  0  0  0  0
   38.0090   24.4160   34.4080 C   0  0  0  0  0  0  0  0  0  0  0  0
   37.7460   25.7700   34.2510 C   0  0  0  0  0  0  0  0  0  0  0  0
   37.2510   26.2720   33.0710 C   0  0  0  0  0  0  0  0  0  0  0  0
   37.0290   25.3920   32.0600 N   0  0  0  0  0  0  0  0  0  0  0  0
   37.2900   24.0790   32.2260 C   0  0  0  0  0  0  0  0  0  0  0  0
   37.7800   23.5730   33.3950 N   0  0  0  0  0  0  0  0  0  0  0  0
   37.9100   26.4880   35.0250 H   0  0  0  0  0  0  0  0  0  0  0  0
   36.9640   27.6460   32.8540 N   0  0  0  0  0  0  0  0  0  0  0  0
   36.6690   28.2690   33.6350 H   0  0  0  0  0  0  0  0  0  0  0  0
   37.0380   23.1400   31.1120 C   0  0  0  0  0  0  0  0  0  0  0  0
   37.8070   23.4540   30.0110 F   0  0  0  0  0  0  0  0  0  0  0  0
   35.6940   23.2320   30.7600 F   0  0  0  0  0  0  0  0  0  0  0  0
   37.2510   21.8500   31.5370 F   0  0  0  0  0  0  0  0  0  0  0  0
   37.1110   28.2860   31.2640 S   0  0  0  0  0  0  0  0  0  0  0  0
   36.7540   29.7270   31.1950 O   0  0  0  0  0  1  0  0  0  0  0  0
   38.5430   28.1660   30.8390 O   0  0  0  0  0  1  0  0  0  0  0  0
   36.2090   27.4050   30.1490 O   0  0  0  0  0  0  0  0  0  0  0  0
   35.8880   28.0450   29.4640 H   0  0  0  0  0  0  0  0  0  0  0  0
  1  9  1  0  0  0  0
  1  2  1  0  0  0  0
  2  7  1  0  0  0  0
  3  2  2  0  0  0  0
  3  8  1  0  0  0  0
  4  3  1  0  0  0  0
  5  6  1  0  0  0  0
  5  4  2  0  0  0  0
  6  1  2  0  0  0  0
  9 14  1  0  0  0  0
 10  9  1  0  0  0  0
 10 16  1  0  0  0  0
 11 12  1  0  0  0  0
 11 18  1  0  0  0  0
 11 10  1  0  0  0  0
 12 13  1  0  0  0  0
 12 19  1  0  0  0  0
 13 20  1  0  0  0  0
 13 14  1  0  0  0  0
 14 22  1  0  0  0  0
 14 23  1  0  0  0  0
 15 10  1  0  0  0  0
 17 11  1  0  0  0  0
 21 13  1  0  0  0  0
 24  5  1  0  0  0  0
 25 24  1  0  0  0  0
 25 30  1  0  0  0  0
 26 25  2  0  0  0  0
 27 28  2  0  0  0  0
 27 26  1  0  0  0  0
 28 29  1  0  0  0  0
 29 24  2  0  0  0  0
 31 26  1  0  0  0  0
 31 32  1  0  0  0  0
 33 36  1  0  0  0  0
 33 28  1  0  0  0  0
 34 33  1  0  0  0  0
 35 33  1  0  0  0  0
 37 31  1  0  0  0  0
 38 37  1  0  0  0  0
 39 37  1  0  0  0  0
 40 37  1  0  0  0  0
 41 40  1  0  0  0  0
M  END
>  <minimizedAffinity>
-6.02329874

$$$$

 OpenBabel03272504363D

 41 43  0  0  0  0  0  0  0  0999 V2000
   38.0990   24.7930   34.7960 C   0  0  0  0  0  0  0  0  0  0  0  0
   37.9980   23.8780   33.7630 C   0  0  0  0  0  0  0  0  0  0  0  0
   37.4360   24.2660   32.5420 C   0  0  0  0  0  0  0  0  0  0  0  0
   37.0060   25.5560   32.4340 N   0  0  0  0  0  0  0  0  0  0  0  0
   37.1220   26.4270   33.4740 C   0  0  0  0  0  0  0  0  0  0  0  0
   37.6610   26.0560   34.6430 N   0  0  0  0  0  0  0  0  0  0  0  0
   38.3660   22.8740   33.9380 H   0  0  0  0  0  0  0  0  0  0  0  0
   37.3550   23.5660   31.7440 H   0  0  0  0  0  0  0  0  0  0  0  0
   38.6640   24.4430   36.0540 N   0  0  0  0  0  0  0  0  0  0  0  0
   39.9250   23.7120   36.1610 C   0  0  0  0  0  0  0  0  0  0  0  0
   39.9310   22.6240   37.1650 C   0  0  0  0  0  0  0  0  0  0  0  0
   39.0740   22.7460   38.2660 N   0  0  0  0  0  0  0  0  0  0  0  0
   37.7970   23.3770   37.9700 C   0  0  0  0  0  0  0  0  0  0  0  0
   38.1530   24.7160   37.3440 C   0  0  0  0  0  0  0  0  0  0  0  0
   40.0960   23.2610   35.1540 H   0  0  0  0  0  0  0  0  0  0  0  0
   40.7770   24.4220   36.2920 H   0  0  0  0  0  0  0  0  0  0  0  0
   39.7660   21.6350   36.6800 H   0  0  0  0  0  0  0  0  0  0  0  0
   40.9890   22.5660   37.5590 H   0  0  0  0  0  0  0  0  0  0  0  0
   39.4610   23.0080   39.1770 H   0  0  0  0  0  0  0  0  0  0  0  0
   37.2950   23.6310   38.9430 H   0  0  0  0  0  0  0  0  0  0  0  0
   37.1330   22.7660   37.3630 H   0  0  0  0  0  0  0  0  0  0  0  0
   37.2590   25.3950   37.3300 H   0  0  0  0  0  0  0  0  0  0  0  0
   38.8940   25.2010   38.0090 H   0  0  0  0  0  0  0  0  0  0  0  0
   36.6450   27.7930   33.2990 C   0  0  0  0  0  0  0  0  0  0  0  0
   36.0850   28.4700   34.3740 C   0  0  0  0  0  0  0  0  0  0  0  0
   35.6230   29.7580   34.2480 C   0  0  0  0  0  0  0  0  0  0  0  0
   35.7360   30.3490   33.0290 N   0  0  0  0  0  0  0  0  0  0  0  0
   36.2830   29.6790   31.9940 C   0  0  0  0  0  0  0  0  0  0  0  0
   36.7420   28.4000   32.1100 N   0  0  0  0  0  0  0  0  0  0  0  0
   35.9820   28.0360   35.3450 H   0  0  0  0  0  0  0  0  0  0  0  0
   35.0420   30.4980   35.3130 N   0  0  0  0  0  0  0  0  0  0  0  0
   34.5180   30.0260   36.0790 H   0  0  0  0  0  0  0  0  0  0  0  0
   36.3950   30.3420   30.6760 C   0  0  0  0  0  0  0  0  0  0  0  0
   37.4450   31.2350   30.6540 F   0  0  0  0  0  0  0  0  0  0  0  0
   35.2120   31.0360   30.4370 F   0  0  0  0  0  0  0  0  0  0  0  0
   36.5050   29.3920   29.6890 F   0  0  0  0  0  0  0  0  0  0  0  0
   35.2130   32.2100   35.3270 S   0  0  0  0  0  0  0  0  0  0  0  0
   34.4530   32.8490   36.4320 O   0  0  0  0  0  1  0  0  0  0  0  0
   36.6600   32.5360   35.5410 O   0  0  0  0  0  1  0  0  0  0  0  0
   34.7850   32.8940   33.8500 O   0  0  0  0  0  0  0  0  0  0  0  0
   34.3870   33.7810   34.0450 H   0  0  0  0  0  0  0  0  0  0  0  0
  1  9  1  0  0  0  0
  2  7  1  0  0  0  0
  2  1  2  0  0  0  0
  3  2  1  0  0  0  0
  4  3  2  0  0  0  0
  4  5  1  0  0  0  0
  5  6  2  0  0  0  0
  6  1  1  0  0  0  0
  8  3  1  0  0  0  0
  9 10  1  0  0  0  0
  9 14  1  0  0  0  0
 10 16  1  0  0  0  0
 10 11  1  0  0  0  0
 11 18  1  0  0  0  0
 11 12  1  0  0  0  0
 12 19  1  0  0  0  0
 13 12  1  0  0  0  0
 13 20  1  0  0  0  0
 14 13  1  0  0  0  0
 14 23  1  0  0  0  0
 15 10  1  0  0  0  0
 17 11  1  0  0  0  0
 21 13  1  0  0  0  0
 22 14  1  0  0  0  0
 24  5  1  0  0  0  0
 24 25  1  0  0  0  0
 25 30  1  0  0  0  0
 26 25  2  0  0  0  0
 26 31  1  0  0  0  0
 27 26  1  0  0  0  0
 28 29  1  0  0  0  0
 28 27  2  0  0  0  0
 29 24  2  0  0  0  0
 31 37  1  0  0  0  0
 31 32  1  0  0  0  0
 33 28  1  0  0  0  0
 34 33  1  0  0  0  0
 35 33  1  0  0  0  0
 36 33  1  0  0  0  0
 37 39  1  0  0  0  0
 37 38  1  0  0  0  0
 40 41  1  0  0  0  0
 40 37  1  0  0  0  0
M  END
>  <minimizedAffinity>
-5.96688318

$$$$

 OpenBabel03272504363D

 41 43  0  0  0  0  0  0  0  0999 V2000
   35.5870   30.1320   33.9960 C   0  0  0  0  0  0  0  0  0  0  0  0
   35.6510   30.7230   32.7460 C   0  0  0  0  0  0  0  0  0  0  0  0
   36.1590   30.0010   31.6600 C   0  0  0  0  0  0  0  0  0  0  0  0
   36.5730   28.7230   31.8990 N   0  0  0  0  0  0  0  0  0  0  0  0
   36.4930   28.1760   33.1420 C   0  0  0  0  0  0  0  0  0  0  0  0
   36.0070   28.8660   34.1820 N   0  0  0  0  0  0  0  0  0  0  0  0
   35.3000   31.7420   32.6510 H   0  0  0  0  0  0  0  0  0  0  0  0
   36.2120   30.4510   30.6980 H   0  0  0  0  0  0  0  0  0  0  0  0
   35.0780   30.8260   35.1280 N   0  0  0  0  0  0  0  0  0  0  0  0
   33.6500   30.8650   35.4370 C   0  0  0  0  0  0  0  0  0  0  0  0
   33.1350   32.1910   35.8460 C   0  0  0  0  0  0  0  0  0  0  0  0
   34.0290   33.0760   36.4630 N   0  0  0  0  0  0  0  0  0  0  0  0
   35.3900   33.0140   35.9500 C   0  0  0  0  0  0  0  0  0  0  0  0
   35.8020   31.5570   36.0990 C   0  0  0  0  0  0  0  0  0  0  0  0
   33.1310   30.5620   34.4950 H   0  0  0  0  0  0  0  0  0  0  0  0
   33.3870   30.0590   36.1650 H   0  0  0  0  0  0  0  0  0  0  0  0
   32.6400   32.7060   34.9910 H   0  0  0  0  0  0  0  0  0  0  0  0
   32.2950   31.9920   36.5740 H   0  0  0  0  0  0  0  0  0  0  0  0
   33.9760   33.2200   37.4750 H   0  0  0  0  0  0  0  0  0  0  0  0
   36.0580   33.5810   36.6540 H   0  0  0  0  0  0  0  0  0  0  0  0
   35.5010   33.4060   34.9430 H   0  0  0  0  0  0  0  0  0  0  0  0
   36.9140   31.4500   35.9930 H   0  0  0  0  0  0  0  0  0  0  0  0
   35.5610   31.2540   37.1360 H   0  0  0  0  0  0  0  0  0  0  0  0
   36.9510   26.8060   33.3350 C   0  0  0  0  0  0  0  0  0  0  0  0
   37.6570   26.4700   34.4820 C   0  0  0  0  0  0  0  0  0  0  0  0
   38.1060   25.1900   34.6990 C   0  0  0  0  0  0  0  0  0  0  0  0
   37.8310   24.2590   33.7470 N   0  0  0  0  0  0  0  0  0  0  0  0
   37.1430   24.5990   32.6380 C   0  0  0  0  0  0  0  0  0  0  0  0
   36.6950   25.8690   32.4150 N   0  0  0  0  0  0  0  0  0  0  0  0
   37.8890   27.1770   35.2490 H   0  0  0  0  0  0  0  0  0  0  0  0
   38.8320   24.7900   35.8530 N   0  0  0  0  0  0  0  0  0  0  0  0
   39.4530   25.4550   36.3610 H   0  0  0  0  0  0  0  0  0  0  0  0
   36.8560   23.5700   31.6150 C   0  0  0  0  0  0  0  0  0  0  0  0
   37.0610   24.0610   30.3430 F   0  0  0  0  0  0  0  0  0  0  0  0
   35.5220   23.1920   31.7400 F   0  0  0  0  0  0  0  0  0  0  0  0
   37.6120   22.4490   31.8640 F   0  0  0  0  0  0  0  0  0  0  0  0
   38.6760   23.1720   36.4160 S   0  0  0  0  0  0  0  0  0  0  0  0
   39.5930   22.8710   37.5450 O   0  0  0  0  0  1  0  0  0  0  0  0
   37.2770   22.9830   36.9220 O   0  0  0  0  0  1  0  0  0  0  0  0
   38.8880   22.0550   35.1750 O   0  0  0  0  0  0  0  0  0  0  0  0
   39.3160   21.2550   35.5750 H   0  0  0  0  0  0  0  0  0  0  0  0
  1  6  1  0  0  0  0
  1  9  1  0  0  0  0
  2  1  2  0  0  0  0
  3  4  2  0  0  0  0
  3  2  1  0  0  0  0
  4  5  1  0  0  0  0
  5 24  1  0  0  0  0
  5  6  2  0  0  0  0
  7  2  1  0  0  0  0
  8  3  1  0  0  0  0
  9 10  1  0  0  0  0
  9 14  1  0  0  0  0
 10 11  1  0  0  0  0
 10 16  1  0  0  0  0
 11 12  1  0  0  0  0
 11 18  1  0  0  0  0
 12 19  1  0  0  0  0
 13 14  1  0  0  0  0
 13 12  1  0  0  0  0
 13 20  1  0  0  0  0
 14 23  1  0  0  0  0
 15 10  1  0  0  0  0
 17 11  1  0  0  0  0
 21 13  1  0  0  0  0
 22 14  1  0  0  0  0
 24 25  1  0  0  0  0
 25 26  2  0  0  0  0
 25 30  1  0  0  0  0
 26 31  1  0  0  0  0
 27 26  1  0  0  0  0
 28 27  2  0  0  0  0
 29 28  1  0  0  0  0
 29 24  2  0  0  0  0
 31 32  1  0  0  0  0
 31 37  1  0  0  0  0
 33 35  1  0  0  0  0
 33 36  1  0  0  0  0
 33 28  1  0  0  0  0
 34 33  1  0  0  0  0
 37 39  1  0  0  0  0
 37 38  1  0  0  0  0
 40 41  1  0  0  0  0
 40 37  1  0  0  0  0
M  END
>  <minimizedAffinity>
-5.86746979

$$$$

 OpenBabel03272504363D

 41 43  0  0  0  0  0  0  0  0999 V2000
   38.3370   23.8100   34.6320 C   0  0  0  0  0  0  0  0  0  0  0  0
   38.2020   22.5970   33.9800 C   0  0  0  0  0  0  0  0  0  0  0  0
   37.7390   22.5650   32.6590 C   0  0  0  0  0  0  0  0  0  0  0  0
   37.4380   23.7590   32.0740 N   0  0  0  0  0  0  0  0  0  0  0  0
   37.5840   24.9330   32.7480 C   0  0  0  0  0  0  0  0  0  0  0  0
   38.0270   24.9640   34.0120 N   0  0  0  0  0  0  0  0  0  0  0  0
   38.4650   21.6990   34.5230 H   0  0  0  0  0  0  0  0  0  0  0  0
   37.6320   21.6350   32.1530 H   0  0  0  0  0  0  0  0  0  0  0  0
   38.8050   23.8920   35.9730 N   0  0  0  0  0  0  0  0  0  0  0  0
   40.1000   23.3480   36.3770 C   0  0  0  0  0  0  0  0  0  0  0  0
   40.0900   22.5980   37.6540 C   0  0  0  0  0  0  0  0  0  0  0  0
   39.1260   22.9470   38.6090 N   0  0  0  0  0  0  0  0  0  0  0  0
   37.8400   23.3390   38.0520 C   0  0  0  0  0  0  0  0  0  0  0  0
   38.1550   24.4720   37.0880 C   0  0  0  0  0  0  0  0  0  0  0  0
   40.3980   22.6460   35.5610 H   0  0  0  0  0  0  0  0  0  0  0  0
   40.8810   24.1450   36.3530 H   0  0  0  0  0  0  0  0  0  0  0  0
   40.0440   21.5000   37.4700 H   0  0  0  0  0  0  0  0  0  0  0  0
   41.1070   22.7580   38.1200 H   0  0  0  0  0  0  0  0  0  0  0  0
   39.4050   23.4950   39.4270 H   0  0  0  0  0  0  0  0  0  0  0  0
   37.2310   23.8110   38.8710 H   0  0  0  0  0  0  0  0  0  0  0  0
   37.2830   22.5190   37.6060 H   0  0  0  0  0  0  0  0  0  0  0  0
   37.2190   25.0270   36.8130 H   0  0  0  0  0  0  0  0  0  0  0  0
   38.7930   25.1950   37.6310 H   0  0  0  0  0  0  0  0  0  0  0  0
   37.2460   26.1770   32.0700 C   0  0  0  0  0  0  0  0  0  0  0  0
   36.1680   26.9320   32.5120 C   0  0  0  0  0  0  0  0  0  0  0  0
   35.8180   28.1110   31.8980 C   0  0  0  0  0  0  0  0  0  0  0  0
   36.5690   28.5130   30.8390 N   0  0  0  0  0  0  0  0  0  0  0  0
   37.6140   27.7690   30.4200 C   0  0  0  0  0  0  0  0  0  0  0  0
   37.9670   26.5980   31.0240 N   0  0  0  0  0  0  0  0  0  0  0  0
   35.5580   26.6450   33.3410 H   0  0  0  0  0  0  0  0  0  0  0  0
   34.7270   28.9230   32.3070 N   0  0  0  0  0  0  0  0  0  0  0  0
   33.8800   28.5110   32.7510 H   0  0  0  0  0  0  0  0  0  0  0  0
   38.4160   28.2260   29.2650 C   0  0  0  0  0  0  0  0  0  0  0  0
   39.2380   29.2770   29.6120 F   0  0  0  0  0  0  0  0  0  0  0  0
   37.5410   28.6530   28.2690 F   0  0  0  0  0  0  0  0  0  0  0  0
   39.1230   27.1680   28.7460 F   0  0  0  0  0  0  0  0  0  0  0  0
   34.8160   30.6230   32.0590 S   0  0  0  0  0  0  0  0  0  0  0  0
   33.5750   31.3250   32.4760 O   0  0  0  0  0  1  0  0  0  0  0  0
   35.9320   31.1630   32.9030 O   0  0  0  0  0  1  0  0  0  0  0  0
   35.1970   31.0040   30.4650 O   0  0  0  0  0  0  0  0  0  0  0  0
   34.7300   31.8520   30.2490 H   0  0  0  0  0  0  0  0  0  0  0  0
  1  9  1  0  0  0  0
  2  7  1  0  0  0  0
  2  1  2  0  0  0  0
  3  2  1  0  0  0  0
  4  3  2  0  0  0  0
  4  5  1  0  0  0  0
  5  6  2  0  0  0  0
  6  1  1  0  0  0  0
  8  3  1  0  0  0  0
  9 10  1  0  0  0  0
  9 14  1  0  0  0  0
 10 11  1  0  0  0  0
 11 18  1  0  0  0  0
 11 12  1  0  0  0  0
 12 19  1  0  0  0  0
 13 12  1  0  0  0  0
 13 20  1  0  0  0  0
 14 23  1  0  0  0  0
 14 13  1  0  0  0  0
 15 10  1  0  0  0  0
 16 10  1  0  0  0  0
 17 11  1  0  0  0  0
 21 13  1  0  0  0  0
 22 14  1  0  0  0  0
 24 25  1  0  0  0  0
 24  5  1  0  0  0  0
 25 30  1  0  0  0  0
 26 31  1  0  0  0  0
 26 25  2  0  0  0  0
 27 26  1  0  0  0  0
 28 27  2  0  0  0  0
 28 29  1  0  0  0  0
 29 24  2  0  0  0  0
 31 32  1  0  0  0  0
 33 34  1  0  0  0  0
 33 28  1  0  0  0  0
 35 33  1  0  0  0  0
 36 33  1  0  0  0  0
 37 31  1  0  0  0  0
 37 38  1  0  0  0  0
 37 39  1  0  0  0  0
 40 37  1  0  0  0  0
 41 40  1  0  0  0  0
M  END
>  <minimizedAffinity>
-5.85740471

$$$$

 OpenBabel03272504363D

 41 43  0  0  0  0  0  0  0  0999 V2000
   34.6660   31.1690   33.4710 C   0  0  0  0  0  0  0  0  0  0  0  0
   34.6040   31.8190   32.2510 C   0  0  0  0  0  0  0  0  0  0  0  0
   35.0560   31.1730   31.0950 C   0  0  0  0  0  0  0  0  0  0  0  0
   35.5480   29.9080   31.2380 N   0  0  0  0  0  0  0  0  0  0  0  0
   35.5930   29.3020   32.4560 C   0  0  0  0  0  0  0  0  0  0  0  0
   35.1590   29.9200   33.5630 N   0  0  0  0  0  0  0  0  0  0  0  0
   34.1980   32.8230   32.2320 H   0  0  0  0  0  0  0  0  0  0  0  0
   35.0110   31.6680   30.1540 H   0  0  0  0  0  0  0  0  0  0  0  0
   34.2170   31.7860   34.6720 N   0  0  0  0  0  0  0  0  0  0  0  0
   35.1210   32.5340   35.5450 C   0  0  0  0  0  0  0  0  0  0  0  0
   34.9550   32.2650   36.9910 C   0  0  0  0  0  0  0  0  0  0  0  0
   33.6900   31.8630   37.4390 N   0  0  0  0  0  0  0  0  0  0  0  0
   32.9650   31.0080   36.5120 C   0  0  0  0  0  0  0  0  0  0  0  0
   32.9100   31.7930   35.2110 C   0  0  0  0  0  0  0  0  0  0  0  0
   36.1510   32.2230   35.2460 H   0  0  0  0  0  0  0  0  0  0  0  0
   35.0820   33.6230   35.3020 H   0  0  0  0  0  0  0  0  0  0  0  0
   35.7200   31.5410   37.3510 H   0  0  0  0  0  0  0  0  0  0  0  0
   35.2150   33.2290   37.5210 H   0  0  0  0  0  0  0  0  0  0  0  0
   33.0940   32.5340   37.9320 H   0  0  0  0  0  0  0  0  0  0  0  0
   31.8980   30.9370   36.8580 H   0  0  0  0  0  0  0  0  0  0  0  0
   33.3850   30.0100   36.4100 H   0  0  0  0  0  0  0  0  0  0  0  0
   32.1450   31.3530   34.5170 H   0  0  0  0  0  0  0  0  0  0  0  0
   32.5500   32.8110   35.4580 H   0  0  0  0  0  0  0  0  0  0  0  0
   36.1290   27.9500   32.5460 C   0  0  0  0  0  0  0  0  0  0  0  0
   37.1590   27.6750   33.4340 C   0  0  0  0  0  0  0  0  0  0  0  0
   37.6910   26.4130   33.5470 C   0  0  0  0  0  0  0  0  0  0  0  0
   37.1680   25.4400   32.7550 N   0  0  0  0  0  0  0  0  0  0  0  0
   36.1660   25.7210   31.8970 C   0  0  0  0  0  0  0  0  0  0  0  0
   35.6340   26.9720   31.7780 N   0  0  0  0  0  0  0  0  0  0  0  0
   37.5920   28.4160   34.0700 H   0  0  0  0  0  0  0  0  0  0  0  0
   38.7440   26.0740   34.4380 N   0  0  0  0  0  0  0  0  0  0  0  0
   39.4690   26.7710   34.7100 H   0  0  0  0  0  0  0  0  0  0  0  0
   35.6140   24.6460   31.0450 C   0  0  0  0  0  0  0  0  0  0  0  0
   34.6390   25.1300   30.1990 F   0  0  0  0  0  0  0  0  0  0  0  0
   35.0490   23.6810   31.8740 F   0  0  0  0  0  0  0  0  0  0  0  0
   36.6340   24.0320   30.3580 F   0  0  0  0  0  0  0  0  0  0  0  0
   38.8150   24.4780   35.0750 S   0  0  0  0  0  0  0  0  0  0  0  0
   40.0880   24.2060   35.7900 O   0  0  0  0  0  1  0  0  0  0  0  0
   37.7070   24.3210   36.0730 O   0  0  0  0  0  1  0  0  0  0  0  0
   38.5520   23.3170   33.8850 O   0  0  0  0  0  0  0  0  0  0  0  0
   39.1010   22.5270   34.1240 H   0  0  0  0  0  0  0  0  0  0  0  0
  1  6  1  0  0  0  0
  1  9  1  0  0  0  0
  2  1  2  0  0  0  0
  3  4  2  0  0  0  0
  3  2  1  0  0  0  0
  4  5  1  0  0  0  0
  5 24  1  0  0  0  0
  5  6  2  0  0  0  0
  7  2  1  0  0  0  0
  8  3  1  0  0  0  0
  9 14  1  0  0  0  0
  9 10  1  0  0  0  0
 10 11  1  0  0  0  0
 11 17  1  0  0  0  0
 11 12  1  0  0  0  0
 11 18  1  0  0  0  0
 12 19  1  0  0  0  0
 13 20  1  0  0  0  0
 13 12  1  0  0  0  0
 14 23  1  0  0  0  0
 14 13  1  0  0  0  0
 15 10  1  0  0  0  0
 16 10  1  0  0  0  0
 21 13  1  0  0  0  0
 22 14  1  0  0  0  0
 24 25  1  0  0  0  0
 25 26  2  0  0  0  0
 25 30  1  0  0  0  0
 26 31  1  0  0  0  0
 27 26  1  0  0  0  0
 28 27  2  0  0  0  0
 29 28  1  0  0  0  0
 29 24  2  0  0  0  0
 31 32  1  0  0  0  0
 31 37  1  0  0  0  0
 33 35  1  0  0  0  0
 33 28  1  0  0  0  0
 34 33  1  0  0  0  0
 36 33  1  0  0  0  0
 37 38  1  0  0  0  0
 37 39  1  0  0  0  0
 40 41  1  0  0  0  0
 40 37  1  0  0  0  0
M  END
>  <minimizedAffinity>
-5.83245373

$$$$
