
 OpenBabel03262521043D

 26 27  0  0  0  0  0  0  0  0999 V2000
   38.4490   32.4730   48.2460 Br  0  0  0  0  0  0  0  0  0  0  0  0
   37.5030   31.6100   46.8590 C   0  0  0  0  0  0  0  0  0  0  0  0
   36.6390   30.6240   47.2410 C   0  0  0  0  0  0  0  0  0  0  0  0
   35.9000   29.9370   46.2770 C   0  0  0  0  0  0  0  0  0  0  0  0
   36.0560   30.2680   44.9360 C   0  0  0  0  0  0  0  0  0  0  0  0
   36.9310   31.2580   44.6250 C   0  0  0  0  0  0  0  0  0  0  0  0
   37.6660   31.9450   45.5510 C   0  0  0  0  0  0  0  0  0  0  0  0
   35.1950   29.1420   46.5090 H   0  0  0  0  0  0  0  0  0  0  0  0
   35.4780   29.7310   44.1840 H   0  0  0  0  0  0  0  0  0  0  0  0
   37.0250   31.4870   43.5740 H   0  0  0  0  0  0  0  0  0  0  0  0
   37.3200   29.6190   49.4680 C   0  0  0  0  0  0  0  0  0  0  0  0
   36.3620   30.1570   48.6040 C   0  0  0  0  0  0  0  0  0  0  0  0
   35.0300   30.2560   49.0870 C   0  0  0  0  0  0  0  0  0  0  0  0
   34.7900   29.8140   50.3660 N   0  0  0  0  0  0  0  0  0  0  0  0
   35.7510   29.3090   51.1410 C   0  0  0  0  0  0  0  0  0  0  0  0
   37.0120   29.2070   50.7030 N   0  0  0  0  0  0  0  0  0  0  0  0
   38.3320   29.5490   49.0860 H   0  0  0  0  0  0  0  0  0  0  0  0
   34.2280   30.6660   48.4700 H   0  0  0  0  0  0  0  0  0  0  0  0
   35.3730   29.0110   52.1210 H   0  0  0  0  0  0  0  0  0  0  0  0
   38.5830   32.9800   45.2380 N   0  0  0  0  0  0  0  0  0  0  0  0
   38.3930   33.9720   45.4990 H   0  0  0  0  0  0  0  0  0  0  0  0
   40.0870   33.0150   44.4540 S   0  0  0  0  0  0  0  0  0  0  0  0
   40.0820   32.1410   43.2350 O   0  0  0  0  0  0  0  0  0  0  0  0
   41.1590   32.4840   45.3780 O   0  0  0  0  0  0  0  0  0  0  0  0
   40.4340   34.6110   44.0110 O   0  0  0  0  0  0  0  0  0  0  0  0
   39.8340   34.7770   43.2190 H   0  0  0  0  0  0  0  0  0  0  0  0
  2  3  1  0  0  0  0
  2  1  1  0  0  0  0
  3 12  1  0  0  0  0
  4  8  1  0  0  0  0
  4  3  2  0  0  0  0
  5  4  1  0  0  0  0
  6  5  2  0  0  0  0
  6  7  1  0  0  0  0
  7  2  2  0  0  0  0
  9  5  1  0  0  0  0
 10  6  1  0  0  0  0
 11 16  1  0  0  0  0
 12 13  1  0  0  0  0
 12 11  2  0  0  0  0
 13 14  2  0  0  0  0
 14 15  1  0  0  0  0
 15 19  1  0  0  0  0
 16 15  2  0  0  0  0
 17 11  1  0  0  0  0
 18 13  1  0  0  0  0
 20 21  1  0  0  0  0
 20  7  1  0  0  0  0
 22 20  1  0  0  0  0
 22 24  1  0  0  0  0
 23 22  1  0  0  0  0
 25 22  1  0  0  0  0
 26 25  1  0  0  0  0
M  END
>  <minimizedAffinity>
-4.99006891

>  <minimizedRMSD>
2.4756763

$$$$
