
     RDKit          3D

 44 46  0  0  0  0  0  0  0  0999 V2000
   37.3365   30.1786   51.5186 C   0  0  0  0  0  0  0  0  0  0  0  0
   38.0603   30.8644   50.5214 C   0  0  0  0  0  0  0  0  0  0  0  0
   37.7023   30.6559   49.2032 C   0  0  0  0  0  0  0  0  0  0  0  0
   36.6644   29.7919   48.9797 N   0  0  0  0  0  0  0  0  0  0  0  0
   35.9861   29.1473   49.9401 C   0  0  0  0  0  0  0  0  0  0  0  0
   36.3331   29.3490   51.2248 N   0  0  0  0  0  0  0  0  0  0  0  0
   38.9405   33.2617   49.0127 F   0  0  0  0  0  0  0  0  0  0  0  0
   38.9116   32.4785   47.9491 C   0  0  0  0  0  0  0  0  0  0  0  0
   38.3332   31.2736   48.0562 C   0  0  0  0  0  0  0  0  0  0  0  0
   38.3576   30.5273   46.8730 C   0  0  0  0  0  0  0  0  0  0  0  0
   38.9223   30.9921   45.7161 C   0  0  0  0  0  0  0  0  0  0  0  0
   39.5028   32.2281   45.6484 C   0  0  0  0  0  0  0  0  0  0  0  0
   39.4884   32.9703   46.7928 C   0  0  0  0  0  0  0  0  0  0  0  0
   35.0002   28.3466   49.4520 O   0  0  0  0  0  0  0  0  0  0  0  0
   34.4499   28.6363   48.1711 C   0  0  0  0  0  0  0  0  0  0  0  0
   33.5571   27.5342   47.7132 C   0  0  0  0  0  0  0  0  0  0  0  0
   32.1142   27.8918   47.7504 C   0  0  0  0  0  0  0  0  0  0  0  0
   31.3729   27.4822   48.8434 C   0  0  0  0  0  0  0  0  0  0  0  0
   30.0368   27.7632   48.9685 C   0  0  0  0  0  0  0  0  0  0  0  0
   29.4271   28.4609   47.9951 N   0  0  0  0  0  0  0  0  0  0  0  0
   30.1681   28.8524   46.9349 C   0  0  0  0  0  0  0  0  0  0  0  0
   31.4717   28.5961   46.7804 N   0  0  0  0  0  0  0  0  0  0  0  0
   29.4499   29.6317   45.8651 C   0  0  0  0  0  0  0  0  0  0  0  0
   37.6265   30.3502   52.5502 H   0  0  0  0  0  0  0  0  0  0  0  0
   38.8650   31.5327   50.7165 H   0  0  0  0  0  0  0  0  0  0  0  0
   37.9097   29.5219   46.8489 H   0  0  0  0  0  0  0  0  0  0  0  0
   38.9148   30.3723   44.8241 H   0  0  0  0  0  0  0  0  0  0  0  0
   39.9337   32.5471   44.7129 H   0  0  0  0  0  0  0  0  0  0  0  0
   39.9413   33.9586   46.7753 H   0  0  0  0  0  0  0  0  0  0  0  0
   35.2882   28.8184   47.4539 H   0  0  0  0  0  0  0  0  0  0  0  0
   33.8992   29.6125   48.2674 H   0  0  0  0  0  0  0  0  0  0  0  0
   33.7224   26.5704   48.2281 H   0  0  0  0  0  0  0  0  0  0  0  0
   33.8044   27.3208   46.6339 H   0  0  0  0  0  0  0  0  0  0  0  0
   31.8142   26.9194   49.6526 H   0  0  0  0  0  0  0  0  0  0  0  0
   29.4585   27.4481   49.8131 H   0  0  0  0  0  0  0  0  0  0  0  0
   28.6496   30.2681   46.2677 H   0  0  0  0  0  0  0  0  0  0  0  0
   30.1665   30.2977   45.3575 H   0  0  0  0  0  0  0  0  0  0  0  0
   28.9544   28.6393   44.9335 N   0  0  0  0  0  0  0  0  0  0  0  0
   29.6137   28.4485   44.1598 H   0  0  0  0  0  0  0  0  0  0  0  0
   28.6123   27.1431   45.7243 S   0  0  0  0  0  0  0  0  0  0  0  0
   27.7108   27.4259   46.8717 O   0  0  0  0  0  0  0  0  0  0  0  0
   29.9406   26.5631   46.1372 O   0  0  0  0  0  0  0  0  0  0  0  0
   27.8891   26.0510   44.6983 O   0  0  0  0  0  0  0  0  0  0  0  0
   26.9072   26.2195   44.5571 H   0  0  0  0  0  0  0  0  0  0  0  0
  2  1  2  0
  3  2  1  0
  4  3  2  0
  4  5  1  0
  5  6  2  0
  6  1  1  0
  8  9  2  0
  8  7  1  0
  9  3  1  0
 10  9  1  0
 11 10  2  0
 12 11  1  0
 12 13  2  0
 13  8  1  0
 14  5  1  0
 15 14  1  0
 16 17  1  0
 16 15  1  0
 17 18  2  0
 18 19  1  0
 20 19  2  0
 21 20  1  0
 22 21  2  0
 22 17  1  0
 23 21  1  0
  1 24  1  0
  2 25  1  0
 10 26  1  0
 11 27  1  0
 12 28  1  0
 13 29  1  0
 15 30  1  0
 15 31  1  0
 16 32  1  0
 16 33  1  0
 18 34  1  0
 19 35  1  0
 23 36  1  0
 23 37  1  0
 38 39  1  0
 38 40  1  0
 40 41  2  0
 40 42  2  0
 40 43  1  0
 43 44  1  0
 23 38  1  0
M  ISO  8  24  14  25  14  26  14  27  14  28  14  29  14  30   8  31   8
M  ISO  8  32   8  33   8  34  14  35  14  36   8  37   8  39   5  44   3
M  END
>  <DihAtoms>  (1) 
20,22,37,38

>  <DihDeg>  (1) 
58.158296343994294

$$$$
