
 OpenBabel03272509003D

 29 30  0  0  0  0  0  0  0  0999 V2000
   37.6550   31.6200   47.1440 Cl  0  0  0  0  0  0  0  0  0  0  0  0
   36.4770   30.6380   46.3070 C   0  0  0  0  0  0  0  0  0  0  0  0
   36.6310   30.3920   44.9520 C   0  0  0  0  0  0  0  0  0  0  0  0
   35.7310   29.6290   44.2620 C   0  0  0  0  0  0  0  0  0  0  0  0
   34.6350   29.0790   44.8940 C   0  0  0  0  0  0  0  0  0  0  0  0
   34.4460   29.3040   46.2510 C   0  0  0  0  0  0  0  0  0  0  0  0
   33.1100   28.6810   47.1860 Cl  0  0  0  0  0  0  0  0  0  0  0  0
   35.3860   30.0840   46.9120 C   0  0  0  0  0  0  0  0  0  0  0  0
   35.8470   29.4350   43.2060 H   0  0  0  0  0  0  0  0  0  0  0  0
   33.8970   28.4710   44.3880 H   0  0  0  0  0  0  0  0  0  0  0  0
   38.7750   32.6910   43.0700 C   0  0  0  0  0  0  0  0  0  0  0  0
   39.9710   31.9880   42.9460 C   0  0  0  0  0  0  0  0  0  0  0  0
   40.0270   30.6900   43.5300 C   0  0  0  0  0  0  0  0  0  0  0  0
   38.9180   30.2290   44.1640 N   0  0  0  0  0  0  0  0  0  0  0  0
   37.7700   30.9570   44.2580 C   0  0  0  0  0  0  0  0  0  0  0  0
   37.7200   32.1800   43.7060 N   0  0  0  0  0  0  0  0  0  0  0  0
   38.8170   33.6700   42.5980 H   0  0  0  0  0  0  0  0  0  0  0  0
   40.8680   32.2980   42.4620 H   0  0  0  0  0  0  0  0  0  0  0  0
   40.8830   30.0240   43.5170 H   0  0  0  0  0  0  0  0  0  0  0  0
   35.2110   30.3430   48.3870 C   0  0  0  0  0  0  0  0  0  0  0  0
   34.1500   30.2980   48.6150 H   0  0  0  0  0  0  0  0  0  0  0  0
   35.6170   31.3620   48.5550 H   0  0  0  0  0  0  0  0  0  0  0  0
   36.0160   29.4230   49.1530 N   0  0  0  0  0  0  0  0  0  0  0  0
   36.5770   28.7820   48.5560 H   0  0  0  0  0  0  0  0  0  0  0  0
   36.9920   30.1890   50.3310 S   0  0  0  0  0  0  0  0  0  0  0  0
   36.7040   31.6580   50.4320 O   0  0  0  0  0  0  0  0  0  0  0  0
   36.5630   29.6040   51.6710 O   0  0  0  0  0  0  0  0  0  0  0  0
   38.6100   29.9230   50.1950 O   0  0  0  0  0  0  0  0  0  0  0  0
   39.1880   30.7170   50.1730 H   0  0  0  0  0  0  0  0  0  0  0  0
  2  8  1  0  0  0  0
  2  1  1  0  0  0  0
  3  2  2  0  0  0  0
  4  5  2  0  0  0  0
  4  3  1  0  0  0  0
  5  6  1  0  0  0  0
  6  8  2  0  0  0  0
  6  7  1  0  0  0  0
  8 20  1  0  0  0  0
  9  4  1  0  0  0  0
 10  5  1  0  0  0  0
 11 16  1  0  0  0  0
 12 11  2  0  0  0  0
 12 13  1  0  0  0  0
 13 14  2  0  0  0  0
 14 15  1  0  0  0  0
 15  3  1  0  0  0  0
 16 15  2  0  0  0  0
 17 11  1  0  0  0  0
 18 12  1  0  0  0  0
 19 13  1  0  0  0  0
 20 22  1  0  0  0  0
 20 21  1  0  0  0  0
 20 23  1  0  0  0  0
 23 25  1  0  0  0  0
 24 23  1  0  0  0  0
 25 26  1  0  0  0  0
 25 27  1  0  0  0  0
 28 25  1  0  0  0  0
 29 28  1  0  0  0  0
M  END
>  <minimizedAffinity>
-4.98921585

>  <minimizedRMSD>
2.74175978

$$$$
