
 OpenBabel03272509233D

 44 47  0  0  0  0  0  0  0  0999 V2000
   37.7040   26.1720   32.0520 C   0  0  0  0  0  0  0  0  0  0  0  0
   36.6260   26.8140   31.4750 C   0  0  0  0  0  0  0  0  0  0  0  0
   35.5490   25.9720   31.1740 C   0  0  0  0  0  0  0  0  0  0  0  0
   35.5830   24.5890   31.4440 C   0  0  0  0  0  0  0  0  0  0  0  0
   36.7420   24.0380   32.0380 C   0  0  0  0  0  0  0  0  0  0  0  0
   37.8160   24.8590   32.3420 C   0  0  0  0  0  0  0  0  0  0  0  0
   34.6710   26.4110   30.7200 H   0  0  0  0  0  0  0  0  0  0  0  0
   34.7570   23.9540   31.2100 H   0  0  0  0  0  0  0  0  0  0  0  0
   36.7340   22.9730   32.2310 H   0  0  0  0  0  0  0  0  0  0  0  0
   36.9100   28.6850   29.9360 C   0  0  0  0  0  0  0  0  0  0  0  0
   36.5810   28.2120   31.1990 C   0  0  0  0  0  0  0  0  0  0  0  0
   36.2100   29.1530   32.1710 C   0  0  0  0  0  0  0  0  0  0  0  0
   36.1940   30.4660   31.8280 N   0  0  0  0  0  0  0  0  0  0  0  0
   36.5240   30.8860   30.5790 C   0  0  0  0  0  0  0  0  0  0  0  0
   36.8790   29.9980   29.6410 N   0  0  0  0  0  0  0  0  0  0  0  0
   37.2050   28.0010   29.1400 H   0  0  0  0  0  0  0  0  0  0  0  0
   36.4720   31.9540   30.4240 H   0  0  0  0  0  0  0  0  0  0  0  0
   35.8490   28.7100   33.5340 C   0  0  0  0  0  0  0  0  0  0  0  0
   36.5730   27.9490   33.8710 H   0  0  0  0  0  0  0  0  0  0  0  0
   34.8270   28.2780   33.5310 H   0  0  0  0  0  0  0  0  0  0  0  0
   35.8580   29.5790   34.2150 H   0  0  0  0  0  0  0  0  0  0  0  0
   38.8370   26.9310   32.3930 O   0  0  0  0  0  0  0  0  0  0  0  0
   38.9290   27.4230   33.2690 H   0  0  0  0  0  0  0  0  0  0  0  0
   38.9120   24.2620   32.9170 O   0  0  0  0  0  0  0  0  0  0  0  0
   39.7180   22.7710   34.7290 C   0  0  0  0  0  0  0  0  0  0  0  0
   39.0310   23.8400   34.2140 C   0  0  0  0  0  0  0  0  0  0  0  0
   38.3260   24.6590   35.0990 C   0  0  0  0  0  0  0  0  0  0  0  0
   38.3320   24.3820   36.4690 C   0  0  0  0  0  0  0  0  0  0  0  0
   37.7610   24.9760   37.5480 N   0  0  0  0  0  0  0  0  0  0  0  0
   38.0820   24.3050   38.6630 C   0  0  0  0  0  0  0  0  0  0  0  0
   38.8670   23.2760   38.2760 N   0  0  0  0  0  0  0  0  0  0  0  0
   39.0320   23.3060   36.9370 C   0  0  0  0  0  0  0  0  0  0  0  0
   39.7230   22.5020   36.0710 C   0  0  0  0  0  0  0  0  0  0  0  0
   40.2430   22.1760   33.9990 H   0  0  0  0  0  0  0  0  0  0  0  0
   37.7450   25.5300   34.8280 H   0  0  0  0  0  0  0  0  0  0  0  0
   37.1600   25.8320   37.4970 H   0  0  0  0  0  0  0  0  0  0  0  0
   37.7520   24.5780   39.6430 H   0  0  0  0  0  0  0  0  0  0  0  0
   40.4300   21.4010   36.6100 N   0  0  0  0  0  0  0  0  0  0  0  0
   39.9510   20.5630   37.0030 H   0  0  0  0  0  0  0  0  0  0  0  0
   42.0830   21.0630   36.7980 S   0  0  0  0  0  0  0  0  0  0  0  0
   42.9350   22.2990   36.9090 O   0  0  0  0  0  1  0  0  0  0  0  0
   42.6530   20.2160   35.7260 O   0  0  0  0  0  1  0  0  0  0  0  0
   42.2670   20.2570   38.2770 O   0  0  0  0  0  0  0  0  0  0  0  0
   42.3600   20.8850   39.0370 H   0  0  0  0  0  0  0  0  0  0  0  0
  1  6  1  0  0  0  0
  1 22  1  0  0  0  0
  2  1  2  0  0  0  0
  3  4  2  0  0  0  0
  3  2  1  0  0  0  0
  4  5  1  0  0  0  0
  5  9  1  0  0  0  0
  5  6  2  0  0  0  0
  6 24  1  0  0  0  0
  7  3  1  0  0  0  0
  8  4  1  0  0  0  0
 10 11  1  0  0  0  0
 11  2  1  0  0  0  0
 11 12  2  0  0  0  0
 12 18  1  0  0  0  0
 13 12  1  0  0  0  0
 14 13  2  0  0  0  0
 15 10  2  0  0  0  0
 15 14  1  0  0  0  0
 16 10  1  0  0  0  0
 17 14  1  0  0  0  0
 18 19  1  0  0  0  0
 18 21  1  0  0  0  0
 20 18  1  0  0  0  0
 22 23  1  0  0  0  0
 24 26  1  0  0  0  0
 25 33  1  0  0  0  0
 26 25  2  0  0  0  0
 26 27  1  0  0  0  0
 27 28  2  0  0  0  0
 28 32  1  0  0  0  0
 28 29  1  0  0  0  0
 29 30  1  0  0  0  0
 30 37  1  0  0  0  0
 31 30  2  0  0  0  0
 32 31  1  0  0  0  0
 33 38  1  0  0  0  0
 33 32  2  0  0  0  0
 34 25  1  0  0  0  0
 35 27  1  0  0  0  0
 36 29  1  0  0  0  0
 38 40  1  0  0  0  0
 38 39  1  0  0  0  0
 40 41  1  0  0  0  0
 40 43  1  0  0  0  0
 42 40  1  0  0  0  0
 43 44  1  0  0  0  0
M  END
>  <minimizedAffinity>
-6.50081635

$$$$

 OpenBabel03272509233D

 44 47  0  0  0  0  0  0  0  0999 V2000
   36.0910   28.6280   33.6470 C   0  0  0  0  0  0  0  0  0  0  0  0
   35.5460   29.8960   33.6290 C   0  0  0  0  0  0  0  0  0  0  0  0
   35.5460   30.5040   32.3690 C   0  0  0  0  0  0  0  0  0  0  0  0
   36.0630   29.8590   31.2260 C   0  0  0  0  0  0  0  0  0  0  0  0
   36.5980   28.5570   31.3620 C   0  0  0  0  0  0  0  0  0  0  0  0
   36.6060   27.9420   32.6040 C   0  0  0  0  0  0  0  0  0  0  0  0
   35.1320   31.5000   32.2830 H   0  0  0  0  0  0  0  0  0  0  0  0
   36.0580   30.3310   30.2690 H   0  0  0  0  0  0  0  0  0  0  0  0
   36.9870   28.0920   30.4660 H   0  0  0  0  0  0  0  0  0  0  0  0
   35.8360   31.3720   35.5490 C   0  0  0  0  0  0  0  0  0  0  0  0
   35.0200   30.5570   34.7770 C   0  0  0  0  0  0  0  0  0  0  0  0
   33.6810   30.4150   35.1710 C   0  0  0  0  0  0  0  0  0  0  0  0
   33.2580   31.0780   36.2770 N   0  0  0  0  0  0  0  0  0  0  0  0
   34.0910   31.8660   37.0040 C   0  0  0  0  0  0  0  0  0  0  0  0
   35.3720   32.0110   36.6400 N   0  0  0  0  0  0  0  0  0  0  0  0
   36.8850   31.5210   35.2920 H   0  0  0  0  0  0  0  0  0  0  0  0
   33.6400   32.3430   37.8640 H   0  0  0  0  0  0  0  0  0  0  0  0
   32.7630   29.5600   34.3890 C   0  0  0  0  0  0  0  0  0  0  0  0
   33.2770   28.6190   34.1310 H   0  0  0  0  0  0  0  0  0  0  0  0
   32.4570   30.0860   33.4610 H   0  0  0  0  0  0  0  0  0  0  0  0
   31.8580   29.3530   34.9860 H   0  0  0  0  0  0  0  0  0  0  0  0
   36.1380   27.9310   34.8670 O   0  0  0  0  0  0  0  0  0  0  0  0
   35.3700   27.3790   35.2170 H   0  0  0  0  0  0  0  0  0  0  0  0
   37.1400   26.6780   32.6690 O   0  0  0  0  0  0  0  0  0  0  0  0
   38.4230   25.3490   34.3240 C   0  0  0  0  0  0  0  0  0  0  0  0
   38.2670   26.2950   33.3450 C   0  0  0  0  0  0  0  0  0  0  0  0
   39.3930   27.0110   32.9330 C   0  0  0  0  0  0  0  0  0  0  0  0
   40.6390   26.7550   33.5140 C   0  0  0  0  0  0  0  0  0  0  0  0
   41.8820   27.2690   33.3310 N   0  0  0  0  0  0  0  0  0  0  0  0
   42.7520   26.6690   34.1550 C   0  0  0  0  0  0  0  0  0  0  0  0
   42.0430   25.7650   34.8640 N   0  0  0  0  0  0  0  0  0  0  0  0
   40.7470   25.8020   34.4870 C   0  0  0  0  0  0  0  0  0  0  0  0
   39.6440   25.1000   34.8920 C   0  0  0  0  0  0  0  0  0  0  0  0
   37.5190   24.8300   34.6010 H   0  0  0  0  0  0  0  0  0  0  0  0
   39.4110   27.7810   32.1740 H   0  0  0  0  0  0  0  0  0  0  0  0
   42.1090   28.0250   32.6420 H   0  0  0  0  0  0  0  0  0  0  0  0
   43.7940   26.9020   34.1990 H   0  0  0  0  0  0  0  0  0  0  0  0
   39.8130   24.1250   35.9030 N   0  0  0  0  0  0  0  0  0  0  0  0
   40.7300   23.6710   36.0980 H   0  0  0  0  0  0  0  0  0  0  0  0
   38.7510   23.4170   37.0220 S   0  0  0  0  0  0  0  0  0  0  0  0
   37.7520   22.4850   36.3900 O   0  0  0  0  0  1  0  0  0  0  0  0
   38.0000   24.3950   37.8430 O   0  0  0  0  0  1  0  0  0  0  0  0
   39.6790   22.4480   38.0550 O   0  0  0  0  0  0  0  0  0  0  0  0
   39.8200   21.5380   37.6890 H   0  0  0  0  0  0  0  0  0  0  0  0
  1 22  1  0  0  0  0
  2  1  1  0  0  0  0
  2 11  1  0  0  0  0
  3  2  2  0  0  0  0
  4  5  2  0  0  0  0
  4  3  1  0  0  0  0
  5  6  1  0  0  0  0
  6 24  1  0  0  0  0
  6  1  2  0  0  0  0
  7  3  1  0  0  0  0
  8  4  1  0  0  0  0
  9  5  1  0  0  0  0
 10 15  1  0  0  0  0
 11 12  1  0  0  0  0
 11 10  2  0  0  0  0
 12 13  2  0  0  0  0
 13 14  1  0  0  0  0
 14 17  1  0  0  0  0
 15 14  2  0  0  0  0
 16 10  1  0  0  0  0
 18 21  1  0  0  0  0
 18 12  1  0  0  0  0
 19 18  1  0  0  0  0
 20 18  1  0  0  0  0
 22 23  1  0  0  0  0
 24 26  1  0  0  0  0
 25 34  1  0  0  0  0
 25 33  1  0  0  0  0
 26 25  2  0  0  0  0
 27 26  1  0  0  0  0
 27 28  2  0  0  0  0
 28 32  1  0  0  0  0
 29 28  1  0  0  0  0
 29 30  1  0  0  0  0
 30 37  1  0  0  0  0
 30 31  2  0  0  0  0
 32 31  1  0  0  0  0
 32 33  2  0  0  0  0
 33 38  1  0  0  0  0
 35 27  1  0  0  0  0
 36 29  1  0  0  0  0
 38 39  1  0  0  0  0
 38 40  1  0  0  0  0
 40 42  1  0  0  0  0
 40 43  1  0  0  0  0
 41 40  1  0  0  0  0
 44 43  1  0  0  0  0
M  END
>  <minimizedAffinity>
-6.4932704

$$$$

 OpenBabel03272509233D

 44 47  0  0  0  0  0  0  0  0999 V2000
   35.9030   29.1300   33.5500 C   0  0  0  0  0  0  0  0  0  0  0  0
   34.8470   30.0170   33.6180 C   0  0  0  0  0  0  0  0  0  0  0  0
   34.4880   30.5790   32.3890 C   0  0  0  0  0  0  0  0  0  0  0  0
   35.1600   30.2540   31.1920 C   0  0  0  0  0  0  0  0  0  0  0  0
   36.2300   29.3310   31.2410 C   0  0  0  0  0  0  0  0  0  0  0  0
   36.5970   28.7660   32.4520 C   0  0  0  0  0  0  0  0  0  0  0  0
   33.6660   31.2840   32.3710 H   0  0  0  0  0  0  0  0  0  0  0  0
   34.8780   30.6880   30.2580 H   0  0  0  0  0  0  0  0  0  0  0  0
   36.7230   29.1040   30.3050 H   0  0  0  0  0  0  0  0  0  0  0  0
   32.9740   29.7120   35.1510 C   0  0  0  0  0  0  0  0  0  0  0  0
   34.1600   30.3530   34.8220 C   0  0  0  0  0  0  0  0  0  0  0  0
   34.6420   31.3260   35.7090 C   0  0  0  0  0  0  0  0  0  0  0  0
   33.9280   31.5880   36.8330 N   0  0  0  0  0  0  0  0  0  0  0  0
   32.7710   30.9370   37.1170 C   0  0  0  0  0  0  0  0  0  0  0  0
   32.2990   30.0050   36.2790 N   0  0  0  0  0  0  0  0  0  0  0  0
   32.5500   28.9470   34.5000 H   0  0  0  0  0  0  0  0  0  0  0  0
   32.2930   31.2300   38.0410 H   0  0  0  0  0  0  0  0  0  0  0  0
   35.9010   32.0440   35.4130 C   0  0  0  0  0  0  0  0  0  0  0  0
   35.9100   32.3340   34.3490 H   0  0  0  0  0  0  0  0  0  0  0  0
   36.7690   31.3860   35.6290 H   0  0  0  0  0  0  0  0  0  0  0  0
   35.9730   32.9370   36.0570 H   0  0  0  0  0  0  0  0  0  0  0  0
   36.3400   28.5100   34.7340 O   0  0  0  0  0  0  0  0  0  0  0  0
   35.9270   27.6660   35.1000 H   0  0  0  0  0  0  0  0  0  0  0  0
   37.6440   27.8760   32.4310 O   0  0  0  0  0  0  0  0  0  0  0  0
   38.2430   25.7810   33.6150 C   0  0  0  0  0  0  0  0  0  0  0  0
   37.5840   26.5310   32.6760 C   0  0  0  0  0  0  0  0  0  0  0  0
   36.7040   25.8790   31.8090 C   0  0  0  0  0  0  0  0  0  0  0  0
   36.5130   24.4980   31.9110 C   0  0  0  0  0  0  0  0  0  0  0  0
   35.7460   23.6050   31.2340 N   0  0  0  0  0  0  0  0  0  0  0  0
   35.9280   22.3740   31.7320 C   0  0  0  0  0  0  0  0  0  0  0  0
   36.8210   22.4990   32.7380 N   0  0  0  0  0  0  0  0  0  0  0  0
   37.1910   23.7900   32.8630 C   0  0  0  0  0  0  0  0  0  0  0  0
   38.0540   24.4280   33.7130 C   0  0  0  0  0  0  0  0  0  0  0  0
   38.9080   26.3390   34.2550 H   0  0  0  0  0  0  0  0  0  0  0  0
   36.1230   26.3470   31.0270 H   0  0  0  0  0  0  0  0  0  0  0  0
   35.1130   23.8590   30.4400 H   0  0  0  0  0  0  0  0  0  0  0  0
   35.4340   21.5000   31.3650 H   0  0  0  0  0  0  0  0  0  0  0  0
   38.7300   23.6480   34.6800 N   0  0  0  0  0  0  0  0  0  0  0  0
   39.7140   23.3260   34.5550 H   0  0  0  0  0  0  0  0  0  0  0  0
   38.2770   23.0230   36.1920 S   0  0  0  0  0  0  0  0  0  0  0  0
   37.4250   23.9680   36.9960 O   0  0  0  0  0  1  0  0  0  0  0  0
   39.4170   22.6090   37.0410 O   0  0  0  0  0  1  0  0  0  0  0  0
   37.2990   21.6700   35.9060 O   0  0  0  0  0  0  0  0  0  0  0  0
   36.3480   21.9150   35.7770 H   0  0  0  0  0  0  0  0  0  0  0  0
  1  2  1  0  0  0  0
  1 22  1  0  0  0  0
  2 11  1  0  0  0  0
  3  2  2  0  0  0  0
  4  5  2  0  0  0  0
  4  3  1  0  0  0  0
  5  6  1  0  0  0  0
  6  1  2  0  0  0  0
  7  3  1  0  0  0  0
  8  4  1  0  0  0  0
  9  5  1  0  0  0  0
 10 15  1  0  0  0  0
 11 10  2  0  0  0  0
 11 12  1  0  0  0  0
 12 13  2  0  0  0  0
 13 14  1  0  0  0  0
 14 17  1  0  0  0  0
 15 14  2  0  0  0  0
 16 10  1  0  0  0  0
 18 20  1  0  0  0  0
 18 12  1  0  0  0  0
 18 21  1  0  0  0  0
 19 18  1  0  0  0  0
 22 23  1  0  0  0  0
 24  6  1  0  0  0  0
 24 26  1  0  0  0  0
 25 33  1  0  0  0  0
 25 34  1  0  0  0  0
 26 25  2  0  0  0  0
 27 28  2  0  0  0  0
 27 26  1  0  0  0  0
 28 32  1  0  0  0  0
 29 30  1  0  0  0  0
 29 28  1  0  0  0  0
 30 31  2  0  0  0  0
 31 32  1  0  0  0  0
 32 33  2  0  0  0  0
 33 38  1  0  0  0  0
 35 27  1  0  0  0  0
 36 29  1  0  0  0  0
 37 30  1  0  0  0  0
 38 40  1  0  0  0  0
 39 38  1  0  0  0  0
 40 41  1  0  0  0  0
 40 42  1  0  0  0  0
 43 40  1  0  0  0  0
 44 43  1  0  0  0  0
M  END
>  <minimizedAffinity>
-6.23624659

$$$$

 OpenBabel03272509233D

 44 47  0  0  0  0  0  0  0  0999 V2000
   36.0180   28.1510   32.0180 C   0  0  0  0  0  0  0  0  0  0  0  0
   35.4960   29.2520   32.6680 C   0  0  0  0  0  0  0  0  0  0  0  0
   35.7890   29.3040   34.0350 C   0  0  0  0  0  0  0  0  0  0  0  0
   36.5530   28.3070   34.6750 C   0  0  0  0  0  0  0  0  0  0  0  0
   37.0380   27.2220   33.9080 C   0  0  0  0  0  0  0  0  0  0  0  0
   36.7560   27.1570   32.5530 C   0  0  0  0  0  0  0  0  0  0  0  0
   35.4100   30.1410   34.6060 H   0  0  0  0  0  0  0  0  0  0  0  0
   36.7720   28.3550   35.7190 H   0  0  0  0  0  0  0  0  0  0  0  0
   37.6200   26.4750   34.4310 H   0  0  0  0  0  0  0  0  0  0  0  0
   35.3480   31.2640   31.2970 C   0  0  0  0  0  0  0  0  0  0  0  0
   34.7220   30.2660   32.0310 C   0  0  0  0  0  0  0  0  0  0  0  0
   33.3220   30.3000   32.1160 C   0  0  0  0  0  0  0  0  0  0  0  0
   32.6600   31.3000   31.4820 N   0  0  0  0  0  0  0  0  0  0  0  0
   33.3120   32.2570   30.7740 C   0  0  0  0  0  0  0  0  0  0  0  0
   34.6480   32.2370   30.6830 N   0  0  0  0  0  0  0  0  0  0  0  0
   36.4330   31.2890   31.1950 H   0  0  0  0  0  0  0  0  0  0  0  0
   32.6770   33.0010   30.3110 H   0  0  0  0  0  0  0  0  0  0  0  0
   32.5990   29.2650   32.8840 C   0  0  0  0  0  0  0  0  0  0  0  0
   33.1230   29.0910   33.8390 H   0  0  0  0  0  0  0  0  0  0  0  0
   32.5620   28.3210   32.3010 H   0  0  0  0  0  0  0  0  0  0  0  0
   31.5640   29.6010   33.0680 H   0  0  0  0  0  0  0  0  0  0  0  0
   35.7800   28.0070   30.6390 O   0  0  0  0  0  0  0  0  0  0  0  0
   36.3550   28.4370   29.9310 H   0  0  0  0  0  0  0  0  0  0  0  0
   37.2560   26.0770   31.8650 O   0  0  0  0  0  0  0  0  0  0  0  0
   38.0710   24.1580   33.2100 C   0  0  0  0  0  0  0  0  0  0  0  0
   37.2710   24.7730   32.2820 C   0  0  0  0  0  0  0  0  0  0  0  0
   36.3060   24.0030   31.6290 C   0  0  0  0  0  0  0  0  0  0  0  0
   36.1730   22.6440   31.9260 C   0  0  0  0  0  0  0  0  0  0  0  0
   35.3530   21.6600   31.4740 N   0  0  0  0  0  0  0  0  0  0  0  0
   35.6380   20.5060   32.0920 C   0  0  0  0  0  0  0  0  0  0  0  0
   36.6510   20.7700   32.9450 N   0  0  0  0  0  0  0  0  0  0  0  0
   36.9930   22.0730   32.8580 C   0  0  0  0  0  0  0  0  0  0  0  0
   37.9390   22.8270   33.4990 C   0  0  0  0  0  0  0  0  0  0  0  0
   38.7970   24.8030   33.6800 H   0  0  0  0  0  0  0  0  0  0  0  0
   35.6130   24.3600   30.8790 H   0  0  0  0  0  0  0  0  0  0  0  0
   34.6130   21.8020   30.7470 H   0  0  0  0  0  0  0  0  0  0  0  0
   35.1280   19.5850   31.9050 H   0  0  0  0  0  0  0  0  0  0  0  0
   38.7620   22.1860   34.4560 N   0  0  0  0  0  0  0  0  0  0  0  0
   39.2990   21.3180   34.2440 H   0  0  0  0  0  0  0  0  0  0  0  0
   39.1380   22.5240   36.0760 S   0  0  0  0  0  0  0  0  0  0  0  0
   39.4840   23.9690   36.3180 O   0  0  0  0  0  1  0  0  0  0  0  0
   40.2360   21.6970   36.6260 O   0  0  0  0  0  1  0  0  0  0  0  0
   37.7400   22.2380   36.9890 O   0  0  0  0  0  0  0  0  0  0  0  0
   37.1420   23.0270   37.0150 H   0  0  0  0  0  0  0  0  0  0  0  0
  1  6  2  0  0  0  0
  1  2  1  0  0  0  0
  2  3  2  0  0  0  0
  3  7  1  0  0  0  0
  3  4  1  0  0  0  0
  4  8  1  0  0  0  0
  5  9  1  0  0  0  0
  5  4  2  0  0  0  0
  6  5  1  0  0  0  0
 10 11  1  0  0  0  0
 11 12  2  0  0  0  0
 11  2  1  0  0  0  0
 12 18  1  0  0  0  0
 13 12  1  0  0  0  0
 14 13  2  0  0  0  0
 15 14  1  0  0  0  0
 15 10  2  0  0  0  0
 16 10  1  0  0  0  0
 17 14  1  0  0  0  0
 18 21  1  0  0  0  0
 18 19  1  0  0  0  0
 20 18  1  0  0  0  0
 22  1  1  0  0  0  0
 23 22  1  0  0  0  0
 24 26  1  0  0  0  0
 24  6  1  0  0  0  0
 25 33  1  0  0  0  0
 25 34  1  0  0  0  0
 26 25  2  0  0  0  0
 27 28  2  0  0  0  0
 27 26  1  0  0  0  0
 28 32  1  0  0  0  0
 29 28  1  0  0  0  0
 29 30  1  0  0  0  0
 30 31  2  0  0  0  0
 32 31  1  0  0  0  0
 32 33  2  0  0  0  0
 33 38  1  0  0  0  0
 35 27  1  0  0  0  0
 36 29  1  0  0  0  0
 37 30  1  0  0  0  0
 38 40  1  0  0  0  0
 39 38  1  0  0  0  0
 40 41  1  0  0  0  0
 40 42  1  0  0  0  0
 40 43  1  0  0  0  0
 43 44  1  0  0  0  0
M  END
>  <minimizedAffinity>
-5.94846535

$$$$

 OpenBabel03272509233D

 44 47  0  0  0  0  0  0  0  0999 V2000
   38.1090   25.4120   34.1640 C   0  0  0  0  0  0  0  0  0  0  0  0
   38.8910   25.2690   35.2930 C   0  0  0  0  0  0  0  0  0  0  0  0
   38.8320   26.3540   36.1750 C   0  0  0  0  0  0  0  0  0  0  0  0
   38.0360   27.4880   35.9140 C   0  0  0  0  0  0  0  0  0  0  0  0
   37.2740   27.5260   34.7230 C   0  0  0  0  0  0  0  0  0  0  0  0
   37.3220   26.4600   33.8400 C   0  0  0  0  0  0  0  0  0  0  0  0
   39.4210   26.3060   37.0810 H   0  0  0  0  0  0  0  0  0  0  0  0
   37.9970   28.3110   36.5930 H   0  0  0  0  0  0  0  0  0  0  0  0
   36.6740   28.4110   34.5550 H   0  0  0  0  0  0  0  0  0  0  0  0
   39.1750   23.0530   36.2730 C   0  0  0  0  0  0  0  0  0  0  0  0
   39.7000   24.1270   35.5670 C   0  0  0  0  0  0  0  0  0  0  0  0
   41.0340   24.0400   35.1440 C   0  0  0  0  0  0  0  0  0  0  0  0
   41.7370   22.9190   35.4470 N   0  0  0  0  0  0  0  0  0  0  0  0
   41.1840   21.8900   36.1400 C   0  0  0  0  0  0  0  0  0  0  0  0
   39.9110   21.9600   36.5490 N   0  0  0  0  0  0  0  0  0  0  0  0
   38.1440   23.0640   36.6260 H   0  0  0  0  0  0  0  0  0  0  0  0
   41.8410   21.0500   36.3190 H   0  0  0  0  0  0  0  0  0  0  0  0
   41.6500   25.1520   34.3890 C   0  0  0  0  0  0  0  0  0  0  0  0
   41.3690   26.1080   34.8620 H   0  0  0  0  0  0  0  0  0  0  0  0
   41.2930   25.1350   33.3380 H   0  0  0  0  0  0  0  0  0  0  0  0
   42.7460   25.0300   34.3870 H   0  0  0  0  0  0  0  0  0  0  0  0
   38.0990   24.3750   33.2150 O   0  0  0  0  0  0  0  0  0  0  0  0
   37.4910   23.5730   33.2790 H   0  0  0  0  0  0  0  0  0  0  0  0
   36.5590   26.5590   32.7020 O   0  0  0  0  0  0  0  0  0  0  0  0
   35.8910   28.7240   31.6890 C   0  0  0  0  0  0  0  0  0  0  0  0
   36.6070   27.5570   31.7650 C   0  0  0  0  0  0  0  0  0  0  0  0
   37.5420   27.2900   30.7630 C   0  0  0  0  0  0  0  0  0  0  0  0
   37.7300   28.1990   29.7180 C   0  0  0  0  0  0  0  0  0  0  0  0
   38.5410   28.2210   28.6290 N   0  0  0  0  0  0  0  0  0  0  0  0
   38.3310   29.3410   27.9240 C   0  0  0  0  0  0  0  0  0  0  0  0
   37.3760   30.0320   28.5830 N   0  0  0  0  0  0  0  0  0  0  0  0
   36.9950   29.3500   29.6830 C   0  0  0  0  0  0  0  0  0  0  0  0
   36.0780   29.6130   30.6650 C   0  0  0  0  0  0  0  0  0  0  0  0
   35.1850   28.8750   32.4900 H   0  0  0  0  0  0  0  0  0  0  0  0
   38.1700   26.4110   30.7010 H   0  0  0  0  0  0  0  0  0  0  0  0
   39.2230   27.4630   28.3900 H   0  0  0  0  0  0  0  0  0  0  0  0
   38.8500   29.5880   27.0220 H   0  0  0  0  0  0  0  0  0  0  0  0
   35.3430   30.8190   30.5810 N   0  0  0  0  0  0  0  0  0  0  0  0
   35.6430   31.6190   29.9830 H   0  0  0  0  0  0  0  0  0  0  0  0
   33.9070   31.3570   31.3080 S   0  0  0  0  0  0  0  0  0  0  0  0
   34.1060   32.5400   32.2170 O   0  0  0  0  0  1  0  0  0  0  0  0
   33.1910   30.3120   32.0750 O   0  0  0  0  0  1  0  0  0  0  0  0
   32.8900   31.9070   30.0700 O   0  0  0  0  0  0  0  0  0  0  0  0
   33.0660   32.8530   29.8340 H   0  0  0  0  0  0  0  0  0  0  0  0
  1  2  1  0  0  0  0
  2 11  1  0  0  0  0
  2  3  2  0  0  0  0
  3  7  1  0  0  0  0
  4  3  1  0  0  0  0
  4  8  1  0  0  0  0
  5  4  2  0  0  0  0
  6  1  2  0  0  0  0
  6  5  1  0  0  0  0
  9  5  1  0  0  0  0
 10 15  1  0  0  0  0
 10 16  1  0  0  0  0
 11 10  2  0  0  0  0
 12 13  2  0  0  0  0
 12 11  1  0  0  0  0
 13 14  1  0  0  0  0
 14 17  1  0  0  0  0
 14 15  2  0  0  0  0
 18 19  1  0  0  0  0
 18 12  1  0  0  0  0
 20 18  1  0  0  0  0
 21 18  1  0  0  0  0
 22 23  1  0  0  0  0
 22  1  1  0  0  0  0
 24  6  1  0  0  0  0
 25 26  1  0  0  0  0
 25 34  1  0  0  0  0
 26 24  1  0  0  0  0
 27 26  2  0  0  0  0
 28 27  1  0  0  0  0
 29 28  1  0  0  0  0
 30 31  2  0  0  0  0
 30 29  1  0  0  0  0
 31 32  1  0  0  0  0
 32 28  2  0  0  0  0
 32 33  1  0  0  0  0
 33 25  2  0  0  0  0
 35 27  1  0  0  0  0
 36 29  1  0  0  0  0
 37 30  1  0  0  0  0
 38 33  1  0  0  0  0
 38 40  1  0  0  0  0
 39 38  1  0  0  0  0
 40 42  1  0  0  0  0
 40 41  1  0  0  0  0
 43 40  1  0  0  0  0
 44 43  1  0  0  0  0
M  END
>  <minimizedAffinity>
-5.91185236

$$$$

 OpenBabel03272509233D

 44 47  0  0  0  0  0  0  0  0999 V2000
   36.9920   26.6670   32.6510 C   0  0  0  0  0  0  0  0  0  0  0  0
   37.4910   25.4590   33.0960 C   0  0  0  0  0  0  0  0  0  0  0  0
   37.7960   25.4310   34.4620 C   0  0  0  0  0  0  0  0  0  0  0  0
   37.6030   26.5510   35.2950 C   0  0  0  0  0  0  0  0  0  0  0  0
   37.0840   27.7400   34.7300 C   0  0  0  0  0  0  0  0  0  0  0  0
   36.7780   27.7830   33.3790 C   0  0  0  0  0  0  0  0  0  0  0  0
   38.1910   24.5130   34.8770 H   0  0  0  0  0  0  0  0  0  0  0  0
   37.8380   26.5200   36.3360 H   0  0  0  0  0  0  0  0  0  0  0  0
   36.9490   28.5800   35.3970 H   0  0  0  0  0  0  0  0  0  0  0  0
   36.6780   23.3810   32.1090 C   0  0  0  0  0  0  0  0  0  0  0  0
   37.6900   24.3190   32.2630 C   0  0  0  0  0  0  0  0  0  0  0  0
   38.8930   24.0990   31.5760 C   0  0  0  0  0  0  0  0  0  0  0  0
   39.0020   22.9880   30.8030 N   0  0  0  0  0  0  0  0  0  0  0  0
   37.9870   22.0960   30.6810 C   0  0  0  0  0  0  0  0  0  0  0  0
   36.8330   22.2940   31.3310 N   0  0  0  0  0  0  0  0  0  0  0  0
   35.7220   23.4990   32.6180 H   0  0  0  0  0  0  0  0  0  0  0  0
   38.1910   21.2510   30.0370 H   0  0  0  0  0  0  0  0  0  0  0  0
   40.0070   25.0620   31.7000 C   0  0  0  0  0  0  0  0  0  0  0  0
   40.1190   25.3510   32.7580 H   0  0  0  0  0  0  0  0  0  0  0  0
   39.7960   25.9630   31.0860 H   0  0  0  0  0  0  0  0  0  0  0  0
   40.9360   24.5970   31.3270 H   0  0  0  0  0  0  0  0  0  0  0  0
   36.6540   26.7970   31.2930 O   0  0  0  0  0  0  0  0  0  0  0  0
   35.7580   26.5280   30.9180 H   0  0  0  0  0  0  0  0  0  0  0  0
   36.2790   28.9670   32.8920 O   0  0  0  0  0  0  0  0  0  0  0  0
   34.9800   30.6650   34.1510 C   0  0  0  0  0  0  0  0  0  0  0  0
   35.1360   29.6050   33.2960 C   0  0  0  0  0  0  0  0  0  0  0  0
   33.9930   29.0480   32.7190 C   0  0  0  0  0  0  0  0  0  0  0  0
   32.7310   29.5710   33.0150 C   0  0  0  0  0  0  0  0  0  0  0  0
   31.4700   29.2560   32.6230 N   0  0  0  0  0  0  0  0  0  0  0  0
   30.5890   30.0790   33.2080 C   0  0  0  0  0  0  0  0  0  0  0  0
   31.3100   30.9230   33.9770 N   0  0  0  0  0  0  0  0  0  0  0  0
   32.6230   30.6280   33.8730 C   0  0  0  0  0  0  0  0  0  0  0  0
   33.7430   31.1750   34.4400 C   0  0  0  0  0  0  0  0  0  0  0  0
   35.8970   31.0520   34.5660 H   0  0  0  0  0  0  0  0  0  0  0  0
   33.9740   28.2130   32.0310 H   0  0  0  0  0  0  0  0  0  0  0  0
   31.2390   28.4790   31.9610 H   0  0  0  0  0  0  0  0  0  0  0  0
   29.5320   30.0310   33.0570 H   0  0  0  0  0  0  0  0  0  0  0  0
   33.5740   32.2690   35.3210 N   0  0  0  0  0  0  0  0  0  0  0  0
   33.5240   33.2560   34.9890 H   0  0  0  0  0  0  0  0  0  0  0  0
   33.4110   32.3880   37.0070 S   0  0  0  0  0  0  0  0  0  0  0  0
   32.6260   31.2550   37.6110 O   0  0  0  0  0  1  0  0  0  0  0  0
   32.8010   33.6570   37.4660 O   0  0  0  0  0  1  0  0  0  0  0  0
   34.9630   32.2650   37.6730 O   0  0  0  0  0  0  0  0  0  0  0  0
   35.2360   31.3230   37.8160 H   0  0  0  0  0  0  0  0  0  0  0  0
  1  2  2  0  0  0  0
  1  6  1  0  0  0  0
  2  3  1  0  0  0  0
  3  7  1  0  0  0  0
  3  4  2  0  0  0  0
  4  8  1  0  0  0  0
  5  4  1  0  0  0  0
  5  9  1  0  0  0  0
  6  5  2  0  0  0  0
 10 11  1  0  0  0  0
 10 16  1  0  0  0  0
 11  2  1  0  0  0  0
 12 18  1  0  0  0  0
 12 11  2  0  0  0  0
 13 12  1  0  0  0  0
 14 13  2  0  0  0  0
 14 15  1  0  0  0  0
 15 10  2  0  0  0  0
 17 14  1  0  0  0  0
 18 19  1  0  0  0  0
 20 18  1  0  0  0  0
 21 18  1  0  0  0  0
 22  1  1  0  0  0  0
 23 22  1  0  0  0  0
 24 26  1  0  0  0  0
 24  6  1  0  0  0  0
 25 33  1  0  0  0  0
 25 34  1  0  0  0  0
 26 25  2  0  0  0  0
 27 28  2  0  0  0  0
 27 26  1  0  0  0  0
 28 32  1  0  0  0  0
 29 28  1  0  0  0  0
 29 30  1  0  0  0  0
 30 31  2  0  0  0  0
 32 31  1  0  0  0  0
 32 33  2  0  0  0  0
 33 38  1  0  0  0  0
 35 27  1  0  0  0  0
 36 29  1  0  0  0  0
 37 30  1  0  0  0  0
 38 40  1  0  0  0  0
 39 38  1  0  0  0  0
 40 42  1  0  0  0  0
 40 41  1  0  0  0  0
 40 43  1  0  0  0  0
 43 44  1  0  0  0  0
M  END
>  <minimizedAffinity>
-5.88187265

$$$$

 OpenBabel03272509233D

 44 47  0  0  0  0  0  0  0  0999 V2000
   39.5180   25.9690   32.8750 C   0  0  0  0  0  0  0  0  0  0  0  0
   40.0360   25.8750   34.1520 C   0  0  0  0  0  0  0  0  0  0  0  0
   41.2110   26.6070   34.3510 C   0  0  0  0  0  0  0  0  0  0  0  0
   41.8020   27.3690   33.3220 C   0  0  0  0  0  0  0  0  0  0  0  0
   41.1830   27.3930   32.0500 C   0  0  0  0  0  0  0  0  0  0  0  0
   40.0190   26.6730   31.8380 C   0  0  0  0  0  0  0  0  0  0  0  0
   41.6700   26.5780   35.3300 H   0  0  0  0  0  0  0  0  0  0  0  0
   42.6990   27.9240   33.4830 H   0  0  0  0  0  0  0  0  0  0  0  0
   41.6630   27.9870   31.2840 H   0  0  0  0  0  0  0  0  0  0  0  0
   39.7850   23.7720   35.3620 C   0  0  0  0  0  0  0  0  0  0  0  0
   39.4470   25.1080   35.1990 C   0  0  0  0  0  0  0  0  0  0  0  0
   38.5160   25.6580   36.0940 C   0  0  0  0  0  0  0  0  0  0  0  0
   38.0010   24.8600   37.0630 N   0  0  0  0  0  0  0  0  0  0  0  0
   38.3610   23.5570   37.1870 C   0  0  0  0  0  0  0  0  0  0  0  0
   39.2480   23.0190   36.3400 N   0  0  0  0  0  0  0  0  0  0  0  0
   40.5030   23.2900   34.6980 H   0  0  0  0  0  0  0  0  0  0  0  0
   37.8850   23.0230   37.9980 H   0  0  0  0  0  0  0  0  0  0  0  0
   38.1150   27.0760   35.9710 C   0  0  0  0  0  0  0  0  0  0  0  0
   37.9380   27.3100   34.9080 H   0  0  0  0  0  0  0  0  0  0  0  0
   38.9180   27.7300   36.3700 H   0  0  0  0  0  0  0  0  0  0  0  0
   37.1990   27.2490   36.5620 H   0  0  0  0  0  0  0  0  0  0  0  0
   38.3360   25.2700   32.5730 O   0  0  0  0  0  0  0  0  0  0  0  0
   37.4150   25.6410   32.7490 H   0  0  0  0  0  0  0  0  0  0  0  0
   39.4680   26.7370   30.5810 O   0  0  0  0  0  0  0  0  0  0  0  0
   37.6130   28.3810   30.4810 C   0  0  0  0  0  0  0  0  0  0  0  0
   38.7660   27.7830   30.0440 C   0  0  0  0  0  0  0  0  0  0  0  0
   39.3620   28.2710   28.8790 C   0  0  0  0  0  0  0  0  0  0  0  0
   38.7850   29.3420   28.1910 C   0  0  0  0  0  0  0  0  0  0  0  0
   39.1180   30.0210   27.0630 N   0  0  0  0  0  0  0  0  0  0  0  0
   38.2150   30.9820   26.8230 C   0  0  0  0  0  0  0  0  0  0  0  0
   37.3040   30.9050   27.8170 N   0  0  0  0  0  0  0  0  0  0  0  0
   37.6340   29.9070   28.6630 C   0  0  0  0  0  0  0  0  0  0  0  0
   37.0490   29.4300   29.8050 C   0  0  0  0  0  0  0  0  0  0  0  0
   37.1990   27.9610   31.3840 H   0  0  0  0  0  0  0  0  0  0  0  0
   40.2690   27.8940   28.4260 H   0  0  0  0  0  0  0  0  0  0  0  0
   39.9600   29.8090   26.4780 H   0  0  0  0  0  0  0  0  0  0  0  0
   38.2590   31.6520   25.9910 H   0  0  0  0  0  0  0  0  0  0  0  0
   35.8590   30.0520   30.2510 N   0  0  0  0  0  0  0  0  0  0  0  0
   35.2320   30.5870   29.6130 H   0  0  0  0  0  0  0  0  0  0  0  0
   35.1010   30.1560   31.7660 S   0  0  0  0  0  0  0  0  0  0  0  0
   33.7340   30.7850   31.7070 O   0  0  0  0  0  1  0  0  0  0  0  0
   35.8900   30.8840   32.7870 O   0  0  0  0  0  1  0  0  0  0  0  0
   34.8450   28.5730   32.3120 O   0  0  0  0  0  0  0  0  0  0  0  0
   33.9970   28.1920   31.9700 H   0  0  0  0  0  0  0  0  0  0  0  0
  1  2  1  0  0  0  0
  2  3  2  0  0  0  0
  2 11  1  0  0  0  0
  3  7  1  0  0  0  0
  4  8  1  0  0  0  0
  4  3  1  0  0  0  0
  5  4  2  0  0  0  0
  6  5  1  0  0  0  0
  6  1  2  0  0  0  0
  9  5  1  0  0  0  0
 10 15  1  0  0  0  0
 11 10  2  0  0  0  0
 11 12  1  0  0  0  0
 12 13  2  0  0  0  0
 13 14  1  0  0  0  0
 14 17  1  0  0  0  0
 15 14  2  0  0  0  0
 16 10  1  0  0  0  0
 18 12  1  0  0  0  0
 18 20  1  0  0  0  0
 18 21  1  0  0  0  0
 19 18  1  0  0  0  0
 22 23  1  0  0  0  0
 22  1  1  0  0  0  0
 24  6  1  0  0  0  0
 25 34  1  0  0  0  0
 26 25  1  0  0  0  0
 26 24  1  0  0  0  0
 27 26  2  0  0  0  0
 28 32  2  0  0  0  0
 28 27  1  0  0  0  0
 29 28  1  0  0  0  0
 30 29  1  0  0  0  0
 30 31  2  0  0  0  0
 31 32  1  0  0  0  0
 32 33  1  0  0  0  0
 33 38  1  0  0  0  0
 33 25  2  0  0  0  0
 35 27  1  0  0  0  0
 36 29  1  0  0  0  0
 37 30  1  0  0  0  0
 38 40  1  0  0  0  0
 39 38  1  0  0  0  0
 40 43  1  0  0  0  0
 40 42  1  0  0  0  0
 41 40  1  0  0  0  0
 44 43  1  0  0  0  0
M  END
>  <minimizedAffinity>
-5.72819614

$$$$

 OpenBabel03272509233D

 44 47  0  0  0  0  0  0  0  0999 V2000
   38.0630   25.4790   34.1590 C   0  0  0  0  0  0  0  0  0  0  0  0
   38.8130   25.3250   35.3080 C   0  0  0  0  0  0  0  0  0  0  0  0
   38.7670   26.4230   36.1750 C   0  0  0  0  0  0  0  0  0  0  0  0
   38.0130   27.5780   35.8810 C   0  0  0  0  0  0  0  0  0  0  0  0
   37.2820   27.6250   34.6710 C   0  0  0  0  0  0  0  0  0  0  0  0
   37.3180   26.5460   33.8030 C   0  0  0  0  0  0  0  0  0  0  0  0
   39.3320   26.3690   37.0960 H   0  0  0  0  0  0  0  0  0  0  0  0
   37.9840   28.4100   36.5490 H   0  0  0  0  0  0  0  0  0  0  0  0
   36.7150   28.5250   34.4780 H   0  0  0  0  0  0  0  0  0  0  0  0
   40.8950   24.0600   35.1890 C   0  0  0  0  0  0  0  0  0  0  0  0
   39.5780   24.1620   35.6150 C   0  0  0  0  0  0  0  0  0  0  0  0
   39.0450   23.0900   36.3470 C   0  0  0  0  0  0  0  0  0  0  0  0
   39.8390   22.0190   36.5960 N   0  0  0  0  0  0  0  0  0  0  0  0
   41.1230   21.9600   36.1600 C   0  0  0  0  0  0  0  0  0  0  0  0
   41.6460   22.9760   35.4610 N   0  0  0  0  0  0  0  0  0  0  0  0
   41.3640   24.8610   34.6180 H   0  0  0  0  0  0  0  0  0  0  0  0
   41.6570   21.0560   36.4210 H   0  0  0  0  0  0  0  0  0  0  0  0
   37.6480   23.1410   36.8270 C   0  0  0  0  0  0  0  0  0  0  0  0
   37.0020   23.5250   36.0200 H   0  0  0  0  0  0  0  0  0  0  0  0
   37.5780   23.8080   37.7120 H   0  0  0  0  0  0  0  0  0  0  0  0
   37.3280   22.1280   37.1280 H   0  0  0  0  0  0  0  0  0  0  0  0
   38.0430   24.4300   33.2220 O   0  0  0  0  0  0  0  0  0  0  0  0
   37.4090   23.6480   33.2810 H   0  0  0  0  0  0  0  0  0  0  0  0
   36.5860   26.6550   32.6450 O   0  0  0  0  0  0  0  0  0  0  0  0
   36.2310   28.7700   31.3990 C   0  0  0  0  0  0  0  0  0  0  0  0
   36.7940   27.5400   31.6220 C   0  0  0  0  0  0  0  0  0  0  0  0
   37.7270   27.0640   30.6990 C   0  0  0  0  0  0  0  0  0  0  0  0
   38.0680   27.8350   29.5840 C   0  0  0  0  0  0  0  0  0  0  0  0
   38.9170   27.6520   28.5400 N   0  0  0  0  0  0  0  0  0  0  0  0
   38.8760   28.7130   27.7230 C   0  0  0  0  0  0  0  0  0  0  0  0
   37.9870   29.5750   28.2630 N   0  0  0  0  0  0  0  0  0  0  0  0
   37.4820   29.0560   29.4020 C   0  0  0  0  0  0  0  0  0  0  0  0
   36.5660   29.5240   30.3060 C   0  0  0  0  0  0  0  0  0  0  0  0
   35.5180   29.0840   32.1450 H   0  0  0  0  0  0  0  0  0  0  0  0
   38.2450   26.1160   30.7530 H   0  0  0  0  0  0  0  0  0  0  0  0
   39.5090   26.7980   28.4100 H   0  0  0  0  0  0  0  0  0  0  0  0
   39.4560   28.8050   26.8300 H   0  0  0  0  0  0  0  0  0  0  0  0
   35.9900   30.7940   30.0700 N   0  0  0  0  0  0  0  0  0  0  0  0
   35.1230   30.9220   29.5060 H   0  0  0  0  0  0  0  0  0  0  0  0
   36.4180   32.3680   30.5390 S   0  0  0  0  0  0  0  0  0  0  0  0
   37.5540   32.9420   29.7350 O   0  0  0  0  0  1  0  0  0  0  0  0
   36.7700   32.4960   31.9730 O   0  0  0  0  0  1  0  0  0  0  0  0
   35.0900   33.3690   30.2200 O   0  0  0  0  0  0  0  0  0  0  0  0
   35.0870   33.7020   29.2870 H   0  0  0  0  0  0  0  0  0  0  0  0
  1  2  1  0  0  0  0
  2 11  1  0  0  0  0
  2  3  2  0  0  0  0
  3  7  1  0  0  0  0
  4  3  1  0  0  0  0
  4  8  1  0  0  0  0
  5  4  2  0  0  0  0
  6  1  2  0  0  0  0
  6  5  1  0  0  0  0
  9  5  1  0  0  0  0
 10 15  2  0  0  0  0
 10 11  1  0  0  0  0
 11 12  2  0  0  0  0
 12 13  1  0  0  0  0
 12 18  1  0  0  0  0
 14 17  1  0  0  0  0
 14 13  2  0  0  0  0
 15 14  1  0  0  0  0
 16 10  1  0  0  0  0
 18 21  1  0  0  0  0
 18 20  1  0  0  0  0
 19 18  1  0  0  0  0
 22 23  1  0  0  0  0
 22  1  1  0  0  0  0
 24  6  1  0  0  0  0
 25 26  1  0  0  0  0
 25 34  1  0  0  0  0
 26 24  1  0  0  0  0
 27 35  1  0  0  0  0
 27 26  2  0  0  0  0
 28 27  1  0  0  0  0
 29 28  1  0  0  0  0
 30 31  2  0  0  0  0
 30 29  1  0  0  0  0
 31 32  1  0  0  0  0
 32 28  2  0  0  0  0
 32 33  1  0  0  0  0
 33 25  2  0  0  0  0
 36 29  1  0  0  0  0
 37 30  1  0  0  0  0
 38 33  1  0  0  0  0
 38 40  1  0  0  0  0
 39 38  1  0  0  0  0
 40 42  1  0  0  0  0
 41 40  1  0  0  0  0
 43 40  1  0  0  0  0
 44 43  1  0  0  0  0
M  END
>  <minimizedAffinity>
-5.70653868

$$$$

 OpenBabel03272509233D

 44 47  0  0  0  0  0  0  0  0999 V2000
   38.6380   25.1440   33.8000 C   0  0  0  0  0  0  0  0  0  0  0  0
   38.5850   23.8370   34.2430 C   0  0  0  0  0  0  0  0  0  0  0  0
   37.7490   23.0080   33.4870 C   0  0  0  0  0  0  0  0  0  0  0  0
   37.0300   23.4850   32.3720 C   0  0  0  0  0  0  0  0  0  0  0  0
   37.1600   24.8470   32.0090 C   0  0  0  0  0  0  0  0  0  0  0  0
   37.9850   25.6800   32.7480 C   0  0  0  0  0  0  0  0  0  0  0  0
   37.6620   21.9690   33.7790 H   0  0  0  0  0  0  0  0  0  0  0  0
   36.3950   22.8450   31.8020 H   0  0  0  0  0  0  0  0  0  0  0  0
   36.5950   25.1790   31.1500 H   0  0  0  0  0  0  0  0  0  0  0  0
   40.5380   22.7230   35.1910 C   0  0  0  0  0  0  0  0  0  0  0  0
   39.3080   23.3430   35.3680 C   0  0  0  0  0  0  0  0  0  0  0  0
   38.8190   23.4580   36.6770 C   0  0  0  0  0  0  0  0  0  0  0  0
   39.5690   22.9600   37.6940 N   0  0  0  0  0  0  0  0  0  0  0  0
   40.7670   22.3610   37.4760 C   0  0  0  0  0  0  0  0  0  0  0  0
   41.2470   22.2450   36.2300 N   0  0  0  0  0  0  0  0  0  0  0  0
   40.9690   22.6060   34.1960 H   0  0  0  0  0  0  0  0  0  0  0  0
   41.2730   22.0060   38.3630 H   0  0  0  0  0  0  0  0  0  0  0  0
   37.5160   24.1070   36.9300 C   0  0  0  0  0  0  0  0  0  0  0  0
   36.7840   23.7500   36.1860 H   0  0  0  0  0  0  0  0  0  0  0  0
   37.6220   25.2090   36.8500 H   0  0  0  0  0  0  0  0  0  0  0  0
   37.1770   23.8630   37.9520 H   0  0  0  0  0  0  0  0  0  0  0  0
   39.4520   26.0580   34.4930 O   0  0  0  0  0  0  0  0  0  0  0  0
   40.4360   26.1750   34.3050 H   0  0  0  0  0  0  0  0  0  0  0  0
   38.0670   26.9900   32.3440 O   0  0  0  0  0  0  0  0  0  0  0  0
   36.2580   28.2050   33.5280 C   0  0  0  0  0  0  0  0  0  0  0  0
   37.1050   27.9550   32.4810 C   0  0  0  0  0  0  0  0  0  0  0  0
   37.0220   28.7760   31.3540 C   0  0  0  0  0  0  0  0  0  0  0  0
   36.0940   29.8200   31.3130 C   0  0  0  0  0  0  0  0  0  0  0  0
   35.7820   30.7620   30.3860 N   0  0  0  0  0  0  0  0  0  0  0  0
   34.7960   31.5460   30.8420 C   0  0  0  0  0  0  0  0  0  0  0  0
   34.4860   31.0880   32.0740 N   0  0  0  0  0  0  0  0  0  0  0  0
   35.2680   30.0320   32.3800 C   0  0  0  0  0  0  0  0  0  0  0  0
   35.3490   29.2280   33.4860 C   0  0  0  0  0  0  0  0  0  0  0  0
   36.3680   27.5390   34.3690 H   0  0  0  0  0  0  0  0  0  0  0  0
   37.6280   28.6900   30.4620 H   0  0  0  0  0  0  0  0  0  0  0  0
   36.2550   30.8480   29.4550 H   0  0  0  0  0  0  0  0  0  0  0  0
   34.3760   32.3620   30.2940 H   0  0  0  0  0  0  0  0  0  0  0  0
   34.4710   29.4920   34.5630 N   0  0  0  0  0  0  0  0  0  0  0  0
   34.8070   29.6420   35.5380 H   0  0  0  0  0  0  0  0  0  0  0  0
   32.7840   29.6440   34.6750 S   0  0  0  0  0  0  0  0  0  0  0  0
   32.2400   29.2680   36.0270 O   0  0  0  0  0  1  0  0  0  0  0  0
   32.0390   28.8690   33.6560 O   0  0  0  0  0  1  0  0  0  0  0  0
   32.4110   31.2860   34.4810 O   0  0  0  0  0  0  0  0  0  0  0  0
   32.4630   31.7850   35.3360 H   0  0  0  0  0  0  0  0  0  0  0  0
  1  2  1  0  0  0  0
  1 22  1  0  0  0  0
  2 11  1  0  0  0  0
  3  7  1  0  0  0  0
  3  2  2  0  0  0  0
  4  3  1  0  0  0  0
  5  4  2  0  0  0  0
  5  6  1  0  0  0  0
  6  1  2  0  0  0  0
  8  4  1  0  0  0  0
  9  5  1  0  0  0  0
 10 11  2  0  0  0  0
 10 15  1  0  0  0  0
 11 12  1  0  0  0  0
 12 18  1  0  0  0  0
 12 13  2  0  0  0  0
 14 13  1  0  0  0  0
 14 17  1  0  0  0  0
 15 14  2  0  0  0  0
 16 10  1  0  0  0  0
 18 21  1  0  0  0  0
 19 18  1  0  0  0  0
 20 18  1  0  0  0  0
 23 22  1  0  0  0  0
 24 26  1  0  0  0  0
 24  6  1  0  0  0  0
 25 34  1  0  0  0  0
 26 25  2  0  0  0  0
 27 26  1  0  0  0  0
 28 27  2  0  0  0  0
 28 32  1  0  0  0  0
 29 30  1  0  0  0  0
 29 28  1  0  0  0  0
 30 31  2  0  0  0  0
 31 32  1  0  0  0  0
 32 33  2  0  0  0  0
 33 25  1  0  0  0  0
 33 38  1  0  0  0  0
 35 27  1  0  0  0  0
 36 29  1  0  0  0  0
 37 30  1  0  0  0  0
 38 40  1  0  0  0  0
 38 39  1  0  0  0  0
 40 41  1  0  0  0  0
 42 40  1  0  0  0  0
 43 40  1  0  0  0  0
 43 44  1  0  0  0  0
M  END
>  <minimizedAffinity>
-5.64551592

$$$$
