
 OpenBabel03272510153D

 26 27  0  0  0  0  0  0  0  0999 V2000
   37.2660   29.3600   51.0490 Br  0  0  0  0  0  0  0  0  0  0  0  0
   35.9250   29.3710   49.7010 C   0  0  0  0  0  0  0  0  0  0  0  0
   35.9630   30.2800   48.6660 C   0  0  0  0  0  0  0  0  0  0  0  0
   34.9510   30.2230   47.7260 C   0  0  0  0  0  0  0  0  0  0  0  0
   33.9170   29.3040   47.7780 C   0  0  0  0  0  0  0  0  0  0  0  0
   33.9060   28.4120   48.8180 C   0  0  0  0  0  0  0  0  0  0  0  0
   34.9140   28.4510   49.7760 C   0  0  0  0  0  0  0  0  0  0  0  0
   34.9900   30.9520   46.9070 H   0  0  0  0  0  0  0  0  0  0  0  0
   33.0930   27.6990   48.8490 H   0  0  0  0  0  0  0  0  0  0  0  0
   34.8220   27.7050   50.5630 H   0  0  0  0  0  0  0  0  0  0  0  0
   38.0240   33.1780   49.4690 C   0  0  0  0  0  0  0  0  0  0  0  0
   39.0390   33.1630   48.4750 C   0  0  0  0  0  0  0  0  0  0  0  0
   38.9840   32.1410   47.5420 C   0  0  0  0  0  0  0  0  0  0  0  0
   37.9810   31.2040   47.6080 N   0  0  0  0  0  0  0  0  0  0  0  0
   37.0360   31.2640   48.5780 C   0  0  0  0  0  0  0  0  0  0  0  0
   37.0600   32.2540   49.5100 N   0  0  0  0  0  0  0  0  0  0  0  0
   37.9900   33.9440   50.2400 H   0  0  0  0  0  0  0  0  0  0  0  0
   39.7840   33.9370   48.5010 H   0  0  0  0  0  0  0  0  0  0  0  0
   39.7440   32.1160   46.7830 H   0  0  0  0  0  0  0  0  0  0  0  0
   32.9450   29.3750   46.7270 N   0  0  0  0  0  0  0  0  0  0  0  0
   33.1870   30.1230   46.0750 H   0  0  0  0  0  0  0  0  0  0  0  0
   31.5730   28.3340   46.6040 S   0  0  0  0  0  0  0  0  0  0  0  0
   31.6900   27.4790   45.3930 O   0  0  0  0  0  1  0  0  0  0  0  0
   31.5840   27.4160   47.8170 O   0  0  0  0  0  1  0  0  0  0  0  0
   30.1230   29.1760   46.6760 O   0  0  0  0  0  0  0  0  0  0  0  0
   29.9330   29.5220   45.7620 H   0  0  0  0  0  0  0  0  0  0  0  0
  2  7  1  0  0  0  0
  2  1  1  0  0  0  0
  3  2  2  0  0  0  0
  4  5  2  0  0  0  0
  4  3  1  0  0  0  0
  5  6  1  0  0  0  0
  6  9  1  0  0  0  0
  6  7  2  0  0  0  0
  7 10  1  0  0  0  0
  8  4  1  0  0  0  0
 11 16  1  0  0  0  0
 11 17  1  0  0  0  0
 12 18  1  0  0  0  0
 12 11  2  0  0  0  0
 13 14  2  0  0  0  0
 13 12  1  0  0  0  0
 14 15  1  0  0  0  0
 15  3  1  0  0  0  0
 15 16  2  0  0  0  0
 19 13  1  0  0  0  0
 20  5  1  0  0  0  0
 21 20  1  0  0  0  0
 22 25  1  0  0  0  0
 22 20  1  0  0  0  0
 22 24  1  0  0  0  0
 23 22  1  0  0  0  0
 26 25  1  0  0  0  0
M  END
>  <minimizedAffinity>
-5.55952263

>  <minimizedRMSD>
0.167643413

$$$$
