REMARK  Name = 
REMARK  4 active torsions:
REMARK  status: ('A' for Active; 'I' for Inactive)
REMARK    1  A    between atoms: C_5  and  C_9
REMARK    2  A    between atoms: C_11  and  N_20
REMARK    3  A    between atoms: N_20  and  S_22
REMARK    4  A    between atoms: S_22  and  O_25
REMARK                            x       y       z     vdW  Elec       q    Type
REMARK                         _______ _______ _______ _____ _____    ______ ____
ROOT
ATOM      1 BR   UNL     1      37.267  29.356  51.045  0.00  0.00    +0.000 Br
ATOM      2  C   UNL     1      35.960  29.319  49.664  0.00  0.00    +0.000 A 
ATOM      3  C   UNL     1      36.004  30.215  48.618  0.00  0.00    +0.000 A 
ATOM      4  C   UNL     1      35.018  30.123  47.654  0.00  0.00    +0.000 A 
ATOM      5  C   UNL     1      34.003  29.182  47.693  0.00  0.00    +0.000 A 
ATOM      6  C   UNL     1      33.986  28.304  48.745  0.00  0.00    +0.000 A 
ATOM      7  C   UNL     1      34.968  28.378  49.727  0.00  0.00    +0.000 A 
ATOM      8  H   UNL     1      35.061  30.841  46.826  0.00  0.00    +0.000 HD
ATOM      9  H   UNL     1      33.188  27.573  48.765  0.00  0.00    +0.000 HD
ATOM     10  H   UNL     1      34.873  27.641  50.522  0.00  0.00    +0.000 HD
ENDROOT
BRANCH   3  15
ATOM     11  C   UNL     1      37.981  33.169  49.431  0.00  0.00    +0.000 A 
ATOM     12  C   UNL     1      39.020  33.163  48.463  0.00  0.00    +0.000 A 
ATOM     13  C   UNL     1      39.011  32.127  47.543  0.00  0.00    +0.000 A 
ATOM     14  N   UNL     1      38.028  31.169  47.597  0.00  0.00    +0.000 NA
ATOM     15  C   UNL     1      37.057  31.221  48.543  0.00  0.00    +0.000 A 
ATOM     16  N   UNL     1      37.036  32.224  49.461  0.00  0.00    +0.000 NA
ATOM     17  H   UNL     1      37.910  33.944  50.190  0.00  0.00    +0.000 HD
ATOM     18  H   UNL     1      39.747  33.954  48.496  0.00  0.00    +0.000 HD
ATOM     19  H   UNL     1      39.790  32.109  46.804  0.00  0.00    +0.000 HD
ENDBRANCH   3  15
BRANCH   5  20
ATOM     20  N   UNL     1      33.057  29.217  46.617  0.00  0.00    +0.000 N 
ATOM     21  H   UNL     1      32.512  28.352  46.600  0.00  0.00    +0.000 HD
BRANCH  20  22
ATOM     22  S   UNL     1      32.883  30.540  45.523  0.00  0.00    +0.000 S 
ATOM     23  O   UNL     1      31.547  31.171  45.696  0.00  0.00    +0.000 OA
ATOM     24  O   UNL     1      33.932  31.579  45.888  0.00  0.00    +0.000 OA
BRANCH  22  25
ATOM     25  O   UNL     1      33.202  30.102  43.934  0.00  0.00    +0.000 OA
ATOM     26  H   UNL     1      32.371  29.697  43.564  0.00  0.00    +0.000 HD
ENDBRANCH  22  25
ENDBRANCH  20  22
ENDBRANCH   5  20
TORSDOF 4
