REMARK  Name = 
REMARK  9 active torsions:
REMARK  status: ('A' for Active; 'I' for Inactive)
REMARK    1  A    between atoms: C_3  and  C_9
REMARK    2  A    between atoms: C_5  and  O_14
REMARK    3  A    between atoms: O_14  and  C_15
REMARK    4  A    between atoms: C_15  and  C_16
REMARK    5  A    between atoms: C_16  and  C_17
REMARK    6  A    between atoms: C_21  and  C_23
REMARK    7  A    between atoms: C_23  and  N_38
REMARK    8  A    between atoms: N_38  and  S_40
REMARK    9  A    between atoms: S_40  and  O_43
REMARK                            x       y       z     vdW  Elec       q    Type
REMARK                         _______ _______ _______ _____ _____    ______ ____
ROOT
ATOM      1  C   UNL     1      34.450  28.636  48.171  0.00  0.00    +0.000 C 
ATOM      2  H   UNL     1      35.288  28.818  47.454  0.00  0.00    +0.000 HD
ATOM      3  H   UNL     1      33.899  29.613  48.267  0.00  0.00    +0.000 HD
ENDROOT
BRANCH   1   4
ATOM      4  C   UNL     1      33.557  27.534  47.713  0.00  0.00    +0.000 C 
ATOM      5  H   UNL     1      33.722  26.570  48.228  0.00  0.00    +0.000 HD
ATOM      6  H   UNL     1      33.804  27.321  46.634  0.00  0.00    +0.000 HD
BRANCH   4   7
ATOM      7  C   UNL     1      32.114  27.892  47.750  0.00  0.00    +0.000 A 
ATOM      8  C   UNL     1      31.373  27.482  48.843  0.00  0.00    +0.000 A 
ATOM      9  C   UNL     1      30.037  27.763  48.968  0.00  0.00    +0.000 A 
ATOM     10  N   UNL     1      29.427  28.461  47.995  0.00  0.00    +0.000 NA
ATOM     11  C   UNL     1      30.168  28.852  46.935  0.00  0.00    +0.000 A 
ATOM     12  N   UNL     1      31.472  28.596  46.780  0.00  0.00    +0.000 NA
ATOM     13  H   UNL     1      31.814  26.919  49.653  0.00  0.00    +0.000 HD
ATOM     14  H   UNL     1      29.459  27.448  49.813  0.00  0.00    +0.000 HD
BRANCH  11  15
ATOM     15  C   UNL     1      29.450  29.632  45.865  0.00  0.00    +0.000 C 
ATOM     16  H   UNL     1      28.650  30.268  46.268  0.00  0.00    +0.000 HD
ATOM     17  H   UNL     1      30.166  30.298  45.358  0.00  0.00    +0.000 HD
BRANCH  15  18
ATOM     18  N   UNL     1      28.954  28.639  44.934  0.00  0.00    +0.000 NA
ATOM     19  H   UNL     1      29.614  28.448  44.160  0.00  0.00    +0.000 HD
BRANCH  18  20
ATOM     20  S   UNL     1      28.612  27.143  45.724  0.00  0.00    +0.000 S 
ATOM     21  O   UNL     1      27.711  27.426  46.872  0.00  0.00    +0.000 OA
ATOM     22  O   UNL     1      29.941  26.563  46.137  0.00  0.00    +0.000 OA
BRANCH  20  23
ATOM     23  O   UNL     1      27.889  26.051  44.698  0.00  0.00    +0.000 OA
ATOM     24  H   UNL     1      26.907  26.220  44.557  0.00  0.00    +0.000 HD
ENDBRANCH  20  23
ENDBRANCH  18  20
ENDBRANCH  15  18
ENDBRANCH  11  15
ENDBRANCH   4   7
ENDBRANCH   1   4
BRANCH   1  25
ATOM     25  O   UNL     1      35.000  28.347  49.452  0.00  0.00    +0.000 OA
BRANCH  25  30
ATOM     26  C   UNL     1      37.337  30.179  51.519  0.00  0.00    +0.000 A 
ATOM     27  C   UNL     1      38.060  30.864  50.521  0.00  0.00    +0.000 A 
ATOM     28  C   UNL     1      37.702  30.656  49.203  0.00  0.00    +0.000 A 
ATOM     29  N   UNL     1      36.664  29.792  48.980  0.00  0.00    +0.000 NA
ATOM     30  C   UNL     1      35.986  29.147  49.940  0.00  0.00    +0.000 A 
ATOM     31  N   UNL     1      36.333  29.349  51.225  0.00  0.00    +0.000 NA
ATOM     32  H   UNL     1      37.627  30.350  52.550  0.00  0.00    +0.000 HD
ATOM     33  H   UNL     1      38.865  31.533  50.717  0.00  0.00    +0.000 HD
BRANCH  28  36
ATOM     34  F   UNL     1      38.941  33.262  49.013  0.00  0.00    +0.000 F 
ATOM     35  C   UNL     1      38.912  32.478  47.949  0.00  0.00    +0.000 A 
ATOM     36  C   UNL     1      38.333  31.274  48.056  0.00  0.00    +0.000 A 
ATOM     37  C   UNL     1      38.358  30.527  46.873  0.00  0.00    +0.000 A 
ATOM     38  C   UNL     1      38.922  30.992  45.716  0.00  0.00    +0.000 A 
ATOM     39  C   UNL     1      39.503  32.228  45.648  0.00  0.00    +0.000 A 
ATOM     40  C   UNL     1      39.488  32.970  46.793  0.00  0.00    +0.000 A 
ATOM     41  H   UNL     1      37.910  29.522  46.849  0.00  0.00    +0.000 HD
ATOM     42  H   UNL     1      38.915  30.372  44.824  0.00  0.00    +0.000 HD
ATOM     43  H   UNL     1      39.934  32.547  44.713  0.00  0.00    +0.000 HD
ATOM     44  H   UNL     1      39.941  33.959  46.775  0.00  0.00    +0.000 HD
ENDBRANCH  28  36
ENDBRANCH  25  30
ENDBRANCH   1  25
TORSDOF 9
