
 OpenBabel03272501453D

 45 48  0  0  1  0  0  0  0  0999 V2000
   31.3490   27.0090   48.2250 C   0  0  0  0  0  0  0  0  0  0  0  0
   31.1960   26.6070   49.2510 H   0  0  0  0  0  0  0  0  0  0  0  0
   31.6550   26.1410   47.6020 H   0  0  0  0  0  0  0  0  0  0  0  0
   30.1300   27.6320   47.6430 C   0  0  1  0  0  0  0  0  0  0  0  0
   29.4280   26.5820   46.8060 C   0  0  0  0  0  0  0  0  0  0  0  0
   28.0370   26.4320   47.3670 C   0  0  0  0  0  0  0  0  0  0  0  0
   28.2000   26.8220   48.8100 C   0  0  0  0  0  0  0  0  0  0  0  0
   29.0950   28.0600   48.6570 C   0  0  2  0  0  0  0  0  0  0  0  0
   30.4370   28.5150   47.0440 H   0  0  0  0  0  0  0  0  0  0  0  0
   29.9870   25.6310   46.7440 H   0  0  0  0  0  0  0  0  0  0  0  0
   29.3100   27.0220   45.7850 H   0  0  0  0  0  0  0  0  0  0  0  0
   27.7950   25.3400   47.3240 H   0  0  0  0  0  0  0  0  0  0  0  0
   27.2870   27.0060   46.8170 H   0  0  0  0  0  0  0  0  0  0  0  0
   27.2440   27.0740   49.2990 H   0  0  0  0  0  0  0  0  0  0  0  0
   28.7680   26.0500   49.3320 H   0  0  0  0  0  0  0  0  0  0  0  0
   29.5950   28.3300   49.6050 H   0  0  0  0  0  0  0  0  0  0  0  0
   28.3540   29.1650   48.1260 N   0  0  0  0  0  0  0  0  0  0  0  0
   28.9040   29.8280   47.5380 H   0  0  0  0  0  0  0  0  0  0  0  0
   27.4530   29.9890   49.3430 S   0  0  0  0  0  0  0  0  0  0  0  0
   26.4060   29.0450   49.8580 O   0  0  0  0  0  0  0  0  0  0  0  0
   26.8870   31.2310   48.7450 O   0  0  0  0  0  0  0  0  0  0  0  0
   28.5270   30.3470   50.5910 O   0  0  0  0  0  0  0  0  0  0  0  0
   27.9920   30.5520   51.4010 H   0  0  0  0  0  0  0  0  0  0  0  0
   34.1510   29.1000   49.4420 C   0  0  0  0  0  0  0  0  0  0  0  0
   34.6410   29.6660   48.2410 C   0  0  0  0  0  0  0  0  0  0  0  0
   34.0050   29.3210   47.0520 C   0  0  0  0  0  0  0  0  0  0  0  0
   32.9590   28.4690   47.0940 N   0  0  0  0  0  0  0  0  0  0  0  0
   32.5050   27.9360   48.2740 C   0  0  0  0  0  0  0  0  0  0  0  0
   33.1110   28.2610   49.4330 N   0  0  0  0  0  0  0  0  0  0  0  0
   34.5770   29.3080   50.4100 H   0  0  0  0  0  0  0  0  0  0  0  0
   34.3980   29.7620   46.1700 H   0  0  0  0  0  0  0  0  0  0  0  0
   36.0260   31.0560   49.6620 C   0  0  0  0  0  0  0  0  0  0  0  0
   35.7710   30.5570   48.3910 C   0  0  0  0  0  0  0  0  0  0  0  0
   36.6220   30.9590   47.3790 C   0  0  0  0  0  0  0  0  0  0  0  0
   37.6830   31.8300   47.6620 C   0  0  0  0  0  0  0  0  0  0  0  0
   38.6330   32.3660   46.9060 N   0  0  0  0  0  0  0  0  0  0  0  0
   39.4230   33.1420   47.6430 C   0  0  0  0  0  0  0  0  0  0  0  0
   38.9750   33.1110   48.9250 N   0  0  0  0  0  0  0  0  0  0  0  0
   37.9030   32.3000   48.9320 C   0  0  0  0  0  0  0  0  0  0  0  0
   37.0670   31.9130   49.9500 C   0  0  0  0  0  0  0  0  0  0  0  0
   35.4160   30.8020   50.5260 H   0  0  0  0  0  0  0  0  0  0  0  0
   36.4380   30.5850   46.4030 H   0  0  0  0  0  0  0  0  0  0  0  0
   38.7500   32.2090   45.8780 H   0  0  0  0  0  0  0  0  0  0  0  0
   40.2900   33.7320   47.3670 H   0  0  0  0  0  0  0  0  0  0  0  0
   37.2630   32.2990   50.9400 H   0  0  0  0  0  0  0  0  0  0  0  0
  1 28  1  0  0  0  0
  1  2  1  0  0  0  0
  3  1  1  0  0  0  0
  4  9  1  6  0  0  0
  4  1  1  0  0  0  0
  4  8  1  0  0  0  0
  5  6  1  0  0  0  0
  5  4  1  0  0  0  0
  6  7  1  0  0  0  0
  7 14  1  0  0  0  0
  7 15  1  0  0  0  0
  8  7  1  0  0  0  0
  8 16  1  1  0  0  0
 10  5  1  0  0  0  0
 11  5  1  0  0  0  0
 12  6  1  0  0  0  0
 13  6  1  0  0  0  0
 17  8  1  0  0  0  0
 17 19  1  0  0  0  0
 18 17  1  0  0  0  0
 19 20  1  0  0  0  0
 19 22  1  0  0  0  0
 21 19  1  0  0  0  0
 22 23  1  0  0  0  0
 24 30  1  0  0  0  0
 25 33  1  0  0  0  0
 25 24  2  0  0  0  0
 26 27  2  0  0  0  0
 26 25  1  0  0  0  0
 27 28  1  0  0  0  0
 28 29  2  0  0  0  0
 29 24  1  0  0  0  0
 31 26  1  0  0  0  0
 32 40  1  0  0  0  0
 32 41  1  0  0  0  0
 33 32  2  0  0  0  0
 34 35  2  0  0  0  0
 34 33  1  0  0  0  0
 35 39  1  0  0  0  0
 36 37  1  0  0  0  0
 36 35  1  0  0  0  0
 37 38  2  0  0  0  0
 38 39  1  0  0  0  0
 39 40  2  0  0  0  0
 40 45  1  0  0  0  0
 42 34  1  0  0  0  0
 43 36  1  0  0  0  0
 44 37  1  0  0  0  0
M  END
>  <minimizedAffinity>
-6.93894053

>  <minimizedRMSD>
1.29768121

$$$$
