
 OpenBabel03272500073D

 42 45  0  0  1  0  0  0  0  0999 V2000
   31.0690   27.2850   48.2620 C   0  0  0  0  0  0  0  0  0  0  0  0
   30.8390   27.7640   49.5360 C   0  0  0  0  0  0  0  0  0  0  0  0
   29.5810   28.1790   49.9220 C   0  0  0  0  0  0  0  0  0  0  0  0
   28.5360   28.1130   49.0130 C   0  0  0  0  0  0  0  0  0  0  0  0
   28.7800   27.6350   47.7490 C   0  0  0  0  0  0  0  0  0  0  0  0
   30.0240   27.2260   47.3740 C   0  0  0  0  0  0  0  0  0  0  0  0
   31.6270   27.8380   50.2930 H   0  0  0  0  0  0  0  0  0  0  0  0
   29.4250   28.5520   50.9320 H   0  0  0  0  0  0  0  0  0  0  0  0
   27.5700   28.4450   49.3470 H   0  0  0  0  0  0  0  0  0  0  0  0
   27.9270   27.6080   47.0860 H   0  0  0  0  0  0  0  0  0  0  0  0
   30.6200   27.7750   45.0260 C   0  0  2  0  0  3  0  0  0  0  0  0
   30.2430   26.7020   46.0300 C   0  0  1  0  0  3  0  0  0  0  0  0
   31.2650   25.6040   45.9110 C   0  0  0  0  0  3  0  0  0  0  0  0
   30.7820   24.6340   46.1840 H   0  0  0  0  0  0  0  0  0  0  0  0
   31.6000   25.4640   44.5610 O   0  0  0  0  0  0  0  0  0  0  0  0
   30.5670   25.7160   43.6990 C   0  0  0  0  0  3  0  0  0  0  0  0
   30.9080   25.3390   42.6970 H   0  0  0  0  0  0  0  0  0  0  0  0
   30.2940   27.2190   43.6540 C   0  0  2  0  0  3  0  0  0  0  0  0
   31.9940   27.9760   45.1340 O   0  0  0  0  0  0  0  0  0  0  0  0
   32.1990   28.9330   44.9690 H   0  0  0  0  0  0  0  0  0  0  0  0
   30.9860   27.8570   42.6550 O   0  0  0  0  0  0  0  0  0  0  0  0
   30.3350   28.2190   42.0040 H   0  0  0  0  0  0  0  0  0  0  0  0
   32.3870   26.9080   48.0220 O   0  0  0  0  0  0  0  0  0  0  0  0
   35.3040   28.7090   49.1150 C   0  0  0  0  0  0  0  0  0  0  0  0
   35.2340   29.9090   48.4060 C   0  0  0  0  0  0  0  0  0  0  0  0
   34.1430   30.0790   47.5340 C   0  0  0  0  0  0  0  0  0  0  0  0
   33.2360   29.0720   47.4390 N   0  0  0  0  0  0  0  0  0  0  0  0
   33.3290   27.9360   48.1310 C   0  0  0  0  0  0  0  0  0  0  0  0
   34.3770   27.7450   48.9850 N   0  0  0  0  0  0  0  0  0  0  0  0
   36.1190   28.4870   49.8190 H   0  0  0  0  0  0  0  0  0  0  0  0
   34.0850   30.9970   46.9870 H   0  0  0  0  0  0  0  0  0  0  0  0
   36.2490   30.8730   48.5980 N   0  0  0  0  0  0  0  0  0  0  0  0
   36.3970   31.5300   49.7440 C   0  0  0  0  0  0  0  0  0  0  0  0
   37.4130   32.4720   49.8720 C   0  0  0  0  0  0  0  0  0  0  0  0
   38.1980   32.6420   48.7590 C   0  0  0  0  0  0  0  0  0  0  0  0
   39.1190   33.4960   48.8690 O   0  0  0  0  0  0  0  0  0  0  0  0
   38.0790   32.0050   47.6030 N   0  0  0  0  0  0  0  0  0  0  0  0
   37.0720   31.0930   47.5200 C   0  0  0  0  0  0  0  0  0  0  0  0
   36.9460   30.4730   46.4150 O   0  0  0  0  0  0  0  0  0  0  0  0
   35.7510   31.3570   50.5890 H   0  0  0  0  0  0  0  0  0  0  0  0
   37.5400   33.0100   50.8030 H   0  0  0  0  0  0  0  0  0  0  0  0
   38.7050   32.1770   46.7960 H   0  0  0  0  0  0  0  0  0  0  0  0
  1  2  1  0  0  0  0
  2  3  2  0  0  0  0
  2  7  1  0  0  0  0
  3  8  1  0  0  0  0
  4  9  1  0  0  0  0
  4  3  1  0  0  0  0
  5  4  2  0  0  0  0
  6  5  1  0  0  0  0
  6  1  2  0  0  0  0
 10  5  1  0  0  0  0
 11 19  1  6  0  0  0
 11 12  1  0  0  0  0
 12  6  1  1  0  0  0
 13 12  1  0  0  0  0
 13 14  1  0  0  0  0
 15 13  1  0  0  0  0
 16 15  1  0  0  0  0
 17 16  1  0  0  0  0
 18 21  1  6  0  0  0
 18 16  1  0  0  0  0
 18 11  1  0  0  0  0
 20 19  1  0  0  0  0
 22 21  1  0  0  0  0
 23 28  1  0  0  0  0
 23  1  1  0  0  0  0
 24 30  1  0  0  0  0
 25 32  1  0  0  0  0
 25 24  2  0  0  0  0
 26 25  1  0  0  0  0
 27 26  2  0  0  0  0
 27 28  1  0  0  0  0
 28 29  2  0  0  0  0
 29 24  1  0  0  0  0
 31 26  1  0  0  0  0
 32 33  1  0  0  0  0
 33 34  2  0  0  0  0
 33 40  1  0  0  0  0
 34 41  1  0  0  0  0
 35 36  2  0  0  0  0
 35 34  1  0  0  0  0
 37 35  1  0  0  0  0
 38 37  1  0  0  0  0
 38 32  1  0  0  0  0
 39 38  2  0  0  0  0
 42 37  1  0  0  0  0
M  END
>  <minimizedAffinity>
-5.74334002

>  <minimizedRMSD>
0.868376911

$$$$
