
 OpenBabel03272510263D

 48 52  0  0  1  0  0  0  0  0999 V2000
   39.3640   31.6430   41.8560 N   0  0  0  0  0  0  0  0  0  0  0  0
   39.2420   33.0700   41.8540 C   0  0  1  0  0  0  0  0  0  0  0  0
   37.9540   33.4900   41.3190 C   0  0  0  0  0  0  0  0  0  0  0  0
   37.8680   33.0720   39.9820 O   0  0  0  0  0  0  0  0  0  0  0  0
   38.0870   31.7370   39.7730 C   0  0  0  0  0  0  0  0  0  0  0  0
   39.2760   31.1910   40.4860 C   0  0  1  0  0  0  0  0  0  0  0  0
   38.8000   31.0800   42.4490 H   0  0  0  0  0  0  0  0  0  0  0  0
   40.0570   33.4950   41.2470 H   0  0  0  0  0  0  0  0  0  0  0  0
   37.9940   34.6180   41.2280 H   0  0  0  0  0  0  0  0  0  0  0  0
   37.0090   33.2580   41.7270 H   0  0  0  0  0  0  0  0  0  0  0  0
   38.1010   31.5570   38.7060 H   0  0  0  0  0  0  0  0  0  0  0  0
   37.1830   31.2070   40.1970 H   0  0  0  0  0  0  0  0  0  0  0  0
   39.1000   30.0750   40.5490 H   0  0  0  0  0  0  0  0  0  0  0  0
   41.4380   30.1120   40.0800 C   0  0  2  0  0  3  0  0  0  0  0  0
   40.5840   31.3190   39.7670 C   0  0  1  0  0  3  0  0  0  0  0  0
   40.4210   31.4100   38.2930 C   0  0  0  0  0  3  0  0  0  0  0  0
   41.4640   31.5020   37.8660 H   0  0  0  0  0  0  0  0  0  0  0  0
   39.9140   30.2480   37.7160 O   0  0  0  0  0  0  0  0  0  0  0  0
   40.9700   29.3130   37.8120 C   0  0  0  0  0  3  0  0  0  0  0  0
   41.9090   29.8590   37.5760 H   0  0  0  0  0  0  0  0  0  0  0  0
   41.0360   28.9060   39.2590 C   0  0  1  0  0  3  0  0  0  0  0  0
   41.4000   29.7480   41.4020 O   0  0  0  0  0  0  0  0  0  0  0  0
   41.6380   28.8190   41.5490 H   0  0  0  0  0  0  0  0  0  0  0  0
   42.0090   27.9330   39.4820 O   0  0  0  0  0  0  0  0  0  0  0  0
   42.8600   28.3100   39.8310 H   0  0  0  0  0  0  0  0  0  0  0  0
   39.3880   33.4960   43.2040 O   0  0  0  0  0  0  0  0  0  0  0  0
   36.1660   30.2100   46.8960 C   0  0  0  0  0  0  0  0  0  0  0  0
   37.0530   30.7370   47.8240 C   0  0  0  0  0  0  0  0  0  0  0  0
   38.0660   31.6210   47.4310 C   0  0  0  0  0  0  0  0  0  0  0  0
   38.1290   31.9310   46.0770 C   0  0  0  0  0  0  0  0  0  0  0  0
   39.0190   32.7640   45.4550 N   0  0  0  0  0  0  0  0  0  0  0  0
   38.6880   32.7520   44.1540 C   0  0  0  0  0  0  0  0  0  0  0  0
   37.6500   31.9610   43.9550 N   0  0  0  0  0  0  0  0  0  0  0  0
   37.2630   31.4240   45.1250 C   0  0  0  0  0  0  0  0  0  0  0  0
   36.2620   30.5440   45.5500 C   0  0  0  0  0  0  0  0  0  0  0  0
   35.3740   29.5290   47.1530 H   0  0  0  0  0  0  0  0  0  0  0  0
   38.7670   32.0430   48.1390 H   0  0  0  0  0  0  0  0  0  0  0  0
   39.8040   33.2970   45.9340 H   0  0  0  0  0  0  0  0  0  0  0  0
   35.5860   30.1470   44.8110 H   0  0  0  0  0  0  0  0  0  0  0  0
   37.5160   30.1650   51.5070 C   0  0  0  0  0  0  0  0  0  0  0  0
   37.8160   30.5990   50.2220 C   0  0  0  0  0  0  0  0  0  0  0  0
   36.9110   30.3600   49.2160 C   0  0  0  0  0  0  0  0  0  0  0  0
   35.7500   29.6970   49.5550 N   0  0  0  0  0  0  0  0  0  0  0  0
   35.4690   29.2790   50.8050 C   0  0  0  0  0  0  0  0  0  0  0  0
   36.3440   29.5130   51.7630 N   0  0  0  0  0  0  0  0  0  0  0  0
   38.2660   30.3790   52.2640 H   0  0  0  0  0  0  0  0  0  0  0  0
   38.7230   31.1200   49.9460 H   0  0  0  0  0  0  0  0  0  0  0  0
   34.5330   28.7680   50.9730 H   0  0  0  0  0  0  0  0  0  0  0  0
  1  7  1  0  0  0  0
  2  8  1  6  0  0  0
  2  1  1  0  0  0  0
  2 26  1  0  0  0  0
  3 10  1  0  0  0  0
  3  2  1  0  0  0  0
  4  3  1  0  0  0  0
  5  4  1  0  0  0  0
  5 12  1  0  0  0  0
  5  6  1  0  0  0  0
  6 13  1  1  0  0  0
  6  1  1  0  0  0  0
  9  3  1  0  0  0  0
 11  5  1  0  0  0  0
 14 22  1  1  0  0  0
 15 16  1  6  0  0  0
 15 14  1  0  0  0  0
 15  6  1  0  0  0  0
 17 16  1  0  0  0  0
 18 19  1  0  0  0  0
 18 16  1  0  0  0  0
 19 21  1  0  0  0  0
 20 19  1  0  0  0  0
 21 24  1  6  0  0  0
 21 14  1  0  0  0  0
 22 23  1  0  0  0  0
 24 25  1  0  0  0  0
 26 32  1  0  0  0  0
 27 36  1  0  0  0  0
 27 28  1  0  0  0  0
 28 42  1  0  0  0  0
 29 28  2  0  0  0  0
 29 37  1  0  0  0  0
 30 29  1  0  0  0  0
 31 38  1  0  0  0  0
 31 30  1  0  0  0  0
 32 31  1  0  0  0  0
 33 32  2  0  0  0  0
 33 34  1  0  0  0  0
 34 35  1  0  0  0  0
 34 30  2  0  0  0  0
 35 27  2  0  0  0  0
 39 35  1  0  0  0  0
 40 45  1  0  0  0  0
 40 46  1  0  0  0  0
 41 40  2  0  0  0  0
 42 43  2  0  0  0  0
 42 41  1  0  0  0  0
 43 44  1  0  0  0  0
 44 48  1  0  0  0  0
 44 45  2  0  0  0  0
 47 41  1  0  0  0  0
M  END
>  <minimizedAffinity>
-6.04029894

>  <minimizedRMSD>
1.81577575

$$$$
