
     RDKit          3D

 36 38  0  0  0  0  0  0  0  0999 V2000
   37.0075   31.3918   48.5677 N   0  0  0  0  0  0  0  0  0  0  0  0
   37.1847   32.1542   49.6528 C   0  0  0  0  0  0  0  0  0  0  0  0
   38.1511   33.1603   49.6736 C   0  0  0  0  0  0  0  0  0  0  0  0
   38.8611   33.2602   48.4922 C   0  0  0  0  0  0  0  0  0  0  0  0
   39.7569   34.1685   48.4642 O   0  0  0  0  0  0  0  0  0  0  0  0
   38.7154   32.5208   47.3891 N   0  0  0  0  0  0  0  0  0  0  0  0
   37.7582   31.5715   47.4570 C   0  0  0  0  0  0  0  0  0  0  0  0
   37.6058   30.8607   46.4185 O   0  0  0  0  0  0  0  0  0  0  0  0
   36.2022   29.2472   49.3496 C   0  0  0  0  0  0  0  0  0  0  0  0
   36.0350   30.3673   48.5160 C   0  0  0  0  0  0  0  0  0  0  0  0
   34.9038   30.3943   47.6881 C   0  0  0  0  0  0  0  0  0  0  0  0
   34.0406   29.3474   47.7378 N   0  0  0  0  0  0  0  0  0  0  0  0
   34.2344   28.2835   48.5557 C   0  0  0  0  0  0  0  0  0  0  0  0
   35.3194   28.2252   49.3696 N   0  0  0  0  0  0  0  0  0  0  0  0
   36.5925   32.0337   50.5495 H   0  0  0  0  0  0  0  0  0  0  0  0
   38.3429   33.8082   50.5169 H   0  0  0  0  0  0  0  0  0  0  0  0
   39.3143   32.6899   46.5515 H   0  0  0  0  0  0  0  0  0  0  0  0
   34.7714   31.2515   47.0463 H   0  0  0  0  0  0  0  0  0  0  0  0
   33.4343   27.5589   48.4456 H   0  0  0  0  0  0  0  0  0  0  0  0
   38.4398   30.1575   48.5847 O   0  0  0  0  0  0  0  0  0  0  0  0
   38.6635   29.4528   49.7657 C   0  0  2  0  0  0  0  0  0  0  0  0
   37.3285   29.0278   50.2912 C   0  0  1  0  0  0  0  0  0  0  0  0
   37.1157   29.7357   51.6098 C   0  0  1  0  0  0  0  0  0  0  0  0
   36.0809   29.5182   51.9434 H   0  0  0  0  0  0  0  0  0  0  0  0
   37.2646   31.0994   51.5532 O   0  0  0  0  0  0  0  0  0  0  0  0
   38.4930   31.5242   51.1142 C   0  0  1  0  0  0  0  0  0  0  0  0
   38.4142   32.2662   50.2880 H   0  0  0  0  0  0  0  0  0  0  0  0
   39.3856   30.3849   50.7308 C   0  0  2  0  0  0  0  0  0  0  0  0
   40.4918   30.9168   50.0723 O   0  0  0  0  0  0  0  0  0  0  0  0
   39.2433   30.2095   48.0118 H   0  0  0  0  0  0  0  0  0  0  0  0
   39.3258   28.5978   49.5751 H   0  0  0  0  0  0  0  0  0  0  0  0
   37.3739   27.9375   50.5511 H   0  0  0  0  0  0  0  0  0  0  0  0
   37.7944   29.2470   52.3390 H   0  0  0  0  0  0  0  0  0  0  0  0
   39.0076   32.0570   51.9589 H   0  0  0  0  0  0  0  0  0  0  0  0
   39.6928   29.8195   51.6333 H   0  0  0  0  0  0  0  0  0  0  0  0
   40.8422   31.7294   50.5265 H   0  0  0  0  0  0  0  0  0  0  0  0
  1  2  1  0
  2  3  2  0
  4  3  1  0
  5  4  2  0
  6  7  1  0
  6  4  1  0
  7  1  1  0
  8  7  2  0
  9 14  1  0
 10  1  1  0
 10  9  2  0
 11 12  2  0
 11 10  1  0
 12 13  1  0
 13 14  2  0
  2 15  1  0
  3 16  1  0
  6 17  1  0
 11 18  1  0
 13 19  1  0
 20 21  1  0
 21 22  1  0
 22 23  1  0
 23 24  1  1
 23 25  1  0
 25 26  1  0
 26 27  1  6
 26 28  1  0
 28 29  1  0
 28 21  1  0
 20 30  1  0
 21 31  1  6
 22 32  1  1
 23 33  1  0
 26 34  1  0
 28 35  1  1
 29 36  1  0
  9 22  1  0
M  ISO  7  15  14  16  14  17   9  18  14  19  14  24   8  27   8
M  END
>  <DihAtoms>  (1) 
13,8,21,20

>  <DihDeg>  (1) 
-84.81685763164037

$$$$
