
 OpenBabel03272502303D

 27 28  0  0  1  0  0  0  0  0999 V2000
   39.5010   32.6740   46.8190 C   0  0  0  0  0  0  0  0  0  0  0  0
   40.4170   33.1430   47.2600 H   0  0  0  0  0  0  0  0  0  0  0  0
   38.8710   33.3990   46.2800 H   0  0  0  0  0  0  0  0  0  0  0  0
   38.2130   30.9130   47.9590 C   0  0  0  0  0  3  0  0  0  0  0  0
   38.7690   32.1170   47.9880 C   0  0  0  0  0  3  0  0  0  0  0  0
   37.2430   30.1440   51.4580 C   0  0  0  0  0  0  0  0  0  0  0  0
   37.9420   30.6760   50.3620 C   0  0  0  0  0  0  0  0  0  0  0  0
   37.5110   30.3800   49.0870 C   0  0  0  0  0  0  0  0  0  0  0  0
   36.4220   29.5840   48.9170 N   0  0  0  0  0  0  0  0  0  0  0  0
   35.7690   29.0870   49.9840 C   0  0  0  0  0  0  0  0  0  0  0  0
   36.1650   29.3560   51.2490 N   0  0  0  0  0  0  0  0  0  0  0  0
   37.5320   30.3380   52.4760 H   0  0  0  0  0  0  0  0  0  0  0  0
   38.7980   31.3000   50.5690 H   0  0  0  0  0  0  0  0  0  0  0  0
   34.9090   28.4600   49.7600 H   0  0  0  0  0  0  0  0  0  0  0  0
   40.0570   31.3180   45.7430 S   0  0  0  0  0  0  0  0  0  0  0  0
   37.9090   31.4140   44.0080 C   0  0  2  0  0  3  0  0  0  0  0  0
   39.4130   31.6000   44.0860 C   0  0  1  0  0  3  0  0  0  0  0  0
   39.6690   33.0320   43.6450 C   0  0  0  0  0  3  0  0  0  0  0  0
   39.2350   33.6690   44.4700 H   0  0  0  0  0  0  0  0  0  0  0  0
   38.9800   33.3560   42.4980 O   0  0  0  0  0  0  0  0  0  0  0  0
   38.5640   32.2640   41.7640 C   0  0  0  0  0  3  0  0  0  0  0  0
   37.9760   32.6820   40.8980 H   0  0  0  0  0  0  0  0  0  0  0  0
   37.5990   31.3610   42.5110 C   0  0  2  0  0  3  0  0  0  0  0  0
   37.2900   32.5720   44.4970 O   0  0  0  0  0  0  0  0  0  0  0  0
   36.5650   32.3300   45.1320 H   0  0  0  0  0  0  0  0  0  0  0  0
   36.2680   31.7150   42.2950 O   0  0  0  0  0  0  0  0  0  0  0  0
   36.1880   32.6510   41.9810 H   0  0  0  0  0  0  0  0  0  0  0  0
  1  2  1  0  0  0  0
  1  5  1  0  0  0  0
  3  1  1  0  0  0  0
  4  5  2  0  0  0  0
  4  8  1  0  0  0  0
  6 12  1  0  0  0  0
  7 13  1  0  0  0  0
  7  6  2  0  0  0  0
  8  7  1  0  0  0  0
  9  8  2  0  0  0  0
  9 10  1  0  0  0  0
 10 11  2  0  0  0  0
 11  6  1  0  0  0  0
 14 10  1  0  0  0  0
 15  1  1  0  0  0  0
 16 17  1  0  0  0  0
 16 24  1  6  0  0  0
 17 15  1  1  0  0  0
 18 17  1  0  0  0  0
 18 19  1  0  0  0  0
 20 18  1  0  0  0  0
 21 20  1  0  0  0  0
 21 23  1  0  0  0  0
 22 21  1  0  0  0  0
 23 26  1  1  0  0  0
 23 16  1  0  0  0  0
 24 25  1  0  0  0  0
 27 26  1  0  0  0  0
M  END
>  <minimizedAffinity>
-5.29065943

>  <minimizedRMSD>
1.7641784

$$$$
