
 OpenBabel03272502303D

 27 28  0  0  1  0  0  0  0  0999 V2000
   39.4310   32.5220   46.5100 C   0  0  0  0  0  0  0  0  0  0  0  0
   40.2860   31.8200   46.3430 H   0  0  0  0  0  0  0  0  0  0  0  0
   39.7590   33.5640   46.6510 H   0  0  0  0  0  0  0  0  0  0  0  0
   38.1580   30.8380   47.7760 C   0  0  0  0  0  3  0  0  0  0  0  0
   38.7670   32.0160   47.7410 C   0  0  0  0  0  3  0  0  0  0  0  0
   37.3870   30.2250   51.3550 C   0  0  0  0  0  0  0  0  0  0  0  0
   38.0210   30.7090   50.1990 C   0  0  0  0  0  0  0  0  0  0  0  0
   37.5220   30.3540   48.9640 C   0  0  0  0  0  0  0  0  0  0  0  0
   36.4300   29.5470   48.8920 N   0  0  0  0  0  0  0  0  0  0  0  0
   35.8400   29.0960   50.0140 C   0  0  0  0  0  0  0  0  0  0  0  0
   36.3040   29.4240   51.2420 N   0  0  0  0  0  0  0  0  0  0  0  0
   37.7300   30.4660   52.3460 H   0  0  0  0  0  0  0  0  0  0  0  0
   38.8840   31.3440   50.3300 H   0  0  0  0  0  0  0  0  0  0  0  0
   34.9730   28.4570   49.8670 H   0  0  0  0  0  0  0  0  0  0  0  0
   38.3060   32.3450   45.0930 S   0  0  0  0  0  0  0  0  0  0  0  0
   38.6720   31.3840   42.5290 C   0  0  2  0  0  3  0  0  0  0  0  0
   38.9710   31.0910   43.9860 C   0  0  1  0  0  3  0  0  0  0  0  0
   40.4880   31.0320   44.0860 C   0  0  0  0  0  3  0  0  0  0  0  0
   40.8280   32.0950   43.9070 H   0  0  0  0  0  0  0  0  0  0  0  0
   41.0480   30.2700   43.0870 O   0  0  0  0  0  0  0  0  0  0  0  0
   40.1660   29.3950   42.4850 C   0  0  0  0  0  3  0  0  0  0  0  0
   40.7490   28.8900   41.6620 H   0  0  0  0  0  0  0  0  0  0  0  0
   39.0050   30.0860   41.7910 C   0  0  2  0  0  3  0  0  0  0  0  0
   39.5860   32.3430   42.0680 O   0  0  0  0  0  0  0  0  0  0  0  0
   39.1100   33.0550   41.5650 H   0  0  0  0  0  0  0  0  0  0  0  0
   39.2750   30.3610   40.4520 O   0  0  0  0  0  0  0  0  0  0  0  0
   40.2490   30.3700   40.2740 H   0  0  0  0  0  0  0  0  0  0  0  0
  1  3  1  0  0  0  0
  1  5  1  0  0  0  0
  2  1  1  0  0  0  0
  4  8  1  0  0  0  0
  5  4  2  0  0  0  0
  6 12  1  0  0  0  0
  7 13  1  0  0  0  0
  7  6  2  0  0  0  0
  8  7  1  0  0  0  0
  9  8  2  0  0  0  0
  9 10  1  0  0  0  0
 10 11  2  0  0  0  0
 11  6  1  0  0  0  0
 14 10  1  0  0  0  0
 15  1  1  0  0  0  0
 16 24  1  6  0  0  0
 16 17  1  0  0  0  0
 17 18  1  0  0  0  0
 17 15  1  1  0  0  0
 19 18  1  0  0  0  0
 20 18  1  0  0  0  0
 21 20  1  0  0  0  0
 22 21  1  0  0  0  0
 23 26  1  6  0  0  0
 23 21  1  0  0  0  0
 23 16  1  0  0  0  0
 25 24  1  0  0  0  0
 27 26  1  0  0  0  0
M  END
>  <minimizedAffinity>
-5.14757872

>  <minimizedRMSD>
2.27428985

$$$$
