
 OpenBabel03272502303D

 27 28  0  0  1  0  0  0  0  0999 V2000
   39.4260   32.5190   46.5090 C   0  0  0  0  0  0  0  0  0  0  0  0
   40.2790   31.8140   46.3450 H   0  0  0  0  0  0  0  0  0  0  0  0
   39.7570   33.5600   46.6490 H   0  0  0  0  0  0  0  0  0  0  0  0
   38.1640   30.8300   47.7810 C   0  0  0  0  0  3  0  0  0  0  0  0
   38.7570   32.0160   47.7390 C   0  0  0  0  0  3  0  0  0  0  0  0
   37.3830   30.2230   51.3580 C   0  0  0  0  0  0  0  0  0  0  0  0
   38.0220   30.7030   50.2030 C   0  0  0  0  0  0  0  0  0  0  0  0
   37.5240   30.3490   48.9680 C   0  0  0  0  0  0  0  0  0  0  0  0
   36.4300   29.5460   48.8930 N   0  0  0  0  0  0  0  0  0  0  0  0
   35.8360   29.0980   50.0150 C   0  0  0  0  0  0  0  0  0  0  0  0
   36.2980   29.4260   51.2430 N   0  0  0  0  0  0  0  0  0  0  0  0
   37.7260   30.4630   52.3490 H   0  0  0  0  0  0  0  0  0  0  0  0
   38.8870   31.3360   50.3360 H   0  0  0  0  0  0  0  0  0  0  0  0
   34.9670   28.4620   49.8660 H   0  0  0  0  0  0  0  0  0  0  0  0
   38.3030   32.3440   45.0890 S   0  0  0  0  0  0  0  0  0  0  0  0
   38.6710   31.3820   42.5260 C   0  0  2  0  0  3  0  0  0  0  0  0
   38.9690   31.0890   43.9830 C   0  0  1  0  0  3  0  0  0  0  0  0
   40.4860   31.0320   44.0840 C   0  0  0  0  0  3  0  0  0  0  0  0
   40.8270   32.0930   43.9050 H   0  0  0  0  0  0  0  0  0  0  0  0
   41.0470   30.2690   43.0850 O   0  0  0  0  0  0  0  0  0  0  0  0
   40.1660   29.3950   42.4820 C   0  0  0  0  0  3  0  0  0  0  0  0
   40.7490   28.8890   41.6610 H   0  0  0  0  0  0  0  0  0  0  0  0
   39.0050   30.0840   41.7880 C   0  0  2  0  0  3  0  0  0  0  0  0
   39.5860   32.3400   42.0660 O   0  0  0  0  0  0  0  0  0  0  0  0
   39.1100   33.0530   41.5620 H   0  0  0  0  0  0  0  0  0  0  0  0
   39.2760   30.3600   40.4500 O   0  0  0  0  0  0  0  0  0  0  0  0
   40.2510   30.3680   40.2730 H   0  0  0  0  0  0  0  0  0  0  0  0
  1  3  1  0  0  0  0
  1  5  1  0  0  0  0
  2  1  1  0  0  0  0
  4  8  1  0  0  0  0
  5  4  2  0  0  0  0
  6 12  1  0  0  0  0
  7 13  1  0  0  0  0
  7  6  2  0  0  0  0
  8  7  1  0  0  0  0
  9  8  2  0  0  0  0
  9 10  1  0  0  0  0
 10 11  2  0  0  0  0
 11  6  1  0  0  0  0
 14 10  1  0  0  0  0
 15  1  1  0  0  0  0
 16 24  1  6  0  0  0
 16 17  1  0  0  0  0
 17 18  1  0  0  0  0
 17 15  1  1  0  0  0
 19 18  1  0  0  0  0
 20 18  1  0  0  0  0
 21 20  1  0  0  0  0
 22 21  1  0  0  0  0
 23 26  1  6  0  0  0
 23 21  1  0  0  0  0
 23 16  1  0  0  0  0
 25 24  1  0  0  0  0
 27 26  1  0  0  0  0
M  END
>  <minimizedAffinity>
-5.14637947

>  <minimizedRMSD>
2.49573278

$$$$
