
 OpenBabel03272510283D

 48 52  0  0  1  0  0  0  0  0999 V2000
   38.2080   22.8150   32.3170 N   0  0  0  0  0  0  0  0  0  0  0  0
   37.8200   23.9460   33.1050 C   0  0  1  0  0  0  0  0  0  0  0  0
   38.2690   23.8090   34.4840 C   0  0  0  0  0  0  0  0  0  0  0  0
   37.6440   22.6850   35.0480 O   0  0  0  0  0  0  0  0  0  0  0  0
   37.8020   21.5180   34.3500 C   0  0  0  0  0  0  0  0  0  0  0  0
   37.5750   21.6450   32.8820 C   0  0  1  0  0  0  0  0  0  0  0  0
   39.1630   22.6350   32.1130 H   0  0  0  0  0  0  0  0  0  0  0  0
   36.7230   24.0400   33.0760 H   0  0  0  0  0  0  0  0  0  0  0  0
   37.8100   24.6680   35.0610 H   0  0  0  0  0  0  0  0  0  0  0  0
   39.2720   23.7380   34.8040 H   0  0  0  0  0  0  0  0  0  0  0  0
   37.1940   20.7570   34.8180 H   0  0  0  0  0  0  0  0  0  0  0  0
   38.8850   21.2230   34.4860 H   0  0  0  0  0  0  0  0  0  0  0  0
   38.1110   20.7620   32.4200 H   0  0  0  0  0  0  0  0  0  0  0  0
   36.1330   20.7170   31.1320 C   0  0  2  0  0  3  0  0  0  0  0  0
   36.1560   21.4980   32.4260 C   0  0  1  0  0  3  0  0  0  0  0  0
   35.3060   20.7900   33.4180 C   0  0  0  0  0  3  0  0  0  0  0  0
   34.2700   20.7410   32.9660 H   0  0  0  0  0  0  0  0  0  0  0  0
   35.6630   19.4580   33.6070 O   0  0  0  0  0  0  0  0  0  0  0  0
   35.2750   18.8110   32.4110 C   0  0  0  0  0  3  0  0  0  0  0  0
   34.2890   19.2370   32.1170 H   0  0  0  0  0  0  0  0  0  0  0  0
   36.2760   19.2290   31.3680 C   0  0  1  0  0  3  0  0  0  0  0  0
   37.1150   21.0950   30.2520 O   0  0  0  0  0  0  0  0  0  0  0  0
   37.3340   20.4060   29.6060 H   0  0  0  0  0  0  0  0  0  0  0  0
   36.0390   18.6090   30.1410 O   0  0  0  0  0  0  0  0  0  0  0  0
   35.5420   19.1890   29.5060 H   0  0  0  0  0  0  0  0  0  0  0  0
   38.4070   25.0910   32.4970 O   0  0  0  0  0  0  0  0  0  0  0  0
   35.6360   30.2770   32.9850 C   0  0  0  0  0  0  0  0  0  0  0  0
   35.6290   29.9220   34.3270 C   0  0  0  0  0  0  0  0  0  0  0  0
   36.1960   28.7150   34.7560 C   0  0  0  0  0  0  0  0  0  0  0  0
   36.7550   27.9070   33.7720 C   0  0  0  0  0  0  0  0  0  0  0  0
   37.3650   26.6940   33.9400 N   0  0  0  0  0  0  0  0  0  0  0  0
   37.7450   26.3000   32.7140 C   0  0  0  0  0  0  0  0  0  0  0  0
   37.4010   27.2040   31.8170 N   0  0  0  0  0  0  0  0  0  0  0  0
   36.7790   28.2280   32.4270 C   0  0  0  0  0  0  0  0  0  0  0  0
   36.2040   29.4410   32.0300 C   0  0  0  0  0  0  0  0  0  0  0  0
   35.2120   31.1930   32.6110 H   0  0  0  0  0  0  0  0  0  0  0  0
   36.2010   28.4200   35.7970 H   0  0  0  0  0  0  0  0  0  0  0  0
   37.4950   26.1910   34.8680 H   0  0  0  0  0  0  0  0  0  0  0  0
   36.2210   29.6930   30.9840 H   0  0  0  0  0  0  0  0  0  0  0  0
   34.9350   32.5690   36.8990 C   0  0  0  0  0  0  0  0  0  0  0  0
   35.6760   31.7850   36.0230 C   0  0  0  0  0  0  0  0  0  0  0  0
   35.0250   30.8270   35.2840 C   0  0  0  0  0  0  0  0  0  0  0  0
   33.6630   30.7080   35.4630 N   0  0  0  0  0  0  0  0  0  0  0  0
   32.9540   31.4740   36.3150 C   0  0  0  0  0  0  0  0  0  0  0  0
   33.5870   32.3900   37.0200 N   0  0  0  0  0  0  0  0  0  0  0  0
   35.4990   33.3110   37.4600 H   0  0  0  0  0  0  0  0  0  0  0  0
   36.7440   31.8710   35.8760 H   0  0  0  0  0  0  0  0  0  0  0  0
   31.8900   31.3060   36.3870 H   0  0  0  0  0  0  0  0  0  0  0  0
  1  6  1  0  0  0  0
  1  2  1  0  0  0  0
  2  8  1  6  0  0  0
  2  3  1  0  0  0  0
  3 10  1  0  0  0  0
  3  4  1  0  0  0  0
  3  9  1  0  0  0  0
  5 12  1  0  0  0  0
  5 11  1  0  0  0  0
  5  4  1  0  0  0  0
  6 13  1  6  0  0  0
  6  5  1  0  0  0  0
  7  1  1  0  0  0  0
 14 22  1  6  0  0  0
 14 21  1  0  0  0  0
 14 15  1  0  0  0  0
 15  6  1  0  0  0  0
 15 16  1  1  0  0  0
 16 18  1  0  0  0  0
 17 16  1  0  0  0  0
 19 18  1  0  0  0  0
 20 19  1  0  0  0  0
 21 24  1  6  0  0  0
 21 19  1  0  0  0  0
 23 22  1  0  0  0  0
 25 24  1  0  0  0  0
 26 32  1  0  0  0  0
 26  2  1  0  0  0  0
 27 28  1  0  0  0  0
 28 29  2  0  0  0  0
 28 42  1  0  0  0  0
 29 37  1  0  0  0  0
 30 31  1  0  0  0  0
 30 29  1  0  0  0  0
 31 38  1  0  0  0  0
 32 31  1  0  0  0  0
 33 34  1  0  0  0  0
 33 32  2  0  0  0  0
 34 30  2  0  0  0  0
 35 34  1  0  0  0  0
 35 27  2  0  0  0  0
 36 27  1  0  0  0  0
 39 35  1  0  0  0  0
 40 45  1  0  0  0  0
 40 46  1  0  0  0  0
 41 40  2  0  0  0  0
 42 43  2  0  0  0  0
 42 41  1  0  0  0  0
 43 44  1  0  0  0  0
 44 48  1  0  0  0  0
 44 45  2  0  0  0  0
 47 41  1  0  0  0  0
M  END
>  <minimizedAffinity>
-6.4557066

$$$$

 OpenBabel03272510283D

 48 52  0  0  1  0  0  0  0  0999 V2000
   35.5030   31.0890   33.0690 N   0  0  0  0  0  0  0  0  0  0  0  0
   34.9590   30.0450   32.2530 C   0  0  1  0  0  0  0  0  0  0  0  0
   33.9820   30.5690   31.3090 C   0  0  0  0  0  0  0  0  0  0  0  0
   32.9120   31.1200   32.0320 O   0  0  0  0  0  0  0  0  0  0  0  0
   33.2610   32.0590   32.9650 C   0  0  0  0  0  0  0  0  0  0  0  0
   34.4160   31.6720   33.8230 C   0  0  1  0  0  0  0  0  0  0  0  0
   36.0810   31.7960   32.6810 H   0  0  0  0  0  0  0  0  0  0  0  0
   34.4850   29.2940   32.9060 H   0  0  0  0  0  0  0  0  0  0  0  0
   33.5070   29.6730   30.8030 H   0  0  0  0  0  0  0  0  0  0  0  0
   34.1720   31.2730   30.5470 H   0  0  0  0  0  0  0  0  0  0  0  0
   32.3760   32.3280   33.5250 H   0  0  0  0  0  0  0  0  0  0  0  0
   33.5840   32.9700   32.3780 H   0  0  0  0  0  0  0  0  0  0  0  0
   34.8230   32.6450   34.2330 H   0  0  0  0  0  0  0  0  0  0  0  0
   34.8530   31.4180   36.2210 C   0  0  2  0  0  3  0  0  0  0  0  0
   34.0820   30.8680   35.0420 C   0  0  1  0  0  3  0  0  0  0  0  0
   32.6340   30.9000   35.3710 C   0  0  0  0  0  3  0  0  0  0  0  0
   32.5080   30.2650   36.2980 H   0  0  0  0  0  0  0  0  0  0  0  0
   32.1760   32.1580   35.7500 O   0  0  0  0  0  0  0  0  0  0  0  0
   32.7460   32.3750   37.0260 C   0  0  0  0  0  3  0  0  0  0  0  0
   32.6810   31.4110   37.5780 H   0  0  0  0  0  0  0  0  0  0  0  0
   34.2030   32.6620   36.7880 C   0  0  1  0  0  3  0  0  0  0  0  0
   36.1560   31.7280   35.9210 O   0  0  0  0  0  0  0  0  0  0  0  0
   36.5410   32.3790   36.5270 H   0  0  0  0  0  0  0  0  0  0  0  0
   34.8770   32.9530   37.9750 O   0  0  0  0  0  0  0  0  0  0  0  0
   35.3700   32.1720   38.3400 H   0  0  0  0  0  0  0  0  0  0  0  0
   36.0530   29.4500   31.5650 O   0  0  0  0  0  0  0  0  0  0  0  0
   38.3440   24.4240   33.6410 C   0  0  0  0  0  0  0  0  0  0  0  0
   38.1330   25.0620   34.8560 C   0  0  0  0  0  0  0  0  0  0  0  0
   37.5790   26.3470   34.9090 C   0  0  0  0  0  0  0  0  0  0  0  0
   37.2600   26.9370   33.6890 C   0  0  0  0  0  0  0  0  0  0  0  0
   36.7110   28.1730   33.4820 N   0  0  0  0  0  0  0  0  0  0  0  0
   36.5840   28.3000   32.1510 C   0  0  0  0  0  0  0  0  0  0  0  0
   37.0240   27.2140   31.5450 N   0  0  0  0  0  0  0  0  0  0  0  0
   37.4570   26.3310   32.4610 C   0  0  0  0  0  0  0  0  0  0  0  0
   38.0130   25.0470   32.4430 C   0  0  0  0  0  0  0  0  0  0  0  0
   38.7660   23.4380   33.5540 H   0  0  0  0  0  0  0  0  0  0  0  0
   37.4060   26.8610   35.8450 H   0  0  0  0  0  0  0  0  0  0  0  0
   36.4500   28.8680   34.2430 H   0  0  0  0  0  0  0  0  0  0  0  0
   38.1670   24.5740   31.4890 H   0  0  0  0  0  0  0  0  0  0  0  0
   39.6980   22.8710   37.4750 C   0  0  0  0  0  0  0  0  0  0  0  0
   39.4880   23.4350   36.2220 C   0  0  0  0  0  0  0  0  0  0  0  0
   38.4930   24.3710   36.0780 C   0  0  0  0  0  0  0  0  0  0  0  0
   37.7600   24.6920   37.2010 N   0  0  0  0  0  0  0  0  0  0  0  0
   37.9710   24.1390   38.4120 C   0  0  0  0  0  0  0  0  0  0  0  0
   38.9280   23.2420   38.5390 N   0  0  0  0  0  0  0  0  0  0  0  0
   40.4960   22.1360   37.5330 H   0  0  0  0  0  0  0  0  0  0  0  0
   40.0580   23.1900   35.3360 H   0  0  0  0  0  0  0  0  0  0  0  0
   37.3450   24.4550   39.2320 H   0  0  0  0  0  0  0  0  0  0  0  0
  1  6  1  0  0  0  0
  2  8  1  1  0  0  0
  2  1  1  0  0  0  0
  3  4  1  0  0  0  0
  3  2  1  0  0  0  0
  4  5  1  0  0  0  0
  5 11  1  0  0  0  0
  5  6  1  0  0  0  0
  6 13  1  1  0  0  0
  6 15  1  0  0  0  0
  7  1  1  0  0  0  0
  9  3  1  0  0  0  0
 10  3  1  0  0  0  0
 12  5  1  0  0  0  0
 14 22  1  6  0  0  0
 14 21  1  0  0  0  0
 15 16  1  1  0  0  0
 15 14  1  0  0  0  0
 16 18  1  0  0  0  0
 16 17  1  0  0  0  0
 18 19  1  0  0  0  0
 19 20  1  0  0  0  0
 21 19  1  0  0  0  0
 21 24  1  1  0  0  0
 22 23  1  0  0  0  0
 24 25  1  0  0  0  0
 26 32  1  0  0  0  0
 26  2  1  0  0  0  0
 27 28  1  0  0  0  0
 28 29  2  0  0  0  0
 28 42  1  0  0  0  0
 29 37  1  0  0  0  0
 30 29  1  0  0  0  0
 31 30  1  0  0  0  0
 31 38  1  0  0  0  0
 32 31  1  0  0  0  0
 33 32  2  0  0  0  0
 33 34  1  0  0  0  0
 34 30  2  0  0  0  0
 35 34  1  0  0  0  0
 35 27  2  0  0  0  0
 36 27  1  0  0  0  0
 39 35  1  0  0  0  0
 40 46  1  0  0  0  0
 40 45  1  0  0  0  0
 41 40  2  0  0  0  0
 42 41  1  0  0  0  0
 42 43  2  0  0  0  0
 43 44  1  0  0  0  0
 44 45  2  0  0  0  0
 44 48  1  0  0  0  0
 47 41  1  0  0  0  0
M  END
>  <minimizedAffinity>
-6.35674238

$$$$

 OpenBabel03272510283D

 48 52  0  0  1  0  0  0  0  0999 V2000
   37.7290   24.8100   33.2600 N   0  0  0  0  0  0  0  0  0  0  0  0
   38.6430   24.8410   32.1570 C   0  0  1  0  0  0  0  0  0  0  0  0
   38.6280   23.5820   31.4250 C   0  0  0  0  0  0  0  0  0  0  0  0
   39.0610   22.5600   32.2840 O   0  0  0  0  0  0  0  0  0  0  0  0
   38.3750   22.4610   33.4650 C   0  0  0  0  0  0  0  0  0  0  0  0
   38.1560   23.7620   34.1580 C   0  0  1  0  0  0  0  0  0  0  0  0
   36.7480   24.7700   33.1130 H   0  0  0  0  0  0  0  0  0  0  0  0
   39.6560   25.0400   32.5410 H   0  0  0  0  0  0  0  0  0  0  0  0
   39.4650   23.6410   30.6640 H   0  0  0  0  0  0  0  0  0  0  0  0
   37.7980   23.1670   30.9220 H   0  0  0  0  0  0  0  0  0  0  0  0
   38.8620   21.7180   34.0810 H   0  0  0  0  0  0  0  0  0  0  0  0
   37.3520   22.0620   33.1930 H   0  0  0  0  0  0  0  0  0  0  0  0
   37.2790   23.5860   34.8530 H   0  0  0  0  0  0  0  0  0  0  0  0
   38.6650   24.9670   36.2300 C   0  0  2  0  0  3  0  0  0  0  0  0
   39.2610   24.2120   35.0640 C   0  0  1  0  0  3  0  0  0  0  0  0
   40.0630   23.0810   35.5960 C   0  0  0  0  0  3  0  0  0  0  0  0
   40.8570   23.5410   36.2570 H   0  0  0  0  0  0  0  0  0  0  0  0
   39.3490   22.2430   36.4470 O   0  0  0  0  0  0  0  0  0  0  0  0
   39.1530   23.0080   37.6200 C   0  0  0  0  0  3  0  0  0  0  0  0
   40.1030   23.5550   37.8120 H   0  0  0  0  0  0  0  0  0  0  0  0
   38.1040   24.0310   37.2800 C   0  0  1  0  0  3  0  0  0  0  0  0
   37.6640   25.8310   35.8640 O   0  0  0  0  0  0  0  0  0  0  0  0
   37.0590   26.0430   36.5920 H   0  0  0  0  0  0  0  0  0  0  0  0
   37.7740   24.8240   38.3790 O   0  0  0  0  0  0  0  0  0  0  0  0
   38.2410   25.7000   38.3770 H   0  0  0  0  0  0  0  0  0  0  0  0
   38.2360   25.9160   31.3180 O   0  0  0  0  0  0  0  0  0  0  0  0
   34.0470   29.5530   33.3260 C   0  0  0  0  0  0  0  0  0  0  0  0
   35.0000   29.7880   34.3070 C   0  0  0  0  0  0  0  0  0  0  0  0
   36.2380   29.1330   34.2820 C   0  0  0  0  0  0  0  0  0  0  0  0
   36.4490   28.2450   33.2310 C   0  0  0  0  0  0  0  0  0  0  0  0
   37.5670   27.4940   32.9900 N   0  0  0  0  0  0  0  0  0  0  0  0
   37.3090   26.7990   31.8700 C   0  0  0  0  0  0  0  0  0  0  0  0
   36.1020   27.0870   31.4230 N   0  0  0  0  0  0  0  0  0  0  0  0
   35.5220   27.9860   32.2380 C   0  0  0  0  0  0  0  0  0  0  0  0
   34.2960   28.6570   32.2920 C   0  0  0  0  0  0  0  0  0  0  0  0
   33.0840   30.0330   33.3060 H   0  0  0  0  0  0  0  0  0  0  0  0
   36.9940   29.3020   35.0360 H   0  0  0  0  0  0  0  0  0  0  0  0
   38.4460   27.4860   33.5880 H   0  0  0  0  0  0  0  0  0  0  0  0
   33.5720   28.4570   31.5200 H   0  0  0  0  0  0  0  0  0  0  0  0
   35.0970   32.4700   36.9340 C   0  0  0  0  0  0  0  0  0  0  0  0
   35.5620   31.6360   35.9250 C   0  0  0  0  0  0  0  0  0  0  0  0
   34.6940   30.7320   35.3630 C   0  0  0  0  0  0  0  0  0  0  0  0
   33.4020   30.7130   35.8450 N   0  0  0  0  0  0  0  0  0  0  0  0
   32.9600   31.5260   36.8250 C   0  0  0  0  0  0  0  0  0  0  0  0
   33.8010   32.3900   37.3580 N   0  0  0  0  0  0  0  0  0  0  0  0
   35.8240   33.1660   37.3440 H   0  0  0  0  0  0  0  0  0  0  0  0
   36.5730   31.6440   35.5400 H   0  0  0  0  0  0  0  0  0  0  0  0
   31.9300   31.4360   37.1360 H   0  0  0  0  0  0  0  0  0  0  0  0
  1  6  1  0  0  0  0
  2  8  1  1  0  0  0
  2  1  1  0  0  0  0
  3  2  1  0  0  0  0
  3  4  1  0  0  0  0
  4  5  1  0  0  0  0
  5 11  1  0  0  0  0
  5  6  1  0  0  0  0
  6 13  1  1  0  0  0
  6 15  1  0  0  0  0
  7  1  1  0  0  0  0
  9  3  1  0  0  0  0
 10  3  1  0  0  0  0
 12  5  1  0  0  0  0
 14 22  1  6  0  0  0
 14 21  1  0  0  0  0
 15 16  1  1  0  0  0
 15 14  1  0  0  0  0
 16 17  1  0  0  0  0
 16 18  1  0  0  0  0
 18 19  1  0  0  0  0
 19 20  1  0  0  0  0
 21 19  1  0  0  0  0
 21 24  1  1  0  0  0
 22 23  1  0  0  0  0
 25 24  1  0  0  0  0
 26 32  1  0  0  0  0
 26  2  1  0  0  0  0
 27 28  1  0  0  0  0
 28 42  1  0  0  0  0
 29 28  2  0  0  0  0
 29 37  1  0  0  0  0
 30 29  1  0  0  0  0
 31 30  1  0  0  0  0
 31 38  1  0  0  0  0
 32 31  1  0  0  0  0
 33 32  2  0  0  0  0
 33 34  1  0  0  0  0
 34 35  1  0  0  0  0
 34 30  2  0  0  0  0
 35 27  2  0  0  0  0
 36 27  1  0  0  0  0
 39 35  1  0  0  0  0
 40 46  1  0  0  0  0
 40 45  1  0  0  0  0
 41 40  2  0  0  0  0
 42 43  2  0  0  0  0
 42 41  1  0  0  0  0
 43 44  1  0  0  0  0
 44 48  1  0  0  0  0
 44 45  2  0  0  0  0
 47 41  1  0  0  0  0
M  END
>  <minimizedAffinity>
-6.11333895

$$$$

 OpenBabel03272510283D

 48 52  0  0  1  0  0  0  0  0999 V2000
   35.5880   31.1790   32.9020 N   0  0  0  0  0  0  0  0  0  0  0  0
   35.3940   29.7660   33.0300 C   0  0  1  0  0  0  0  0  0  0  0  0
   33.9890   29.4110   32.8930 C   0  0  0  0  0  0  0  0  0  0  0  0
   33.2700   30.0170   33.9360 O   0  0  0  0  0  0  0  0  0  0  0  0
   33.4370   31.3710   34.0480 C   0  0  0  0  0  0  0  0  0  0  0  0
   34.8550   31.8240   33.9670 C   0  0  1  0  0  0  0  0  0  0  0  0
   35.4330   31.6420   32.0370 H   0  0  0  0  0  0  0  0  0  0  0  0
   35.7680   29.4440   34.0160 H   0  0  0  0  0  0  0  0  0  0  0  0
   33.9070   28.3080   33.1400 H   0  0  0  0  0  0  0  0  0  0  0  0
   33.3910   29.5680   32.0380 H   0  0  0  0  0  0  0  0  0  0  0  0
   32.9260   31.7040   34.9420 H   0  0  0  0  0  0  0  0  0  0  0  0
   32.9010   31.8210   33.1600 H   0  0  0  0  0  0  0  0  0  0  0  0
   34.8030   32.9170   33.6770 H   0  0  0  0  0  0  0  0  0  0  0  0
   36.4620   33.0690   35.3340 C   0  0  2  0  0  3  0  0  0  0  0  0
   35.6160   31.8190   35.2570 C   0  0  1  0  0  3  0  0  0  0  0  0
   34.7270   31.7790   36.4470 C   0  0  0  0  0  3  0  0  0  0  0  0
   35.4090   31.7790   37.3490 H   0  0  0  0  0  0  0  0  0  0  0  0
   33.9510   32.9240   36.6020 O   0  0  0  0  0  0  0  0  0  0  0  0
   34.8700   33.9280   36.9860 C   0  0  0  0  0  3  0  0  0  0  0  0
   35.5790   33.4610   37.7060 H   0  0  0  0  0  0  0  0  0  0  0  0
   35.6490   34.2770   35.7480 C   0  0  1  0  0  3  0  0  0  0  0  0
   37.0900   33.3740   34.1520 O   0  0  0  0  0  0  0  0  0  0  0  0
   37.3310   34.3110   34.0800 H   0  0  0  0  0  0  0  0  0  0  0  0
   36.5610   35.3070   35.9790 O   0  0  0  0  0  0  0  0  0  0  0  0
   37.4840   34.9770   36.1370 H   0  0  0  0  0  0  0  0  0  0  0  0
   36.1700   29.1510   32.0080 O   0  0  0  0  0  0  0  0  0  0  0  0
   37.6550   23.5400   33.0700 C   0  0  0  0  0  0  0  0  0  0  0  0
   36.6650   23.3070   32.1250 C   0  0  0  0  0  0  0  0  0  0  0  0
   35.9680   24.3690   31.5340 C   0  0  0  0  0  0  0  0  0  0  0  0
   36.3230   25.6500   31.9460 C   0  0  0  0  0  0  0  0  0  0  0  0
   35.7930   26.8360   31.5180 N   0  0  0  0  0  0  0  0  0  0  0  0
   36.4490   27.7960   32.1910 C   0  0  0  0  0  0  0  0  0  0  0  0
   37.3410   27.2570   33.0000 N   0  0  0  0  0  0  0  0  0  0  0  0
   37.3030   25.9180   32.8850 C   0  0  0  0  0  0  0  0  0  0  0  0
   37.9800   24.8350   33.4570 C   0  0  0  0  0  0  0  0  0  0  0  0
   38.2150   22.7550   33.5490 H   0  0  0  0  0  0  0  0  0  0  0  0
   35.1940   24.2090   30.7960 H   0  0  0  0  0  0  0  0  0  0  0  0
   35.0200   26.9430   30.7960 H   0  0  0  0  0  0  0  0  0  0  0  0
   38.7430   25.0420   34.1870 H   0  0  0  0  0  0  0  0  0  0  0  0
   36.6460   19.8550   30.6460 C   0  0  0  0  0  0  0  0  0  0  0  0
   37.0820   21.1520   30.8870 C   0  0  0  0  0  0  0  0  0  0  0  0
   36.3640   21.9390   31.7550 C   0  0  0  0  0  0  0  0  0  0  0  0
   35.2440   21.3810   32.3350 N   0  0  0  0  0  0  0  0  0  0  0  0
   34.8290   20.1220   32.0940 C   0  0  0  0  0  0  0  0  0  0  0  0
   35.5240   19.3750   31.2600 N   0  0  0  0  0  0  0  0  0  0  0  0
   37.2490   19.2760   29.9520 H   0  0  0  0  0  0  0  0  0  0  0  0
   37.9590   21.5980   30.4380 H   0  0  0  0  0  0  0  0  0  0  0  0
   33.9390   19.7740   32.5960 H   0  0  0  0  0  0  0  0  0  0  0  0
  1  2  1  0  0  0  0
  1  6  1  0  0  0  0
  2  8  1  1  0  0  0
  3  2  1  0  0  0  0
  3  9  1  0  0  0  0
  3  4  1  0  0  0  0
  4  5  1  0  0  0  0
  5 11  1  0  0  0  0
  6 13  1  6  0  0  0
  6  5  1  0  0  0  0
  6 15  1  0  0  0  0
  7  1  1  0  0  0  0
 10  3  1  0  0  0  0
 12  5  1  0  0  0  0
 14 22  1  6  0  0  0
 14 21  1  0  0  0  0
 15 14  1  0  0  0  0
 15 16  1  1  0  0  0
 16 18  1  0  0  0  0
 16 17  1  0  0  0  0
 18 19  1  0  0  0  0
 19 20  1  0  0  0  0
 21 24  1  1  0  0  0
 21 19  1  0  0  0  0
 23 22  1  0  0  0  0
 24 25  1  0  0  0  0
 26 32  1  0  0  0  0
 26  2  1  0  0  0  0
 27 35  1  0  0  0  0
 27 36  1  0  0  0  0
 28 27  2  0  0  0  0
 29 30  2  0  0  0  0
 29 28  1  0  0  0  0
 30 34  1  0  0  0  0
 31 30  1  0  0  0  0
 31 32  1  0  0  0  0
 32 33  2  0  0  0  0
 34 33  1  0  0  0  0
 34 35  2  0  0  0  0
 35 39  1  0  0  0  0
 37 29  1  0  0  0  0
 38 31  1  0  0  0  0
 40 41  2  0  0  0  0
 40 45  1  0  0  0  0
 41 42  1  0  0  0  0
 42 28  1  0  0  0  0
 42 43  2  0  0  0  0
 44 43  1  0  0  0  0
 44 48  1  0  0  0  0
 45 44  2  0  0  0  0
 46 40  1  0  0  0  0
 47 41  1  0  0  0  0
M  END
>  <minimizedAffinity>
-6.10965443

$$$$

 OpenBabel03272510283D

 48 52  0  0  1  0  0  0  0  0999 V2000
   34.7080   29.2860   32.3080 N   0  0  0  0  0  0  0  0  0  0  0  0
   35.4310   30.0820   31.3610 C   0  0  1  0  0  0  0  0  0  0  0  0
   36.4430   30.8970   32.0200 C   0  0  0  0  0  0  0  0  0  0  0  0
   35.7990   31.7880   32.8940 O   0  0  0  0  0  0  0  0  0  0  0  0
   34.9550   31.2060   33.8010 C   0  0  0  0  0  0  0  0  0  0  0  0
   34.0390   30.1850   33.2200 C   0  0  1  0  0  0  0  0  0  0  0  0
   35.1510   28.5480   32.8030 H   0  0  0  0  0  0  0  0  0  0  0  0
   34.7190   30.7290   30.8240 H   0  0  0  0  0  0  0  0  0  0  0  0
   36.8690   31.5860   31.2280 H   0  0  0  0  0  0  0  0  0  0  0  0
   37.2650   30.5360   32.5730 H   0  0  0  0  0  0  0  0  0  0  0  0
   34.4430   31.9910   34.3410 H   0  0  0  0  0  0  0  0  0  0  0  0
   35.6210   30.6630   34.5360 H   0  0  0  0  0  0  0  0  0  0  0  0
   33.7170   29.5410   34.0930 H   0  0  0  0  0  0  0  0  0  0  0  0
   31.6420   29.7370   32.9740 C   0  0  2  0  0  3  0  0  0  0  0  0
   32.7540   30.7080   32.6530 C   0  0  1  0  0  3  0  0  0  0  0  0
   32.3880   32.0400   33.1990 C   0  0  0  0  0  3  0  0  0  0  0  0
   31.4130   32.3260   32.7010 H   0  0  0  0  0  0  0  0  0  0  0  0
   32.0890   32.0230   34.5580 O   0  0  0  0  0  0  0  0  0  0  0  0
   30.8490   31.3480   34.6420 C   0  0  0  0  0  3  0  0  0  0  0  0
   30.2260   31.7080   33.7930 H   0  0  0  0  0  0  0  0  0  0  0  0
   31.1490   29.8940   34.3970 C   0  0  1  0  0  3  0  0  0  0  0  0
   32.0000   28.4230   32.8010 O   0  0  0  0  0  0  0  0  0  0  0  0
   31.4550   27.8080   33.3160 H   0  0  0  0  0  0  0  0  0  0  0  0
   30.0070   29.1010   34.5100 O   0  0  0  0  0  0  0  0  0  0  0  0
   29.6000   28.8850   33.6300 H   0  0  0  0  0  0  0  0  0  0  0  0
   36.0340   29.1790   30.4410 O   0  0  0  0  0  0  0  0  0  0  0  0
   37.3130   23.9030   32.7520 C   0  0  0  0  0  0  0  0  0  0  0  0
   36.3770   23.4860   31.8160 C   0  0  0  0  0  0  0  0  0  0  0  0
   35.7440   24.4070   30.9710 C   0  0  0  0  0  0  0  0  0  0  0  0
   36.1040   25.7420   31.1260 C   0  0  0  0  0  0  0  0  0  0  0  0
   35.6310   26.8170   30.4250 N   0  0  0  0  0  0  0  0  0  0  0  0
   36.2680   27.8900   30.9220 C   0  0  0  0  0  0  0  0  0  0  0  0
   37.0950   27.5240   31.8820 N   0  0  0  0  0  0  0  0  0  0  0  0
   37.0310   26.1920   32.0490 C   0  0  0  0  0  0  0  0  0  0  0  0
   37.6450   25.2470   32.8780 C   0  0  0  0  0  0  0  0  0  0  0  0
   37.8230   23.2310   33.4200 H   0  0  0  0  0  0  0  0  0  0  0  0
   35.0130   24.1040   30.2340 H   0  0  0  0  0  0  0  0  0  0  0  0
   34.9060   26.7780   29.6480 H   0  0  0  0  0  0  0  0  0  0  0  0
   38.3680   25.5950   33.5970 H   0  0  0  0  0  0  0  0  0  0  0  0
   34.8830   20.0570   32.1510 C   0  0  0  0  0  0  0  0  0  0  0  0
   35.0360   21.4230   32.3560 C   0  0  0  0  0  0  0  0  0  0  0  0
   36.0650   22.0750   31.7220 C   0  0  0  0  0  0  0  0  0  0  0  0
   36.8880   21.3190   30.9130 N   0  0  0  0  0  0  0  0  0  0  0  0
   36.7320   19.9940   30.7210 C   0  0  0  0  0  0  0  0  0  0  0  0
   35.7410   19.3780   31.3340 N   0  0  0  0  0  0  0  0  0  0  0  0
   34.0540   19.5910   32.6770 H   0  0  0  0  0  0  0  0  0  0  0  0
   34.3950   22.0240   32.9870 H   0  0  0  0  0  0  0  0  0  0  0  0
   37.4280   19.4880   30.0690 H   0  0  0  0  0  0  0  0  0  0  0  0
  1  7  1  0  0  0  0
  1  6  1  0  0  0  0
  2  8  1  6  0  0  0
  2  3  1  0  0  0  0
  2  1  1  0  0  0  0
  3 10  1  0  0  0  0
  3  4  1  0  0  0  0
  4  5  1  0  0  0  0
  5 11  1  0  0  0  0
  5 12  1  0  0  0  0
  6  5  1  0  0  0  0
  6 13  1  1  0  0  0
  9  3  1  0  0  0  0
 14 22  1  1  0  0  0
 14 21  1  0  0  0  0
 15 14  1  0  0  0  0
 15 16  1  1  0  0  0
 15  6  1  0  0  0  0
 16 18  1  0  0  0  0
 17 16  1  0  0  0  0
 18 19  1  0  0  0  0
 20 19  1  0  0  0  0
 21 24  1  6  0  0  0
 21 19  1  0  0  0  0
 22 23  1  0  0  0  0
 25 24  1  0  0  0  0
 26 32  1  0  0  0  0
 26  2  1  0  0  0  0
 27 35  1  0  0  0  0
 27 36  1  0  0  0  0
 28 27  2  0  0  0  0
 29 30  2  0  0  0  0
 29 28  1  0  0  0  0
 30 34  1  0  0  0  0
 31 32  1  0  0  0  0
 31 30  1  0  0  0  0
 32 33  2  0  0  0  0
 33 34  1  0  0  0  0
 34 35  2  0  0  0  0
 35 39  1  0  0  0  0
 37 29  1  0  0  0  0
 38 31  1  0  0  0  0
 40 41  1  0  0  0  0
 40 46  1  0  0  0  0
 41 47  1  0  0  0  0
 42 28  1  0  0  0  0
 42 41  2  0  0  0  0
 43 42  1  0  0  0  0
 44 43  2  0  0  0  0
 44 45  1  0  0  0  0
 45 40  2  0  0  0  0
 48 44  1  0  0  0  0
M  END
>  <minimizedAffinity>
-6.10022688

$$$$

 OpenBabel03272510283D

 48 52  0  0  1  0  0  0  0  0999 V2000
   36.2240   30.4840   32.5240 N   0  0  0  0  0  0  0  0  0  0  0  0
   35.5890   30.3210   31.2500 C   0  0  1  0  0  0  0  0  0  0  0  0
   36.0780   31.2980   30.2870 C   0  0  0  0  0  0  0  0  0  0  0  0
   35.7460   32.5830   30.7460 O   0  0  0  0  0  0  0  0  0  0  0  0
   36.1670   32.8750   32.0150 C   0  0  0  0  0  0  0  0  0  0  0  0
   35.8960   31.8030   33.0140 C   0  0  1  0  0  0  0  0  0  0  0  0
   37.1910   30.2950   32.6430 H   0  0  0  0  0  0  0  0  0  0  0  0
   34.5010   30.4330   31.3790 H   0  0  0  0  0  0  0  0  0  0  0  0
   35.4360   31.1890   29.3600 H   0  0  0  0  0  0  0  0  0  0  0  0
   37.0740   31.3910   29.9490 H   0  0  0  0  0  0  0  0  0  0  0  0
   35.7640   33.8390   32.2940 H   0  0  0  0  0  0  0  0  0  0  0  0
   37.2910   32.9800   31.9500 H   0  0  0  0  0  0  0  0  0  0  0  0
   36.6190   31.9960   33.8630 H   0  0  0  0  0  0  0  0  0  0  0  0
   34.6730   31.3770   35.0950 C   0  0  2  0  0  3  0  0  0  0  0  0
   34.5450   31.8420   33.6630 C   0  0  1  0  0  3  0  0  0  0  0  0
   33.9480   33.2020   33.6610 C   0  0  0  0  0  3  0  0  0  0  0  0
   32.9430   33.1050   34.1700 H   0  0  0  0  0  0  0  0  0  0  0  0
   34.6440   34.1170   34.4450 O   0  0  0  0  0  0  0  0  0  0  0  0
   34.3900   33.7140   35.7760 C   0  0  0  0  0  3  0  0  0  0  0  0
   33.3170   33.4220   35.8270 H   0  0  0  0  0  0  0  0  0  0  0  0
   35.2060   32.4700   35.9980 C   0  0  1  0  0  3  0  0  0  0  0  0
   35.4890   30.2830   35.2400 O   0  0  0  0  0  0  0  0  0  0  0  0
   35.8520   30.1940   36.1350 H   0  0  0  0  0  0  0  0  0  0  0  0
   35.0880   31.9950   37.3040 O   0  0  0  0  0  0  0  0  0  0  0  0
   34.4330   31.2530   37.3870 H   0  0  0  0  0  0  0  0  0  0  0  0
   35.8790   28.9970   30.8140 O   0  0  0  0  0  0  0  0  0  0  0  0
   39.7810   25.9950   34.0650 C   0  0  0  0  0  0  0  0  0  0  0  0
   38.6360   25.6620   34.7740 C   0  0  0  0  0  0  0  0  0  0  0  0
   37.3810   26.1490   34.3860 C   0  0  0  0  0  0  0  0  0  0  0  0
   37.3530   26.9730   33.2660 C   0  0  0  0  0  0  0  0  0  0  0  0
   36.2600   27.5640   32.6950 N   0  0  0  0  0  0  0  0  0  0  0  0
   36.7230   28.2570   31.6430 C   0  0  0  0  0  0  0  0  0  0  0  0
   38.0320   28.1190   31.5460 N   0  0  0  0  0  0  0  0  0  0  0  0
   38.4750   27.3250   32.5360 C   0  0  0  0  0  0  0  0  0  0  0  0
   39.7130   26.8230   32.9500 C   0  0  0  0  0  0  0  0  0  0  0  0
   40.7640   25.6440   34.3270 H   0  0  0  0  0  0  0  0  0  0  0  0
   36.4760   25.9010   34.9250 H   0  0  0  0  0  0  0  0  0  0  0  0
   35.2580   27.4730   33.0400 H   0  0  0  0  0  0  0  0  0  0  0  0
   40.5880   27.0950   32.3840 H   0  0  0  0  0  0  0  0  0  0  0  0
   38.2460   23.9240   38.0810 C   0  0  0  0  0  0  0  0  0  0  0  0
   37.9890   24.8380   37.0660 C   0  0  0  0  0  0  0  0  0  0  0  0
   38.7580   24.7950   35.9290 C   0  0  0  0  0  0  0  0  0  0  0  0
   39.7450   23.8330   35.8700 N   0  0  0  0  0  0  0  0  0  0  0  0
   39.9870   22.9520   36.8600 C   0  0  0  0  0  0  0  0  0  0  0  0
   39.2440   23.0020   37.9470 N   0  0  0  0  0  0  0  0  0  0  0  0
   37.6090   24.0030   38.9580 H   0  0  0  0  0  0  0  0  0  0  0  0
   37.2160   25.5940   37.1030 H   0  0  0  0  0  0  0  0  0  0  0  0
   40.7830   22.2360   36.7220 H   0  0  0  0  0  0  0  0  0  0  0  0
  1  7  1  0  0  0  0
  1  6  1  0  0  0  0
  2  8  1  1  0  0  0
  2  1  1  0  0  0  0
  3  4  1  0  0  0  0
  3  2  1  0  0  0  0
  4  5  1  0  0  0  0
  5 11  1  0  0  0  0
  5  6  1  0  0  0  0
  6 15  1  0  0  0  0
  6 13  1  1  0  0  0
  9  3  1  0  0  0  0
 10  3  1  0  0  0  0
 12  5  1  0  0  0  0
 14 22  1  6  0  0  0
 14 21  1  0  0  0  0
 15 16  1  1  0  0  0
 15 14  1  0  0  0  0
 16 17  1  0  0  0  0
 16 18  1  0  0  0  0
 18 19  1  0  0  0  0
 19 20  1  0  0  0  0
 19 21  1  0  0  0  0
 21 24  1  1  0  0  0
 22 23  1  0  0  0  0
 24 25  1  0  0  0  0
 26  2  1  0  0  0  0
 26 32  1  0  0  0  0
 27 36  1  0  0  0  0
 27 28  1  0  0  0  0
 28 42  1  0  0  0  0
 29 28  2  0  0  0  0
 29 37  1  0  0  0  0
 30 29  1  0  0  0  0
 31 38  1  0  0  0  0
 31 30  1  0  0  0  0
 32 31  1  0  0  0  0
 33 32  2  0  0  0  0
 33 34  1  0  0  0  0
 34 35  1  0  0  0  0
 34 30  2  0  0  0  0
 35 27  2  0  0  0  0
 39 35  1  0  0  0  0
 40 46  1  0  0  0  0
 41 47  1  0  0  0  0
 41 40  2  0  0  0  0
 42 41  1  0  0  0  0
 43 42  2  0  0  0  0
 43 44  1  0  0  0  0
 44 45  2  0  0  0  0
 45 40  1  0  0  0  0
 48 44  1  0  0  0  0
M  END
>  <minimizedAffinity>
-6.04619837

$$$$

 OpenBabel03272510283D

 48 52  0  0  1  0  0  0  0  0999 V2000
   38.9170   24.6290   33.9820 N   0  0  0  0  0  0  0  0  0  0  0  0
   37.6800   24.9810   33.3510 C   0  0  1  0  0  0  0  0  0  0  0  0
   37.3250   26.3670   33.6240 C   0  0  0  0  0  0  0  0  0  0  0  0
   37.1340   26.5160   35.0070 O   0  0  0  0  0  0  0  0  0  0  0  0
   38.1800   26.1040   35.7870 C   0  0  0  0  0  0  0  0  0  0  0  0
   38.7430   24.7770   35.4090 C   0  0  1  0  0  0  0  0  0  0  0  0
   39.7760   25.0310   33.6890 H   0  0  0  0  0  0  0  0  0  0  0  0
   36.8890   24.3110   33.7220 H   0  0  0  0  0  0  0  0  0  0  0  0
   36.2820   26.5210   33.2080 H   0  0  0  0  0  0  0  0  0  0  0  0
   37.8850   27.2170   33.3440 H   0  0  0  0  0  0  0  0  0  0  0  0
   37.8770   26.1670   36.8230 H   0  0  0  0  0  0  0  0  0  0  0  0
   39.0020   26.8630   35.6250 H   0  0  0  0  0  0  0  0  0  0  0  0
   39.7880   24.7610   35.8420 H   0  0  0  0  0  0  0  0  0  0  0  0
   39.1130   22.5330   36.3200 C   0  0  2  0  0  3  0  0  0  0  0  0
   38.0710   23.5850   36.0200 C   0  0  1  0  0  3  0  0  0  0  0  0
   37.3570   23.9130   37.2810 C   0  0  0  0  0  3  0  0  0  0  0  0
   36.8960   22.9460   37.6420 H   0  0  0  0  0  0  0  0  0  0  0  0
   38.2030   24.3000   38.3150 O   0  0  0  0  0  0  0  0  0  0  0  0
   38.8750   23.1130   38.6890 C   0  0  0  0  0  3  0  0  0  0  0  0
   38.1220   22.2940   38.6700 H   0  0  0  0  0  0  0  0  0  0  0  0
   39.8710   22.8360   37.5960 C   0  0  1  0  0  3  0  0  0  0  0  0
   40.0350   22.3780   35.3150 O   0  0  0  0  0  0  0  0  0  0  0  0
   40.8710   21.9920   35.6210 H   0  0  0  0  0  0  0  0  0  0  0  0
   40.6480   21.7110   37.8710 O   0  0  0  0  0  0  0  0  0  0  0  0
   40.3220   20.8950   37.4090 H   0  0  0  0  0  0  0  0  0  0  0  0
   37.8580   24.7730   31.9550 O   0  0  0  0  0  0  0  0  0  0  0  0
   40.6280   29.1920   29.1960 C   0  0  0  0  0  0  0  0  0  0  0  0
   39.3870   29.3290   28.5900 C   0  0  0  0  0  0  0  0  0  0  0  0
   38.3270   28.4730   28.9180 C   0  0  0  0  0  0  0  0  0  0  0  0
   38.5910   27.4940   29.8710 C   0  0  0  0  0  0  0  0  0  0  0  0
   37.7260   26.5510   30.3540 N   0  0  0  0  0  0  0  0  0  0  0  0
   38.4250   25.8360   31.2510 C   0  0  0  0  0  0  0  0  0  0  0  0
   39.6600   26.2930   31.3350 N   0  0  0  0  0  0  0  0  0  0  0  0
   39.8160   27.3300   30.4930 C   0  0  0  0  0  0  0  0  0  0  0  0
   40.8540   28.2000   30.1440 C   0  0  0  0  0  0  0  0  0  0  0  0
   41.4690   29.8260   28.9750 H   0  0  0  0  0  0  0  0  0  0  0  0
   37.3530   28.5630   28.4580 H   0  0  0  0  0  0  0  0  0  0  0  0
   36.7120   26.4340   30.0590 H   0  0  0  0  0  0  0  0  0  0  0  0
   41.8070   28.0740   30.6270 H   0  0  0  0  0  0  0  0  0  0  0  0
   39.8310   32.0100   25.9980 C   0  0  0  0  0  0  0  0  0  0  0  0
   40.1910   31.0200   26.9040 C   0  0  0  0  0  0  0  0  0  0  0  0
   39.2020   30.3790   27.6090 C   0  0  0  0  0  0  0  0  0  0  0  0
   37.9000   30.7650   27.3650 N   0  0  0  0  0  0  0  0  0  0  0  0
   37.5610   31.7260   26.4840 C   0  0  0  0  0  0  0  0  0  0  0  0
   38.5180   32.3360   25.8130 N   0  0  0  0  0  0  0  0  0  0  0  0
   40.6520   32.4850   25.4680 H   0  0  0  0  0  0  0  0  0  0  0  0
   41.2090   30.7100   27.1020 H   0  0  0  0  0  0  0  0  0  0  0  0
   36.5140   31.9590   26.3620 H   0  0  0  0  0  0  0  0  0  0  0  0
  1  6  1  0  0  0  0
  2  3  1  0  0  0  0
  2  8  1  1  0  0  0
  2  1  1  0  0  0  0
  3  4  1  0  0  0  0
  4  5  1  0  0  0  0
  5 11  1  0  0  0  0
  6  5  1  0  0  0  0
  6 13  1  1  0  0  0
  6 15  1  0  0  0  0
  7  1  1  0  0  0  0
  9  3  1  0  0  0  0
 10  3  1  0  0  0  0
 12  5  1  0  0  0  0
 14 22  1  6  0  0  0
 14 21  1  0  0  0  0
 15 14  1  0  0  0  0
 15 16  1  1  0  0  0
 16 17  1  0  0  0  0
 16 18  1  0  0  0  0
 18 19  1  0  0  0  0
 20 19  1  0  0  0  0
 21 24  1  1  0  0  0
 21 19  1  0  0  0  0
 22 23  1  0  0  0  0
 25 24  1  0  0  0  0
 26  2  1  0  0  0  0
 27 35  1  0  0  0  0
 28 29  1  0  0  0  0
 28 27  2  0  0  0  0
 29 30  2  0  0  0  0
 30 31  1  0  0  0  0
 30 34  1  0  0  0  0
 31 32  1  0  0  0  0
 32 33  2  0  0  0  0
 32 26  1  0  0  0  0
 34 33  1  0  0  0  0
 35 34  2  0  0  0  0
 35 39  1  0  0  0  0
 36 27  1  0  0  0  0
 37 29  1  0  0  0  0
 38 31  1  0  0  0  0
 40 41  1  0  0  0  0
 41 47  1  0  0  0  0
 41 42  2  0  0  0  0
 42 28  1  0  0  0  0
 43 42  1  0  0  0  0
 44 43  2  0  0  0  0
 45 40  2  0  0  0  0
 45 44  1  0  0  0  0
 46 40  1  0  0  0  0
 48 44  1  0  0  0  0
M  END
>  <minimizedAffinity>
-6.02146101

$$$$

 OpenBabel03272510283D

 48 52  0  0  1  0  0  0  0  0999 V2000
   33.2390   31.5620   32.9590 N   0  0  0  0  0  0  0  0  0  0  0  0
   33.1670   31.0080   31.6390 C   0  0  1  0  0  0  0  0  0  0  0  0
   32.1990   31.7220   30.8190 C   0  0  0  0  0  0  0  0  0  0  0  0
   30.9270   31.5710   31.3940 O   0  0  0  0  0  0  0  0  0  0  0  0
   30.8350   31.9360   32.7100 C   0  0  0  0  0  0  0  0  0  0  0  0
   31.9370   31.4170   33.5690 C   0  0  1  0  0  0  0  0  0  0  0  0
   33.6010   32.4730   33.1140 H   0  0  0  0  0  0  0  0  0  0  0  0
   32.8830   29.9460   31.7150 H   0  0  0  0  0  0  0  0  0  0  0  0
   32.1060   31.1430   29.8500 H   0  0  0  0  0  0  0  0  0  0  0  0
   32.2460   32.7420   30.5520 H   0  0  0  0  0  0  0  0  0  0  0  0
   29.8480   31.6770   33.0670 H   0  0  0  0  0  0  0  0  0  0  0  0
   30.9180   33.0630   32.7230 H   0  0  0  0  0  0  0  0  0  0  0  0
   31.9540   32.0960   34.4750 H   0  0  0  0  0  0  0  0  0  0  0  0
   32.4270   29.9580   35.4750 C   0  0  2  0  0  3  0  0  0  0  0  0
   31.7310   30.0460   34.1370 C   0  0  1  0  0  3  0  0  0  0  0  0
   30.2950   29.7160   34.3310 C   0  0  0  0  0  3  0  0  0  0  0  0
   30.2680   28.6700   34.7590 H   0  0  0  0  0  0  0  0  0  0  0  0
   29.6690   30.4990   35.2960 O   0  0  0  0  0  0  0  0  0  0  0  0
   30.2140   30.0570   36.5230 C   0  0  0  0  0  3  0  0  0  0  0  0
   30.2910   28.9480   36.4630 H   0  0  0  0  0  0  0  0  0  0  0  0
   31.6150   30.6030   36.5780 C   0  0  1  0  0  3  0  0  0  0  0  0
   33.6710   30.5380   35.4810 O   0  0  0  0  0  0  0  0  0  0  0  0
   33.9670   30.7980   36.3670 H   0  0  0  0  0  0  0  0  0  0  0  0
   32.2520   30.2840   37.7770 O   0  0  0  0  0  0  0  0  0  0  0  0
   32.8530   29.4970   37.6970 H   0  0  0  0  0  0  0  0  0  0  0  0
   34.4720   31.1090   31.0810 O   0  0  0  0  0  0  0  0  0  0  0  0
   38.4720   26.9430   32.2890 C   0  0  0  0  0  0  0  0  0  0  0  0
   37.7540   26.8770   33.4750 C   0  0  0  0  0  0  0  0  0  0  0  0
   36.6480   27.7080   33.6950 C   0  0  0  0  0  0  0  0  0  0  0  0
   36.3190   28.5900   32.6700 C   0  0  0  0  0  0  0  0  0  0  0  0
   35.2910   29.4920   32.6470 N   0  0  0  0  0  0  0  0  0  0  0  0
   35.3720   30.1120   31.4580 C   0  0  0  0  0  0  0  0  0  0  0  0
   36.3880   29.6360   30.7640 N   0  0  0  0  0  0  0  0  0  0  0  0
   37.0130   28.6830   31.4760 C   0  0  0  0  0  0  0  0  0  0  0  0
   38.1130   27.8390   31.2880 C   0  0  0  0  0  0  0  0  0  0  0  0
   39.3270   26.3240   32.0780 H   0  0  0  0  0  0  0  0  0  0  0  0
   36.0750   27.6730   34.6110 H   0  0  0  0  0  0  0  0  0  0  0  0
   34.5880   29.6470   33.4290 H   0  0  0  0  0  0  0  0  0  0  0  0
   38.6540   27.9090   30.3600 H   0  0  0  0  0  0  0  0  0  0  0  0
   38.2800   24.9310   36.6430 C   0  0  0  0  0  0  0  0  0  0  0  0
   37.7850   25.9240   35.8070 C   0  0  0  0  0  0  0  0  0  0  0  0
   38.1660   25.9270   34.4870 C   0  0  0  0  0  0  0  0  0  0  0  0
   39.0260   24.9290   34.0760 N   0  0  0  0  0  0  0  0  0  0  0  0
   39.5010   23.9700   34.8950 C   0  0  0  0  0  0  0  0  0  0  0  0
   39.1290   23.9770   36.1600 N   0  0  0  0  0  0  0  0  0  0  0  0
   37.9470   24.9750   37.6770 H   0  0  0  0  0  0  0  0  0  0  0  0
   37.1100   26.7090   36.1200 H   0  0  0  0  0  0  0  0  0  0  0  0
   40.1700   23.2310   34.4810 H   0  0  0  0  0  0  0  0  0  0  0  0
  1  7  1  0  0  0  0
  1  6  1  0  0  0  0
  2  8  1  1  0  0  0
  2  1  1  0  0  0  0
  3  4  1  0  0  0  0
  3  2  1  0  0  0  0
  4  5  1  0  0  0  0
  5 12  1  0  0  0  0
  5 11  1  0  0  0  0
  5  6  1  0  0  0  0
  6 15  1  0  0  0  0
  6 13  1  1  0  0  0
  9  3  1  0  0  0  0
 10  3  1  0  0  0  0
 14 22  1  6  0  0  0
 14 21  1  0  0  0  0
 15 16  1  1  0  0  0
 15 14  1  0  0  0  0
 16 17  1  0  0  0  0
 16 18  1  0  0  0  0
 18 19  1  0  0  0  0
 19 21  1  0  0  0  0
 20 19  1  0  0  0  0
 21 24  1  1  0  0  0
 22 23  1  0  0  0  0
 25 24  1  0  0  0  0
 26 32  1  0  0  0  0
 26  2  1  0  0  0  0
 27 28  1  0  0  0  0
 28 29  2  0  0  0  0
 28 42  1  0  0  0  0
 29 37  1  0  0  0  0
 30 29  1  0  0  0  0
 31 30  1  0  0  0  0
 31 38  1  0  0  0  0
 32 31  1  0  0  0  0
 33 32  2  0  0  0  0
 33 34  1  0  0  0  0
 34 30  2  0  0  0  0
 35 34  1  0  0  0  0
 35 27  2  0  0  0  0
 36 27  1  0  0  0  0
 39 35  1  0  0  0  0
 40 46  1  0  0  0  0
 41 47  1  0  0  0  0
 41 40  2  0  0  0  0
 42 41  1  0  0  0  0
 43 42  2  0  0  0  0
 43 44  1  0  0  0  0
 44 45  2  0  0  0  0
 45 40  1  0  0  0  0
 48 44  1  0  0  0  0
M  END
>  <minimizedAffinity>
-5.92301941

$$$$

 OpenBabel03272510283D

 48 52  0  0  1  0  0  0  0  0999 V2000
   37.9110   24.9890   30.2530 N   0  0  0  0  0  0  0  0  0  0  0  0
   38.6320   26.0860   30.8260 C   0  0  1  0  0  0  0  0  0  0  0  0
   40.0700   25.8910   30.7090 C   0  0  0  0  0  0  0  0  0  0  0  0
   40.4270   24.7450   31.4380 O   0  0  0  0  0  0  0  0  0  0  0  0
   39.7380   23.6080   31.1100 C   0  0  0  0  0  0  0  0  0  0  0  0
   38.2650   23.7960   30.9890 C   0  0  1  0  0  0  0  0  0  0  0  0
   37.9290   24.8170   29.2760 H   0  0  0  0  0  0  0  0  0  0  0  0
   38.3510   26.1810   31.8870 H   0  0  0  0  0  0  0  0  0  0  0  0
   40.5590   26.7250   31.3000 H   0  0  0  0  0  0  0  0  0  0  0  0
   40.6130   25.8070   29.8080 H   0  0  0  0  0  0  0  0  0  0  0  0
   40.0210   22.8280   31.8030 H   0  0  0  0  0  0  0  0  0  0  0  0
   40.1120   23.3080   30.0860 H   0  0  0  0  0  0  0  0  0  0  0  0
   37.9050   22.9330   30.3520 H   0  0  0  0  0  0  0  0  0  0  0  0
   36.1280   23.0790   31.9500 C   0  0  2  0  0  3  0  0  0  0  0  0
   37.4840   23.6680   32.2620 C   0  0  1  0  0  3  0  0  0  0  0  0
   38.1560   22.7980   33.2610 C   0  0  0  0  0  3  0  0  0  0  0  0
   37.4800   22.7790   34.1670 H   0  0  0  0  0  0  0  0  0  0  0  0
   38.2450   21.4660   32.8690 O   0  0  0  0  0  0  0  0  0  0  0  0
   36.9180   20.9830   32.9430 C   0  0  0  0  0  3  0  0  0  0  0  0
   36.4670   21.4130   33.8650 H   0  0  0  0  0  0  0  0  0  0  0  0
   36.1930   21.5780   31.7660 C   0  0  1  0  0  3  0  0  0  0  0  0
   35.5500   23.6110   30.8240 O   0  0  0  0  0  0  0  0  0  0  0  0
   34.8850   23.0290   30.4250 H   0  0  0  0  0  0  0  0  0  0  0  0
   34.8730   21.1320   31.6880 O   0  0  0  0  0  0  0  0  0  0  0  0
   34.2240   21.7800   32.0700 H   0  0  0  0  0  0  0  0  0  0  0  0
   38.2250   27.2550   30.1240 O   0  0  0  0  0  0  0  0  0  0  0  0
   34.3030   30.9200   32.5730 C   0  0  0  0  0  0  0  0  0  0  0  0
   34.7430   30.2990   33.7330 C   0  0  0  0  0  0  0  0  0  0  0  0
   35.7230   29.2990   33.6870 C   0  0  0  0  0  0  0  0  0  0  0  0
   36.2190   28.9720   32.4290 C   0  0  0  0  0  0  0  0  0  0  0  0
   37.1730   28.0390   32.1290 N   0  0  0  0  0  0  0  0  0  0  0  0
   37.3220   28.0810   30.7950 C   0  0  0  0  0  0  0  0  0  0  0  0
   36.5140   28.9850   30.2740 N   0  0  0  0  0  0  0  0  0  0  0  0
   35.8020   29.5700   31.2530 C   0  0  0  0  0  0  0  0  0  0  0  0
   34.8220   30.5650   31.3330 C   0  0  0  0  0  0  0  0  0  0  0  0
   33.5530   31.6920   32.5610 H   0  0  0  0  0  0  0  0  0  0  0  0
   36.0810   28.8030   34.5790 H   0  0  0  0  0  0  0  0  0  0  0  0
   37.6760   27.4210   32.8330 H   0  0  0  0  0  0  0  0  0  0  0  0
   34.4970   31.0320   30.4190 H   0  0  0  0  0  0  0  0  0  0  0  0
   32.5680   30.8030   36.7520 C   0  0  0  0  0  0  0  0  0  0  0  0
   32.9600   30.3120   35.5130 C   0  0  0  0  0  0  0  0  0  0  0  0
   34.1720   30.7050   35.0010 C   0  0  0  0  0  0  0  0  0  0  0  0
   34.9290   31.5710   35.7630 N   0  0  0  0  0  0  0  0  0  0  0  0
   34.5390   32.0420   36.9640 C   0  0  0  0  0  0  0  0  0  0  0  0
   33.3740   31.6590   37.4460 N   0  0  0  0  0  0  0  0  0  0  0  0
   31.6000   30.4610   37.1100 H   0  0  0  0  0  0  0  0  0  0  0  0
   32.3740   29.6320   34.9090 H   0  0  0  0  0  0  0  0  0  0  0  0
   35.2010   32.7160   37.4860 H   0  0  0  0  0  0  0  0  0  0  0  0
  1  2  1  0  0  0  0
  1  6  1  0  0  0  0
  2  8  1  1  0  0  0
  3  2  1  0  0  0  0
  3  9  1  0  0  0  0
  3  4  1  0  0  0  0
  5  4  1  0  0  0  0
  5 11  1  0  0  0  0
  6 13  1  6  0  0  0
  6  5  1  0  0  0  0
  6 15  1  0  0  0  0
  7  1  1  0  0  0  0
 10  3  1  0  0  0  0
 12  5  1  0  0  0  0
 14 22  1  6  0  0  0
 14 15  1  0  0  0  0
 15 16  1  1  0  0  0
 16 17  1  0  0  0  0
 18 19  1  0  0  0  0
 18 16  1  0  0  0  0
 19 20  1  0  0  0  0
 21 24  1  1  0  0  0
 21 14  1  0  0  0  0
 21 19  1  0  0  0  0
 23 22  1  0  0  0  0
 24 25  1  0  0  0  0
 26 32  1  0  0  0  0
 26  2  1  0  0  0  0
 27 28  1  0  0  0  0
 28 42  1  0  0  0  0
 29 28  2  0  0  0  0
 29 37  1  0  0  0  0
 30 29  1  0  0  0  0
 31 30  1  0  0  0  0
 31 38  1  0  0  0  0
 32 31  1  0  0  0  0
 33 32  2  0  0  0  0
 33 34  1  0  0  0  0
 34 35  1  0  0  0  0
 34 30  2  0  0  0  0
 35 27  2  0  0  0  0
 36 27  1  0  0  0  0
 39 35  1  0  0  0  0
 40 46  1  0  0  0  0
 40 45  1  0  0  0  0
 41 40  2  0  0  0  0
 42 41  1  0  0  0  0
 42 43  2  0  0  0  0
 43 44  1  0  0  0  0
 44 45  2  0  0  0  0
 44 48  1  0  0  0  0
 47 41  1  0  0  0  0
M  END
>  <minimizedAffinity>
-5.85476685

$$$$
