
 OpenBabel03262521273D

 50 53  0  0  1  0  0  0  0  0999 V2000
   35.5660   29.2820   33.6770 C   0  0  0  0  0  0  0  0  0  0  0  0
   36.3270   28.7270   32.6470 C   0  0  0  0  0  0  0  0  0  0  0  0
   36.2950   29.4220   31.4280 C   0  0  0  0  0  0  0  0  0  0  0  0
   35.5860   30.5610   31.2280 C   0  0  0  0  0  0  0  0  0  0  0  0
   35.3720   31.4000   30.2400 N   0  0  0  0  0  0  0  0  0  0  0  0
   34.5400   32.4250   30.5830 C   0  0  0  0  0  0  0  0  0  0  0  0
   34.2070   32.2040   31.9050 C   0  0  0  0  0  0  0  0  0  0  0  0
   34.8580   31.0570   32.2790 C   0  0  0  0  0  0  0  0  0  0  0  0
   34.8300   30.4420   33.5090 C   0  0  0  0  0  0  0  0  0  0  0  0
   35.6130   28.7260   34.5900 H   0  0  0  0  0  0  0  0  0  0  0  0
   36.8620   29.0560   30.5730 H   0  0  0  0  0  0  0  0  0  0  0  0
   35.7800   31.3270   29.2670 H   0  0  0  0  0  0  0  0  0  0  0  0
   34.2310   33.2280   29.9220 H   0  0  0  0  0  0  0  0  0  0  0  0
   33.5530   32.8440   32.4850 H   0  0  0  0  0  0  0  0  0  0  0  0
   35.0540   31.5150   35.6550 C   0  0  2  0  0  3  0  0  0  0  0  0
   34.0460   30.9800   34.6380 C   0  0  2  0  0  3  0  0  0  0  0  0
   33.1460   30.0200   35.3190 C   0  0  0  0  0  3  0  0  0  0  0  0
   33.6550   29.1040   35.6820 H   0  0  0  0  0  0  0  0  0  0  0  0
   32.5930   30.6190   36.4180 O   0  0  0  0  0  0  0  0  0  0  0  0
   32.8150   31.9590   36.5690 C   0  0  0  0  0  3  0  0  0  0  0  0
   32.1850   32.5980   35.8830 H   0  0  0  0  0  0  0  0  0  0  0  0
   34.2400   32.3980   36.5730 C   0  0  1  0  0  3  0  0  0  0  0  0
   36.0840   32.1680   35.0190 O   0  0  0  0  0  0  0  0  0  0  0  0
   36.2930   33.0120   35.4950 H   0  0  0  0  0  0  0  0  0  0  0  0
   34.8420   32.4100   37.8060 O   0  0  0  0  0  0  0  0  0  0  0  0
   35.8220   32.3960   37.6460 H   0  0  0  0  0  0  0  0  0  0  0  0
   37.3170   27.2620   32.6960 S   0  0  0  0  0  0  0  0  0  0  0  0
   37.2360   26.3780   34.2440 C   0  0  0  0  0  0  0  0  0  0  0  0
   36.1670   26.2620   34.5210 H   0  0  0  0  0  0  0  0  0  0  0  0
   37.6050   25.3250   34.0670 H   0  0  0  0  0  0  0  0  0  0  0  0
   37.9530   27.0520   35.3860 C   0  0  0  0  0  0  0  0  0  0  0  0
   37.2330   27.8530   35.7370 H   0  0  0  0  0  0  0  0  0  0  0  0
   38.7700   27.6530   34.9300 H   0  0  0  0  0  0  0  0  0  0  0  0
   38.3190   26.2120   36.3880 C   0  0  0  0  0  0  0  0  0  0  0  0
   37.5650   26.0860   37.2100 H   0  0  0  0  0  0  0  0  0  0  0  0
   39.2840   26.4340   36.8920 H   0  0  0  0  0  0  0  0  0  0  0  0
   38.3940   25.0560   35.6580 O   0  0  0  0  0  0  0  0  0  0  0  0
   39.4920   24.2480   35.8260 C   0  0  0  0  0  0  0  0  0  0  0  0
   40.5110   24.5410   34.9540 C   0  0  0  0  0  0  0  0  0  0  0  0
   41.6940   23.7870   35.0180 C   0  0  0  0  0  0  0  0  0  0  0  0
   41.7610   22.8000   35.9520 N   0  0  0  0  0  0  0  0  0  0  0  0
   40.7250   22.5300   36.8100 C   0  0  0  0  0  0  0  0  0  0  0  0
   39.6170   23.2690   36.7170 N   0  0  0  0  0  0  0  0  0  0  0  0
   42.1390   20.7850   37.6420 C   0  0  0  0  0  0  0  0  0  0  0  0
   43.0590   21.0340   36.8060 O   0  0  0  0  0  0  0  0  0  0  0  0
   40.9020   21.4750   37.7470 N   0  0  0  0  0  0  0  0  0  0  0  0
   40.5890   25.2940   34.1670 H   0  0  0  0  0  0  0  0  0  0  0  0
   42.5450   23.9330   34.3880 H   0  0  0  0  0  0  0  0  0  0  0  0
   42.3140   19.9680   38.3430 H   0  0  0  0  0  0  0  0  0  0  0  0
   40.1360   21.2810   38.4290 H   0  0  0  0  0  0  0  0  0  0  0  0
  1 10  1  0  0  0  0
  2 27  1  0  0  0  0
  2  1  2  0  0  0  0
  3  2  1  0  0  0  0
  4  3  2  0  0  0  0
  4  8  1  0  0  0  0
  5  6  1  0  0  0  0
  5  4  1  0  0  0  0
  6  7  2  0  0  0  0
  7  8  1  0  0  0  0
  7 14  1  0  0  0  0
  8  9  2  0  0  0  0
  9  1  1  0  0  0  0
 11  3  1  0  0  0  0
 12  5  1  0  0  0  0
 13  6  1  0  0  0  0
 15 23  1  6  0  0  0
 15 22  1  0  0  0  0
 16  9  1  6  0  0  0
 16 17  1  0  0  0  0
 16 15  1  0  0  0  0
 17 18  1  0  0  0  0
 17 19  1  0  0  0  0
 19 20  1  0  0  0  0
 20 22  1  0  0  0  0
 21 20  1  0  0  0  0
 22 25  1  1  0  0  0
 23 24  1  0  0  0  0
 26 25  1  0  0  0  0
 27 28  1  0  0  0  0
 28 29  1  0  0  0  0
 28 31  1  0  0  0  0
 30 28  1  0  0  0  0
 31 32  1  0  0  0  0
 31 34  1  0  0  0  0
 33 31  1  0  0  0  0
 34 36  1  0  0  0  0
 34 35  1  0  0  0  0
 37 38  1  0  0  0  0
 37 34  1  0  0  0  0
 38 43  1  0  0  0  0
 39 40  1  0  0  0  0
 39 38  2  0  0  0  0
 40 41  2  0  0  0  0
 41 42  1  0  0  0  0
 42 46  1  0  0  0  0
 43 42  2  0  0  0  0
 44 46  1  0  0  0  0
 44 49  1  0  0  0  0
 45 44  2  0  0  0  0
 46 50  1  0  0  0  0
 47 39  1  0  0  0  0
 48 40  1  0  0  0  0
M  END
>  <minimizedAffinity>
-6.22346973

$$$$

 OpenBabel03262521273D

 50 53  0  0  1  0  0  0  0  0999 V2000
   35.5760   29.2880   33.0960 C   0  0  0  0  0  0  0  0  0  0  0  0
   36.3090   28.8600   31.9880 C   0  0  0  0  0  0  0  0  0  0  0  0
   36.2980   29.7250   30.8830 C   0  0  0  0  0  0  0  0  0  0  0  0
   35.6310   30.9050   30.8570 C   0  0  0  0  0  0  0  0  0  0  0  0
   35.4430   31.8850   30.0020 N   0  0  0  0  0  0  0  0  0  0  0  0
   34.6520   32.8800   30.4990 C   0  0  0  0  0  0  0  0  0  0  0  0
   34.3180   32.4830   31.7780 C   0  0  0  0  0  0  0  0  0  0  0  0
   34.9270   31.2710   31.9760 C   0  0  0  0  0  0  0  0  0  0  0  0
   34.8820   30.4860   33.1040 C   0  0  0  0  0  0  0  0  0  0  0  0
   35.6070   28.6040   33.9190 H   0  0  0  0  0  0  0  0  0  0  0  0
   36.8460   29.4650   29.9780 H   0  0  0  0  0  0  0  0  0  0  0  0
   35.8430   31.9390   29.0250 H   0  0  0  0  0  0  0  0  0  0  0  0
   34.3700   33.7810   29.9630 H   0  0  0  0  0  0  0  0  0  0  0  0
   33.6920   33.0550   32.4510 H   0  0  0  0  0  0  0  0  0  0  0  0
   35.1510   31.3790   35.3270 C   0  0  2  0  0  3  0  0  0  0  0  0
   34.1250   30.8830   34.3070 C   0  0  2  0  0  3  0  0  0  0  0  0
   33.3020   29.8240   34.9360 C   0  0  0  0  0  3  0  0  0  0  0  0
   33.8690   28.9060   35.1950 H   0  0  0  0  0  0  0  0  0  0  0  0
   32.7710   30.2960   36.1050 O   0  0  0  0  0  0  0  0  0  0  0  0
   32.9370   31.6270   36.3660 C   0  0  0  0  0  3  0  0  0  0  0  0
   32.2480   32.2910   35.7660 H   0  0  0  0  0  0  0  0  0  0  0  0
   34.3380   32.1360   36.3510 C   0  0  1  0  0  3  0  0  0  0  0  0
   36.1200   32.1360   34.7110 O   0  0  0  0  0  0  0  0  0  0  0  0
   36.3110   32.9440   35.2510 H   0  0  0  0  0  0  0  0  0  0  0  0
   34.9930   32.0710   37.5560 O   0  0  0  0  0  0  0  0  0  0  0  0
   35.9650   32.1210   37.3560 H   0  0  0  0  0  0  0  0  0  0  0  0
   37.2450   27.3680   31.8160 S   0  0  0  0  0  0  0  0  0  0  0  0
   36.2490   25.9050   31.5890 C   0  0  0  0  0  0  0  0  0  0  0  0
   35.8140   25.6260   32.5710 H   0  0  0  0  0  0  0  0  0  0  0  0
   35.3620   26.1800   30.9460 H   0  0  0  0  0  0  0  0  0  0  0  0
   37.0030   24.7160   31.0480 C   0  0  0  0  0  0  0  0  0  0  0  0
   38.0320   25.1200   30.8070 H   0  0  0  0  0  0  0  0  0  0  0  0
   36.5850   24.5140   30.0380 H   0  0  0  0  0  0  0  0  0  0  0  0
   37.0510   23.6550   31.8960 C   0  0  0  0  0  0  0  0  0  0  0  0
   37.1470   22.6510   31.4050 H   0  0  0  0  0  0  0  0  0  0  0  0
   36.2120   23.5610   32.6180 H   0  0  0  0  0  0  0  0  0  0  0  0
   38.2220   23.9660   32.5330 O   0  0  0  0  0  0  0  0  0  0  0  0
   38.3320   23.6860   33.8730 C   0  0  0  0  0  0  0  0  0  0  0  0
   38.7500   22.4010   34.1180 C   0  0  0  0  0  0  0  0  0  0  0  0
   38.9030   21.9820   35.4500 C   0  0  0  0  0  0  0  0  0  0  0  0
   38.6270   22.8850   36.4290 N   0  0  0  0  0  0  0  0  0  0  0  0
   38.2110   24.1630   36.1530 C   0  0  0  0  0  0  0  0  0  0  0  0
   38.0760   24.5230   34.8740 N   0  0  0  0  0  0  0  0  0  0  0  0
   38.1070   24.4250   38.5310 C   0  0  0  0  0  0  0  0  0  0  0  0
   38.4530   23.2240   38.7500 O   0  0  0  0  0  0  0  0  0  0  0  0
   37.9490   25.0240   37.2540 N   0  0  0  0  0  0  0  0  0  0  0  0
   39.0020   21.5850   33.4370 H   0  0  0  0  0  0  0  0  0  0  0  0
   39.2220   21.0070   35.7490 H   0  0  0  0  0  0  0  0  0  0  0  0
   37.9160   25.0520   39.4020 H   0  0  0  0  0  0  0  0  0  0  0  0
   37.6640   26.0090   37.0590 H   0  0  0  0  0  0  0  0  0  0  0  0
  1  9  1  0  0  0  0
  1 10  1  0  0  0  0
  2  1  2  0  0  0  0
  3  2  1  0  0  0  0
  4  3  2  0  0  0  0
  4  8  1  0  0  0  0
  5  6  1  0  0  0  0
  5  4  1  0  0  0  0
  6  7  2  0  0  0  0
  7  8  1  0  0  0  0
  7 14  1  0  0  0  0
  8  9  2  0  0  0  0
 11  3  1  0  0  0  0
 12  5  1  0  0  0  0
 13  6  1  0  0  0  0
 15 23  1  6  0  0  0
 15 22  1  0  0  0  0
 16  9  1  6  0  0  0
 16 17  1  0  0  0  0
 16 15  1  0  0  0  0
 17 18  1  0  0  0  0
 17 19  1  0  0  0  0
 19 20  1  0  0  0  0
 21 20  1  0  0  0  0
 22 20  1  0  0  0  0
 22 25  1  1  0  0  0
 23 24  1  0  0  0  0
 26 25  1  0  0  0  0
 27  2  1  0  0  0  0
 28 27  1  0  0  0  0
 28 29  1  0  0  0  0
 30 28  1  0  0  0  0
 31 28  1  0  0  0  0
 31 34  1  0  0  0  0
 32 31  1  0  0  0  0
 33 31  1  0  0  0  0
 34 37  1  0  0  0  0
 34 36  1  0  0  0  0
 35 34  1  0  0  0  0
 37 38  1  0  0  0  0
 38 39  2  0  0  0  0
 38 43  1  0  0  0  0
 39 40  1  0  0  0  0
 40 48  1  0  0  0  0
 40 41  2  0  0  0  0
 42 41  1  0  0  0  0
 42 46  1  0  0  0  0
 43 42  2  0  0  0  0
 44 45  2  0  0  0  0
 44 49  1  0  0  0  0
 46 44  1  0  0  0  0
 47 39  1  0  0  0  0
 50 46  1  0  0  0  0
M  END
>  <minimizedAffinity>
-5.86754608

$$$$

 OpenBabel03262521273D

 50 53  0  0  1  0  0  0  0  0999 V2000
   35.6240   29.2190   34.2300 C   0  0  0  0  0  0  0  0  0  0  0  0
   36.4140   28.5190   33.3170 C   0  0  0  0  0  0  0  0  0  0  0  0
   36.4230   29.0280   32.0090 C   0  0  0  0  0  0  0  0  0  0  0  0
   35.7270   30.1260   31.6230 C   0  0  0  0  0  0  0  0  0  0  0  0
   35.5470   30.8110   30.5160 N   0  0  0  0  0  0  0  0  0  0  0  0
   34.7110   31.8770   30.6800 C   0  0  0  0  0  0  0  0  0  0  0  0
   34.3360   31.8510   32.0080 C   0  0  0  0  0  0  0  0  0  0  0  0
   34.9690   30.7710   32.5660 C   0  0  0  0  0  0  0  0  0  0  0  0
   34.9000   30.3420   33.8720 C   0  0  0  0  0  0  0  0  0  0  0  0
   35.6400   28.8030   35.2160 H   0  0  0  0  0  0  0  0  0  0  0  0
   37.0140   28.5410   31.2350 H   0  0  0  0  0  0  0  0  0  0  0  0
   35.9850   30.5970   29.5780 H   0  0  0  0  0  0  0  0  0  0  0  0
   34.4260   32.5740   29.8980 H   0  0  0  0  0  0  0  0  0  0  0  0
   33.6680   32.5700   32.4680 H   0  0  0  0  0  0  0  0  0  0  0  0
   35.0610   31.6410   35.8960 C   0  0  2  0  0  3  0  0  0  0  0  0
   34.0840   31.0400   34.8840 C   0  0  2  0  0  3  0  0  0  0  0  0
   33.0990   30.2060   35.6110 C   0  0  0  0  0  3  0  0  0  0  0  0
   33.5380   29.3140   36.1040 H   0  0  0  0  0  0  0  0  0  0  0  0
   32.5180   30.9500   36.6020 O   0  0  0  0  0  0  0  0  0  0  0  0
   32.8010   32.2870   36.6180 C   0  0  0  0  0  3  0  0  0  0  0  0
   32.2450   32.8730   35.8290 H   0  0  0  0  0  0  0  0  0  0  0  0
   34.2450   32.6580   36.6590 C   0  0  1  0  0  3  0  0  0  0  0  0
   36.1570   32.1690   35.2560 O   0  0  0  0  0  0  0  0  0  0  0  0
   36.3840   33.0510   35.6470 H   0  0  0  0  0  0  0  0  0  0  0  0
   34.7780   32.7820   37.9180 O   0  0  0  0  0  0  0  0  0  0  0  0
   35.7630   32.7050   37.8200 H   0  0  0  0  0  0  0  0  0  0  0  0
   37.3940   27.0760   33.6110 S   0  0  0  0  0  0  0  0  0  0  0  0
   38.3460   27.1360   35.1190 C   0  0  0  0  0  0  0  0  0  0  0  0
   38.2650   28.1600   35.5390 H   0  0  0  0  0  0  0  0  0  0  0  0
   37.8420   26.4700   35.8790 H   0  0  0  0  0  0  0  0  0  0  0  0
   39.8080   26.8070   34.9470 C   0  0  0  0  0  0  0  0  0  0  0  0
   40.1240   26.3930   35.9530 H   0  0  0  0  0  0  0  0  0  0  0  0
   40.3450   27.7800   34.9140 H   0  0  0  0  0  0  0  0  0  0  0  0
   40.0690   25.9460   33.9300 C   0  0  0  0  0  0  0  0  0  0  0  0
   40.9860   26.1780   33.3260 H   0  0  0  0  0  0  0  0  0  0  0  0
   39.2530   25.7880   33.1930 H   0  0  0  0  0  0  0  0  0  0  0  0
   40.2880   24.8200   34.6770 O   0  0  0  0  0  0  0  0  0  0  0  0
   39.2990   23.8670   34.7280 C   0  0  0  0  0  0  0  0  0  0  0  0
   39.1420   23.3270   35.9810 C   0  0  0  0  0  0  0  0  0  0  0  0
   38.1630   22.3380   36.1720 C   0  0  0  0  0  0  0  0  0  0  0  0
   37.4190   21.9720   35.0930 N   0  0  0  0  0  0  0  0  0  0  0  0
   37.6000   22.5310   33.8530 C   0  0  0  0  0  0  0  0  0  0  0  0
   38.5420   23.4670   33.7120 N   0  0  0  0  0  0  0  0  0  0  0  0
   35.8660   21.0360   33.1520 C   0  0  0  0  0  0  0  0  0  0  0  0
   35.7540   20.5110   34.3010 O   0  0  0  0  0  0  0  0  0  0  0  0
   36.7680   22.0730   32.7960 N   0  0  0  0  0  0  0  0  0  0  0  0
   39.6630   23.5250   36.9190 H   0  0  0  0  0  0  0  0  0  0  0  0
   37.9590   21.8540   37.1030 H   0  0  0  0  0  0  0  0  0  0  0  0
   35.2090   20.6560   32.3680 H   0  0  0  0  0  0  0  0  0  0  0  0
   36.8700   22.5130   31.8550 H   0  0  0  0  0  0  0  0  0  0  0  0
  1 10  1  0  0  0  0
  2 27  1  0  0  0  0
  2  1  2  0  0  0  0
  3  2  1  0  0  0  0
  4  3  2  0  0  0  0
  4  8  1  0  0  0  0
  5  6  1  0  0  0  0
  5  4  1  0  0  0  0
  6  7  2  0  0  0  0
  7 14  1  0  0  0  0
  7  8  1  0  0  0  0
  8  9  2  0  0  0  0
  9  1  1  0  0  0  0
 11  3  1  0  0  0  0
 12  5  1  0  0  0  0
 13  6  1  0  0  0  0
 15 23  1  6  0  0  0
 15 22  1  0  0  0  0
 16  9  1  6  0  0  0
 16 17  1  0  0  0  0
 16 15  1  0  0  0  0
 17 18  1  0  0  0  0
 17 19  1  0  0  0  0
 19 20  1  0  0  0  0
 20 22  1  0  0  0  0
 21 20  1  0  0  0  0
 22 25  1  1  0  0  0
 23 24  1  0  0  0  0
 26 25  1  0  0  0  0
 27 28  1  0  0  0  0
 28 29  1  0  0  0  0
 28 30  1  0  0  0  0
 31 28  1  0  0  0  0
 31 32  1  0  0  0  0
 33 31  1  0  0  0  0
 34 37  1  0  0  0  0
 34 31  1  0  0  0  0
 35 34  1  0  0  0  0
 36 34  1  0  0  0  0
 37 38  1  0  0  0  0
 38 39  1  0  0  0  0
 39 40  2  0  0  0  0
 39 47  1  0  0  0  0
 40 48  1  0  0  0  0
 41 40  1  0  0  0  0
 42 41  2  0  0  0  0
 43 42  1  0  0  0  0
 43 38  2  0  0  0  0
 44 45  2  0  0  0  0
 46 44  1  0  0  0  0
 46 42  1  0  0  0  0
 49 44  1  0  0  0  0
 50 46  1  0  0  0  0
M  END
>  <minimizedAffinity>
-5.83011723

$$$$

 OpenBabel03262521273D

 50 53  0  0  1  0  0  0  0  0999 V2000
   33.8930   29.2270   33.2410 C   0  0  0  0  0  0  0  0  0  0  0  0
   34.9070   29.4730   32.3130 C   0  0  0  0  0  0  0  0  0  0  0  0
   34.6270   30.4630   31.3590 C   0  0  0  0  0  0  0  0  0  0  0  0
   33.4620   31.1560   31.3110 C   0  0  0  0  0  0  0  0  0  0  0  0
   32.9350   32.1020   30.5670 N   0  0  0  0  0  0  0  0  0  0  0  0
   31.6790   32.4550   30.9660 C   0  0  0  0  0  0  0  0  0  0  0  0
   31.4000   31.6570   32.0560 C   0  0  0  0  0  0  0  0  0  0  0  0
   32.5050   30.8690   32.2500 C   0  0  0  0  0  0  0  0  0  0  0  0
   32.6920   29.9140   33.2220 C   0  0  0  0  0  0  0  0  0  0  0  0
   34.1410   28.4660   33.9520 H   0  0  0  0  0  0  0  0  0  0  0  0
   35.3640   30.7160   30.5980 H   0  0  0  0  0  0  0  0  0  0  0  0
   33.3980   32.5680   29.7380 H   0  0  0  0  0  0  0  0  0  0  0  0
   31.0620   33.2130   30.4930 H   0  0  0  0  0  0  0  0  0  0  0  0
   30.4710   31.6870   32.6140 H   0  0  0  0  0  0  0  0  0  0  0  0
   32.3010   29.8470   35.6000 C   0  0  2  0  0  3  0  0  0  0  0  0
   31.6600   29.6090   34.2320 C   0  0  2  0  0  3  0  0  0  0  0  0
   31.1060   28.2350   34.1990 C   0  0  0  0  0  3  0  0  0  0  0  0
   31.8740   27.4370   34.2650 H   0  0  0  0  0  0  0  0  0  0  0  0
   30.2690   28.0580   35.2670 O   0  0  0  0  0  0  0  0  0  0  0  0
   29.9750   29.1660   36.0120 C   0  0  0  0  0  3  0  0  0  0  0  0
   29.2270   29.8530   35.5180 H   0  0  0  0  0  0  0  0  0  0  0  0
   31.1370   29.9230   36.5600 C   0  0  1  0  0  3  0  0  0  0  0  0
   33.0820   30.9790   35.5780 O   0  0  0  0  0  0  0  0  0  0  0  0
   32.9240   31.5140   36.3970 H   0  0  0  0  0  0  0  0  0  0  0  0
   31.5700   29.5090   37.7960 O   0  0  0  0  0  0  0  0  0  0  0  0
   32.4980   29.8440   37.9000 H   0  0  0  0  0  0  0  0  0  0  0  0
   36.4890   28.6890   32.1990 S   0  0  0  0  0  0  0  0  0  0  0  0
   36.7310   27.3610   33.3650 C   0  0  0  0  0  0  0  0  0  0  0  0
   35.7960   26.7640   33.4090 H   0  0  0  0  0  0  0  0  0  0  0  0
   37.5050   26.6570   32.9400 H   0  0  0  0  0  0  0  0  0  0  0  0
   37.0720   27.8130   34.7630 C   0  0  0  0  0  0  0  0  0  0  0  0
   36.1250   27.6310   35.3570 H   0  0  0  0  0  0  0  0  0  0  0  0
   37.1200   28.9230   34.7290 H   0  0  0  0  0  0  0  0  0  0  0  0
   38.1480   27.1850   35.3040 C   0  0  0  0  0  0  0  0  0  0  0  0
   38.5880   27.6800   36.2100 H   0  0  0  0  0  0  0  0  0  0  0  0
   39.0020   26.9890   34.6200 H   0  0  0  0  0  0  0  0  0  0  0  0
   37.5310   26.0210   35.6740 O   0  0  0  0  0  0  0  0  0  0  0  0
   38.3030   25.0030   36.1790 C   0  0  0  0  0  0  0  0  0  0  0  0
   37.9080   24.6010   37.4300 C   0  0  0  0  0  0  0  0  0  0  0  0
   38.6150   23.5660   38.0630 C   0  0  0  0  0  0  0  0  0  0  0  0
   39.6610   23.0150   37.3900 N   0  0  0  0  0  0  0  0  0  0  0  0
   40.0330   23.4390   36.1390 C   0  0  0  0  0  0  0  0  0  0  0  0
   39.3350   24.4260   35.5710 N   0  0  0  0  0  0  0  0  0  0  0  0
   41.7710   21.8030   36.3250 C   0  0  0  0  0  0  0  0  0  0  0  0
   41.4270   21.4650   37.4980 O   0  0  0  0  0  0  0  0  0  0  0  0
   41.1420   22.7930   35.5260 N   0  0  0  0  0  0  0  0  0  0  0  0
   37.0990   24.9510   38.0760 H   0  0  0  0  0  0  0  0  0  0  0  0
   38.3900   23.1790   39.0340 H   0  0  0  0  0  0  0  0  0  0  0  0
   42.6270   21.2830   35.8910 H   0  0  0  0  0  0  0  0  0  0  0  0
   41.4150   23.0810   34.5610 H   0  0  0  0  0  0  0  0  0  0  0  0
  1 10  1  0  0  0  0
  2  1  2  0  0  0  0
  3  2  1  0  0  0  0
  4  3  2  0  0  0  0
  4  8  1  0  0  0  0
  5  6  1  0  0  0  0
  5  4  1  0  0  0  0
  6  7  2  0  0  0  0
  7  8  1  0  0  0  0
  7 14  1  0  0  0  0
  8  9  2  0  0  0  0
  9  1  1  0  0  0  0
 11  3  1  0  0  0  0
 12  5  1  0  0  0  0
 13  6  1  0  0  0  0
 15 23  1  6  0  0  0
 15 22  1  0  0  0  0
 16  9  1  6  0  0  0
 16 15  1  0  0  0  0
 17 16  1  0  0  0  0
 17 18  1  0  0  0  0
 17 19  1  0  0  0  0
 19 20  1  0  0  0  0
 20 22  1  0  0  0  0
 21 20  1  0  0  0  0
 22 25  1  1  0  0  0
 23 24  1  0  0  0  0
 25 26  1  0  0  0  0
 27  2  1  0  0  0  0
 27 28  1  0  0  0  0
 28 29  1  0  0  0  0
 28 31  1  0  0  0  0
 30 28  1  0  0  0  0
 31 34  1  0  0  0  0
 31 32  1  0  0  0  0
 33 31  1  0  0  0  0
 34 37  1  0  0  0  0
 34 35  1  0  0  0  0
 36 34  1  0  0  0  0
 37 38  1  0  0  0  0
 38 39  1  0  0  0  0
 39 40  2  0  0  0  0
 39 47  1  0  0  0  0
 40 48  1  0  0  0  0
 41 40  1  0  0  0  0
 42 41  2  0  0  0  0
 43 42  1  0  0  0  0
 43 38  2  0  0  0  0
 44 45  2  0  0  0  0
 46 42  1  0  0  0  0
 46 44  1  0  0  0  0
 49 44  1  0  0  0  0
 50 46  1  0  0  0  0
M  END
>  <minimizedAffinity>
-5.82989311

$$$$

 OpenBabel03262521273D

 50 53  0  0  1  0  0  0  0  0999 V2000
   38.9770   22.3110   34.2630 C   0  0  0  0  0  0  0  0  0  0  0  0
   39.4550   21.7710   33.0680 C   0  0  0  0  0  0  0  0  0  0  0  0
   40.7020   22.2510   32.6420 C   0  0  0  0  0  0  0  0  0  0  0  0
   41.4240   23.1770   33.3210 C   0  0  0  0  0  0  0  0  0  0  0  0
   42.5760   23.7940   33.1760 N   0  0  0  0  0  0  0  0  0  0  0  0
   42.8410   24.6700   34.1880 C   0  0  0  0  0  0  0  0  0  0  0  0
   41.7570   24.5900   35.0390 C   0  0  0  0  0  0  0  0  0  0  0  0
   40.9020   23.6710   34.4890 C   0  0  0  0  0  0  0  0  0  0  0  0
   39.6860   23.2570   34.9820 C   0  0  0  0  0  0  0  0  0  0  0  0
   38.0240   21.9220   34.5570 H   0  0  0  0  0  0  0  0  0  0  0  0
   41.1470   21.8810   31.7200 H   0  0  0  0  0  0  0  0  0  0  0  0
   43.2550   23.6580   32.3770 H   0  0  0  0  0  0  0  0  0  0  0  0
   43.7340   25.2830   34.2680 H   0  0  0  0  0  0  0  0  0  0  0  0
   41.6530   25.1650   35.9510 H   0  0  0  0  0  0  0  0  0  0  0  0
   39.0960   22.6270   37.2320 C   0  0  2  0  0  3  0  0  0  0  0  0
   39.1280   23.7900   36.2390 C   0  0  2  0  0  3  0  0  0  0  0  0
   37.7700   24.3760   36.1500 C   0  0  0  0  0  3  0  0  0  0  0  0
   37.0100   23.6920   35.7190 H   0  0  0  0  0  0  0  0  0  0  0  0
   37.3320   24.7010   37.4050 O   0  0  0  0  0  0  0  0  0  0  0  0
   38.2420   24.6020   38.4210 C   0  0  0  0  0  3  0  0  0  0  0  0
   38.9850   25.4510   38.4430 H   0  0  0  0  0  0  0  0  0  0  0  0
   38.9140   23.2800   38.5820 C   0  0  1  0  0  3  0  0  0  0  0  0
   40.2390   21.8690   37.1270 O   0  0  0  0  0  0  0  0  0  0  0  0
   40.5790   21.6450   38.0300 H   0  0  0  0  0  0  0  0  0  0  0  0
   38.2650   22.3950   39.4060 O   0  0  0  0  0  0  0  0  0  0  0  0
   38.6100   21.4910   39.1820 H   0  0  0  0  0  0  0  0  0  0  0  0
   38.6780   20.5620   32.0360 S   0  0  0  0  0  0  0  0  0  0  0  0
   37.3530   21.2040   31.0290 C   0  0  0  0  0  0  0  0  0  0  0  0
   37.8000   21.8140   30.2170 H   0  0  0  0  0  0  0  0  0  0  0  0
   36.8600   20.3350   30.5020 H   0  0  0  0  0  0  0  0  0  0  0  0
   36.3610   22.0590   31.7760 C   0  0  0  0  0  0  0  0  0  0  0  0
   36.7750   22.1190   32.8280 H   0  0  0  0  0  0  0  0  0  0  0  0
   35.4520   21.4340   31.9150 H   0  0  0  0  0  0  0  0  0  0  0  0
   36.1620   23.2870   31.2290 C   0  0  0  0  0  0  0  0  0  0  0  0
   35.0910   23.5600   31.0350 H   0  0  0  0  0  0  0  0  0  0  0  0
   36.7060   23.5020   30.2840 H   0  0  0  0  0  0  0  0  0  0  0  0
   36.6460   24.0430   32.2630 O   0  0  0  0  0  0  0  0  0  0  0  0
   36.8010   25.3940   32.0690 C   0  0  0  0  0  0  0  0  0  0  0  0
   37.1310   26.0650   33.2190 C   0  0  0  0  0  0  0  0  0  0  0  0
   37.3190   27.4560   33.1610 C   0  0  0  0  0  0  0  0  0  0  0  0
   37.1600   28.0620   31.9530 N   0  0  0  0  0  0  0  0  0  0  0  0
   36.8290   27.3630   30.8200 C   0  0  0  0  0  0  0  0  0  0  0  0
   36.6590   26.0420   30.9170 N   0  0  0  0  0  0  0  0  0  0  0  0
   36.8630   29.5000   29.7390 C   0  0  0  0  0  0  0  0  0  0  0  0
   37.1280   30.1200   30.8140 O   0  0  0  0  0  0  0  0  0  0  0  0
   36.6880   28.0970   29.6100 N   0  0  0  0  0  0  0  0  0  0  0  0
   37.2870   25.7090   34.2400 H   0  0  0  0  0  0  0  0  0  0  0  0
   37.5770   28.0720   33.9960 H   0  0  0  0  0  0  0  0  0  0  0  0
   36.7640   30.1000   28.8340 H   0  0  0  0  0  0  0  0  0  0  0  0
   36.4700   27.5750   28.7330 H   0  0  0  0  0  0  0  0  0  0  0  0
  1 10  1  0  0  0  0
  1  9  1  0  0  0  0
  2  1  2  0  0  0  0
  3  2  1  0  0  0  0
  3  4  2  0  0  0  0
  4  8  1  0  0  0  0
  5  4  1  0  0  0  0
  5  6  1  0  0  0  0
  6 13  1  0  0  0  0
  6  7  2  0  0  0  0
  7 14  1  0  0  0  0
  8  9  2  0  0  0  0
  8  7  1  0  0  0  0
 11  3  1  0  0  0  0
 12  5  1  0  0  0  0
 15 23  1  1  0  0  0
 15 22  1  0  0  0  0
 16  9  1  6  0  0  0
 16 15  1  0  0  0  0
 17 16  1  0  0  0  0
 17 19  1  0  0  0  0
 18 17  1  0  0  0  0
 19 20  1  0  0  0  0
 20 21  1  0  0  0  0
 20 22  1  0  0  0  0
 22 25  1  1  0  0  0
 23 24  1  0  0  0  0
 26 25  1  0  0  0  0
 27  2  1  0  0  0  0
 28 31  1  0  0  0  0
 28 27  1  0  0  0  0
 29 28  1  0  0  0  0
 30 28  1  0  0  0  0
 31 33  1  0  0  0  0
 31 32  1  0  0  0  0
 34 31  1  0  0  0  0
 34 37  1  0  0  0  0
 35 34  1  0  0  0  0
 36 34  1  0  0  0  0
 38 37  1  0  0  0  0
 38 39  1  0  0  0  0
 39 47  1  0  0  0  0
 40 39  2  0  0  0  0
 40 48  1  0  0  0  0
 41 40  1  0  0  0  0
 42 43  1  0  0  0  0
 42 41  2  0  0  0  0
 43 38  2  0  0  0  0
 44 45  2  0  0  0  0
 46 44  1  0  0  0  0
 46 42  1  0  0  0  0
 49 44  1  0  0  0  0
 50 46  1  0  0  0  0
M  END
>  <minimizedAffinity>
-5.82234955

$$$$

 OpenBabel03262521273D

 50 53  0  0  1  0  0  0  0  0999 V2000
   38.6440   25.1210   34.2300 C   0  0  0  0  0  0  0  0  0  0  0  0
   37.9180   25.6970   33.1870 C   0  0  0  0  0  0  0  0  0  0  0  0
   37.2090   24.7990   32.3740 C   0  0  0  0  0  0  0  0  0  0  0  0
   37.2060   23.4560   32.5610 C   0  0  0  0  0  0  0  0  0  0  0  0
   36.6610   22.4060   31.9870 N   0  0  0  0  0  0  0  0  0  0  0  0
   36.9970   21.2330   32.5970 C   0  0  0  0  0  0  0  0  0  0  0  0
   37.8250   21.5840   33.6440 C   0  0  0  0  0  0  0  0  0  0  0  0
   37.9390   22.9490   33.6030 C   0  0  0  0  0  0  0  0  0  0  0  0
   38.6650   23.7550   34.4500 C   0  0  0  0  0  0  0  0  0  0  0  0
   39.1720   25.8350   34.8280 H   0  0  0  0  0  0  0  0  0  0  0  0
   36.6160   25.1670   31.5380 H   0  0  0  0  0  0  0  0  0  0  0  0
   36.0250   22.4230   31.1420 H   0  0  0  0  0  0  0  0  0  0  0  0
   36.6590   20.2480   32.2880 H   0  0  0  0  0  0  0  0  0  0  0  0
   38.2700   20.8770   34.3330 H   0  0  0  0  0  0  0  0  0  0  0  0
   38.7750   23.6830   36.8570 C   0  0  2  0  0  3  0  0  0  0  0  0
   39.4520   23.2060   35.5710 C   0  0  2  0  0  3  0  0  0  0  0  0
   40.8810   23.5960   35.6130 C   0  0  0  0  0  3  0  0  0  0  0  0
   41.0500   24.6920   35.6010 H   0  0  0  0  0  0  0  0  0  0  0  0
   41.4440   23.1290   36.7690 O   0  0  0  0  0  0  0  0  0  0  0  0
   40.6830   22.2880   37.5320 C   0  0  0  0  0  3  0  0  0  0  0  0
   40.6220   21.2390   37.1190 H   0  0  0  0  0  0  0  0  0  0  0  0
   39.3420   22.7960   37.9400 C   0  0  1  0  0  3  0  0  0  0  0  0
   37.4060   23.6150   36.7370 O   0  0  0  0  0  0  0  0  0  0  0  0
   37.0140   23.2340   37.5630 H   0  0  0  0  0  0  0  0  0  0  0  0
   39.3190   23.4910   39.1240 O   0  0  0  0  0  0  0  0  0  0  0  0
   38.4870   24.0330   39.1200 H   0  0  0  0  0  0  0  0  0  0  0  0
   37.7870   27.4120   32.7730 S   0  0  0  0  0  0  0  0  0  0  0  0
   36.2370   28.1610   33.2430 C   0  0  0  0  0  0  0  0  0  0  0  0
   35.4720   27.3590   33.3080 H   0  0  0  0  0  0  0  0  0  0  0  0
   36.3410   28.5480   34.2990 H   0  0  0  0  0  0  0  0  0  0  0  0
   35.7400   29.2180   32.2900 C   0  0  0  0  0  0  0  0  0  0  0  0
   34.6990   28.8740   32.0060 H   0  0  0  0  0  0  0  0  0  0  0  0
   36.3030   29.0720   31.3420 H   0  0  0  0  0  0  0  0  0  0  0  0
   35.7470   30.4760   32.8010 C   0  0  0  0  0  0  0  0  0  0  0  0
   34.9090   31.1390   32.4570 H   0  0  0  0  0  0  0  0  0  0  0  0
   36.6790   31.0640   32.6550 H   0  0  0  0  0  0  0  0  0  0  0  0
   35.5640   30.1540   34.1180 O   0  0  0  0  0  0  0  0  0  0  0  0
   34.8570   31.0250   34.9120 C   0  0  0  0  0  0  0  0  0  0  0  0
   35.6000   31.5220   35.9530 C   0  0  0  0  0  0  0  0  0  0  0  0
   34.9970   32.4260   36.8440 C   0  0  0  0  0  0  0  0  0  0  0  0
   33.6970   32.7580   36.6180 N   0  0  0  0  0  0  0  0  0  0  0  0
   32.9800   32.2440   35.5680 C   0  0  0  0  0  0  0  0  0  0  0  0
   33.5890   31.3880   34.7440 N   0  0  0  0  0  0  0  0  0  0  0  0
   31.1630   33.5370   36.4410 C   0  0  0  0  0  0  0  0  0  0  0  0
   31.8430   33.9600   37.4240 O   0  0  0  0  0  0  0  0  0  0  0  0
   31.6270   32.6590   35.4260 N   0  0  0  0  0  0  0  0  0  0  0  0
   36.6360   31.3420   36.2480 H   0  0  0  0  0  0  0  0  0  0  0  0
   35.4850   32.8710   37.6850 H   0  0  0  0  0  0  0  0  0  0  0  0
   30.1300   33.8800   36.3680 H   0  0  0  0  0  0  0  0  0  0  0  0
   31.0800   32.3030   34.6110 H   0  0  0  0  0  0  0  0  0  0  0  0
  1  9  1  0  0  0  0
  1 10  1  0  0  0  0
  2  1  2  0  0  0  0
  3  4  2  0  0  0  0
  3  2  1  0  0  0  0
  4  8  1  0  0  0  0
  5  4  1  0  0  0  0
  5  6  1  0  0  0  0
  6  7  2  0  0  0  0
  7 14  1  0  0  0  0
  8  7  1  0  0  0  0
  8  9  2  0  0  0  0
 11  3  1  0  0  0  0
 12  5  1  0  0  0  0
 13  6  1  0  0  0  0
 15 23  1  6  0  0  0
 15 22  1  0  0  0  0
 16  9  1  6  0  0  0
 16 17  1  0  0  0  0
 16 15  1  0  0  0  0
 17 19  1  0  0  0  0
 18 17  1  0  0  0  0
 19 20  1  0  0  0  0
 20 22  1  0  0  0  0
 21 20  1  0  0  0  0
 22 25  1  1  0  0  0
 23 24  1  0  0  0  0
 26 25  1  0  0  0  0
 27  2  1  0  0  0  0
 27 28  1  0  0  0  0
 28 29  1  0  0  0  0
 28 30  1  0  0  0  0
 31 34  1  0  0  0  0
 31 28  1  0  0  0  0
 32 31  1  0  0  0  0
 33 31  1  0  0  0  0
 34 37  1  0  0  0  0
 35 34  1  0  0  0  0
 36 34  1  0  0  0  0
 37 38  1  0  0  0  0
 38 39  1  0  0  0  0
 39 47  1  0  0  0  0
 39 40  2  0  0  0  0
 40 48  1  0  0  0  0
 41 40  1  0  0  0  0
 42 41  2  0  0  0  0
 43 38  2  0  0  0  0
 43 42  1  0  0  0  0
 44 45  2  0  0  0  0
 46 42  1  0  0  0  0
 46 44  1  0  0  0  0
 49 44  1  0  0  0  0
 50 46  1  0  0  0  0
M  END
>  <minimizedAffinity>
-5.75233459

$$$$

 OpenBabel03262521273D

 50 53  0  0  1  0  0  0  0  0999 V2000
   40.1840   22.2380   34.4080 C   0  0  0  0  0  0  0  0  0  0  0  0
   38.9150   21.8560   33.9690 C   0  0  0  0  0  0  0  0  0  0  0  0
   37.8750   22.0370   34.8940 C   0  0  0  0  0  0  0  0  0  0  0  0
   38.0540   22.5450   36.1380 C   0  0  0  0  0  0  0  0  0  0  0  0
   37.3030   22.8200   37.1820 N   0  0  0  0  0  0  0  0  0  0  0  0
   38.0130   23.3410   38.2250 C   0  0  0  0  0  0  0  0  0  0  0  0
   39.3220   23.3940   37.7910 C   0  0  0  0  0  0  0  0  0  0  0  0
   39.3240   22.9020   36.5110 C   0  0  0  0  0  0  0  0  0  0  0  0
   40.4030   22.7600   35.6700 C   0  0  0  0  0  0  0  0  0  0  0  0
   40.9510   22.0870   33.6770 H   0  0  0  0  0  0  0  0  0  0  0  0
   36.8540   21.7640   34.6310 H   0  0  0  0  0  0  0  0  0  0  0  0
   36.2590   22.6710   37.2500 H   0  0  0  0  0  0  0  0  0  0  0  0
   37.5930   23.6370   39.1810 H   0  0  0  0  0  0  0  0  0  0  0  0
   40.1480   23.7620   38.3870 H   0  0  0  0  0  0  0  0  0  0  0  0
   42.2030   24.2720   35.1350 C   0  0  2  0  0  3  0  0  0  0  0  0
   41.7690   23.1460   36.0750 C   0  0  2  0  0  3  0  0  0  0  0  0
   42.7870   22.0710   36.0310 C   0  0  0  0  0  3  0  0  0  0  0  0
   42.8680   21.5660   35.0460 H   0  0  0  0  0  0  0  0  0  0  0  0
   44.0200   22.6020   36.2970 O   0  0  0  0  0  0  0  0  0  0  0  0
   44.0550   23.9050   36.7090 C   0  0  0  0  0  3  0  0  0  0  0  0
   43.7430   24.0440   37.7860 H   0  0  0  0  0  0  0  0  0  0  0  0
   43.3960   24.9010   35.8150 C   0  0  1  0  0  3  0  0  0  0  0  0
   41.1630   25.1440   34.9110 O   0  0  0  0  0  0  0  0  0  0  0  0
   41.4890   26.0780   34.9610 H   0  0  0  0  0  0  0  0  0  0  0  0
   44.2080   25.4420   34.8490 O   0  0  0  0  0  0  0  0  0  0  0  0
   43.6110   25.8130   34.1490 H   0  0  0  0  0  0  0  0  0  0  0  0
   38.4670   21.1780   32.3980 S   0  0  0  0  0  0  0  0  0  0  0  0
   36.7080   21.0870   32.1160 C   0  0  0  0  0  0  0  0  0  0  0  0
   36.4530   20.0380   31.8570 H   0  0  0  0  0  0  0  0  0  0  0  0
   36.1850   21.2780   33.0990 H   0  0  0  0  0  0  0  0  0  0  0  0
   36.2050   21.9840   31.0140 C   0  0  0  0  0  0  0  0  0  0  0  0
   35.4440   21.3530   30.4620 H   0  0  0  0  0  0  0  0  0  0  0  0
   37.0310   22.0600   30.2730 H   0  0  0  0  0  0  0  0  0  0  0  0
   35.6820   23.1600   31.4480 C   0  0  0  0  0  0  0  0  0  0  0  0
   35.5980   23.2670   32.5620 H   0  0  0  0  0  0  0  0  0  0  0  0
   34.6870   23.4390   31.0400 H   0  0  0  0  0  0  0  0  0  0  0  0
   36.6620   23.9950   30.9820 O   0  0  0  0  0  0  0  0  0  0  0  0
   37.3470   24.7690   31.8870 C   0  0  0  0  0  0  0  0  0  0  0  0
   38.4700   25.3490   31.3530 C   0  0  0  0  0  0  0  0  0  0  0  0
   39.2640   26.1670   32.1730 C   0  0  0  0  0  0  0  0  0  0  0  0
   38.8670   26.3390   33.4630 N   0  0  0  0  0  0  0  0  0  0  0  0
   37.7380   25.7450   33.9690 C   0  0  0  0  0  0  0  0  0  0  0  0
   37.0110   24.9740   33.1570 N   0  0  0  0  0  0  0  0  0  0  0  0
   38.3530   26.8020   36.0280 C   0  0  0  0  0  0  0  0  0  0  0  0
   39.4110   27.3010   35.5400 O   0  0  0  0  0  0  0  0  0  0  0  0
   37.4170   25.9920   35.3320 N   0  0  0  0  0  0  0  0  0  0  0  0
   38.8980   25.2960   30.3500 H   0  0  0  0  0  0  0  0  0  0  0  0
   40.1560   26.6650   31.8570 H   0  0  0  0  0  0  0  0  0  0  0  0
   38.1430   27.0150   37.0770 H   0  0  0  0  0  0  0  0  0  0  0  0
   36.5430   25.5750   35.7210 H   0  0  0  0  0  0  0  0  0  0  0  0
  1  9  1  0  0  0  0
  2  1  2  0  0  0  0
  2  3  1  0  0  0  0
  3  4  2  0  0  0  0
  4  8  1  0  0  0  0
  4  5  1  0  0  0  0
  5 12  1  0  0  0  0
  5  6  1  0  0  0  0
  6 13  1  0  0  0  0
  7  6  2  0  0  0  0
  7 14  1  0  0  0  0
  8  7  1  0  0  0  0
  9  8  2  0  0  0  0
 10  1  1  0  0  0  0
 11  3  1  0  0  0  0
 15 23  1  1  0  0  0
 15 22  1  0  0  0  0
 15 16  1  0  0  0  0
 16  9  1  6  0  0  0
 17 16  1  0  0  0  0
 17 19  1  0  0  0  0
 18 17  1  0  0  0  0
 19 20  1  0  0  0  0
 20 21  1  0  0  0  0
 22 25  1  6  0  0  0
 22 20  1  0  0  0  0
 23 24  1  0  0  0  0
 26 25  1  0  0  0  0
 27  2  1  0  0  0  0
 28 27  1  0  0  0  0
 28 30  1  0  0  0  0
 29 28  1  0  0  0  0
 31 34  1  0  0  0  0
 31 28  1  0  0  0  0
 32 31  1  0  0  0  0
 33 31  1  0  0  0  0
 34 35  1  0  0  0  0
 36 34  1  0  0  0  0
 37 34  1  0  0  0  0
 37 38  1  0  0  0  0
 38 43  1  0  0  0  0
 39 38  2  0  0  0  0
 39 40  1  0  0  0  0
 40 41  2  0  0  0  0
 41 42  1  0  0  0  0
 42 46  1  0  0  0  0
 43 42  2  0  0  0  0
 44 49  1  0  0  0  0
 45 44  2  0  0  0  0
 46 50  1  0  0  0  0
 46 44  1  0  0  0  0
 47 39  1  0  0  0  0
 48 40  1  0  0  0  0
M  END
>  <minimizedAffinity>
-5.75227404

$$$$

 OpenBabel03262521273D

 50 53  0  0  1  0  0  0  0  0999 V2000
   35.6740   30.1960   34.6440 C   0  0  0  0  0  0  0  0  0  0  0  0
   35.7130   29.0350   33.8710 C   0  0  0  0  0  0  0  0  0  0  0  0
   34.6020   28.8220   33.0410 C   0  0  0  0  0  0  0  0  0  0  0  0
   33.5440   29.6670   32.9670 C   0  0  0  0  0  0  0  0  0  0  0  0
   32.4070   29.7300   32.3100 N   0  0  0  0  0  0  0  0  0  0  0  0
   31.6750   30.8390   32.6200 C   0  0  0  0  0  0  0  0  0  0  0  0
   32.4240   31.5270   33.5530 C   0  0  0  0  0  0  0  0  0  0  0  0
   33.5630   30.7910   33.7520 C   0  0  0  0  0  0  0  0  0  0  0  0
   34.6100   31.0800   34.5950 C   0  0  0  0  0  0  0  0  0  0  0  0
   36.5360   30.3260   35.2650 H   0  0  0  0  0  0  0  0  0  0  0  0
   34.5540   27.9390   32.4050 H   0  0  0  0  0  0  0  0  0  0  0  0
   32.0580   29.0200   31.6080 H   0  0  0  0  0  0  0  0  0  0  0  0
   30.7080   31.0880   32.1950 H   0  0  0  0  0  0  0  0  0  0  0  0
   32.1210   32.4620   34.0090 H   0  0  0  0  0  0  0  0  0  0  0  0
   35.8580   33.0990   35.0180 C   0  0  2  0  0  3  0  0  0  0  0  0
   34.6280   32.2920   35.4370 C   0  0  2  0  0  3  0  0  0  0  0  0
   34.6840   32.0660   36.9000 C   0  0  0  0  0  3  0  0  0  0  0  0
   35.5320   31.4290   37.2270 H   0  0  0  0  0  0  0  0  0  0  0  0
   34.8310   33.2670   37.5400 O   0  0  0  0  0  0  0  0  0  0  0  0
   34.7210   34.3930   36.7730 C   0  0  0  0  0  3  0  0  0  0  0  0
   33.6560   34.6490   36.5020 H   0  0  0  0  0  0  0  0  0  0  0  0
   35.6240   34.4790   35.5880 C   0  0  1  0  0  3  0  0  0  0  0  0
   36.0080   33.0780   33.6510 O   0  0  0  0  0  0  0  0  0  0  0  0
   36.2330   33.9850   33.3220 H   0  0  0  0  0  0  0  0  0  0  0  0
   36.8450   35.0590   35.8280 O   0  0  0  0  0  0  0  0  0  0  0  0
   37.4470   34.7720   35.0930 H   0  0  0  0  0  0  0  0  0  0  0  0
   36.9890   27.8100   33.8160 S   0  0  0  0  0  0  0  0  0  0  0  0
   37.6260   27.3470   35.4170 C   0  0  0  0  0  0  0  0  0  0  0  0
   37.3430   28.1370   36.1440 H   0  0  0  0  0  0  0  0  0  0  0  0
   37.0730   26.4240   35.7620 H   0  0  0  0  0  0  0  0  0  0  0  0
   39.1230   27.1710   35.4660 C   0  0  0  0  0  0  0  0  0  0  0  0
   39.3270   26.7810   36.5090 H   0  0  0  0  0  0  0  0  0  0  0  0
   39.5560   28.1940   35.5070 H   0  0  0  0  0  0  0  0  0  0  0  0
   39.6190   26.3520   34.5020 C   0  0  0  0  0  0  0  0  0  0  0  0
   40.6040   26.6640   34.0650 H   0  0  0  0  0  0  0  0  0  0  0  0
   38.9530   26.1480   33.6360 H   0  0  0  0  0  0  0  0  0  0  0  0
   39.7930   25.2310   35.2680 O   0  0  0  0  0  0  0  0  0  0  0  0
   38.9320   24.1760   35.0890 C   0  0  0  0  0  0  0  0  0  0  0  0
   38.8690   23.7530   33.7840 C   0  0  0  0  0  0  0  0  0  0  0  0
   38.0230   22.6790   33.4620 C   0  0  0  0  0  0  0  0  0  0  0  0
   37.3090   22.1140   34.4730 N   0  0  0  0  0  0  0  0  0  0  0  0
   37.3940   22.5600   35.7680 C   0  0  0  0  0  0  0  0  0  0  0  0
   38.2080   23.5840   36.0340 N   0  0  0  0  0  0  0  0  0  0  0  0
   35.7690   20.8660   36.2410 C   0  0  0  0  0  0  0  0  0  0  0  0
   35.6840   20.5070   35.0270 O   0  0  0  0  0  0  0  0  0  0  0  0
   36.6030   21.8970   36.7470 N   0  0  0  0  0  0  0  0  0  0  0  0
   39.3790   24.1100   32.8870 H   0  0  0  0  0  0  0  0  0  0  0  0
   37.9010   22.2720   32.4810 H   0  0  0  0  0  0  0  0  0  0  0  0
   35.1460   20.3320   36.9590 H   0  0  0  0  0  0  0  0  0  0  0  0
   36.6820   22.2030   37.7420 H   0  0  0  0  0  0  0  0  0  0  0  0
  1 10  1  0  0  0  0
  2  1  2  0  0  0  0
  3  2  1  0  0  0  0
  4  3  2  0  0  0  0
  4  8  1  0  0  0  0
  5  6  1  0  0  0  0
  5  4  1  0  0  0  0
  6  7  2  0  0  0  0
  7  8  1  0  0  0  0
  7 14  1  0  0  0  0
  8  9  2  0  0  0  0
  9  1  1  0  0  0  0
 11  3  1  0  0  0  0
 12  5  1  0  0  0  0
 13  6  1  0  0  0  0
 15 23  1  6  0  0  0
 15 16  1  0  0  0  0
 15 22  1  0  0  0  0
 16  9  1  6  0  0  0
 16 17  1  0  0  0  0
 17 18  1  0  0  0  0
 17 19  1  0  0  0  0
 20 19  1  0  0  0  0
 21 20  1  0  0  0  0
 22 25  1  1  0  0  0
 22 20  1  0  0  0  0
 24 23  1  0  0  0  0
 26 25  1  0  0  0  0
 27  2  1  0  0  0  0
 27 28  1  0  0  0  0
 28 31  1  0  0  0  0
 28 30  1  0  0  0  0
 28 29  1  0  0  0  0
 31 33  1  0  0  0  0
 31 32  1  0  0  0  0
 34 37  1  0  0  0  0
 34 31  1  0  0  0  0
 35 34  1  0  0  0  0
 36 34  1  0  0  0  0
 38 37  1  0  0  0  0
 38 43  1  0  0  0  0
 39 38  2  0  0  0  0
 40 39  1  0  0  0  0
 40 41  2  0  0  0  0
 41 42  1  0  0  0  0
 42 43  2  0  0  0  0
 42 46  1  0  0  0  0
 44 46  1  0  0  0  0
 44 49  1  0  0  0  0
 45 44  2  0  0  0  0
 46 50  1  0  0  0  0
 47 39  1  0  0  0  0
 48 40  1  0  0  0  0
M  END
>  <minimizedAffinity>
-5.67994452

$$$$

 OpenBabel03262521273D

 50 53  0  0  1  0  0  0  0  0999 V2000
   37.3470   25.7060   33.4310 C   0  0  0  0  0  0  0  0  0  0  0  0
   37.2240   26.5900   34.5030 C   0  0  0  0  0  0  0  0  0  0  0  0
   37.7190   26.1260   35.7310 C   0  0  0  0  0  0  0  0  0  0  0  0
   38.2860   24.9060   35.9020 C   0  0  0  0  0  0  0  0  0  0  0  0
   38.8190   24.2220   36.8900 N   0  0  0  0  0  0  0  0  0  0  0  0
   39.2580   22.9880   36.5070 C   0  0  0  0  0  0  0  0  0  0  0  0
   38.9740   22.8970   35.1590 C   0  0  0  0  0  0  0  0  0  0  0  0
   38.3790   24.0810   34.8100 C   0  0  0  0  0  0  0  0  0  0  0  0
   37.9200   24.4540   33.5680 C   0  0  0  0  0  0  0  0  0  0  0  0
   36.9590   26.0930   32.5110 H   0  0  0  0  0  0  0  0  0  0  0  0
   37.6620   26.7540   36.6190 H   0  0  0  0  0  0  0  0  0  0  0  0
   38.9160   24.5530   37.8900 H   0  0  0  0  0  0  0  0  0  0  0  0
   39.7290   22.2610   37.1610 H   0  0  0  0  0  0  0  0  0  0  0  0
   39.1980   22.0330   34.5450 H   0  0  0  0  0  0  0  0  0  0  0  0
   38.5180   24.4260   31.2330 C   0  0  2  0  0  3  0  0  0  0  0  0
   38.0220   23.5640   32.3950 C   0  0  2  0  0  3  0  0  0  0  0  0
   36.7710   22.8860   31.9840 C   0  0  0  0  0  3  0  0  0  0  0  0
   35.9230   23.5770   31.7970 H   0  0  0  0  0  0  0  0  0  0  0  0
   36.9850   22.2090   30.8140 O   0  0  0  0  0  0  0  0  0  0  0  0
   38.2750   22.1370   30.3690 C   0  0  0  0  0  3  0  0  0  0  0  0
   38.9050   21.3900   30.9360 H   0  0  0  0  0  0  0  0  0  0  0  0
   38.9890   23.4350   30.1940 C   0  0  1  0  0  3  0  0  0  0  0  0
   39.4940   25.2970   31.6580 O   0  0  0  0  0  0  0  0  0  0  0  0
   40.2370   25.3160   31.0040 H   0  0  0  0  0  0  0  0  0  0  0  0
   38.8540   24.0100   28.9560 O   0  0  0  0  0  0  0  0  0  0  0  0
   39.0800   24.9710   29.0610 H   0  0  0  0  0  0  0  0  0  0  0  0
   36.5230   28.2150   34.4960 S   0  0  0  0  0  0  0  0  0  0  0  0
   35.7530   28.6710   32.9530 C   0  0  0  0  0  0  0  0  0  0  0  0
   36.5150   28.5900   32.1490 H   0  0  0  0  0  0  0  0  0  0  0  0
   34.9810   27.8870   32.7000 H   0  0  0  0  0  0  0  0  0  0  0  0
   35.1840   30.0670   32.9290 C   0  0  0  0  0  0  0  0  0  0  0  0
   35.6960   30.5650   32.0500 H   0  0  0  0  0  0  0  0  0  0  0  0
   35.6300   30.6010   33.7960 H   0  0  0  0  0  0  0  0  0  0  0  0
   33.8290   30.1140   32.8310 C   0  0  0  0  0  0  0  0  0  0  0  0
   33.3060   29.1260   32.9190 H   0  0  0  0  0  0  0  0  0  0  0  0
   33.4160   30.5960   31.9190 H   0  0  0  0  0  0  0  0  0  0  0  0
   33.5780   30.8660   33.9470 O   0  0  0  0  0  0  0  0  0  0  0  0
   32.9520   30.2650   35.0120 C   0  0  0  0  0  0  0  0  0  0  0  0
   32.9300   31.0550   36.1340 C   0  0  0  0  0  0  0  0  0  0  0  0
   32.3190   30.5600   37.2980 C   0  0  0  0  0  0  0  0  0  0  0  0
   31.7780   29.3130   37.2430 N   0  0  0  0  0  0  0  0  0  0  0  0
   31.8150   28.5470   36.1050 C   0  0  0  0  0  0  0  0  0  0  0  0
   32.4060   29.0530   35.0200 N   0  0  0  0  0  0  0  0  0  0  0  0
   30.6900   26.8960   37.4260 C   0  0  0  0  0  0  0  0  0  0  0  0
   30.7110   27.6140   38.4710 O   0  0  0  0  0  0  0  0  0  0  0  0
   31.2190   27.2570   36.1590 N   0  0  0  0  0  0  0  0  0  0  0  0
   33.3210   32.0590   36.3150 H   0  0  0  0  0  0  0  0  0  0  0  0
   32.2480   31.0920   38.2230 H   0  0  0  0  0  0  0  0  0  0  0  0
   30.2230   25.9140   37.5090 H   0  0  0  0  0  0  0  0  0  0  0  0
   31.2090   26.6760   35.2910 H   0  0  0  0  0  0  0  0  0  0  0  0
  1  9  2  0  0  0  0
  1  2  1  0  0  0  0
  2  3  2  0  0  0  0
  3  4  1  0  0  0  0
  3 11  1  0  0  0  0
  4  5  1  0  0  0  0
  5 12  1  0  0  0  0
  6  5  1  0  0  0  0
  6 13  1  0  0  0  0
  7  6  2  0  0  0  0
  8  7  1  0  0  0  0
  8  4  2  0  0  0  0
  9  8  1  0  0  0  0
 10  1  1  0  0  0  0
 14  7  1  0  0  0  0
 15 23  1  1  0  0  0
 15 16  1  0  0  0  0
 16  9  1  1  0  0  0
 17 16  1  0  0  0  0
 18 17  1  0  0  0  0
 19 17  1  0  0  0  0
 20 19  1  0  0  0  0
 20 21  1  0  0  0  0
 22 25  1  6  0  0  0
 22 20  1  0  0  0  0
 22 15  1  0  0  0  0
 24 23  1  0  0  0  0
 25 26  1  0  0  0  0
 27  2  1  0  0  0  0
 28 27  1  0  0  0  0
 29 28  1  0  0  0  0
 30 28  1  0  0  0  0
 31 28  1  0  0  0  0
 31 33  1  0  0  0  0
 32 31  1  0  0  0  0
 34 35  1  0  0  0  0
 34 31  1  0  0  0  0
 34 37  1  0  0  0  0
 36 34  1  0  0  0  0
 37 38  1  0  0  0  0
 38 43  2  0  0  0  0
 38 39  1  0  0  0  0
 39 47  1  0  0  0  0
 39 40  2  0  0  0  0
 40 48  1  0  0  0  0
 41 40  1  0  0  0  0
 42 46  1  0  0  0  0
 42 41  2  0  0  0  0
 43 42  1  0  0  0  0
 44 49  1  0  0  0  0
 44 45  2  0  0  0  0
 46 44  1  0  0  0  0
 50 46  1  0  0  0  0
M  END
>  <minimizedAffinity>
-5.55033922

$$$$
