REMARK  Name = 
REMARK  4 active torsions:
REMARK  status: ('A' for Active; 'I' for Inactive)
REMARK    1  A    between atoms: N_1  and  C_10
REMARK    2  A    between atoms: C_9  and  C_22
REMARK    3  A    between atoms: O_20  and  C_21
REMARK    4  A    between atoms: C_28  and  O_29
REMARK                            x       y       z     vdW  Elec       q    Type
REMARK                         _______ _______ _______ _____ _____    ______ ____
ROOT
ATOM      1  C   UNL     1      36.202  29.247  49.350  0.00  0.00    +0.000 A 
ATOM      2  C   UNL     1      36.035  30.367  48.516  0.00  0.00    +0.000 A 
ATOM      3  C   UNL     1      34.904  30.394  47.688  0.00  0.00    +0.000 A 
ATOM      4  N   UNL     1      34.041  29.347  47.738  0.00  0.00    +0.000 NA
ATOM      5  C   UNL     1      34.234  28.284  48.556  0.00  0.00    +0.000 A 
ATOM      6  N   UNL     1      35.319  28.225  49.370  0.00  0.00    +0.000 NA
ATOM      7  H   UNL     1      34.771  31.252  47.046  0.00  0.00    +0.000 HD
ATOM      8  H   UNL     1      33.434  27.559  48.446  0.00  0.00    +0.000 HD
ENDROOT
BRANCH   2   9
ATOM      9  N   UNL     1      37.008  31.392  48.568  0.00  0.00    +0.000 N 
ATOM     10  C   UNL     1      37.185  32.154  49.653  0.00  0.00    +0.000 A 
ATOM     11  C   UNL     1      38.151  33.160  49.674  0.00  0.00    +0.000 A 
ATOM     12  C   UNL     1      38.861  33.260  48.492  0.00  0.00    +0.000 A 
ATOM     13  O   UNL     1      39.757  34.169  48.464  0.00  0.00    +0.000 OA
ATOM     14  N   UNL     1      38.715  32.521  47.389  0.00  0.00    +0.000 N 
ATOM     15  C   UNL     1      37.758  31.572  47.457  0.00  0.00    +0.000 A 
ATOM     16  O   UNL     1      37.606  30.861  46.419  0.00  0.00    +0.000 OA
ATOM     17  H   UNL     1      36.593  32.034  50.550  0.00  0.00    +0.000 HD
ATOM     18  H   UNL     1      38.343  33.808  50.517  0.00  0.00    +0.000 HD
ATOM     19  H   UNL     1      39.314  32.690  46.551  0.00  0.00    +0.000 HD
ENDBRANCH   2   9
BRANCH   1  21
ATOM     20  C   UNL     1      36.929  28.420  51.599  0.00  0.00    +0.000 C 
ATOM     21  C   UNL     1      37.328  29.028  50.291  0.00  0.00    +0.000 C 
ATOM     22  C   UNL     1      38.407  28.151  49.696  0.00  0.00    +0.000 C 
ATOM     23  H   UNL     1      38.620  28.529  48.676  0.00  0.00    +0.000 HD
ATOM     24  O   UNL     1      38.069  26.824  49.595  0.00  0.00    +0.000 OA
ATOM     25  C   UNL     1      37.737  26.225  50.783  0.00  0.00    +0.000 C 
ATOM     26  H   UNL     1      36.764  25.688  50.730  0.00  0.00    +0.000 HD
ATOM     27  C   UNL     1      37.759  27.186  51.931  0.00  0.00    +0.000 C 
BRANCH  20  28
ATOM     28  O   UNL     1      35.601  28.018  51.482  0.00  0.00    +0.000 OA
ATOM     29  H   UNL     1      35.159  27.896  52.358  0.00  0.00    +0.000 HD
ENDBRANCH  20  28
BRANCH  27  30
ATOM     30  O   UNL     1      37.173  26.553  53.025  0.00  0.00    +0.000 OA
ATOM     31  H   UNL     1      37.481  25.612  53.121  0.00  0.00    +0.000 HD
ENDBRANCH  27  30
ENDBRANCH   1  21
TORSDOF 4
