REMARK  Name = 
REMARK  7 active torsions:
REMARK  status: ('A' for Active; 'I' for Inactive)
REMARK    1  A    between atoms: C_1  and  O_7
REMARK    2  A    between atoms: C_3  and  C_18
REMARK    3  A    between atoms: O_7  and  P_9
REMARK    4  A    between atoms: P_9  and  O_10
REMARK    5  A    between atoms: P_9  and  O_11
REMARK    6  A    between atoms: O_16  and  C_17
REMARK    7  A    between atoms: C_24  and  O_25
REMARK                            x       y       z     vdW  Elec       q    Type
REMARK                         _______ _______ _______ _____ _____    ______ ____
ROOT
ATOM      1  C   UNL     1      35.645  30.477  49.744  0.00  0.00    +0.000 A 
ATOM      2  C   UNL     1      35.970  29.482  50.676  0.00  0.00    +0.000 A 
ATOM      3  C   UNL     1      37.227  29.515  51.256  0.00  0.00    +0.000 A 
ATOM      4  N   UNL     1      38.101  30.492  50.916  0.00  0.00    +0.000 NA
ATOM      5  C   UNL     1      37.757  31.454  50.001  0.00  0.00    +0.000 A 
ATOM      6  N   UNL     1      36.528  31.439  49.420  0.00  0.00    +0.000 NA
ATOM      7  H   UNL     1      35.208  28.747  50.882  0.00  0.00    +0.000 HD
ATOM      8  H   UNL     1      38.454  32.241  49.724  0.00  0.00    +0.000 HD
ENDROOT
BRANCH   3  10
ATOM      9  C   UNL     1      38.136  27.226  51.554  0.00  0.00    +0.000 C 
ATOM     10  C   UNL     1      37.587  28.489  52.229  0.00  0.00    +0.000 C 
ATOM     11  C   UNL     1      38.580  28.894  53.267  0.00  0.00    +0.000 C 
ATOM     12  H   UNL     1      38.920  29.947  53.141  0.00  0.00    +0.000 HD
ATOM     13  O   UNL     1      39.742  28.123  53.267  0.00  0.00    +0.000 OA
ATOM     14  C   UNL     1      39.520  26.775  53.482  0.00  0.00    +0.000 C 
ATOM     15  H   UNL     1      40.410  26.237  53.087  0.00  0.00    +0.000 HD
ATOM     16  C   UNL     1      38.339  26.256  52.702  0.00  0.00    +0.000 C 
BRANCH   9  17
ATOM     17  O   UNL     1      39.398  27.511  51.033  0.00  0.00    +0.000 OA
ATOM     18  H   UNL     1      39.462  27.369  50.054  0.00  0.00    +0.000 HD
ENDBRANCH   9  17
BRANCH  16  19
ATOM     19  O   UNL     1      38.453  24.951  52.286  0.00  0.00    +0.000 OA
ATOM     20  H   UNL     1      37.510  24.600  52.215  0.00  0.00    +0.000 HD
ENDBRANCH  16  19
ENDBRANCH   3  10
BRANCH   1  21
ATOM     21  O   UNL     1      34.434  30.583  49.078  0.00  0.00    +0.000 OA
BRANCH  21  23
ATOM     22  O   UNL     1      35.499  30.161  46.640  0.00  0.00    +0.000 OA
ATOM     23  P   UNL     1      34.228  30.014  47.466  0.00  0.00    +0.000 P 
BRANCH  23  24
ATOM     24  O   UNL     1      33.761  28.391  47.578  0.00  0.00    +0.000 OA
ATOM     25  H   UNL     1      34.630  27.878  47.612  0.00  0.00    +0.000 HD
ENDBRANCH  23  24
BRANCH  23  26
ATOM     26  O   UNL     1      33.052  30.942  46.682  0.00  0.00    +0.000 OA
ATOM     27  H   UNL     1      33.177  30.897  45.696  0.00  0.00    +0.000 HD
ENDBRANCH  23  26
ENDBRANCH  21  23
ENDBRANCH   1  21
TORSDOF 7
