
     RDKit          3D

 52 55  0  0  0  0  0  0  0  0999 V2000
   34.8182   28.3702   49.4226 C   0  0  0  0  0  0  0  0  0  0  0  0
   33.5836   28.3204   48.5554 C   0  0  0  0  0  0  0  0  0  0  0  0
   33.6704   28.7161   47.1726 C   0  0  0  0  0  0  0  0  0  0  0  0
   32.0007   28.4740   46.6435 S   0  0  0  0  0  0  0  0  0  0  0  0
   31.3983   27.8762   48.3320 C   0  0  0  0  0  0  0  0  0  0  0  0
   32.4109   27.9418   48.9519 N   0  0  0  0  0  0  0  0  0  0  0  0
   30.0857   27.4525   48.7756 N   0  0  0  0  0  0  0  0  0  0  0  0
   29.2485   26.8389   47.7940 C   0  0  0  0  0  0  0  0  0  0  0  0
   27.8032   26.7910   48.1596 C   0  0  0  0  0  0  0  0  0  0  0  0
   27.4860   27.5408   49.3799 N   0  0  0  0  0  0  0  0  0  0  0  0
   28.3832   27.0243   50.3977 C   0  0  0  0  0  0  0  0  0  0  0  0
   29.7169   27.6729   50.1512 C   0  0  0  0  0  0  0  0  0  0  0  0
   34.9427   29.6729   50.1076 C   0  0  0  0  0  0  0  0  0  0  0  0
   37.5080   32.2891   49.5363 C   0  0  0  0  0  0  0  0  0  0  0  0
   38.2966   31.7457   48.5347 C   0  0  0  0  0  0  0  0  0  0  0  0
   37.9366   30.4824   48.0655 C   0  0  0  0  0  0  0  0  0  0  0  0
   36.8664   29.8431   48.5807 N   0  0  0  0  0  0  0  0  0  0  0  0
   36.1302   30.4374   49.5693 C   0  0  0  0  0  0  0  0  0  0  0  0
   36.4548   31.6462   50.0351 N   0  0  0  0  0  0  0  0  0  0  0  0
   35.7149   28.1148   48.8218 H   0  0  0  0  0  0  0  0  0  0  0  0
   34.7667   27.5671   50.2001 H   0  0  0  0  0  0  0  0  0  0  0  0
   34.5249   29.0522   46.6621 H   0  0  0  0  0  0  0  0  0  0  0  0
   29.6170   25.8050   47.5361 H   0  0  0  0  0  0  0  0  0  0  0  0
   29.3365   27.4187   46.8507 H   0  0  0  0  0  0  0  0  0  0  0  0
   27.4879   25.7291   48.3774 H   0  0  0  0  0  0  0  0  0  0  0  0
   27.1121   27.1379   47.3641 H   0  0  0  0  0  0  0  0  0  0  0  0
   26.5218   27.2019   49.6536 H   0  0  0  0  0  0  0  0  0  0  0  0
   28.0499   27.3466   51.4140 H   0  0  0  0  0  0  0  0  0  0  0  0
   28.5034   25.9198   50.3481 H   0  0  0  0  0  0  0  0  0  0  0  0
   30.4597   27.1771   50.8096 H   0  0  0  0  0  0  0  0  0  0  0  0
   29.6188   28.7480   50.4017 H   0  0  0  0  0  0  0  0  0  0  0  0
   34.0487   30.3068   49.8512 H   0  0  0  0  0  0  0  0  0  0  0  0
   35.0102   29.5734   51.2060 H   0  0  0  0  0  0  0  0  0  0  0  0
   37.7959   33.2810   49.9004 H   0  0  0  0  0  0  0  0  0  0  0  0
   39.1567   32.1920   48.0792 H   0  0  0  0  0  0  0  0  0  0  0  0
   38.5651   31.2859   45.1253 O   0  0  0  0  0  0  0  0  0  0  0  0
   38.1608   30.0687   45.6129 C   0  0  2  0  0  0  0  0  0  0  0  0
   38.6919   29.7796   46.9950 C   0  0  1  0  0  0  0  0  0  0  0  0
   40.1696   30.1078   47.0020 C   0  0  1  0  0  0  0  0  0  0  0  0
   40.3640   31.1450   47.2701 H   0  0  0  0  0  0  0  0  0  0  0  0
   40.7159   29.7567   45.7745 O   0  0  0  0  0  0  0  0  0  0  0  0
   40.1002   28.6422   45.2215 C   0  0  1  0  0  0  0  0  0  0  0  0
   40.7004   28.2928   44.3715 H   0  0  0  0  0  0  0  0  0  0  0  0
   38.7163   28.9854   44.6852 C   0  0  2  0  0  0  0  0  0  0  0  0
   38.8585   29.5531   43.4229 O   0  0  0  0  0  0  0  0  0  0  0  0
   39.1174   31.7519   45.7740 H   0  0  0  0  0  0  0  0  0  0  0  0
   37.0484   30.0032   45.6656 H   0  0  0  0  0  0  0  0  0  0  0  0
   38.6359   28.6733   47.1105 H   0  0  0  0  0  0  0  0  0  0  0  0
   40.6625   29.4382   47.7606 H   0  0  0  0  0  0  0  0  0  0  0  0
   40.0447   27.7835   45.9304 H   0  0  0  0  0  0  0  0  0  0  0  0
   38.0461   28.1190   44.6429 H   0  0  0  0  0  0  0  0  0  0  0  0
   38.1943   30.2858   43.3312 H   0  0  0  0  0  0  0  0  0  0  0  0
  1 13  1  0
  2  6  1  0
  2  1  1  0
  3  2  2  0
  4  3  1  0
  4  5  1  0
  5  7  1  0
  5  6  2  0
  7 12  1  0
  8  9  1  0
  8  7  1  0
  9 10  1  0
 10 11  1  0
 12 11  1  0
 14 19  2  0
 15 14  1  0
 16 15  2  0
 16 17  1  0
 17 18  2  0
 18 19  1  0
 18 13  1  0
  1 20  1  0
  1 21  1  0
  3 22  1  0
  8 23  1  0
  8 24  1  0
  9 25  1  0
  9 26  1  0
 10 27  1  0
 11 28  1  0
 11 29  1  0
 12 30  1  0
 12 31  1  0
 13 32  1  0
 13 33  1  0
 14 34  1  0
 15 35  1  0
 36 37  1  0
 37 38  1  0
 38 39  1  0
 39 40  1  1
 39 41  1  0
 41 42  1  0
 42 43  1  6
 42 44  1  0
 44 45  1  0
 44 37  1  0
 36 46  1  0
 37 47  1  1
 38 48  1  1
 39 49  1  0
 42 50  1  0
 44 51  1  6
 45 52  1  0
 16 38  1  0
M  ISO  8  20   8  21   8  22  14  23  13  24  13  25  13  26  13  27   5
M  ISO  8  28  13  29  13  30  13  31  13  32   8  33   8  34  14  35  14
M  ISO  2  40   8  43   8
M  END
>  <DihAtoms>  (1) 
14,15,37,36

>  <DihDeg>  (1) 
118.8875136710891

$$$$
