
 OpenBabel03272500073D

 42 45  0  0  1  0  0  0  0  0999 V2000
   31.1890   27.5490   48.2890 C   0  0  0  0  0  0  0  0  0  0  0  0
   30.8030   27.7510   49.5990 C   0  0  0  0  0  0  0  0  0  0  0  0
   29.5260   28.1730   49.9060 C   0  0  0  0  0  0  0  0  0  0  0  0
   28.6210   28.3990   48.8800 C   0  0  0  0  0  0  0  0  0  0  0  0
   29.0190   28.1950   47.5820 C   0  0  0  0  0  0  0  0  0  0  0  0
   30.2810   27.7760   47.2850 C   0  0  0  0  0  0  0  0  0  0  0  0
   31.4770   27.5880   50.4470 H   0  0  0  0  0  0  0  0  0  0  0  0
   29.2470   28.3250   50.9460 H   0  0  0  0  0  0  0  0  0  0  0  0
   27.6360   28.7280   49.1550 H   0  0  0  0  0  0  0  0  0  0  0  0
   28.2710   28.3870   46.8260 H   0  0  0  0  0  0  0  0  0  0  0  0
   30.6330   26.0830   45.5020 C   0  0  2  0  0  3  0  0  0  0  0  0
   30.6640   27.5470   45.8960 C   0  0  1  0  0  3  0  0  0  0  0  0
   29.8710   28.3020   44.8630 C   0  0  0  0  0  3  0  0  0  0  0  0
   30.2840   29.3370   44.7800 H   0  0  0  0  0  0  0  0  0  0  0  0
   30.1190   27.7240   43.6150 O   0  0  0  0  0  0  0  0  0  0  0  0
   31.3860   27.2260   43.4690 C   0  0  0  0  0  3  0  0  0  0  0  0
   31.5090   27.0200   42.3720 H   0  0  0  0  0  0  0  0  0  0  0  0
   31.5270   25.9420   44.2860 C   0  0  2  0  0  3  0  0  0  0  0  0
   29.3180   25.7780   45.1520 O   0  0  0  0  0  0  0  0  0  0  0  0
   29.1180   24.8420   45.4200 H   0  0  0  0  0  0  0  0  0  0  0  0
   31.2420   24.8130   43.5580 O   0  0  0  0  0  0  0  0  0  0  0  0
   32.0670   24.2710   43.4840 H   0  0  0  0  0  0  0  0  0  0  0  0
   32.5060   27.1250   48.1400 O   0  0  0  0  0  0  0  0  0  0  0  0
   35.4740   28.8990   49.1360 C   0  0  0  0  0  0  0  0  0  0  0  0
   35.4130   30.0820   48.3990 C   0  0  0  0  0  0  0  0  0  0  0  0
   34.3100   30.2500   47.5420 C   0  0  0  0  0  0  0  0  0  0  0  0
   33.3830   29.2580   47.4890 N   0  0  0  0  0  0  0  0  0  0  0  0
   33.4680   28.1380   48.2060 C   0  0  0  0  0  0  0  0  0  0  0  0
   34.5280   27.9480   49.0460 N   0  0  0  0  0  0  0  0  0  0  0  0
   36.2980   28.6790   49.8320 H   0  0  0  0  0  0  0  0  0  0  0  0
   34.2580   31.1560   46.9740 H   0  0  0  0  0  0  0  0  0  0  0  0
   36.4480   31.0310   48.5490 N   0  0  0  0  0  0  0  0  0  0  0  0
   36.6190   31.7250   49.6710 C   0  0  0  0  0  0  0  0  0  0  0  0
   37.6540   32.6510   49.7580 C   0  0  0  0  0  0  0  0  0  0  0  0
   38.4330   32.7660   48.6330 C   0  0  0  0  0  0  0  0  0  0  0  0
   39.3710   33.6040   48.7070 O   0  0  0  0  0  0  0  0  0  0  0  0
   38.2910   32.0920   47.5010 N   0  0  0  0  0  0  0  0  0  0  0  0
   37.2660   31.1970   47.4580 C   0  0  0  0  0  0  0  0  0  0  0  0
   37.1180   30.5430   46.3760 O   0  0  0  0  0  0  0  0  0  0  0  0
   35.9760   31.5950   50.5260 H   0  0  0  0  0  0  0  0  0  0  0  0
   37.7990   33.2180   50.6680 H   0  0  0  0  0  0  0  0  0  0  0  0
   38.9140   32.2240   46.6840 H   0  0  0  0  0  0  0  0  0  0  0  0
  1  2  1  0  0  0  0
  2  3  2  0  0  0  0
  2  7  1  0  0  0  0
  3  8  1  0  0  0  0
  4  9  1  0  0  0  0
  4  3  1  0  0  0  0
  5  4  2  0  0  0  0
  6  5  1  0  0  0  0
  6  1  2  0  0  0  0
 10  5  1  0  0  0  0
 11 19  1  6  0  0  0
 11 12  1  0  0  0  0
 12  6  1  1  0  0  0
 13 12  1  0  0  0  0
 14 13  1  0  0  0  0
 15 13  1  0  0  0  0
 16 15  1  0  0  0  0
 16 18  1  0  0  0  0
 17 16  1  0  0  0  0
 18 21  1  6  0  0  0
 18 11  1  0  0  0  0
 19 20  1  0  0  0  0
 22 21  1  0  0  0  0
 23 28  1  0  0  0  0
 23  1  1  0  0  0  0
 24 30  1  0  0  0  0
 25 32  1  0  0  0  0
 25 24  2  0  0  0  0
 26 25  1  0  0  0  0
 27 26  2  0  0  0  0
 27 28  1  0  0  0  0
 28 29  2  0  0  0  0
 29 24  1  0  0  0  0
 31 26  1  0  0  0  0
 32 33  1  0  0  0  0
 33 34  2  0  0  0  0
 33 40  1  0  0  0  0
 34 41  1  0  0  0  0
 35 36  2  0  0  0  0
 35 34  1  0  0  0  0
 37 35  1  0  0  0  0
 38 37  1  0  0  0  0
 38 32  1  0  0  0  0
 39 38  2  0  0  0  0
 42 37  1  0  0  0  0
M  END
>  <minimizedAffinity>
-5.89213943

>  <minimizedRMSD>
0.135529697

$$$$
