
 OpenBabel03262521233D

 50 53  0  0  1  0  0  0  0  0999 V2000
   40.3880   25.2560   53.3780 C   0  0  0  0  0  0  0  0  0  0  0  0
   39.7720   26.0720   52.4280 C   0  0  0  0  0  0  0  0  0  0  0  0
   40.0990   25.7970   51.0910 C   0  0  0  0  0  0  0  0  0  0  0  0
   40.9500   24.8130   50.7110 C   0  0  0  0  0  0  0  0  0  0  0  0
   41.4290   24.3380   49.5830 N   0  0  0  0  0  0  0  0  0  0  0  0
   42.2890   23.2950   49.7670 C   0  0  0  0  0  0  0  0  0  0  0  0
   42.3510   23.1050   51.1330 C   0  0  0  0  0  0  0  0  0  0  0  0
   41.5240   24.0450   51.6910 C   0  0  0  0  0  0  0  0  0  0  0  0
   41.2620   24.2430   53.0270 C   0  0  0  0  0  0  0  0  0  0  0  0
   40.1160   25.4950   54.3860 H   0  0  0  0  0  0  0  0  0  0  0  0
   39.6610   26.3880   50.2870 H   0  0  0  0  0  0  0  0  0  0  0  0
   41.1990   24.6950   48.6140 H   0  0  0  0  0  0  0  0  0  0  0  0
   42.7980   22.7560   48.9740 H   0  0  0  0  0  0  0  0  0  0  0  0
   42.9540   22.3450   51.6170 H   0  0  0  0  0  0  0  0  0  0  0  0
   40.7460   22.6420   54.7530 C   0  0  2  0  0  3  0  0  0  0  0  0
   41.8810   23.4140   54.0790 C   0  0  2  0  0  3  0  0  0  0  0  0
   42.6420   24.1450   55.1180 C   0  0  0  0  0  3  0  0  0  0  0  0
   42.0600   24.9400   55.6290 H   0  0  0  0  0  0  0  0  0  0  0  0
   43.0390   23.2690   56.0910 O   0  0  0  0  0  0  0  0  0  0  0  0
   42.8330   21.9390   55.8470 C   0  0  0  0  0  3  0  0  0  0  0  0
   43.5760   21.4960   55.1210 H   0  0  0  0  0  0  0  0  0  0  0  0
   41.4350   21.5360   55.5160 C   0  0  1  0  0  3  0  0  0  0  0  0
   39.8410   22.1950   53.8180 O   0  0  0  0  0  0  0  0  0  0  0  0
   39.5860   21.2590   54.0150 H   0  0  0  0  0  0  0  0  0  0  0  0
   40.6550   21.2040   56.5970 O   0  0  0  0  0  0  0  0  0  0  0  0
   39.7110   21.2740   56.2980 H   0  0  0  0  0  0  0  0  0  0  0  0
   38.6380   27.4010   52.7080 S   0  0  0  0  0  0  0  0  0  0  0  0
   38.1200   28.2440   51.2240 C   0  0  0  0  0  0  0  0  0  0  0  0
   39.0190   28.6850   50.7440 H   0  0  0  0  0  0  0  0  0  0  0  0
   37.7510   27.4690   50.4900 H   0  0  0  0  0  0  0  0  0  0  0  0
   37.1140   29.3440   51.4500 C   0  0  0  0  0  0  0  0  0  0  0  0
   36.9920   29.3880   52.5750 H   0  0  0  0  0  0  0  0  0  0  0  0
   36.1310   28.9420   51.1220 H   0  0  0  0  0  0  0  0  0  0  0  0
   37.4740   30.5440   50.9240 C   0  0  0  0  0  0  0  0  0  0  0  0
   38.4920   30.9130   51.2190 H   0  0  0  0  0  0  0  0  0  0  0  0
   36.7790   31.3920   51.1060 H   0  0  0  0  0  0  0  0  0  0  0  0
   37.4840   30.1840   49.6030 O   0  0  0  0  0  0  0  0  0  0  0  0
   38.0950   31.0220   48.7020 C   0  0  0  0  0  0  0  0  0  0  0  0
   38.3810   32.2570   49.2290 C   0  0  0  0  0  0  0  0  0  0  0  0
   39.0080   33.2120   48.4120 C   0  0  0  0  0  0  0  0  0  0  0  0
   39.2980   32.8520   47.1320 N   0  0  0  0  0  0  0  0  0  0  0  0
   38.9990   31.6090   46.6340 C   0  0  0  0  0  0  0  0  0  0  0  0
   38.4030   30.7290   47.4430 N   0  0  0  0  0  0  0  0  0  0  0  0
   39.9290   32.4310   44.5860 C   0  0  0  0  0  0  0  0  0  0  0  0
   40.1520   33.5840   45.0660 O   0  0  0  0  0  0  0  0  0  0  0  0
   39.3470   31.3390   45.2820 N   0  0  0  0  0  0  0  0  0  0  0  0
   38.2050   32.6730   50.2230 H   0  0  0  0  0  0  0  0  0  0  0  0
   39.2730   34.2000   48.7220 H   0  0  0  0  0  0  0  0  0  0  0  0
   40.2100   32.2650   43.5460 H   0  0  0  0  0  0  0  0  0  0  0  0
   39.1570   30.3860   44.9000 H   0  0  0  0  0  0  0  0  0  0  0  0
  1 10  1  0  0  0  0
  2 27  1  0  0  0  0
  2  1  2  0  0  0  0
  3  2  1  0  0  0  0
  4  3  2  0  0  0  0
  4  8  1  0  0  0  0
  5  6  1  0  0  0  0
  5  4  1  0  0  0  0
  6  7  2  0  0  0  0
  7 14  1  0  0  0  0
  7  8  1  0  0  0  0
  8  9  2  0  0  0  0
  9  1  1  0  0  0  0
 11  3  1  0  0  0  0
 12  5  1  0  0  0  0
 13  6  1  0  0  0  0
 15 23  1  6  0  0  0
 15 22  1  0  0  0  0
 16  9  1  6  0  0  0
 16 15  1  0  0  0  0
 16 17  1  0  0  0  0
 17 18  1  0  0  0  0
 17 19  1  0  0  0  0
 20 19  1  0  0  0  0
 21 20  1  0  0  0  0
 22 20  1  0  0  0  0
 22 25  1  1  0  0  0
 23 24  1  0  0  0  0
 26 25  1  0  0  0  0
 28 31  1  0  0  0  0
 28 27  1  0  0  0  0
 29 28  1  0  0  0  0
 30 28  1  0  0  0  0
 31 32  1  0  0  0  0
 33 31  1  0  0  0  0
 34 36  1  0  0  0  0
 34 35  1  0  0  0  0
 34 31  1  0  0  0  0
 37 34  1  0  0  0  0
 38 39  1  0  0  0  0
 38 37  1  0  0  0  0
 39 47  1  0  0  0  0
 40 48  1  0  0  0  0
 40 39  2  0  0  0  0
 41 40  1  0  0  0  0
 42 41  2  0  0  0  0
 42 43  1  0  0  0  0
 43 38  2  0  0  0  0
 44 45  2  0  0  0  0
 44 46  1  0  0  0  0
 46 42  1  0  0  0  0
 49 44  1  0  0  0  0
 50 46  1  0  0  0  0
M  END
>  <minimizedAffinity>
-4.48555422

>  <minimizedRMSD>
0.409831643

$$$$
