
     RDKit          3D

 47 50  0  0  0  0  0  0  0  0999 V2000
   34.3283   30.4539   47.6050 F   0  0  0  0  0  0  0  0  0  0  0  0
   34.7468   29.9840   46.3854 C   0  0  0  0  0  0  0  0  0  0  0  0
   33.8814   29.3594   45.5005 C   0  0  0  0  0  0  0  0  0  0  0  0
   34.3695   28.9307   44.2850 C   0  0  0  0  0  0  0  0  0  0  0  0
   35.7136   29.1219   43.9484 C   0  0  0  0  0  0  0  0  0  0  0  0
   36.5211   29.7501   44.8754 C   0  0  0  0  0  0  0  0  0  0  0  0
   36.0897   30.1840   46.0724 C   0  0  0  0  0  0  0  0  0  0  0  0
   37.9724   32.4300   44.9688 Br  0  0  0  0  0  0  0  0  0  0  0  0
   37.8818   31.8450   46.7798 C   0  0  0  0  0  0  0  0  0  0  0  0
   36.9942   30.8238   47.0073 C   0  0  0  0  0  0  0  0  0  0  0  0
   36.9013   30.3126   48.3150 C   0  0  0  0  0  0  0  0  0  0  0  0
   37.6672   30.8187   49.3161 C   0  0  0  0  0  0  0  0  0  0  0  0
   38.5415   31.8480   49.0268 C   0  0  0  0  0  0  0  0  0  0  0  0
   38.6616   32.3821   47.7379 C   0  0  0  0  0  0  0  0  0  0  0  0
   39.4904   33.3935   47.3640 O   0  0  0  0  0  0  0  0  0  0  0  0
   32.2559   28.2032   46.8466 C   0  0  0  0  0  0  0  0  0  0  0  0
   32.5289   29.2256   45.9654 C   0  0  0  0  0  0  0  0  0  0  0  0
   31.4798   30.0718   45.5952 C   0  0  0  0  0  0  0  0  0  0  0  0
   30.2402   29.8620   46.1111 N   0  0  0  0  0  0  0  0  0  0  0  0
   30.0171   28.8643   46.9601 C   0  0  0  0  0  0  0  0  0  0  0  0
   30.9922   28.0473   47.3268 N   0  0  0  0  0  0  0  0  0  0  0  0
   33.6641   28.4560   43.6396 H   0  0  0  0  0  0  0  0  0  0  0  0
   36.0599   28.7769   42.9947 H   0  0  0  0  0  0  0  0  0  0  0  0
   37.5438   29.8597   44.5407 H   0  0  0  0  0  0  0  0  0  0  0  0
   36.2296   29.5082   48.5824 H   0  0  0  0  0  0  0  0  0  0  0  0
   37.6309   30.4582   50.3358 H   0  0  0  0  0  0  0  0  0  0  0  0
   39.1707   32.2829   49.7919 H   0  0  0  0  0  0  0  0  0  0  0  0
   40.3404   33.6769   47.8323 H   0  0  0  0  0  0  0  0  0  0  0  0
   32.9984   27.4858   47.2006 H   0  0  0  0  0  0  0  0  0  0  0  0
   31.7170   30.8586   44.9081 H   0  0  0  0  0  0  0  0  0  0  0  0
   27.8437   29.6142   45.5700 O   0  0  0  0  0  0  0  0  0  0  0  0
   27.5637   28.6455   46.5011 C   0  0  1  0  0  0  0  0  0  0  0  0
   28.6685   28.6186   47.5363 C   0  0  1  0  0  0  0  0  0  0  0  0
   28.5827   27.2647   48.2055 C   0  0  1  0  0  0  0  0  0  0  0  0
   29.0833   26.4602   47.6289 H   0  0  0  0  0  0  0  0  0  0  0  0
   27.2405   26.9859   48.3675 O   0  0  0  0  0  0  0  0  0  0  0  0
   26.4434   28.1012   48.5630 C   0  0  1  0  0  0  0  0  0  0  0  0
   25.4244   27.7158   48.7922 H   0  0  0  0  0  0  0  0  0  0  0  0
   26.2635   28.9075   47.2703 C   0  0  1  0  0  0  0  0  0  0  0  0
   26.2575   30.2805   47.5232 O   0  0  0  0  0  0  0  0  0  0  0  0
   28.2940   29.2284   44.7577 H   0  0  0  0  0  0  0  0  0  0  0  0
   27.4854   27.6379   45.9986 H   0  0  0  0  0  0  0  0  0  0  0  0
   28.3960   29.3558   48.3307 H   0  0  0  0  0  0  0  0  0  0  0  0
   29.0819   27.3947   49.2100 H   0  0  0  0  0  0  0  0  0  0  0  0
   26.7339   28.7438   49.3990 H   0  0  0  0  0  0  0  0  0  0  0  0
   25.3991   28.5652   46.6821 H   0  0  0  0  0  0  0  0  0  0  0  0
   26.8562   30.7809   46.9027 H   0  0  0  0  0  0  0  0  0  0  0  0
  2  1  1  0
  3 17  1  0
  3  2  2  0
  4  3  1  0
  5  4  2  0
  5  6  1  0
  6  7  2  0
  7  2  1  0
  7 10  1  0
  8  9  1  0
  9 10  2  0
  9 14  1  0
 10 11  1  0
 11 12  2  0
 13 12  1  0
 14 13  2  0
 15 14  1  0
 16 21  2  0
 17 16  1  0
 18 17  2  0
 18 19  1  0
 19 20  2  0
 20 21  1  0
  4 22  1  0
  5 23  1  0
  6 24  1  0
 11 25  1  0
 12 26  1  0
 13 27  1  0
 15 28  1  0
 16 29  1  0
 18 30  1  0
 31 32  1  0
 32 33  1  0
 33 34  1  0
 34 35  1  6
 34 36  1  0
 36 37  1  0
 37 38  1  1
 37 39  1  0
 39 40  1  0
 39 32  1  0
 31 41  1  0
 32 42  1  6
 33 43  1  1
 34 44  1  0
 37 45  1  0
 39 46  1  6
 40 47  1  0
 20 33  1  0
M  ISO  8  22  14  23  14  24  14  25  14  26  14  27  14  28   3  29  14
M  ISO  3  30  14  35   8  38   8
M  END
>  <DihAtoms>  (1) 
18,19,32,31

>  <DihDeg>  (1) 
-57.99915323627896

$$$$
