REMARK  Name = 
REMARK  9 active torsions:
REMARK  status: ('A' for Active; 'I' for Inactive)
REMARK    1  A    between atoms: O_1  and  P_2
REMARK    2  A    between atoms: P_2  and  O_4
REMARK    3  A    between atoms: P_2  and  O_11
REMARK    4  A    between atoms: O_4  and  C_9
REMARK    5  A    between atoms: O_11  and  C_13
REMARK    6  A    between atoms: C_12  and  O_17
REMARK    7  A    between atoms: O_17  and  C_32
REMARK    8  A    between atoms: O_30  and  C_31
REMARK    9  A    between atoms: C_38  and  O_39
REMARK                            x       y       z     vdW  Elec       q    Type
REMARK                         _______ _______ _______ _____ _____    ______ ____
ROOT
ATOM      1  C   UNL     1      32.611  30.324  45.892  0.00  0.00    +0.000 C 
ATOM      2  C   UNL     1      33.188  29.090  46.556  0.00  0.00    +0.000 C 
ATOM      3  C   UNL     1      32.934  28.020  45.523  0.00  0.00    +0.000 C 
ATOM      4  O   UNL     1      33.195  28.701  44.335  0.00  0.00    +0.000 OA
ATOM      5  C   UNL     1      32.383  29.831  44.477  0.00  0.00    +0.000 C 
ATOM      6  H   UNL     1      31.649  30.534  46.412  0.00  0.00    +0.000 HD
ATOM      7  H   UNL     1      34.262  29.131  46.736  0.00  0.00    +0.000 HD
ATOM      8  H   UNL     1      33.657  27.198  45.569  0.00  0.00    +0.000 HD
ATOM      9  H   UNL     1      31.883  27.679  45.537  0.00  0.00    +0.000 HD
ATOM     10  H   UNL     1      31.334  29.464  44.399  0.00  0.00    +0.000 HD
ATOM     11  H   UNL     1      32.679  30.545  43.701  0.00  0.00    +0.000 HD
ENDROOT
BRANCH   2  12
ATOM     12  O   UNL     1      32.569  28.818  47.766  0.00  0.00    +0.000 OA
BRANCH  12  13
ATOM     13  P   UNL     1      33.642  28.616  49.092  0.00  0.00    +0.000 P 
BRANCH  13  14
ATOM     14  O   UNL     1      33.285  27.235  50.068  0.00  0.00    +0.000 OA
ATOM     15  H   UNL     1      32.862  26.556  49.486  0.00  0.00    +0.000 HD
ENDBRANCH  13  14
BRANCH  13  16
ATOM     16  O   UNL     1      35.322  28.719  48.634  0.00  0.00    +0.000 OA
BRANCH  16  21
ATOM     17  C   UNL     1      36.858  30.491  51.284  0.00  0.00    +0.000 A 
ATOM     18  C   UNL     1      38.196  30.568  50.908  0.00  0.00    +0.000 A 
ATOM     19  C   UNL     1      38.497  29.969  49.699  0.00  0.00    +0.000 A 
ATOM     20  N   UNL     1      37.605  29.347  48.903  0.00  0.00    +0.000 NA
ATOM     21  C   UNL     1      36.317  29.322  49.354  0.00  0.00    +0.000 A 
ATOM     22  N   UNL     1      35.934  29.878  50.519  0.00  0.00    +0.000 NA
ATOM     23  H   UNL     1      36.573  30.951  52.234  0.00  0.00    +0.000 HD
ATOM     24  H   UNL     1      38.950  31.056  51.511  0.00  0.00    +0.000 HD
ATOM     25  H   UNL     1      39.556  30.039  49.417  0.00  0.00    +0.000 HD
ENDBRANCH  16  21
ENDBRANCH  13  16
ENDBRANCH  12  13
ENDBRANCH   2  12
BRANCH   1  26
ATOM     26  O   UNL     1      33.527  31.322  45.978  0.00  0.00    +0.000 OA
BRANCH  26  28
ATOM     27  C   UNL     1      32.645  33.467  45.684  0.00  0.00    +0.000 C 
ATOM     28  C   UNL     1      33.198  32.457  46.663  0.00  0.00    +0.000 C 
ATOM     29  C   UNL     1      32.190  32.281  47.752  0.00  0.00    +0.000 C 
ATOM     30  H   UNL     1      32.386  31.453  48.456  0.00  0.00    +0.000 HD
ATOM     31  O   UNL     1      30.892  32.081  47.285  0.00  0.00    +0.000 OA
ATOM     32  C   UNL     1      30.400  33.169  46.605  0.00  0.00    +0.000 C 
ATOM     33  H   UNL     1      29.622  33.630  47.269  0.00  0.00    +0.000 HD
ATOM     34  C   UNL     1      31.441  34.180  46.255  0.00  0.00    +0.000 C 
BRANCH  27  35
ATOM     35  O   UNL     1      33.646  34.352  45.336  0.00  0.00    +0.000 OA
ATOM     36  H   UNL     1      34.219  34.612  46.098  0.00  0.00    +0.000 HD
ENDBRANCH  27  35
BRANCH  34  37
ATOM     37  O   UNL     1      30.948  35.021  45.246  0.00  0.00    +0.000 OA
ATOM     38  H   UNL     1      30.232  34.540  44.788  0.00  0.00    +0.000 HD
ENDBRANCH  34  37
ENDBRANCH  26  28
ENDBRANCH   1  26
TORSDOF 9
REMARK  Name = 
REMARK  9 active torsions:
REMARK  status: ('A' for Active; 'I' for Inactive)
REMARK    1  A    between atoms: O_1  and  P_2
REMARK    2  A    between atoms: P_2  and  O_4
REMARK    3  A    between atoms: P_2  and  O_11
REMARK    4  A    between atoms: O_4  and  C_9
REMARK    5  A    between atoms: O_11  and  C_13
REMARK    6  A    between atoms: C_12  and  O_17
REMARK    7  A    between atoms: O_17  and  C_32
REMARK    8  A    between atoms: O_30  and  C_31
REMARK    9  A    between atoms: C_38  and  O_39
REMARK                            x       y       z     vdW  Elec       q    Type
REMARK                         _______ _______ _______ _____ _____    ______ ____
ROOT
ATOM      1  O   HOH     1      34.220  30.801  47.386  0.00  0.00    +0.000 OA
ATOM      2  H   HOH     0      34.205  31.779  47.447  0.00  0.00    +0.000 HD
ATOM      3  H   HOH     0      34.755  30.487  48.166  0.00  0.00    +0.000 HD
ENDROOT
TORSDOF 0
