
 OpenBabel03272502303D

 27 28  0  0  1  0  0  0  0  0999 V2000
   39.4590   32.6700   46.6950 C   0  0  0  0  0  0  0  0  0  0  0  0
   40.3980   32.0700   46.5990 H   0  0  0  0  0  0  0  0  0  0  0  0
   39.6540   33.7460   46.8280 H   0  0  0  0  0  0  0  0  0  0  0  0
   38.1590   30.9420   47.8720 C   0  0  0  0  0  3  0  0  0  0  0  0
   38.7830   32.1120   47.8970 C   0  0  0  0  0  3  0  0  0  0  0  0
   37.3310   30.2060   51.4150 C   0  0  0  0  0  0  0  0  0  0  0  0
   37.9770   30.7390   50.2870 C   0  0  0  0  0  0  0  0  0  0  0  0
   37.5110   30.4090   49.0320 C   0  0  0  0  0  0  0  0  0  0  0  0
   36.4410   29.5790   48.9140 N   0  0  0  0  0  0  0  0  0  0  0  0
   35.8390   29.0810   50.0110 C   0  0  0  0  0  0  0  0  0  0  0  0
   36.2710   29.3840   51.2570 N   0  0  0  0  0  0  0  0  0  0  0  0
   37.6490   30.4260   52.4190 H   0  0  0  0  0  0  0  0  0  0  0  0
   38.8210   31.3900   50.4540 H   0  0  0  0  0  0  0  0  0  0  0  0
   34.9910   28.4270   49.8270 H   0  0  0  0  0  0  0  0  0  0  0  0
   38.4530   32.3340   45.2180 S   0  0  0  0  0  0  0  0  0  0  0  0
   38.5150   30.0880   43.6100 C   0  0  2  0  0  3  0  0  0  0  0  0
   39.3720   31.2230   44.1400 C   0  0  1  0  0  3  0  0  0  0  0  0
   39.8750   31.9610   42.9090 C   0  0  0  0  0  3  0  0  0  0  0  0
   38.9550   32.4450   42.4680 H   0  0  0  0  0  0  0  0  0  0  0  0
   40.3620   31.1030   41.9490 O   0  0  0  0  0  0  0  0  0  0  0  0
   40.6910   29.8510   42.4280 C   0  0  0  0  0  3  0  0  0  0  0  0
   41.0170   29.2550   41.5280 H   0  0  0  0  0  0  0  0  0  0  0  0
   39.5110   29.0950   43.0100 C   0  0  2  0  0  3  0  0  0  0  0  0
   37.7480   30.5690   42.5390 O   0  0  0  0  0  0  0  0  0  0  0  0
   36.8040   30.2790   42.6390 H   0  0  0  0  0  0  0  0  0  0  0  0
   38.8690   28.3010   42.0600 O   0  0  0  0  0  0  0  0  0  0  0  0
   39.0690   28.6070   41.1390 H   0  0  0  0  0  0  0  0  0  0  0  0
  1  3  1  0  0  0  0
  1  5  1  0  0  0  0
  2  1  1  0  0  0  0
  4  5  2  0  0  0  0
  4  8  1  0  0  0  0
  6 12  1  0  0  0  0
  7 13  1  0  0  0  0
  7  6  2  0  0  0  0
  8  7  1  0  0  0  0
  9  8  2  0  0  0  0
  9 10  1  0  0  0  0
 10 11  2  0  0  0  0
 11  6  1  0  0  0  0
 14 10  1  0  0  0  0
 15  1  1  0  0  0  0
 16 24  1  6  0  0  0
 16 17  1  0  0  0  0
 17 15  1  1  0  0  0
 18 17  1  0  0  0  0
 19 18  1  0  0  0  0
 20 21  1  0  0  0  0
 20 18  1  0  0  0  0
 21 23  1  0  0  0  0
 22 21  1  0  0  0  0
 23 26  1  6  0  0  0
 23 16  1  0  0  0  0
 24 25  1  0  0  0  0
 27 26  1  0  0  0  0
M  END
>  <minimizedAffinity>
-5.11726046

>  <minimizedRMSD>
2.35419083

$$$$
