
     RDKit          3D

 32 33  0  0  0  0  0  0  0  0999 V2000
   35.6445   30.4770   49.7440 C   0  0  0  0  0  0  0  0  0  0  0  0
   35.9696   29.4824   50.6757 C   0  0  0  0  0  0  0  0  0  0  0  0
   37.2273   29.5155   51.2562 C   0  0  0  0  0  0  0  0  0  0  0  0
   38.1008   30.4923   50.9161 N   0  0  0  0  0  0  0  0  0  0  0  0
   37.7570   31.4542   50.0007 C   0  0  0  0  0  0  0  0  0  0  0  0
   36.5283   31.4391   49.4202 N   0  0  0  0  0  0  0  0  0  0  0  0
   34.4339   30.5829   49.0779 O   0  0  0  0  0  0  0  0  0  0  0  0
   35.4992   30.1610   46.6404 O   0  0  0  0  0  0  0  0  0  0  0  0
   34.2277   30.0136   47.4662 P   0  0  0  0  0  0  0  0  0  0  0  0
   33.7612   28.3906   47.5777 O   0  0  0  0  0  0  0  0  0  0  0  0
   33.0523   30.9415   46.6819 O   0  0  0  0  0  0  0  0  0  0  0  0
   35.2079   28.7470   50.8817 H   0  0  0  0  0  0  0  0  0  0  0  0
   38.4543   32.2406   49.7240 H   0  0  0  0  0  0  0  0  0  0  0  0
   34.6303   27.8784   47.6122 H   0  0  0  0  0  0  0  0  0  0  0  0
   33.1771   30.8973   45.6963 H   0  0  0  0  0  0  0  0  0  0  0  0
   39.3980   27.5113   51.0335 O   0  0  0  0  0  0  0  0  0  0  0  0
   38.1365   27.2256   51.5541 C   0  0  2  0  0  0  0  0  0  0  0  0
   37.5865   28.4891   52.2293 C   0  0  1  0  0  0  0  0  0  0  0  0
   38.5801   28.8936   53.2671 C   0  0  1  0  0  0  0  0  0  0  0  0
   38.9204   29.9470   53.1413 H   0  0  0  0  0  0  0  0  0  0  0  0
   39.7425   28.1228   53.2674 O   0  0  0  0  0  0  0  0  0  0  0  0
   39.5203   26.7752   53.4820 C   0  0  1  0  0  0  0  0  0  0  0  0
   40.4104   26.2372   53.0866 H   0  0  0  0  0  0  0  0  0  0  0  0
   38.3385   26.2555   52.7017 C   0  0  2  0  0  0  0  0  0  0  0  0
   38.4531   24.9515   52.2862 O   0  0  0  0  0  0  0  0  0  0  0  0
   39.4615   27.3688   50.0538 H   0  0  0  0  0  0  0  0  0  0  0  0
   37.4275   26.8525   50.7904 H   0  0  0  0  0  0  0  0  0  0  0  0
   36.6700   28.1492   52.7653 H   0  0  0  0  0  0  0  0  0  0  0  0
   38.1597   28.8660   54.3125 H   0  0  0  0  0  0  0  0  0  0  0  0
   39.4166   26.4825   54.5332 H   0  0  0  0  0  0  0  0  0  0  0  0
   37.4381   26.3587   53.3695 H   0  0  0  0  0  0  0  0  0  0  0  0
   37.5104   24.6000   52.2149 H   0  0  0  0  0  0  0  0  0  0  0  0
  1  2  2  0
  2  3  1  0
  4  3  2  0
  5  4  1  0
  6  1  1  0
  6  5  2  0
  7  1  1  0
  8  9  2  0
  9 10  1  0
  9  7  1  0
 11  9  1  0
  2 12  1  0
  5 13  1  0
 10 14  1  0
 11 15  1  0
 16 17  1  0
 17 18  1  0
 18 19  1  0
 19 20  1  6
 19 21  1  0
 21 22  1  0
 22 23  1  6
 22 24  1  0
 24 25  1  0
 24 17  1  0
 16 26  1  0
 17 27  1  6
 18 28  1  1
 19 29  1  0
 22 30  1  0
 24 31  1  1
 25 32  1  0
  3 18  1  0
M  ISO  6  12  14  13  14  14   3  15   3  20   8  23   8
M  END
>  <DihAtoms>  (1) 
1,2,17,16

>  <DihDeg>  (1) 
115.72620298707838

$$$$
