
 OpenBabel03272500073D

 42 45  0  0  1  0  0  0  0  0999 V2000
   31.0350   27.3690   48.3400 C   0  0  0  0  0  0  0  0  0  0  0  0
   30.7500   27.7860   49.6240 C   0  0  0  0  0  0  0  0  0  0  0  0
   29.4880   28.2290   49.9630 C   0  0  0  0  0  0  0  0  0  0  0  0
   28.4960   28.2580   48.9950 C   0  0  0  0  0  0  0  0  0  0  0  0
   28.7950   27.8410   47.7210 C   0  0  0  0  0  0  0  0  0  0  0  0
   30.0420   27.4030   47.3930 C   0  0  0  0  0  0  0  0  0  0  0  0
   31.4950   27.7840   50.4280 H   0  0  0  0  0  0  0  0  0  0  0  0
   29.2890   28.5520   50.9830 H   0  0  0  0  0  0  0  0  0  0  0  0
   27.5260   28.6100   49.2930 H   0  0  0  0  0  0  0  0  0  0  0  0
   27.9820   27.8860   47.0110 H   0  0  0  0  0  0  0  0  0  0  0  0
   30.2100   25.4420   45.8780 C   0  0  2  0  0  3  0  0  0  0  0  0
   30.3190   26.9460   46.0360 C   0  0  1  0  0  3  0  0  0  0  0  0
   29.4830   27.5680   44.9490 C   0  0  0  0  0  3  0  0  0  0  0  0
   29.9260   28.5590   44.6800 H   0  0  0  0  0  0  0  0  0  0  0  0
   29.6230   26.7940   43.7940 O   0  0  0  0  0  0  0  0  0  0  0  0
   30.8590   26.2230   43.6480 C   0  0  0  0  0  3  0  0  0  0  0  0
   30.8990   25.8470   42.5910 H   0  0  0  0  0  0  0  0  0  0  0  0
   31.0120   25.0750   44.6460 C   0  0  2  0  0  3  0  0  0  0  0  0
   28.8650   25.1450   45.6640 O   0  0  0  0  0  0  0  0  0  0  0  0
   28.6510   24.2730   46.0880 H   0  0  0  0  0  0  0  0  0  0  0  0
   30.6390   23.8620   44.1230 O   0  0  0  0  0  0  0  0  0  0  0  0
   31.4370   23.2780   44.0830 H   0  0  0  0  0  0  0  0  0  0  0  0
   32.3500   26.9520   48.1530 O   0  0  0  0  0  0  0  0  0  0  0  0
   35.3080   28.7430   49.1440 C   0  0  0  0  0  0  0  0  0  0  0  0
   35.2510   29.9150   48.3890 C   0  0  0  0  0  0  0  0  0  0  0  0
   34.1540   30.0700   47.5220 C   0  0  0  0  0  0  0  0  0  0  0  0
   33.2280   29.0760   47.4770 N   0  0  0  0  0  0  0  0  0  0  0  0
   33.3100   27.9670   48.2110 C   0  0  0  0  0  0  0  0  0  0  0  0
   34.3640   27.7900   49.0610 N   0  0  0  0  0  0  0  0  0  0  0  0
   36.1270   28.5340   49.8480 H   0  0  0  0  0  0  0  0  0  0  0  0
   34.1050   30.9670   46.9410 H   0  0  0  0  0  0  0  0  0  0  0  0
   36.2840   30.8680   48.5330 N   0  0  0  0  0  0  0  0  0  0  0  0
   36.4890   31.5280   49.6690 C   0  0  0  0  0  0  0  0  0  0  0  0
   37.5210   32.4590   49.7480 C   0  0  0  0  0  0  0  0  0  0  0  0
   38.2590   32.6150   48.6020 C   0  0  0  0  0  0  0  0  0  0  0  0
   39.1930   33.4580   48.6680 O   0  0  0  0  0  0  0  0  0  0  0  0
   38.0820   31.9750   47.4550 N   0  0  0  0  0  0  0  0  0  0  0  0
   37.0630   31.0740   47.4200 C   0  0  0  0  0  0  0  0  0  0  0  0
   36.8820   30.4520   46.3240 O   0  0  0  0  0  0  0  0  0  0  0  0
   35.8780   31.3660   50.5410 H   0  0  0  0  0  0  0  0  0  0  0  0
   37.6940   32.9990   50.6700 H   0  0  0  0  0  0  0  0  0  0  0  0
   38.6750   32.1370   46.6210 H   0  0  0  0  0  0  0  0  0  0  0  0
  1  2  1  0  0  0  0
  2  3  2  0  0  0  0
  2  7  1  0  0  0  0
  3  8  1  0  0  0  0
  4  9  1  0  0  0  0
  4  3  1  0  0  0  0
  5  4  2  0  0  0  0
  6  5  1  0  0  0  0
  6  1  2  0  0  0  0
 10  5  1  0  0  0  0
 11 19  1  6  0  0  0
 11 12  1  0  0  0  0
 12  6  1  1  0  0  0
 13 12  1  0  0  0  0
 14 13  1  0  0  0  0
 15 13  1  0  0  0  0
 16 15  1  0  0  0  0
 16 18  1  0  0  0  0
 17 16  1  0  0  0  0
 18 21  1  6  0  0  0
 18 11  1  0  0  0  0
 19 20  1  0  0  0  0
 22 21  1  0  0  0  0
 23 28  1  0  0  0  0
 23  1  1  0  0  0  0
 24 30  1  0  0  0  0
 25 32  1  0  0  0  0
 25 24  2  0  0  0  0
 26 25  1  0  0  0  0
 27 26  2  0  0  0  0
 27 28  1  0  0  0  0
 28 29  2  0  0  0  0
 29 24  1  0  0  0  0
 31 26  1  0  0  0  0
 32 33  1  0  0  0  0
 33 34  2  0  0  0  0
 33 40  1  0  0  0  0
 34 41  1  0  0  0  0
 35 36  2  0  0  0  0
 35 34  1  0  0  0  0
 37 35  1  0  0  0  0
 38 37  1  0  0  0  0
 38 32  1  0  0  0  0
 39 38  2  0  0  0  0
 42 37  1  0  0  0  0
M  END
>  <minimizedAffinity>
-5.89983559

>  <minimizedRMSD>
1.4660939

$$$$
