
 OpenBabel03272509423D

 41 43  0  0  1  0  0  0  0  0999 V2000
   37.0300   30.9160   49.0800 C   0  0  0  0  0  0  0  0  0  0  0  0
   36.7280   31.8180   50.1030 C   0  0  0  0  0  0  0  0  0  0  0  0
   37.3050   33.0760   50.1620 C   0  0  0  0  0  0  0  0  0  0  0  0
   38.2150   33.4630   49.1720 C   0  0  0  0  0  0  0  0  0  0  0  0
   38.5020   32.5720   48.1770 C   0  0  0  0  0  0  0  0  0  0  0  0
   37.9050   31.3190   48.1520 C   0  0  0  0  0  0  0  0  0  0  0  0
   36.0210   31.5210   50.8740 H   0  0  0  0  0  0  0  0  0  0  0  0
   37.0190   33.7020   50.9760 H   0  0  0  0  0  0  0  0  0  0  0  0
   38.6110   34.4520   49.2960 H   0  0  0  0  0  0  0  0  0  0  0  0
   39.2230   33.0120   47.4880 H   0  0  0  0  0  0  0  0  0  0  0  0
   36.4550   29.5900   49.0370 C   0  0  2  0  0  0  0  0  0  0  0  0
   36.9540   29.0710   48.1310 H   0  0  0  0  0  0  0  0  0  0  0  0
   33.5930   29.9350   46.8250 C   0  0  0  0  0  0  0  0  0  0  0  0
   32.8470   28.7970   47.0610 C   0  0  0  0  0  0  0  0  0  0  0  0
   33.2880   27.9200   48.0360 C   0  0  0  0  0  0  0  0  0  0  0  0
   34.4430   28.2080   48.7280 N   0  0  0  0  0  0  0  0  0  0  0  0
   35.1120   29.3080   48.4540 C   0  0  0  0  0  0  0  0  0  0  0  0
   34.6960   30.1790   47.5060 N   0  0  0  0  0  0  0  0  0  0  0  0
   33.2130   30.5980   46.0540 H   0  0  0  0  0  0  0  0  0  0  0  0
   31.9360   28.5310   46.5430 H   0  0  0  0  0  0  0  0  0  0  0  0
   32.8050   26.9880   48.3300 H   0  0  0  0  0  0  0  0  0  0  0  0
   36.9380   28.8120   49.9420 O   0  0  0  0  0  0  0  0  0  0  0  0
   36.4470   28.5490   50.7350 H   0  0  0  0  0  0  0  0  0  0  0  0
   38.3180   30.4670   47.0610 C   0  0  0  0  0  3  0  0  0  0  0  0
   38.8930   30.9170   45.9400 C   0  0  0  0  0  3  0  0  0  0  0  0
   39.3940   30.1380   44.7840 C   0  0  0  0  0  0  0  0  0  0  0  0
   38.5290   29.6200   44.3130 H   0  0  0  0  0  0  0  0  0  0  0  0
   40.1270   29.4020   45.1550 H   0  0  0  0  0  0  0  0  0  0  0  0
   40.2450   31.2290   43.6400 S   0  0  0  0  0  0  0  0  0  0  0  0
   40.7040   28.8920   42.2290 C   0  0  1  0  0  3  0  0  0  0  0  0
   40.3880   30.3680   42.0450 C   0  0  1  0  0  3  0  0  0  0  0  0
   39.0840   30.5770   41.3090 C   0  0  0  0  0  3  0  0  0  0  0  0
   38.2510   30.2090   41.9190 H   0  0  0  0  0  0  0  0  0  0  0  0
   39.1260   30.0670   40.0160 O   0  0  0  0  0  0  0  0  0  0  0  0
   40.1190   29.1030   39.8680 C   0  0  0  0  0  3  0  0  0  0  0  0
   39.9100   28.5180   38.9530 H   0  0  0  0  0  0  0  0  0  0  0  0
   40.0400   28.1840   41.0620 C   0  0  1  0  0  3  0  0  0  0  0  0
   42.0650   28.6950   42.2960 O   0  0  0  0  0  0  0  0  0  0  0  0
   42.3740   27.9510   41.7180 H   0  0  0  0  0  0  0  0  0  0  0  0
   40.6500   26.9640   40.8070 O   0  0  0  0  0  0  0  0  0  0  0  0
   39.9460   26.2660   40.7850 H   0  0  0  0  0  0  0  0  0  0  0  0
  1  2  1  0  0  0  0
  2  3  2  0  0  0  0
  2  7  1  0  0  0  0
  3  8  1  0  0  0  0
  4  9  1  0  0  0  0
  4  3  1  0  0  0  0
  5  4  2  0  0  0  0
  6  5  1  0  0  0  0
  6  1  2  0  0  0  0
 10  5  1  0  0  0  0
 11 12  1  6  0  0  0
 11  1  1  0  0  0  0
 11 22  1  0  0  0  0
 13 14  2  0  0  0  0
 13 18  1  0  0  0  0
 14 15  1  0  0  0  0
 15 21  1  0  0  0  0
 15 16  2  0  0  0  0
 17 16  1  0  0  0  0
 17 11  1  0  0  0  0
 18 17  2  0  0  0  0
 19 13  1  0  0  0  0
 20 14  1  0  0  0  0
 22 23  1  0  0  0  0
 24  6  1  0  0  0  0
 25 24  2  0  0  0  0
 26 28  1  0  0  0  0
 26 25  1  0  0  0  0
 27 26  1  0  0  0  0
 29 26  1  0  0  0  0
 30 38  1  6  0  0  0
 31 30  1  0  0  0  0
 31 29  1  1  0  0  0
 32 33  1  0  0  0  0
 32 31  1  0  0  0  0
 34 32  1  0  0  0  0
 35 34  1  0  0  0  0
 35 37  1  0  0  0  0
 36 35  1  0  0  0  0
 37 40  1  6  0  0  0
 37 30  1  0  0  0  0
 39 38  1  0  0  0  0
 41 40  1  0  0  0  0
M  END
>  <minimizedAffinity>
-6.48589182

>  <minimizedRMSD>
0.537798584

$$$$
