
     RDKit          3D

 48 50  0  0  0  0  0  0  0  0999 V2000
   37.0794   30.9484   49.0293 C   0  0  0  0  0  0  0  0  0  0  0  0
   36.8094   31.8801   50.0336 C   0  0  0  0  0  0  0  0  0  0  0  0
   37.4220   33.1223   50.0616 C   0  0  0  0  0  0  0  0  0  0  0  0
   38.3372   33.4607   49.0598 C   0  0  0  0  0  0  0  0  0  0  0  0
   38.5929   32.5411   48.0833 C   0  0  0  0  0  0  0  0  0  0  0  0
   37.9604   31.3061   48.0881 C   0  0  0  0  0  0  0  0  0  0  0  0
   36.4660   29.6378   49.0175 C   0  0  1  0  0  0  0  0  0  0  0  0
   36.8636   28.8984   49.9920 O   0  0  0  0  0  0  0  0  0  0  0  0
   33.6127   30.1488   46.8261 C   0  0  0  0  0  0  0  0  0  0  0  0
   32.9536   28.9348   46.8452 C   0  0  0  0  0  0  0  0  0  0  0  0
   33.4490   27.9382   47.6646 C   0  0  0  0  0  0  0  0  0  0  0  0
   34.5708   28.1859   48.4246 N   0  0  0  0  0  0  0  0  0  0  0  0
   35.1563   29.3631   48.3614 C   0  0  0  0  0  0  0  0  0  0  0  0
   34.6848   30.3520   47.5672 N   0  0  0  0  0  0  0  0  0  0  0  0
   38.3435   30.4192   47.0135 C   0  0  0  0  0  0  0  0  0  0  0  0
   38.8234   30.8369   45.8371 C   0  0  0  0  0  0  0  0  0  0  0  0
   39.2863   30.0225   44.6892 C   0  0  0  0  0  0  0  0  0  0  0  0
   39.1816   30.9896   43.1799 S   0  0  0  0  0  0  0  0  0  0  0  0
   36.0978   31.6201   50.8143 H   0  0  0  0  0  0  0  0  0  0  0  0
   37.1593   33.7728   50.8635 H   0  0  0  0  0  0  0  0  0  0  0  0
   38.7616   34.4409   49.1606 H   0  0  0  0  0  0  0  0  0  0  0  0
   39.3221   32.9447   47.3812 H   0  0  0  0  0  0  0  0  0  0  0  0
   37.0072   29.0568   48.1755 H   0  0  0  0  0  0  0  0  0  0  0  0
   36.3136   28.6918   50.7634 H   0  0  0  0  0  0  0  0  0  0  0  0
   33.1919   30.9053   46.1708 H   0  0  0  0  0  0  0  0  0  0  0  0
   32.0719   28.6962   46.2656 H   0  0  0  0  0  0  0  0  0  0  0  0
   33.0360   26.9360   47.7834 H   0  0  0  0  0  0  0  0  0  0  0  0
   38.3576   29.3276   46.8941 H   0  0  0  0  0  0  0  0  0  0  0  0
   38.9246   31.9327   45.6914 H   0  0  0  0  0  0  0  0  0  0  0  0
   38.6648   29.0997   44.6451 H   0  0  0  0  0  0  0  0  0  0  0  0
   40.3462   29.7671   44.8521 H   0  0  0  0  0  0  0  0  0  0  0  0
   41.8601   30.8161   41.0968 O   0  0  0  0  0  0  0  0  0  0  0  0
   41.2716   29.7963   41.8105 C   0  0  1  0  0  0  0  0  0  0  0  0
   39.7593   29.9475   41.8050 C   0  0  1  0  0  0  0  0  0  0  0  0
   39.0593   28.6137   41.9373 C   0  0  1  0  0  0  0  0  0  0  0  0
   39.2719   28.1787   42.9211 H   0  0  0  0  0  0  0  0  0  0  0  0
   39.3283   27.7751   40.8610 O   0  0  0  0  0  0  0  0  0  0  0  0
   40.4972   28.1377   40.1964 C   0  0  1  0  0  0  0  0  0  0  0  0
   40.8302   27.2836   39.5760 H   0  0  0  0  0  0  0  0  0  0  0  0
   41.5468   28.4154   41.2443 C   0  0  1  0  0  0  0  0  0  0  0  0
   42.8264   28.3394   40.7167 O   0  0  0  0  0  0  0  0  0  0  0  0
   42.5505   30.4924   40.4629 H   0  0  0  0  0  0  0  0  0  0  0  0
   41.6215   29.8799   42.8576 H   0  0  0  0  0  0  0  0  0  0  0  0
   39.4167   30.4132   40.8429 H   0  0  0  0  0  0  0  0  0  0  0  0
   37.9699   28.8392   41.8987 H   0  0  0  0  0  0  0  0  0  0  0  0
   40.2749   29.0384   39.6033 H   0  0  0  0  0  0  0  0  0  0  0  0
   41.4186   27.6984   42.1047 H   0  0  0  0  0  0  0  0  0  0  0  0
   43.2777   27.5514   41.1147 H   0  0  0  0  0  0  0  0  0  0  0  0
  1  7  1  0
  1  2  2  0
  2  3  1  0
  4  3  2  0
  5  6  2  0
  5  4  1  0
  6  1  1  0
  7  8  1  0
  9 10  2  0
  9 14  1  0
 10 11  1  0
 11 12  2  0
 13 12  1  0
 13  7  1  0
 14 13  2  0
 15  6  1  0
 16 15  2  0
 17 16  1  0
 18 17  1  0
  2 19  1  0
  3 20  1  0
  4 21  1  0
  5 22  1  0
  7 23  1  6
  8 24  1  0
  9 25  1  0
 10 26  1  0
 11 27  1  0
 15 28  1  0
 16 29  1  0
 17 30  1  0
 17 31  1  0
 32 33  1  0
 33 34  1  0
 34 35  1  0
 35 36  1  1
 35 37  1  0
 37 38  1  0
 38 39  1  6
 38 40  1  0
 40 41  1  0
 40 33  1  0
 32 42  1  0
 33 43  1  1
 34 44  1  6
 35 45  1  0
 38 46  1  0
 40 47  1  1
 41 48  1  0
 18 34  1  0
M  ISO  8  19  14  20  14  21  14  22  14  23   8  24   3  25  14  26  14
M  ISO  5  27  14  30   8  31   8  36   8  39   8
M  END
>  <DihAtoms>  (1) 
16,17,33,32

>  <DihDeg>  (1) 
179.99961778140377

$$$$
