REMARK  Name = 
REMARK  9 active torsions:
REMARK  status: ('A' for Active; 'I' for Inactive)
REMARK    1  A    between atoms: C_1  and  C_7
REMARK    2  A    between atoms: C_6  and  C_15
REMARK    3  A    between atoms: C_7  and  O_8
REMARK    4  A    between atoms: C_7  and  C_13
REMARK    5  A    between atoms: C_16  and  C_17
REMARK    6  A    between atoms: C_17  and  S_18
REMARK    7  A    between atoms: S_18  and  C_34
REMARK    8  A    between atoms: O_32  and  C_33
REMARK    9  A    between atoms: C_40  and  O_41
REMARK                            x       y       z     vdW  Elec       q    Type
REMARK                         _______ _______ _______ _____ _____    ______ ____
ROOT
ATOM      1  C   UNL     1      37.079  30.948  49.029  0.00  0.00    +0.000 A 
ATOM      2  C   UNL     1      36.809  31.880  50.034  0.00  0.00    +0.000 A 
ATOM      3  C   UNL     1      37.422  33.122  50.062  0.00  0.00    +0.000 A 
ATOM      4  C   UNL     1      38.337  33.461  49.060  0.00  0.00    +0.000 A 
ATOM      5  C   UNL     1      38.593  32.541  48.083  0.00  0.00    +0.000 A 
ATOM      6  C   UNL     1      37.960  31.306  48.088  0.00  0.00    +0.000 A 
ATOM      7  H   UNL     1      36.098  31.620  50.814  0.00  0.00    +0.000 HD
ATOM      8  H   UNL     1      37.159  33.773  50.864  0.00  0.00    +0.000 HD
ATOM      9  H   UNL     1      38.762  34.441  49.161  0.00  0.00    +0.000 HD
ATOM     10  H   UNL     1      39.322  32.945  47.381  0.00  0.00    +0.000 HD
ENDROOT
BRANCH   1  11
ATOM     11  C   UNL     1      36.466  29.638  49.017  0.00  0.00    +0.000 C 
ATOM     12  H   UNL     1      37.007  29.057  48.175  0.00  0.00    +0.000 HD
BRANCH  11  17
ATOM     13  C   UNL     1      33.613  30.149  46.826  0.00  0.00    +0.000 A 
ATOM     14  C   UNL     1      32.954  28.935  46.845  0.00  0.00    +0.000 A 
ATOM     15  C   UNL     1      33.449  27.938  47.665  0.00  0.00    +0.000 A 
ATOM     16  N   UNL     1      34.571  28.186  48.425  0.00  0.00    +0.000 NA
ATOM     17  C   UNL     1      35.156  29.363  48.361  0.00  0.00    +0.000 A 
ATOM     18  N   UNL     1      34.685  30.352  47.567  0.00  0.00    +0.000 NA
ATOM     19  H   UNL     1      33.192  30.905  46.171  0.00  0.00    +0.000 HD
ATOM     20  H   UNL     1      32.072  28.696  46.266  0.00  0.00    +0.000 HD
ATOM     21  H   UNL     1      33.036  26.936  47.783  0.00  0.00    +0.000 HD
ENDBRANCH  11  17
BRANCH  11  22
ATOM     22  O   UNL     1      36.864  28.898  49.992  0.00  0.00    +0.000 OA
ATOM     23  H   UNL     1      36.314  28.692  50.763  0.00  0.00    +0.000 HD
ENDBRANCH  11  22
ENDBRANCH   1  11
BRANCH   6  24
ATOM     24  C   UNL     1      38.343  30.419  47.014  0.00  0.00    +0.000 C 
ATOM     25  C   UNL     1      38.823  30.837  45.837  0.00  0.00    +0.000 C 
BRANCH  25  26
ATOM     26  C   UNL     1      39.286  30.023  44.689  0.00  0.00    +0.000 C 
ATOM     27  H   UNL     1      38.665  29.100  44.645  0.00  0.00    +0.000 HD
ATOM     28  H   UNL     1      40.346  29.767  44.852  0.00  0.00    +0.000 HD
BRANCH  26  29
ATOM     29  S   UNL     1      39.182  30.990  43.180  0.00  0.00    +0.000 S 
BRANCH  29  31
ATOM     30  C   UNL     1      38.604  29.454  40.949  0.00  0.00    +0.000 C 
ATOM     31  C   UNL     1      39.759  29.948  41.805  0.00  0.00    +0.000 C 
ATOM     32  C   UNL     1      40.740  30.775  41.005  0.00  0.00    +0.000 C 
ATOM     33  H   UNL     1      40.256  31.699  40.666  0.00  0.00    +0.000 HD
ATOM     34  O   UNL     1      41.347  30.034  39.997  0.00  0.00    +0.000 OA
ATOM     35  C   UNL     1      40.600  28.909  39.655  0.00  0.00    +0.000 C 
ATOM     36  H   UNL     1      40.943  28.544  38.668  0.00  0.00    +0.000 HD
ATOM     37  C   UNL     1      39.159  29.339  39.541  0.00  0.00    +0.000 C 
BRANCH  30  38
ATOM     38  O   UNL     1      38.106  28.272  41.448  0.00  0.00    +0.000 OA
ATOM     39  H   UNL     1      37.977  27.583  40.746  0.00  0.00    +0.000 HD
ENDBRANCH  30  38
BRANCH  37  40
ATOM     40  O   UNL     1      38.418  28.443  38.786  0.00  0.00    +0.000 OA
ATOM     41  H   UNL     1      38.153  28.894  37.944  0.00  0.00    +0.000 HD
ENDBRANCH  37  40
ENDBRANCH  29  31
ENDBRANCH  26  29
ENDBRANCH  25  26
ENDBRANCH   6  24
TORSDOF 9
