
 OpenBabel03272509423D

 41 43  0  0  1  0  0  0  0  0999 V2000
   37.0890   30.9420   49.0450 C   0  0  0  0  0  0  0  0  0  0  0  0
   36.8140   31.8780   50.0450 C   0  0  0  0  0  0  0  0  0  0  0  0
   37.4080   33.1300   50.0570 C   0  0  0  0  0  0  0  0  0  0  0  0
   38.3080   33.4750   49.0440 C   0  0  0  0  0  0  0  0  0  0  0  0
   38.5700   32.5510   48.0720 C   0  0  0  0  0  0  0  0  0  0  0  0
   37.9560   31.3070   48.0930 C   0  0  0  0  0  0  0  0  0  0  0  0
   36.1140   31.6130   50.8330 H   0  0  0  0  0  0  0  0  0  0  0  0
   37.1420   33.7830   50.8570 H   0  0  0  0  0  0  0  0  0  0  0  0
   38.7190   34.4620   49.1340 H   0  0  0  0  0  0  0  0  0  0  0  0
   39.2860   32.9610   47.3610 H   0  0  0  0  0  0  0  0  0  0  0  0
   36.4970   29.6230   49.0490 C   0  0  2  0  0  0  0  0  0  0  0  0
   36.9920   29.0650   48.1640 H   0  0  0  0  0  0  0  0  0  0  0  0
   33.6210   29.9670   46.8550 C   0  0  0  0  0  0  0  0  0  0  0  0
   32.8820   28.8230   47.0890 C   0  0  0  0  0  0  0  0  0  0  0  0
   33.3330   27.9420   48.0550 C   0  0  0  0  0  0  0  0  0  0  0  0
   34.4920   28.2320   48.7420 N   0  0  0  0  0  0  0  0  0  0  0  0
   35.1520   29.3370   48.4720 C   0  0  0  0  0  0  0  0  0  0  0  0
   34.7260   30.2120   47.5320 N   0  0  0  0  0  0  0  0  0  0  0  0
   33.2330   30.6320   46.0900 H   0  0  0  0  0  0  0  0  0  0  0  0
   31.9700   28.5550   46.5740 H   0  0  0  0  0  0  0  0  0  0  0  0
   32.8570   27.0060   48.3460 H   0  0  0  0  0  0  0  0  0  0  0  0
   36.9670   28.8740   49.9840 O   0  0  0  0  0  0  0  0  0  0  0  0
   36.4700   28.6460   50.7840 H   0  0  0  0  0  0  0  0  0  0  0  0
   38.3430   30.4170   47.0220 C   0  0  0  0  0  3  0  0  0  0  0  0
   38.8700   30.8300   45.8640 C   0  0  0  0  0  3  0  0  0  0  0  0
   39.3410   30.0110   44.7220 C   0  0  0  0  0  0  0  0  0  0  0  0
   38.8100   29.0330   44.7530 H   0  0  0  0  0  0  0  0  0  0  0  0
   40.4280   29.8630   44.8290 H   0  0  0  0  0  0  0  0  0  0  0  0
   39.0570   30.8950   43.1860 S   0  0  0  0  0  0  0  0  0  0  0  0
   40.1590   28.8670   41.6560 C   0  0  1  0  0  3  0  0  0  0  0  0
   40.3060   30.3440   41.9820 C   0  0  1  0  0  3  0  0  0  0  0  0
   40.1490   31.2110   40.7540 C   0  0  0  0  0  3  0  0  0  0  0  0
   39.1240   31.1310   40.3720 H   0  0  0  0  0  0  0  0  0  0  0  0
   41.1410   30.9630   39.8110 O   0  0  0  0  0  0  0  0  0  0  0  0
   41.7230   29.7110   39.9830 C   0  0  0  0  0  3  0  0  0  0  0  0
   42.2560   29.4380   39.0510 H   0  0  0  0  0  0  0  0  0  0  0  0
   40.6090   28.7200   40.2130 C   0  0  1  0  0  3  0  0  0  0  0  0
   40.8850   28.1030   42.5430 O   0  0  0  0  0  0  0  0  0  0  0  0
   41.4330   27.4100   42.0940 H   0  0  0  0  0  0  0  0  0  0  0  0
   41.0180   27.4220   39.9490 O   0  0  0  0  0  0  0  0  0  0  0  0
   40.5310   27.1040   39.1450 H   0  0  0  0  0  0  0  0  0  0  0  0
  1 11  1  0  0  0  0
  1  2  1  0  0  0  0
  2  3  2  0  0  0  0
  2  7  1  0  0  0  0
  3  8  1  0  0  0  0
  4  9  1  0  0  0  0
  4  3  1  0  0  0  0
  5  6  1  0  0  0  0
  5  4  2  0  0  0  0
  6  1  2  0  0  0  0
 10  5  1  0  0  0  0
 11 12  1  6  0  0  0
 11 22  1  0  0  0  0
 13 14  2  0  0  0  0
 13 18  1  0  0  0  0
 14 15  1  0  0  0  0
 15 21  1  0  0  0  0
 15 16  2  0  0  0  0
 17 16  1  0  0  0  0
 17 11  1  0  0  0  0
 18 17  2  0  0  0  0
 19 13  1  0  0  0  0
 20 14  1  0  0  0  0
 22 23  1  0  0  0  0
 24  6  1  0  0  0  0
 25 24  2  0  0  0  0
 26 27  1  0  0  0  0
 26 28  1  0  0  0  0
 26 25  1  0  0  0  0
 29 26  1  0  0  0  0
 30 31  1  0  0  0  0
 30 38  1  1  0  0  0
 31 29  1  1  0  0  0
 32 31  1  0  0  0  0
 33 32  1  0  0  0  0
 34 35  1  0  0  0  0
 34 32  1  0  0  0  0
 35 37  1  0  0  0  0
 36 35  1  0  0  0  0
 37 40  1  1  0  0  0
 37 30  1  0  0  0  0
 39 38  1  0  0  0  0
 41 40  1  0  0  0  0
M  END
>  <minimizedAffinity>
-6.24817991

>  <minimizedRMSD>
0.969064116

$$$$
