
 OpenBabel03262521523D

 26 27  0  0  1  0  0  0  0  0999 V2000
   35.5170   29.8340   50.5180 C   0  0  0  0  0  0  0  0  0  0  0  0
   34.9360   29.8330   51.4660 H   0  0  0  0  0  0  0  0  0  0  0  0
   35.1080   30.7300   49.9630 H   0  0  0  0  0  0  0  0  0  0  0  0
   37.2640   30.1180   50.7480 S   0  0  0  0  0  0  0  0  0  0  0  0
   37.9110   30.9660   49.3210 C   0  0  0  0  0  0  0  0  0  0  0  0
   38.3410   32.2570   49.5660 C   0  0  0  0  0  0  0  0  0  0  0  0
   38.8660   32.9980   48.4900 C   0  0  0  0  0  0  0  0  0  0  0  0
   38.9190   32.3960   47.2630 N   0  0  0  0  0  0  0  0  0  0  0  0
   38.4800   31.1290   47.0930 C   0  0  0  0  0  0  0  0  0  0  0  0
   37.9890   30.4310   48.0960 N   0  0  0  0  0  0  0  0  0  0  0  0
   38.3360   32.7960   50.4820 H   0  0  0  0  0  0  0  0  0  0  0  0
   39.2190   34.0010   48.6030 H   0  0  0  0  0  0  0  0  0  0  0  0
   38.5300   30.6570   46.1020 H   0  0  0  0  0  0  0  0  0  0  0  0
   35.1360   28.3920   49.4920 S   0  0  0  0  0  0  0  0  0  0  0  0
   32.9550   27.3550   48.1630 C   0  0  1  0  0  0  0  0  0  0  0  0
   33.5910   28.6560   48.5970 C   0  0  2  0  0  0  0  0  0  0  0  0
   33.8030   29.4910   47.3750 C   0  0  0  0  0  0  0  0  0  0  0  0
   33.2880   30.4630   47.5190 H   0  0  0  0  0  0  0  0  0  0  0  0
   33.3950   28.8750   46.2070 O   0  0  0  0  0  0  0  0  0  0  0  0
   32.0400   28.5390   46.2390 C   0  0  0  0  0  0  0  0  0  0  0  0
   31.8580   27.9060   45.3300 H   0  0  0  0  0  0  0  0  0  0  0  0
   31.6760   27.7140   47.4370 C   0  0  2  0  0  0  0  0  0  0  0  0
   33.7640   26.6890   47.2360 O   0  0  0  0  0  0  0  0  0  0  0  0
   34.6520   27.0810   47.1630 H   0  0  0  0  0  0  0  0  0  0  0  0
   30.9350   28.4890   48.3410 O   0  0  0  0  0  0  0  0  0  0  0  0
   30.4090   27.8660   48.9370 H   0  0  0  0  0  0  0  0  0  0  0  0
  1  4  1  0  0  0  0
  1  2  1  0  0  0  0
  3  1  1  0  0  0  0
  5  6  1  0  0  0  0
  5  4  1  0  0  0  0
  6 11  1  0  0  0  0
  7 12  1  0  0  0  0
  7  6  2  0  0  0  0
  8  7  1  0  0  0  0
  9  8  2  0  0  0  0
  9 10  1  0  0  0  0
 10  5  2  0  0  0  0
 13  9  1  0  0  0  0
 14  1  1  0  0  0  0
 15 23  1  6  0  0  0
 15 16  1  0  0  0  0
 16 14  1  6  0  0  0
 17 18  1  0  0  0  0
 17 16  1  0  0  0  0
 19 20  1  0  0  0  0
 19 17  1  0  0  0  0
 20 22  1  0  0  0  0
 21 20  1  0  0  0  0
 22 15  1  0  0  0  0
 22 25  1  1  0  0  0
 24 23  1  0  0  0  0
 25 26  1  0  0  0  0
M  END
>  <minimizedAffinity>
-4.32947588

>  <minimizedRMSD>
1.57167125

$$$$
