
     RDKit          3D

 52 54  0  0  0  0  0  0  0  0999 V2000
   30.3661   26.1946   47.4477 O   0  0  0  0  0  0  0  0  0  0  0  0
   30.6131   27.6906   47.6674 P   0  0  2  0  0  0  0  0  0  0  0  0
   31.0864   28.4510   46.2129 O   0  0  0  0  0  0  0  0  0  0  0  0
   31.9175   27.7611   48.7549 O   0  0  0  0  0  0  0  0  0  0  0  0
   33.0754   27.3220   48.0795 C   0  0  0  0  0  0  0  0  0  0  0  0
   34.5520   28.4438   49.7088 C   0  0  0  0  0  0  0  0  0  0  0  0
   34.2761   28.0919   48.4804 C   0  0  0  0  0  0  0  0  0  0  0  0
   37.3221   30.1700   51.3572 C   0  0  0  0  0  0  0  0  0  0  0  0
   38.0787   30.6285   50.2580 C   0  0  0  0  0  0  0  0  0  0  0  0
   37.6151   30.3320   48.9631 C   0  0  0  0  0  0  0  0  0  0  0  0
   36.4482   29.6109   48.9126 N   0  0  0  0  0  0  0  0  0  0  0  0
   35.7668   29.1983   49.9624 C   0  0  0  0  0  0  0  0  0  0  0  0
   36.2125   29.4833   51.1812 N   0  0  0  0  0  0  0  0  0  0  0  0
   29.2422   28.4237   48.3083 O   0  0  0  0  0  0  0  0  0  0  0  0
   27.1944   28.4157   49.3693 C   0  0  0  0  0  0  0  0  0  0  0  0
   28.5485   28.0497   49.4352 C   0  0  0  0  0  0  0  0  0  0  0  0
   29.0642   27.3928   50.5298 C   0  0  0  0  0  0  0  0  0  0  0  0
   28.2374   27.0874   51.5820 C   0  0  0  0  0  0  0  0  0  0  0  0
   26.9217   27.4394   51.5246 C   0  0  0  0  0  0  0  0  0  0  0  0
   26.3549   28.1002   50.4481 C   0  0  0  0  0  0  0  0  0  0  0  0
   26.4738   29.2498   48.0145 S   0  0  0  0  0  0  0  0  0  0  0  0
   27.1763   30.5223   47.7319 O   0  0  0  0  0  0  0  0  0  0  0  0
   26.5224   28.3089   46.8069 O   0  0  0  0  0  0  0  0  0  0  0  0
   31.0005   27.8608   45.4444 H   0  0  0  0  0  0  0  0  0  0  0  0
   33.2546   26.2497   48.3800 H   0  0  0  0  0  0  0  0  0  0  0  0
   32.8909   27.3871   46.9970 H   0  0  0  0  0  0  0  0  0  0  0  0
   33.8632   28.1587   50.4954 H   0  0  0  0  0  0  0  0  0  0  0  0
   34.9507   28.3604   47.6492 H   0  0  0  0  0  0  0  0  0  0  0  0
   37.7489   30.4413   52.3232 H   0  0  0  0  0  0  0  0  0  0  0  0
   38.9912   31.1922   50.2642 H   0  0  0  0  0  0  0  0  0  0  0  0
   38.1430   30.6510   48.0773 H   0  0  0  0  0  0  0  0  0  0  0  0
   30.1207   27.1474   50.4987 H   0  0  0  0  0  0  0  0  0  0  0  0
   28.7278   26.5723   52.3968 H   0  0  0  0  0  0  0  0  0  0  0  0
   26.3015   27.1792   52.3777 H   0  0  0  0  0  0  0  0  0  0  0  0
   25.3045   28.3608   50.4444 H   0  0  0  0  0  0  0  0  0  0  0  0
   25.6406   30.0054   50.5108 O   0  0  0  0  0  0  0  0  0  0  0  0
   24.5046   30.0337   49.7126 C   0  0  2  0  0  0  0  0  0  0  0  0
   24.7695   29.5979   48.3091 C   0  0  1  0  0  0  0  0  0  0  0  0
   24.4184   30.7854   47.4039 C   0  0  2  0  0  0  0  0  0  0  0  0
   23.3493   30.9091   47.2475 H   0  0  0  0  0  0  0  0  0  0  0  0
   25.1202   31.8921   47.8097 O   0  0  0  0  0  0  0  0  0  0  0  0
   24.6806   32.4426   48.9896 C   0  0  2  0  0  0  0  0  0  0  0  0
   23.9800   33.2709   48.7087 H   0  0  0  0  0  0  0  0  0  0  0  0
   23.9034   31.4402   49.7808 C   0  0  1  0  0  0  0  0  0  0  0  0
   22.5693   31.3311   49.4105 O   0  0  0  0  0  0  0  0  0  0  0  0
   25.5315   29.4473   51.3195 H   0  0  0  0  0  0  0  0  0  0  0  0
   23.7340   29.3978   50.2393 H   0  0  0  0  0  0  0  0  0  0  0  0
   24.1491   28.7668   47.9514 H   0  0  0  0  0  0  0  0  0  0  0  0
   24.8405   30.5024   46.3974 H   0  0  0  0  0  0  0  0  0  0  0  0
   25.5379   32.8286   49.5880 H   0  0  0  0  0  0  0  0  0  0  0  0
   23.9099   31.7343   50.8550 H   0  0  0  0  0  0  0  0  0  0  0  0
   22.0577   32.1398   49.6192 H   0  0  0  0  0  0  0  0  0  0  0  0
  2  1  2  0
  2 14  1  1
  2  4  1  0
  3  2  1  0
  5  7  1  0
  5  4  1  0
  6 12  1  0
  7  6  2  0
  9  8  2  0
 10  9  1  0
 11 10  2  0
 11 12  1  0
 12 13  2  0
 13  8  1  0
 14 16  1  0
 15 16  1  0
 15 20  2  0
 16 17  2  0
 17 18  1  0
 19 18  2  0
 20 19  1  0
 21 15  1  0
 22 21  2  0
 23 21  2  0
  3 24  1  0
  5 25  1  0
  5 26  1  0
  6 27  1  0
  7 28  1  0
  8 29  1  0
  9 30  1  0
 10 31  1  0
 17 32  1  0
 18 33  1  0
 19 34  1  0
 20 35  1  0
 36 37  1  0
 37 38  1  0
 38 39  1  0
 39 40  1  6
 39 41  1  0
 41 42  1  0
 42 43  1  6
 42 44  1  0
 44 45  1  0
 44 37  1  0
 36 46  1  0
 37 47  1  1
 38 48  1  6
 39 49  1  0
 42 50  1  0
 44 51  1  1
 45 52  1  0
 21 38  1  0
M  ISO  8  24   3  25   8  26   8  29  14  30  14  31  14  32  14  33  14
M  ISO  4  34  14  35  14  40   8  43   8
M  END
>  <DihAtoms>  (1) 
14,20,37,36

>  <DihDeg>  (1) 
70.18226906281836

$$$$
