
 OpenBabel03262520353D

 45 47  0  0  1  0  0  0  0  0999 V2000
   28.2300   27.6130   48.3920 C   0  0  0  0  0  0  0  0  0  0  0  0
   29.5420   27.6990   48.8890 C   0  0  0  0  0  0  0  0  0  0  0  0
   29.8530   27.3020   50.1700 C   0  0  0  0  0  0  0  0  0  0  0  0
   28.8610   26.8100   50.9820 C   0  0  0  0  0  0  0  0  0  0  0  0
   27.5870   26.7230   50.5070 C   0  0  0  0  0  0  0  0  0  0  0  0
   27.2220   27.1090   49.2270 C   0  0  0  0  0  0  0  0  0  0  0  0
   30.8900   27.4020   50.4730 H   0  0  0  0  0  0  0  0  0  0  0  0
   29.1980   26.5240   51.9690 H   0  0  0  0  0  0  0  0  0  0  0  0
   26.8330   26.3290   51.1810 H   0  0  0  0  0  0  0  0  0  0  0  0
   26.1980   27.0230   48.8900 H   0  0  0  0  0  0  0  0  0  0  0  0
   27.7640   28.0980   46.7800 S   0  0  0  0  0  0  0  0  0  0  0  0
   28.9440   28.2270   45.8960 O   0  0  0  0  0  0  0  0  0  0  0  0
   26.7790   27.0550   46.2440 O   0  0  0  0  0  0  0  0  0  0  0  0
   25.6590   29.5900   47.6280 C   0  0  2  0  0  0  0  0  0  0  0  0
   26.9010   29.6360   46.7990 C   0  0  1  0  0  0  0  0  0  0  0  0
   27.8440   30.6420   47.4720 C   0  0  0  0  0  0  0  0  0  0  0  0
   27.5810   31.6780   47.2780 H   0  0  0  0  0  0  0  0  0  0  0  0
   28.0340   30.2830   48.7830 O   0  0  0  0  0  0  0  0  0  0  0  0
   26.9470   30.5000   49.5940 C   0  0  0  0  0  0  0  0  0  0  0  0
   27.1110   31.4970   50.0810 H   0  0  0  0  0  0  0  0  0  0  0  0
   25.6940   30.5930   48.7840 C   0  0  1  0  0  0  0  0  0  0  0  0
   25.4050   28.3290   48.1510 O   0  0  0  0  0  0  0  0  0  0  0  0
   24.5130   27.9810   47.9050 H   0  0  0  0  0  0  0  0  0  0  0  0
   25.4570   31.8500   48.2410 O   0  0  0  0  0  0  0  0  0  0  0  0
   25.2610   32.5210   48.9260 H   0  0  0  0  0  0  0  0  0  0  0  0
   30.4160   28.2090   47.9580 O   0  0  0  0  0  0  0  0  0  0  0  0
   32.2550   26.3200   47.8090 O   0  0  0  0  0  0  0  0  0  0  0  0
   32.0460   27.8380   47.7830 P   0  0  1  0  0  0  0  0  0  0  0  0
   32.6750   28.5150   46.3480 O   0  0  0  0  0  0  0  0  0  0  0  0
   32.9470   27.8350   45.7070 H   0  0  0  0  0  0  0  0  0  0  0  0
   32.9580   28.4240   49.0940 O   0  0  0  0  0  0  0  0  0  0  0  0
   34.2620   27.8990   48.9900 C   0  0  0  0  0  0  0  0  0  0  0  0
   34.5220   27.4390   49.9860 H   0  0  0  0  0  0  0  0  0  0  0  0
   34.2650   27.1290   48.2030 H   0  0  0  0  0  0  0  0  0  0  0  0
   35.6740   29.8250   49.6140 C   0  0  0  0  0  0  0  0  0  0  0  0
   35.2660   28.9570   48.7260 C   0  0  0  0  0  0  0  0  0  0  0  0
   37.7620   32.8230   49.4610 C   0  0  0  0  0  0  0  0  0  0  0  0
   38.5840   32.5520   48.3470 C   0  0  0  0  0  0  0  0  0  0  0  0
   38.4000   31.3350   47.6660 C   0  0  0  0  0  0  0  0  0  0  0  0
   37.4160   30.5250   48.1760 N   0  0  0  0  0  0  0  0  0  0  0  0
   36.6660   30.8100   49.2210 C   0  0  0  0  0  0  0  0  0  0  0  0
   36.8470   31.9630   49.8570 N   0  0  0  0  0  0  0  0  0  0  0  0
   37.9680   33.7850   49.9310 H   0  0  0  0  0  0  0  0  0  0  0  0
   39.3590   33.1620   47.9250 H   0  0  0  0  0  0  0  0  0  0  0  0
   38.9930   31.0630   46.8060 H   0  0  0  0  0  0  0  0  0  0  0  0
  1  2  2  0  0  0  0
  1  6  1  0  0  0  0
  2  3  1  0  0  0  0
  3  7  1  0  0  0  0
  3  4  2  0  0  0  0
  4  8  1  0  0  0  0
  5  4  1  0  0  0  0
  5  9  1  0  0  0  0
  6  5  2  0  0  0  0
 10  6  1  0  0  0  0
 11  1  1  0  0  0  0
 12 11  2  0  0  0  0
 13 11  2  0  0  0  0
 14 22  1  1  0  0  0
 14 21  1  0  0  0  0
 15 11  1  1  0  0  0
 15 16  1  0  0  0  0
 15 14  1  0  0  0  0
 16 18  1  0  0  0  0
 17 16  1  0  0  0  0
 18 19  1  0  0  0  0
 19 20  1  0  0  0  0
 21 24  1  6  0  0  0
 21 19  1  0  0  0  0
 23 22  1  0  0  0  0
 24 25  1  0  0  0  0
 26  2  1  0  0  0  0
 28 27  2  6  0  0  0
 28 26  1  0  0  0  0
 28 31  1  0  0  0  0
 29 28  1  0  0  0  0
 30 29  1  0  0  0  0
 32 31  1  0  0  0  0
 32 33  1  0  0  0  0
 34 32  1  0  0  0  0
 36 32  1  0  0  0  0
 36 35  2  0  0  0  0
 37 42  1  0  0  0  0
 37 43  1  0  0  0  0
 38 37  2  0  0  0  0
 39 40  2  0  0  0  0
 39 38  1  0  0  0  0
 40 41  1  0  0  0  0
 41 35  1  0  0  0  0
 41 42  2  0  0  0  0
 44 38  1  0  0  0  0
 45 39  1  0  0  0  0
M  END
>  <minimizedAffinity>
-5.84736347

>  <minimizedRMSD>
2.35806489

$$$$
