
 OpenBabel03262520353D

 45 47  0  0  1  0  0  0  0  0999 V2000
   28.4360   27.4450   48.2510 C   0  0  0  0  0  0  0  0  0  0  0  0
   29.7020   27.6170   48.8350 C   0  0  0  0  0  0  0  0  0  0  0  0
   29.9300   27.3150   50.1590 C   0  0  0  0  0  0  0  0  0  0  0  0
   28.8990   26.8340   50.9270 C   0  0  0  0  0  0  0  0  0  0  0  0
   27.6690   26.6650   50.3670 C   0  0  0  0  0  0  0  0  0  0  0  0
   27.3870   26.9530   49.0420 C   0  0  0  0  0  0  0  0  0  0  0  0
   30.9370   27.4770   50.5300 H   0  0  0  0  0  0  0  0  0  0  0  0
   29.1710   26.6250   51.9530 H   0  0  0  0  0  0  0  0  0  0  0  0
   26.8800   26.2820   51.0090 H   0  0  0  0  0  0  0  0  0  0  0  0
   26.3950   26.8040   48.6370 H   0  0  0  0  0  0  0  0  0  0  0  0
   28.0750   27.8080   46.5810 S   0  0  0  0  0  0  0  0  0  0  0  0
   29.2980   27.7730   45.7480 O   0  0  0  0  0  0  0  0  0  0  0  0
   27.0420   26.7880   46.0940 O   0  0  0  0  0  0  0  0  0  0  0  0
   25.9940   29.4760   47.0920 C   0  0  2  0  0  3  0  0  0  0  0  0
   27.3250   29.3960   46.4190 C   0  0  1  0  0  3  0  0  0  0  0  0
   28.2490   30.3780   47.1510 C   0  0  0  0  0  3  0  0  0  0  0  0
   28.0840   31.4160   46.8740 H   0  0  0  0  0  0  0  0  0  0  0  0
   28.2590   30.0830   48.4900 O   0  0  0  0  0  0  0  0  0  0  0  0
   27.1010   30.4160   49.1530 C   0  0  0  0  0  3  0  0  0  0  0  0
   27.2760   31.4250   49.6050 H   0  0  0  0  0  0  0  0  0  0  0  0
   25.9620   30.5400   48.1920 C   0  0  1  0  0  3  0  0  0  0  0  0
   25.5930   28.2670   47.6420 O   0  0  0  0  0  0  0  0  0  0  0  0
   24.7140   27.9620   47.3080 H   0  0  0  0  0  0  0  0  0  0  0  0
   25.8790   31.7750   47.5630 O   0  0  0  0  0  0  0  0  0  0  0  0
   25.6500   32.4960   48.1850 H   0  0  0  0  0  0  0  0  0  0  0  0
   30.6240   28.1030   47.9390 O   0  0  0  0  0  0  0  0  0  0  0  0
   32.4970   26.2420   47.9780 O   0  0  0  0  0  0  0  0  0  0  0  0
   32.2680   27.7540   47.8810 P   0  0  1  0  0  0  0  0  0  0  0  0
   32.9760   28.3890   46.4620 O   0  0  0  0  0  0  0  0  0  0  0  0
   33.2970   27.6900   45.8670 H   0  0  0  0  0  0  0  0  0  0  0  0
   33.0870   28.4040   49.2220 O   0  0  0  0  0  0  0  0  0  0  0  0
   34.4050   27.9050   49.2150 C   0  0  0  0  0  0  0  0  0  0  0  0
   34.6340   27.5390   50.2570 H   0  0  0  0  0  0  0  0  0  0  0  0
   34.4560   27.0700   48.5000 H   0  0  0  0  0  0  0  0  0  0  0  0
   35.7320   29.9260   49.7150 C   0  0  0  0  0  3  0  0  0  0  0  0
   35.3950   28.9610   48.8990 C   0  0  0  0  0  3  0  0  0  0  0  0
   37.8300   32.9080   49.4440 C   0  0  0  0  0  0  0  0  0  0  0  0
   38.6270   32.6060   48.3200 C   0  0  0  0  0  0  0  0  0  0  0  0
   38.4230   31.3740   47.6730 C   0  0  0  0  0  0  0  0  0  0  0  0
   37.4460   30.5820   48.2230 N   0  0  0  0  0  0  0  0  0  0  0  0
   36.7200   30.8960   49.2770 C   0  0  0  0  0  0  0  0  0  0  0  0
   36.9190   32.0630   49.8810 N   0  0  0  0  0  0  0  0  0  0  0  0
   38.0500   33.8800   49.8860 H   0  0  0  0  0  0  0  0  0  0  0  0
   39.3950   33.2020   47.8670 H   0  0  0  0  0  0  0  0  0  0  0  0
   38.9960   31.0770   46.8080 H   0  0  0  0  0  0  0  0  0  0  0  0
  1  2  2  0  0  0  0
  1  6  1  0  0  0  0
  2  3  1  0  0  0  0
  3  7  1  0  0  0  0
  3  4  2  0  0  0  0
  4  8  1  0  0  0  0
  5  4  1  0  0  0  0
  5  9  1  0  0  0  0
  6  5  2  0  0  0  0
 10  6  1  0  0  0  0
 11  1  1  0  0  0  0
 12 11  2  0  0  0  0
 13 11  2  0  0  0  0
 14 22  1  1  0  0  0
 14 21  1  0  0  0  0
 15 11  1  1  0  0  0
 15 14  1  0  0  0  0
 15 16  1  0  0  0  0
 16 18  1  0  0  0  0
 17 16  1  0  0  0  0
 18 19  1  0  0  0  0
 19 20  1  0  0  0  0
 21 24  1  6  0  0  0
 21 19  1  0  0  0  0
 23 22  1  0  0  0  0
 24 25  1  0  0  0  0
 26  2  1  0  0  0  0
 28 26  1  0  0  0  0
 28 27  2  1  0  0  0
 28 31  1  0  0  0  0
 29 28  1  0  0  0  0
 30 29  1  0  0  0  0
 32 31  1  0  0  0  0
 32 33  1  0  0  0  0
 34 32  1  0  0  0  0
 36 32  1  0  0  0  0
 36 35  2  0  0  0  0
 37 42  1  0  0  0  0
 37 43  1  0  0  0  0
 38 37  2  0  0  0  0
 39 40  2  0  0  0  0
 39 38  1  0  0  0  0
 40 41  1  0  0  0  0
 41 35  1  0  0  0  0
 41 42  2  0  0  0  0
 44 38  1  0  0  0  0
 45 39  1  0  0  0  0
M  END
>  <minimizedAffinity>
-5.81132603

>  <minimizedRMSD>
2.58576822

$$$$
