
 OpenBabel03262520573D

 22 23  0  0  1  0  0  0  0  0999 V2000
   38.0820   23.2060   36.7770 C   0  0  2  0  0  3  0  0  0  0  0  0
   38.6550   22.7400   35.4840 C   0  0  2  0  0  3  0  0  0  0  0  0
   40.0210   22.1290   35.5940 C   0  0  0  0  0  3  0  0  0  0  0  0
   40.7640   22.8680   35.2190 H   0  0  0  0  0  0  0  0  0  0  0  0
   40.3480   21.7140   36.8810 O   0  0  0  0  0  0  0  0  0  0  0  0
   40.4080   22.8550   37.6680 C   0  0  0  0  0  3  0  0  0  0  0  0
   41.0450   23.6480   37.2720 H   0  0  0  0  0  0  0  0  0  0  0  0
   38.9930   23.2770   37.9430 C   0  0  2  0  0  3  0  0  0  0  0  0
   36.9530   22.4100   37.0820 O   0  0  0  0  0  0  0  0  0  0  0  0
   36.3050   22.4360   36.3320 H   0  0  0  0  0  0  0  0  0  0  0  0
   38.4840   22.5020   38.9870 O   0  0  0  0  0  0  0  0  0  0  0  0
   37.5160   22.7230   39.0510 H   0  0  0  0  0  0  0  0  0  0  0  0
   38.7140   24.1230   34.2880 S   0  0  0  0  0  0  0  0  0  0  0  0
   35.9760   24.7420   31.3270 C   0  0  0  0  0  0  0  0  0  0  0  0
   36.9420   25.0040   32.3090 C   0  0  0  0  0  0  0  0  0  0  0  0
   37.4820   23.9350   33.0160 C   0  0  0  0  0  0  0  0  0  0  0  0
   37.0490   22.6850   32.7230 N   0  0  0  0  0  0  0  0  0  0  0  0
   36.1200   22.4570   31.7760 C   0  0  0  0  0  0  0  0  0  0  0  0
   35.5930   23.4800   31.0880 N   0  0  0  0  0  0  0  0  0  0  0  0
   35.6540   25.6680   30.8680 H   0  0  0  0  0  0  0  0  0  0  0  0
   37.3450   25.9560   32.6100 H   0  0  0  0  0  0  0  0  0  0  0  0
   35.7520   21.4710   31.5160 H   0  0  0  0  0  0  0  0  0  0  0  0
  1  9  1  1  0  0  0
  1  8  1  0  0  0  0
  2 13  1  6  0  0  0
  2  3  1  0  0  0  0
  2  1  1  0  0  0  0
  3  5  1  0  0  0  0
  4  3  1  0  0  0  0
  5  6  1  0  0  0  0
  6  8  1  0  0  0  0
  7  6  1  0  0  0  0
  8 11  1  1  0  0  0
 10  9  1  0  0  0  0
 11 12  1  0  0  0  0
 14 15  1  0  0  0  0
 15 21  1  0  0  0  0
 15 16  2  0  0  0  0
 16 13  1  0  0  0  0
 17 16  1  0  0  0  0
 18 17  2  0  0  0  0
 19 14  2  0  0  0  0
 19 18  1  0  0  0  0
 20 14  1  0  0  0  0
 22 18  1  0  0  0  0
M  END
>  <minimizedAffinity>
-4.65560865

$$$$

 OpenBabel03262520573D

 22 23  0  0  1  0  0  0  0  0999 V2000
   37.8130   22.7610   36.3080 C   0  0  2  0  0  3  0  0  0  0  0  0
   39.0390   22.4280   35.5320 C   0  0  2  0  0  3  0  0  0  0  0  0
   40.3000   22.3970   36.3450 C   0  0  0  0  0  3  0  0  0  0  0  0
   40.8760   23.3250   36.1290 H   0  0  0  0  0  0  0  0  0  0  0  0
   40.0820   22.2630   37.7130 O   0  0  0  0  0  0  0  0  0  0  0  0
   39.4220   23.4100   38.1290 C   0  0  0  0  0  3  0  0  0  0  0  0
   39.9050   24.3440   37.8370 H   0  0  0  0  0  0  0  0  0  0  0  0
   37.9940   23.2850   37.6810 C   0  0  2  0  0  3  0  0  0  0  0  0
   36.9670   21.6280   36.3200 O   0  0  0  0  0  0  0  0  0  0  0  0
   36.7770   21.3330   35.3930 H   0  0  0  0  0  0  0  0  0  0  0  0
   37.3040   22.4770   38.5890 O   0  0  0  0  0  0  0  0  0  0  0  0
   36.4060   22.3180   38.1920 H   0  0  0  0  0  0  0  0  0  0  0  0
   39.2490   23.6090   34.1500 S   0  0  0  0  0  0  0  0  0  0  0  0
   37.0220   27.0190   34.3870 C   0  0  0  0  0  0  0  0  0  0  0  0
   37.4480   25.7450   33.9870 C   0  0  0  0  0  0  0  0  0  0  0  0
   38.5960   25.2130   34.5630 C   0  0  0  0  0  0  0  0  0  0  0  0
   39.2550   25.9540   35.4880 N   0  0  0  0  0  0  0  0  0  0  0  0
   38.8280   27.1770   35.8560 C   0  0  0  0  0  0  0  0  0  0  0  0
   37.7220   27.6980   35.3060 N   0  0  0  0  0  0  0  0  0  0  0  0
   36.1210   27.2930   33.8530 H   0  0  0  0  0  0  0  0  0  0  0  0
   36.9940   25.0870   33.2660 H   0  0  0  0  0  0  0  0  0  0  0  0
   39.3290   27.7950   36.5910 H   0  0  0  0  0  0  0  0  0  0  0  0
  1  9  1  1  0  0  0
  1  8  1  0  0  0  0
  2 13  1  6  0  0  0
  2  1  1  0  0  0  0
  2  3  1  0  0  0  0
  3  5  1  0  0  0  0
  4  3  1  0  0  0  0
  5  6  1  0  0  0  0
  7  6  1  0  0  0  0
  8  6  1  0  0  0  0
  8 11  1  1  0  0  0
 10  9  1  0  0  0  0
 12 11  1  0  0  0  0
 13 16  1  0  0  0  0
 14 19  1  0  0  0  0
 15 14  2  0  0  0  0
 15 16  1  0  0  0  0
 16 17  2  0  0  0  0
 17 18  1  0  0  0  0
 18 22  1  0  0  0  0
 19 18  2  0  0  0  0
 20 14  1  0  0  0  0
 21 15  1  0  0  0  0
M  END
>  <minimizedAffinity>
-4.5781703

$$$$

 OpenBabel03262520573D

 22 23  0  0  1  0  0  0  0  0999 V2000
   39.1760   23.3630   37.7110 C   0  0  2  0  0  3  0  0  0  0  0  0
   38.1740   23.6790   36.6550 C   0  0  2  0  0  3  0  0  0  0  0  0
   38.4830   23.0900   35.3100 C   0  0  0  0  0  3  0  0  0  0  0  0
   38.8680   23.9030   34.6530 H   0  0  0  0  0  0  0  0  0  0  0  0
   39.3840   22.0300   35.3550 O   0  0  0  0  0  0  0  0  0  0  0  0
   40.5920   22.5480   35.7990 C   0  0  0  0  0  3  0  0  0  0  0  0
   40.9450   23.4190   35.2450 H   0  0  0  0  0  0  0  0  0  0  0  0
   40.4610   22.7680   37.2790 C   0  0  2  0  0  3  0  0  0  0  0  0
   38.5570   22.5470   38.6860 O   0  0  0  0  0  0  0  0  0  0  0  0
   37.7430   22.9900   39.0370 H   0  0  0  0  0  0  0  0  0  0  0  0
   40.6630   21.5520   37.9370 O   0  0  0  0  0  0  0  0  0  0  0  0
   40.4430   21.7150   38.8940 H   0  0  0  0  0  0  0  0  0  0  0  0
   37.9910   25.4910   36.4850 S   0  0  0  0  0  0  0  0  0  0  0  0
   40.8860   26.8520   33.9530 C   0  0  0  0  0  0  0  0  0  0  0  0
   40.2680   26.3680   35.1140 C   0  0  0  0  0  0  0  0  0  0  0  0
   38.9020   26.1080   35.0850 C   0  0  0  0  0  0  0  0  0  0  0  0
   38.2290   26.3330   33.9310 N   0  0  0  0  0  0  0  0  0  0  0  0
   38.8430   26.8000   32.8260 C   0  0  0  0  0  0  0  0  0  0  0  0
   40.1600   27.0540   32.8450 N   0  0  0  0  0  0  0  0  0  0  0  0
   41.9420   27.0060   34.1320 H   0  0  0  0  0  0  0  0  0  0  0  0
   40.7170   26.1600   36.0700 H   0  0  0  0  0  0  0  0  0  0  0  0
   38.3360   26.9910   31.8890 H   0  0  0  0  0  0  0  0  0  0  0  0
  1  9  1  1  0  0  0
  2 13  1  6  0  0  0
  2  1  1  0  0  0  0
  3  5  1  0  0  0  0
  3  2  1  0  0  0  0
  4  3  1  0  0  0  0
  5  6  1  0  0  0  0
  6  8  1  0  0  0  0
  7  6  1  0  0  0  0
  8  1  1  0  0  0  0
  8 11  1  1  0  0  0
  9 10  1  0  0  0  0
 11 12  1  0  0  0  0
 14 20  1  0  0  0  0
 14 15  1  0  0  0  0
 15 21  1  0  0  0  0
 16 15  2  0  0  0  0
 16 13  1  0  0  0  0
 17 16  1  0  0  0  0
 18 19  1  0  0  0  0
 18 17  2  0  0  0  0
 19 14  2  0  0  0  0
 22 18  1  0  0  0  0
M  END
>  <minimizedAffinity>
-4.57262516

$$$$

 OpenBabel03262520573D

 22 23  0  0  1  0  0  0  0  0999 V2000
   38.5710   23.9670   37.0170 C   0  0  2  0  0  3  0  0  0  0  0  0
   39.0310   23.7340   35.6190 C   0  0  2  0  0  3  0  0  0  0  0  0
   40.0460   22.6380   35.4740 C   0  0  0  0  0  3  0  0  0  0  0  0
   41.0440   23.1070   35.3190 H   0  0  0  0  0  0  0  0  0  0  0  0
   40.0790   21.7590   36.5510 O   0  0  0  0  0  0  0  0  0  0  0  0
   40.5030   22.4870   37.6520 C   0  0  0  0  0  3  0  0  0  0  0  0
   41.4250   23.0500   37.4990 H   0  0  0  0  0  0  0  0  0  0  0  0
   39.3380   23.3200   38.1050 C   0  0  2  0  0  3  0  0  0  0  0  0
   37.2030   23.6210   37.1030 O   0  0  0  0  0  0  0  0  0  0  0  0
   36.6800   24.1240   36.4280 H   0  0  0  0  0  0  0  0  0  0  0  0
   38.4850   22.5250   38.8750 O   0  0  0  0  0  0  0  0  0  0  0  0
   37.6730   23.0740   39.0450 H   0  0  0  0  0  0  0  0  0  0  0  0
   39.7140   25.2780   34.9160 S   0  0  0  0  0  0  0  0  0  0  0  0
   36.6960   28.0030   34.5820 C   0  0  0  0  0  0  0  0  0  0  0  0
   37.6930   27.2000   35.1530 C   0  0  0  0  0  0  0  0  0  0  0  0
   38.4220   26.3510   34.3260 C   0  0  0  0  0  0  0  0  0  0  0  0
   38.1340   26.3400   33.0020 N   0  0  0  0  0  0  0  0  0  0  0  0
   37.1700   27.1200   32.4750 C   0  0  0  0  0  0  0  0  0  0  0  0
   36.4630   27.9410   33.2640 N   0  0  0  0  0  0  0  0  0  0  0  0
   36.2210   28.6030   35.3480 H   0  0  0  0  0  0  0  0  0  0  0  0
   37.9910   27.1410   36.1860 H   0  0  0  0  0  0  0  0  0  0  0  0
   36.9150   27.1360   31.4230 H   0  0  0  0  0  0  0  0  0  0  0  0
  1  9  1  6  0  0  0
  1  8  1  0  0  0  0
  2 13  1  1  0  0  0
  2  1  1  0  0  0  0
  3  2  1  0  0  0  0
  3  5  1  0  0  0  0
  4  3  1  0  0  0  0
  5  6  1  0  0  0  0
  6  8  1  0  0  0  0
  7  6  1  0  0  0  0
  8 11  1  6  0  0  0
 10  9  1  0  0  0  0
 11 12  1  0  0  0  0
 14 15  1  0  0  0  0
 14 20  1  0  0  0  0
 15 21  1  0  0  0  0
 16 13  1  0  0  0  0
 16 15  2  0  0  0  0
 17 16  1  0  0  0  0
 18 17  2  0  0  0  0
 18 19  1  0  0  0  0
 19 14  2  0  0  0  0
 22 18  1  0  0  0  0
M  END
>  <minimizedAffinity>
-4.45201921

$$$$

 OpenBabel03262520573D

 22 23  0  0  1  0  0  0  0  0999 V2000
   37.1860   27.3030   32.0780 C   0  0  2  0  0  3  0  0  0  0  0  0
   37.6970   26.1130   32.8150 C   0  0  2  0  0  3  0  0  0  0  0  0
   37.1220   24.8050   32.3570 C   0  0  0  0  0  3  0  0  0  0  0  0
   36.3700   24.4730   33.1080 H   0  0  0  0  0  0  0  0  0  0  0  0
   36.5560   24.8550   31.0870 O   0  0  0  0  0  0  0  0  0  0  0  0
   35.4660   25.7110   31.1650 C   0  0  0  0  0  3  0  0  0  0  0  0
   34.7620   25.4790   31.9660 H   0  0  0  0  0  0  0  0  0  0  0  0
   36.0070   27.1120   31.2040 C   0  0  2  0  0  3  0  0  0  0  0  0
   38.2560   27.8710   31.3470 O   0  0  0  0  0  0  0  0  0  0  0  0
   39.0120   28.0780   31.9530 H   0  0  0  0  0  0  0  0  0  0  0  0
   36.3140   27.5140   29.9020 O   0  0  0  0  0  0  0  0  0  0  0  0
   36.7830   28.3880   29.9850 H   0  0  0  0  0  0  0  0  0  0  0  0
   37.3880   26.3050   34.6080 S   0  0  0  0  0  0  0  0  0  0  0  0
   40.0350   23.5460   36.0320 C   0  0  0  0  0  0  0  0  0  0  0  0
   39.4740   24.5420   35.2210 C   0  0  0  0  0  0  0  0  0  0  0  0
   38.2180   25.0410   35.5490 C   0  0  0  0  0  0  0  0  0  0  0  0
   37.5910   24.5410   36.6410 N   0  0  0  0  0  0  0  0  0  0  0  0
   38.1500   23.5820   37.4060 C   0  0  0  0  0  0  0  0  0  0  0  0
   39.3600   23.0950   37.0980 N   0  0  0  0  0  0  0  0  0  0  0  0
   41.0070   23.2620   35.6500 H   0  0  0  0  0  0  0  0  0  0  0  0
   39.8920   24.9990   34.3400 H   0  0  0  0  0  0  0  0  0  0  0  0
   37.6770   23.1610   38.2850 H   0  0  0  0  0  0  0  0  0  0  0  0
  1  9  1  6  0  0  0
  1  2  1  0  0  0  0
  2 13  1  1  0  0  0
  3  2  1  0  0  0  0
  3  4  1  0  0  0  0
  5  6  1  0  0  0  0
  5  3  1  0  0  0  0
  6  8  1  0  0  0  0
  6  7  1  0  0  0  0
  8 11  1  6  0  0  0
  8  1  1  0  0  0  0
  9 10  1  0  0  0  0
 11 12  1  0  0  0  0
 13 16  1  0  0  0  0
 14 19  1  0  0  0  0
 15 16  1  0  0  0  0
 15 14  2  0  0  0  0
 16 17  2  0  0  0  0
 17 18  1  0  0  0  0
 18 22  1  0  0  0  0
 19 18  2  0  0  0  0
 20 14  1  0  0  0  0
 21 15  1  0  0  0  0
M  END
>  <minimizedAffinity>
-4.21361971

$$$$

 OpenBabel03262520573D

 22 23  0  0  1  0  0  0  0  0999 V2000
   39.5930   23.2050   35.9370 C   0  0  2  0  0  3  0  0  0  0  0  0
   39.0510   24.4310   35.2860 C   0  0  2  0  0  3  0  0  0  0  0  0
   38.0240   25.1630   36.0990 C   0  0  0  0  0  3  0  0  0  0  0  0
   37.0210   24.9510   35.6660 H   0  0  0  0  0  0  0  0  0  0  0  0
   38.0500   24.8460   37.4530 O   0  0  0  0  0  0  0  0  0  0  0  0
   37.6950   23.5090   37.5600 C   0  0  0  0  0  3  0  0  0  0  0  0
   36.7680   23.2420   37.0500 H   0  0  0  0  0  0  0  0  0  0  0  0
   38.8890   22.7000   37.1380 C   0  0  2  0  0  3  0  0  0  0  0  0
   40.9630   23.4160   36.2210 O   0  0  0  0  0  0  0  0  0  0  0  0
   41.4480   23.6690   35.3950 H   0  0  0  0  0  0  0  0  0  0  0  0
   39.7820   22.6190   38.2090 O   0  0  0  0  0  0  0  0  0  0  0  0
   40.6050   22.1900   37.8520 H   0  0  0  0  0  0  0  0  0  0  0  0
   38.3350   24.0110   33.6560 S   0  0  0  0  0  0  0  0  0  0  0  0
   37.9440   27.7230   32.0080 C   0  0  0  0  0  0  0  0  0  0  0  0
   38.4980   26.6360   32.6990 C   0  0  0  0  0  0  0  0  0  0  0  0
   37.7550   25.4660   32.8080 C   0  0  0  0  0  0  0  0  0  0  0  0
   36.5250   25.4290   32.2400 N   0  0  0  0  0  0  0  0  0  0  0  0
   36.0120   26.4860   31.5810 C   0  0  0  0  0  0  0  0  0  0  0  0
   36.7210   27.6180   31.4700 N   0  0  0  0  0  0  0  0  0  0  0  0
   38.6370   28.5540   32.0090 H   0  0  0  0  0  0  0  0  0  0  0  0
   39.4590   26.5720   33.1790 H   0  0  0  0  0  0  0  0  0  0  0  0
   35.0340   26.4900   31.1160 H   0  0  0  0  0  0  0  0  0  0  0  0
  1  9  1  1  0  0  0
  1  8  1  0  0  0  0
  2 13  1  6  0  0  0
  2  1  1  0  0  0  0
  2  3  1  0  0  0  0
  3  5  1  0  0  0  0
  4  3  1  0  0  0  0
  5  6  1  0  0  0  0
  7  6  1  0  0  0  0
  8  6  1  0  0  0  0
  8 11  1  1  0  0  0
 10  9  1  0  0  0  0
 12 11  1  0  0  0  0
 14 20  1  0  0  0  0
 14 15  1  0  0  0  0
 15 16  2  0  0  0  0
 15 21  1  0  0  0  0
 16 13  1  0  0  0  0
 17 16  1  0  0  0  0
 18 17  2  0  0  0  0
 19 18  1  0  0  0  0
 19 14  2  0  0  0  0
 22 18  1  0  0  0  0
M  END
>  <minimizedAffinity>
-4.1142807

$$$$

 OpenBabel03262520573D

 22 23  0  0  1  0  0  0  0  0999 V2000
   37.4550   26.7210   31.2650 C   0  0  2  0  0  3  0  0  0  0  0  0
   37.0180   26.7290   32.6890 C   0  0  2  0  0  3  0  0  0  0  0  0
   36.3110   27.9830   33.1140 C   0  0  0  0  0  3  0  0  0  0  0  0
   37.0170   28.5910   33.7240 H   0  0  0  0  0  0  0  0  0  0  0  0
   35.8110   28.7320   32.0540 O   0  0  0  0  0  0  0  0  0  0  0  0
   36.9040   29.1740   31.3230 C   0  0  0  0  0  3  0  0  0  0  0  0
   37.6710   29.6790   31.9110 H   0  0  0  0  0  0  0  0  0  0  0  0
   37.4050   28.0030   30.5270 C   0  0  2  0  0  3  0  0  0  0  0  0
   36.7220   25.7260   30.5770 O   0  0  0  0  0  0  0  0  0  0  0  0
   36.8300   24.8490   31.0260 H   0  0  0  0  0  0  0  0  0  0  0  0
   36.6140   27.8590   29.3850 O   0  0  0  0  0  0  0  0  0  0  0  0
   36.8960   27.0060   28.9570 H   0  0  0  0  0  0  0  0  0  0  0  0
   38.4530   26.4500   33.7890 S   0  0  0  0  0  0  0  0  0  0  0  0
   38.0450   22.6850   35.3070 C   0  0  0  0  0  0  0  0  0  0  0  0
   38.2620   23.7240   34.3900 C   0  0  0  0  0  0  0  0  0  0  0  0
   38.1990   25.0370   34.8420 C   0  0  0  0  0  0  0  0  0  0  0  0
   37.9310   25.2550   36.1530 N   0  0  0  0  0  0  0  0  0  0  0  0
   37.7250   24.2420   37.0160 C   0  0  0  0  0  0  0  0  0  0  0  0
   37.7840   22.9720   36.5900 N   0  0  0  0  0  0  0  0  0  0  0  0
   38.1260   21.7280   34.8080 H   0  0  0  0  0  0  0  0  0  0  0  0
   38.4790   23.6490   33.3390 H   0  0  0  0  0  0  0  0  0  0  0  0
   37.5100   24.3800   38.0690 H   0  0  0  0  0  0  0  0  0  0  0  0
  1  9  1  6  0  0  0
  1  2  1  0  0  0  0
  2  3  1  0  0  0  0
  2 13  1  1  0  0  0
  3  4  1  0  0  0  0
  5  3  1  0  0  0  0
  6  7  1  0  0  0  0
  6  5  1  0  0  0  0
  8 11  1  6  0  0  0
  8  1  1  0  0  0  0
  8  6  1  0  0  0  0
  9 10  1  0  0  0  0
 12 11  1  0  0  0  0
 13 16  1  0  0  0  0
 14 19  1  0  0  0  0
 15 16  1  0  0  0  0
 15 14  2  0  0  0  0
 16 17  2  0  0  0  0
 17 18  1  0  0  0  0
 18 22  1  0  0  0  0
 19 18  2  0  0  0  0
 20 14  1  0  0  0  0
 21 15  1  0  0  0  0
M  END
>  <minimizedAffinity>
-4.09186697

$$$$

 OpenBabel03262520573D

 22 23  0  0  1  0  0  0  0  0999 V2000
   38.1090   26.4820   35.8120 C   0  0  2  0  0  3  0  0  0  0  0  0
   39.1430   25.5380   35.3030 C   0  0  2  0  0  3  0  0  0  0  0  0
   39.1230   25.3380   33.8160 C   0  0  0  0  0  3  0  0  0  0  0  0
   38.6610   24.3480   33.6040 H   0  0  0  0  0  0  0  0  0  0  0  0
   38.4610   26.3470   33.1240 O   0  0  0  0  0  0  0  0  0  0  0  0
   37.1280   26.2880   33.5040 C   0  0  0  0  0  3  0  0  0  0  0  0
   36.6720   25.3010   33.4130 H   0  0  0  0  0  0  0  0  0  0  0  0
   37.0340   26.8880   34.8780 C   0  0  2  0  0  3  0  0  0  0  0  0
   38.7620   27.6220   36.3380 O   0  0  0  0  0  0  0  0  0  0  0  0
   39.4200   27.3510   37.0270 H   0  0  0  0  0  0  0  0  0  0  0  0
   37.0100   28.2800   34.7630 O   0  0  0  0  0  0  0  0  0  0  0  0
   37.0760   28.6360   35.6900 H   0  0  0  0  0  0  0  0  0  0  0  0
   38.9690   23.9130   36.1260 S   0  0  0  0  0  0  0  0  0  0  0  0
   42.9170   22.8920   36.0010 C   0  0  0  0  0  0  0  0  0  0  0  0
   41.7270   23.5980   35.7730 C   0  0  0  0  0  0  0  0  0  0  0  0
   40.5480   23.1180   36.3340 C   0  0  0  0  0  0  0  0  0  0  0  0
   40.6030   21.9870   37.0780 N   0  0  0  0  0  0  0  0  0  0  0  0
   41.7580   21.3240   37.2830 C   0  0  0  0  0  0  0  0  0  0  0  0
   42.8990   21.7790   36.7460 N   0  0  0  0  0  0  0  0  0  0  0  0
   43.7410   23.3860   35.5020 H   0  0  0  0  0  0  0  0  0  0  0  0
   41.5860   24.4990   35.2000 H   0  0  0  0  0  0  0  0  0  0  0  0
   41.8370   20.4180   37.8720 H   0  0  0  0  0  0  0  0  0  0  0  0
  1  9  1  6  0  0  0
  2  1  1  0  0  0  0
  2 13  1  1  0  0  0
  3  2  1  0  0  0  0
  4  3  1  0  0  0  0
  5  6  1  0  0  0  0
  5  3  1  0  0  0  0
  6  8  1  0  0  0  0
  7  6  1  0  0  0  0
  8 11  1  6  0  0  0
  8  1  1  0  0  0  0
  9 10  1  0  0  0  0
 11 12  1  0  0  0  0
 13 16  1  0  0  0  0
 14 19  1  0  0  0  0
 15 14  2  0  0  0  0
 15 16  1  0  0  0  0
 16 17  2  0  0  0  0
 17 18  1  0  0  0  0
 18 22  1  0  0  0  0
 19 18  2  0  0  0  0
 20 14  1  0  0  0  0
 21 15  1  0  0  0  0
M  END
>  <minimizedAffinity>
-4.08057451

$$$$

 OpenBabel03262520573D

 22 23  0  0  1  0  0  0  0  0999 V2000
   37.8540   23.0820   36.7990 C   0  0  2  0  0  3  0  0  0  0  0  0
   38.3000   22.5440   35.4840 C   0  0  2  0  0  3  0  0  0  0  0  0
   39.7130   22.0380   35.4660 C   0  0  0  0  0  3  0  0  0  0  0  0
   40.3450   22.7900   34.9430 H   0  0  0  0  0  0  0  0  0  0  0  0
   40.2250   21.7610   36.7290 O   0  0  0  0  0  0  0  0  0  0  0  0
   40.2920   22.9680   37.4100 C   0  0  0  0  0  3  0  0  0  0  0  0
   40.8120   23.7640   36.8750 H   0  0  0  0  0  0  0  0  0  0  0  0
   38.8920   23.3170   37.8290 C   0  0  2  0  0  3  0  0  0  0  0  0
   36.8360   22.2420   37.3070 O   0  0  0  0  0  0  0  0  0  0  0  0
   36.1020   22.1580   36.6470 H   0  0  0  0  0  0  0  0  0  0  0  0
   38.5760   22.6030   38.9880 O   0  0  0  0  0  0  0  0  0  0  0  0
   37.6090   22.7630   39.1570 H   0  0  0  0  0  0  0  0  0  0  0  0
   38.1050   23.8180   34.1850 S   0  0  0  0  0  0  0  0  0  0  0  0
   41.6050   25.3030   32.7030 C   0  0  0  0  0  0  0  0  0  0  0  0
   40.4310   24.5430   32.8080 C   0  0  0  0  0  0  0  0  0  0  0  0
   39.6210   24.7150   33.9240 C   0  0  0  0  0  0  0  0  0  0  0  0
   40.0030   25.6140   34.8640 N   0  0  0  0  0  0  0  0  0  0  0  0
   41.1360   26.3330   34.7430 C   0  0  0  0  0  0  0  0  0  0  0  0
   41.9230   26.1730   33.6700 N   0  0  0  0  0  0  0  0  0  0  0  0
   42.1240   25.0570   31.7860 H   0  0  0  0  0  0  0  0  0  0  0  0
   40.0480   23.8100   32.1170 H   0  0  0  0  0  0  0  0  0  0  0  0
   41.4710   27.0590   35.4750 H   0  0  0  0  0  0  0  0  0  0  0  0
  1  9  1  1  0  0  0
  1  8  1  0  0  0  0
  2 13  1  6  0  0  0
  2  1  1  0  0  0  0
  3  2  1  0  0  0  0
  3  5  1  0  0  0  0
  4  3  1  0  0  0  0
  5  6  1  0  0  0  0
  6  8  1  0  0  0  0
  7  6  1  0  0  0  0
  8 11  1  1  0  0  0
 10  9  1  0  0  0  0
 11 12  1  0  0  0  0
 14 15  2  0  0  0  0
 14 19  1  0  0  0  0
 15 16  1  0  0  0  0
 16 13  1  0  0  0  0
 16 17  2  0  0  0  0
 18 17  1  0  0  0  0
 18 22  1  0  0  0  0
 19 18  2  0  0  0  0
 20 14  1  0  0  0  0
 21 15  1  0  0  0  0
M  END
>  <minimizedAffinity>
-4.02045059

$$$$
