REMARK  Name = 
REMARK  4 active torsions:
REMARK  status: ('A' for Active; 'I' for Inactive)
REMARK    1  A    between atoms: C_3  and  S_7
REMARK    2  A    between atoms: S_7  and  C_13
REMARK    3  A    between atoms: O_11  and  C_12
REMARK    4  A    between atoms: C_19  and  O_20
REMARK                            x       y       z     vdW  Elec       q    Type
REMARK                         _______ _______ _______ _____ _____    ______ ____
ROOT
ATOM      1  C   UNL     1      40.654  30.474  46.340  0.00  0.00    +0.000 C 
ATOM      2  C   UNL     1      39.454  29.727  46.810  0.00  0.00    +0.000 C 
ATOM      3  C   UNL     1      38.838  28.828  45.778  0.00  0.00    +0.000 C 
ATOM      4  H   UNL     1      37.913  29.317  45.397  0.00  0.00    +0.000 HD
ATOM      5  O   UNL     1      39.693  28.512  44.727  0.00  0.00    +0.000 OA
ATOM      6  C   UNL     1      39.955  29.696  44.052  0.00  0.00    +0.000 C 
ATOM      7  H   UNL     1      39.067  30.260  43.760  0.00  0.00    +0.000 HD
ATOM      8  C   UNL     1      40.933  30.472  44.886  0.00  0.00    +0.000 C 
ENDROOT
BRANCH   1   9
ATOM      9  O   UNL     1      41.781  30.012  47.059  0.00  0.00    +0.000 OA
ATOM     10  H   UNL     1      41.622  30.097  48.034  0.00  0.00    +0.000 HD
ENDBRANCH   1   9
BRANCH   8  11
ATOM     11  O   UNL     1      42.219  29.977  44.653  0.00  0.00    +0.000 OA
ATOM     12  H   UNL     1      42.813  30.427  45.312  0.00  0.00    +0.000 HD
ENDBRANCH   8  11
BRANCH   2  13
ATOM     13  S   UNL     1      38.185  30.896  47.418  0.00  0.00    +0.000 S 
BRANCH  13  16
ATOM     14  C   UNL     1      37.373  30.215  51.358  0.00  0.00    +0.000 A 
ATOM     15  C   UNL     1      38.003  30.702  50.204  0.00  0.00    +0.000 A 
ATOM     16  C   UNL     1      37.486  30.350  48.962  0.00  0.00    +0.000 A 
ATOM     17  N   UNL     1      36.393  29.550  48.923  0.00  0.00    +0.000 NA
ATOM     18  C   UNL     1      35.804  29.093  50.045  0.00  0.00    +0.000 A 
ATOM     19  N   UNL     1      36.295  29.427  51.247  0.00  0.00    +0.000 NA
ATOM     20  H   UNL     1      37.888  30.573  52.240  0.00  0.00    +0.000 HD
ATOM     21  H   UNL     1      38.869  31.338  50.136  0.00  0.00    +0.000 HD
ATOM     22  H   UNL     1      34.930  28.453  50.050  0.00  0.00    +0.000 HD
ENDBRANCH  13  16
ENDBRANCH   2  13
TORSDOF 4
