
     RDKit          3D

 36 38  0  0  0  0  0  0  0  0999 V2000
   37.4798   30.2629   51.3299 C   0  0  0  0  0  0  0  0  0  0  0  0
   38.1372   30.9728   50.3015 C   0  0  0  0  0  0  0  0  0  0  0  0
   37.8268   30.7263   48.9792 C   0  0  0  0  0  0  0  0  0  0  0  0
   36.8787   29.7861   48.7221 N   0  0  0  0  0  0  0  0  0  0  0  0
   36.2389   29.0950   49.7060 C   0  0  0  0  0  0  0  0  0  0  0  0
   36.5442   29.3389   51.0035 N   0  0  0  0  0  0  0  0  0  0  0  0
   38.4577   31.4244   47.9274 N   0  0  0  0  0  0  0  0  0  0  0  0
   38.6762   30.8404   46.7349 C   0  0  0  0  0  0  0  0  0  0  0  0
   39.2915   31.5344   45.6920 C   0  0  0  0  0  0  0  0  0  0  0  0
   39.6735   32.8394   45.9103 C   0  0  0  0  0  0  0  0  0  0  0  0
   40.2256   33.4888   45.0003 O   0  0  0  0  0  0  0  0  0  0  0  0
   39.4489   33.4084   47.1058 N   0  0  0  0  0  0  0  0  0  0  0  0
   38.8513   32.6832   48.0680 C   0  0  0  0  0  0  0  0  0  0  0  0
   38.6479   33.2341   49.1861 O   0  0  0  0  0  0  0  0  0  0  0  0
   37.6529   30.3869   52.3677 H   0  0  0  0  0  0  0  0  0  0  0  0
   38.8559   31.6538   50.7074 H   0  0  0  0  0  0  0  0  0  0  0  0
   35.4882   28.3554   49.3920 H   0  0  0  0  0  0  0  0  0  0  0  0
   38.3477   29.7953   46.6236 H   0  0  0  0  0  0  0  0  0  0  0  0
   39.4472   31.0266   44.7515 H   0  0  0  0  0  0  0  0  0  0  0  0
   38.6822   36.8000   46.7620 O   0  0  0  0  0  0  0  0  0  0  0  0
   38.7381   35.7254   47.6876 C   0  0  1  0  0  0  0  0  0  0  0  0
   39.8324   34.7756   47.3822 C   0  0  1  0  0  0  0  0  0  0  0  0
   40.9415   34.8480   48.4399 C   0  0  2  0  0  0  0  0  0  0  0  0
   41.7746   34.2396   47.9920 H   0  0  0  0  0  0  0  0  0  0  0  0
   41.4101   36.1305   48.5191 O   0  0  0  0  0  0  0  0  0  0  0  0
   40.4414   37.1065   48.7130 C   0  0  2  0  0  0  0  0  0  0  0  0
   40.3109   37.7811   47.8419 H   0  0  0  0  0  0  0  0  0  0  0  0
   39.0934   36.4307   48.9946 C   0  0  1  0  0  0  0  0  0  0  0  0
   38.1628   37.3650   49.3751 O   0  0  0  0  0  0  0  0  0  0  0  0
   39.4972   36.8366   46.2269 H   0  0  0  0  0  0  0  0  0  0  0  0
   37.7135   35.3368   47.6646 H   0  0  0  0  0  0  0  0  0  0  0  0
   40.3623   35.1637   46.4603 H   0  0  0  0  0  0  0  0  0  0  0  0
   40.6824   34.3518   49.3738 H   0  0  0  0  0  0  0  0  0  0  0  0
   40.6789   37.6967   49.6139 H   0  0  0  0  0  0  0  0  0  0  0  0
   39.2837   35.7651   49.8312 H   0  0  0  0  0  0  0  0  0  0  0  0
   38.2557   37.5211   50.3433 H   0  0  0  0  0  0  0  0  0  0  0  0
  2  1  2  0
  3  2  1  0
  4  3  2  0
  4  5  1  0
  5  6  2  0
  6  1  1  0
  7 13  1  0
  7  3  1  0
  8  7  1  0
  9 10  1  0
  9  8  2  0
 10 12  1  0
 11 10  2  0
 12 13  1  0
 13 14  2  0
  1 15  1  0
  2 16  1  0
  5 17  1  0
  8 18  1  0
  9 19  1  0
 20 21  1  0
 21 22  1  0
 22 23  1  0
 23 24  1  6
 23 25  1  0
 25 26  1  0
 26 27  1  6
 26 28  1  0
 28 29  1  0
 28 21  1  0
 20 30  1  0
 21 31  1  1
 22 32  1  6
 23 33  1  0
 26 34  1  0
 28 35  1  1
 29 36  1  0
 12 22  1  0
M  ISO  7  15  14  16  14  17  14  18  14  19  14  24   8  27   8
M  END
>  <DihAtoms>  (1) 
9,11,21,20

>  <DihDeg>  (1) 
131.78769189163137

$$$$
