
     RDKit          3D

 36 38  0  0  0  0  0  0  0  0999 V2000
   37.4798   30.2629   51.3299 C   0  0  0  0  0  0  0  0  0  0  0  0
   38.1372   30.9728   50.3015 C   0  0  0  0  0  0  0  0  0  0  0  0
   37.8268   30.7263   48.9792 C   0  0  0  0  0  0  0  0  0  0  0  0
   36.8787   29.7861   48.7221 N   0  0  0  0  0  0  0  0  0  0  0  0
   36.2389   29.0950   49.7060 C   0  0  0  0  0  0  0  0  0  0  0  0
   36.5442   29.3389   51.0035 N   0  0  0  0  0  0  0  0  0  0  0  0
   38.4577   31.4244   47.9274 N   0  0  0  0  0  0  0  0  0  0  0  0
   38.6762   30.8404   46.7349 C   0  0  0  0  0  0  0  0  0  0  0  0
   39.2915   31.5344   45.6920 C   0  0  0  0  0  0  0  0  0  0  0  0
   39.6735   32.8394   45.9103 C   0  0  0  0  0  0  0  0  0  0  0  0
   40.2256   33.4888   45.0003 O   0  0  0  0  0  0  0  0  0  0  0  0
   39.4489   33.4084   47.1058 N   0  0  0  0  0  0  0  0  0  0  0  0
   38.8513   32.6832   48.0680 C   0  0  0  0  0  0  0  0  0  0  0  0
   38.6479   33.2341   49.1861 O   0  0  0  0  0  0  0  0  0  0  0  0
   37.6529   30.3869   52.3677 H   0  0  0  0  0  0  0  0  0  0  0  0
   38.8559   31.6538   50.7074 H   0  0  0  0  0  0  0  0  0  0  0  0
   35.4882   28.3554   49.3920 H   0  0  0  0  0  0  0  0  0  0  0  0
   38.3477   29.7953   46.6236 H   0  0  0  0  0  0  0  0  0  0  0  0
   39.4472   31.0266   44.7515 H   0  0  0  0  0  0  0  0  0  0  0  0
   38.4830   36.7647   47.2131 O   0  0  0  0  0  0  0  0  0  0  0  0
   38.8092   35.6394   48.0143 C   0  0  1  0  0  0  0  0  0  0  0  0
   39.8324   34.7756   47.3822 C   0  0  1  0  0  0  0  0  0  0  0  0
   41.1640   34.8460   48.1412 C   0  0  2  0  0  0  0  0  0  0  0  0
   41.8852   34.3161   47.4602 H   0  0  0  0  0  0  0  0  0  0  0  0
   41.5848   36.1461   48.1999 O   0  0  0  0  0  0  0  0  0  0  0  0
   40.6546   37.0502   48.6957 C   0  0  2  0  0  0  0  0  0  0  0  0
   40.2860   37.7692   47.9353 H   0  0  0  0  0  0  0  0  0  0  0  0
   39.4463   36.2811   49.2449 C   0  0  1  0  0  0  0  0  0  0  0  0
   38.6007   37.1343   49.9088 O   0  0  0  0  0  0  0  0  0  0  0  0
   39.1389   36.8818   46.5003 H   0  0  0  0  0  0  0  0  0  0  0  0
   37.8273   35.1942   48.2119 H   0  0  0  0  0  0  0  0  0  0  0  0
   40.1026   35.2506   46.3909 H   0  0  0  0  0  0  0  0  0  0  0  0
   41.1634   34.2782   49.0703 H   0  0  0  0  0  0  0  0  0  0  0  0
   41.0823   37.5957   49.5534 H   0  0  0  0  0  0  0  0  0  0  0  0
   39.8639   35.5767   49.9581 H   0  0  0  0  0  0  0  0  0  0  0  0
   38.9227   37.2348   50.8343 H   0  0  0  0  0  0  0  0  0  0  0  0
  2  1  2  0
  3  2  1  0
  4  3  2  0
  4  5  1  0
  5  6  2  0
  6  1  1  0
  7 13  1  0
  7  3  1  0
  8  7  1  0
  9 10  1  0
  9  8  2  0
 10 12  1  0
 11 10  2  0
 12 13  1  0
 13 14  2  0
  1 15  1  0
  2 16  1  0
  5 17  1  0
  8 18  1  0
  9 19  1  0
 20 21  1  0
 21 22  1  0
 22 23  1  0
 23 24  1  6
 23 25  1  0
 25 26  1  0
 26 27  1  6
 26 28  1  0
 28 29  1  0
 28 21  1  0
 20 30  1  0
 21 31  1  1
 22 32  1  6
 23 33  1  0
 26 34  1  0
 28 35  1  1
 29 36  1  0
 12 22  1  0
M  ISO  7  15  14  16  14  17  14  18  14  19  14  24   8  27   8
M  END
>  <DihAtoms>  (1) 
9,11,21,20

>  <DihDeg>  (1) 
131.78769189163137

$$$$
