
 OpenBabel03272505243D

 31 33  0  0  1  0  0  0  0  0999 V2000
   35.4860   30.4000   33.5410 C   0  0  0  0  0  0  0  0  0  0  0  0
   35.8850   29.0470   33.5910 C   0  0  0  0  0  0  0  0  0  0  0  0
   36.0330   28.3220   32.4260 C   0  0  0  0  0  0  0  0  0  0  0  0
   35.7810   28.9620   31.2530 N   0  0  0  0  0  0  0  0  0  0  0  0
   35.3960   30.2670   31.1920 C   0  0  0  0  0  0  0  0  0  0  0  0
   35.2510   30.9770   32.3370 N   0  0  0  0  0  0  0  0  0  0  0  0
   36.4390   26.9700   32.4400 N   0  0  0  0  0  0  0  0  0  0  0  0
   36.0090   26.1030   31.5070 C   0  0  0  0  0  0  0  0  0  0  0  0
   36.4180   24.7690   31.5160 C   0  0  0  0  0  0  0  0  0  0  0  0
   37.2790   24.3560   32.5080 C   0  0  0  0  0  0  0  0  0  0  0  0
   37.6660   23.1700   32.5470 O   0  0  0  0  0  0  0  0  0  0  0  0
   37.7000   25.2340   33.4340 N   0  0  0  0  0  0  0  0  0  0  0  0
   37.2670   26.5050   33.3670 C   0  0  0  0  0  0  0  0  0  0  0  0
   37.6730   27.3170   34.2450 O   0  0  0  0  0  0  0  0  0  0  0  0
   35.3480   31.0310   34.3810 H   0  0  0  0  0  0  0  0  0  0  0  0
   36.0190   28.7260   34.6040 H   0  0  0  0  0  0  0  0  0  0  0  0
   35.2160   30.6900   30.1930 H   0  0  0  0  0  0  0  0  0  0  0  0
   35.3210   26.4950   30.7410 H   0  0  0  0  0  0  0  0  0  0  0  0
   36.0480   24.1070   30.7480 H   0  0  0  0  0  0  0  0  0  0  0  0
   38.0880   23.8820   35.4920 C   0  0  1  0  0  3  0  0  0  0  0  0
   38.6050   24.8460   34.4950 C   0  0  1  0  0  3  0  0  0  0  0  0
   39.9630   24.3970   33.9400 C   0  0  0  0  0  3  0  0  0  0  0  0
   40.3230   25.2920   33.3610 H   0  0  0  0  0  0  0  0  0  0  0  0
   40.8450   24.2380   34.9740 O   0  0  0  0  0  0  0  0  0  0  0  0
   40.4070   23.4200   36.0070 C   0  0  0  0  0  3  0  0  0  0  0  0
   40.2260   23.9640   36.9570 H   0  0  0  0  0  0  0  0  0  0  0  0
   39.0970   22.7400   35.5930 C   0  0  1  0  0  3  0  0  0  0  0  0
   38.0910   24.4140   36.8080 O   0  0  0  0  0  0  0  0  0  0  0  0
   38.6280   25.2280   36.8500 H   0  0  0  0  0  0  0  0  0  0  0  0
   38.7430   21.7860   36.5140 O   0  0  0  0  0  0  0  0  0  0  0  0
   39.2150   20.9500   36.2930 H   0  0  0  0  0  0  0  0  0  0  0  0
  1  2  1  0  0  0  0
  1 15  1  0  0  0  0
  2 16  1  0  0  0  0
  3  7  1  0  0  0  0
  3  2  2  0  0  0  0
  4  3  1  0  0  0  0
  5  4  2  0  0  0  0
  5  6  1  0  0  0  0
  6  1  2  0  0  0  0
  7 13  1  0  0  0  0
  8  9  2  0  0  0  0
  8  7  1  0  0  0  0
  9 10  1  0  0  0  0
 10 11  2  0  0  0  0
 10 12  1  0  0  0  0
 13 12  1  0  0  0  0
 13 14  2  0  0  0  0
 17  5  1  0  0  0  0
 18  8  1  0  0  0  0
 19  9  1  0  0  0  0
 20 27  1  0  0  0  0
 20 28  1  1  0  0  0
 21 12  1  6  0  0  0
 21 20  1  0  0  0  0
 22 21  1  0  0  0  0
 22 24  1  0  0  0  0
 23 22  1  0  0  0  0
 24 25  1  0  0  0  0
 25 26  1  0  0  0  0
 27 25  1  0  0  0  0
 27 30  1  1  0  0  0
 28 29  1  0  0  0  0
 31 30  1  0  0  0  0
M  END
>  <minimizedAffinity>
-5.3915925

$$$$

 OpenBabel03272505243D

 31 33  0  0  1  0  0  0  0  0999 V2000
   37.6740   20.0600   32.0320 C   0  0  0  0  0  0  0  0  0  0  0  0
   37.5510   21.4660   31.9670 C   0  0  0  0  0  0  0  0  0  0  0  0
   36.3220   22.0460   31.7260 C   0  0  0  0  0  0  0  0  0  0  0  0
   35.2590   21.2150   31.5580 N   0  0  0  0  0  0  0  0  0  0  0  0
   35.3650   19.8590   31.6190 C   0  0  0  0  0  0  0  0  0  0  0  0
   36.5720   19.2910   31.8560 N   0  0  0  0  0  0  0  0  0  0  0  0
   36.1630   23.4470   31.6640 N   0  0  0  0  0  0  0  0  0  0  0  0
   35.2400   24.0090   30.8620 C   0  0  0  0  0  0  0  0  0  0  0  0
   35.0770   25.3940   30.8090 C   0  0  0  0  0  0  0  0  0  0  0  0
   35.8850   26.1790   31.6000 C   0  0  0  0  0  0  0  0  0  0  0  0
   35.7670   27.4210   31.5770 O   0  0  0  0  0  0  0  0  0  0  0  0
   36.8020   25.6030   32.3950 N   0  0  0  0  0  0  0  0  0  0  0  0
   36.9070   24.2620   32.3990 C   0  0  0  0  0  0  0  0  0  0  0  0
   37.7740   23.7380   33.1530 O   0  0  0  0  0  0  0  0  0  0  0  0
   38.5730   19.5310   32.2120 H   0  0  0  0  0  0  0  0  0  0  0  0
   38.5010   21.9380   32.1100 H   0  0  0  0  0  0  0  0  0  0  0  0
   34.4440   19.2760   31.4680 H   0  0  0  0  0  0  0  0  0  0  0  0
   34.6260   23.3270   30.2550 H   0  0  0  0  0  0  0  0  0  0  0  0
   34.3250   25.8030   30.1510 H   0  0  0  0  0  0  0  0  0  0  0  0
   37.2970   26.4870   34.6720 C   0  0  1  0  0  3  0  0  0  0  0  0
   37.6740   26.3860   33.2440 C   0  0  1  0  0  3  0  0  0  0  0  0
   39.1410   25.9670   33.0860 C   0  0  0  0  0  3  0  0  0  0  0  0
   39.3430   26.1180   31.9890 H   0  0  0  0  0  0  0  0  0  0  0  0
   39.9420   26.8590   33.7430 O   0  0  0  0  0  0  0  0  0  0  0  0
   39.6070   27.0910   35.0710 C   0  0  0  0  0  3  0  0  0  0  0  0
   39.2280   28.1160   35.2600 H   0  0  0  0  0  0  0  0  0  0  0  0
   38.5200   26.0970   35.5000 C   0  0  1  0  0  3  0  0  0  0  0  0
   37.0680   27.8290   35.0760 O   0  0  0  0  0  0  0  0  0  0  0  0
   37.4060   28.4530   34.4070 H   0  0  0  0  0  0  0  0  0  0  0  0
   38.3070   26.1780   36.8520 O   0  0  0  0  0  0  0  0  0  0  0  0
   38.9690   25.6080   37.3070 H   0  0  0  0  0  0  0  0  0  0  0  0
  1 15  1  0  0  0  0
  2  1  1  0  0  0  0
  2 16  1  0  0  0  0
  3  2  2  0  0  0  0
  4  5  2  0  0  0  0
  4  3  1  0  0  0  0
  5  6  1  0  0  0  0
  6  1  2  0  0  0  0
  7  3  1  0  0  0  0
  7 13  1  0  0  0  0
  8  7  1  0  0  0  0
  9  8  2  0  0  0  0
  9 10  1  0  0  0  0
 10 12  1  0  0  0  0
 11 10  2  0  0  0  0
 12 13  1  0  0  0  0
 13 14  2  0  0  0  0
 17  5  1  0  0  0  0
 18  8  1  0  0  0  0
 19  9  1  0  0  0  0
 20 28  1  1  0  0  0
 20 27  1  0  0  0  0
 21 12  1  6  0  0  0
 21 20  1  0  0  0  0
 22 21  1  0  0  0  0
 22 24  1  0  0  0  0
 23 22  1  0  0  0  0
 24 25  1  0  0  0  0
 25 26  1  0  0  0  0
 25 27  1  0  0  0  0
 27 30  1  1  0  0  0
 29 28  1  0  0  0  0
 30 31  1  0  0  0  0
M  END
>  <minimizedAffinity>
-5.37583447

$$$$

 OpenBabel03272505243D

 31 33  0  0  1  0  0  0  0  0999 V2000
   36.1930   27.1120   30.6330 C   0  0  0  0  0  0  0  0  0  0  0  0
   37.0180   26.4200   31.5470 C   0  0  0  0  0  0  0  0  0  0  0  0
   38.2800   26.8950   31.8410 C   0  0  0  0  0  0  0  0  0  0  0  0
   38.6810   28.0370   31.2210 N   0  0  0  0  0  0  0  0  0  0  0  0
   37.8940   28.7120   30.3370 C   0  0  0  0  0  0  0  0  0  0  0  0
   36.6550   28.2450   30.0500 N   0  0  0  0  0  0  0  0  0  0  0  0
   39.1270   26.2330   32.7560 N   0  0  0  0  0  0  0  0  0  0  0  0
   40.4630   26.2520   32.6080 C   0  0  0  0  0  0  0  0  0  0  0  0
   41.3000   25.6050   33.5190 C   0  0  0  0  0  0  0  0  0  0  0  0
   40.7240   24.9430   34.5810 C   0  0  0  0  0  0  0  0  0  0  0  0
   41.4420   24.3540   35.4140 O   0  0  0  0  0  0  0  0  0  0  0  0
   39.3880   24.9340   34.7140 N   0  0  0  0  0  0  0  0  0  0  0  0
   38.6390   25.5770   33.8010 C   0  0  0  0  0  0  0  0  0  0  0  0
   37.3850   25.5580   33.9420 O   0  0  0  0  0  0  0  0  0  0  0  0
   35.2140   26.8230   30.3490 H   0  0  0  0  0  0  0  0  0  0  0  0
   36.5280   25.5420   31.9130 H   0  0  0  0  0  0  0  0  0  0  0  0
   38.3130   29.6260   29.8900 H   0  0  0  0  0  0  0  0  0  0  0  0
   40.8620   26.7980   31.7390 H   0  0  0  0  0  0  0  0  0  0  0  0
   42.3670   25.6450   33.3620 H   0  0  0  0  0  0  0  0  0  0  0  0
   39.3280   22.9640   36.2410 C   0  0  1  0  0  3  0  0  0  0  0  0
   38.7370   24.2520   35.8130 C   0  0  1  0  0  3  0  0  0  0  0  0
   38.5230   25.1890   37.0090 C   0  0  0  0  0  3  0  0  0  0  0  0
   37.9040   26.0260   36.5830 H   0  0  0  0  0  0  0  0  0  0  0  0
   37.7310   24.5680   37.9350 O   0  0  0  0  0  0  0  0  0  0  0  0
   38.1570   23.3070   38.3310 C   0  0  0  0  0  3  0  0  0  0  0  0
   37.4840   22.4880   38.0010 H   0  0  0  0  0  0  0  0  0  0  0  0
   39.5510   23.0380   37.7500 C   0  0  1  0  0  3  0  0  0  0  0  0
   38.4140   21.8840   36.1170 O   0  0  0  0  0  0  0  0  0  0  0  0
   37.5070   22.2150   35.9800 H   0  0  0  0  0  0  0  0  0  0  0  0
   40.0720   21.8840   38.2770 O   0  0  0  0  0  0  0  0  0  0  0  0
   40.5030   22.1010   39.1360 H   0  0  0  0  0  0  0  0  0  0  0  0
  1  2  1  0  0  0  0
  2  3  2  0  0  0  0
  2 16  1  0  0  0  0
  3  7  1  0  0  0  0
  4  3  1  0  0  0  0
  5  4  2  0  0  0  0
  6  5  1  0  0  0  0
  6  1  2  0  0  0  0
  7 13  1  0  0  0  0
  8  7  1  0  0  0  0
  8  9  2  0  0  0  0
  9 10  1  0  0  0  0
 10 12  1  0  0  0  0
 10 11  2  0  0  0  0
 13 14  2  0  0  0  0
 13 12  1  0  0  0  0
 15  1  1  0  0  0  0
 17  5  1  0  0  0  0
 18  8  1  0  0  0  0
 19  9  1  0  0  0  0
 20 28  1  1  0  0  0
 20 27  1  0  0  0  0
 21 12  1  6  0  0  0
 21 20  1  0  0  0  0
 21 22  1  0  0  0  0
 22 24  1  0  0  0  0
 23 22  1  0  0  0  0
 24 25  1  0  0  0  0
 26 25  1  0  0  0  0
 27 30  1  1  0  0  0
 27 25  1  0  0  0  0
 29 28  1  0  0  0  0
 30 31  1  0  0  0  0
M  END
>  <minimizedAffinity>
-5.36712122

$$$$

 OpenBabel03272505243D

 31 33  0  0  1  0  0  0  0  0999 V2000
   35.4750   21.5060   31.2680 C   0  0  0  0  0  0  0  0  0  0  0  0
   35.9750   22.6910   31.8520 C   0  0  0  0  0  0  0  0  0  0  0  0
   37.1620   22.6720   32.5550 C   0  0  0  0  0  0  0  0  0  0  0  0
   37.8130   21.4830   32.6570 N   0  0  0  0  0  0  0  0  0  0  0  0
   37.3410   20.3340   32.0980 C   0  0  0  0  0  0  0  0  0  0  0  0
   36.1750   20.3540   31.4070 N   0  0  0  0  0  0  0  0  0  0  0  0
   37.6930   23.8400   33.1430 N   0  0  0  0  0  0  0  0  0  0  0  0
   38.4110   23.7840   34.2790 C   0  0  0  0  0  0  0  0  0  0  0  0
   38.9450   24.9390   34.8550 C   0  0  0  0  0  0  0  0  0  0  0  0
   38.7200   26.1450   34.2300 C   0  0  0  0  0  0  0  0  0  0  0  0
   39.1810   27.1970   34.7170 O   0  0  0  0  0  0  0  0  0  0  0  0
   38.0000   26.1850   33.0960 N   0  0  0  0  0  0  0  0  0  0  0  0
   37.5150   25.0350   32.5950 C   0  0  0  0  0  0  0  0  0  0  0  0
   36.8420   25.0910   31.5280 O   0  0  0  0  0  0  0  0  0  0  0  0
   34.5770   21.4270   30.7130 H   0  0  0  0  0  0  0  0  0  0  0  0
   35.3120   23.5120   31.6730 H   0  0  0  0  0  0  0  0  0  0  0  0
   37.9430   19.4240   32.2390 H   0  0  0  0  0  0  0  0  0  0  0  0
   38.5550   22.7900   34.7300 H   0  0  0  0  0  0  0  0  0  0  0  0
   39.5140   24.8480   35.7670 H   0  0  0  0  0  0  0  0  0  0  0  0
   37.9930   27.4450   30.9460 C   0  0  1  0  0  3  0  0  0  0  0  0
   37.7380   27.4280   32.4040 C   0  0  1  0  0  3  0  0  0  0  0  0
   36.3400   27.9700   32.7300 C   0  0  0  0  0  3  0  0  0  0  0  0
   36.3530   28.0840   33.8490 H   0  0  0  0  0  0  0  0  0  0  0  0
   36.2140   29.2340   32.2240 O   0  0  0  0  0  0  0  0  0  0  0  0
   36.5240   29.3680   30.8760 C   0  0  0  0  0  3  0  0  0  0  0  0
   37.4390   29.9660   30.6890 H   0  0  0  0  0  0  0  0  0  0  0  0
   36.7330   27.9770   30.2650 C   0  0  1  0  0  3  0  0  0  0  0  0
   38.9700   28.4080   30.5810 O   0  0  0  0  0  0  0  0  0  0  0  0
   39.1380   29.0260   31.3170 H   0  0  0  0  0  0  0  0  0  0  0  0
   36.8530   28.0690   28.9020 O   0  0  0  0  0  0  0  0  0  0  0  0
   35.9500   28.0750   28.5090 H   0  0  0  0  0  0  0  0  0  0  0  0
  1  6  2  0  0  0  0
  1  2  1  0  0  0  0
  2  3  2  0  0  0  0
  3  4  1  0  0  0  0
  3  7  1  0  0  0  0
  5 17  1  0  0  0  0
  5  4  2  0  0  0  0
  6  5  1  0  0  0  0
  7  8  1  0  0  0  0
  8 18  1  0  0  0  0
  8  9  2  0  0  0  0
  9 19  1  0  0  0  0
 10 11  2  0  0  0  0
 10  9  1  0  0  0  0
 12 10  1  0  0  0  0
 13 12  1  0  0  0  0
 13  7  1  0  0  0  0
 14 13  2  0  0  0  0
 15  1  1  0  0  0  0
 16  2  1  0  0  0  0
 20 28  1  1  0  0  0
 20 21  1  0  0  0  0
 21 22  1  0  0  0  0
 21 12  1  6  0  0  0
 22 23  1  0  0  0  0
 24 22  1  0  0  0  0
 25 24  1  0  0  0  0
 26 25  1  0  0  0  0
 27 30  1  6  0  0  0
 27 25  1  0  0  0  0
 27 20  1  0  0  0  0
 28 29  1  0  0  0  0
 31 30  1  0  0  0  0
M  END
>  <minimizedAffinity>
-5.36268568

$$$$

 OpenBabel03272505243D

 31 33  0  0  1  0  0  0  0  0999 V2000
   38.7750   25.9480   36.0690 C   0  0  0  0  0  0  0  0  0  0  0  0
   38.0780   25.0740   35.2060 C   0  0  0  0  0  0  0  0  0  0  0  0
   37.8970   25.4050   33.8790 C   0  0  0  0  0  0  0  0  0  0  0  0
   38.4110   26.5890   33.4520 N   0  0  0  0  0  0  0  0  0  0  0  0
   39.0850   27.4400   34.2740 C   0  0  0  0  0  0  0  0  0  0  0  0
   39.2630   27.1130   35.5780 N   0  0  0  0  0  0  0  0  0  0  0  0
   37.2130   24.5500   32.9880 N   0  0  0  0  0  0  0  0  0  0  0  0
   36.4920   25.0420   31.9640 C   0  0  0  0  0  0  0  0  0  0  0  0
   35.8240   24.1960   31.0780 C   0  0  0  0  0  0  0  0  0  0  0  0
   35.9190   22.8360   31.2750 C   0  0  0  0  0  0  0  0  0  0  0  0
   35.3340   22.0500   30.5020 O   0  0  0  0  0  0  0  0  0  0  0  0
   36.6420   22.3600   32.3020 N   0  0  0  0  0  0  0  0  0  0  0  0
   37.2610   23.2310   33.1190 C   0  0  0  0  0  0  0  0  0  0  0  0
   37.9370   22.7660   34.0790 O   0  0  0  0  0  0  0  0  0  0  0  0
   38.9610   25.7760   37.0970 H   0  0  0  0  0  0  0  0  0  0  0  0
   37.7400   24.2060   35.7350 H   0  0  0  0  0  0  0  0  0  0  0  0
   39.4620   28.3740   33.8300 H   0  0  0  0  0  0  0  0  0  0  0  0
   36.4560   26.1380   31.8610 H   0  0  0  0  0  0  0  0  0  0  0  0
   35.2570   24.6330   30.2700 H   0  0  0  0  0  0  0  0  0  0  0  0
   35.5180   20.1890   32.7890 C   0  0  1  0  0  3  0  0  0  0  0  0
   36.7710   20.9400   32.5490 C   0  0  1  0  0  3  0  0  0  0  0  0
   37.6300   20.2580   31.4770 C   0  0  0  0  0  3  0  0  0  0  0  0
   38.6110   20.8050   31.5350 H   0  0  0  0  0  0  0  0  0  0  0  0
   37.8930   18.9710   31.8570 O   0  0  0  0  0  0  0  0  0  0  0  0
   36.7800   18.2120   32.1940 C   0  0  0  0  0  3  0  0  0  0  0  0
   36.7310   17.9480   33.2700 H   0  0  0  0  0  0  0  0  0  0  0  0
   35.5090   18.9930   31.8390 C   0  0  1  0  0  3  0  0  0  0  0  0
   35.4970   19.5690   34.0660 O   0  0  0  0  0  0  0  0  0  0  0  0
   36.3880   19.5670   34.4630 H   0  0  0  0  0  0  0  0  0  0  0  0
   34.4030   18.1950   31.9850 O   0  0  0  0  0  0  0  0  0  0  0  0
   34.2820   17.6770   31.1560 H   0  0  0  0  0  0  0  0  0  0  0  0
  1 15  1  0  0  0  0
  2 16  1  0  0  0  0
  2  1  2  0  0  0  0
  3  2  1  0  0  0  0
  4  3  2  0  0  0  0
  4  5  1  0  0  0  0
  5  6  2  0  0  0  0
  6  1  1  0  0  0  0
  7 13  1  0  0  0  0
  7  3  1  0  0  0  0
  8  7  1  0  0  0  0
  9 10  1  0  0  0  0
  9  8  2  0  0  0  0
 10 12  1  0  0  0  0
 11 10  2  0  0  0  0
 12 13  1  0  0  0  0
 13 14  2  0  0  0  0
 17  5  1  0  0  0  0
 18  8  1  0  0  0  0
 19  9  1  0  0  0  0
 20 28  1  1  0  0  0
 21 12  1  6  0  0  0
 21 20  1  0  0  0  0
 22 23  1  0  0  0  0
 22 24  1  0  0  0  0
 22 21  1  0  0  0  0
 24 25  1  0  0  0  0
 25 26  1  0  0  0  0
 27 30  1  1  0  0  0
 27 25  1  0  0  0  0
 27 20  1  0  0  0  0
 28 29  1  0  0  0  0
 31 30  1  0  0  0  0
M  END
>  <minimizedAffinity>
-5.28630924

$$$$

 OpenBabel03272505243D

 31 33  0  0  1  0  0  0  0  0999 V2000
   38.6690   22.7000   36.6800 C   0  0  0  0  0  0  0  0  0  0  0  0
   38.4890   23.5870   35.5960 C   0  0  0  0  0  0  0  0  0  0  0  0
   38.1320   24.9010   35.8260 C   0  0  0  0  0  0  0  0  0  0  0  0
   37.9650   25.2890   37.1180 N   0  0  0  0  0  0  0  0  0  0  0  0
   38.1350   24.4420   38.1710 C   0  0  0  0  0  0  0  0  0  0  0  0
   38.4860   23.1520   37.9440 N   0  0  0  0  0  0  0  0  0  0  0  0
   37.9540   25.8160   34.7660 N   0  0  0  0  0  0  0  0  0  0  0  0
   37.0580   26.8160   34.8510 C   0  0  0  0  0  0  0  0  0  0  0  0
   36.8900   27.7260   33.8070 C   0  0  0  0  0  0  0  0  0  0  0  0
   37.6660   27.5790   32.6790 C   0  0  0  0  0  0  0  0  0  0  0  0
   37.5410   28.3740   31.7260 O   0  0  0  0  0  0  0  0  0  0  0  0
   38.5550   26.5750   32.6090 N   0  0  0  0  0  0  0  0  0  0  0  0
   38.6680   25.7330   33.6510 C   0  0  0  0  0  0  0  0  0  0  0  0
   39.5100   24.7950   33.5680 O   0  0  0  0  0  0  0  0  0  0  0  0
   38.9420   21.6790   36.5990 H   0  0  0  0  0  0  0  0  0  0  0  0
   38.6520   23.0880   34.6640 H   0  0  0  0  0  0  0  0  0  0  0  0
   37.9740   24.8550   39.1780 H   0  0  0  0  0  0  0  0  0  0  0  0
   36.4690   26.8790   35.7790 H   0  0  0  0  0  0  0  0  0  0  0  0
   36.1590   28.5130   33.9170 H   0  0  0  0  0  0  0  0  0  0  0  0
   38.7070   26.3070   30.1350 C   0  0  1  0  0  3  0  0  0  0  0  0
   39.3930   26.3800   31.4440 C   0  0  1  0  0  3  0  0  0  0  0  0
   40.5500   27.3870   31.4080 C   0  0  0  0  0  3  0  0  0  0  0  0
   41.0930   27.2020   32.3760 H   0  0  0  0  0  0  0  0  0  0  0  0
   41.4230   27.0400   30.4150 O   0  0  0  0  0  0  0  0  0  0  0  0
   40.8530   26.8560   29.1610 C   0  0  0  0  0  3  0  0  0  0  0  0
   40.8800   25.8030   28.8120 H   0  0  0  0  0  0  0  0  0  0  0  0
   39.3870   27.3050   29.2010 C   0  0  1  0  0  3  0  0  0  0  0  0
   38.9300   25.0680   29.4780 O   0  0  0  0  0  0  0  0  0  0  0  0
   39.6620   24.5810   29.9010 H   0  0  0  0  0  0  0  0  0  0  0  0
   38.8560   27.3120   27.9370 O   0  0  0  0  0  0  0  0  0  0  0  0
   39.0790   28.1710   27.5100 H   0  0  0  0  0  0  0  0  0  0  0  0
  1  6  1  0  0  0  0
  2  3  1  0  0  0  0
  2  1  2  0  0  0  0
  3  4  2  0  0  0  0
  4  5  1  0  0  0  0
  5 17  1  0  0  0  0
  6  5  2  0  0  0  0
  7  8  1  0  0  0  0
  7  3  1  0  0  0  0
  8 18  1  0  0  0  0
  9 19  1  0  0  0  0
  9  8  2  0  0  0  0
 10  9  1  0  0  0  0
 11 10  2  0  0  0  0
 12 10  1  0  0  0  0
 12 13  1  0  0  0  0
 13  7  1  0  0  0  0
 14 13  2  0  0  0  0
 15  1  1  0  0  0  0
 16  2  1  0  0  0  0
 20 28  1  6  0  0  0
 20 21  1  0  0  0  0
 21 12  1  1  0  0  0
 22 21  1  0  0  0  0
 22 23  1  0  0  0  0
 24 22  1  0  0  0  0
 25 27  1  0  0  0  0
 25 24  1  0  0  0  0
 26 25  1  0  0  0  0
 27 30  1  6  0  0  0
 27 20  1  0  0  0  0
 28 29  1  0  0  0  0
 31 30  1  0  0  0  0
M  END
>  <minimizedAffinity>
-5.14531565

$$$$

 OpenBabel03272505243D

 31 33  0  0  1  0  0  0  0  0999 V2000
   33.1340   29.8350   32.7050 C   0  0  0  0  0  0  0  0  0  0  0  0
   34.3150   29.0840   32.5160 C   0  0  0  0  0  0  0  0  0  0  0  0
   35.3200   29.5630   31.7000 C   0  0  0  0  0  0  0  0  0  0  0  0
   35.1200   30.7670   31.1000 N   0  0  0  0  0  0  0  0  0  0  0  0
   33.9850   31.4990   31.2740 C   0  0  0  0  0  0  0  0  0  0  0  0
   33.0000   31.0280   32.0770 N   0  0  0  0  0  0  0  0  0  0  0  0
   36.5160   28.8430   31.4970 N   0  0  0  0  0  0  0  0  0  0  0  0
   37.1810   28.9100   30.3290 C   0  0  0  0  0  0  0  0  0  0  0  0
   38.3690   28.2050   30.1320 C   0  0  0  0  0  0  0  0  0  0  0  0
   38.8510   27.4340   31.1660 C   0  0  0  0  0  0  0  0  0  0  0  0
   39.9100   26.7900   31.0250 O   0  0  0  0  0  0  0  0  0  0  0  0
   38.1760   27.3760   32.3260 N   0  0  0  0  0  0  0  0  0  0  0  0
   37.0370   28.0810   32.4490 C   0  0  0  0  0  0  0  0  0  0  0  0
   36.4150   28.0160   33.5470 O   0  0  0  0  0  0  0  0  0  0  0  0
   32.3140   29.5470   33.3110 H   0  0  0  0  0  0  0  0  0  0  0  0
   34.2720   28.1630   33.0590 H   0  0  0  0  0  0  0  0  0  0  0  0
   33.9220   32.4610   30.7430 H   0  0  0  0  0  0  0  0  0  0  0  0
   36.7430   29.5430   29.5420 H   0  0  0  0  0  0  0  0  0  0  0  0
   38.8690   28.2870   29.1790 H   0  0  0  0  0  0  0  0  0  0  0  0
   38.9140   27.3000   34.7050 C   0  0  1  0  0  3  0  0  0  0  0  0
   38.6430   26.5800   33.4400 C   0  0  1  0  0  3  0  0  0  0  0  0
   37.7430   25.3610   33.6780 C   0  0  0  0  0  3  0  0  0  0  0  0
   37.7790   24.8090   32.6980 H   0  0  0  0  0  0  0  0  0  0  0  0
   38.3300   24.5360   34.5970 O   0  0  0  0  0  0  0  0  0  0  0  0
   38.7070   25.1450   35.7870 C   0  0  0  0  0  3  0  0  0  0  0  0
   39.8060   25.1960   35.9310 H   0  0  0  0  0  0  0  0  0  0  0  0
   38.1580   26.5770   35.8180 C   0  0  1  0  0  3  0  0  0  0  0  0
   40.2670   27.1730   35.1180 O   0  0  0  0  0  0  0  0  0  0  0  0
   40.7150   26.4660   34.6180 H   0  0  0  0  0  0  0  0  0  0  0  0
   38.3530   27.1350   37.0560 O   0  0  0  0  0  0  0  0  0  0  0  0
   37.6070   26.8660   37.6390 H   0  0  0  0  0  0  0  0  0  0  0  0
  1 15  1  0  0  0  0
  2  1  1  0  0  0  0
  2 16  1  0  0  0  0
  3  2  2  0  0  0  0
  4  5  2  0  0  0  0
  4  3  1  0  0  0  0
  5  6  1  0  0  0  0
  6  1  2  0  0  0  0
  7  3  1  0  0  0  0
  7 13  1  0  0  0  0
  8  7  1  0  0  0  0
  9  8  2  0  0  0  0
  9 10  1  0  0  0  0
 10 12  1  0  0  0  0
 11 10  2  0  0  0  0
 12 13  1  0  0  0  0
 13 14  2  0  0  0  0
 17  5  1  0  0  0  0
 18  8  1  0  0  0  0
 19  9  1  0  0  0  0
 20 28  1  1  0  0  0
 20 27  1  0  0  0  0
 21 12  1  6  0  0  0
 21 22  1  0  0  0  0
 21 20  1  0  0  0  0
 22 24  1  0  0  0  0
 23 22  1  0  0  0  0
 24 25  1  0  0  0  0
 25 27  1  0  0  0  0
 25 26  1  0  0  0  0
 27 30  1  1  0  0  0
 29 28  1  0  0  0  0
 30 31  1  0  0  0  0
M  END
>  <minimizedAffinity>
-5.10846138

$$$$

 OpenBabel03272505243D

 31 33  0  0  1  0  0  0  0  0999 V2000
   37.4240   27.0080   30.4220 C   0  0  0  0  0  0  0  0  0  0  0  0
   37.6730   25.9270   31.2970 C   0  0  0  0  0  0  0  0  0  0  0  0
   37.5840   26.1040   32.6630 C   0  0  0  0  0  0  0  0  0  0  0  0
   37.2530   27.3420   33.1150 N   0  0  0  0  0  0  0  0  0  0  0  0
   37.0110   28.3920   32.2810 C   0  0  0  0  0  0  0  0  0  0  0  0
   37.0980   28.2170   30.9400 N   0  0  0  0  0  0  0  0  0  0  0  0
   37.8170   25.0430   33.5640 N   0  0  0  0  0  0  0  0  0  0  0  0
   38.3490   25.2650   34.7790 C   0  0  0  0  0  0  0  0  0  0  0  0
   38.5700   24.2160   35.6730 C   0  0  0  0  0  0  0  0  0  0  0  0
   38.2300   22.9400   35.2830 C   0  0  0  0  0  0  0  0  0  0  0  0
   38.4150   21.9790   36.0570 O   0  0  0  0  0  0  0  0  0  0  0  0
   37.7010   22.7350   34.0660 N   0  0  0  0  0  0  0  0  0  0  0  0
   37.5130   23.7900   33.2530 C   0  0  0  0  0  0  0  0  0  0  0  0
   37.0140   23.5780   32.1120 O   0  0  0  0  0  0  0  0  0  0  0  0
   37.4680   26.9640   29.3650 H   0  0  0  0  0  0  0  0  0  0  0  0
   37.9310   25.0450   30.7480 H   0  0  0  0  0  0  0  0  0  0  0  0
   36.7510   29.3540   32.7480 H   0  0  0  0  0  0  0  0  0  0  0  0
   38.6000   26.3060   35.0320 H   0  0  0  0  0  0  0  0  0  0  0  0
   38.9990   24.4390   36.6390 H   0  0  0  0  0  0  0  0  0  0  0  0
   35.8790   21.1170   33.5410 C   0  0  1  0  0  3  0  0  0  0  0  0
   37.3280   21.4120   33.6110 C   0  0  1  0  0  3  0  0  0  0  0  0
   38.0320   21.0480   32.2970 C   0  0  0  0  0  3  0  0  0  0  0  0
   39.1250   21.1340   32.5500 H   0  0  0  0  0  0  0  0  0  0  0  0
   37.8130   19.7280   32.0160 O   0  0  0  0  0  0  0  0  0  0  0  0
   36.4810   19.3340   32.0190 C   0  0  0  0  0  3  0  0  0  0  0  0
   36.2260   18.6420   32.8480 H   0  0  0  0  0  0  0  0  0  0  0  0
   35.5870   20.5730   32.1430 C   0  0  1  0  0  3  0  0  0  0  0  0
   35.5090   20.0310   34.3770 O   0  0  0  0  0  0  0  0  0  0  0  0
   36.2980   19.5420   34.6770 H   0  0  0  0  0  0  0  0  0  0  0  0
   34.2710   20.2320   31.9600 O   0  0  0  0  0  0  0  0  0  0  0  0
   34.0830   20.2270   30.9930 H   0  0  0  0  0  0  0  0  0  0  0  0
  1  6  2  0  0  0  0
  1  2  1  0  0  0  0
  2  3  2  0  0  0  0
  3  4  1  0  0  0  0
  3  7  1  0  0  0  0
  5 17  1  0  0  0  0
  5  4  2  0  0  0  0
  6  5  1  0  0  0  0
  7  8  1  0  0  0  0
  8 18  1  0  0  0  0
  8  9  2  0  0  0  0
  9 19  1  0  0  0  0
 10  9  1  0  0  0  0
 10 11  2  0  0  0  0
 12 10  1  0  0  0  0
 13  7  1  0  0  0  0
 13 12  1  0  0  0  0
 14 13  2  0  0  0  0
 15  1  1  0  0  0  0
 16  2  1  0  0  0  0
 20 21  1  0  0  0  0
 20 28  1  1  0  0  0
 21 12  1  6  0  0  0
 22 23  1  0  0  0  0
 22 21  1  0  0  0  0
 24 25  1  0  0  0  0
 24 22  1  0  0  0  0
 25 27  1  0  0  0  0
 25 26  1  0  0  0  0
 27 30  1  1  0  0  0
 27 20  1  0  0  0  0
 28 29  1  0  0  0  0
 31 30  1  0  0  0  0
M  END
>  <minimizedAffinity>
-5.0887723

$$$$

 OpenBabel03272505243D

 31 33  0  0  1  0  0  0  0  0999 V2000
   41.4100   23.6670   35.7330 C   0  0  0  0  0  0  0  0  0  0  0  0
   40.5110   24.0690   34.7200 C   0  0  0  0  0  0  0  0  0  0  0  0
   39.2790   23.4580   34.6030 C   0  0  0  0  0  0  0  0  0  0  0  0
   38.9800   22.4720   35.4900 N   0  0  0  0  0  0  0  0  0  0  0  0
   39.8390   22.0760   36.4710 C   0  0  0  0  0  0  0  0  0  0  0  0
   41.0490   22.6780   36.5850 N   0  0  0  0  0  0  0  0  0  0  0  0
   38.3540   23.8410   33.6080 N   0  0  0  0  0  0  0  0  0  0  0  0
   37.5060   22.9500   33.0640 C   0  0  0  0  0  0  0  0  0  0  0  0
   36.5850   23.3310   32.0880 C   0  0  0  0  0  0  0  0  0  0  0  0
   36.5610   24.6500   31.6900 C   0  0  0  0  0  0  0  0  0  0  0  0
   35.7510   25.0260   30.8200 O   0  0  0  0  0  0  0  0  0  0  0  0
   37.4140   25.5280   32.2430 N   0  0  0  0  0  0  0  0  0  0  0  0
   38.2760   25.0940   33.1800 C   0  0  0  0  0  0  0  0  0  0  0  0
   39.0710   25.9330   33.6890 O   0  0  0  0  0  0  0  0  0  0  0  0
   42.3730   24.0790   35.8970 H   0  0  0  0  0  0  0  0  0  0  0  0
   40.9370   24.8450   34.1190 H   0  0  0  0  0  0  0  0  0  0  0  0
   39.5020   21.2690   37.1370 H   0  0  0  0  0  0  0  0  0  0  0  0
   37.5760   21.9110   33.4230 H   0  0  0  0  0  0  0  0  0  0  0  0
   35.9240   22.5840   31.6770 H   0  0  0  0  0  0  0  0  0  0  0  0
   37.9690   27.2400   30.5190 C   0  0  1  0  0  3  0  0  0  0  0  0
   37.4260   26.9230   31.8590 C   0  0  1  0  0  3  0  0  0  0  0  0
   36.0540   27.5770   32.0700 C   0  0  0  0  0  3  0  0  0  0  0  0
   35.8540   27.4250   33.1670 H   0  0  0  0  0  0  0  0  0  0  0  0
   36.1630   28.9280   31.8910 O   0  0  0  0  0  0  0  0  0  0  0  0
   36.7500   29.3230   30.6950 C   0  0  0  0  0  3  0  0  0  0  0  0
   37.7420   29.8050   30.8260 H   0  0  0  0  0  0  0  0  0  0  0  0
   36.9340   28.0970   29.7930 C   0  0  1  0  0  3  0  0  0  0  0  0
   39.0940   28.1040   30.5840 O   0  0  0  0  0  0  0  0  0  0  0  0
   39.1730   28.5020   31.4710 H   0  0  0  0  0  0  0  0  0  0  0  0
   37.3360   28.4840   28.5400 O   0  0  0  0  0  0  0  0  0  0  0  0
   36.5350   28.7160   28.0140 H   0  0  0  0  0  0  0  0  0  0  0  0
  1 15  1  0  0  0  0
  1  6  1  0  0  0  0
  2  1  2  0  0  0  0
  3  2  1  0  0  0  0
  3  4  2  0  0  0  0
  4  5  1  0  0  0  0
  5  6  2  0  0  0  0
  5 17  1  0  0  0  0
  7  3  1  0  0  0  0
  8 18  1  0  0  0  0
  8  7  1  0  0  0  0
  9  8  2  0  0  0  0
 10  9  1  0  0  0  0
 10 12  1  0  0  0  0
 11 10  2  0  0  0  0
 12 13  1  0  0  0  0
 13  7  1  0  0  0  0
 13 14  2  0  0  0  0
 16  2  1  0  0  0  0
 19  9  1  0  0  0  0
 20 28  1  1  0  0  0
 20 21  1  0  0  0  0
 21 22  1  0  0  0  0
 21 12  1  6  0  0  0
 22 23  1  0  0  0  0
 24 22  1  0  0  0  0
 25 26  1  0  0  0  0
 25 24  1  0  0  0  0
 27 30  1  6  0  0  0
 27 20  1  0  0  0  0
 27 25  1  0  0  0  0
 28 29  1  0  0  0  0
 31 30  1  0  0  0  0
M  END
>  <minimizedAffinity>
-5.029181

$$$$
