
 OpenBabel03272508263D

 41 44  0  0  1  0  0  0  0  0999 V2000
   33.6690   28.7940   47.1830 C   0  0  2  0  0  0  0  0  0  0  0  0
   34.4010   28.0090   48.2620 C   0  0  2  0  0  0  0  0  0  0  0  0
   33.4950   27.8050   49.2560 O   0  0  0  0  0  0  0  0  0  0  0  0
   32.2250   27.8650   48.7660 C   0  0  0  0  0  0  0  0  0  0  0  0
   32.3050   28.0970   47.2680 C   0  0  1  0  0  0  0  0  0  0  0  0
   33.5040   29.8370   47.4990 H   0  0  0  0  0  0  0  0  0  0  0  0
   34.7010   27.0320   47.8440 H   0  0  0  0  0  0  0  0  0  0  0  0
   31.6720   26.9080   48.9240 H   0  0  0  0  0  0  0  0  0  0  0  0
   31.6090   28.6700   49.2370 H   0  0  0  0  0  0  0  0  0  0  0  0
   32.4590   27.1250   46.7800 H   0  0  0  0  0  0  0  0  0  0  0  0
   35.4560   30.2630   48.9670 C   0  0  1  0  0  0  0  0  0  0  0  0
   35.5540   28.8460   48.7130 C   0  0  1  0  0  0  0  0  0  0  0  0
   35.6910   29.2930   50.1310 C   0  0  0  0  0  0  0  0  0  0  0  0
   34.5470   30.8600   49.1580 H   0  0  0  0  0  0  0  0  0  0  0  0
   36.5250   28.5010   48.2530 H   0  0  0  0  0  0  0  0  0  0  0  0
   36.6960   29.2870   50.6200 H   0  0  0  0  0  0  0  0  0  0  0  0
   34.8910   29.1210   50.8610 H   0  0  0  0  0  0  0  0  0  0  0  0
   36.6460   31.1850   48.7490 C   0  0  0  0  0  0  0  0  0  0  0  0
   36.9180   32.1190   49.7480 C   0  0  0  0  0  0  0  0  0  0  0  0
   37.9980   32.9560   49.4800 C   0  0  0  0  0  0  0  0  0  0  0  0
   38.7100   32.8460   48.3230 N   0  0  0  0  0  0  0  0  0  0  0  0
   38.4070   31.9200   47.3830 C   0  0  0  0  0  0  0  0  0  0  0  0
   37.3630   31.0820   47.6000 N   0  0  0  0  0  0  0  0  0  0  0  0
   36.3230   32.1630   50.6430 H   0  0  0  0  0  0  0  0  0  0  0  0
   38.2680   33.7030   50.2050 H   0  0  0  0  0  0  0  0  0  0  0  0
   38.9510   31.8060   46.4560 H   0  0  0  0  0  0  0  0  0  0  0  0
   34.2180   28.6530   45.9230 O   0  0  0  0  0  0  0  0  0  0  0  0
   34.0160   29.4900   45.4350 H   0  0  0  0  0  0  0  0  0  0  0  0
   31.3040   28.8770   46.7740 O   0  0  0  0  0  0  0  0  0  0  0  0
   29.0020   29.6030   46.8930 C   0  0  2  0  0  3  0  0  0  0  0  0
   30.0280   28.5080   47.0770 C   0  0  1  0  0  3  0  0  0  0  0  0
   29.5200   27.3110   46.3230 C   0  0  0  0  0  3  0  0  0  0  0  0
   29.5330   27.4480   45.2270 H   0  0  0  0  0  0  0  0  0  0  0  0
   28.2140   27.0660   46.6830 O   0  0  0  0  0  0  0  0  0  0  0  0
   27.8040   27.7050   47.8310 C   0  0  0  0  0  3  0  0  0  0  0  0
   28.2970   27.3450   48.7610 H   0  0  0  0  0  0  0  0  0  0  0  0
   27.8020   29.2160   47.7340 C   0  0  2  0  0  3  0  0  0  0  0  0
   28.5640   29.5430   45.5560 O   0  0  0  0  0  0  0  0  0  0  0  0
   27.7280   29.0220   45.4590 H   0  0  0  0  0  0  0  0  0  0  0  0
   26.6190   29.6940   47.1710 O   0  0  0  0  0  0  0  0  0  0  0  0
   26.7640   30.6200   46.8500 H   0  0  0  0  0  0  0  0  0  0  0  0
  1  5  1  0  0  0  0
  1  6  1  1  0  0  0
  1  2  1  0  0  0  0
  2  7  1  6  0  0  0
  2 12  1  0  0  0  0
  2  3  1  0  0  0  0
  4  8  1  0  0  0  0
  4  9  1  0  0  0  0
  4  3  1  0  0  0  0
  5 10  1  6  0  0  0
  5  4  1  0  0  0  0
 11 14  1  6  0  0  0
 11 13  1  0  0  0  0
 12 15  1  6  0  0  0
 12 11  1  0  0  0  0
 12 13  1  0  0  0  0
 13 16  1  0  0  0  0
 13 17  1  0  0  0  0
 18 11  1  0  0  0  0
 18 19  1  0  0  0  0
 19 24  1  0  0  0  0
 20 19  2  0  0  0  0
 20 25  1  0  0  0  0
 21 20  1  0  0  0  0
 22 23  1  0  0  0  0
 22 21  2  0  0  0  0
 23 18  2  0  0  0  0
 26 22  1  0  0  0  0
 27  1  1  0  0  0  0
 28 27  1  0  0  0  0
 29  5  1  0  0  0  0
 30 38  1  6  0  0  0
 30 31  1  0  0  0  0
 30 37  1  0  0  0  0
 31 29  1  6  0  0  0
 32 34  1  0  0  0  0
 32 31  1  0  0  0  0
 33 32  1  0  0  0  0
 34 35  1  0  0  0  0
 35 36  1  0  0  0  0
 37 40  1  6  0  0  0
 37 35  1  0  0  0  0
 39 38  1  0  0  0  0
 41 40  1  0  0  0  0
M  END
>  <minimizedAffinity>
-5.65735388

>  <minimizedRMSD>
1.8903712

$$$$
