
 OpenBabel03272508273D

 41 44  0  0  1  0  0  0  0  0999 V2000
   33.8900   28.9940   47.3030 C   0  0  2  0  0  0  0  0  0  0  0  0
   34.6440   28.1990   48.3600 C   0  0  2  0  0  0  0  0  0  0  0  0
   33.7580   27.9850   49.3700 O   0  0  0  0  0  0  0  0  0  0  0  0
   32.4790   28.0490   48.9070 C   0  0  0  0  0  0  0  0  0  0  0  0
   32.5280   28.2950   47.4100 C   0  0  1  0  0  0  0  0  0  0  0  0
   33.7300   30.0340   47.6330 H   0  0  0  0  0  0  0  0  0  0  0  0
   34.9360   27.2260   47.9270 H   0  0  0  0  0  0  0  0  0  0  0  0
   31.9300   27.0900   49.0670 H   0  0  0  0  0  0  0  0  0  0  0  0
   31.8720   28.8490   49.3980 H   0  0  0  0  0  0  0  0  0  0  0  0
   32.6730   27.3280   46.9090 H   0  0  0  0  0  0  0  0  0  0  0  0
   35.7210   30.4550   49.0260 C   0  0  1  0  0  0  0  0  0  0  0  0
   35.8060   29.0320   48.7960 C   0  0  1  0  0  0  0  0  0  0  0  0
   35.9480   29.5020   50.2060 C   0  0  0  0  0  0  0  0  0  0  0  0
   34.8190   31.0630   49.2080 H   0  0  0  0  0  0  0  0  0  0  0  0
   36.7720   28.6710   48.3400 H   0  0  0  0  0  0  0  0  0  0  0  0
   36.9540   29.4950   50.6930 H   0  0  0  0  0  0  0  0  0  0  0  0
   35.1480   29.3500   50.9400 H   0  0  0  0  0  0  0  0  0  0  0  0
   36.9200   31.3610   48.7900 C   0  0  0  0  0  0  0  0  0  0  0  0
   37.1160   32.4030   49.6960 C   0  0  0  0  0  0  0  0  0  0  0  0
   38.2080   33.2190   49.4140 C   0  0  0  0  0  0  0  0  0  0  0  0
   39.0010   32.9900   48.3290 N   0  0  0  0  0  0  0  0  0  0  0  0
   38.7700   31.9630   47.4790 C   0  0  0  0  0  0  0  0  0  0  0  0
   37.7170   31.1410   47.7140 N   0  0  0  0  0  0  0  0  0  0  0  0
   36.4580   32.5390   50.5370 H   0  0  0  0  0  0  0  0  0  0  0  0
   38.4230   34.0450   50.0680 H   0  0  0  0  0  0  0  0  0  0  0  0
   39.3790   31.7540   46.6100 H   0  0  0  0  0  0  0  0  0  0  0  0
   34.4140   28.8650   46.0320 O   0  0  0  0  0  0  0  0  0  0  0  0
   34.2010   29.7070   45.5560 H   0  0  0  0  0  0  0  0  0  0  0  0
   31.5170   29.0790   46.9440 O   0  0  0  0  0  0  0  0  0  0  0  0
   31.1260   29.5580   44.6090 C   0  0  2  0  0  3  0  0  0  0  0  0
   30.8900   28.6660   45.8070 C   0  0  1  0  0  3  0  0  0  0  0  0
   31.2220   27.2660   45.3750 C   0  0  0  0  0  3  0  0  0  0  0  0
   32.2990   27.1090   45.1880 H   0  0  0  0  0  0  0  0  0  0  0  0
   30.5640   26.9840   44.1980 O   0  0  0  0  0  0  0  0  0  0  0  0
   29.5450   27.8540   43.8860 C   0  0  0  0  0  3  0  0  0  0  0  0
   28.6710   27.8070   44.5730 H   0  0  0  0  0  0  0  0  0  0  0  0
   29.9980   29.2780   43.6340 C   0  0  2  0  0  3  0  0  0  0  0  0
   32.2960   29.0990   43.9730 O   0  0  0  0  0  0  0  0  0  0  0  0
   32.1000   28.4850   43.2220 H   0  0  0  0  0  0  0  0  0  0  0  0
   30.4150   29.4590   42.3170 O   0  0  0  0  0  0  0  0  0  0  0  0
   30.9700   30.2780   42.2630 H   0  0  0  0  0  0  0  0  0  0  0  0
  1  5  1  0  0  0  0
  1  6  1  1  0  0  0
  1  2  1  0  0  0  0
  2  7  1  6  0  0  0
  2 12  1  0  0  0  0
  2  3  1  0  0  0  0
  4  8  1  0  0  0  0
  4  3  1  0  0  0  0
  4  9  1  0  0  0  0
  5 10  1  6  0  0  0
  5  4  1  0  0  0  0
 11 14  1  6  0  0  0
 11 13  1  0  0  0  0
 12 15  1  6  0  0  0
 12 11  1  0  0  0  0
 12 13  1  0  0  0  0
 13 16  1  0  0  0  0
 13 17  1  0  0  0  0
 18 11  1  0  0  0  0
 18 19  1  0  0  0  0
 19 24  1  0  0  0  0
 20 19  2  0  0  0  0
 20 25  1  0  0  0  0
 21 20  1  0  0  0  0
 22 23  1  0  0  0  0
 22 21  2  0  0  0  0
 23 18  2  0  0  0  0
 26 22  1  0  0  0  0
 27  1  1  0  0  0  0
 28 27  1  0  0  0  0
 29  5  1  0  0  0  0
 30 38  1  6  0  0  0
 30 31  1  0  0  0  0
 31 29  1  1  0  0  0
 32 31  1  0  0  0  0
 33 32  1  0  0  0  0
 34 32  1  0  0  0  0
 35 34  1  0  0  0  0
 35 36  1  0  0  0  0
 37 40  1  6  0  0  0
 37 35  1  0  0  0  0
 37 30  1  0  0  0  0
 39 38  1  0  0  0  0
 41 40  1  0  0  0  0
M  END
>  <minimizedAffinity>
-4.82412672

>  <minimizedRMSD>
0.420735419

$$$$
