
 OpenBabel03262522303D

 49 52  0  0  1  0  0  0  0  0999 V2000
   38.7490   26.2360   30.9530 C   0  0  0  0  0  0  0  0  0  0  0  0
   37.7350   25.8540   31.1350 H   0  0  0  0  0  0  0  0  0  0  0  0
   39.3530   25.5500   30.3000 H   0  0  0  0  0  0  0  0  0  0  0  0
   37.9490   24.8290   33.1760 F   0  0  0  0  0  0  0  0  0  0  0  0
   39.0600   25.6320   33.2720 C   0  0  0  0  0  0  0  0  0  0  0  0
   39.5420   26.3820   32.2050 C   0  0  0  0  0  0  0  0  0  0  0  0
   40.6550   27.1690   32.3430 C   0  0  0  0  0  0  0  0  0  0  0  0
   41.3260   27.2210   33.5850 C   0  0  0  0  0  0  0  0  0  0  0  0
   40.8430   26.4770   34.6360 C   0  0  0  0  0  0  0  0  0  0  0  0
   39.7270   25.6920   34.4840 C   0  0  0  0  0  0  0  0  0  0  0  0
   40.9010   27.6860   31.4260 H   0  0  0  0  0  0  0  0  0  0  0  0
   42.1710   27.8710   33.5440 H   0  0  0  0  0  0  0  0  0  0  0  0
   41.4850   26.6540   35.4750 H   0  0  0  0  0  0  0  0  0  0  0  0
   39.3020   24.9710   35.5690 O   0  0  0  0  0  0  0  0  0  0  0  0
   38.2900   23.2010   36.8590 C   0  0  1  0  0  3  0  0  0  0  0  0
   39.0170   23.6150   35.5590 C   0  0  2  0  0  3  0  0  0  0  0  0
   40.2840   22.7670   35.4190 C   0  0  0  0  0  3  0  0  0  0  0  0
   41.1790   23.4200   35.4340 H   0  0  0  0  0  0  0  0  0  0  0  0
   40.3250   21.8310   36.4500 O   0  0  0  0  0  0  0  0  0  0  0  0
   40.5310   22.5190   37.6380 C   0  0  0  0  0  3  0  0  0  0  0  0
   41.3150   23.2890   37.4460 H   0  0  0  0  0  0  0  0  0  0  0  0
   39.2620   23.2170   38.0180 C   0  0  2  0  0  3  0  0  0  0  0  0
   37.2430   24.1010   37.0100 O   0  0  0  0  0  0  0  0  0  0  0  0
   37.5310   25.0050   36.6910 H   0  0  0  0  0  0  0  0  0  0  0  0
   38.6660   22.5410   39.0780 O   0  0  0  0  0  0  0  0  0  0  0  0
   37.6930   22.4900   38.9450 H   0  0  0  0  0  0  0  0  0  0  0  0
   38.6480   27.8830   30.2040 S   0  0  0  0  0  0  0  0  0  0  0  0
   35.7450   28.9900   32.7800 C   0  0  0  0  0  0  0  0  0  0  0  0
   35.4390   30.2750   32.3160 C   0  0  0  0  0  0  0  0  0  0  0  0
   36.1450   30.7280   31.2340 C   0  0  0  0  0  0  0  0  0  0  0  0
   37.0880   29.9160   30.6820 N   0  0  0  0  0  0  0  0  0  0  0  0
   37.3480   28.7250   31.1400 C   0  0  0  0  0  0  0  0  0  0  0  0
   36.6790   28.1990   32.2250 N   0  0  0  0  0  0  0  0  0  0  0  0
   35.2530   28.5290   33.6250 H   0  0  0  0  0  0  0  0  0  0  0  0
   35.9250   31.7190   30.8580 H   0  0  0  0  0  0  0  0  0  0  0  0
   34.4750   30.9770   32.9600 O   0  0  0  0  0  0  0  0  0  0  0  0
   34.6900   31.3970   34.2600 C   0  0  0  0  0  0  0  0  0  0  0  0
   35.7730   32.0820   34.7510 C   0  0  0  0  0  0  0  0  0  0  0  0
   35.8180   32.4160   36.0670 C   0  0  0  0  0  0  0  0  0  0  0  0
   34.7700   32.0550   36.8710 C   0  0  0  0  0  0  0  0  0  0  0  0
   33.6750   31.3600   36.3610 C   0  0  0  0  0  0  0  0  0  0  0  0
   33.6600   31.0390   35.0370 N   0  0  0  0  0  0  0  0  0  0  0  0
   36.5130   32.2850   33.9700 H   0  0  0  0  0  0  0  0  0  0  0  0
   36.6980   32.9550   36.3930 H   0  0  0  0  0  0  0  0  0  0  0  0
   34.8050   32.3220   37.9190 H   0  0  0  0  0  0  0  0  0  0  0  0
   32.5310   30.9720   37.2640 C   0  0  0  0  0  0  0  0  0  0  0  0
   32.0440   30.0510   36.9110 H   0  0  0  0  0  0  0  0  0  0  0  0
   32.9200   30.9190   38.2840 H   0  0  0  0  0  0  0  0  0  0  0  0
   31.8500   31.8660   37.2280 H   0  0  0  0  0  0  0  0  0  0  0  0
  1  2  1  0  0  0  0
  1  6  1  0  0  0  0
  3  1  1  0  0  0  0
  4  5  1  0  0  0  0
  5 10  1  0  0  0  0
  6  7  1  0  0  0  0
  6  5  2  0  0  0  0
  7  8  2  0  0  0  0
  8  9  1  0  0  0  0
  9 13  1  0  0  0  0
 10  9  2  0  0  0  0
 10 14  1  0  0  0  0
 11  7  1  0  0  0  0
 12  8  1  0  0  0  0
 15 23  1  1  0  0  0
 15 22  1  0  0  0  0
 16 14  1  1  0  0  0
 16 15  1  0  0  0  0
 17 18  1  0  0  0  0
 17 16  1  0  0  0  0
 17 19  1  0  0  0  0
 19 20  1  0  0  0  0
 20 22  1  0  0  0  0
 21 20  1  0  0  0  0
 22 25  1  1  0  0  0
 24 23  1  0  0  0  0
 26 25  1  0  0  0  0
 27  1  1  0  0  0  0
 27 32  1  0  0  0  0
 28 34  1  0  0  0  0
 29 28  1  0  0  0  0
 29 36  1  0  0  0  0
 30 29  2  0  0  0  0
 31 32  2  0  0  0  0
 31 30  1  0  0  0  0
 32 33  1  0  0  0  0
 33 28  2  0  0  0  0
 35 30  1  0  0  0  0
 36 37  1  0  0  0  0
 37 38  2  0  0  0  0
 37 42  1  0  0  0  0
 38 39  1  0  0  0  0
 39 44  1  0  0  0  0
 39 40  2  0  0  0  0
 40 45  1  0  0  0  0
 41 40  1  0  0  0  0
 41 46  1  0  0  0  0
 42 41  2  0  0  0  0
 43 38  1  0  0  0  0
 46 48  1  0  0  0  0
 47 46  1  0  0  0  0
 49 46  1  0  0  0  0
M  END
>  <minimizedAffinity>
-6.73140526

$$$$

 OpenBabel03262522303D

 49 52  0  0  1  0  0  0  0  0999 V2000
   37.5540   26.7630   31.3830 C   0  0  0  0  0  0  0  0  0  0  0  0
   36.5760   26.6030   31.8580 H   0  0  0  0  0  0  0  0  0  0  0  0
   37.7860   25.9810   30.6090 H   0  0  0  0  0  0  0  0  0  0  0  0
   37.2400   25.2390   33.6500 F   0  0  0  0  0  0  0  0  0  0  0  0
   38.4280   25.9030   33.4650 C   0  0  0  0  0  0  0  0  0  0  0  0
   38.6820   26.6980   32.3530 C   0  0  0  0  0  0  0  0  0  0  0  0
   39.8820   27.3420   32.2070 C   0  0  0  0  0  0  0  0  0  0  0  0
   40.8790   27.2000   33.1970 C   0  0  0  0  0  0  0  0  0  0  0  0
   40.6200   26.4120   34.2950 C   0  0  0  0  0  0  0  0  0  0  0  0
   39.4140   25.7720   34.4290 C   0  0  0  0  0  0  0  0  0  0  0  0
   39.9240   27.9180   31.2930 H   0  0  0  0  0  0  0  0  0  0  0  0
   41.7560   27.7550   32.9510 H   0  0  0  0  0  0  0  0  0  0  0  0
   41.4910   26.4360   34.9180 H   0  0  0  0  0  0  0  0  0  0  0  0
   39.2220   24.9980   35.5440 O   0  0  0  0  0  0  0  0  0  0  0  0
   38.2480   23.2070   36.8330 C   0  0  1  0  0  3  0  0  0  0  0  0
   38.9600   23.6370   35.5300 C   0  0  2  0  0  3  0  0  0  0  0  0
   40.2390   22.8100   35.3790 C   0  0  0  0  0  3  0  0  0  0  0  0
   41.1230   23.4780   35.3910 H   0  0  0  0  0  0  0  0  0  0  0  0
   40.3010   21.8710   36.4060 O   0  0  0  0  0  0  0  0  0  0  0  0
   40.5040   22.5580   37.5950 C   0  0  0  0  0  3  0  0  0  0  0  0
   41.2740   23.3410   37.4010 H   0  0  0  0  0  0  0  0  0  0  0  0
   39.2260   23.2340   37.9870 C   0  0  2  0  0  3  0  0  0  0  0  0
   37.1870   24.0890   36.9950 O   0  0  0  0  0  0  0  0  0  0  0  0
   37.4590   24.9990   36.6780 H   0  0  0  0  0  0  0  0  0  0  0  0
   38.6480   22.5450   39.0470 O   0  0  0  0  0  0  0  0  0  0  0  0
   37.6750   22.4790   38.9210 H   0  0  0  0  0  0  0  0  0  0  0  0
   37.6010   28.4140   30.6370 S   0  0  0  0  0  0  0  0  0  0  0  0
   34.6320   30.9690   31.6080 C   0  0  0  0  0  0  0  0  0  0  0  0
   33.9520   30.2410   32.5920 C   0  0  0  0  0  0  0  0  0  0  0  0
   34.4470   29.0030   32.9010 C   0  0  0  0  0  0  0  0  0  0  0  0
   35.5540   28.5590   32.2440 N   0  0  0  0  0  0  0  0  0  0  0  0
   36.1630   29.2630   31.3320 C   0  0  0  0  0  0  0  0  0  0  0  0
   35.7240   30.5180   30.9670 N   0  0  0  0  0  0  0  0  0  0  0  0
   34.3320   31.9550   31.2840 H   0  0  0  0  0  0  0  0  0  0  0  0
   33.9370   28.4220   33.6600 H   0  0  0  0  0  0  0  0  0  0  0  0
   32.8610   30.8030   33.1670 O   0  0  0  0  0  0  0  0  0  0  0  0
   32.7490   30.8220   34.5460 C   0  0  0  0  0  0  0  0  0  0  0  0
   31.8670   30.1160   35.3240 C   0  0  0  0  0  0  0  0  0  0  0  0
   31.8980   30.2570   36.6750 C   0  0  0  0  0  0  0  0  0  0  0  0
   32.8190   31.1090   37.2230 C   0  0  0  0  0  0  0  0  0  0  0  0
   33.7110   31.8210   36.4220 C   0  0  0  0  0  0  0  0  0  0  0  0
   33.6550   31.6570   35.0720 N   0  0  0  0  0  0  0  0  0  0  0  0
   31.2050   29.4870   34.7200 H   0  0  0  0  0  0  0  0  0  0  0  0
   31.1770   29.6750   37.2330 H   0  0  0  0  0  0  0  0  0  0  0  0
   32.8450   31.2210   38.2990 H   0  0  0  0  0  0  0  0  0  0  0  0
   34.7190   32.7540   37.0470 C   0  0  0  0  0  0  0  0  0  0  0  0
   34.9640   33.5820   36.3670 H   0  0  0  0  0  0  0  0  0  0  0  0
   34.3220   33.0630   38.0170 H   0  0  0  0  0  0  0  0  0  0  0  0
   35.5990   32.0890   37.2590 H   0  0  0  0  0  0  0  0  0  0  0  0
  1  2  1  0  0  0  0
  1  6  1  0  0  0  0
  3  1  1  0  0  0  0
  5  4  1  0  0  0  0
  5 10  1  0  0  0  0
  6  5  2  0  0  0  0
  7  6  1  0  0  0  0
  7  8  2  0  0  0  0
  8  9  1  0  0  0  0
  9 10  2  0  0  0  0
  9 13  1  0  0  0  0
 10 14  1  0  0  0  0
 11  7  1  0  0  0  0
 12  8  1  0  0  0  0
 15 23  1  1  0  0  0
 15 22  1  0  0  0  0
 16 14  1  1  0  0  0
 16 15  1  0  0  0  0
 17 18  1  0  0  0  0
 17 16  1  0  0  0  0
 17 19  1  0  0  0  0
 19 20  1  0  0  0  0
 20 22  1  0  0  0  0
 21 20  1  0  0  0  0
 22 25  1  1  0  0  0
 24 23  1  0  0  0  0
 26 25  1  0  0  0  0
 27 32  1  0  0  0  0
 27  1  1  0  0  0  0
 28 29  1  0  0  0  0
 29 30  2  0  0  0  0
 29 36  1  0  0  0  0
 30 35  1  0  0  0  0
 31 30  1  0  0  0  0
 32 31  2  0  0  0  0
 33 32  1  0  0  0  0
 33 28  2  0  0  0  0
 34 28  1  0  0  0  0
 36 37  1  0  0  0  0
 37 42  2  0  0  0  0
 37 38  1  0  0  0  0
 38 39  2  0  0  0  0
 39 40  1  0  0  0  0
 39 44  1  0  0  0  0
 40 45  1  0  0  0  0
 41 46  1  0  0  0  0
 41 40  2  0  0  0  0
 42 41  1  0  0  0  0
 43 38  1  0  0  0  0
 46 49  1  0  0  0  0
 46 48  1  0  0  0  0
 47 46  1  0  0  0  0
M  END
>  <minimizedAffinity>
-6.54503202

$$$$

 OpenBabel03262522303D

 49 52  0  0  1  0  0  0  0  0999 V2000
   37.5280   27.7640   32.3350 C   0  0  0  0  0  0  0  0  0  0  0  0
   37.6810   28.8430   32.1930 H   0  0  0  0  0  0  0  0  0  0  0  0
   36.5360   27.5320   32.8110 H   0  0  0  0  0  0  0  0  0  0  0  0
   36.6660   26.5660   34.6540 F   0  0  0  0  0  0  0  0  0  0  0  0
   38.0120   26.5720   34.3800 C   0  0  0  0  0  0  0  0  0  0  0  0
   38.5450   27.1530   33.2350 C   0  0  0  0  0  0  0  0  0  0  0  0
   39.8940   27.1350   32.9980 C   0  0  0  0  0  0  0  0  0  0  0  0
   40.7600   26.5190   33.9280 C   0  0  0  0  0  0  0  0  0  0  0  0
   40.2260   25.9470   35.0600 C   0  0  0  0  0  0  0  0  0  0  0  0
   38.8730   25.9710   35.2840 C   0  0  0  0  0  0  0  0  0  0  0  0
   40.1490   27.6250   32.0690 H   0  0  0  0  0  0  0  0  0  0  0  0
   41.7780   26.5810   33.6140 H   0  0  0  0  0  0  0  0  0  0  0  0
   41.0390   25.5400   35.6270 H   0  0  0  0  0  0  0  0  0  0  0  0
   38.4040   25.3780   36.4280 O   0  0  0  0  0  0  0  0  0  0  0  0
   38.4800   23.2850   37.6240 C   0  0  1  0  0  3  0  0  0  0  0  0
   37.8350   24.1170   36.4920 C   0  0  2  0  0  3  0  0  0  0  0  0
   37.9930   23.3510   35.1760 C   0  0  0  0  0  3  0  0  0  0  0  0
   38.6050   23.9430   34.4660 H   0  0  0  0  0  0  0  0  0  0  0  0
   38.5770   22.1130   35.4340 O   0  0  0  0  0  0  0  0  0  0  0  0
   39.8870   22.3370   35.8320 C   0  0  0  0  0  3  0  0  0  0  0  0
   40.3140   23.1130   35.1540 H   0  0  0  0  0  0  0  0  0  0  0  0
   39.8820   22.8780   37.2280 C   0  0  2  0  0  3  0  0  0  0  0  0
   38.4440   24.0910   38.7550 O   0  0  0  0  0  0  0  0  0  0  0  0
   38.5910   25.0450   38.4890 H   0  0  0  0  0  0  0  0  0  0  0  0
   40.2980   21.8830   38.1080 O   0  0  0  0  0  0  0  0  0  0  0  0
   39.7470   21.8980   38.9220 H   0  0  0  0  0  0  0  0  0  0  0  0
   37.6670   26.9180   30.7380 S   0  0  0  0  0  0  0  0  0  0  0  0
   35.2450   23.7500   31.3570 C   0  0  0  0  0  0  0  0  0  0  0  0
   36.1740   22.7080   31.4610 C   0  0  0  0  0  0  0  0  0  0  0  0
   37.4960   23.0410   31.3340 C   0  0  0  0  0  0  0  0  0  0  0  0
   37.8240   24.3440   31.1180 N   0  0  0  0  0  0  0  0  0  0  0  0
   36.9330   25.2900   31.0270 C   0  0  0  0  0  0  0  0  0  0  0  0
   35.5830   25.0330   31.1440 N   0  0  0  0  0  0  0  0  0  0  0  0
   34.1770   23.6060   31.4410 H   0  0  0  0  0  0  0  0  0  0  0  0
   38.2320   22.2510   31.4110 H   0  0  0  0  0  0  0  0  0  0  0  0
   35.7100   21.4530   31.6770 O   0  0  0  0  0  0  0  0  0  0  0  0
   36.4890   20.3660   31.3250 C   0  0  0  0  0  0  0  0  0  0  0  0
   37.4020   19.7030   32.1050 C   0  0  0  0  0  0  0  0  0  0  0  0
   38.0850   18.6460   31.5920 C   0  0  0  0  0  0  0  0  0  0  0  0
   37.8370   18.2730   30.2980 C   0  0  0  0  0  0  0  0  0  0  0  0
   36.9070   18.9550   29.5150 C   0  0  0  0  0  0  0  0  0  0  0  0
   36.2390   20.0100   30.0590 N   0  0  0  0  0  0  0  0  0  0  0  0
   37.4710   20.1360   33.1080 H   0  0  0  0  0  0  0  0  0  0  0  0
   38.7900   18.1660   32.2550 H   0  0  0  0  0  0  0  0  0  0  0  0
   38.3800   17.4320   29.8880 H   0  0  0  0  0  0  0  0  0  0  0  0
   36.6500   18.5270   28.0910 C   0  0  0  0  0  0  0  0  0  0  0  0
   36.3430   19.3820   27.4720 H   0  0  0  0  0  0  0  0  0  0  0  0
   37.5430   18.0060   27.7380 H   0  0  0  0  0  0  0  0  0  0  0  0
   35.8440   17.7500   28.1900 H   0  0  0  0  0  0  0  0  0  0  0  0
  1  3  1  0  0  0  0
  1  6  1  0  0  0  0
  2  1  1  0  0  0  0
  5  4  1  0  0  0  0
  5 10  1  0  0  0  0
  6  5  2  0  0  0  0
  7  6  1  0  0  0  0
  7  8  2  0  0  0  0
  8  9  1  0  0  0  0
  9 10  2  0  0  0  0
  9 13  1  0  0  0  0
 10 14  1  0  0  0  0
 11  7  1  0  0  0  0
 12  8  1  0  0  0  0
 15 23  1  1  0  0  0
 16 14  1  6  0  0  0
 16 15  1  0  0  0  0
 17 19  1  0  0  0  0
 17 16  1  0  0  0  0
 18 17  1  0  0  0  0
 19 20  1  0  0  0  0
 20 22  1  0  0  0  0
 21 20  1  0  0  0  0
 22 15  1  0  0  0  0
 22 25  1  1  0  0  0
 24 23  1  0  0  0  0
 25 26  1  0  0  0  0
 27 32  1  0  0  0  0
 27  1  1  0  0  0  0
 28 34  1  0  0  0  0
 28 29  1  0  0  0  0
 29 36  1  0  0  0  0
 30 35  1  0  0  0  0
 30 29  2  0  0  0  0
 31 30  1  0  0  0  0
 32 31  2  0  0  0  0
 32 33  1  0  0  0  0
 33 28  2  0  0  0  0
 37 36  1  0  0  0  0
 37 38  1  0  0  0  0
 38 43  1  0  0  0  0
 39 38  2  0  0  0  0
 39 44  1  0  0  0  0
 40 39  1  0  0  0  0
 41 42  1  0  0  0  0
 41 40  2  0  0  0  0
 42 37  2  0  0  0  0
 45 40  1  0  0  0  0
 46 49  1  0  0  0  0
 46 41  1  0  0  0  0
 47 46  1  0  0  0  0
 48 46  1  0  0  0  0
M  END
>  <minimizedAffinity>
-6.51794529

$$$$

 OpenBabel03262522303D

 49 52  0  0  1  0  0  0  0  0999 V2000
   37.6780   28.0490   32.8730 C   0  0  0  0  0  0  0  0  0  0  0  0
   37.8310   29.1340   32.9450 H   0  0  0  0  0  0  0  0  0  0  0  0
   36.6840   27.7280   33.2880 H   0  0  0  0  0  0  0  0  0  0  0  0
   36.8540   26.6910   35.1170 F   0  0  0  0  0  0  0  0  0  0  0  0
   38.1780   26.6210   34.7570 C   0  0  0  0  0  0  0  0  0  0  0  0
   38.6910   27.2720   33.6410 C   0  0  0  0  0  0  0  0  0  0  0  0
   40.0180   27.1740   33.3160 C   0  0  0  0  0  0  0  0  0  0  0  0
   40.8820   26.4020   34.1230 C   0  0  0  0  0  0  0  0  0  0  0  0
   40.3670   25.7610   35.2270 C   0  0  0  0  0  0  0  0  0  0  0  0
   39.0360   25.8660   35.5400 C   0  0  0  0  0  0  0  0  0  0  0  0
   40.2590   27.7360   32.4240 H   0  0  0  0  0  0  0  0  0  0  0  0
   41.8810   26.4170   33.7510 H   0  0  0  0  0  0  0  0  0  0  0  0
   41.1740   25.2370   35.6970 H   0  0  0  0  0  0  0  0  0  0  0  0
   38.5860   25.1980   36.6500 O   0  0  0  0  0  0  0  0  0  0  0  0
   38.7270   23.0280   37.6930 C   0  0  1  0  0  3  0  0  0  0  0  0
   38.0370   23.9260   36.6410 C   0  0  2  0  0  3  0  0  0  0  0  0
   38.1650   23.2570   35.2700 C   0  0  0  0  0  3  0  0  0  0  0  0
   38.7470   23.9080   34.5870 H   0  0  0  0  0  0  0  0  0  0  0  0
   38.7740   22.0140   35.4230 O   0  0  0  0  0  0  0  0  0  0  0  0
   40.0930   22.2310   35.7970 C   0  0  0  0  0  3  0  0  0  0  0  0
   40.4880   23.0590   35.1630 H   0  0  0  0  0  0  0  0  0  0  0  0
   40.1220   22.6720   37.2280 C   0  0  2  0  0  3  0  0  0  0  0  0
   38.7140   23.7520   38.8780 O   0  0  0  0  0  0  0  0  0  0  0  0
   38.8400   24.7250   38.6760 H   0  0  0  0  0  0  0  0  0  0  0  0
   40.5780   21.6250   38.0220 O   0  0  0  0  0  0  0  0  0  0  0  0
   40.0530   21.5740   38.8520 H   0  0  0  0  0  0  0  0  0  0  0  0
   37.8270   27.5320   31.1420 S   0  0  0  0  0  0  0  0  0  0  0  0
   34.9090   24.7490   30.9710 C   0  0  0  0  0  0  0  0  0  0  0  0
   35.6570   23.5710   30.8540 C   0  0  0  0  0  0  0  0  0  0  0  0
   37.0200   23.7010   30.8340 C   0  0  0  0  0  0  0  0  0  0  0  0
   37.5580   24.9480   30.9280 N   0  0  0  0  0  0  0  0  0  0  0  0
   36.8320   26.0240   31.0360 C   0  0  0  0  0  0  0  0  0  0  0  0
   35.4550   25.9740   31.0630 N   0  0  0  0  0  0  0  0  0  0  0  0
   33.8290   24.7680   30.9980 H   0  0  0  0  0  0  0  0  0  0  0  0
   37.6190   22.8040   30.7440 H   0  0  0  0  0  0  0  0  0  0  0  0
   34.9910   22.3940   30.7680 O   0  0  0  0  0  0  0  0  0  0  0  0
   35.4620   21.2920   31.4590 C   0  0  0  0  0  0  0  0  0  0  0  0
   36.0150   20.1500   30.9370 C   0  0  0  0  0  0  0  0  0  0  0  0
   36.4270   19.1590   31.7710 C   0  0  0  0  0  0  0  0  0  0  0  0
   36.2740   19.3340   33.1210 C   0  0  0  0  0  0  0  0  0  0  0  0
   35.7100   20.4980   33.6390 C   0  0  0  0  0  0  0  0  0  0  0  0
   35.3080   21.4730   32.7770 N   0  0  0  0  0  0  0  0  0  0  0  0
   36.0590   20.1830   29.8440 H   0  0  0  0  0  0  0  0  0  0  0  0
   36.8540   18.2850   31.3000 H   0  0  0  0  0  0  0  0  0  0  0  0
   36.6020   18.5450   33.7850 H   0  0  0  0  0  0  0  0  0  0  0  0
   35.5510   20.6690   35.1300 C   0  0  0  0  0  0  0  0  0  0  0  0
   34.6880   21.3090   35.3630 H   0  0  0  0  0  0  0  0  0  0  0  0
   35.5120   19.6710   35.5730 H   0  0  0  0  0  0  0  0  0  0  0  0
   36.5290   21.1220   35.4500 H   0  0  0  0  0  0  0  0  0  0  0  0
  1  2  1  0  0  0  0
  1  3  1  0  0  0  0
  1  6  1  0  0  0  0
  5  4  1  0  0  0  0
  5 10  1  0  0  0  0
  6  5  2  0  0  0  0
  7  6  1  0  0  0  0
  7  8  2  0  0  0  0
  8  9  1  0  0  0  0
  9 10  2  0  0  0  0
  9 13  1  0  0  0  0
 10 14  1  0  0  0  0
 11  7  1  0  0  0  0
 12  8  1  0  0  0  0
 15 23  1  1  0  0  0
 16 14  1  6  0  0  0
 16 15  1  0  0  0  0
 17 19  1  0  0  0  0
 17 16  1  0  0  0  0
 18 17  1  0  0  0  0
 19 20  1  0  0  0  0
 20 22  1  0  0  0  0
 21 20  1  0  0  0  0
 22 15  1  0  0  0  0
 22 25  1  1  0  0  0
 24 23  1  0  0  0  0
 25 26  1  0  0  0  0
 27  1  1  0  0  0  0
 28 34  1  0  0  0  0
 28 33  1  0  0  0  0
 29 28  2  0  0  0  0
 30 29  1  0  0  0  0
 30 31  2  0  0  0  0
 31 32  1  0  0  0  0
 32 33  2  0  0  0  0
 32 27  1  0  0  0  0
 35 30  1  0  0  0  0
 36 29  1  0  0  0  0
 36 37  1  0  0  0  0
 37 42  1  0  0  0  0
 38 37  2  0  0  0  0
 38 39  1  0  0  0  0
 39 40  2  0  0  0  0
 40 41  1  0  0  0  0
 40 45  1  0  0  0  0
 41 46  1  0  0  0  0
 42 41  2  0  0  0  0
 43 38  1  0  0  0  0
 44 39  1  0  0  0  0
 46 47  1  0  0  0  0
 46 49  1  0  0  0  0
 46 48  1  0  0  0  0
M  END
>  <minimizedAffinity>
-6.49864817

$$$$

 OpenBabel03262522303D

 49 52  0  0  1  0  0  0  0  0999 V2000
   35.8140   28.8900   31.6940 C   0  0  0  0  0  0  0  0  0  0  0  0
   35.1130   28.7810   30.8560 H   0  0  0  0  0  0  0  0  0  0  0  0
   35.4540   28.3700   32.6230 H   0  0  0  0  0  0  0  0  0  0  0  0
   35.1360   29.6330   34.2520 F   0  0  0  0  0  0  0  0  0  0  0  0
   35.6440   30.5870   33.4050 C   0  0  0  0  0  0  0  0  0  0  0  0
   36.0150   30.3110   32.0940 C   0  0  0  0  0  0  0  0  0  0  0  0
   36.5200   31.2920   31.2820 C   0  0  0  0  0  0  0  0  0  0  0  0
   36.6670   32.6060   31.7800 C   0  0  0  0  0  0  0  0  0  0  0  0
   36.2970   32.8730   33.0780 C   0  0  0  0  0  0  0  0  0  0  0  0
   35.7930   31.8800   33.8810 C   0  0  0  0  0  0  0  0  0  0  0  0
   36.7600   30.9180   30.2970 H   0  0  0  0  0  0  0  0  0  0  0  0
   37.0700   33.2600   31.0410 H   0  0  0  0  0  0  0  0  0  0  0  0
   36.4840   33.9120   33.2570 H   0  0  0  0  0  0  0  0  0  0  0  0
   35.4480   32.2110   35.1660 O   0  0  0  0  0  0  0  0  0  0  0  0
   33.7190   32.3470   36.8420 C   0  0  1  0  0  3  0  0  0  0  0  0
   34.3060   32.9070   35.5260 C   0  0  2  0  0  3  0  0  0  0  0  0
   33.2270   32.8350   34.4430 C   0  0  0  0  0  3  0  0  0  0  0  0
   33.5600   32.1680   33.6230 H   0  0  0  0  0  0  0  0  0  0  0  0
   32.0390   32.3810   35.0110 O   0  0  0  0  0  0  0  0  0  0  0  0
   32.2210   31.0530   35.3690 C   0  0  0  0  0  3  0  0  0  0  0  0
   32.7570   30.5510   34.5300 H   0  0  0  0  0  0  0  0  0  0  0  0
   33.0870   30.9960   36.5890 C   0  0  2  0  0  3  0  0  0  0  0  0
   34.7800   32.2950   37.7380 O   0  0  0  0  0  0  0  0  0  0  0  0
   35.6180   32.0510   37.2490 H   0  0  0  0  0  0  0  0  0  0  0  0
   32.3050   30.6820   37.6950 O   0  0  0  0  0  0  0  0  0  0  0  0
   32.5760   31.2240   38.4690 H   0  0  0  0  0  0  0  0  0  0  0  0
   37.4390   28.2500   31.2100 S   0  0  0  0  0  0  0  0  0  0  0  0
   36.9710   24.5060   32.6420 C   0  0  0  0  0  0  0  0  0  0  0  0
   38.0660   24.4020   33.5090 C   0  0  0  0  0  0  0  0  0  0  0  0
   38.8870   25.4940   33.6030 C   0  0  0  0  0  0  0  0  0  0  0  0
   38.5950   26.5970   32.8600 N   0  0  0  0  0  0  0  0  0  0  0  0
   37.5680   26.6590   32.0630 C   0  0  0  0  0  0  0  0  0  0  0  0
   36.6960   25.6020   31.9150 N   0  0  0  0  0  0  0  0  0  0  0  0
   36.2560   23.7090   32.4870 H   0  0  0  0  0  0  0  0  0  0  0  0
   39.7400   25.4360   34.2680 H   0  0  0  0  0  0  0  0  0  0  0  0
   38.2380   23.2430   34.1890 O   0  0  0  0  0  0  0  0  0  0  0  0
   38.4810   23.2800   35.5510 C   0  0  0  0  0  0  0  0  0  0  0  0
   37.7290   23.8950   36.5190 C   0  0  0  0  0  0  0  0  0  0  0  0
   38.1200   23.8300   37.8180 C   0  0  0  0  0  0  0  0  0  0  0  0
   39.2650   23.1440   38.1240 C   0  0  0  0  0  0  0  0  0  0  0  0
   40.0220   22.5230   37.1310 C   0  0  0  0  0  0  0  0  0  0  0  0
   39.6030   22.6070   35.8380 N   0  0  0  0  0  0  0  0  0  0  0  0
   36.8510   24.3940   36.0960 H   0  0  0  0  0  0  0  0  0  0  0  0
   37.4860   24.3340   38.5340 H   0  0  0  0  0  0  0  0  0  0  0  0
   39.5770   23.0910   39.1580 H   0  0  0  0  0  0  0  0  0  0  0  0
   41.2800   21.7730   37.4890 C   0  0  0  0  0  0  0  0  0  0  0  0
   42.0040   21.7980   36.6610 H   0  0  0  0  0  0  0  0  0  0  0  0
   41.6520   22.1840   38.4310 H   0  0  0  0  0  0  0  0  0  0  0  0
   40.9140   20.7350   37.7160 H   0  0  0  0  0  0  0  0  0  0  0  0
  1  6  1  0  0  0  0
  1  3  1  0  0  0  0
  2  1  1  0  0  0  0
  5 10  1  0  0  0  0
  5  4  1  0  0  0  0
  6  5  2  0  0  0  0
  7  8  2  0  0  0  0
  7  6  1  0  0  0  0
  8  9  1  0  0  0  0
  9 13  1  0  0  0  0
  9 10  2  0  0  0  0
 10 14  1  0  0  0  0
 11  7  1  0  0  0  0
 12  8  1  0  0  0  0
 15 23  1  1  0  0  0
 16 14  1  6  0  0  0
 16 15  1  0  0  0  0
 17 19  1  0  0  0  0
 17 16  1  0  0  0  0
 18 17  1  0  0  0  0
 19 20  1  0  0  0  0
 20 22  1  0  0  0  0
 21 20  1  0  0  0  0
 22 15  1  0  0  0  0
 22 25  1  1  0  0  0
 24 23  1  0  0  0  0
 25 26  1  0  0  0  0
 27  1  1  0  0  0  0
 27 32  1  0  0  0  0
 28 29  1  0  0  0  0
 29 30  2  0  0  0  0
 29 36  1  0  0  0  0
 30 35  1  0  0  0  0
 31 30  1  0  0  0  0
 32 31  2  0  0  0  0
 33 32  1  0  0  0  0
 33 28  2  0  0  0  0
 34 28  1  0  0  0  0
 36 37  1  0  0  0  0
 37 42  2  0  0  0  0
 37 38  1  0  0  0  0
 38 39  2  0  0  0  0
 39 40  1  0  0  0  0
 39 44  1  0  0  0  0
 40 45  1  0  0  0  0
 41 46  1  0  0  0  0
 41 40  2  0  0  0  0
 42 41  1  0  0  0  0
 43 38  1  0  0  0  0
 46 49  1  0  0  0  0
 46 48  1  0  0  0  0
 47 46  1  0  0  0  0
M  END
>  <minimizedAffinity>
-6.40371132

$$$$

 OpenBabel03262522303D

 49 52  0  0  1  0  0  0  0  0999 V2000
   40.6780   27.0480   33.0700 C   0  0  0  0  0  0  0  0  0  0  0  0
   41.4580   26.3370   33.3770 H   0  0  0  0  0  0  0  0  0  0  0  0
   40.9840   28.1160   33.2390 H   0  0  0  0  0  0  0  0  0  0  0  0
   40.7100   25.4510   35.3080 F   0  0  0  0  0  0  0  0  0  0  0  0
   39.5290   26.0550   34.9490 C   0  0  0  0  0  0  0  0  0  0  0  0
   39.4120   26.8780   33.8350 C   0  0  0  0  0  0  0  0  0  0  0  0
   38.2150   27.4630   33.5140 C   0  0  0  0  0  0  0  0  0  0  0  0
   37.0810   27.2280   34.3230 C   0  0  0  0  0  0  0  0  0  0  0  0
   37.2050   26.4110   35.4230 C   0  0  0  0  0  0  0  0  0  0  0  0
   38.4100   25.8320   35.7340 C   0  0  0  0  0  0  0  0  0  0  0  0
   38.2880   28.0720   32.6240 H   0  0  0  0  0  0  0  0  0  0  0  0
   36.2240   27.7450   33.9530 H   0  0  0  0  0  0  0  0  0  0  0  0
   36.2440   26.3630   35.8950 H   0  0  0  0  0  0  0  0  0  0  0  0
   38.4660   25.0340   36.8470 O   0  0  0  0  0  0  0  0  0  0  0  0
   38.8440   22.8900   37.8860 C   0  0  1  0  0  3  0  0  0  0  0  0
   37.9860   23.7360   36.9170 C   0  0  2  0  0  3  0  0  0  0  0  0
   37.9840   23.0530   35.5470 C   0  0  0  0  0  3  0  0  0  0  0  0
   38.4440   23.7210   34.7920 H   0  0  0  0  0  0  0  0  0  0  0  0
   38.6700   21.8440   35.6370 O   0  0  0  0  0  0  0  0  0  0  0  0
   40.0110   22.1330   35.8470 C   0  0  0  0  0  3  0  0  0  0  0  0
   40.2840   22.9700   35.1620 H   0  0  0  0  0  0  0  0  0  0  0  0
   40.1900   22.5980   37.2590 C   0  0  2  0  0  3  0  0  0  0  0  0
   38.9360   23.6310   39.0570 O   0  0  0  0  0  0  0  0  0  0  0  0
   38.9860   24.6060   38.8320 H   0  0  0  0  0  0  0  0  0  0  0  0
   40.7920   21.5880   38.0030 O   0  0  0  0  0  0  0  0  0  0  0  0
   40.3740   21.5230   38.8900 H   0  0  0  0  0  0  0  0  0  0  0  0
   40.2720   26.7830   31.3240 S   0  0  0  0  0  0  0  0  0  0  0  0
   38.8650   23.1090   30.4220 C   0  0  0  0  0  0  0  0  0  0  0  0
   39.5890   22.3090   31.3140 C   0  0  0  0  0  0  0  0  0  0  0  0
   40.4710   22.9480   32.1430 C   0  0  0  0  0  0  0  0  0  0  0  0
   40.5900   24.3010   32.0540 N   0  0  0  0  0  0  0  0  0  0  0  0
   39.9000   25.0160   31.2110 C   0  0  0  0  0  0  0  0  0  0  0  0
   38.9920   24.4450   30.3450 N   0  0  0  0  0  0  0  0  0  0  0  0
   38.1420   22.7160   29.7210 H   0  0  0  0  0  0  0  0  0  0  0  0
   41.0420   22.3490   32.8420 H   0  0  0  0  0  0  0  0  0  0  0  0
   39.3720   20.9720   31.2970 O   0  0  0  0  0  0  0  0  0  0  0  0
   38.0770   20.4890   31.3500 C   0  0  0  0  0  0  0  0  0  0  0  0
   37.3820   19.8470   30.3580 C   0  0  0  0  0  0  0  0  0  0  0  0
   36.1060   19.4380   30.5850 C   0  0  0  0  0  0  0  0  0  0  0  0
   35.5490   19.6830   31.8120 C   0  0  0  0  0  0  0  0  0  0  0  0
   36.2650   20.3370   32.8130 C   0  0  0  0  0  0  0  0  0  0  0  0
   37.5420   20.7340   32.5530 N   0  0  0  0  0  0  0  0  0  0  0  0
   37.9800   19.7370   29.4480 H   0  0  0  0  0  0  0  0  0  0  0  0
   35.6110   18.9380   29.7640 H   0  0  0  0  0  0  0  0  0  0  0  0
   34.5330   19.3570   31.9940 H   0  0  0  0  0  0  0  0  0  0  0  0
   35.6320   20.5970   34.1570 C   0  0  0  0  0  0  0  0  0  0  0  0
   36.0470   21.5050   34.6190 H   0  0  0  0  0  0  0  0  0  0  0  0
   34.5490   20.6130   34.0130 H   0  0  0  0  0  0  0  0  0  0  0  0
   35.8620   19.6660   34.7430 H   0  0  0  0  0  0  0  0  0  0  0  0
  1  3  1  0  0  0  0
  1  2  1  0  0  0  0
  1  6  1  0  0  0  0
  5  4  1  0  0  0  0
  5 10  1  0  0  0  0
  6  5  2  0  0  0  0
  7  6  1  0  0  0  0
  7  8  2  0  0  0  0
  8  9  1  0  0  0  0
  9 10  2  0  0  0  0
  9 13  1  0  0  0  0
 10 14  1  0  0  0  0
 11  7  1  0  0  0  0
 12  8  1  0  0  0  0
 15 23  1  1  0  0  0
 16 14  1  6  0  0  0
 16 15  1  0  0  0  0
 17 19  1  0  0  0  0
 17 16  1  0  0  0  0
 18 17  1  0  0  0  0
 19 20  1  0  0  0  0
 20 22  1  0  0  0  0
 21 20  1  0  0  0  0
 22 15  1  0  0  0  0
 22 25  1  1  0  0  0
 24 23  1  0  0  0  0
 25 26  1  0  0  0  0
 27  1  1  0  0  0  0
 28 29  1  0  0  0  0
 29 30  2  0  0  0  0
 30 35  1  0  0  0  0
 31 30  1  0  0  0  0
 32 27  1  0  0  0  0
 32 31  2  0  0  0  0
 33 28  2  0  0  0  0
 33 32  1  0  0  0  0
 34 28  1  0  0  0  0
 36 29  1  0  0  0  0
 36 37  1  0  0  0  0
 37 42  1  0  0  0  0
 38 39  1  0  0  0  0
 38 37  2  0  0  0  0
 39 40  2  0  0  0  0
 40 45  1  0  0  0  0
 40 41  1  0  0  0  0
 41 46  1  0  0  0  0
 42 41  2  0  0  0  0
 43 38  1  0  0  0  0
 44 39  1  0  0  0  0
 46 47  1  0  0  0  0
 46 49  1  0  0  0  0
 48 46  1  0  0  0  0
M  END
>  <minimizedAffinity>
-6.2149806

$$$$

 OpenBabel03262522303D

 49 52  0  0  1  0  0  0  0  0999 V2000
   39.3200   26.8970   31.4010 C   0  0  0  0  0  0  0  0  0  0  0  0
   40.3830   26.7630   31.1590 H   0  0  0  0  0  0  0  0  0  0  0  0
   39.1690   27.4640   32.3600 H   0  0  0  0  0  0  0  0  0  0  0  0
   39.3250   25.7690   33.9080 F   0  0  0  0  0  0  0  0  0  0  0  0
   38.6660   25.1150   32.8960 C   0  0  0  0  0  0  0  0  0  0  0  0
   38.6070   25.6040   31.5960 C   0  0  0  0  0  0  0  0  0  0  0  0
   37.9370   24.9210   30.6160 C   0  0  0  0  0  0  0  0  0  0  0  0
   37.2940   23.7020   30.9260 C   0  0  0  0  0  0  0  0  0  0  0  0
   37.3570   23.2240   32.2150 C   0  0  0  0  0  0  0  0  0  0  0  0
   38.0320   23.9180   33.1870 C   0  0  0  0  0  0  0  0  0  0  0  0
   37.9830   25.4300   29.6640 H   0  0  0  0  0  0  0  0  0  0  0  0
   36.8150   23.2840   30.0700 H   0  0  0  0  0  0  0  0  0  0  0  0
   36.8150   22.3000   32.2400 H   0  0  0  0  0  0  0  0  0  0  0  0
   38.0510   23.3900   34.4520 O   0  0  0  0  0  0  0  0  0  0  0  0
   38.6010   21.9880   36.3370 C   0  0  1  0  0  3  0  0  0  0  0  0
   38.6840   22.2100   34.8090 C   0  0  2  0  0  3  0  0  0  0  0  0
   40.1580   22.2040   34.3970 C   0  0  0  0  0  3  0  0  0  0  0  0
   40.4320   23.1870   33.9640 H   0  0  0  0  0  0  0  0  0  0  0  0
   40.9430   21.9060   35.5070 O   0  0  0  0  0  0  0  0  0  0  0  0
   40.8610   22.9780   36.3850 C   0  0  0  0  0  3  0  0  0  0  0  0
   40.9440   23.9120   35.7800 H   0  0  0  0  0  0  0  0  0  0  0  0
   39.5190   22.9580   37.0480 C   0  0  2  0  0  3  0  0  0  0  0  0
   37.2630   22.1560   36.6720 O   0  0  0  0  0  0  0  0  0  0  0  0
   36.8640   22.8750   36.1010 H   0  0  0  0  0  0  0  0  0  0  0  0
   39.6610   22.5210   38.3600 O   0  0  0  0  0  0  0  0  0  0  0  0
   38.9300   21.9070   38.5950 H   0  0  0  0  0  0  0  0  0  0  0  0
   38.4910   27.7490   30.0340 S   0  0  0  0  0  0  0  0  0  0  0  0
   35.7270   30.5000   31.0730 C   0  0  0  0  0  0  0  0  0  0  0  0
   35.3150   30.0200   32.3220 C   0  0  0  0  0  0  0  0  0  0  0  0
   35.9130   28.8750   32.7740 C   0  0  0  0  0  0  0  0  0  0  0  0
   36.8580   28.2790   31.9950 N   0  0  0  0  0  0  0  0  0  0  0  0
   37.2170   28.7530   30.8360 C   0  0  0  0  0  0  0  0  0  0  0  0
   36.6610   29.9020   30.3140 N   0  0  0  0  0  0  0  0  0  0  0  0
   35.3250   31.3940   30.6170 H   0  0  0  0  0  0  0  0  0  0  0  0
   35.6110   28.4850   33.7380 H   0  0  0  0  0  0  0  0  0  0  0  0
   34.3630   30.7120   32.9940 O   0  0  0  0  0  0  0  0  0  0  0  0
   34.6540   31.2400   34.2390 C   0  0  0  0  0  0  0  0  0  0  0  0
   35.7720   31.9420   34.6110 C   0  0  0  0  0  0  0  0  0  0  0  0
   35.8920   32.3900   35.8880 C   0  0  0  0  0  0  0  0  0  0  0  0
   34.8820   32.1240   36.7730 C   0  0  0  0  0  0  0  0  0  0  0  0
   33.7500   31.4100   36.3830 C   0  0  0  0  0  0  0  0  0  0  0  0
   33.6590   30.9750   35.0960 N   0  0  0  0  0  0  0  0  0  0  0  0
   36.4730   32.0600   33.7780 H   0  0  0  0  0  0  0  0  0  0  0  0
   36.7970   32.9360   36.1190 H   0  0  0  0  0  0  0  0  0  0  0  0
   34.9770   32.4810   37.7900 H   0  0  0  0  0  0  0  0  0  0  0  0
   32.6480   31.1280   37.3750 C   0  0  0  0  0  0  0  0  0  0  0  0
   32.1290   30.1900   37.1310 H   0  0  0  0  0  0  0  0  0  0  0  0
   33.0900   31.1570   38.3740 H   0  0  0  0  0  0  0  0  0  0  0  0
   31.9830   32.0290   37.2940 H   0  0  0  0  0  0  0  0  0  0  0  0
  1  6  1  0  0  0  0
  1  3  1  0  0  0  0
  2  1  1  0  0  0  0
  5 10  1  0  0  0  0
  5  4  1  0  0  0  0
  6  5  2  0  0  0  0
  7  8  2  0  0  0  0
  7  6  1  0  0  0  0
  8  9  1  0  0  0  0
  9 13  1  0  0  0  0
  9 10  2  0  0  0  0
 10 14  1  0  0  0  0
 11  7  1  0  0  0  0
 12  8  1  0  0  0  0
 15 23  1  1  0  0  0
 15 22  1  0  0  0  0
 16 14  1  1  0  0  0
 16 15  1  0  0  0  0
 17 16  1  0  0  0  0
 17 19  1  0  0  0  0
 18 17  1  0  0  0  0
 19 20  1  0  0  0  0
 20 22  1  0  0  0  0
 21 20  1  0  0  0  0
 22 25  1  1  0  0  0
 24 23  1  0  0  0  0
 25 26  1  0  0  0  0
 27 32  1  0  0  0  0
 27  1  1  0  0  0  0
 28 29  1  0  0  0  0
 29 30  2  0  0  0  0
 29 36  1  0  0  0  0
 30 35  1  0  0  0  0
 31 30  1  0  0  0  0
 32 31  2  0  0  0  0
 33 32  1  0  0  0  0
 33 28  2  0  0  0  0
 34 28  1  0  0  0  0
 36 37  1  0  0  0  0
 37 38  2  0  0  0  0
 37 42  1  0  0  0  0
 38 39  1  0  0  0  0
 39 44  1  0  0  0  0
 39 40  2  0  0  0  0
 40 45  1  0  0  0  0
 41 40  1  0  0  0  0
 41 46  1  0  0  0  0
 42 41  2  0  0  0  0
 43 38  1  0  0  0  0
 46 48  1  0  0  0  0
 47 46  1  0  0  0  0
 49 46  1  0  0  0  0
M  END
>  <minimizedAffinity>
-6.19823027

$$$$

 OpenBabel03262522303D

 49 52  0  0  1  0  0  0  0  0999 V2000
   38.2710   27.6970   31.7080 C   0  0  0  0  0  0  0  0  0  0  0  0
   39.3260   27.8050   31.4210 H   0  0  0  0  0  0  0  0  0  0  0  0
   38.0490   28.1710   32.7030 H   0  0  0  0  0  0  0  0  0  0  0  0
   38.9080   26.3820   34.0370 F   0  0  0  0  0  0  0  0  0  0  0  0
   38.2230   25.6970   33.0640 C   0  0  0  0  0  0  0  0  0  0  0  0
   37.8570   26.2740   31.8530 C   0  0  0  0  0  0  0  0  0  0  0  0
   37.1720   25.5550   30.9080 C   0  0  0  0  0  0  0  0  0  0  0  0
   36.8310   24.2090   31.1640 C   0  0  0  0  0  0  0  0  0  0  0  0
   37.1980   23.6440   32.3640 C   0  0  0  0  0  0  0  0  0  0  0  0
   37.8830   24.3760   33.3020 C   0  0  0  0  0  0  0  0  0  0  0  0
   36.9620   26.1430   30.0260 H   0  0  0  0  0  0  0  0  0  0  0  0
   36.3020   23.7770   30.3440 H   0  0  0  0  0  0  0  0  0  0  0  0
   36.8510   22.6310   32.3600 H   0  0  0  0  0  0  0  0  0  0  0  0
   38.2130   23.7550   34.4790 O   0  0  0  0  0  0  0  0  0  0  0  0
   38.9210   22.0520   36.0330 C   0  0  1  0  0  3  0  0  0  0  0  0
   38.9370   22.5780   34.5790 C   0  0  2  0  0  3  0  0  0  0  0  0
   40.3930   22.7620   34.1450 C   0  0  0  0  0  3  0  0  0  0  0  0
   40.5840   23.8290   33.9130 H   0  0  0  0  0  0  0  0  0  0  0  0
   41.2340   22.3070   35.1570 O   0  0  0  0  0  0  0  0  0  0  0  0
   41.1090   23.1750   36.2330 C   0  0  0  0  0  3  0  0  0  0  0  0
   41.1080   24.2140   35.8260 H   0  0  0  0  0  0  0  0  0  0  0  0
   39.7950   22.9260   36.9050 C   0  0  2  0  0  3  0  0  0  0  0  0
   37.5870   22.0510   36.4220 O   0  0  0  0  0  0  0  0  0  0  0  0
   37.1210   22.8370   36.0140 H   0  0  0  0  0  0  0  0  0  0  0  0
   40.0110   22.2490   38.1010 O   0  0  0  0  0  0  0  0  0  0  0  0
   39.3320   21.5480   38.2220 H   0  0  0  0  0  0  0  0  0  0  0  0
   37.2170   28.4200   30.4240 S   0  0  0  0  0  0  0  0  0  0  0  0
   34.0740   29.1400   32.8510 C   0  0  0  0  0  0  0  0  0  0  0  0
   33.7470   30.4550   32.4980 C   0  0  0  0  0  0  0  0  0  0  0  0
   34.5150   31.0460   31.5300 C   0  0  0  0  0  0  0  0  0  0  0  0
   35.5340   30.3310   30.9780 N   0  0  0  0  0  0  0  0  0  0  0  0
   35.8110   29.1090   31.3310 C   0  0  0  0  0  0  0  0  0  0  0  0
   35.0840   28.4470   32.2970 N   0  0  0  0  0  0  0  0  0  0  0  0
   33.5390   28.5750   33.6010 H   0  0  0  0  0  0  0  0  0  0  0  0
   34.2800   32.0620   31.2400 H   0  0  0  0  0  0  0  0  0  0  0  0
   32.7060   31.0490   33.1290 O   0  0  0  0  0  0  0  0  0  0  0  0
   32.6390   31.0220   34.5100 C   0  0  0  0  0  0  0  0  0  0  0  0
   31.7130   30.3770   35.2910 C   0  0  0  0  0  0  0  0  0  0  0  0
   31.8000   30.4580   36.6440 C   0  0  0  0  0  0  0  0  0  0  0  0
   32.8200   31.1890   37.1920 C   0  0  0  0  0  0  0  0  0  0  0  0
   33.7540   31.8400   36.3890 C   0  0  0  0  0  0  0  0  0  0  0  0
   33.6400   31.7390   35.0350 N   0  0  0  0  0  0  0  0  0  0  0  0
   30.9730   29.8430   34.6860 H   0  0  0  0  0  0  0  0  0  0  0  0
   31.0410   29.9280   37.2040 H   0  0  0  0  0  0  0  0  0  0  0  0
   32.8900   31.2540   38.2700 H   0  0  0  0  0  0  0  0  0  0  0  0
   34.8700   32.6410   37.0140 C   0  0  0  0  0  0  0  0  0  0  0  0
   35.1780   33.4680   36.3570 H   0  0  0  0  0  0  0  0  0  0  0  0
   34.5370   32.9480   38.0080 H   0  0  0  0  0  0  0  0  0  0  0  0
   35.6850   31.8830   37.1690 H   0  0  0  0  0  0  0  0  0  0  0  0
  1  6  1  0  0  0  0
  1  3  1  0  0  0  0
  2  1  1  0  0  0  0
  5 10  1  0  0  0  0
  5  4  1  0  0  0  0
  6  5  2  0  0  0  0
  7  8  2  0  0  0  0
  7  6  1  0  0  0  0
  8  9  1  0  0  0  0
  9 10  2  0  0  0  0
 10 14  1  0  0  0  0
 11  7  1  0  0  0  0
 12  8  1  0  0  0  0
 13  9  1  0  0  0  0
 15 23  1  1  0  0  0
 15 22  1  0  0  0  0
 16 14  1  1  0  0  0
 16 15  1  0  0  0  0
 17 16  1  0  0  0  0
 17 19  1  0  0  0  0
 18 17  1  0  0  0  0
 19 20  1  0  0  0  0
 20 22  1  0  0  0  0
 21 20  1  0  0  0  0
 22 25  1  1  0  0  0
 24 23  1  0  0  0  0
 25 26  1  0  0  0  0
 27 32  1  0  0  0  0
 27  1  1  0  0  0  0
 28 34  1  0  0  0  0
 29 28  1  0  0  0  0
 29 36  1  0  0  0  0
 30 29  2  0  0  0  0
 31 32  2  0  0  0  0
 31 30  1  0  0  0  0
 32 33  1  0  0  0  0
 33 28  2  0  0  0  0
 35 30  1  0  0  0  0
 36 37  1  0  0  0  0
 37 42  2  0  0  0  0
 37 38  1  0  0  0  0
 38 39  2  0  0  0  0
 39 40  1  0  0  0  0
 39 44  1  0  0  0  0
 40 45  1  0  0  0  0
 41 46  1  0  0  0  0
 41 40  2  0  0  0  0
 42 41  1  0  0  0  0
 43 38  1  0  0  0  0
 46 49  1  0  0  0  0
 46 48  1  0  0  0  0
 47 46  1  0  0  0  0
M  END
>  <minimizedAffinity>
-6.1792779

$$$$

 OpenBabel03262522303D

 49 52  0  0  1  0  0  0  0  0999 V2000
   36.2950   27.8970   31.0340 C   0  0  0  0  0  0  0  0  0  0  0  0
   35.6750   27.5230   30.2090 H   0  0  0  0  0  0  0  0  0  0  0  0
   35.8950   27.5950   32.0400 H   0  0  0  0  0  0  0  0  0  0  0  0
   35.3810   29.1890   33.2820 F   0  0  0  0  0  0  0  0  0  0  0  0
   35.8810   29.9440   32.2490 C   0  0  0  0  0  0  0  0  0  0  0  0
   36.3650   29.3850   31.0720 C   0  0  0  0  0  0  0  0  0  0  0  0
   36.8570   30.1740   30.0660 C   0  0  0  0  0  0  0  0  0  0  0  0
   36.8750   31.5780   30.2230 C   0  0  0  0  0  0  0  0  0  0  0  0
   36.3930   32.1250   31.3900 C   0  0  0  0  0  0  0  0  0  0  0  0
   35.9030   31.3220   32.3900 C   0  0  0  0  0  0  0  0  0  0  0  0
   37.1950   29.5900   29.2220 H   0  0  0  0  0  0  0  0  0  0  0  0
   37.2830   32.0610   29.3640 H   0  0  0  0  0  0  0  0  0  0  0  0
   36.4930   33.1880   31.3100 H   0  0  0  0  0  0  0  0  0  0  0  0
   35.4440   31.9300   33.5290 O   0  0  0  0  0  0  0  0  0  0  0  0
   36.1020   32.1570   35.8390 C   0  0  1  0  0  3  0  0  0  0  0  0
   36.2190   32.6890   34.3920 C   0  0  2  0  0  3  0  0  0  0  0  0
   35.8090   34.1640   34.3810 C   0  0  0  0  0  3  0  0  0  0  0  0
   34.9180   34.3020   33.7370 H   0  0  0  0  0  0  0  0  0  0  0  0
   35.5580   34.5780   35.6860 O   0  0  0  0  0  0  0  0  0  0  0  0
   34.4100   33.9310   36.1230 C   0  0  0  0  0  3  0  0  0  0  0  0
   33.6690   33.9680   35.2900 H   0  0  0  0  0  0  0  0  0  0  0  0
   34.7400   32.4980   36.4030 C   0  0  2  0  0  3  0  0  0  0  0  0
   36.3340   30.7900   35.7600 O   0  0  0  0  0  0  0  0  0  0  0  0
   35.9480   30.4340   34.9080 H   0  0  0  0  0  0  0  0  0  0  0  0
   34.7900   32.2980   37.7780 O   0  0  0  0  0  0  0  0  0  0  0  0
   35.5480   31.7170   38.0100 H   0  0  0  0  0  0  0  0  0  0  0  0
   37.9940   27.3000   30.8320 S   0  0  0  0  0  0  0  0  0  0  0  0
   37.2570   23.8220   32.7420 C   0  0  0  0  0  0  0  0  0  0  0  0
   38.4960   23.5690   33.3440 C   0  0  0  0  0  0  0  0  0  0  0  0
   39.4890   24.4860   33.1270 C   0  0  0  0  0  0  0  0  0  0  0  0
   39.2180   25.5710   32.3510 N   0  0  0  0  0  0  0  0  0  0  0  0
   38.0540   25.7760   31.8060 C   0  0  0  0  0  0  0  0  0  0  0  0
   37.0040   24.8990   31.9790 N   0  0  0  0  0  0  0  0  0  0  0  0
   36.4020   23.1690   32.8440 H   0  0  0  0  0  0  0  0  0  0  0  0
   40.4560   24.3110   33.5830 H   0  0  0  0  0  0  0  0  0  0  0  0
   38.6290   22.4470   34.0920 O   0  0  0  0  0  0  0  0  0  0  0  0
   39.2080   22.5280   35.3460 C   0  0  0  0  0  0  0  0  0  0  0  0
   40.4320   22.0450   35.7350 C   0  0  0  0  0  0  0  0  0  0  0  0
   40.8460   22.2150   37.0180 C   0  0  0  0  0  0  0  0  0  0  0  0
   40.0190   22.8690   37.8920 C   0  0  0  0  0  0  0  0  0  0  0  0
   38.7770   23.3540   37.4850 C   0  0  0  0  0  0  0  0  0  0  0  0
   38.3910   23.1680   36.1920 N   0  0  0  0  0  0  0  0  0  0  0  0
   40.9560   21.5530   34.9100 H   0  0  0  0  0  0  0  0  0  0  0  0
   41.8190   21.8120   37.2630 H   0  0  0  0  0  0  0  0  0  0  0  0
   40.3480   23.0040   38.9140 H   0  0  0  0  0  0  0  0  0  0  0  0
   37.8810   24.0720   38.4640 C   0  0  0  0  0  0  0  0  0  0  0  0
   36.8220   23.9320   38.2050 H   0  0  0  0  0  0  0  0  0  0  0  0
   38.1530   23.7330   39.4670 H   0  0  0  0  0  0  0  0  0  0  0  0
   38.2110   25.1430   38.3880 H   0  0  0  0  0  0  0  0  0  0  0  0
  1  6  1  0  0  0  0
  1  3  1  0  0  0  0
  2  1  1  0  0  0  0
  5 10  1  0  0  0  0
  5  4  1  0  0  0  0
  6  5  2  0  0  0  0
  7  8  2  0  0  0  0
  7  6  1  0  0  0  0
  8  9  1  0  0  0  0
  9 10  2  0  0  0  0
 10 14  1  0  0  0  0
 11  7  1  0  0  0  0
 12  8  1  0  0  0  0
 13  9  1  0  0  0  0
 15 23  1  6  0  0  0
 15 22  1  0  0  0  0
 16 14  1  6  0  0  0
 16 15  1  0  0  0  0
 17 16  1  0  0  0  0
 17 19  1  0  0  0  0
 18 17  1  0  0  0  0
 19 20  1  0  0  0  0
 20 22  1  0  0  0  0
 21 20  1  0  0  0  0
 22 25  1  1  0  0  0
 24 23  1  0  0  0  0
 25 26  1  0  0  0  0
 27  1  1  0  0  0  0
 27 32  1  0  0  0  0
 28 34  1  0  0  0  0
 28 29  1  0  0  0  0
 29 36  1  0  0  0  0
 30 29  2  0  0  0  0
 30 35  1  0  0  0  0
 31 30  1  0  0  0  0
 32 33  1  0  0  0  0
 32 31  2  0  0  0  0
 33 28  2  0  0  0  0
 36 37  1  0  0  0  0
 37 38  2  0  0  0  0
 37 42  1  0  0  0  0
 38 39  1  0  0  0  0
 39 44  1  0  0  0  0
 39 40  2  0  0  0  0
 40 45  1  0  0  0  0
 41 40  1  0  0  0  0
 41 46  1  0  0  0  0
 42 41  2  0  0  0  0
 43 38  1  0  0  0  0
 46 48  1  0  0  0  0
 47 46  1  0  0  0  0
 49 46  1  0  0  0  0
M  END
>  <minimizedAffinity>
-6.16429186

$$$$
