
     RDKit          3D

 46 49  0  0  0  0  0  0  0  0999 V2000
   35.8188   30.5422   49.0771 C   0  0  1  0  0  0  0  0  0  0  0  0
   35.9027   29.1213   48.8391 C   0  0  1  0  0  0  0  0  0  0  0  0
   36.0655   29.5838   50.2490 C   0  0  0  0  0  0  0  0  0  0  0  0
   37.0118   31.4523   48.8280 C   0  0  0  0  0  0  0  0  0  0  0  0
   37.1822   32.5291   49.6978 C   0  0  0  0  0  0  0  0  0  0  0  0
   38.2707   33.3458   49.4025 C   0  0  0  0  0  0  0  0  0  0  0  0
   39.0845   33.0855   48.3412 N   0  0  0  0  0  0  0  0  0  0  0  0
   38.8772   32.0254   47.5246 C   0  0  0  0  0  0  0  0  0  0  0  0
   37.8290   31.2014   47.7732 N   0  0  0  0  0  0  0  0  0  0  0  0
   33.9632   29.0866   47.3779 C   0  0  2  0  0  0  0  0  0  0  0  0
   34.7364   28.2874   48.4169 C   0  0  2  0  0  0  0  0  0  0  0  0
   33.8684   28.0636   49.4396 O   0  0  0  0  0  0  0  0  0  0  0  0
   32.5811   28.1280   48.9977 C   0  0  0  0  0  0  0  0  0  0  0  0
   32.6048   28.3841   47.5024 C   0  0  1  0  0  0  0  0  0  0  0  0
   34.4660   28.9680   46.0973 O   0  0  0  0  0  0  0  0  0  0  0  0
   31.5836   29.1684   47.0579 O   0  0  0  0  0  0  0  0  0  0  0  0
   34.9183   31.1485   49.2761 H   0  0  0  0  0  0  0  0  0  0  0  0
   36.8630   28.7642   48.3667 H   0  0  0  0  0  0  0  0  0  0  0  0
   37.0787   29.5772   50.7215 H   0  0  0  0  0  0  0  0  0  0  0  0
   35.2767   29.4272   50.9943 H   0  0  0  0  0  0  0  0  0  0  0  0
   36.5089   32.6880   50.5215 H   0  0  0  0  0  0  0  0  0  0  0  0
   38.4656   34.1969   50.0301 H   0  0  0  0  0  0  0  0  0  0  0  0
   39.5031   31.7913   46.6755 H   0  0  0  0  0  0  0  0  0  0  0  0
   33.8058   30.1236   47.7174 H   0  0  0  0  0  0  0  0  0  0  0  0
   35.0238   27.3183   47.9728 H   0  0  0  0  0  0  0  0  0  0  0  0
   32.0373   27.1655   49.1609 H   0  0  0  0  0  0  0  0  0  0  0  0
   31.9800   28.9233   49.5043 H   0  0  0  0  0  0  0  0  0  0  0  0
   32.7436   27.4198   46.9928 H   0  0  0  0  0  0  0  0  0  0  0  0
   34.2432   29.8122   45.6296 H   0  0  0  0  0  0  0  0  0  0  0  0
   29.7067   26.7548   46.7617 O   0  0  0  0  0  0  0  0  0  0  0  0
   30.7838   27.1727   45.9559 C   0  0  2  0  0  0  0  0  0  0  0  0
   30.8360   28.6819   46.0276 C   0  0  1  0  0  0  0  0  0  0  0  0
   29.4139   29.1651   45.9949 C   0  0  1  0  0  0  0  0  0  0  0  0
   28.8465   28.9171   46.9100 H   0  0  0  0  0  0  0  0  0  0  0  0
   28.7557   28.5726   44.9407 O   0  0  0  0  0  0  0  0  0  0  0  0
   29.5775   27.9861   44.0052 C   0  0  2  0  0  0  0  0  0  0  0  0
   30.2006   28.7013   43.4237 H   0  0  0  0  0  0  0  0  0  0  0  0
   30.3892   26.8214   44.5346 C   0  0  2  0  0  0  0  0  0  0  0  0
   29.6670   25.6300   44.4936 O   0  0  0  0  0  0  0  0  0  0  0  0
   28.8812   26.6065   46.2370 H   0  0  0  0  0  0  0  0  0  0  0  0
   31.7294   26.6917   46.2678 H   0  0  0  0  0  0  0  0  0  0  0  0
   31.3245   29.0342   45.0935 H   0  0  0  0  0  0  0  0  0  0  0  0
   29.3807   30.2686   45.8824 H   0  0  0  0  0  0  0  0  0  0  0  0
   28.8864   27.5358   43.2379 H   0  0  0  0  0  0  0  0  0  0  0  0
   31.3315   26.7217   43.9276 H   0  0  0  0  0  0  0  0  0  0  0  0
   30.0907   24.9737   45.1033 H   0  0  0  0  0  0  0  0  0  0  0  0
  1  3  1  0
  2  1  1  0
  2  3  1  0
  4  1  1  0
  4  5  2  0
  6  5  1  0
  7  6  2  0
  8  9  2  0
  8  7  1  0
  9  4  1  0
 10 15  1  0
 10 14  1  0
 10 11  1  0
 11  2  1  0
 11 12  1  0
 13 12  1  0
 14 16  1  0
 14 13  1  0
  1 17  1  1
  2 18  1  6
  3 19  1  0
  3 20  1  0
  5 21  1  0
  6 22  1  0
  8 23  1  0
 10 24  1  1
 11 25  1  6
 13 26  1  0
 13 27  1  0
 14 28  1  6
 15 29  1  0
 30 31  1  0
 31 32  1  0
 32 33  1  0
 33 34  1  1
 33 35  1  0
 35 36  1  0
 36 37  1  6
 36 38  1  0
 38 39  1  0
 38 31  1  0
 30 40  1  0
 31 41  1  1
 32 42  1  6
 33 43  1  0
 36 44  1  0
 38 45  1  6
 39 46  1  0
 16 32  1  0
M  ISO  8  17  13  18  13  19  13  20  13  21  14  22  14  23  14  24  13
M  ISO  7  25  13  26  13  27  13  28  13  29   3  34   8  37   8
M  END
>  <DihAtoms>  (1) 
13,15,31,30

>  <DihDeg>  (1) 
117.75017060757628

$$$$
