
 OpenBabel03272508263D

 41 44  0  0  1  0  0  0  0  0999 V2000
   33.7540   28.8290   47.2450 C   0  0  2  0  0  0  0  0  0  0  0  0
   34.4790   28.0670   48.3460 C   0  0  2  0  0  0  0  0  0  0  0  0
   33.5600   27.8650   49.3290 O   0  0  0  0  0  0  0  0  0  0  0  0
   32.2980   27.9030   48.8190 C   0  0  0  0  0  0  0  0  0  0  0  0
   32.3970   28.1160   47.3190 C   0  0  1  0  0  0  0  0  0  0  0  0
   33.5700   29.8740   47.5450 H   0  0  0  0  0  0  0  0  0  0  0  0
   34.7980   27.0890   47.9460 H   0  0  0  0  0  0  0  0  0  0  0  0
   31.7550   26.9400   48.9820 H   0  0  0  0  0  0  0  0  0  0  0  0
   31.6640   28.7060   49.2690 H   0  0  0  0  0  0  0  0  0  0  0  0
   32.5710   27.1390   46.8470 H   0  0  0  0  0  0  0  0  0  0  0  0
   35.5220   30.3590   48.9410 C   0  0  1  0  0  0  0  0  0  0  0  0
   35.6150   28.9250   48.8030 C   0  0  1  0  0  0  0  0  0  0  0  0
   35.6700   29.4790   50.1880 C   0  0  0  0  0  0  0  0  0  0  0  0
   34.6120   30.9780   49.0290 H   0  0  0  0  0  0  0  0  0  0  0  0
   36.6060   28.5370   48.4320 H   0  0  0  0  0  0  0  0  0  0  0  0
   36.6430   29.5020   50.7380 H   0  0  0  0  0  0  0  0  0  0  0  0
   34.8240   29.3730   50.8780 H   0  0  0  0  0  0  0  0  0  0  0  0
   36.7370   31.2490   48.7280 C   0  0  0  0  0  0  0  0  0  0  0  0
   36.9910   32.2190   49.6970 C   0  0  0  0  0  0  0  0  0  0  0  0
   38.0960   33.0250   49.4330 C   0  0  0  0  0  0  0  0  0  0  0  0
   38.8460   32.8540   48.3090 N   0  0  0  0  0  0  0  0  0  0  0  0
   38.5580   31.8950   47.3970 C   0  0  0  0  0  0  0  0  0  0  0  0
   37.4910   31.0850   47.6100 N   0  0  0  0  0  0  0  0  0  0  0  0
   36.3660   32.3110   50.5670 H   0  0  0  0  0  0  0  0  0  0  0  0
   38.3550   33.7960   50.1360 H   0  0  0  0  0  0  0  0  0  0  0  0
   39.1320   31.7330   46.4950 H   0  0  0  0  0  0  0  0  0  0  0  0
   34.3240   28.6780   45.9960 O   0  0  0  0  0  0  0  0  0  0  0  0
   34.1180   29.5060   45.4930 H   0  0  0  0  0  0  0  0  0  0  0  0
   31.3940   28.8760   46.8000 O   0  0  0  0  0  0  0  0  0  0  0  0
   29.0720   29.5460   46.7970 C   0  0  2  0  0  3  0  0  0  0  0  0
   30.1180   28.4930   47.0880 C   0  0  1  0  0  3  0  0  0  0  0  0
   29.6660   27.2350   46.4020 C   0  0  0  0  0  3  0  0  0  0  0  0
   29.7110   27.2970   45.3000 H   0  0  0  0  0  0  0  0  0  0  0  0
   28.3550   26.9790   46.7380 O   0  0  0  0  0  0  0  0  0  0  0  0
   27.8920   27.6830   47.8270 C   0  0  0  0  0  3  0  0  0  0  0  0
   28.3630   27.4020   48.7950 H   0  0  0  0  0  0  0  0  0  0  0  0
   27.8550   29.1850   47.6250 C   0  0  2  0  0  3  0  0  0  0  0  0
   28.6780   29.3820   45.4540 O   0  0  0  0  0  0  0  0  0  0  0  0
   27.8600   28.8330   45.3680 H   0  0  0  0  0  0  0  0  0  0  0  0
   26.6800   29.5900   46.9950 O   0  0  0  0  0  0  0  0  0  0  0  0
   26.8130   30.4960   46.6140 H   0  0  0  0  0  0  0  0  0  0  0  0
  1  5  1  0  0  0  0
  1  6  1  1  0  0  0
  1  2  1  0  0  0  0
  2  7  1  6  0  0  0
  2 12  1  0  0  0  0
  2  3  1  0  0  0  0
  4  8  1  0  0  0  0
  4  9  1  0  0  0  0
  4  3  1  0  0  0  0
  5 10  1  6  0  0  0
  5  4  1  0  0  0  0
 11 14  1  6  0  0  0
 11 13  1  0  0  0  0
 12 15  1  6  0  0  0
 12 11  1  0  0  0  0
 12 13  1  0  0  0  0
 13 16  1  0  0  0  0
 13 17  1  0  0  0  0
 18 11  1  0  0  0  0
 18 19  1  0  0  0  0
 19 24  1  0  0  0  0
 20 19  2  0  0  0  0
 20 25  1  0  0  0  0
 21 20  1  0  0  0  0
 22 23  1  0  0  0  0
 22 21  2  0  0  0  0
 23 18  2  0  0  0  0
 26 22  1  0  0  0  0
 27  1  1  0  0  0  0
 28 27  1  0  0  0  0
 29  5  1  0  0  0  0
 30 38  1  6  0  0  0
 30 31  1  0  0  0  0
 30 37  1  0  0  0  0
 31 29  1  6  0  0  0
 32 34  1  0  0  0  0
 32 31  1  0  0  0  0
 33 32  1  0  0  0  0
 34 35  1  0  0  0  0
 35 36  1  0  0  0  0
 37 40  1  6  0  0  0
 37 35  1  0  0  0  0
 39 38  1  0  0  0  0
 41 40  1  0  0  0  0
M  END
>  <minimizedAffinity>
-5.67436457

>  <minimizedRMSD>
1.68133271

$$$$
