
 OpenBabel03262521443D

 49 52  0  0  1  0  0  0  0  0999 V2000
   38.9730   23.2030   32.7770 C   0  0  2  0  0  0  0  0  0  0  0  0
   37.5620   23.7500   32.6930 C   0  0  2  0  0  0  0  0  0  0  0  0
   36.6470   22.6000   32.4370 C   0  0  0  0  0  0  0  0  0  0  0  0
   37.0810   21.4650   33.0560 O   0  0  0  0  0  0  0  0  0  0  0  0
   37.6110   21.7710   34.2950 C   0  0  0  0  0  0  0  0  0  0  0  0
   38.9840   22.3620   34.0820 C   0  0  2  0  0  0  0  0  0  0  0  0
   39.1880   22.5220   31.9390 H   0  0  0  0  0  0  0  0  0  0  0  0
   37.4400   23.9840   33.7620 H   0  0  0  0  0  0  0  0  0  0  0  0
   35.5850   22.8330   32.6750 H   0  0  0  0  0  0  0  0  0  0  0  0
   36.6680   22.4030   31.3280 H   0  0  0  0  0  0  0  0  0  0  0  0
   36.9570   22.3820   34.9430 H   0  0  0  0  0  0  0  0  0  0  0  0
   37.7160   20.8110   34.8450 H   0  0  0  0  0  0  0  0  0  0  0  0
   39.6700   21.5240   33.9730 H   0  0  0  0  0  0  0  0  0  0  0  0
   39.9750   24.1020   32.9260 O   0  0  0  0  0  0  0  0  0  0  0  0
   40.5420   24.2380   32.1140 H   0  0  0  0  0  0  0  0  0  0  0  0
   37.3670   24.8010   31.8500 O   0  0  0  0  0  0  0  0  0  0  0  0
   36.6430   25.7690   32.4140 C   0  0  1  0  0  0  0  0  0  0  0  0
   37.3130   27.1190   32.4630 C   0  0  2  0  0  0  0  0  0  0  0  0
   37.4710   27.3210   30.9460 C   0  0  0  0  0  0  0  0  0  0  0  0
   36.2920   26.9090   30.3760 O   0  0  0  0  0  0  0  0  0  0  0  0
   35.6360   26.1850   31.2900 C   0  0  0  0  0  0  0  0  0  0  0  0
   35.8580   25.4870   33.1560 H   0  0  0  0  0  0  0  0  0  0  0  0
   36.6200   27.8840   32.8290 H   0  0  0  0  0  0  0  0  0  0  0  0
   37.7640   28.3460   30.7050 H   0  0  0  0  0  0  0  0  0  0  0  0
   38.3200   26.6560   30.6370 H   0  0  0  0  0  0  0  0  0  0  0  0
   35.1740   27.0670   31.8950 H   0  0  0  0  0  0  0  0  0  0  0  0
   34.7510   25.6720   31.1580 H   0  0  0  0  0  0  0  0  0  0  0  0
   38.6160   27.0660   33.1400 C   0  0  0  0  0  0  0  0  0  0  0  0
   38.6250   26.8500   34.5190 C   0  0  0  0  0  0  0  0  0  0  0  0
   39.9000   26.8190   35.1470 C   0  0  0  0  0  0  0  0  0  0  0  0
   41.0220   27.0000   34.3810 N   0  0  0  0  0  0  0  0  0  0  0  0
   40.9580   27.2060   33.0470 C   0  0  0  0  0  0  0  0  0  0  0  0
   39.7570   27.2360   32.4380 N   0  0  0  0  0  0  0  0  0  0  0  0
   37.7550   26.7090   35.1230 H   0  0  0  0  0  0  0  0  0  0  0  0
   40.0290   26.6630   36.1950 H   0  0  0  0  0  0  0  0  0  0  0  0
   41.8580   27.3450   32.4640 H   0  0  0  0  0  0  0  0  0  0  0  0
   39.2110   23.1990   35.1700 O   0  0  0  0  0  0  0  0  0  0  0  0
   39.6820   22.9640   37.5520 C   0  0  1  0  0  3  0  0  0  0  0  0
   38.7850   22.7900   36.3840 C   0  0  1  0  0  3  0  0  0  0  0  0
   37.4840   23.5460   36.6710 C   0  0  0  0  0  3  0  0  0  0  0  0
   36.7890   22.9870   37.2940 H   0  0  0  0  0  0  0  0  0  0  0  0
   37.7800   24.7760   37.2150 O   0  0  0  0  0  0  0  0  0  0  0  0
   38.2040   24.6920   38.5470 C   0  0  0  0  0  3  0  0  0  0  0  0
   38.9270   25.5350   38.6670 H   0  0  0  0  0  0  0  0  0  0  0  0
   38.8900   23.3660   38.7810 C   0  0  1  0  0  3  0  0  0  0  0  0
   40.2820   21.7490   37.8620 O   0  0  0  0  0  0  0  0  0  0  0  0
   40.8900   21.8110   38.6410 H   0  0  0  0  0  0  0  0  0  0  0  0
   38.0160   22.3800   39.2020 O   0  0  0  0  0  0  0  0  0  0  0  0
   37.2140   22.7000   39.6420 H   0  0  0  0  0  0  0  0  0  0  0  0
  1  7  1  6  0  0  0
  1 14  1  0  0  0  0
  1  6  1  0  0  0  0
  2  1  1  0  0  0  0
  2  8  1  1  0  0  0
  3  9  1  0  0  0  0
  3  2  1  0  0  0  0
  3  4  1  0  0  0  0
  4  5  1  0  0  0  0
  5 12  1  0  0  0  0
  5 11  1  0  0  0  0
  6 13  1  6  0  0  0
  6  5  1  0  0  0  0
  6 37  1  0  0  0  0
 10  3  1  0  0  0  0
 15 14  1  0  0  0  0
 16 17  1  0  0  0  0
 16  2  1  0  0  0  0
 17 18  1  0  0  0  0
 17 22  1  1  0  0  0
 18 23  1  1  0  0  0
 18 28  1  0  0  0  0
 19 18  1  0  0  0  0
 20 19  1  0  0  0  0
 20 21  1  0  0  0  0
 21 26  1  0  0  0  0
 21 17  1  0  0  0  0
 24 19  1  0  0  0  0
 25 19  1  0  0  0  0
 27 21  1  0  0  0  0
 28 29  1  0  0  0  0
 29 34  1  0  0  0  0
 29 30  2  0  0  0  0
 30 35  1  0  0  0  0
 31 30  1  0  0  0  0
 32 31  2  0  0  0  0
 33 32  1  0  0  0  0
 33 28  2  0  0  0  0
 36 32  1  0  0  0  0
 38 46  1  1  0  0  0
 38 45  1  0  0  0  0
 39 37  1  6  0  0  0
 39 40  1  0  0  0  0
 39 38  1  0  0  0  0
 40 42  1  0  0  0  0
 40 41  1  0  0  0  0
 42 43  1  0  0  0  0
 43 44  1  0  0  0  0
 43 45  1  0  0  0  0
 45 48  1  6  0  0  0
 46 47  1  0  0  0  0
 48 49  1  0  0  0  0
M  END
>  <minimizedAffinity>
-6.34608364

$$$$

 OpenBabel03262521443D

 49 52  0  0  1  0  0  0  0  0999 V2000
   38.3900   24.7390   34.7280 C   0  0  2  0  0  0  0  0  0  0  0  0
   37.6530   25.7740   33.9010 C   0  0  2  0  0  0  0  0  0  0  0  0
   37.1200   26.8030   34.8400 C   0  0  0  0  0  0  0  0  0  0  0  0
   37.9580   27.0020   35.8970 O   0  0  0  0  0  0  0  0  0  0  0  0
   39.2740   26.9440   35.4790 C   0  0  0  0  0  0  0  0  0  0  0  0
   39.6340   25.4930   35.2710 C   0  0  2  0  0  0  0  0  0  0  0  0
   37.7900   24.4180   35.5930 H   0  0  0  0  0  0  0  0  0  0  0  0
   38.5390   26.2370   33.4380 H   0  0  0  0  0  0  0  0  0  0  0  0
   36.8500   27.7540   34.3280 H   0  0  0  0  0  0  0  0  0  0  0  0
   36.1520   26.4020   35.2540 H   0  0  0  0  0  0  0  0  0  0  0  0
   39.5180   27.5930   34.6180 H   0  0  0  0  0  0  0  0  0  0  0  0
   39.8920   27.3520   36.3090 H   0  0  0  0  0  0  0  0  0  0  0  0
   39.9060   25.0970   36.2480 H   0  0  0  0  0  0  0  0  0  0  0  0
   38.8880   23.6640   34.0690 O   0  0  0  0  0  0  0  0  0  0  0  0
   38.3970   22.8080   34.2320 H   0  0  0  0  0  0  0  0  0  0  0  0
   36.7260   25.3030   33.0240 O   0  0  0  0  0  0  0  0  0  0  0  0
   37.1860   25.2790   31.7710 C   0  0  1  0  0  0  0  0  0  0  0  0
   36.5370   24.2560   30.8740 C   0  0  2  0  0  0  0  0  0  0  0  0
   35.1000   24.8000   30.9540 C   0  0  0  0  0  0  0  0  0  0  0  0
   35.1970   26.1660   30.8580 O   0  0  0  0  0  0  0  0  0  0  0  0
   36.4730   26.4950   31.0900 C   0  0  0  0  0  0  0  0  0  0  0  0
   38.2230   25.6450   31.5760 H   0  0  0  0  0  0  0  0  0  0  0  0
   36.8780   24.3740   29.8400 H   0  0  0  0  0  0  0  0  0  0  0  0
   34.4500   24.3330   30.2100 H   0  0  0  0  0  0  0  0  0  0  0  0
   34.7150   24.4950   31.9630 H   0  0  0  0  0  0  0  0  0  0  0  0
   36.8940   26.2700   30.0270 H   0  0  0  0  0  0  0  0  0  0  0  0
   36.8670   27.4450   31.1610 H   0  0  0  0  0  0  0  0  0  0  0  0
   36.6320   22.8970   31.4240 C   0  0  0  0  0  0  0  0  0  0  0  0
   35.4550   22.2890   31.8630 C   0  0  0  0  0  0  0  0  0  0  0  0
   35.5820   20.9800   32.4040 C   0  0  0  0  0  0  0  0  0  0  0  0
   36.8240   20.4040   32.4630 N   0  0  0  0  0  0  0  0  0  0  0  0
   37.9340   21.0360   32.0230 C   0  0  0  0  0  0  0  0  0  0  0  0
   37.8290   22.2770   31.5070 N   0  0  0  0  0  0  0  0  0  0  0  0
   34.4840   22.7330   31.8220 H   0  0  0  0  0  0  0  0  0  0  0  0
   34.7510   20.4200   32.7720 H   0  0  0  0  0  0  0  0  0  0  0  0
   38.9030   20.5600   32.0790 H   0  0  0  0  0  0  0  0  0  0  0  0
   40.6380   25.4850   34.3090 O   0  0  0  0  0  0  0  0  0  0  0  0
   43.0420   25.7990   34.5800 C   0  0  1  0  0  3  0  0  0  0  0  0
   41.6680   26.3440   34.4590 C   0  0  1  0  0  3  0  0  0  0  0  0
   41.6380   27.2830   33.2490 C   0  0  0  0  0  3  0  0  0  0  0  0
   42.0180   28.2790   33.4660 H   0  0  0  0  0  0  0  0  0  0  0  0
   42.3100   26.6980   32.1990 O   0  0  0  0  0  0  0  0  0  0  0  0
   43.7000   26.7140   32.3690 C   0  0  0  0  0  3  0  0  0  0  0  0
   44.0570   25.7850   31.8610 H   0  0  0  0  0  0  0  0  0  0  0  0
   44.0340   26.6770   33.8420 C   0  0  1  0  0  3  0  0  0  0  0  0
   43.4330   25.8170   35.9140 O   0  0  0  0  0  0  0  0  0  0  0  0
   44.3480   25.4650   36.0490 H   0  0  0  0  0  0  0  0  0  0  0  0
   44.1480   27.9390   34.3950 O   0  0  0  0  0  0  0  0  0  0  0  0
   44.3750   28.6440   33.7700 H   0  0  0  0  0  0  0  0  0  0  0  0
  1  6  1  0  0  0  0
  1  7  1  1  0  0  0
  2  8  1  6  0  0  0
  2  1  1  0  0  0  0
  2  3  1  0  0  0  0
  3 10  1  0  0  0  0
  3  4  1  0  0  0  0
  5  4  1  0  0  0  0
  5 12  1  0  0  0  0
  6  5  1  0  0  0  0
  6 13  1  1  0  0  0
  9  3  1  0  0  0  0
 11  5  1  0  0  0  0
 14 15  1  0  0  0  0
 14  1  1  0  0  0  0
 16  2  1  0  0  0  0
 17 22  1  6  0  0  0
 17 16  1  0  0  0  0
 18 23  1  6  0  0  0
 18 19  1  0  0  0  0
 18 28  1  0  0  0  0
 18 17  1  0  0  0  0
 19 25  1  0  0  0  0
 20 19  1  0  0  0  0
 20 21  1  0  0  0  0
 21 27  1  0  0  0  0
 21 17  1  0  0  0  0
 24 19  1  0  0  0  0
 26 21  1  0  0  0  0
 28 33  2  0  0  0  0
 28 29  1  0  0  0  0
 29 30  2  0  0  0  0
 30 31  1  0  0  0  0
 30 35  1  0  0  0  0
 32 36  1  0  0  0  0
 32 31  2  0  0  0  0
 33 32  1  0  0  0  0
 34 29  1  0  0  0  0
 37  6  1  0  0  0  0
 38 46  1  1  0  0  0
 39 37  1  6  0  0  0
 39 38  1  0  0  0  0
 40 41  1  0  0  0  0
 40 39  1  0  0  0  0
 42 43  1  0  0  0  0
 42 40  1  0  0  0  0
 43 45  1  0  0  0  0
 44 43  1  0  0  0  0
 45 48  1  1  0  0  0
 45 38  1  0  0  0  0
 46 47  1  0  0  0  0
 49 48  1  0  0  0  0
M  END
>  <minimizedAffinity>
-5.73520994

$$$$

 OpenBabel03262521443D

 49 52  0  0  1  0  0  0  0  0999 V2000
   38.8120   23.0900   35.8420 C   0  0  2  0  0  0  0  0  0  0  0  0
   38.3510   24.4440   36.3470 C   0  0  2  0  0  0  0  0  0  0  0  0
   37.5170   24.2110   37.5620 C   0  0  0  0  0  0  0  0  0  0  0  0
   37.9670   23.1440   38.2840 O   0  0  0  0  0  0  0  0  0  0  0  0
   39.3480   23.1120   38.2750 C   0  0  0  0  0  0  0  0  0  0  0  0
   39.7950   22.5860   36.9320 C   0  0  2  0  0  0  0  0  0  0  0  0
   37.9750   22.3770   35.7910 H   0  0  0  0  0  0  0  0  0  0  0  0
   39.3250   24.7890   36.7280 H   0  0  0  0  0  0  0  0  0  0  0  0
   37.4000   25.1250   38.1860 H   0  0  0  0  0  0  0  0  0  0  0  0
   36.4790   23.9570   37.2060 H   0  0  0  0  0  0  0  0  0  0  0  0
   39.8380   24.0580   38.5700 H   0  0  0  0  0  0  0  0  0  0  0  0
   39.6570   22.3910   39.0630 H   0  0  0  0  0  0  0  0  0  0  0  0
   39.7500   21.5000   36.9930 H   0  0  0  0  0  0  0  0  0  0  0  0
   39.5230   23.0730   34.6890 O   0  0  0  0  0  0  0  0  0  0  0  0
   39.0280   22.7140   33.8970 H   0  0  0  0  0  0  0  0  0  0  0  0
   37.7670   25.2660   35.4340 O   0  0  0  0  0  0  0  0  0  0  0  0
   38.6520   26.0740   34.8470 C   0  0  1  0  0  0  0  0  0  0  0  0
   38.2000   26.6690   33.5380 C   0  0  2  0  0  0  0  0  0  0  0  0
   36.9800   27.4380   34.0760 C   0  0  0  0  0  0  0  0  0  0  0  0
   37.3800   28.0220   35.2520 O   0  0  0  0  0  0  0  0  0  0  0  0
   38.5110   27.4180   35.6360 C   0  0  0  0  0  0  0  0  0  0  0  0
   39.7360   25.9340   35.0730 H   0  0  0  0  0  0  0  0  0  0  0  0
   38.9230   27.4070   33.1750 H   0  0  0  0  0  0  0  0  0  0  0  0
   36.5820   28.1330   33.3320 H   0  0  0  0  0  0  0  0  0  0  0  0
   36.1890   26.6650   34.2600 H   0  0  0  0  0  0  0  0  0  0  0  0
   39.2490   28.0080   34.9530 H   0  0  0  0  0  0  0  0  0  0  0  0
   39.0320   27.5720   36.5120 H   0  0  0  0  0  0  0  0  0  0  0  0
   37.8030   25.6380   32.5680 C   0  0  0  0  0  0  0  0  0  0  0  0
   36.4890   25.6600   32.0960 C   0  0  0  0  0  0  0  0  0  0  0  0
   36.1310   24.6410   31.1710 C   0  0  0  0  0  0  0  0  0  0  0  0
   37.0740   23.7170   30.8050 N   0  0  0  0  0  0  0  0  0  0  0  0
   38.3340   23.7400   31.2920 C   0  0  0  0  0  0  0  0  0  0  0  0
   38.6880   24.7000   32.1690 N   0  0  0  0  0  0  0  0  0  0  0  0
   35.7490   26.3780   32.3770 H   0  0  0  0  0  0  0  0  0  0  0  0
   35.1570   24.5590   30.7450 H   0  0  0  0  0  0  0  0  0  0  0  0
   39.0610   22.9990   30.9870 H   0  0  0  0  0  0  0  0  0  0  0  0
   41.0550   23.1320   36.7100 O   0  0  0  0  0  0  0  0  0  0  0  0
   41.8770   20.8390   36.8210 C   0  0  1  0  0  3  0  0  0  0  0  0
   42.1150   22.2970   36.6960 C   0  0  1  0  0  3  0  0  0  0  0  0
   42.8520   22.5440   35.3760 C   0  0  0  0  0  3  0  0  0  0  0  0
   43.9240   22.3700   35.4420 H   0  0  0  0  0  0  0  0  0  0  0  0
   42.2740   21.7880   34.3800 O   0  0  0  0  0  0  0  0  0  0  0  0
   42.5900   20.4270   34.4800 C   0  0  0  0  0  3  0  0  0  0  0  0
   41.6900   19.8980   34.0820 H   0  0  0  0  0  0  0  0  0  0  0  0
   42.8250   20.0630   35.9270 C   0  0  1  0  0  3  0  0  0  0  0  0
   42.1570   20.4330   38.1200 O   0  0  0  0  0  0  0  0  0  0  0  0
   42.0170   19.4620   38.2560 H   0  0  0  0  0  0  0  0  0  0  0  0
   44.1490   20.1970   36.3040 O   0  0  0  0  0  0  0  0  0  0  0  0
   44.7910   20.1320   35.5810 H   0  0  0  0  0  0  0  0  0  0  0  0
  1  7  1  6  0  0  0
  1  2  1  0  0  0  0
  1  6  1  0  0  0  0
  2  8  1  1  0  0  0
  2  3  1  0  0  0  0
  3  9  1  0  0  0  0
  3  4  1  0  0  0  0
  5  4  1  0  0  0  0
  5 11  1  0  0  0  0
  5 12  1  0  0  0  0
  6 13  1  1  0  0  0
  6  5  1  0  0  0  0
 10  3  1  0  0  0  0
 14  1  1  0  0  0  0
 15 14  1  0  0  0  0
 16  2  1  0  0  0  0
 17 22  1  6  0  0  0
 17 16  1  0  0  0  0
 17 21  1  0  0  0  0
 18 23  1  6  0  0  0
 18 19  1  0  0  0  0
 18 17  1  0  0  0  0
 19 25  1  0  0  0  0
 19 20  1  0  0  0  0
 20 21  1  0  0  0  0
 21 27  1  0  0  0  0
 24 19  1  0  0  0  0
 26 21  1  0  0  0  0
 28 18  1  0  0  0  0
 29 34  1  0  0  0  0
 29 28  2  0  0  0  0
 30 29  1  0  0  0  0
 31 30  2  0  0  0  0
 31 32  1  0  0  0  0
 32 33  2  0  0  0  0
 33 28  1  0  0  0  0
 35 30  1  0  0  0  0
 36 32  1  0  0  0  0
 37  6  1  0  0  0  0
 38 46  1  1  0  0  0
 39 37  1  6  0  0  0
 39 38  1  0  0  0  0
 40 41  1  0  0  0  0
 40 39  1  0  0  0  0
 42 43  1  0  0  0  0
 42 40  1  0  0  0  0
 43 45  1  0  0  0  0
 44 43  1  0  0  0  0
 45 48  1  1  0  0  0
 45 38  1  0  0  0  0
 46 47  1  0  0  0  0
 49 48  1  0  0  0  0
M  END
>  <minimizedAffinity>
-5.66442871

$$$$

 OpenBabel03262521443D

 49 52  0  0  1  0  0  0  0  0999 V2000
   37.5800   24.6820   31.5560 C   0  0  2  0  0  0  0  0  0  0  0  0
   36.9190   25.5990   32.5670 C   0  0  2  0  0  0  0  0  0  0  0  0
   36.0540   26.5520   31.8120 C   0  0  0  0  0  0  0  0  0  0  0  0
   35.5030   25.9660   30.7100 O   0  0  0  0  0  0  0  0  0  0  0  0
   35.1530   24.6590   30.9900 C   0  0  0  0  0  0  0  0  0  0  0  0
   36.4130   23.8280   30.9890 C   0  0  2  0  0  0  0  0  0  0  0  0
   38.0110   25.2540   30.7210 H   0  0  0  0  0  0  0  0  0  0  0  0
   36.2260   24.8570   32.9950 H   0  0  0  0  0  0  0  0  0  0  0  0
   35.2910   27.0440   32.4560 H   0  0  0  0  0  0  0  0  0  0  0  0
   36.7190   27.3840   31.4480 H   0  0  0  0  0  0  0  0  0  0  0  0
   34.5310   24.5270   31.8950 H   0  0  0  0  0  0  0  0  0  0  0  0
   34.4980   24.3180   30.1600 H   0  0  0  0  0  0  0  0  0  0  0  0
   36.6170   23.5730   29.9510 H   0  0  0  0  0  0  0  0  0  0  0  0
   38.4760   23.7850   32.0320 O   0  0  0  0  0  0  0  0  0  0  0  0
   39.4310   23.9920   31.8170 H   0  0  0  0  0  0  0  0  0  0  0  0
   37.7400   26.2040   33.4670 O   0  0  0  0  0  0  0  0  0  0  0  0
   37.2640   26.1290   34.7110 C   0  0  1  0  0  0  0  0  0  0  0  0
   38.2590   25.6710   35.7470 C   0  0  2  0  0  0  0  0  0  0  0  0
   39.2680   26.8210   35.5800 C   0  0  0  0  0  0  0  0  0  0  0  0
   38.5280   27.9720   35.4740 O   0  0  0  0  0  0  0  0  0  0  0  0
   37.2670   27.6150   35.2020 C   0  0  0  0  0  0  0  0  0  0  0  0
   36.1680   25.9740   34.8560 H   0  0  0  0  0  0  0  0  0  0  0  0
   37.8350   25.7460   36.7540 H   0  0  0  0  0  0  0  0  0  0  0  0
   40.0100   26.8250   36.3830 H   0  0  0  0  0  0  0  0  0  0  0  0
   39.8180   26.6080   34.6260 H   0  0  0  0  0  0  0  0  0  0  0  0
   36.9340   27.3590   36.2880 H   0  0  0  0  0  0  0  0  0  0  0  0
   36.4750   28.2410   34.9930 H   0  0  0  0  0  0  0  0  0  0  0  0
   38.8580   24.3730   35.4050 C   0  0  0  0  0  0  0  0  0  0  0  0
   40.2440   24.3160   35.2510 C   0  0  0  0  0  0  0  0  0  0  0  0
   40.7920   23.0510   34.9050 C   0  0  0  0  0  0  0  0  0  0  0  0
   39.9470   21.9840   34.7450 N   0  0  0  0  0  0  0  0  0  0  0  0
   38.6100   22.0920   34.9050 C   0  0  0  0  0  0  0  0  0  0  0  0
   38.0760   23.2850   35.2350 N   0  0  0  0  0  0  0  0  0  0  0  0
   40.9090   25.1450   35.3730 H   0  0  0  0  0  0  0  0  0  0  0  0
   41.8370   22.8890   34.7600 H   0  0  0  0  0  0  0  0  0  0  0  0
   37.9640   21.2350   34.7750 H   0  0  0  0  0  0  0  0  0  0  0  0
   36.1650   22.7590   31.8430 O   0  0  0  0  0  0  0  0  0  0  0  0
   37.1000   20.5500   31.3980 C   0  0  1  0  0  3  0  0  0  0  0  0
   35.9970   21.5360   31.2960 C   0  0  1  0  0  3  0  0  0  0  0  0
   34.7560   20.9260   31.9550 C   0  0  0  0  0  3  0  0  0  0  0  0
   34.2130   20.2440   31.3030 H   0  0  0  0  0  0  0  0  0  0  0  0
   35.1170   20.3210   33.1380 O   0  0  0  0  0  0  0  0  0  0  0  0
   35.7960   19.1120   32.9440 C   0  0  0  0  0  3  0  0  0  0  0  0
   36.5030   19.0430   33.8050 H   0  0  0  0  0  0  0  0  0  0  0  0
   36.5530   19.1560   31.6370 C   0  0  1  0  0  3  0  0  0  0  0  0
   37.7840   20.4920   30.1900 O   0  0  0  0  0  0  0  0  0  0  0  0
   38.5310   19.8420   30.2040 H   0  0  0  0  0  0  0  0  0  0  0  0
   35.8080   18.6830   30.5720 O   0  0  0  0  0  0  0  0  0  0  0  0
   35.0990   18.0650   30.8070 H   0  0  0  0  0  0  0  0  0  0  0  0
  1  7  1  6  0  0  0
  1 14  1  0  0  0  0
  1  2  1  0  0  0  0
  2  8  1  1  0  0  0
  2 16  1  0  0  0  0
  3  9  1  0  0  0  0
  3  2  1  0  0  0  0
  4  5  1  0  0  0  0
  4  3  1  0  0  0  0
  5 11  1  0  0  0  0
  6 13  1  6  0  0  0
  6  5  1  0  0  0  0
  6  1  1  0  0  0  0
  6 37  1  0  0  0  0
 10  3  1  0  0  0  0
 12  5  1  0  0  0  0
 15 14  1  0  0  0  0
 16 17  1  0  0  0  0
 17 22  1  1  0  0  0
 17 21  1  0  0  0  0
 17 18  1  0  0  0  0
 18 23  1  1  0  0  0
 19 18  1  0  0  0  0
 19 24  1  0  0  0  0
 20 19  1  0  0  0  0
 21 20  1  0  0  0  0
 21 26  1  0  0  0  0
 25 19  1  0  0  0  0
 27 21  1  0  0  0  0
 28 18  1  0  0  0  0
 29 34  1  0  0  0  0
 29 28  1  0  0  0  0
 30 29  2  0  0  0  0
 31 32  2  0  0  0  0
 31 30  1  0  0  0  0
 32 33  1  0  0  0  0
 33 28  2  0  0  0  0
 35 30  1  0  0  0  0
 36 32  1  0  0  0  0
 38 46  1  6  0  0  0
 38 45  1  0  0  0  0
 39 38  1  0  0  0  0
 39 37  1  1  0  0  0
 39 40  1  0  0  0  0
 40 42  1  0  0  0  0
 41 40  1  0  0  0  0
 43 42  1  0  0  0  0
 43 44  1  0  0  0  0
 45 48  1  6  0  0  0
 45 43  1  0  0  0  0
 46 47  1  0  0  0  0
 48 49  1  0  0  0  0
M  END
>  <minimizedAffinity>
-5.59604311

$$$$

 OpenBabel03262521443D

 49 52  0  0  1  0  0  0  0  0999 V2000
   40.0900   23.6810   33.0140 C   0  0  2  0  0  0  0  0  0  0  0  0
   38.6640   23.9930   32.6060 C   0  0  2  0  0  0  0  0  0  0  0  0
   38.0450   22.7240   32.1230 C   0  0  0  0  0  0  0  0  0  0  0  0
   38.5130   21.6430   32.8110 O   0  0  0  0  0  0  0  0  0  0  0  0
   38.6820   21.9640   34.1450 C   0  0  0  0  0  0  0  0  0  0  0  0
   39.9430   22.7830   34.2720 C   0  0  2  0  0  0  0  0  0  0  0  0
   40.6060   23.0910   32.2410 H   0  0  0  0  0  0  0  0  0  0  0  0
   38.2590   24.1440   33.6190 H   0  0  0  0  0  0  0  0  0  0  0  0
   36.9330   22.7660   32.1060 H   0  0  0  0  0  0  0  0  0  0  0  0
   38.3550   22.5930   31.0490 H   0  0  0  0  0  0  0  0  0  0  0  0
   37.8000   22.4230   34.6290 H   0  0  0  0  0  0  0  0  0  0  0  0
   38.8200   21.0050   34.6900 H   0  0  0  0  0  0  0  0  0  0  0  0
   40.7700   22.0760   34.3170 H   0  0  0  0  0  0  0  0  0  0  0  0
   40.8600   24.7230   33.4100 O   0  0  0  0  0  0  0  0  0  0  0  0
   41.5670   24.9940   32.7570 H   0  0  0  0  0  0  0  0  0  0  0  0
   38.4900   25.0410   31.7560 O   0  0  0  0  0  0  0  0  0  0  0  0
   38.4020   26.2040   32.4040 C   0  0  1  0  0  0  0  0  0  0  0  0
   38.1960   27.4100   31.5240 C   0  0  2  0  0  0  0  0  0  0  0  0
   36.8500   26.9840   30.9110 C   0  0  0  0  0  0  0  0  0  0  0  0
   36.1020   26.4680   31.9400 O   0  0  0  0  0  0  0  0  0  0  0  0
   36.9370   26.2140   32.9550 C   0  0  0  0  0  0  0  0  0  0  0  0
   38.8890   26.2960   33.4050 H   0  0  0  0  0  0  0  0  0  0  0  0
   38.0160   28.3060   32.1270 H   0  0  0  0  0  0  0  0  0  0  0  0
   36.3760   27.8060   30.3680 H   0  0  0  0  0  0  0  0  0  0  0  0
   37.0950   26.1910   30.1570 H   0  0  0  0  0  0  0  0  0  0  0  0
   37.0030   27.2950   33.3850 H   0  0  0  0  0  0  0  0  0  0  0  0
   36.7070   25.7570   33.8500 H   0  0  0  0  0  0  0  0  0  0  0  0
   39.2410   27.5330   30.4980 C   0  0  0  0  0  0  0  0  0  0  0  0
   40.5650   27.6400   30.9280 C   0  0  0  0  0  0  0  0  0  0  0  0
   41.5520   27.7740   29.9130 C   0  0  0  0  0  0  0  0  0  0  0  0
   41.1560   27.7900   28.6010 N   0  0  0  0  0  0  0  0  0  0  0  0
   39.8590   27.6830   28.2380 C   0  0  0  0  0  0  0  0  0  0  0  0
   38.9120   27.5550   29.1890 N   0  0  0  0  0  0  0  0  0  0  0  0
   40.8810   27.6290   31.9490 H   0  0  0  0  0  0  0  0  0  0  0  0
   42.5940   27.8640   30.1240 H   0  0  0  0  0  0  0  0  0  0  0  0
   39.5720   27.6970   27.1960 H   0  0  0  0  0  0  0  0  0  0  0  0
   39.7650   23.5850   35.3950 O   0  0  0  0  0  0  0  0  0  0  0  0
   39.7770   23.0460   37.7740 C   0  0  1  0  0  3  0  0  0  0  0  0
   39.1070   23.0600   36.4510 C   0  0  1  0  0  3  0  0  0  0  0  0
   37.8010   23.8480   36.5910 C   0  0  0  0  0  3  0  0  0  0  0  0
   36.9840   23.2600   37.0020 H   0  0  0  0  0  0  0  0  0  0  0  0
   38.0310   24.9880   37.3300 O   0  0  0  0  0  0  0  0  0  0  0  0
   38.1970   24.7240   38.6950 C   0  0  0  0  0  3  0  0  0  0  0  0
   38.9120   25.5050   39.0490 H   0  0  0  0  0  0  0  0  0  0  0  0
   38.7830   23.3440   38.8800 C   0  0  1  0  0  3  0  0  0  0  0  0
   40.2670   21.7710   38.0320 O   0  0  0  0  0  0  0  0  0  0  0  0
   40.7220   21.7070   38.9090 H   0  0  0  0  0  0  0  0  0  0  0  0
   37.8140   22.3650   39.0090 O   0  0  0  0  0  0  0  0  0  0  0  0
   36.9550   22.6750   39.3340 H   0  0  0  0  0  0  0  0  0  0  0  0
  1  7  1  6  0  0  0
  1 14  1  0  0  0  0
  1  6  1  0  0  0  0
  2  1  1  0  0  0  0
  2  8  1  1  0  0  0
  3  2  1  0  0  0  0
  3  4  1  0  0  0  0
  4  5  1  0  0  0  0
  5  6  1  0  0  0  0
  5 11  1  0  0  0  0
  5 12  1  0  0  0  0
  6 13  1  1  0  0  0
  6 37  1  0  0  0  0
  9  3  1  0  0  0  0
 10  3  1  0  0  0  0
 15 14  1  0  0  0  0
 16 17  1  0  0  0  0
 16  2  1  0  0  0  0
 17 21  1  0  0  0  0
 17 22  1  1  0  0  0
 18 23  1  1  0  0  0
 18 17  1  0  0  0  0
 19 18  1  0  0  0  0
 19 20  1  0  0  0  0
 20 21  1  0  0  0  0
 21 26  1  0  0  0  0
 21 27  1  0  0  0  0
 24 19  1  0  0  0  0
 25 19  1  0  0  0  0
 28 29  1  0  0  0  0
 28 18  1  0  0  0  0
 29 34  1  0  0  0  0
 30 35  1  0  0  0  0
 30 29  2  0  0  0  0
 31 30  1  0  0  0  0
 32 31  2  0  0  0  0
 32 33  1  0  0  0  0
 33 28  2  0  0  0  0
 36 32  1  0  0  0  0
 38 46  1  1  0  0  0
 38 45  1  0  0  0  0
 39 37  1  6  0  0  0
 39 40  1  0  0  0  0
 39 38  1  0  0  0  0
 40 41  1  0  0  0  0
 40 42  1  0  0  0  0
 42 43  1  0  0  0  0
 43 45  1  0  0  0  0
 43 44  1  0  0  0  0
 45 48  1  6  0  0  0
 46 47  1  0  0  0  0
 48 49  1  0  0  0  0
M  END
>  <minimizedAffinity>
-5.46892452

$$$$

 OpenBabel03262521443D

 49 52  0  0  1  0  0  0  0  0999 V2000
   39.7720   26.5080   34.3950 C   0  0  2  0  0  0  0  0  0  0  0  0
   39.2860   26.7830   32.9850 C   0  0  2  0  0  0  0  0  0  0  0  0
   40.4800   27.1130   32.1540 C   0  0  0  0  0  0  0  0  0  0  0  0
   41.5790   26.4090   32.5500 O   0  0  0  0  0  0  0  0  0  0  0  0
   41.2180   25.1250   32.9100 C   0  0  0  0  0  0  0  0  0  0  0  0
   40.5760   25.1850   34.2750 C   0  0  2  0  0  0  0  0  0  0  0  0
   40.4660   27.2910   34.7380 H   0  0  0  0  0  0  0  0  0  0  0  0
   39.0290   25.7440   32.7220 H   0  0  0  0  0  0  0  0  0  0  0  0
   40.2850   27.0150   31.0620 H   0  0  0  0  0  0  0  0  0  0  0  0
   40.7060   28.2030   32.3200 H   0  0  0  0  0  0  0  0  0  0  0  0
   40.6170   24.5820   32.1570 H   0  0  0  0  0  0  0  0  0  0  0  0
   42.1580   24.5350   32.9810 H   0  0  0  0  0  0  0  0  0  0  0  0
   41.3870   25.1820   35.0000 H   0  0  0  0  0  0  0  0  0  0  0  0
   38.8280   26.2640   35.3360 O   0  0  0  0  0  0  0  0  0  0  0  0
   38.6910   27.0050   35.9940 H   0  0  0  0  0  0  0  0  0  0  0  0
   38.2680   27.6760   32.8570 O   0  0  0  0  0  0  0  0  0  0  0  0
   37.0720   27.0930   32.9610 C   0  0  1  0  0  0  0  0  0  0  0  0
   35.9230   27.8940   32.4020 C   0  0  2  0  0  0  0  0  0  0  0  0
   36.4120   27.9600   30.9450 C   0  0  0  0  0  0  0  0  0  0  0  0
   36.8840   26.7080   30.6380 O   0  0  0  0  0  0  0  0  0  0  0  0
   37.0620   26.0520   31.7910 C   0  0  0  0  0  0  0  0  0  0  0  0
   36.9120   26.3410   33.7700 H   0  0  0  0  0  0  0  0  0  0  0  0
   34.9980   27.3070   32.4150 H   0  0  0  0  0  0  0  0  0  0  0  0
   35.6330   28.3320   30.2750 H   0  0  0  0  0  0  0  0  0  0  0  0
   37.2420   28.7150   30.9360 H   0  0  0  0  0  0  0  0  0  0  0  0
   35.9580   25.7250   31.9630 H   0  0  0  0  0  0  0  0  0  0  0  0
   37.4720   25.1150   31.9170 H   0  0  0  0  0  0  0  0  0  0  0  0
   35.8360   29.2310   33.0040 C   0  0  0  0  0  0  0  0  0  0  0  0
   35.5960   29.3130   34.3770 C   0  0  0  0  0  0  0  0  0  0  0  0
   35.5020   30.6210   34.9260 C   0  0  0  0  0  0  0  0  0  0  0  0
   35.6470   31.7020   34.0960 N   0  0  0  0  0  0  0  0  0  0  0  0
   35.8780   31.5680   32.7720 C   0  0  0  0  0  0  0  0  0  0  0  0
   35.9710   30.3340   32.2370 N   0  0  0  0  0  0  0  0  0  0  0  0
   35.4810   28.4750   35.0300 H   0  0  0  0  0  0  0  0  0  0  0  0
   35.3200   30.8050   35.9610 H   0  0  0  0  0  0  0  0  0  0  0  0
   35.9910   32.4360   32.1380 H   0  0  0  0  0  0  0  0  0  0  0  0
   39.7020   24.1040   34.3330 O   0  0  0  0  0  0  0  0  0  0  0  0
   41.0170   23.3130   36.2280 C   0  0  1  0  0  3  0  0  0  0  0  0
   40.0030   23.0890   35.1700 C   0  0  1  0  0  3  0  0  0  0  0  0
   38.6940   22.6760   35.8500 C   0  0  0  0  0  3  0  0  0  0  0  0
   38.6590   21.6210   36.1130 H   0  0  0  0  0  0  0  0  0  0  0  0
   38.4730   23.4820   36.9450 O   0  0  0  0  0  0  0  0  0  0  0  0
   39.3100   23.1720   38.0240 C   0  0  0  0  0  3  0  0  0  0  0  0
   39.4760   24.1470   38.5420 H   0  0  0  0  0  0  0  0  0  0  0  0
   40.6160   22.6120   37.5110 C   0  0  1  0  0  3  0  0  0  0  0  0
   42.2250   22.7450   35.8420 O   0  0  0  0  0  0  0  0  0  0  0  0
   42.9380   22.8630   36.5190 H   0  0  0  0  0  0  0  0  0  0  0  0
   40.5940   21.2350   37.3860 O   0  0  0  0  0  0  0  0  0  0  0  0
   39.9540   20.7790   37.9540 H   0  0  0  0  0  0  0  0  0  0  0  0
  1  7  1  1  0  0  0
  1 14  1  0  0  0  0
  2  8  1  6  0  0  0
  2  1  1  0  0  0  0
  3 10  1  0  0  0  0
  3  4  1  0  0  0  0
  3  2  1  0  0  0  0
  4  5  1  0  0  0  0
  5 12  1  0  0  0  0
  5  6  1  0  0  0  0
  6 37  1  0  0  0  0
  6  1  1  0  0  0  0
  6 13  1  1  0  0  0
  9  3  1  0  0  0  0
 11  5  1  0  0  0  0
 14 15  1  0  0  0  0
 16 17  1  0  0  0  0
 16  2  1  0  0  0  0
 17 22  1  1  0  0  0
 18 23  1  1  0  0  0
 18 17  1  0  0  0  0
 18 28  1  0  0  0  0
 19 18  1  0  0  0  0
 20 19  1  0  0  0  0
 20 21  1  0  0  0  0
 21 27  1  0  0  0  0
 21 26  1  0  0  0  0
 21 17  1  0  0  0  0
 24 19  1  0  0  0  0
 25 19  1  0  0  0  0
 28 29  1  0  0  0  0
 29 30  2  0  0  0  0
 29 34  1  0  0  0  0
 30 35  1  0  0  0  0
 31 30  1  0  0  0  0
 32 31  2  0  0  0  0
 33 32  1  0  0  0  0
 33 28  2  0  0  0  0
 36 32  1  0  0  0  0
 38 46  1  6  0  0  0
 38 45  1  0  0  0  0
 39 37  1  1  0  0  0
 39 40  1  0  0  0  0
 39 38  1  0  0  0  0
 40 41  1  0  0  0  0
 40 42  1  0  0  0  0
 42 43  1  0  0  0  0
 43 44  1  0  0  0  0
 45 48  1  6  0  0  0
 45 43  1  0  0  0  0
 46 47  1  0  0  0  0
 48 49  1  0  0  0  0
M  END
>  <minimizedAffinity>
-5.33186674

$$$$

 OpenBabel03262521443D

 49 52  0  0  1  0  0  0  0  0999 V2000
   41.4110   25.1320   34.7430 C   0  0  2  0  0  0  0  0  0  0  0  0
   41.8610   24.7140   33.3560 C   0  0  2  0  0  0  0  0  0  0  0  0
   43.2290   24.1340   33.4820 C   0  0  0  0  0  0  0  0  0  0  0  0
   43.3860   23.4670   34.6620 O   0  0  0  0  0  0  0  0  0  0  0  0
   42.2260   22.7890   34.9830 C   0  0  0  0  0  0  0  0  0  0  0  0
   41.2280   23.7930   35.5080 C   0  0  2  0  0  0  0  0  0  0  0  0
   42.1930   25.7080   35.2590 H   0  0  0  0  0  0  0  0  0  0  0  0
   41.1890   23.8480   33.2480 H   0  0  0  0  0  0  0  0  0  0  0  0
   43.5170   23.5140   32.6040 H   0  0  0  0  0  0  0  0  0  0  0  0
   43.9530   24.9970   33.4900 H   0  0  0  0  0  0  0  0  0  0  0  0
   41.8270   22.1410   34.1810 H   0  0  0  0  0  0  0  0  0  0  0  0
   42.4840   22.0800   35.8000 H   0  0  0  0  0  0  0  0  0  0  0  0
   41.4590   23.9390   36.5620 H   0  0  0  0  0  0  0  0  0  0  0  0
   40.2150   25.7610   34.8390 O   0  0  0  0  0  0  0  0  0  0  0  0
   40.2700   26.7400   35.0370 H   0  0  0  0  0  0  0  0  0  0  0  0
   41.7530   25.6500   32.3750 O   0  0  0  0  0  0  0  0  0  0  0  0
   41.2670   25.1380   31.2420 C   0  0  1  0  0  0  0  0  0  0  0  0
   40.1320   25.9150   30.6280 C   0  0  2  0  0  0  0  0  0  0  0  0
   40.8930   27.2310   30.3900 C   0  0  0  0  0  0  0  0  0  0  0  0
   42.1270   26.8810   29.9010 O   0  0  0  0  0  0  0  0  0  0  0  0
   42.3060   25.5800   30.1580 C   0  0  0  0  0  0  0  0  0  0  0  0
   41.3850   24.0430   31.0580 H   0  0  0  0  0  0  0  0  0  0  0  0
   39.8650   25.5050   29.6480 H   0  0  0  0  0  0  0  0  0  0  0  0
   40.3260   27.9160   29.7540 H   0  0  0  0  0  0  0  0  0  0  0  0
   40.9840   27.7180   31.3970 H   0  0  0  0  0  0  0  0  0  0  0  0
   41.6970   25.1530   29.2620 H   0  0  0  0  0  0  0  0  0  0  0  0
   43.1560   25.0230   29.9840 H   0  0  0  0  0  0  0  0  0  0  0  0
   39.0150   26.1000   31.5650 C   0  0  0  0  0  0  0  0  0  0  0  0
   38.6340   27.4060   31.8740 C   0  0  0  0  0  0  0  0  0  0  0  0
   37.5610   27.5520   32.7960 C   0  0  0  0  0  0  0  0  0  0  0  0
   36.9760   26.4270   33.3160 N   0  0  0  0  0  0  0  0  0  0  0  0
   37.3830   25.1830   32.9830 C   0  0  0  0  0  0  0  0  0  0  0  0
   38.3980   25.0290   32.1100 N   0  0  0  0  0  0  0  0  0  0  0  0
   39.0860   28.2880   31.4730 H   0  0  0  0  0  0  0  0  0  0  0  0
   37.1860   28.5020   33.1060 H   0  0  0  0  0  0  0  0  0  0  0  0
   36.9050   24.3110   33.4070 H   0  0  0  0  0  0  0  0  0  0  0  0
   39.9720   23.2650   35.2260 O   0  0  0  0  0  0  0  0  0  0  0  0
   39.7190   23.0460   37.6430 C   0  0  1  0  0  3  0  0  0  0  0  0
   39.2010   22.8740   36.2640 C   0  0  1  0  0  3  0  0  0  0  0  0
   37.8870   23.6520   36.1520 C   0  0  0  0  0  3  0  0  0  0  0  0
   37.0300   23.1090   36.5450 H   0  0  0  0  0  0  0  0  0  0  0  0
   38.0300   24.8830   36.7530 O   0  0  0  0  0  0  0  0  0  0  0  0
   38.0430   24.8040   38.1520 C   0  0  0  0  0  3  0  0  0  0  0  0
   38.7120   25.6380   38.4750 H   0  0  0  0  0  0  0  0  0  0  0  0
   38.6070   23.4710   38.5820 C   0  0  1  0  0  3  0  0  0  0  0  0
   40.1800   21.8260   38.1210 O   0  0  0  0  0  0  0  0  0  0  0  0
   40.5340   21.8850   39.0440 H   0  0  0  0  0  0  0  0  0  0  0  0
   37.6320   22.5020   38.7330 O   0  0  0  0  0  0  0  0  0  0  0  0
   36.7420   22.8380   38.9160 H   0  0  0  0  0  0  0  0  0  0  0  0
  1 14  1  0  0  0  0
  1  7  1  1  0  0  0
  1  6  1  0  0  0  0
  2  8  1  6  0  0  0
  2  3  1  0  0  0  0
  2  1  1  0  0  0  0
  3 10  1  0  0  0  0
  3  4  1  0  0  0  0
  4  5  1  0  0  0  0
  5  6  1  0  0  0  0
  5 12  1  0  0  0  0
  6 13  1  1  0  0  0
  9  3  1  0  0  0  0
 11  5  1  0  0  0  0
 14 15  1  0  0  0  0
 16  2  1  0  0  0  0
 17 22  1  1  0  0  0
 17 16  1  0  0  0  0
 18 23  1  6  0  0  0
 18 17  1  0  0  0  0
 18 28  1  0  0  0  0
 19 18  1  0  0  0  0
 19 25  1  0  0  0  0
 20 21  1  0  0  0  0
 20 19  1  0  0  0  0
 21 17  1  0  0  0  0
 24 19  1  0  0  0  0
 26 21  1  0  0  0  0
 27 21  1  0  0  0  0
 28 29  2  0  0  0  0
 28 33  1  0  0  0  0
 29 30  1  0  0  0  0
 30 35  1  0  0  0  0
 30 31  2  0  0  0  0
 32 31  1  0  0  0  0
 32 36  1  0  0  0  0
 33 32  2  0  0  0  0
 34 29  1  0  0  0  0
 37  6  1  0  0  0  0
 38 46  1  1  0  0  0
 38 45  1  0  0  0  0
 39 37  1  6  0  0  0
 39 38  1  0  0  0  0
 40 39  1  0  0  0  0
 40 41  1  0  0  0  0
 40 42  1  0  0  0  0
 42 43  1  0  0  0  0
 43 44  1  0  0  0  0
 43 45  1  0  0  0  0
 45 48  1  6  0  0  0
 46 47  1  0  0  0  0
 48 49  1  0  0  0  0
M  END
>  <minimizedAffinity>
-5.29693651

$$$$

 OpenBabel03262521443D

 49 52  0  0  1  0  0  0  0  0999 V2000
   38.4310   24.1790   31.0080 C   0  0  2  0  0  0  0  0  0  0  0  0
   38.4290   25.0900   32.2210 C   0  0  2  0  0  0  0  0  0  0  0  0
   37.5500   26.2540   31.9090 C   0  0  0  0  0  0  0  0  0  0  0  0
   36.4990   25.8920   31.1180 O   0  0  0  0  0  0  0  0  0  0  0  0
   36.0310   24.6450   31.4890 C   0  0  0  0  0  0  0  0  0  0  0  0
   36.9880   23.6090   30.9520 C   0  0  2  0  0  0  0  0  0  0  0  0
   38.6010   24.7490   30.0820 H   0  0  0  0  0  0  0  0  0  0  0  0
   37.8290   24.4430   32.8790 H   0  0  0  0  0  0  0  0  0  0  0  0
   37.2240   26.8050   32.8190 H   0  0  0  0  0  0  0  0  0  0  0  0
   38.1700   26.9870   31.3210 H   0  0  0  0  0  0  0  0  0  0  0  0
   35.8080   24.5330   32.5660 H   0  0  0  0  0  0  0  0  0  0  0  0
   35.0440   24.5130   30.9930 H   0  0  0  0  0  0  0  0  0  0  0  0
   36.7050   23.4300   29.9170 H   0  0  0  0  0  0  0  0  0  0  0  0
   39.2400   23.0930   31.0550 O   0  0  0  0  0  0  0  0  0  0  0  0
   40.0510   23.1490   30.4720 H   0  0  0  0  0  0  0  0  0  0  0  0
   39.6460   25.4440   32.7170 O   0  0  0  0  0  0  0  0  0  0  0  0
   39.5700   26.5010   33.5280 C   0  0  1  0  0  0  0  0  0  0  0  0
   40.1010   26.2750   34.9200 C   0  0  2  0  0  0  0  0  0  0  0  0
   41.5530   25.9450   34.5310 C   0  0  0  0  0  0  0  0  0  0  0  0
   41.9060   26.8450   33.5560 O   0  0  0  0  0  0  0  0  0  0  0  0
   40.7790   27.3940   33.0900 C   0  0  0  0  0  0  0  0  0  0  0  0
   38.7910   27.2750   33.3250 H   0  0  0  0  0  0  0  0  0  0  0  0
   40.1160   27.2120   35.4880 H   0  0  0  0  0  0  0  0  0  0  0  0
   42.2110   25.9340   35.4040 H   0  0  0  0  0  0  0  0  0  0  0  0
   41.5300   24.9000   34.1240 H   0  0  0  0  0  0  0  0  0  0  0  0
   40.6240   28.1850   33.9310 H   0  0  0  0  0  0  0  0  0  0  0  0
   40.6880   28.0550   32.3040 H   0  0  0  0  0  0  0  0  0  0  0  0
   39.4490   25.1390   35.5850 C   0  0  0  0  0  0  0  0  0  0  0  0
   40.1470   23.9310   35.6440 C   0  0  0  0  0  0  0  0  0  0  0  0
   39.4830   22.8460   36.2800 C   0  0  0  0  0  0  0  0  0  0  0  0
   38.2250   23.0430   36.7850 N   0  0  0  0  0  0  0  0  0  0  0  0
   37.5920   24.2340   36.7020 C   0  0  0  0  0  0  0  0  0  0  0  0
   38.2090   25.2720   36.1030 N   0  0  0  0  0  0  0  0  0  0  0  0
   41.1280   23.7700   35.2510 H   0  0  0  0  0  0  0  0  0  0  0  0
   39.9180   21.8770   36.3820 H   0  0  0  0  0  0  0  0  0  0  0  0
   36.5990   24.3640   37.1090 H   0  0  0  0  0  0  0  0  0  0  0  0
   36.8880   22.5180   31.8100 O   0  0  0  0  0  0  0  0  0  0  0  0
   37.3350   20.1330   31.5610 C   0  0  1  0  0  3  0  0  0  0  0  0
   36.5080   21.3330   31.2870 C   0  0  1  0  0  3  0  0  0  0  0  0
   35.0920   21.0580   31.8030 C   0  0  0  0  0  3  0  0  0  0  0  0
   34.4860   20.4770   31.1100 H   0  0  0  0  0  0  0  0  0  0  0  0
   35.1640   20.4610   33.0420 O   0  0  0  0  0  0  0  0  0  0  0  0
   35.5650   19.1210   32.9750 C   0  0  0  0  0  3  0  0  0  0  0  0
   36.1320   18.9490   33.9220 H   0  0  0  0  0  0  0  0  0  0  0  0
   36.4580   18.9150   31.7750 C   0  0  1  0  0  3  0  0  0  0  0  0
   38.1230   19.8490   30.4520 O   0  0  0  0  0  0  0  0  0  0  0  0
   38.6940   19.0510   30.5830 H   0  0  0  0  0  0  0  0  0  0  0  0
   35.7530   18.5560   30.6400 O   0  0  0  0  0  0  0  0  0  0  0  0
   34.8980   18.1290   30.8040 H   0  0  0  0  0  0  0  0  0  0  0  0
  1  7  1  6  0  0  0
  1 14  1  0  0  0  0
  1  2  1  0  0  0  0
  2 16  1  0  0  0  0
  2  8  1  1  0  0  0
  3  2  1  0  0  0  0
  3  9  1  0  0  0  0
  4  5  1  0  0  0  0
  4  3  1  0  0  0  0
  5 11  1  0  0  0  0
  6 13  1  6  0  0  0
  6  1  1  0  0  0  0
  6  5  1  0  0  0  0
  6 37  1  0  0  0  0
 10  3  1  0  0  0  0
 12  5  1  0  0  0  0
 15 14  1  0  0  0  0
 16 17  1  0  0  0  0
 17 22  1  6  0  0  0
 17 18  1  0  0  0  0
 18 23  1  1  0  0  0
 18 28  1  0  0  0  0
 19 18  1  0  0  0  0
 19 24  1  0  0  0  0
 20 19  1  0  0  0  0
 21 17  1  0  0  0  0
 21 20  1  0  0  0  0
 21 26  1  0  0  0  0
 25 19  1  0  0  0  0
 27 21  1  0  0  0  0
 28 29  2  0  0  0  0
 28 33  1  0  0  0  0
 29 30  1  0  0  0  0
 30 35  1  0  0  0  0
 30 31  2  0  0  0  0
 32 31  1  0  0  0  0
 32 36  1  0  0  0  0
 33 32  2  0  0  0  0
 34 29  1  0  0  0  0
 38 46  1  6  0  0  0
 38 45  1  0  0  0  0
 39 38  1  0  0  0  0
 39 40  1  0  0  0  0
 39 37  1  1  0  0  0
 40 42  1  0  0  0  0
 41 40  1  0  0  0  0
 43 42  1  0  0  0  0
 43 44  1  0  0  0  0
 45 48  1  6  0  0  0
 45 43  1  0  0  0  0
 46 47  1  0  0  0  0
 48 49  1  0  0  0  0
M  END
>  <minimizedAffinity>
-5.29545689

$$$$

 OpenBabel03262521443D

 49 52  0  0  1  0  0  0  0  0999 V2000
   35.8470   25.4380   30.8780 C   0  0  2  0  0  0  0  0  0  0  0  0
   36.8430   24.8570   31.8630 C   0  0  2  0  0  0  0  0  0  0  0  0
   38.2000   24.9770   31.2550 C   0  0  0  0  0  0  0  0  0  0  0  0
   38.3140   26.1070   30.4990 O   0  0  0  0  0  0  0  0  0  0  0  0
   37.6410   27.1530   31.1020 C   0  0  0  0  0  0  0  0  0  0  0  0
   36.1640   26.9580   30.8610 C   0  0  2  0  0  0  0  0  0  0  0  0
   36.0170   25.0500   29.8630 H   0  0  0  0  0  0  0  0  0  0  0  0
   36.7880   25.6660   32.6090 H   0  0  0  0  0  0  0  0  0  0  0  0
   39.0170   24.8830   32.0040 H   0  0  0  0  0  0  0  0  0  0  0  0
   38.3280   24.0990   30.5610 H   0  0  0  0  0  0  0  0  0  0  0  0
   37.9020   27.3250   32.1630 H   0  0  0  0  0  0  0  0  0  0  0  0
   37.9690   28.0830   30.5890 H   0  0  0  0  0  0  0  0  0  0  0  0
   35.9540   27.3650   29.8740 H   0  0  0  0  0  0  0  0  0  0  0  0
   34.5350   25.3530   31.2070 O   0  0  0  0  0  0  0  0  0  0  0  0
   34.0120   24.6880   30.6750 H   0  0  0  0  0  0  0  0  0  0  0  0
   36.5680   23.6140   32.3430 O   0  0  0  0  0  0  0  0  0  0  0  0
   37.4950   22.7220   31.9880 C   0  0  1  0  0  0  0  0  0  0  0  0
   37.8960   21.7540   33.0720 C   0  0  2  0  0  0  0  0  0  0  0  0
   36.5160   21.1050   33.2830 C   0  0  0  0  0  0  0  0  0  0  0  0
   35.9880   20.9040   32.0310 O   0  0  0  0  0  0  0  0  0  0  0  0
   36.6920   21.6530   31.1740 C   0  0  0  0  0  0  0  0  0  0  0  0
   38.1950   22.9800   31.1570 H   0  0  0  0  0  0  0  0  0  0  0  0
   38.5670   20.9840   32.6780 H   0  0  0  0  0  0  0  0  0  0  0  0
   36.5840   20.2060   33.9010 H   0  0  0  0  0  0  0  0  0  0  0  0
   35.9110   21.8540   33.8580 H   0  0  0  0  0  0  0  0  0  0  0  0
   37.5990   20.9340   31.0380 H   0  0  0  0  0  0  0  0  0  0  0  0
   36.5090   21.7850   30.1680 H   0  0  0  0  0  0  0  0  0  0  0  0
   38.3590   22.4420   34.2850 C   0  0  0  0  0  0  0  0  0  0  0  0
   37.6640   22.2070   35.4730 C   0  0  0  0  0  0  0  0  0  0  0  0
   38.1270   22.8990   36.6250 C   0  0  0  0  0  0  0  0  0  0  0  0
   39.2050   23.7370   36.5080 N   0  0  0  0  0  0  0  0  0  0  0  0
   39.8440   23.9290   35.3330 C   0  0  0  0  0  0  0  0  0  0  0  0
   39.4170   23.2800   34.2320 N   0  0  0  0  0  0  0  0  0  0  0  0
   36.8220   21.5560   35.5710 H   0  0  0  0  0  0  0  0  0  0  0  0
   37.6720   22.7990   37.5850 H   0  0  0  0  0  0  0  0  0  0  0  0
   40.6930   24.5950   35.2660 H   0  0  0  0  0  0  0  0  0  0  0  0
   35.5190   27.5780   31.9260 O   0  0  0  0  0  0  0  0  0  0  0  0
   34.9580   29.9310   31.6110 C   0  0  1  0  0  3  0  0  0  0  0  0
   35.8190   28.8690   32.1850 C   0  0  1  0  0  3  0  0  0  0  0  0
   35.8100   29.0250   33.7090 C   0  0  0  0  0  3  0  0  0  0  0  0
   36.5010   29.7850   34.0680 H   0  0  0  0  0  0  0  0  0  0  0  0
   34.5220   29.2630   34.1370 O   0  0  0  0  0  0  0  0  0  0  0  0
   34.0870   30.5630   33.8470 C   0  0  0  0  0  3  0  0  0  0  0  0
   32.9880   30.4600   33.6750 H   0  0  0  0  0  0  0  0  0  0  0  0
   34.7760   31.0650   32.6000 C   0  0  1  0  0  3  0  0  0  0  0  0
   35.5850   30.4870   30.5010 O   0  0  0  0  0  0  0  0  0  0  0  0
   35.0500   31.2070   30.0820 H   0  0  0  0  0  0  0  0  0  0  0  0
   35.9560   31.7330   32.8750 O   0  0  0  0  0  0  0  0  0  0  0  0
   36.0140   32.1190   33.7620 H   0  0  0  0  0  0  0  0  0  0  0  0
  1  7  1  6  0  0  0
  1 14  1  0  0  0  0
  1  2  1  0  0  0  0
  2 16  1  0  0  0  0
  2  8  1  1  0  0  0
  3  2  1  0  0  0  0
  3  9  1  0  0  0  0
  4  5  1  0  0  0  0
  4  3  1  0  0  0  0
  5 11  1  0  0  0  0
  6 13  1  6  0  0  0
  6  1  1  0  0  0  0
  6  5  1  0  0  0  0
  6 37  1  0  0  0  0
 10  3  1  0  0  0  0
 12  5  1  0  0  0  0
 15 14  1  0  0  0  0
 17 22  1  6  0  0  0
 17 16  1  0  0  0  0
 17 18  1  0  0  0  0
 18 23  1  6  0  0  0
 18 19  1  0  0  0  0
 18 28  1  0  0  0  0
 19 25  1  0  0  0  0
 19 24  1  0  0  0  0
 20 19  1  0  0  0  0
 21 17  1  0  0  0  0
 21 20  1  0  0  0  0
 26 21  1  0  0  0  0
 27 21  1  0  0  0  0
 28 29  1  0  0  0  0
 29 34  1  0  0  0  0
 29 30  2  0  0  0  0
 30 35  1  0  0  0  0
 31 30  1  0  0  0  0
 32 31  2  0  0  0  0
 33 28  2  0  0  0  0
 33 32  1  0  0  0  0
 36 32  1  0  0  0  0
 38 46  1  6  0  0  0
 38 39  1  0  0  0  0
 38 45  1  0  0  0  0
 39 37  1  1  0  0  0
 39 40  1  0  0  0  0
 40 41  1  0  0  0  0
 40 42  1  0  0  0  0
 43 42  1  0  0  0  0
 44 43  1  0  0  0  0
 45 48  1  1  0  0  0
 45 43  1  0  0  0  0
 47 46  1  0  0  0  0
 48 49  1  0  0  0  0
M  END
>  <minimizedAffinity>
-5.28031301

$$$$
