
     RDKit          3D

 37 39  0  0  0  0  0  0  0  0999 V2000
   36.9790   31.4214   48.5718 N   0  0  0  0  0  0  0  0  0  0  0  0
   37.1581   32.1663   49.6638 C   0  0  0  0  0  0  0  0  0  0  0  0
   38.1510   33.1504   49.6765 C   0  0  0  0  0  0  0  0  0  0  0  0
   38.8688   33.2530   48.5163 C   0  0  0  0  0  0  0  0  0  0  0  0
   39.7748   34.1410   48.5089 O   0  0  0  0  0  0  0  0  0  0  0  0
   38.7187   32.5306   47.4128 N   0  0  0  0  0  0  0  0  0  0  0  0
   37.7417   31.5886   47.4508 C   0  0  0  0  0  0  0  0  0  0  0  0
   37.5839   30.8845   46.3969 O   0  0  0  0  0  0  0  0  0  0  0  0
   36.1639   29.2472   49.3004 C   0  0  0  0  0  0  0  0  0  0  0  0
   35.9927   30.4076   48.4894 C   0  0  0  0  0  0  0  0  0  0  0  0
   34.8731   30.4481   47.6856 C   0  0  0  0  0  0  0  0  0  0  0  0
   34.0011   29.4041   47.7008 N   0  0  0  0  0  0  0  0  0  0  0  0
   34.1780   28.3293   48.4648 C   0  0  0  0  0  0  0  0  0  0  0  0
   35.2689   28.2368   49.2796 N   0  0  0  0  0  0  0  0  0  0  0  0
   33.3004   27.2643   48.4886 O   0  0  0  0  0  0  0  0  0  0  0  0
   36.5293   32.0000   50.5331 H   0  0  0  0  0  0  0  0  0  0  0  0
   38.3217   33.7713   50.5463 H   0  0  0  0  0  0  0  0  0  0  0  0
   39.3136   32.6750   46.5655 H   0  0  0  0  0  0  0  0  0  0  0  0
   37.0344   29.1792   49.9472 H   0  0  0  0  0  0  0  0  0  0  0  0
   34.7472   31.3232   47.0762 H   0  0  0  0  0  0  0  0  0  0  0  0
   30.2400   28.2306   48.6879 O   0  0  0  0  0  0  0  0  0  0  0  0
   31.2665   28.3671   47.7438 C   0  0  1  0  0  0  0  0  0  0  0  0
   32.1327   27.1406   47.7492 C   0  0  1  0  0  0  0  0  0  0  0  0
   32.4103   26.7815   46.2892 C   0  0  1  0  0  0  0  0  0  0  0  0
   32.9233   27.6289   45.7861 H   0  0  0  0  0  0  0  0  0  0  0  0
   31.2419   26.3946   45.6644 O   0  0  0  0  0  0  0  0  0  0  0  0
   30.2670   27.3597   45.6593 C   0  0  2  0  0  0  0  0  0  0  0  0
   29.2789   26.9939   46.0202 H   0  0  0  0  0  0  0  0  0  0  0  0
   30.6040   28.6081   46.4033 C   0  0  2  0  0  0  0  0  0  0  0  0
   31.3726   29.4997   45.6300 O   0  0  0  0  0  0  0  0  0  0  0  0
   30.0466   27.2645   48.8540 H   0  0  0  0  0  0  0  0  0  0  0  0
   31.8546   29.3095   47.9395 H   0  0  0  0  0  0  0  0  0  0  0  0
   31.5423   26.3176   48.2003 H   0  0  0  0  0  0  0  0  0  0  0  0
   33.1055   25.9261   46.2756 H   0  0  0  0  0  0  0  0  0  0  0  0
   30.0771   27.6833   44.5957 H   0  0  0  0  0  0  0  0  0  0  0  0
   29.6311   29.1488   46.5877 H   0  0  0  0  0  0  0  0  0  0  0  0
   31.9207   30.1047   46.1831 H   0  0  0  0  0  0  0  0  0  0  0  0
  1  2  1  0
  2  3  2  0
  4  5  2  0
  4  3  1  0
  6  7  1  0
  6  4  1  0
  7  1  1  0
  8  7  2  0
 10  1  1  0
 10  9  2  0
 11 12  2  0
 11 10  1  0
 12 13  1  0
 13 15  1  0
 13 14  2  0
 14  9  1  0
  2 16  1  0
  3 17  1  0
  6 18  1  0
  9 19  1  0
 11 20  1  0
 21 22  1  0
 22 23  1  0
 23 24  1  0
 24 25  1  6
 24 26  1  0
 26 27  1  0
 27 28  1  1
 27 29  1  0
 29 30  1  0
 29 22  1  0
 21 31  1  0
 22 32  1  1
 23 33  1  1
 24 34  1  0
 27 35  1  0
 29 36  1  1
 30 37  1  0
 15 23  1  0
M  ISO  7  16  14  17  14  18   9  19  14  20  14  25   8  28   8
M  END
>  <DihAtoms>  (1) 
12,14,22,21

>  <DihDeg>  (1) 
119.19743833209883

$$$$
