
 OpenBabel03272500043D

 32 34  0  0  1  0  0  0  0  0999 V2000
   36.2080   29.2770   49.3540 C   0  0  0  0  0  0  0  0  0  0  0  0
   36.0680   30.3920   48.4760 C   0  0  0  0  0  0  0  0  0  0  0  0
   34.9970   30.3710   47.6070 C   0  0  0  0  0  0  0  0  0  0  0  0
   34.1420   29.3130   47.6240 N   0  0  0  0  0  0  0  0  0  0  0  0
   34.2900   28.2810   48.4520 C   0  0  0  0  0  0  0  0  0  0  0  0
   35.3310   28.2510   49.3330 N   0  0  0  0  0  0  0  0  0  0  0  0
   37.0380   29.2570   50.0540 H   0  0  0  0  0  0  0  0  0  0  0  0
   34.8950   31.2110   46.9460 H   0  0  0  0  0  0  0  0  0  0  0  0
   37.0310   31.4260   48.5650 N   0  0  0  0  0  0  0  0  0  0  0  0
   37.1730   32.1890   49.6490 C   0  0  0  0  0  0  0  0  0  0  0  0
   38.1450   33.1930   49.6680 C   0  0  0  0  0  0  0  0  0  0  0  0
   38.8850   33.2950   48.5220 C   0  0  0  0  0  0  0  0  0  0  0  0
   39.7730   34.2010   48.5210 O   0  0  0  0  0  0  0  0  0  0  0  0
   38.7730   32.5540   47.4260 N   0  0  0  0  0  0  0  0  0  0  0  0
   37.8140   31.5930   47.4570 C   0  0  0  0  0  0  0  0  0  0  0  0
   37.6920   30.8710   46.4110 O   0  0  0  0  0  0  0  0  0  0  0  0
   36.5290   32.0230   50.5080 H   0  0  0  0  0  0  0  0  0  0  0  0
   38.2850   33.8300   50.5320 H   0  0  0  0  0  0  0  0  0  0  0  0
   39.3820   32.6990   46.5900 H   0  0  0  0  0  0  0  0  0  0  0  0
   33.4280   27.2030   48.4790 O   0  0  0  0  0  0  0  0  0  0  0  0
   31.4600   28.2850   47.5490 C   0  0  1  0  0  3  0  0  0  0  0  0
   32.2860   27.0410   47.7080 C   0  0  1  0  0  3  0  0  0  0  0  0
   32.6040   26.5320   46.3030 C   0  0  0  0  0  3  0  0  0  0  0  0
   33.1630   27.3100   45.7400 H   0  0  0  0  0  0  0  0  0  0  0  0
   31.4480   26.1190   45.6720 O   0  0  0  0  0  0  0  0  0  0  0  0
   30.5070   27.1060   45.5340 C   0  0  0  0  0  3  0  0  0  0  0  0
   29.4940   26.8060   45.8900 H   0  0  0  0  0  0  0  0  0  0  0  0
   30.8560   28.4110   46.1660 C   0  0  2  0  0  3  0  0  0  0  0  0
   30.3960   28.2720   48.4600 O   0  0  0  0  0  0  0  0  0  0  0  0
   30.1650   27.3330   48.7120 H   0  0  0  0  0  0  0  0  0  0  0  0
   31.6810   29.2000   45.3410 O   0  0  0  0  0  0  0  0  0  0  0  0
   32.2270   29.8400   45.8530 H   0  0  0  0  0  0  0  0  0  0  0  0
  1  7  1  0  0  0  0
  2  9  1  0  0  0  0
  2  1  2  0  0  0  0
  3  4  2  0  0  0  0
  3  2  1  0  0  0  0
  4  5  1  0  0  0  0
  5 20  1  0  0  0  0
  5  6  2  0  0  0  0
  6  1  1  0  0  0  0
  8  3  1  0  0  0  0
  9 10  1  0  0  0  0
 10 11  2  0  0  0  0
 10 17  1  0  0  0  0
 11 18  1  0  0  0  0
 12 11  1  0  0  0  0
 13 12  2  0  0  0  0
 14 15  1  0  0  0  0
 14 12  1  0  0  0  0
 15  9  1  0  0  0  0
 16 15  2  0  0  0  0
 19 14  1  0  0  0  0
 21 22  1  0  0  0  0
 21 29  1  1  0  0  0
 22 20  1  6  0  0  0
 23 22  1  0  0  0  0
 24 23  1  0  0  0  0
 25 23  1  0  0  0  0
 26 25  1  0  0  0  0
 26 27  1  0  0  0  0
 26 28  1  0  0  0  0
 28 31  1  6  0  0  0
 28 21  1  0  0  0  0
 29 30  1  0  0  0  0
 31 32  1  0  0  0  0
M  END
>  <minimizedAffinity>
-5.5094142

>  <minimizedRMSD>
0.171663105

$$$$
