
 OpenBabel03272500043D

 32 34  0  0  1  0  0  0  0  0999 V2000
   36.2710   29.2230   49.3480 C   0  0  0  0  0  0  0  0  0  0  0  0
   36.0880   30.3480   48.4900 C   0  0  0  0  0  0  0  0  0  0  0  0
   35.0070   30.3110   47.6360 C   0  0  0  0  0  0  0  0  0  0  0  0
   34.1810   29.2300   47.6470 N   0  0  0  0  0  0  0  0  0  0  0  0
   34.3680   28.1900   48.4560 C   0  0  0  0  0  0  0  0  0  0  0  0
   35.4220   28.1740   49.3230 N   0  0  0  0  0  0  0  0  0  0  0  0
   37.1110   29.2150   50.0360 H   0  0  0  0  0  0  0  0  0  0  0  0
   34.8720   31.1590   46.9900 H   0  0  0  0  0  0  0  0  0  0  0  0
   37.0250   31.4060   48.5820 N   0  0  0  0  0  0  0  0  0  0  0  0
   37.1260   32.1880   49.6580 C   0  0  0  0  0  0  0  0  0  0  0  0
   38.0730   33.2160   49.6810 C   0  0  0  0  0  0  0  0  0  0  0  0
   38.8340   33.3190   48.5480 C   0  0  0  0  0  0  0  0  0  0  0  0
   39.7000   34.2460   48.5510 O   0  0  0  0  0  0  0  0  0  0  0  0
   38.7610   32.5600   47.4620 N   0  0  0  0  0  0  0  0  0  0  0  0
   37.8260   31.5770   47.4880 C   0  0  0  0  0  0  0  0  0  0  0  0
   37.7420   30.8360   46.4500 O   0  0  0  0  0  0  0  0  0  0  0  0
   36.4690   32.0190   50.5060 H   0  0  0  0  0  0  0  0  0  0  0  0
   38.1810   33.8680   50.5380 H   0  0  0  0  0  0  0  0  0  0  0  0
   39.3840   32.7070   46.6350 H   0  0  0  0  0  0  0  0  0  0  0  0
   33.5360   27.0890   48.4770 O   0  0  0  0  0  0  0  0  0  0  0  0
   31.3940   28.2340   48.4220 C   0  0  1  0  0  3  0  0  0  0  0  0
   32.2200   27.0410   48.0400 C   0  0  1  0  0  3  0  0  0  0  0  0
   32.1210   26.8930   46.5220 C   0  0  0  0  0  3  0  0  0  0  0  0
   32.5010   27.8140   46.0310 H   0  0  0  0  0  0  0  0  0  0  0  0
   30.8290   26.5680   46.1590 O   0  0  0  0  0  0  0  0  0  0  0  0
   29.8950   27.5010   46.5310 C   0  0  0  0  0  3  0  0  0  0  0  0
   29.0240   27.0640   47.0710 H   0  0  0  0  0  0  0  0  0  0  0  0
   30.4200   28.6420   47.3350 C   0  0  2  0  0  3  0  0  0  0  0  0
   30.6330   27.9450   49.5630 O   0  0  0  0  0  0  0  0  0  0  0  0
   30.4770   26.9600   49.6350 H   0  0  0  0  0  0  0  0  0  0  0  0
   30.9820   29.6500   46.5270 O   0  0  0  0  0  0  0  0  0  0  0  0
   31.6570   30.1860   47.0060 H   0  0  0  0  0  0  0  0  0  0  0  0
  1  7  1  0  0  0  0
  2  9  1  0  0  0  0
  2  1  2  0  0  0  0
  3  4  2  0  0  0  0
  3  2  1  0  0  0  0
  4  5  1  0  0  0  0
  5 20  1  0  0  0  0
  5  6  2  0  0  0  0
  6  1  1  0  0  0  0
  8  3  1  0  0  0  0
  9 10  1  0  0  0  0
 10 11  2  0  0  0  0
 10 17  1  0  0  0  0
 11 18  1  0  0  0  0
 12 13  2  0  0  0  0
 12 11  1  0  0  0  0
 14 15  1  0  0  0  0
 14 12  1  0  0  0  0
 15  9  1  0  0  0  0
 16 15  2  0  0  0  0
 19 14  1  0  0  0  0
 21 29  1  1  0  0  0
 22 21  1  0  0  0  0
 22 20  1  6  0  0  0
 23 22  1  0  0  0  0
 24 23  1  0  0  0  0
 25 23  1  0  0  0  0
 25 26  1  0  0  0  0
 26 27  1  0  0  0  0
 26 28  1  0  0  0  0
 28 31  1  6  0  0  0
 28 21  1  0  0  0  0
 29 30  1  0  0  0  0
 31 32  1  0  0  0  0
M  END
>  <minimizedAffinity>
-5.65377665

>  <minimizedRMSD>
0.483619601

$$$$
