
 OpenBabel03272501063D

 29 31  0  0  1  0  0  0  0  0999 V2000
   38.8170   25.8450   34.2560 C   0  0  2  0  0  0  0  0  0  0  0  0
   38.9010   25.8140   32.7070 C   0  0  2  0  0  0  0  0  0  0  0  0
   39.4800   27.1420   32.4600 C   0  0  0  0  0  0  0  0  0  0  0  0
   40.4170   27.3620   33.4650 O   0  0  0  0  0  0  0  0  0  0  0  0
   40.1640   26.5150   34.5140 C   0  0  0  0  0  0  0  0  0  0  0  0
   37.9670   26.4750   34.5690 H   0  0  0  0  0  0  0  0  0  0  0  0
   39.6240   24.9950   32.4910 H   0  0  0  0  0  0  0  0  0  0  0  0
   39.9020   27.3210   31.4470 H   0  0  0  0  0  0  0  0  0  0  0  0
   38.6680   27.9160   32.5910 H   0  0  0  0  0  0  0  0  0  0  0  0
   40.9090   25.6910   34.4810 H   0  0  0  0  0  0  0  0  0  0  0  0
   40.1990   26.9830   35.5180 H   0  0  0  0  0  0  0  0  0  0  0  0
   35.9910   23.9980   31.1250 C   0  0  0  0  0  0  0  0  0  0  0  0
   37.2550   24.2130   31.7380 C   0  0  0  0  0  0  0  0  0  0  0  0
   37.6260   25.5280   32.0980 C   0  0  0  0  0  0  0  0  0  0  0  0
   36.7260   26.5390   31.8320 N   0  0  0  0  0  0  0  0  0  0  0  0
   35.5470   26.3000   31.2550 C   0  0  0  0  0  0  0  0  0  0  0  0
   35.1630   25.0390   30.8960 N   0  0  0  0  0  0  0  0  0  0  0  0
   35.8170   22.9570   30.8950 H   0  0  0  0  0  0  0  0  0  0  0  0
   37.9410   23.3800   31.9310 H   0  0  0  0  0  0  0  0  0  0  0  0
   34.8580   27.1120   31.0550 H   0  0  0  0  0  0  0  0  0  0  0  0
   38.8150   24.5420   34.7580 O   0  0  0  0  0  0  0  0  0  0  0  0
   38.7620   24.2080   36.0790 C   0  0  0  0  0  0  0  0  0  0  0  0
   37.9180   24.6670   37.0690 C   0  0  0  0  0  0  0  0  0  0  0  0
   37.2060   25.3900   36.7380 H   0  0  0  0  0  0  0  0  0  0  0  0
   37.9670   24.2510   38.3640 C   0  0  0  0  0  0  0  0  0  0  0  0
   37.2570   24.6840   39.0330 H   0  0  0  0  0  0  0  0  0  0  0  0
   38.9020   23.3240   38.7210 C   0  0  0  0  0  3  0  0  0  0  0  0
   39.7490   22.8620   37.7280 C   0  0  0  0  0  3  0  0  0  0  0  0
   39.6960   23.2800   36.4420 N   0  0  0  0  0  0  0  0  0  0  0  0
  1  5  1  0  0  0  0
  1  6  1  1  0  0  0
  1 21  1  0  0  0  0
  2  7  1  6  0  0  0
  2  1  1  0  0  0  0
  3  9  1  0  0  0  0
  3  2  1  0  0  0  0
  3  4  1  0  0  0  0
  4  5  1  0  0  0  0
  5 11  1  0  0  0  0
  8  3  1  0  0  0  0
 10  5  1  0  0  0  0
 12 13  1  0  0  0  0
 13 19  1  0  0  0  0
 13 14  2  0  0  0  0
 14  2  1  0  0  0  0
 15 14  1  0  0  0  0
 16 15  2  0  0  0  0
 17 12  2  0  0  0  0
 17 16  1  0  0  0  0
 18 12  1  0  0  0  0
 20 16  1  0  0  0  0
 21 22  1  0  0  0  0
 22 29  2  0  0  0  0
 22 23  1  0  0  0  0
 23 25  2  0  0  0  0
 24 23  1  0  0  0  0
 25 27  1  0  0  0  0
 25 26  1  0  0  0  0
 28 27  2  0  0  0  0
 29 28  1  0  0  0  0
M  END
>  <minimizedAffinity>
-4.86627626

$$$$

 OpenBabel03272501063D

 29 31  0  0  1  0  0  0  0  0999 V2000
   35.6160   29.5230   32.5440 C   0  0  2  0  0  0  0  0  0  0  0  0
   36.7170   28.7730   31.7490 C   0  0  2  0  0  0  0  0  0  0  0  0
   36.5310   29.3840   30.4250 C   0  0  0  0  0  0  0  0  0  0  0  0
   36.2560   30.7300   30.6420 O   0  0  0  0  0  0  0  0  0  0  0  0
   35.8400   30.9050   31.9370 C   0  0  0  0  0  0  0  0  0  0  0  0
   34.6260   29.1070   32.2880 H   0  0  0  0  0  0  0  0  0  0  0  0
   37.6670   29.0980   32.2290 H   0  0  0  0  0  0  0  0  0  0  0  0
   37.3510   29.2370   29.6880 H   0  0  0  0  0  0  0  0  0  0  0  0
   35.6120   28.9320   29.9490 H   0  0  0  0  0  0  0  0  0  0  0  0
   36.6820   31.3430   32.5150 H   0  0  0  0  0  0  0  0  0  0  0  0
   34.9480   31.5530   32.0640 H   0  0  0  0  0  0  0  0  0  0  0  0
   37.2250   25.1580   32.7150 C   0  0  0  0  0  0  0  0  0  0  0  0
   37.4020   26.5670   32.6830 C   0  0  0  0  0  0  0  0  0  0  0  0
   36.5750   27.3420   31.8380 C   0  0  0  0  0  0  0  0  0  0  0  0
   35.6310   26.6740   31.0860 N   0  0  0  0  0  0  0  0  0  0  0  0
   35.4930   25.3490   31.1410 C   0  0  0  0  0  0  0  0  0  0  0  0
   36.2770   24.5760   31.9480 N   0  0  0  0  0  0  0  0  0  0  0  0
   37.9100   24.6710   33.3930 H   0  0  0  0  0  0  0  0  0  0  0  0
   38.1660   27.0560   33.2980 H   0  0  0  0  0  0  0  0  0  0  0  0
   34.7430   24.8490   30.5390 H   0  0  0  0  0  0  0  0  0  0  0  0
   35.9330   29.5280   33.9030 O   0  0  0  0  0  0  0  0  0  0  0  0
   35.3490   30.3250   34.8440 C   0  0  0  0  0  0  0  0  0  0  0  0
   35.9220   31.2570   35.6840 C   0  0  0  0  0  0  0  0  0  0  0  0
   36.9790   31.3590   35.5710 H   0  0  0  0  0  0  0  0  0  0  0  0
   35.2250   31.9970   36.5890 C   0  0  0  0  0  0  0  0  0  0  0  0
   35.7870   32.6850   37.1800 H   0  0  0  0  0  0  0  0  0  0  0  0
   33.8750   31.8180   36.6830 C   0  0  0  0  0  3  0  0  0  0  0  0
   33.3000   30.8830   35.8390 C   0  0  0  0  0  3  0  0  0  0  0  0
   33.9980   30.1500   34.9420 N   0  0  0  0  0  0  0  0  0  0  0  0
  1  6  1  6  0  0  0
  1 21  1  0  0  0  0
  2 14  1  0  0  0  0
  2  7  1  1  0  0  0
  2  1  1  0  0  0  0
  3  4  1  0  0  0  0
  3  2  1  0  0  0  0
  4  5  1  0  0  0  0
  5 11  1  0  0  0  0
  5 10  1  0  0  0  0
  5  1  1  0  0  0  0
  8  3  1  0  0  0  0
  9  3  1  0  0  0  0
 12 18  1  0  0  0  0
 13 12  1  0  0  0  0
 13 19  1  0  0  0  0
 14 13  2  0  0  0  0
 15 16  2  0  0  0  0
 15 14  1  0  0  0  0
 16 17  1  0  0  0  0
 17 12  2  0  0  0  0
 20 16  1  0  0  0  0
 21 22  1  0  0  0  0
 22 29  2  0  0  0  0
 22 23  1  0  0  0  0
 23 25  2  0  0  0  0
 24 23  1  0  0  0  0
 25 27  1  0  0  0  0
 25 26  1  0  0  0  0
 28 27  2  0  0  0  0
 29 28  1  0  0  0  0
M  END
>  <minimizedAffinity>
-4.60273838

$$$$

 OpenBabel03272501063D

 29 31  0  0  1  0  0  0  0  0999 V2000
   37.5790   25.5850   33.9460 C   0  0  2  0  0  0  0  0  0  0  0  0
   37.7080   25.4030   32.4110 C   0  0  2  0  0  0  0  0  0  0  0  0
   36.8580   26.5120   31.9540 C   0  0  0  0  0  0  0  0  0  0  0  0
   37.0970   27.5780   32.8150 O   0  0  0  0  0  0  0  0  0  0  0  0
   37.6630   27.1080   33.9730 C   0  0  0  0  0  0  0  0  0  0  0  0
   36.5960   25.2110   34.2820 H   0  0  0  0  0  0  0  0  0  0  0  0
   38.7860   25.5900   32.2050 H   0  0  0  0  0  0  0  0  0  0  0  0
   36.9530   26.8060   30.8860 H   0  0  0  0  0  0  0  0  0  0  0  0
   35.7770   26.2130   32.0910 H   0  0  0  0  0  0  0  0  0  0  0  0
   38.7490   27.3400   33.9460 H   0  0  0  0  0  0  0  0  0  0  0  0
   37.2350   27.5220   34.9090 H   0  0  0  0  0  0  0  0  0  0  0  0
   35.7040   22.4120   31.2690 C   0  0  0  0  0  0  0  0  0  0  0  0
   36.0060   23.7430   31.6650 C   0  0  0  0  0  0  0  0  0  0  0  0
   37.3410   24.0750   31.9860 C   0  0  0  0  0  0  0  0  0  0  0  0
   38.2860   23.0740   31.8940 N   0  0  0  0  0  0  0  0  0  0  0  0
   37.9660   21.8350   31.5190 C   0  0  0  0  0  0  0  0  0  0  0  0
   36.6840   21.4860   31.2020 N   0  0  0  0  0  0  0  0  0  0  0  0
   34.6550   22.2760   31.0480 H   0  0  0  0  0  0  0  0  0  0  0  0
   35.2230   24.5080   31.7250 H   0  0  0  0  0  0  0  0  0  0  0  0
   38.7270   21.0660   31.4560 H   0  0  0  0  0  0  0  0  0  0  0  0
   38.6850   25.0220   34.5850 O   0  0  0  0  0  0  0  0  0  0  0  0
   38.6840   24.5000   35.8450 C   0  0  0  0  0  0  0  0  0  0  0  0
   37.9100   24.8370   36.9360 C   0  0  0  0  0  0  0  0  0  0  0  0
   37.2130   25.6250   36.7520 H   0  0  0  0  0  0  0  0  0  0  0  0
   38.0050   24.2350   38.1530 C   0  0  0  0  0  0  0  0  0  0  0  0
   37.3490   24.5890   38.9150 H   0  0  0  0  0  0  0  0  0  0  0  0
   38.9180   23.2340   38.3200 C   0  0  0  0  0  3  0  0  0  0  0  0
   39.6950   22.8950   37.2250 C   0  0  0  0  0  3  0  0  0  0  0  0
   39.5960   23.4980   36.0180 N   0  0  0  0  0  0  0  0  0  0  0  0
  1  5  1  0  0  0  0
  1  6  1  1  0  0  0
  1 21  1  0  0  0  0
  2  7  1  6  0  0  0
  2  1  1  0  0  0  0
  3  9  1  0  0  0  0
  3  2  1  0  0  0  0
  3  4  1  0  0  0  0
  4  5  1  0  0  0  0
  5 11  1  0  0  0  0
  8  3  1  0  0  0  0
 10  5  1  0  0  0  0
 12 13  1  0  0  0  0
 13 19  1  0  0  0  0
 13 14  2  0  0  0  0
 14  2  1  0  0  0  0
 15 14  1  0  0  0  0
 16 15  2  0  0  0  0
 17 12  2  0  0  0  0
 17 16  1  0  0  0  0
 18 12  1  0  0  0  0
 20 16  1  0  0  0  0
 21 22  1  0  0  0  0
 22 29  2  0  0  0  0
 22 23  1  0  0  0  0
 23 25  2  0  0  0  0
 24 23  1  0  0  0  0
 25 27  1  0  0  0  0
 25 26  1  0  0  0  0
 28 27  2  0  0  0  0
 29 28  1  0  0  0  0
M  END
>  <minimizedAffinity>
-4.56303978

$$$$

 OpenBabel03272501063D

 29 31  0  0  1  0  0  0  0  0999 V2000
   38.4280   22.8780   35.9910 C   0  0  2  0  0  0  0  0  0  0  0  0
   39.5120   22.4680   37.0220 C   0  0  2  0  0  0  0  0  0  0  0  0
   39.0990   23.2960   38.1640 C   0  0  0  0  0  0  0  0  0  0  0  0
   37.7090   23.2840   38.1830 O   0  0  0  0  0  0  0  0  0  0  0  0
   37.2420   22.9020   36.9510 C   0  0  0  0  0  0  0  0  0  0  0  0
   38.6610   23.8780   35.5860 H   0  0  0  0  0  0  0  0  0  0  0  0
   39.3220   21.3850   37.1990 H   0  0  0  0  0  0  0  0  0  0  0  0
   39.5340   23.0320   39.1530 H   0  0  0  0  0  0  0  0  0  0  0  0
   39.4180   24.3610   37.9670 H   0  0  0  0  0  0  0  0  0  0  0  0
   36.9030   21.8460   37.0210 H   0  0  0  0  0  0  0  0  0  0  0  0
   36.4080   23.5160   36.5510 H   0  0  0  0  0  0  0  0  0  0  0  0
   43.2060   22.0540   36.3480 C   0  0  0  0  0  0  0  0  0  0  0  0
   41.9070   21.7980   36.8670 C   0  0  0  0  0  0  0  0  0  0  0  0
   40.8480   22.6640   36.5150 C   0  0  0  0  0  0  0  0  0  0  0  0
   41.1400   23.7210   35.6780 N   0  0  0  0  0  0  0  0  0  0  0  0
   42.3710   23.9310   35.2110 C   0  0  0  0  0  0  0  0  0  0  0  0
   43.4140   23.1100   35.5330 N   0  0  0  0  0  0  0  0  0  0  0  0
   43.9330   21.3300   36.6830 H   0  0  0  0  0  0  0  0  0  0  0  0
   41.7200   20.9460   37.5300 H   0  0  0  0  0  0  0  0  0  0  0  0
   42.5740   24.7690   34.5550 H   0  0  0  0  0  0  0  0  0  0  0  0
   38.2690   21.8680   35.0420 O   0  0  0  0  0  0  0  0  0  0  0  0
   37.3290   21.8580   34.0530 C   0  0  0  0  0  0  0  0  0  0  0  0
   36.2710   20.9960   33.8540 C   0  0  0  0  0  0  0  0  0  0  0  0
   36.1870   20.2270   34.5910 H   0  0  0  0  0  0  0  0  0  0  0  0
   35.3930   21.0930   32.8180 C   0  0  0  0  0  0  0  0  0  0  0  0
   34.6170   20.3620   32.7780 H   0  0  0  0  0  0  0  0  0  0  0  0
   35.5570   22.1000   31.9120 C   0  0  0  0  0  3  0  0  0  0  0  0
   36.6190   22.9660   32.1110 C   0  0  0  0  0  3  0  0  0  0  0  0
   37.4870   22.8640   33.1430 N   0  0  0  0  0  0  0  0  0  0  0  0
  1  6  1  6  0  0  0
  1  5  1  0  0  0  0
  1  2  1  0  0  0  0
  2  7  1  1  0  0  0
  2  3  1  0  0  0  0
  3  4  1  0  0  0  0
  3  8  1  0  0  0  0
  5 10  1  0  0  0  0
  5  4  1  0  0  0  0
  9  3  1  0  0  0  0
 11  5  1  0  0  0  0
 12 18  1  0  0  0  0
 12 13  1  0  0  0  0
 13 19  1  0  0  0  0
 14 13  2  0  0  0  0
 14  2  1  0  0  0  0
 15 14  1  0  0  0  0
 16 17  1  0  0  0  0
 16 15  2  0  0  0  0
 17 12  2  0  0  0  0
 20 16  1  0  0  0  0
 21  1  1  0  0  0  0
 22 21  1  0  0  0  0
 23 22  1  0  0  0  0
 23 24  1  0  0  0  0
 25 23  2  0  0  0  0
 26 25  1  0  0  0  0
 27 28  2  0  0  0  0
 27 25  1  0  0  0  0
 28 29  1  0  0  0  0
 29 22  2  0  0  0  0
M  END
>  <minimizedAffinity>
-4.55709219

$$$$

 OpenBabel03272501063D

 29 31  0  0  1  0  0  0  0  0999 V2000
   39.3430   26.0450   33.1690 C   0  0  2  0  0  0  0  0  0  0  0  0
   39.6290   26.3420   34.6640 C   0  0  2  0  0  0  0  0  0  0  0  0
   41.0610   26.6640   34.5860 C   0  0  0  0  0  0  0  0  0  0  0  0
   41.2430   27.3910   33.4150 O   0  0  0  0  0  0  0  0  0  0  0  0
   40.1770   27.1780   32.5780 C   0  0  0  0  0  0  0  0  0  0  0  0
   39.7400   25.0490   32.9060 H   0  0  0  0  0  0  0  0  0  0  0  0
   39.0100   27.2400   34.8860 H   0  0  0  0  0  0  0  0  0  0  0  0
   41.5050   27.1730   35.4700 H   0  0  0  0  0  0  0  0  0  0  0  0
   41.6380   25.7000   34.4700 H   0  0  0  0  0  0  0  0  0  0  0  0
   39.5200   28.0740   32.6190 H   0  0  0  0  0  0  0  0  0  0  0  0
   40.4400   26.9790   31.5190 H   0  0  0  0  0  0  0  0  0  0  0  0
   37.7940   24.2160   37.1900 C   0  0  0  0  0  0  0  0  0  0  0  0
   38.1090   25.3220   36.3550 C   0  0  0  0  0  0  0  0  0  0  0  0
   39.2460   25.2470   35.5200 C   0  0  0  0  0  0  0  0  0  0  0  0
   39.9920   24.0870   35.5630 N   0  0  0  0  0  0  0  0  0  0  0  0
   39.6660   23.0680   36.3590 C   0  0  0  0  0  0  0  0  0  0  0  0
   38.5730   23.1130   37.1760 N   0  0  0  0  0  0  0  0  0  0  0  0
   36.9070   24.3860   37.7820 H   0  0  0  0  0  0  0  0  0  0  0  0
   37.4880   26.2250   36.3540 H   0  0  0  0  0  0  0  0  0  0  0  0
   40.2690   22.1680   36.3750 H   0  0  0  0  0  0  0  0  0  0  0  0
   37.9880   26.2420   32.8970 O   0  0  0  0  0  0  0  0  0  0  0  0
   37.1510   25.3110   32.3540 C   0  0  0  0  0  0  0  0  0  0  0  0
   36.0220   25.4880   31.5810 C   0  0  0  0  0  0  0  0  0  0  0  0
   35.7790   26.5100   31.3870 H   0  0  0  0  0  0  0  0  0  0  0  0
   35.2650   24.4670   31.0940 C   0  0  0  0  0  0  0  0  0  0  0  0
   34.4150   24.7380   30.5090 H   0  0  0  0  0  0  0  0  0  0  0  0
   35.6310   23.1840   31.3800 C   0  0  0  0  0  3  0  0  0  0  0  0
   36.7640   23.0060   32.1550 C   0  0  0  0  0  3  0  0  0  0  0  0
   37.5130   24.0250   32.6360 N   0  0  0  0  0  0  0  0  0  0  0  0
  1  6  1  6  0  0  0
  1  2  1  0  0  0  0
  2  7  1  1  0  0  0
  2 14  1  0  0  0  0
  3  2  1  0  0  0  0
  3  8  1  0  0  0  0
  4  3  1  0  0  0  0
  5 10  1  0  0  0  0
  5  1  1  0  0  0  0
  5  4  1  0  0  0  0
  9  3  1  0  0  0  0
 11  5  1  0  0  0  0
 12 18  1  0  0  0  0
 13 12  2  0  0  0  0
 14 15  2  0  0  0  0
 14 13  1  0  0  0  0
 15 16  1  0  0  0  0
 16 20  1  0  0  0  0
 16 17  2  0  0  0  0
 17 12  1  0  0  0  0
 19 13  1  0  0  0  0
 21  1  1  0  0  0  0
 22 29  1  0  0  0  0
 22 21  1  0  0  0  0
 23 22  2  0  0  0  0
 24 23  1  0  0  0  0
 25 27  2  0  0  0  0
 25 23  1  0  0  0  0
 26 25  1  0  0  0  0
 27 28  1  0  0  0  0
 28 29  2  0  0  0  0
M  END
>  <minimizedAffinity>
-4.55543947

$$$$

 OpenBabel03272501063D

 29 31  0  0  1  0  0  0  0  0999 V2000
   35.9150   29.1870   33.2580 C   0  0  2  0  0  0  0  0  0  0  0  0
   34.5450   29.8990   33.4010 C   0  0  2  0  0  0  0  0  0  0  0  0
   34.5660   30.7300   32.1880 C   0  0  0  0  0  0  0  0  0  0  0  0
   35.1430   29.9570   31.1860 O   0  0  0  0  0  0  0  0  0  0  0  0
   35.8490   28.9280   31.7550 C   0  0  0  0  0  0  0  0  0  0  0  0
   36.7260   29.8840   33.5290 H   0  0  0  0  0  0  0  0  0  0  0  0
   33.8010   29.0740   33.3300 H   0  0  0  0  0  0  0  0  0  0  0  0
   33.5970   31.1730   31.8710 H   0  0  0  0  0  0  0  0  0  0  0  0
   35.2560   31.6060   32.3670 H   0  0  0  0  0  0  0  0  0  0  0  0
   35.2520   27.9970   31.6470 H   0  0  0  0  0  0  0  0  0  0  0  0
   36.8570   28.7540   31.3280 H   0  0  0  0  0  0  0  0  0  0  0  0
   35.3160   31.9090   36.5040 C   0  0  0  0  0  0  0  0  0  0  0  0
   35.5020   31.2690   35.2490 C   0  0  0  0  0  0  0  0  0  0  0  0
   34.4150   30.5820   34.6640 C   0  0  0  0  0  0  0  0  0  0  0  0
   33.2200   30.5750   35.3540 N   0  0  0  0  0  0  0  0  0  0  0  0
   33.0820   31.1870   36.5310 C   0  0  0  0  0  0  0  0  0  0  0  0
   34.1160   31.8580   37.1200 N   0  0  0  0  0  0  0  0  0  0  0  0
   36.2130   32.4000   36.8530 H   0  0  0  0  0  0  0  0  0  0  0  0
   36.4700   31.2990   34.7360 H   0  0  0  0  0  0  0  0  0  0  0  0
   32.1330   31.1650   37.0530 H   0  0  0  0  0  0  0  0  0  0  0  0
   35.9000   27.9820   33.9630 O   0  0  0  0  0  0  0  0  0  0  0  0
   37.0010   27.3420   34.4510 C   0  0  0  0  0  0  0  0  0  0  0  0
   37.8830   27.7370   35.4350 C   0  0  0  0  0  0  0  0  0  0  0  0
   37.6600   28.6870   35.8690 H   0  0  0  0  0  0  0  0  0  0  0  0
   38.9550   27.0000   35.8370 C   0  0  0  0  0  0  0  0  0  0  0  0
   39.5620   27.4190   36.6080 H   0  0  0  0  0  0  0  0  0  0  0  0
   39.1840   25.7950   35.2400 C   0  0  0  0  0  3  0  0  0  0  0  0
   38.2980   25.3980   34.2530 C   0  0  0  0  0  3  0  0  0  0  0  0
   37.2350   26.1340   33.8580 N   0  0  0  0  0  0  0  0  0  0  0  0
  1  2  1  0  0  0  0
  1  6  1  1  0  0  0
  1 21  1  0  0  0  0
  2  7  1  6  0  0  0
  2 14  1  0  0  0  0
  3  9  1  0  0  0  0
  3  2  1  0  0  0  0
  4  5  1  0  0  0  0
  4  3  1  0  0  0  0
  5  1  1  0  0  0  0
  8  3  1  0  0  0  0
 10  5  1  0  0  0  0
 11  5  1  0  0  0  0
 12 18  1  0  0  0  0
 12 17  1  0  0  0  0
 13 12  2  0  0  0  0
 14 13  1  0  0  0  0
 14 15  2  0  0  0  0
 15 16  1  0  0  0  0
 16 20  1  0  0  0  0
 16 17  2  0  0  0  0
 19 13  1  0  0  0  0
 21 22  1  0  0  0  0
 22 23  1  0  0  0  0
 23 25  2  0  0  0  0
 23 24  1  0  0  0  0
 25 26  1  0  0  0  0
 27 25  1  0  0  0  0
 28 27  2  0  0  0  0
 29 28  1  0  0  0  0
 29 22  2  0  0  0  0
M  END
>  <minimizedAffinity>
-4.52212954

$$$$

 OpenBabel03272501063D

 29 31  0  0  1  0  0  0  0  0999 V2000
   38.9500   25.9550   33.2660 C   0  0  2  0  0  0  0  0  0  0  0  0
   39.3700   26.2990   34.7190 C   0  0  2  0  0  0  0  0  0  0  0  0
   40.7630   26.7080   34.4880 C   0  0  0  0  0  0  0  0  0  0  0  0
   40.7750   27.4220   33.2940 O   0  0  0  0  0  0  0  0  0  0  0  0
   39.6440   27.1260   32.5760 C   0  0  0  0  0  0  0  0  0  0  0  0
   39.3810   24.9810   32.9760 H   0  0  0  0  0  0  0  0  0  0  0  0
   38.7200   27.1600   34.9930 H   0  0  0  0  0  0  0  0  0  0  0  0
   41.2620   27.2620   35.3130 H   0  0  0  0  0  0  0  0  0  0  0  0
   41.3860   25.7810   34.3240 H   0  0  0  0  0  0  0  0  0  0  0  0
   38.9390   27.9800   32.6740 H   0  0  0  0  0  0  0  0  0  0  0  0
   39.8080   26.9240   31.4980 H   0  0  0  0  0  0  0  0  0  0  0  0
   37.9280   24.0990   37.4300 C   0  0  0  0  0  0  0  0  0  0  0  0
   38.0830   25.2050   36.5510 C   0  0  0  0  0  0  0  0  0  0  0  0
   39.1500   25.1990   35.6240 C   0  0  0  0  0  0  0  0  0  0  0  0
   39.9880   24.1030   35.6260 N   0  0  0  0  0  0  0  0  0  0  0  0
   39.8120   23.0820   36.4660 C   0  0  0  0  0  0  0  0  0  0  0  0
   38.7900   23.0610   37.3710 N   0  0  0  0  0  0  0  0  0  0  0  0
   37.0820   24.2140   38.0910 H   0  0  0  0  0  0  0  0  0  0  0  0
   37.3930   26.0560   36.5850 H   0  0  0  0  0  0  0  0  0  0  0  0
   40.4850   22.2330   36.4470 H   0  0  0  0  0  0  0  0  0  0  0  0
   37.5650   26.0610   33.1340 O   0  0  0  0  0  0  0  0  0  0  0  0
   36.8510   27.2180   33.2390 C   0  0  0  0  0  0  0  0  0  0  0  0
   36.5880   27.9920   34.3510 C   0  0  0  0  0  0  0  0  0  0  0  0
   37.0130   27.6170   35.2560 H   0  0  0  0  0  0  0  0  0  0  0  0
   35.8550   29.1380   34.3250 C   0  0  0  0  0  0  0  0  0  0  0  0
   35.7240   29.6440   35.2550 H   0  0  0  0  0  0  0  0  0  0  0  0
   35.3400   29.5610   33.1350 C   0  0  0  0  0  3  0  0  0  0  0  0
   35.6040   28.7860   32.0180 C   0  0  0  0  0  3  0  0  0  0  0  0
   36.3330   27.6470   32.0500 N   0  0  0  0  0  0  0  0  0  0  0  0
  1  6  1  6  0  0  0
  1  2  1  0  0  0  0
  2  7  1  1  0  0  0
  2 14  1  0  0  0  0
  3  2  1  0  0  0  0
  3  8  1  0  0  0  0
  4  3  1  0  0  0  0
  5 10  1  0  0  0  0
  5  1  1  0  0  0  0
  5  4  1  0  0  0  0
  9  3  1  0  0  0  0
 11  5  1  0  0  0  0
 12 18  1  0  0  0  0
 13 19  1  0  0  0  0
 13 12  2  0  0  0  0
 14 15  2  0  0  0  0
 14 13  1  0  0  0  0
 15 16  1  0  0  0  0
 16 17  2  0  0  0  0
 17 12  1  0  0  0  0
 20 16  1  0  0  0  0
 21 22  1  0  0  0  0
 21  1  1  0  0  0  0
 22 23  1  0  0  0  0
 23 24  1  0  0  0  0
 25 23  2  0  0  0  0
 25 26  1  0  0  0  0
 27 25  1  0  0  0  0
 28 29  1  0  0  0  0
 28 27  2  0  0  0  0
 29 22  2  0  0  0  0
M  END
>  <minimizedAffinity>
-4.52030087

$$$$

 OpenBabel03272501063D

 29 31  0  0  1  0  0  0  0  0999 V2000
   37.8170   23.1820   33.4160 C   0  0  2  0  0  0  0  0  0  0  0  0
   37.7090   22.5040   32.0250 C   0  0  2  0  0  0  0  0  0  0  0  0
   37.3390   23.6670   31.2060 C   0  0  0  0  0  0  0  0  0  0  0  0
   38.0720   24.7450   31.6900 O   0  0  0  0  0  0  0  0  0  0  0  0
   38.5120   24.4620   32.9580 C   0  0  0  0  0  0  0  0  0  0  0  0
   36.8060   23.3720   33.8150 H   0  0  0  0  0  0  0  0  0  0  0  0
   38.7440   22.1550   31.8120 H   0  0  0  0  0  0  0  0  0  0  0  0
   37.4380   23.5520   30.1040 H   0  0  0  0  0  0  0  0  0  0  0  0
   36.2490   23.9000   31.3890 H   0  0  0  0  0  0  0  0  0  0  0  0
   39.5910   24.2020   32.9010 H   0  0  0  0  0  0  0  0  0  0  0  0
   38.3830   25.2800   33.6960 H   0  0  0  0  0  0  0  0  0  0  0  0
   34.5480   20.4360   32.0480 C   0  0  0  0  0  0  0  0  0  0  0  0
   35.3960   21.5760   32.0220 C   0  0  0  0  0  0  0  0  0  0  0  0
   36.7970   21.3880   32.0330 C   0  0  0  0  0  0  0  0  0  0  0  0
   37.2640   20.0900   32.0670 N   0  0  0  0  0  0  0  0  0  0  0  0
   36.4380   19.0430   32.0910 C   0  0  0  0  0  0  0  0  0  0  0  0
   35.0810   19.1960   32.0800 N   0  0  0  0  0  0  0  0  0  0  0  0
   33.5010   20.7010   32.0360 H   0  0  0  0  0  0  0  0  0  0  0  0
   34.9810   22.5900   31.9960 H   0  0  0  0  0  0  0  0  0  0  0  0
   36.8310   18.0340   32.1180 H   0  0  0  0  0  0  0  0  0  0  0  0
   38.6590   22.4370   34.2430 O   0  0  0  0  0  0  0  0  0  0  0  0
   38.8560   22.6640   35.5730 C   0  0  0  0  0  0  0  0  0  0  0  0
   39.9910   22.4860   36.3370 C   0  0  0  0  0  0  0  0  0  0  0  0
   40.8320   22.1140   35.7930 H   0  0  0  0  0  0  0  0  0  0  0  0
   40.0620   22.7510   37.6700 C   0  0  0  0  0  0  0  0  0  0  0  0
   41.0000   22.5700   38.1450 H   0  0  0  0  0  0  0  0  0  0  0  0
   38.9500   23.2230   38.3050 C   0  0  0  0  0  3  0  0  0  0  0  0
   37.8110   23.4030   37.5390 C   0  0  0  0  0  3  0  0  0  0  0  0
   37.7470   23.1370   36.2140 N   0  0  0  0  0  0  0  0  0  0  0  0
  1  6  1  1  0  0  0
  1 21  1  0  0  0  0
  2  7  1  6  0  0  0
  2 14  1  0  0  0  0
  2  1  1  0  0  0  0
  3  9  1  0  0  0  0
  3  4  1  0  0  0  0
  3  2  1  0  0  0  0
  4  5  1  0  0  0  0
  5  1  1  0  0  0  0
  5 11  1  0  0  0  0
  8  3  1  0  0  0  0
 10  5  1  0  0  0  0
 12 17  1  0  0  0  0
 13 14  1  0  0  0  0
 13 12  2  0  0  0  0
 14 15  2  0  0  0  0
 15 16  1  0  0  0  0
 16 20  1  0  0  0  0
 17 16  2  0  0  0  0
 18 12  1  0  0  0  0
 19 13  1  0  0  0  0
 21 22  1  0  0  0  0
 22 29  2  0  0  0  0
 22 23  1  0  0  0  0
 23 25  2  0  0  0  0
 24 23  1  0  0  0  0
 25 26  1  0  0  0  0
 25 27  1  0  0  0  0
 28 27  2  0  0  0  0
 29 28  1  0  0  0  0
M  END
>  <minimizedAffinity>
-4.49220371

$$$$

 OpenBabel03272501063D

 29 31  0  0  1  0  0  0  0  0999 V2000
   38.1740   22.7170   33.4990 C   0  0  2  0  0  0  0  0  0  0  0  0
   37.5320   24.1060   33.2450 C   0  0  2  0  0  0  0  0  0  0  0  0
   37.6070   24.1520   31.7780 C   0  0  0  0  0  0  0  0  0  0  0  0
   37.3220   22.8690   31.3230 O   0  0  0  0  0  0  0  0  0  0  0  0
   37.5040   21.9740   32.3470 C   0  0  0  0  0  0  0  0  0  0  0  0
   39.2690   22.7860   33.3740 H   0  0  0  0  0  0  0  0  0  0  0  0
   36.4850   23.9910   33.6070 H   0  0  0  0  0  0  0  0  0  0  0  0
   36.9860   24.9240   31.2720 H   0  0  0  0  0  0  0  0  0  0  0  0
   38.6720   24.3790   31.4810 H   0  0  0  0  0  0  0  0  0  0  0  0
   36.5030   21.6820   32.7330 H   0  0  0  0  0  0  0  0  0  0  0  0
   38.0620   21.0550   32.0770 H   0  0  0  0  0  0  0  0  0  0  0  0
   38.2000   27.0810   35.4740 C   0  0  0  0  0  0  0  0  0  0  0  0
   37.4870   26.0550   34.7960 C   0  0  0  0  0  0  0  0  0  0  0  0
   38.2000   25.1560   33.9720 C   0  0  0  0  0  0  0  0  0  0  0  0
   39.5650   25.3300   33.8730 N   0  0  0  0  0  0  0  0  0  0  0  0
   40.2010   26.3040   34.5230 C   0  0  0  0  0  0  0  0  0  0  0  0
   39.5380   27.1870   35.3270 N   0  0  0  0  0  0  0  0  0  0  0  0
   37.5540   27.7050   36.0730 H   0  0  0  0  0  0  0  0  0  0  0  0
   36.4010   25.9550   34.9030 H   0  0  0  0  0  0  0  0  0  0  0  0
   41.2750   26.4190   34.4280 H   0  0  0  0  0  0  0  0  0  0  0  0
   37.7410   22.2110   34.7260 O   0  0  0  0  0  0  0  0  0  0  0  0
   38.2740   22.5280   35.9400 C   0  0  0  0  0  0  0  0  0  0  0  0
   39.5800   22.4460   36.3760 C   0  0  0  0  0  0  0  0  0  0  0  0
   40.2650   22.0780   35.6430 H   0  0  0  0  0  0  0  0  0  0  0  0
   39.9900   22.7970   37.6250 C   0  0  0  0  0  0  0  0  0  0  0  0
   41.0300   22.6860   37.8370 H   0  0  0  0  0  0  0  0  0  0  0  0
   39.0640   23.2590   38.5140 C   0  0  0  0  0  3  0  0  0  0  0  0
   37.7520   23.3420   38.0770 C   0  0  0  0  0  3  0  0  0  0  0  0
   37.3520   22.9920   36.8340 N   0  0  0  0  0  0  0  0  0  0  0  0
  1  6  1  6  0  0  0
  1 21  1  0  0  0  0
  2  1  1  0  0  0  0
  2  7  1  1  0  0  0
  2 14  1  0  0  0  0
  3  2  1  0  0  0  0
  4  3  1  0  0  0  0
  4  5  1  0  0  0  0
  5 10  1  0  0  0  0
  5  1  1  0  0  0  0
  8  3  1  0  0  0  0
  9  3  1  0  0  0  0
 11  5  1  0  0  0  0
 12 18  1  0  0  0  0
 13 19  1  0  0  0  0
 13 12  2  0  0  0  0
 14 13  1  0  0  0  0
 15 14  2  0  0  0  0
 15 16  1  0  0  0  0
 16 17  2  0  0  0  0
 17 12  1  0  0  0  0
 20 16  1  0  0  0  0
 21 22  1  0  0  0  0
 22 23  2  0  0  0  0
 22 29  1  0  0  0  0
 23 25  1  0  0  0  0
 24 23  1  0  0  0  0
 25 26  1  0  0  0  0
 25 27  2  0  0  0  0
 28 27  1  0  0  0  0
 29 28  2  0  0  0  0
M  END
>  <minimizedAffinity>
-4.48450565

$$$$
