
 OpenBabel03272509573D

 45 48  0  0  0  0  0  0  0  0999 V2000
   34.2330   28.9780   48.0990 C   0  0  0  0  0  0  0  0  0  0  0  0
   33.6140   29.8310   48.4360 H   0  0  0  0  0  0  0  0  0  0  0  0
   34.9860   29.4130   47.3950 H   0  0  0  0  0  0  0  0  0  0  0  0
   33.4360   27.9290   47.3990 C   0  0  0  0  0  0  0  0  0  0  0  0
   33.5630   28.0620   46.2920 H   0  0  0  0  0  0  0  0  0  0  0  0
   33.7500   26.9160   47.6730 H   0  0  0  0  0  0  0  0  0  0  0  0
   31.9720   28.0590   47.6330 C   0  0  0  0  0  0  0  0  0  0  0  0
   31.4430   27.4410   48.7540 C   0  0  0  0  0  0  0  0  0  0  0  0
   30.1100   27.5010   49.0570 C   0  0  0  0  0  0  0  0  0  0  0  0
   29.2990   28.1700   48.2520 N   0  0  0  0  0  0  0  0  0  0  0  0
   29.8130   28.7810   47.1450 C   0  0  0  0  0  0  0  0  0  0  0  0
   31.1220   28.7370   46.8260 N   0  0  0  0  0  0  0  0  0  0  0  0
   32.0930   26.8860   49.4280 H   0  0  0  0  0  0  0  0  0  0  0  0
   29.6720   27.0360   49.9150 H   0  0  0  0  0  0  0  0  0  0  0  0
   28.8870   29.5280   46.2520 C   0  0  0  0  0  0  0  0  0  0  0  0
   29.4160   30.3250   45.6860 H   0  0  0  0  0  0  0  0  0  0  0  0
   28.1700   30.0680   46.9030 H   0  0  0  0  0  0  0  0  0  0  0  0
   28.1250   28.6220   45.3770 C   0  0  0  0  0  0  0  0  0  0  0  0
   26.7420   28.8300   45.4250 C   0  0  0  0  0  0  0  0  0  0  0  0
   26.2680   29.5710   46.0320 H   0  0  0  0  0  0  0  0  0  0  0  0
   25.9440   28.0100   44.6220 C   0  0  0  0  0  0  0  0  0  0  0  0
   24.8530   28.1290   44.6190 H   0  0  0  0  0  0  0  0  0  0  0  0
   26.4600   27.0240   43.8030 C   0  0  0  0  0  3  0  0  0  0  0  0
   27.8500   26.8800   43.8110 C   0  0  0  0  0  3  0  0  0  0  0  0
   28.6250   27.6670   44.5830 N   0  0  0  0  0  0  0  0  0  0  0  0
   34.9940   28.4290   49.1540 O   0  0  0  0  0  0  0  0  0  0  0  0
   37.2180   30.0920   51.4580 C   0  0  0  0  0  0  0  0  0  0  0  0
   38.0030   30.8440   50.5580 C   0  0  0  0  0  0  0  0  0  0  0  0
   37.7060   30.7230   49.2030 C   0  0  0  0  0  0  0  0  0  0  0  0
   36.6810   29.8850   48.8790 N   0  0  0  0  0  0  0  0  0  0  0  0
   35.9530   29.1860   49.7420 C   0  0  0  0  0  0  0  0  0  0  0  0
   36.2370   29.3000   51.0580 N   0  0  0  0  0  0  0  0  0  0  0  0
   37.4890   30.2210   52.5060 H   0  0  0  0  0  0  0  0  0  0  0  0
   38.8090   31.5010   50.8310 H   0  0  0  0  0  0  0  0  0  0  0  0
   38.8000   33.4100   49.2130 F   0  0  0  0  0  0  0  0  0  0  0  0
   38.9100   32.6490   48.1220 C   0  0  0  0  0  0  0  0  0  0  0  0
   38.3990   31.4120   48.1360 C   0  0  0  0  0  0  0  0  0  0  0  0
   38.5670   30.7020   46.9460 C   0  0  0  0  0  0  0  0  0  0  0  0
   39.2090   31.2410   45.8550 C   0  0  0  0  0  0  0  0  0  0  0  0
   39.7180   32.5220   45.8910 C   0  0  0  0  0  0  0  0  0  0  0  0
   39.5560   33.2170   47.0480 C   0  0  0  0  0  0  0  0  0  0  0  0
   38.2030   29.6870   46.8170 H   0  0  0  0  0  0  0  0  0  0  0  0
   39.3290   30.6750   44.9410 H   0  0  0  0  0  0  0  0  0  0  0  0
   40.2180   32.9160   45.0110 H   0  0  0  0  0  0  0  0  0  0  0  0
   39.9510   34.2240   47.0900 H   0  0  0  0  0  0  0  0  0  0  0  0
  1  2  1  0  0  0  0
  1 26  1  0  0  0  0
  3  1  1  0  0  0  0
  4  7  1  0  0  0  0
  4  6  1  0  0  0  0
  4  1  1  0  0  0  0
  5  4  1  0  0  0  0
  7  8  1  0  0  0  0
  8  9  2  0  0  0  0
  8 13  1  0  0  0  0
  9 14  1  0  0  0  0
 10  9  1  0  0  0  0
 11 10  2  0  0  0  0
 12 11  1  0  0  0  0
 12  7  2  0  0  0  0
 15 17  1  0  0  0  0
 15 11  1  0  0  0  0
 16 15  1  0  0  0  0
 18 19  1  0  0  0  0
 18 15  1  0  0  0  0
 19 20  1  0  0  0  0
 21 19  2  0  0  0  0
 22 21  1  0  0  0  0
 23 24  2  0  0  0  0
 23 21  1  0  0  0  0
 24 25  1  0  0  0  0
 25 18  2  0  0  0  0
 26 31  1  0  0  0  0
 27 33  1  0  0  0  0
 28 34  1  0  0  0  0
 28 27  2  0  0  0  0
 29 28  1  0  0  0  0
 30 29  2  0  0  0  0
 30 31  1  0  0  0  0
 31 32  2  0  0  0  0
 32 27  1  0  0  0  0
 36 37  1  0  0  0  0
 36 35  1  0  0  0  0
 37 29  1  0  0  0  0
 38 37  2  0  0  0  0
 39 40  2  0  0  0  0
 39 38  1  0  0  0  0
 40 41  1  0  0  0  0
 41 45  1  0  0  0  0
 41 36  2  0  0  0  0
 42 38  1  0  0  0  0
 43 39  1  0  0  0  0
 44 40  1  0  0  0  0
M  END
>  <minimizedAffinity>
-6.60532713

>  <minimizedRMSD>
0.874090314

$$$$
