
 OpenBabel03272509573D

 45 48  0  0  0  0  0  0  0  0999 V2000
   34.2150   28.8030   48.1340 C   0  0  0  0  0  0  0  0  0  0  0  0
   33.6760   29.7650   48.2340 H   0  0  0  0  0  0  0  0  0  0  0  0
   35.0900   29.0160   47.4710 H   0  0  0  0  0  0  0  0  0  0  0  0
   33.3720   27.7320   47.5260 C   0  0  0  0  0  0  0  0  0  0  0  0
   33.5100   27.7560   46.4130 H   0  0  0  0  0  0  0  0  0  0  0  0
   33.6370   26.7350   47.8940 H   0  0  0  0  0  0  0  0  0  0  0  0
   31.9150   27.9500   47.7340 C   0  0  0  0  0  0  0  0  0  0  0  0
   31.3410   27.4140   48.8740 C   0  0  0  0  0  0  0  0  0  0  0  0
   30.0100   27.5590   49.1570 C   0  0  0  0  0  0  0  0  0  0  0  0
   29.2450   28.2330   48.3110 N   0  0  0  0  0  0  0  0  0  0  0  0
   29.8030   28.7640   47.1850 C   0  0  0  0  0  0  0  0  0  0  0  0
   31.1120   28.6350   46.8860 N   0  0  0  0  0  0  0  0  0  0  0  0
   31.9530   26.8570   49.5820 H   0  0  0  0  0  0  0  0  0  0  0  0
   29.5380   27.1570   50.0290 H   0  0  0  0  0  0  0  0  0  0  0  0
   28.9300   29.5180   46.2470 C   0  0  0  0  0  0  0  0  0  0  0  0
   29.5030   30.2750   45.6700 H   0  0  0  0  0  0  0  0  0  0  0  0
   28.2190   30.1060   46.8630 H   0  0  0  0  0  0  0  0  0  0  0  0
   28.1530   28.6150   45.3820 C   0  0  0  0  0  0  0  0  0  0  0  0
   26.7720   28.8340   45.4390 C   0  0  0  0  0  0  0  0  0  0  0  0
   26.3090   29.5810   46.0470 H   0  0  0  0  0  0  0  0  0  0  0  0
   25.9610   28.0180   44.6470 C   0  0  0  0  0  0  0  0  0  0  0  0
   24.8710   28.1460   44.6520 H   0  0  0  0  0  0  0  0  0  0  0  0
   26.4620   27.0250   43.8260 C   0  0  0  0  0  3  0  0  0  0  0  0
   27.8520   26.8680   43.8250 C   0  0  0  0  0  3  0  0  0  0  0  0
   28.6390   27.6520   44.5870 N   0  0  0  0  0  0  0  0  0  0  0  0
   34.7770   28.3830   49.3580 O   0  0  0  0  0  0  0  0  0  0  0  0
   37.1160   29.9920   51.5860 C   0  0  0  0  0  0  0  0  0  0  0  0
   37.8960   30.7150   50.6590 C   0  0  0  0  0  0  0  0  0  0  0  0
   37.5560   30.5960   49.3140 C   0  0  0  0  0  0  0  0  0  0  0  0
   36.4970   29.7870   49.0250 N   0  0  0  0  0  0  0  0  0  0  0  0
   35.7750   29.1140   49.9130 C   0  0  0  0  0  0  0  0  0  0  0  0
   36.1010   29.2260   51.2200 N   0  0  0  0  0  0  0  0  0  0  0  0
   37.4210   30.1180   52.6250 H   0  0  0  0  0  0  0  0  0  0  0  0
   38.7280   31.3500   50.9040 H   0  0  0  0  0  0  0  0  0  0  0  0
   38.7800   33.2270   49.2940 F   0  0  0  0  0  0  0  0  0  0  0  0
   38.8070   32.4700   48.1950 C   0  0  0  0  0  0  0  0  0  0  0  0
   38.2370   31.2590   48.2230 C   0  0  0  0  0  0  0  0  0  0  0  0
   38.3210   30.5510   47.0230 C   0  0  0  0  0  0  0  0  0  0  0  0
   38.9420   31.0660   45.9090 C   0  0  0  0  0  0  0  0  0  0  0  0
   39.5150   32.3200   45.9310 C   0  0  0  0  0  0  0  0  0  0  0  0
   39.4350   33.0140   47.0980 C   0  0  0  0  0  0  0  0  0  0  0  0
   37.9020   29.5550   46.9030 H   0  0  0  0  0  0  0  0  0  0  0  0
   38.9970   30.5020   44.9880 H   0  0  0  0  0  0  0  0  0  0  0  0
   39.9970   32.6970   45.0330 H   0  0  0  0  0  0  0  0  0  0  0  0
   39.8810   34.0000   47.1290 H   0  0  0  0  0  0  0  0  0  0  0  0
  1  2  1  0  0  0  0
  1 26  1  0  0  0  0
  3  1  1  0  0  0  0
  4  7  1  0  0  0  0
  4  6  1  0  0  0  0
  4  1  1  0  0  0  0
  5  4  1  0  0  0  0
  7  8  1  0  0  0  0
  8  9  2  0  0  0  0
  8 13  1  0  0  0  0
  9 14  1  0  0  0  0
 10  9  1  0  0  0  0
 11 10  2  0  0  0  0
 12 11  1  0  0  0  0
 12  7  2  0  0  0  0
 15 17  1  0  0  0  0
 15 11  1  0  0  0  0
 16 15  1  0  0  0  0
 18 19  1  0  0  0  0
 18 15  1  0  0  0  0
 19 20  1  0  0  0  0
 21 22  1  0  0  0  0
 21 19  2  0  0  0  0
 23 21  1  0  0  0  0
 24 23  2  0  0  0  0
 24 25  1  0  0  0  0
 25 18  2  0  0  0  0
 26 31  1  0  0  0  0
 27 33  1  0  0  0  0
 28 34  1  0  0  0  0
 28 27  2  0  0  0  0
 29 28  1  0  0  0  0
 30 29  2  0  0  0  0
 30 31  1  0  0  0  0
 31 32  2  0  0  0  0
 32 27  1  0  0  0  0
 36 37  1  0  0  0  0
 36 35  1  0  0  0  0
 37 29  1  0  0  0  0
 38 37  2  0  0  0  0
 39 40  2  0  0  0  0
 39 38  1  0  0  0  0
 40 41  1  0  0  0  0
 41 45  1  0  0  0  0
 41 36  2  0  0  0  0
 42 38  1  0  0  0  0
 43 39  1  0  0  0  0
 44 40  1  0  0  0  0
M  END
>  <minimizedAffinity>
-6.60114861

>  <minimizedRMSD>
0.694351792

$$$$
