
 OpenBabel03272509573D

 45 48  0  0  0  0  0  0  0  0999 V2000
   34.2630   28.9760   47.9660 C   0  0  0  0  0  0  0  0  0  0  0  0
   33.6610   29.8340   48.3230 H   0  0  0  0  0  0  0  0  0  0  0  0
   35.0080   29.4090   47.2520 H   0  0  0  0  0  0  0  0  0  0  0  0
   33.4410   27.9440   47.2720 C   0  0  0  0  0  0  0  0  0  0  0  0
   33.5380   28.0930   46.1640 H   0  0  0  0  0  0  0  0  0  0  0  0
   33.7550   26.9250   47.5210 H   0  0  0  0  0  0  0  0  0  0  0  0
   31.9840   28.0790   47.5480 C   0  0  0  0  0  0  0  0  0  0  0  0
   31.4870   27.4690   48.6870 C   0  0  0  0  0  0  0  0  0  0  0  0
   30.1630   27.5340   49.0290 C   0  0  0  0  0  0  0  0  0  0  0  0
   29.3310   28.2010   48.2430 N   0  0  0  0  0  0  0  0  0  0  0  0
   29.8140   28.8040   47.1190 C   0  0  0  0  0  0  0  0  0  0  0  0
   31.1130   28.7540   46.7620 N   0  0  0  0  0  0  0  0  0  0  0  0
   32.1540   26.9160   49.3450 H   0  0  0  0  0  0  0  0  0  0  0  0
   29.7480   27.0740   49.9020 H   0  0  0  0  0  0  0  0  0  0  0  0
   28.8640   29.5490   46.2490 C   0  0  0  0  0  0  0  0  0  0  0  0
   29.3720   30.3640   45.6900 H   0  0  0  0  0  0  0  0  0  0  0  0
   28.1450   30.0650   46.9170 H   0  0  0  0  0  0  0  0  0  0  0  0
   28.1080   28.6440   45.3680 C   0  0  0  0  0  0  0  0  0  0  0  0
   26.7220   28.8280   45.4310 C   0  0  0  0  0  0  0  0  0  0  0  0
   26.2430   29.5510   46.0540 H   0  0  0  0  0  0  0  0  0  0  0  0
   25.9310   28.0070   44.6240 C   0  0  0  0  0  0  0  0  0  0  0  0
   24.8380   28.1080   44.6340 H   0  0  0  0  0  0  0  0  0  0  0  0
   26.4540   27.0420   43.7840 C   0  0  0  0  0  3  0  0  0  0  0  0
   27.8480   26.9200   43.7780 C   0  0  0  0  0  3  0  0  0  0  0  0
   28.6170   27.7080   44.5540 N   0  0  0  0  0  0  0  0  0  0  0  0
   35.0370   28.4090   49.0010 O   0  0  0  0  0  0  0  0  0  0  0  0
   37.2220   30.0580   51.3510 C   0  0  0  0  0  0  0  0  0  0  0  0
   38.0150   30.8240   50.4700 C   0  0  0  0  0  0  0  0  0  0  0  0
   37.7360   30.7160   49.1100 C   0  0  0  0  0  0  0  0  0  0  0  0
   36.7200   29.8760   48.7640 N   0  0  0  0  0  0  0  0  0  0  0  0
   35.9840   29.1640   49.6090 C   0  0  0  0  0  0  0  0  0  0  0  0
   36.2510   29.2650   50.9300 N   0  0  0  0  0  0  0  0  0  0  0  0
   37.4790   30.1760   52.4040 H   0  0  0  0  0  0  0  0  0  0  0  0
   38.8130   31.4820   50.7610 H   0  0  0  0  0  0  0  0  0  0  0  0
   38.8190   33.4070   49.1650 F   0  0  0  0  0  0  0  0  0  0  0  0
   38.9450   32.6600   48.0670 C   0  0  0  0  0  0  0  0  0  0  0  0
   38.4390   31.4210   48.0600 C   0  0  0  0  0  0  0  0  0  0  0  0
   38.6240   30.7250   46.8640 C   0  0  0  0  0  0  0  0  0  0  0  0
   39.2770   31.2800   45.7870 C   0  0  0  0  0  0  0  0  0  0  0  0
   39.7800   32.5620   45.8450 C   0  0  0  0  0  0  0  0  0  0  0  0
   39.6020   33.2430   47.0070 C   0  0  0  0  0  0  0  0  0  0  0  0
   38.2660   29.7100   46.7180 H   0  0  0  0  0  0  0  0  0  0  0  0
   39.4110   30.7250   44.8680 H   0  0  0  0  0  0  0  0  0  0  0  0
   40.2900   32.9690   44.9750 H   0  0  0  0  0  0  0  0  0  0  0  0
   39.9920   34.2510   47.0660 H   0  0  0  0  0  0  0  0  0  0  0  0
  1  2  1  0  0  0  0
  1 26  1  0  0  0  0
  3  1  1  0  0  0  0
  4  6  1  0  0  0  0
  4  7  1  0  0  0  0
  4  1  1  0  0  0  0
  5  4  1  0  0  0  0
  7  8  1  0  0  0  0
  8  9  2  0  0  0  0
  8 13  1  0  0  0  0
  9 14  1  0  0  0  0
 10  9  1  0  0  0  0
 11 10  2  0  0  0  0
 12 11  1  0  0  0  0
 12  7  2  0  0  0  0
 15 17  1  0  0  0  0
 15 11  1  0  0  0  0
 16 15  1  0  0  0  0
 18 19  1  0  0  0  0
 18 15  1  0  0  0  0
 19 20  1  0  0  0  0
 21 22  1  0  0  0  0
 21 19  2  0  0  0  0
 23 21  1  0  0  0  0
 24 23  2  0  0  0  0
 24 25  1  0  0  0  0
 25 18  2  0  0  0  0
 26 31  1  0  0  0  0
 27 33  1  0  0  0  0
 28 34  1  0  0  0  0
 28 27  2  0  0  0  0
 29 28  1  0  0  0  0
 30 29  2  0  0  0  0
 30 31  1  0  0  0  0
 31 32  2  0  0  0  0
 32 27  1  0  0  0  0
 36 35  1  0  0  0  0
 37 36  1  0  0  0  0
 37 29  1  0  0  0  0
 38 37  2  0  0  0  0
 39 40  2  0  0  0  0
 39 38  1  0  0  0  0
 40 41  1  0  0  0  0
 41 45  1  0  0  0  0
 41 36  2  0  0  0  0
 42 38  1  0  0  0  0
 43 39  1  0  0  0  0
 44 40  1  0  0  0  0
M  END
>  <minimizedAffinity>
-6.60193539

>  <minimizedRMSD>
0.823494732

$$$$
