
 OpenBabel03272506433D

 31 33  0  0  1  0  0  0  0  0999 V2000
   32.1590   28.3050   47.5190 C   0  0  2  0  0  0  0  0  0  0  0  0
   33.4470   28.1640   48.3010 C   0  0  1  0  0  0  0  0  0  0  0  0
   33.8880   26.8650   48.1470 O   0  0  0  0  0  0  0  0  0  0  0  0
   33.1170   26.2360   47.2010 C   0  0  0  0  0  0  0  0  0  0  0  0
   32.4500   27.3460   46.3730 C   0  0  1  0  0  0  0  0  0  0  0  0
   31.3210   27.9220   48.1080 H   0  0  0  0  0  0  0  0  0  0  0  0
   33.3490   28.4190   49.3670 H   0  0  0  0  0  0  0  0  0  0  0  0
   33.7220   25.6290   46.4890 H   0  0  0  0  0  0  0  0  0  0  0  0
   32.3370   25.5750   47.6280 H   0  0  0  0  0  0  0  0  0  0  0  0
   33.1610   27.7610   45.6570 H   0  0  0  0  0  0  0  0  0  0  0  0
   31.9880   29.6020   47.0580 O   0  0  0  0  0  0  0  0  0  0  0  0
   32.1510   29.6040   46.0990 H   0  0  0  0  0  0  0  0  0  0  0  0
   34.6760   29.2490   47.4770 S   0  0  0  0  0  0  0  0  0  0  0  0
   37.1480   29.3380   50.5640 C   0  0  0  0  0  0  0  0  0  0  0  0
   37.6620   30.6360   50.5810 C   0  0  0  0  0  0  0  0  0  0  0  0
   37.2260   31.5240   49.5940 C   0  0  0  0  0  0  0  0  0  0  0  0
   36.3270   31.0780   48.6750 N   0  0  0  0  0  0  0  0  0  0  0  0
   35.8540   29.8060   48.6970 C   0  0  0  0  0  0  0  0  0  0  0  0
   36.2550   28.9270   49.6340 N   0  0  0  0  0  0  0  0  0  0  0  0
   37.4540   28.6140   51.3070 H   0  0  0  0  0  0  0  0  0  0  0  0
   38.3820   30.9500   51.3390 H   0  0  0  0  0  0  0  0  0  0  0  0
   37.6060   32.5270   49.5860 H   0  0  0  0  0  0  0  0  0  0  0  0
   31.3180   26.8550   45.7700 O   0  0  0  0  0  0  0  0  0  0  0  0
   30.0390   27.2480   46.1120 C   0  0  0  0  0  0  0  0  0  0  0  0
   29.3750   26.2660   46.8210 C   0  0  0  0  0  0  0  0  0  0  0  0
   29.7780   25.2850   47.0970 H   0  0  0  0  0  0  0  0  0  0  0  0
   28.0630   26.4280   47.2810 C   0  0  0  0  0  0  0  0  0  0  0  0
   27.5280   25.6730   47.8360 H   0  0  0  0  0  0  0  0  0  0  0  0
   27.4510   27.6500   46.9830 C   0  0  0  0  0  0  0  0  0  0  0  0
   28.1450   28.6070   46.2730 C   0  0  0  0  0  0  0  0  0  0  0  0
   29.4240   28.4200   45.8380 N   0  0  0  0  0  0  0  0  0  0  0  0
  1  6  1  1  0  0  0
  1  2  1  0  0  0  0
  2  7  1  1  0  0  0
  3  2  1  0  0  0  0
  4  9  1  0  0  0  0
  4  3  1  0  0  0  0
  5 10  1  6  0  0  0
  5  4  1  0  0  0  0
  5  1  1  0  0  0  0
  8  4  1  0  0  0  0
 11  1  1  0  0  0  0
 12 11  1  0  0  0  0
 13  2  1  0  0  0  0
 13 18  1  0  0  0  0
 14 15  1  0  0  0  0
 14 20  1  0  0  0  0
 15 21  1  0  0  0  0
 16 15  2  0  0  0  0
 17 18  2  0  0  0  0
 17 16  1  0  0  0  0
 18 19  1  0  0  0  0
 19 14  2  0  0  0  0
 22 16  1  0  0  0  0
 23 24  1  0  0  0  0
 23  5  1  0  0  0  0
 24 25  1  0  0  0  0
 25 26  1  0  0  0  0
 25 27  2  0  0  0  0
 27 28  1  0  0  0  0
 29 27  1  0  0  0  0
 30 29  2  0  0  0  0
 31 24  2  0  0  0  0
 31 30  1  0  0  0  0
M  END
>  <minimizedAffinity>
-4.45914507

>  <minimizedRMSD>
2.63541913

$$$$
