
 OpenBabel03272509573D

 45 48  0  0  0  0  0  0  0  0999 V2000
   34.4170   28.7200   48.0980 C   0  0  0  0  0  0  0  0  0  0  0  0
   33.9130   29.7050   48.1200 H   0  0  0  0  0  0  0  0  0  0  0  0
   35.2920   28.8450   47.4120 H   0  0  0  0  0  0  0  0  0  0  0  0
   33.5310   27.6320   47.5890 C   0  0  0  0  0  0  0  0  0  0  0  0
   33.6650   27.5500   46.4780 H   0  0  0  0  0  0  0  0  0  0  0  0
   33.7590   26.6630   48.0450 H   0  0  0  0  0  0  0  0  0  0  0  0
   32.0840   27.9240   47.7780 C   0  0  0  0  0  0  0  0  0  0  0  0
   31.4900   27.4960   48.9530 C   0  0  0  0  0  0  0  0  0  0  0  0
   30.1660   27.7150   49.2220 C   0  0  0  0  0  0  0  0  0  0  0  0
   29.4290   28.3570   48.3280 N   0  0  0  0  0  0  0  0  0  0  0  0
   30.0070   28.7820   47.1670 C   0  0  0  0  0  0  0  0  0  0  0  0
   31.3090   28.5780   46.8810 N   0  0  0  0  0  0  0  0  0  0  0  0
   32.0790   26.9660   49.7000 H   0  0  0  0  0  0  0  0  0  0  0  0
   29.6790   27.3980   50.1200 H   0  0  0  0  0  0  0  0  0  0  0  0
   29.1640   29.5010   46.1760 C   0  0  0  0  0  0  0  0  0  0  0  0
   29.7040   30.3620   45.7240 H   0  0  0  0  0  0  0  0  0  0  0  0
   28.3190   29.9540   46.7330 H   0  0  0  0  0  0  0  0  0  0  0  0
   28.6120   28.5850   45.1640 C   0  0  0  0  0  0  0  0  0  0  0  0
   29.1140   28.8050   43.8760 C   0  0  0  0  0  0  0  0  0  0  0  0
   29.8290   29.5590   43.6340 H   0  0  0  0  0  0  0  0  0  0  0  0
   28.6400   27.9760   42.8560 C   0  0  0  0  0  0  0  0  0  0  0  0
   29.0000   28.1030   41.8270 H   0  0  0  0  0  0  0  0  0  0  0  0
   27.7150   26.9720   43.0670 C   0  0  0  0  0  3  0  0  0  0  0  0
   27.2620   26.8160   44.3820 C   0  0  0  0  0  3  0  0  0  0  0  0
   27.7150   27.6120   45.3700 N   0  0  0  0  0  0  0  0  0  0  0  0
   34.9780   28.3850   49.3480 O   0  0  0  0  0  0  0  0  0  0  0  0
   37.2950   30.1430   51.4840 C   0  0  0  0  0  0  0  0  0  0  0  0
   38.0460   30.8490   50.5200 C   0  0  0  0  0  0  0  0  0  0  0  0
   37.6960   30.6670   49.1840 C   0  0  0  0  0  0  0  0  0  0  0  0
   36.6560   29.8190   48.9400 N   0  0  0  0  0  0  0  0  0  0  0  0
   35.9610   29.1630   49.8620 C   0  0  0  0  0  0  0  0  0  0  0  0
   36.2970   29.3370   51.1600 N   0  0  0  0  0  0  0  0  0  0  0  0
   37.6080   30.3180   52.5130 H   0  0  0  0  0  0  0  0  0  0  0  0
   38.8630   31.5150   50.7300 H   0  0  0  0  0  0  0  0  0  0  0  0
   38.8880   33.3090   49.0600 F   0  0  0  0  0  0  0  0  0  0  0  0
   38.9020   32.5190   47.9840 C   0  0  0  0  0  0  0  0  0  0  0  0
   38.3470   31.3040   48.0610 C   0  0  0  0  0  0  0  0  0  0  0  0
   38.4150   30.5600   46.8810 C   0  0  0  0  0  0  0  0  0  0  0  0
   39.0080   31.0480   45.7400 C   0  0  0  0  0  0  0  0  0  0  0  0
   39.5670   32.3080   45.7130 C   0  0  0  0  0  0  0  0  0  0  0  0
   39.5030   33.0360   46.8590 C   0  0  0  0  0  0  0  0  0  0  0  0
   38.0050   29.5570   46.8000 H   0  0  0  0  0  0  0  0  0  0  0  0
   39.0510   30.4570   44.8350 H   0  0  0  0  0  0  0  0  0  0  0  0
   40.0270   32.6630   44.7940 H   0  0  0  0  0  0  0  0  0  0  0  0
   39.9370   34.0270   46.8510 H   0  0  0  0  0  0  0  0  0  0  0  0
  1  2  1  0  0  0  0
  1 26  1  0  0  0  0
  3  1  1  0  0  0  0
  4  7  1  0  0  0  0
  4  6  1  0  0  0  0
  4  1  1  0  0  0  0
  5  4  1  0  0  0  0
  7  8  1  0  0  0  0
  8  9  2  0  0  0  0
  8 13  1  0  0  0  0
  9 14  1  0  0  0  0
 10  9  1  0  0  0  0
 11 10  2  0  0  0  0
 12 11  1  0  0  0  0
 12  7  2  0  0  0  0
 15 17  1  0  0  0  0
 15 11  1  0  0  0  0
 16 15  1  0  0  0  0
 18 25  1  0  0  0  0
 18 15  1  0  0  0  0
 19 18  2  0  0  0  0
 20 19  1  0  0  0  0
 21 23  2  0  0  0  0
 21 19  1  0  0  0  0
 22 21  1  0  0  0  0
 23 24  1  0  0  0  0
 24 25  2  0  0  0  0
 26 31  1  0  0  0  0
 27 33  1  0  0  0  0
 28 34  1  0  0  0  0
 28 27  2  0  0  0  0
 29 28  1  0  0  0  0
 30 29  2  0  0  0  0
 30 31  1  0  0  0  0
 31 32  2  0  0  0  0
 32 27  1  0  0  0  0
 36 37  1  0  0  0  0
 36 35  1  0  0  0  0
 37 29  1  0  0  0  0
 38 37  2  0  0  0  0
 39 38  1  0  0  0  0
 40 39  2  0  0  0  0
 40 41  1  0  0  0  0
 41 36  2  0  0  0  0
 42 38  1  0  0  0  0
 43 39  1  0  0  0  0
 44 40  1  0  0  0  0
 45 41  1  0  0  0  0
M  END
>  <minimizedAffinity>
-6.29487181

>  <minimizedRMSD>
0.267202616

$$$$
