
 OpenBabel03272509573D

 45 48  0  0  0  0  0  0  0  0999 V2000
   34.4410   28.6380   48.1880 C   0  0  0  0  0  0  0  0  0  0  0  0
   33.9400   29.6240   48.1630 H   0  0  0  0  0  0  0  0  0  0  0  0
   35.3210   28.7300   47.5020 H   0  0  0  0  0  0  0  0  0  0  0  0
   33.5560   27.5310   47.7240 C   0  0  0  0  0  0  0  0  0  0  0  0
   33.7660   27.3350   46.6390 H   0  0  0  0  0  0  0  0  0  0  0  0
   33.7140   26.6060   48.2880 H   0  0  0  0  0  0  0  0  0  0  0  0
   32.1100   27.8830   47.7740 C   0  0  0  0  0  0  0  0  0  0  0  0
   31.3870   27.4730   48.8810 C   0  0  0  0  0  0  0  0  0  0  0  0
   30.0530   27.7460   49.0220 C   0  0  0  0  0  0  0  0  0  0  0  0
   29.4340   28.4240   48.0670 N   0  0  0  0  0  0  0  0  0  0  0  0
   30.1400   28.8310   46.9730 C   0  0  0  0  0  0  0  0  0  0  0  0
   31.4540   28.5740   46.8120 N   0  0  0  0  0  0  0  0  0  0  0  0
   31.8780   26.9150   49.6770 H   0  0  0  0  0  0  0  0  0  0  0  0
   29.4680   27.4440   49.8650 H   0  0  0  0  0  0  0  0  0  0  0  0
   29.4280   29.5900   45.9110 C   0  0  0  0  0  0  0  0  0  0  0  0
   30.1330   30.0020   45.1570 H   0  0  0  0  0  0  0  0  0  0  0  0
   28.9750   30.4800   46.3940 H   0  0  0  0  0  0  0  0  0  0  0  0
   28.3490   28.7950   45.3030 C   0  0  0  0  0  0  0  0  0  0  0  0
   28.8090   27.7350   44.5150 C   0  0  0  0  0  0  0  0  0  0  0  0
   29.8420   27.5110   44.3580 H   0  0  0  0  0  0  0  0  0  0  0  0
   27.8470   26.9290   43.9000 C   0  0  0  0  0  0  0  0  0  0  0  0
   28.1530   26.0840   43.2700 H   0  0  0  0  0  0  0  0  0  0  0  0
   26.4880   27.1370   44.0390 C   0  0  0  0  0  3  0  0  0  0  0  0
   26.1080   28.2160   44.8440 C   0  0  0  0  0  3  0  0  0  0  0  0
   27.0310   28.9970   45.4380 N   0  0  0  0  0  0  0  0  0  0  0  0
   34.9940   28.3580   49.4560 O   0  0  0  0  0  0  0  0  0  0  0  0
   37.3310   30.1760   51.5180 C   0  0  0  0  0  0  0  0  0  0  0  0
   38.0630   30.8670   50.5290 C   0  0  0  0  0  0  0  0  0  0  0  0
   37.6930   30.6540   49.2030 C   0  0  0  0  0  0  0  0  0  0  0  0
   36.6560   29.7940   48.9920 N   0  0  0  0  0  0  0  0  0  0  0  0
   35.9790   29.1540   49.9390 C   0  0  0  0  0  0  0  0  0  0  0  0
   36.3340   29.3570   51.2270 N   0  0  0  0  0  0  0  0  0  0  0  0
   37.6580   30.3750   52.5390 H   0  0  0  0  0  0  0  0  0  0  0  0
   38.8780   31.5420   50.7130 H   0  0  0  0  0  0  0  0  0  0  0  0
   38.9460   33.2650   49.0300 F   0  0  0  0  0  0  0  0  0  0  0  0
   38.9060   32.4720   47.9570 C   0  0  0  0  0  0  0  0  0  0  0  0
   38.3230   31.2710   48.0560 C   0  0  0  0  0  0  0  0  0  0  0  0
   38.3350   30.5220   46.8780 C   0  0  0  0  0  0  0  0  0  0  0  0
   38.9030   30.9920   45.7160 C   0  0  0  0  0  0  0  0  0  0  0  0
   39.4910   32.2380   45.6660 C   0  0  0  0  0  0  0  0  0  0  0  0
   39.4820   32.9710   46.8110 C   0  0  0  0  0  0  0  0  0  0  0  0
   37.8990   29.5290   46.8140 H   0  0  0  0  0  0  0  0  0  0  0  0
   38.9020   30.3970   44.8130 H   0  0  0  0  0  0  0  0  0  0  0  0
   39.9300   32.5780   44.7310 H   0  0  0  0  0  0  0  0  0  0  0  0
   39.9400   33.9510   46.7850 H   0  0  0  0  0  0  0  0  0  0  0  0
  1 26  1  0  0  0  0
  2  1  1  0  0  0  0
  3  1  1  0  0  0  0
  4  7  1  0  0  0  0
  4  1  1  0  0  0  0
  4  6  1  0  0  0  0
  5  4  1  0  0  0  0
  7  8  1  0  0  0  0
  8  9  2  0  0  0  0
  8 13  1  0  0  0  0
  9 14  1  0  0  0  0
 10  9  1  0  0  0  0
 11 10  2  0  0  0  0
 12 11  1  0  0  0  0
 12  7  2  0  0  0  0
 15 17  1  0  0  0  0
 15 11  1  0  0  0  0
 16 15  1  0  0  0  0
 18 25  1  0  0  0  0
 18 15  1  0  0  0  0
 19 18  2  0  0  0  0
 20 19  1  0  0  0  0
 21 23  2  0  0  0  0
 21 19  1  0  0  0  0
 22 21  1  0  0  0  0
 23 24  1  0  0  0  0
 24 25  2  0  0  0  0
 26 31  1  0  0  0  0
 27 33  1  0  0  0  0
 28 34  1  0  0  0  0
 28 27  2  0  0  0  0
 29 28  1  0  0  0  0
 30 29  2  0  0  0  0
 30 31  1  0  0  0  0
 31 32  2  0  0  0  0
 32 27  1  0  0  0  0
 36 37  1  0  0  0  0
 36 35  1  0  0  0  0
 37 29  1  0  0  0  0
 38 37  2  0  0  0  0
 39 38  1  0  0  0  0
 40 39  2  0  0  0  0
 40 41  1  0  0  0  0
 41 36  2  0  0  0  0
 42 38  1  0  0  0  0
 43 39  1  0  0  0  0
 44 40  1  0  0  0  0
 45 41  1  0  0  0  0
M  END
>  <minimizedAffinity>
-6.57826805

>  <minimizedRMSD>
0.763455033

$$$$
