
 OpenBabel03272509573D

 45 48  0  0  0  0  0  0  0  0999 V2000
   34.4000   28.7450   48.0830 C   0  0  0  0  0  0  0  0  0  0  0  0
   33.8930   29.7270   48.1290 H   0  0  0  0  0  0  0  0  0  0  0  0
   35.2670   28.8860   47.3910 H   0  0  0  0  0  0  0  0  0  0  0  0
   33.5130   27.6630   47.5650 C   0  0  0  0  0  0  0  0  0  0  0  0
   33.6220   27.6130   46.4500 H   0  0  0  0  0  0  0  0  0  0  0  0
   33.7590   26.6840   47.9890 H   0  0  0  0  0  0  0  0  0  0  0  0
   32.0680   27.9360   47.7940 C   0  0  0  0  0  0  0  0  0  0  0  0
   31.5140   27.5040   48.9880 C   0  0  0  0  0  0  0  0  0  0  0  0
   30.1950   27.7070   49.2930 C   0  0  0  0  0  0  0  0  0  0  0  0
   29.4240   28.3350   48.4180 N   0  0  0  0  0  0  0  0  0  0  0  0
   29.9630   28.7630   47.2400 C   0  0  0  0  0  0  0  0  0  0  0  0
   31.2580   28.5760   46.9180 N   0  0  0  0  0  0  0  0  0  0  0  0
   32.1310   26.9860   49.7190 H   0  0  0  0  0  0  0  0  0  0  0  0
   29.7380   27.3860   50.2060 H   0  0  0  0  0  0  0  0  0  0  0  0
   29.0820   29.4660   46.2710 C   0  0  0  0  0  0  0  0  0  0  0  0
   29.5730   30.3690   45.8480 H   0  0  0  0  0  0  0  0  0  0  0  0
   28.2130   29.8540   46.8400 H   0  0  0  0  0  0  0  0  0  0  0  0
   28.5810   28.5550   45.2290 C   0  0  0  0  0  0  0  0  0  0  0  0
   28.7260   29.0540   43.9300 C   0  0  0  0  0  0  0  0  0  0  0  0
   29.1570   30.0040   43.6980 H   0  0  0  0  0  0  0  0  0  0  0  0
   28.2750   28.2490   42.8810 C   0  0  0  0  0  0  0  0  0  0  0  0
   28.3650   28.5910   41.8420 H   0  0  0  0  0  0  0  0  0  0  0  0
   27.7040   27.0060   43.0750 C   0  0  0  0  0  3  0  0  0  0  0  0
   27.5940   26.5780   44.4020 C   0  0  0  0  0  3  0  0  0  0  0  0
   28.0270   27.3490   45.4180 N   0  0  0  0  0  0  0  0  0  0  0  0
   34.9750   28.3900   49.3220 O   0  0  0  0  0  0  0  0  0  0  0  0
   37.2880   30.1380   51.4700 C   0  0  0  0  0  0  0  0  0  0  0  0
   38.0430   30.8460   50.5120 C   0  0  0  0  0  0  0  0  0  0  0  0
   37.6960   30.6690   49.1740 C   0  0  0  0  0  0  0  0  0  0  0  0
   36.6560   29.8240   48.9240 N   0  0  0  0  0  0  0  0  0  0  0  0
   35.9580   29.1660   49.8420 C   0  0  0  0  0  0  0  0  0  0  0  0
   36.2900   29.3340   51.1410 N   0  0  0  0  0  0  0  0  0  0  0  0
   37.5980   30.3090   52.5020 H   0  0  0  0  0  0  0  0  0  0  0  0
   38.8600   31.5100   50.7260 H   0  0  0  0  0  0  0  0  0  0  0  0
   38.8850   33.3130   49.0600 F   0  0  0  0  0  0  0  0  0  0  0  0
   38.9050   32.5260   47.9830 C   0  0  0  0  0  0  0  0  0  0  0  0
   38.3520   31.3090   48.0550 C   0  0  0  0  0  0  0  0  0  0  0  0
   38.4270   30.5670   46.8740 C   0  0  0  0  0  0  0  0  0  0  0  0
   39.0250   31.0580   45.7370 C   0  0  0  0  0  0  0  0  0  0  0  0
   39.5810   32.3190   45.7140 C   0  0  0  0  0  0  0  0  0  0  0  0
   39.5100   33.0460   46.8610 C   0  0  0  0  0  0  0  0  0  0  0  0
   38.0190   29.5640   46.7900 H   0  0  0  0  0  0  0  0  0  0  0  0
   39.0730   30.4680   44.8310 H   0  0  0  0  0  0  0  0  0  0  0  0
   40.0450   32.6760   44.7980 H   0  0  0  0  0  0  0  0  0  0  0  0
   39.9430   34.0370   46.8570 H   0  0  0  0  0  0  0  0  0  0  0  0
  1  2  1  0  0  0  0
  1 26  1  0  0  0  0
  3  1  1  0  0  0  0
  4  7  1  0  0  0  0
  4  6  1  0  0  0  0
  4  1  1  0  0  0  0
  5  4  1  0  0  0  0
  7  8  1  0  0  0  0
  8  9  2  0  0  0  0
  8 13  1  0  0  0  0
  9 14  1  0  0  0  0
 10  9  1  0  0  0  0
 11 10  2  0  0  0  0
 12 11  1  0  0  0  0
 12  7  2  0  0  0  0
 15 17  1  0  0  0  0
 15 11  1  0  0  0  0
 16 15  1  0  0  0  0
 18 25  1  0  0  0  0
 18 15  1  0  0  0  0
 19 18  2  0  0  0  0
 20 19  1  0  0  0  0
 21 23  2  0  0  0  0
 21 19  1  0  0  0  0
 22 21  1  0  0  0  0
 23 24  1  0  0  0  0
 24 25  2  0  0  0  0
 26 31  1  0  0  0  0
 27 33  1  0  0  0  0
 28 34  1  0  0  0  0
 28 27  2  0  0  0  0
 29 28  1  0  0  0  0
 30 29  2  0  0  0  0
 30 31  1  0  0  0  0
 31 32  2  0  0  0  0
 32 27  1  0  0  0  0
 36 37  1  0  0  0  0
 36 35  1  0  0  0  0
 37 29  1  0  0  0  0
 38 37  2  0  0  0  0
 39 38  1  0  0  0  0
 40 39  2  0  0  0  0
 40 41  1  0  0  0  0
 41 36  2  0  0  0  0
 42 38  1  0  0  0  0
 43 39  1  0  0  0  0
 44 40  1  0  0  0  0
 45 41  1  0  0  0  0
M  END
>  <minimizedAffinity>
-6.29227448

>  <minimizedRMSD>
0.308643669

$$$$
