
 OpenBabel03272509573D

 45 48  0  0  0  0  0  0  0  0999 V2000
   34.4080   28.6880   48.1060 C   0  0  0  0  0  0  0  0  0  0  0  0
   33.9060   29.6750   48.1070 H   0  0  0  0  0  0  0  0  0  0  0  0
   35.2870   28.7980   47.4240 H   0  0  0  0  0  0  0  0  0  0  0  0
   33.5220   27.5930   47.6130 C   0  0  0  0  0  0  0  0  0  0  0  0
   33.6720   27.4820   46.5060 H   0  0  0  0  0  0  0  0  0  0  0  0
   33.7370   26.6350   48.0970 H   0  0  0  0  0  0  0  0  0  0  0  0
   32.0750   27.9000   47.7720 C   0  0  0  0  0  0  0  0  0  0  0  0
   31.4490   27.4650   48.9280 C   0  0  0  0  0  0  0  0  0  0  0  0
   30.1220   27.6960   49.1690 C   0  0  0  0  0  0  0  0  0  0  0  0
   29.4120   28.3560   48.2660 N   0  0  0  0  0  0  0  0  0  0  0  0
   30.0220   28.7880   47.1240 C   0  0  0  0  0  0  0  0  0  0  0  0
   31.3270   28.5720   46.8650 N   0  0  0  0  0  0  0  0  0  0  0  0
   32.0150   26.9200   49.6820 H   0  0  0  0  0  0  0  0  0  0  0  0
   29.6100   27.3730   50.0510 H   0  0  0  0  0  0  0  0  0  0  0  0
   29.2100   29.5270   46.1220 C   0  0  0  0  0  0  0  0  0  0  0  0
   29.8400   30.1910   45.4910 H   0  0  0  0  0  0  0  0  0  0  0  0
   28.5440   30.2140   46.6830 H   0  0  0  0  0  0  0  0  0  0  0  0
   28.3690   28.6190   45.3240 C   0  0  0  0  0  0  0  0  0  0  0  0
   26.9970   28.8400   45.4840 C   0  0  0  0  0  0  0  0  0  0  0  0
   26.5820   29.5900   46.1200 H   0  0  0  0  0  0  0  0  0  0  0  0
   26.1280   28.0190   44.7610 C   0  0  0  0  0  0  0  0  0  0  0  0
   25.0410   28.1480   44.8480 H   0  0  0  0  0  0  0  0  0  0  0  0
   26.5650   27.0200   43.9130 C   0  0  0  0  0  3  0  0  0  0  0  0
   27.9510   26.8620   43.8060 C   0  0  0  0  0  3  0  0  0  0  0  0
   28.7940   27.6510   44.5010 N   0  0  0  0  0  0  0  0  0  0  0  0
   34.9600   28.3760   49.3670 O   0  0  0  0  0  0  0  0  0  0  0  0
   37.2900   30.1500   51.4740 C   0  0  0  0  0  0  0  0  0  0  0  0
   38.0410   30.8430   50.5000 C   0  0  0  0  0  0  0  0  0  0  0  0
   37.6850   30.6460   49.1670 C   0  0  0  0  0  0  0  0  0  0  0  0
   36.6420   29.7990   48.9360 N   0  0  0  0  0  0  0  0  0  0  0  0
   35.9470   29.1570   49.8690 C   0  0  0  0  0  0  0  0  0  0  0  0
   36.2880   29.3440   51.1630 N   0  0  0  0  0  0  0  0  0  0  0  0
   37.6070   30.3370   52.5000 H   0  0  0  0  0  0  0  0  0  0  0  0
   38.8610   31.5070   50.6990 H   0  0  0  0  0  0  0  0  0  0  0  0
   38.9150   33.2690   49.0180 F   0  0  0  0  0  0  0  0  0  0  0  0
   38.9080   32.4740   47.9460 C   0  0  0  0  0  0  0  0  0  0  0  0
   38.3350   31.2670   48.0340 C   0  0  0  0  0  0  0  0  0  0  0  0
   38.3810   30.5160   46.8580 C   0  0  0  0  0  0  0  0  0  0  0  0
   38.9710   30.9890   45.7090 C   0  0  0  0  0  0  0  0  0  0  0  0
   39.5470   32.2410   45.6690 C   0  0  0  0  0  0  0  0  0  0  0  0
   39.5050   32.9760   46.8120 C   0  0  0  0  0  0  0  0  0  0  0  0
   37.9570   29.5190   46.7860 H   0  0  0  0  0  0  0  0  0  0  0  0
   38.9970   30.3930   44.8070 H   0  0  0  0  0  0  0  0  0  0  0  0
   40.0040   32.5840   44.7440 H   0  0  0  0  0  0  0  0  0  0  0  0
   39.9530   33.9610   46.7950 H   0  0  0  0  0  0  0  0  0  0  0  0
  1  2  1  0  0  0  0
  1 26  1  0  0  0  0
  3  1  1  0  0  0  0
  4  7  1  0  0  0  0
  4  6  1  0  0  0  0
  4  1  1  0  0  0  0
  5  4  1  0  0  0  0
  7  8  1  0  0  0  0
  8  9  2  0  0  0  0
  8 13  1  0  0  0  0
  9 14  1  0  0  0  0
 10  9  1  0  0  0  0
 11 10  2  0  0  0  0
 12 11  1  0  0  0  0
 12  7  2  0  0  0  0
 15 17  1  0  0  0  0
 15 11  1  0  0  0  0
 16 15  1  0  0  0  0
 18 19  1  0  0  0  0
 18 15  1  0  0  0  0
 19 20  1  0  0  0  0
 21 22  1  0  0  0  0
 21 19  2  0  0  0  0
 23 21  1  0  0  0  0
 24 23  2  0  0  0  0
 24 25  1  0  0  0  0
 25 18  2  0  0  0  0
 26 31  1  0  0  0  0
 27 33  1  0  0  0  0
 28 34  1  0  0  0  0
 28 27  2  0  0  0  0
 29 28  1  0  0  0  0
 30 29  2  0  0  0  0
 30 31  1  0  0  0  0
 31 32  2  0  0  0  0
 32 27  1  0  0  0  0
 36 37  1  0  0  0  0
 36 35  1  0  0  0  0
 37 29  1  0  0  0  0
 38 37  2  0  0  0  0
 39 38  1  0  0  0  0
 40 39  2  0  0  0  0
 40 41  1  0  0  0  0
 41 36  2  0  0  0  0
 42 38  1  0  0  0  0
 43 39  1  0  0  0  0
 44 40  1  0  0  0  0
 45 41  1  0  0  0  0
M  END
>  <minimizedAffinity>
-6.58358383

>  <minimizedRMSD>
0.601415098

$$$$
