
 OpenBabel03272509463D

 24 25  0  0  0  0  0  0  0  0999 V2000
   33.5440   28.2910   49.1710 C   0  0  0  0  0  0  0  0  0  0  0  0
   34.0000   27.7270   50.0100 H   0  0  0  0  0  0  0  0  0  0  0  0
   32.9400   29.1040   49.6430 H   0  0  0  0  0  0  0  0  0  0  0  0
   34.5990   28.8810   48.2610 C   0  0  0  0  0  0  0  0  0  0  0  0
   34.1160   29.7450   47.7240 H   0  0  0  0  0  0  0  0  0  0  0  0
   34.9600   28.1770   47.5100 H   0  0  0  0  0  0  0  0  0  0  0  0
   35.6620   29.4830   49.1090 C   0  0  0  0  0  0  0  0  0  0  0  0
   35.8040   30.8550   48.9710 C   0  0  0  0  0  0  0  0  0  0  0  0
   35.1980   31.4630   48.3020 H   0  0  0  0  0  0  0  0  0  0  0  0
   36.7900   31.4590   49.7510 C   0  0  0  0  0  0  0  0  0  0  0  0
   36.8980   32.5460   49.6370 H   0  0  0  0  0  0  0  0  0  0  0  0
   37.6010   30.7520   50.6250 C   0  0  0  0  0  0  0  0  0  0  0  0
   37.3970   29.3730   50.7080 C   0  0  0  0  0  0  0  0  0  0  0  0
   36.4420   28.7790   49.9560 N   0  0  0  0  0  0  0  0  0  0  0  0
   32.6480   27.5050   48.4260 O   0  0  0  0  0  0  0  0  0  0  0  0
   29.2860   28.5470   47.5450 C   0  0  0  0  0  0  0  0  0  0  0  0
   28.6820   28.4610   48.8070 C   0  0  0  0  0  0  0  0  0  0  0  0
   29.4510   28.0530   49.8900 C   0  0  0  0  0  0  0  0  0  0  0  0
   30.7630   27.7630   49.6320 N   0  0  0  0  0  0  0  0  0  0  0  0
   31.3200   27.8530   48.4080 C   0  0  0  0  0  0  0  0  0  0  0  0
   30.5590   28.2490   47.3770 N   0  0  0  0  0  0  0  0  0  0  0  0
   28.6480   28.8670   46.7440 H   0  0  0  0  0  0  0  0  0  0  0  0
   27.6370   28.6860   49.0460 H   0  0  0  0  0  0  0  0  0  0  0  0
   29.0460   27.9660   50.8950 H   0  0  0  0  0  0  0  0  0  0  0  0
  1  3  1  0  0  0  0
  1  2  1  0  0  0  0
  4  7  1  0  0  0  0
  4  1  1  0  0  0  0
  5  4  1  0  0  0  0
  6  4  1  0  0  0  0
  7 14  1  0  0  0  0
  8  7  2  0  0  0  0
  8 10  1  0  0  0  0
  9  8  1  0  0  0  0
 10 12  2  0  0  0  0
 11 10  1  0  0  0  0
 12 13  1  0  0  0  0
 14 13  2  0  0  0  0
 15  1  1  0  0  0  0
 16 17  1  0  0  0  0
 17 23  1  0  0  0  0
 17 18  2  0  0  0  0
 18 24  1  0  0  0  0
 19 18  1  0  0  0  0
 20 15  1  0  0  0  0
 20 19  2  0  0  0  0
 21 16  2  0  0  0  0
 21 20  1  0  0  0  0
 22 16  1  0  0  0  0
M  END
>  <minimizedAffinity>
-4.42765617

>  <minimizedRMSD>
6.57903814

$$$$
