
 OpenBabel03272509463D

 24 25  0  0  0  0  0  0  0  0999 V2000
   34.8420   29.8490   47.3500 C   0  0  0  0  0  0  0  0  0  0  0  0
   35.2880   29.7940   46.3350 H   0  0  0  0  0  0  0  0  0  0  0  0
   34.7290   30.9380   47.5750 H   0  0  0  0  0  0  0  0  0  0  0  0
   33.4960   29.1600   47.4020 C   0  0  0  0  0  0  0  0  0  0  0  0
   32.8490   29.6560   46.6250 H   0  0  0  0  0  0  0  0  0  0  0  0
   33.0010   29.2600   48.3680 H   0  0  0  0  0  0  0  0  0  0  0  0
   33.6730   27.7580   46.9380 C   0  0  0  0  0  0  0  0  0  0  0  0
   33.8730   27.6220   45.5730 C   0  0  0  0  0  0  0  0  0  0  0  0
   33.9010   28.4600   44.8790 H   0  0  0  0  0  0  0  0  0  0  0  0
   34.0440   26.3230   45.0970 C   0  0  0  0  0  0  0  0  0  0  0  0
   34.2010   26.2200   44.0150 H   0  0  0  0  0  0  0  0  0  0  0  0
   34.0200   25.2050   45.9200 C   0  0  0  0  0  3  0  0  0  0  0  0
   33.8150   25.4260   47.2830 C   0  0  0  0  0  3  0  0  0  0  0  0
   33.6480   26.6830   47.7540 N   0  0  0  0  0  0  0  0  0  0  0  0
   35.6950   29.3210   48.3340 O   0  0  0  0  0  0  0  0  0  0  0  0
   38.2130   30.9040   50.4130 C   0  0  0  0  0  0  0  0  0  0  0  0
   38.5410   31.9890   49.5880 C   0  0  0  0  0  0  0  0  0  0  0  0
   37.8880   32.1240   48.3700 C   0  0  0  0  0  0  0  0  0  0  0  0
   36.9580   31.1670   48.0660 N   0  0  0  0  0  0  0  0  0  0  0  0
   36.6610   30.1320   48.8770 C   0  0  0  0  0  0  0  0  0  0  0  0
   37.3030   30.0220   50.0490 N   0  0  0  0  0  0  0  0  0  0  0  0
   38.7460   30.8480   51.3420 H   0  0  0  0  0  0  0  0  0  0  0  0
   39.2780   32.7700   49.8010 H   0  0  0  0  0  0  0  0  0  0  0  0
   38.0940   32.9410   47.6830 H   0  0  0  0  0  0  0  0  0  0  0  0
  1  4  1  0  0  0  0
  1  3  1  0  0  0  0
  1 15  1  0  0  0  0
  2  1  1  0  0  0  0
  4  6  1  0  0  0  0
  5  4  1  0  0  0  0
  7  4  1  0  0  0  0
  7 14  1  0  0  0  0
  8  7  2  0  0  0  0
  9  8  1  0  0  0  0
 10  8  1  0  0  0  0
 10 12  2  0  0  0  0
 11 10  1  0  0  0  0
 12 13  1  0  0  0  0
 13 14  2  0  0  0  0
 15 20  1  0  0  0  0
 16 22  1  0  0  0  0
 17 23  1  0  0  0  0
 17 16  2  0  0  0  0
 18 17  1  0  0  0  0
 19 18  2  0  0  0  0
 19 20  1  0  0  0  0
 20 21  2  0  0  0  0
 21 16  1  0  0  0  0
 24 18  1  0  0  0  0
M  END
>  <minimizedAffinity>
-3.55578256

>  <minimizedRMSD>
3.06068063

$$$$
