
 OpenBabel03272507553D

 22 23  0  0  0  0  0  0  0  0999 V2000
   36.3160   31.1980   49.7150 C   0  0  0  0  0  0  0  0  0  0  0  0
   37.1900   31.4760   48.6250 C   0  0  0  0  0  0  0  0  0  0  0  0
   36.8200   31.0310   47.3650 C   0  0  0  0  0  0  0  0  0  0  0  0
   35.6420   30.3480   47.2290 N   0  0  0  0  0  0  0  0  0  0  0  0
   34.8380   30.1070   48.3050 C   0  0  0  0  0  0  0  0  0  0  0  0
   35.1650   30.5220   49.5320 N   0  0  0  0  0  0  0  0  0  0  0  0
   33.6700   29.3850   47.9170 N   0  0  0  0  0  0  0  0  0  0  0  0
   36.5860   31.5390   50.7100 H   0  0  0  0  0  0  0  0  0  0  0  0
   32.8300   29.9310   47.6450 H   0  0  0  0  0  0  0  0  0  0  0  0
   33.9730   28.3820   48.0090 H   0  0  0  0  0  0  0  0  0  0  0  0
   37.6880   31.2970   46.2220 C   0  0  0  0  0  0  0  0  0  0  0  0
   38.4140   30.1730   45.8330 C   0  0  0  0  0  0  0  0  0  0  0  0
   38.3860   29.1810   46.2830 H   0  0  0  0  0  0  0  0  0  0  0  0
   39.2870   30.2610   44.7600 C   0  0  0  0  0  0  0  0  0  0  0  0
   39.9100   29.4790   44.3500 H   0  0  0  0  0  0  0  0  0  0  0  0
   39.4290   31.4580   44.0880 C   0  0  0  0  0  3  0  0  0  0  0  0
   38.6940   32.5570   44.4970 C   0  0  0  0  0  3  0  0  0  0  0  0
   37.8540   32.4470   45.5410 N   0  0  0  0  0  0  0  0  0  0  0  0
   38.4450   32.2240   48.8870 C   0  0  0  0  0  0  0  0  0  0  0  0
   39.4730   31.7930   48.0580 F   0  0  0  0  0  0  0  0  0  0  0  0
   38.2160   33.5530   48.6440 F   0  0  0  0  0  0  0  0  0  0  0  0
   38.8860   32.0940   50.1910 F   0  0  0  0  0  0  0  0  0  0  0  0
  1  8  1  0  0  0  0
  2 19  1  0  0  0  0
  2  1  2  0  0  0  0
  3  2  1  0  0  0  0
  4  3  2  0  0  0  0
  4  5  1  0  0  0  0
  5  6  2  0  0  0  0
  6  1  1  0  0  0  0
  7 10  1  0  0  0  0
  7  5  1  0  0  0  0
  9  7  1  0  0  0  0
 11  3  1  0  0  0  0
 12 11  1  0  0  0  0
 12 13  1  0  0  0  0
 14 12  2  0  0  0  0
 15 14  1  0  0  0  0
 16 17  2  0  0  0  0
 16 14  1  0  0  0  0
 17 18  1  0  0  0  0
 18 11  2  0  0  0  0
 19 22  1  0  0  0  0
 20 19  1  0  0  0  0
 21 19  1  0  0  0  0
M  END
>  <minimizedAffinity>
-5.35717583

>  <minimizedRMSD>
2.45241356

$$$$
