
     RDKit          3D

 24 25  0  0  0  0  0  0  0  0999 V2000
   35.6222   29.0076   50.1768 C   0  0  0  0  0  0  0  0  0  0  0  0
   36.2897   30.1524   49.6529 C   0  0  0  0  0  0  0  0  0  0  0  0
   36.0374   30.5083   48.3365 C   0  0  0  0  0  0  0  0  0  0  0  0
   35.1642   29.7475   47.6071 N   0  0  0  0  0  0  0  0  0  0  0  0
   34.5489   28.6588   48.1545 C   0  0  0  0  0  0  0  0  0  0  0  0
   34.7708   28.2900   49.4192 N   0  0  0  0  0  0  0  0  0  0  0  0
   33.6865   28.0303   47.2062 N   0  0  0  0  0  0  0  0  0  0  0  0
   37.2178   30.9052   50.5354 C   0  0  0  0  0  0  0  0  0  0  0  0
   38.5333   30.7904   50.0996 F   0  0  0  0  0  0  0  0  0  0  0  0
   36.8632   32.2283   50.5080 F   0  0  0  0  0  0  0  0  0  0  0  0
   37.1790   30.4742   51.8478 F   0  0  0  0  0  0  0  0  0  0  0  0
   35.8061   28.7126   51.2046 H   0  0  0  0  0  0  0  0  0  0  0  0
   32.6965   28.3413   47.1696 H   0  0  0  0  0  0  0  0  0  0  0  0
   34.3255   27.3408   46.7320 H   0  0  0  0  0  0  0  0  0  0  0  0
   36.6995   31.6751   47.7637 C   0  0  0  0  0  0  0  0  0  0  0  0
   37.7792   32.1042   48.5335 C   0  0  0  0  0  0  0  0  0  0  0  0
   38.1413   31.6657   49.4635 H   0  0  0  0  0  0  0  0  0  0  0  0
   38.5151   33.2048   48.1253 C   0  0  0  0  0  0  0  0  0  0  0  0
   39.3705   33.6471   48.6169 H   0  0  0  0  0  0  0  0  0  0  0  0
   38.1738   33.8655   46.9631 C   0  0  0  0  0  0  0  0  0  0  0  0
   37.0960   33.4159   46.2193 C   0  0  0  0  0  0  0  0  0  0  0  0
   36.3978   32.3453   46.6369 N   0  0  0  0  0  0  0  0  0  0  0  0
   38.6572   34.7319   46.5295 H   0  0  0  0  0  0  0  0  0  0  0  0
   36.6781   33.7955   45.2918 H   0  0  0  0  0  0  0  0  0  0  0  0
  2  1  2  0
  2  8  1  0
  3  2  1  0
  4  5  1  0
  4  3  2  0
  5  6  2  0
  6  1  1  0
  7  5  1  0
  8 11  1  0
  9  8  1  0
 10  8  1  0
  1 12  1  0
  7 13  1  0
  7 14  1  0
 15 16  2  0
 16 17  1  0
 16 18  1  0
 18 19  1  0
 18 20  2  0
 20 21  1  0
 21 22  2  0
 22 15  1  0
 20 23  1  0
 21 24  1  0
  3 15  1  0
M  ISO  3  12  14  17  15  19  16
M  END
>  <DihAtoms>  (1) 
1,2,14,15

>  <DihDeg>  (1) 
-134.7835887486954

$$$$
