
 OpenBabel03272507553D

 22 23  0  0  0  0  0  0  0  0999 V2000
   34.9240   28.8930   50.0970 C   0  0  0  0  0  0  0  0  0  0  0  0
   36.0520   29.6990   49.7700 C   0  0  0  0  0  0  0  0  0  0  0  0
   36.0410   30.3730   48.5590 C   0  0  0  0  0  0  0  0  0  0  0  0
   34.9560   30.2310   47.7370 N   0  0  0  0  0  0  0  0  0  0  0  0
   33.8990   29.4460   48.0940 C   0  0  0  0  0  0  0  0  0  0  0  0
   33.8780   28.7840   49.2550 N   0  0  0  0  0  0  0  0  0  0  0  0
   32.8910   29.4560   47.0840 N   0  0  0  0  0  0  0  0  0  0  0  0
   34.9120   28.3570   51.0410 H   0  0  0  0  0  0  0  0  0  0  0  0
   32.1440   30.1730   47.1520 H   0  0  0  0  0  0  0  0  0  0  0  0
   33.1790   28.6600   46.4590 H   0  0  0  0  0  0  0  0  0  0  0  0
   37.1770   31.2120   48.1890 C   0  0  0  0  0  0  0  0  0  0  0  0
   37.9010   30.6850   47.1210 C   0  0  0  0  0  0  0  0  0  0  0  0
   37.6980   29.7620   46.5790 H   0  0  0  0  0  0  0  0  0  0  0  0
   39.0130   31.3640   46.6490 C   0  0  0  0  0  0  0  0  0  0  0  0
   39.6650   31.0770   45.8350 H   0  0  0  0  0  0  0  0  0  0  0  0
   39.3940   32.5510   47.2380 C   0  0  0  0  0  3  0  0  0  0  0  0
   38.6550   33.0500   48.2980 C   0  0  0  0  0  3  0  0  0  0  0  0
   37.5790   32.3730   48.7370 N   0  0  0  0  0  0  0  0  0  0  0  0
   37.1760   29.7810   50.7370 C   0  0  0  0  0  0  0  0  0  0  0  0
   38.4030   29.6520   50.0970 F   0  0  0  0  0  0  0  0  0  0  0  0
   37.1310   31.0050   51.3510 F   0  0  0  0  0  0  0  0  0  0  0  0
   37.1160   28.8050   51.7140 F   0  0  0  0  0  0  0  0  0  0  0  0
  1  8  1  0  0  0  0
  2  1  1  0  0  0  0
  2 19  1  0  0  0  0
  3  2  2  0  0  0  0
  4  5  2  0  0  0  0
  4  3  1  0  0  0  0
  5  6  1  0  0  0  0
  6  1  2  0  0  0  0
  7  9  1  0  0  0  0
  7  5  1  0  0  0  0
 10  7  1  0  0  0  0
 11  3  1  0  0  0  0
 11 18  1  0  0  0  0
 12 11  2  0  0  0  0
 13 12  1  0  0  0  0
 14 12  1  0  0  0  0
 14 16  2  0  0  0  0
 15 14  1  0  0  0  0
 16 17  1  0  0  0  0
 17 18  2  0  0  0  0
 19 21  1  0  0  0  0
 19 22  1  0  0  0  0
 20 19  1  0  0  0  0
M  END
>  <minimizedAffinity>
-5.81939363

>  <minimizedRMSD>
1.47196233

$$$$
