REMARK  Name = 
REMARK  4 active torsions:
REMARK  status: ('A' for Active; 'I' for Inactive)
REMARK    1  A    between atoms: O_1  and  C_2
REMARK    2  A    between atoms: O_1  and  C_13
REMARK    3  A    between atoms: N_16  and  C_17
REMARK    4  A    between atoms: C_17  and  C_29
REMARK                            x       y       z     vdW  Elec       q    Type
REMARK                         _______ _______ _______ _____ _____    ______ ____
ROOT
ATOM      1  O   UNL     1      35.498  28.659  50.047  0.00  0.00    +0.000 OA
ATOM      2  C   UNL     1      35.269  29.041  48.892  0.00  0.00    +0.000 C 
ATOM      3  C   UNL     1      35.923  30.200  48.329  0.00  0.00    +0.000 C 
ATOM      4  C   UNL     1      35.451  30.128  46.844  0.00  0.00    +0.000 C 
ATOM      5  C   UNL     1      34.149  29.396  46.934  0.00  0.00    +0.000 C 
ATOM      6  N   UNL     1      34.357  28.410  47.985  0.00  0.00    +0.000 N 
ATOM      7  H   UNL     1      35.546  31.141  48.758  0.00  0.00    +0.000 HD
ATOM      8  H   UNL     1      35.291  31.180  46.552  0.00  0.00    +0.000 HD
ATOM      9  H   UNL     1      36.202  29.620  46.217  0.00  0.00    +0.000 HD
ATOM     10  H   UNL     1      34.039  28.808  45.980  0.00  0.00    +0.000 HD
ATOM     11  H   UNL     1      33.296  30.050  47.129  0.00  0.00    +0.000 HD
ENDROOT
BRANCH   6  12
ATOM     12  C   UNL     1      33.750  27.086  48.066  0.00  0.00    +0.000 C 
ATOM     13  H   UNL     1      33.526  26.769  47.034  0.00  0.00    +0.000 HD
ATOM     14  H   UNL     1      34.419  26.381  48.598  0.00  0.00    +0.000 HD
BRANCH  12  15
ATOM     15  C   UNL     1      32.482  27.287  48.817  0.00  0.00    +0.000 A 
ATOM     16  C   UNL     1      31.303  27.582  48.166  0.00  0.00    +0.000 A 
ATOM     17  H   UNL     1      31.362  27.658  47.072  0.00  0.00    +0.000 HD
ATOM     18  C   UNL     1      30.068  27.791  48.722  0.00  0.00    +0.000 A 
ATOM     19  H   UNL     1      29.206  28.017  48.115  0.00  0.00    +0.000 HD
ATOM     20  C   UNL     1      30.024  27.688  50.115  0.00  0.00    +0.000 A 
ATOM     21  C   UNL     1      31.192  27.393  50.792  0.00  0.00    +0.000 A 
ATOM     22  N   UNL     1      32.370  27.201  50.157  0.00  0.00    +0.000 NA
ENDBRANCH  12  15
ENDBRANCH   6  12
BRANCH   3  23
ATOM     23  O   UNL     1      37.345  30.116  48.290  0.00  0.00    +0.000 OA
BRANCH  23  24
ATOM     24  C   UNL     1      38.063  31.308  48.222  0.00  0.00    +0.000 A 
ATOM     25  C   UNL     1      38.213  32.020  49.398  0.00  0.00    +0.000 A 
ATOM     26  C   UNL     1      38.923  33.210  49.355  0.00  0.00    +0.000 A 
ATOM     27  N   UNL     1      39.438  33.623  48.169  0.00  0.00    +0.000 NA
ATOM     28  C   UNL     1      39.284  32.919  47.033  0.00  0.00    +0.000 A 
ATOM     29  N   UNL     1      38.606  31.789  47.089  0.00  0.00    +0.000 NA
ATOM     30  C   UNL     1      40.768  32.463  45.243  0.00  0.00    +0.000 C 
ATOM     31  O   UNL     1      41.138  31.342  45.703  0.00  0.00    +0.000 OA
ATOM     32  N   UNL     1      39.836  33.383  45.802  0.00  0.00    +0.000 N 
ATOM     33  H   UNL     1      37.813  31.714  50.356  0.00  0.00    +0.000 HD
ATOM     34  H   UNL     1      39.046  33.776  50.272  0.00  0.00    +0.000 HD
ATOM     35  H   UNL     1      41.333  32.553  44.322  0.00  0.00    +0.000 HD
ATOM     36  H   UNL     1      39.680  34.245  45.260  0.00  0.00    +0.000 HD
ENDBRANCH  23  24
ENDBRANCH   3  23
TORSDOF 4
