
 OpenBabel03272507553D

 22 23  0  0  0  0  0  0  0  0999 V2000
   34.9240   28.8930   50.0970 C   0  0  0  0  0  0  0  0  0  0  0  0
   36.0520   29.6990   49.7710 C   0  0  0  0  0  0  0  0  0  0  0  0
   36.0420   30.3730   48.5590 C   0  0  0  0  0  0  0  0  0  0  0  0
   34.9560   30.2310   47.7370 N   0  0  0  0  0  0  0  0  0  0  0  0
   33.8990   29.4450   48.0950 C   0  0  0  0  0  0  0  0  0  0  0  0
   33.8780   28.7840   49.2550 N   0  0  0  0  0  0  0  0  0  0  0  0
   32.8910   29.4550   47.0840 N   0  0  0  0  0  0  0  0  0  0  0  0
   34.9120   28.3570   51.0410 H   0  0  0  0  0  0  0  0  0  0  0  0
   32.1440   30.1730   47.1520 H   0  0  0  0  0  0  0  0  0  0  0  0
   33.1790   28.6590   46.4600 H   0  0  0  0  0  0  0  0  0  0  0  0
   37.1780   31.2110   48.1890 C   0  0  0  0  0  0  0  0  0  0  0  0
   37.9010   30.6850   47.1200 C   0  0  0  0  0  0  0  0  0  0  0  0
   37.6980   29.7610   46.5790 H   0  0  0  0  0  0  0  0  0  0  0  0
   39.0130   31.3630   46.6480 C   0  0  0  0  0  0  0  0  0  0  0  0
   39.6650   31.0780   45.8340 H   0  0  0  0  0  0  0  0  0  0  0  0
   39.3940   32.5510   47.2370 C   0  0  0  0  0  3  0  0  0  0  0  0
   38.6540   33.0500   48.2970 C   0  0  0  0  0  3  0  0  0  0  0  0
   37.5790   32.3730   48.7370 N   0  0  0  0  0  0  0  0  0  0  0  0
   37.1770   29.7810   50.7370 C   0  0  0  0  0  0  0  0  0  0  0  0
   38.4030   29.6510   50.0970 F   0  0  0  0  0  0  0  0  0  0  0  0
   37.1310   31.0050   51.3510 F   0  0  0  0  0  0  0  0  0  0  0  0
   37.1170   28.8050   51.7150 F   0  0  0  0  0  0  0  0  0  0  0  0
  1  8  1  0  0  0  0
  2  1  1  0  0  0  0
  2 19  1  0  0  0  0
  3  2  2  0  0  0  0
  4  5  2  0  0  0  0
  4  3  1  0  0  0  0
  5  6  1  0  0  0  0
  6  1  2  0  0  0  0
  7  9  1  0  0  0  0
  7  5  1  0  0  0  0
 10  7  1  0  0  0  0
 11  3  1  0  0  0  0
 11 18  1  0  0  0  0
 12 11  2  0  0  0  0
 13 12  1  0  0  0  0
 14 12  1  0  0  0  0
 14 16  2  0  0  0  0
 15 14  1  0  0  0  0
 16 17  1  0  0  0  0
 17 18  2  0  0  0  0
 19 21  1  0  0  0  0
 19 22  1  0  0  0  0
 20 19  1  0  0  0  0
M  END
>  <minimizedAffinity>
-5.81906605

>  <minimizedRMSD>
1.25069213

$$$$
