REMARK  Name = 
REMARK  2 active torsions:
REMARK  status: ('A' for Active; 'I' for Inactive)
REMARK    1  A    between atoms: C_2  and  C_8
REMARK    2  A    between atoms: C_3  and  C_15
REMARK                            x       y       z     vdW  Elec       q    Type
REMARK                         _______ _______ _______ _____ _____    ______ ____
ROOT
ATOM      1  C   UNL     1      35.622  29.008  50.177  0.00  0.00    +0.000 A 
ATOM      2  C   UNL     1      36.290  30.152  49.653  0.00  0.00    +0.000 A 
ATOM      3  C   UNL     1      36.037  30.508  48.337  0.00  0.00    +0.000 A 
ATOM      4  N   UNL     1      35.164  29.747  47.607  0.00  0.00    +0.000 NA
ATOM      5  C   UNL     1      34.549  28.659  48.154  0.00  0.00    +0.000 A 
ATOM      6  N   UNL     1      34.771  28.290  49.419  0.00  0.00    +0.000 NA
ATOM      7  N   UNL     1      33.687  28.030  47.206  0.00  0.00    +0.000 N 
ATOM      8  H   UNL     1      35.806  28.713  51.205  0.00  0.00    +0.000 HD
ATOM      9  H   UNL     1      32.697  28.341  47.170  0.00  0.00    +0.000 HD
ATOM     10  H   UNL     1      34.325  27.341  46.732  0.00  0.00    +0.000 HD
ENDROOT
BRANCH   3  11
ATOM     11  C   UNL     1      36.700  31.675  47.764  0.00  0.00    +0.000 A 
ATOM     12  C   UNL     1      37.779  32.104  48.533  0.00  0.00    +0.000 A 
ATOM     13  H   UNL     1      38.141  31.666  49.464  0.00  0.00    +0.000 HD
ATOM     14  C   UNL     1      38.515  33.205  48.125  0.00  0.00    +0.000 A 
ATOM     15  H   UNL     1      39.370  33.647  48.617  0.00  0.00    +0.000 HD
ATOM     16  C   UNL     1      38.174  33.865  46.963  0.00  0.00    +0.000 A 
ATOM     17  C   UNL     1      37.096  33.416  46.219  0.00  0.00    +0.000 A 
ATOM     18  N   UNL     1      36.398  32.345  46.637  0.00  0.00    +0.000 NA
ENDBRANCH   3  11
BRANCH   2  19
ATOM     19  C   UNL     1      37.218  30.905  50.535  0.00  0.00    +0.000 C 
ATOM     20  F   UNL     1      38.533  30.790  50.100  0.00  0.00    +0.000 F 
ATOM     21  F   UNL     1      36.863  32.228  50.508  0.00  0.00    +0.000 F 
ATOM     22  F   UNL     1      37.179  30.474  51.848  0.00  0.00    +0.000 F 
ENDBRANCH   2  19
TORSDOF 2
