
 OpenBabel03272509483D

 24 25  0  0  0  0  0  0  0  0999 V2000
   38.1820   22.7790   33.5960 C   0  0  0  0  0  0  0  0  0  0  0  0
   39.1770   22.3700   33.3250 H   0  0  0  0  0  0  0  0  0  0  0  0
   38.3440   23.8650   33.8020 H   0  0  0  0  0  0  0  0  0  0  0  0
   37.1840   22.6000   32.4740 C   0  0  0  0  0  0  0  0  0  0  0  0
   36.3050   22.0460   32.9090 H   0  0  0  0  0  0  0  0  0  0  0  0
   37.5760   22.0120   31.6420 H   0  0  0  0  0  0  0  0  0  0  0  0
   36.6630   23.9400   32.0950 C   0  0  0  0  0  0  0  0  0  0  0  0
   35.5630   23.9150   31.2530 C   0  0  0  0  0  0  0  0  0  0  0  0
   35.1010   23.0000   30.8850 H   0  0  0  0  0  0  0  0  0  0  0  0
   35.0420   25.1530   30.8750 C   0  0  0  0  0  0  0  0  0  0  0  0
   34.1700   25.1270   30.2070 H   0  0  0  0  0  0  0  0  0  0  0  0
   35.5750   26.3600   31.3010 C   0  0  0  0  0  3  0  0  0  0  0  0
   36.6840   26.3020   32.1480 C   0  0  0  0  0  3  0  0  0  0  0  0
   37.1950   25.1050   32.5210 N   0  0  0  0  0  0  0  0  0  0  0  0
   37.6820   22.2150   34.7830 O   0  0  0  0  0  0  0  0  0  0  0  0
   39.9990   22.6800   37.5370 C   0  0  0  0  0  0  0  0  0  0  0  0
   39.1350   23.2770   38.4650 C   0  0  0  0  0  0  0  0  0  0  0  0
   37.8100   23.4880   38.1040 C   0  0  0  0  0  0  0  0  0  0  0  0
   37.4480   23.0900   36.8460 N   0  0  0  0  0  0  0  0  0  0  0  0
   38.3000   22.5180   35.9710 C   0  0  0  0  0  0  0  0  0  0  0  0
   39.5740   22.3230   36.3410 N   0  0  0  0  0  0  0  0  0  0  0  0
   41.0100   22.5390   37.8660 H   0  0  0  0  0  0  0  0  0  0  0  0
   39.3920   23.6060   39.4770 H   0  0  0  0  0  0  0  0  0  0  0  0
   37.0870   23.9450   38.7750 H   0  0  0  0  0  0  0  0  0  0  0  0
  1  3  1  0  0  0  0
  1 15  1  0  0  0  0
  2  1  1  0  0  0  0
  4  5  1  0  0  0  0
  4  1  1  0  0  0  0
  6  4  1  0  0  0  0
  7  4  1  0  0  0  0
  7 14  1  0  0  0  0
  8  7  2  0  0  0  0
  9  8  1  0  0  0  0
 10  8  1  0  0  0  0
 10 12  2  0  0  0  0
 11 10  1  0  0  0  0
 12 13  1  0  0  0  0
 13 14  2  0  0  0  0
 15 20  1  0  0  0  0
 16 22  1  0  0  0  0
 16 17  1  0  0  0  0
 17 23  1  0  0  0  0
 18 17  2  0  0  0  0
 18 24  1  0  0  0  0
 19 18  1  0  0  0  0
 20 21  1  0  0  0  0
 20 19  2  0  0  0  0
 21 16  2  0  0  0  0
M  END
>  <minimizedAffinity>
-4.24799299

$$$$

 OpenBabel03272509483D

 24 25  0  0  0  0  0  0  0  0999 V2000
   38.1510   22.9840   33.6420 C   0  0  0  0  0  0  0  0  0  0  0  0
   37.1670   23.4000   33.9430 H   0  0  0  0  0  0  0  0  0  0  0  0
   37.9770   22.4620   32.6690 H   0  0  0  0  0  0  0  0  0  0  0  0
   39.1860   24.0740   33.4760 C   0  0  0  0  0  0  0  0  0  0  0  0
   39.2490   24.2940   32.3730 H   0  0  0  0  0  0  0  0  0  0  0  0
   40.1790   23.7780   33.8180 H   0  0  0  0  0  0  0  0  0  0  0  0
   38.6590   25.3170   34.1010 C   0  0  0  0  0  0  0  0  0  0  0  0
   39.5330   25.9360   34.9810 C   0  0  0  0  0  0  0  0  0  0  0  0
   40.5290   25.5600   35.2110 H   0  0  0  0  0  0  0  0  0  0  0  0
   39.0770   27.1060   35.5880 C   0  0  0  0  0  0  0  0  0  0  0  0
   39.7740   27.5920   36.2850 H   0  0  0  0  0  0  0  0  0  0  0  0
   37.8230   27.6450   35.3460 C   0  0  0  0  0  3  0  0  0  0  0  0
   37.0010   26.9630   34.4470 C   0  0  0  0  0  3  0  0  0  0  0  0
   37.4350   25.8270   33.8520 N   0  0  0  0  0  0  0  0  0  0  0  0
   38.6140   22.0100   34.5440 O   0  0  0  0  0  0  0  0  0  0  0  0
   40.0920   22.7300   37.7780 C   0  0  0  0  0  0  0  0  0  0  0  0
   38.9600   23.2210   38.4430 C   0  0  0  0  0  0  0  0  0  0  0  0
   37.7540   23.2800   37.7550 C   0  0  0  0  0  0  0  0  0  0  0  0
   37.7700   22.8460   36.4570 N   0  0  0  0  0  0  0  0  0  0  0  0
   38.8730   22.3780   35.8400 C   0  0  0  0  0  0  0  0  0  0  0  0
   40.0260   22.3300   36.5240 N   0  0  0  0  0  0  0  0  0  0  0  0
   40.9960   22.7060   38.3550 H   0  0  0  0  0  0  0  0  0  0  0  0
   38.9140   23.5750   39.4780 H   0  0  0  0  0  0  0  0  0  0  0  0
   36.8390   23.6490   38.2100 H   0  0  0  0  0  0  0  0  0  0  0  0
  1  2  1  0  0  0  0
  1 15  1  0  0  0  0
  3  1  1  0  0  0  0
  4  1  1  0  0  0  0
  4  6  1  0  0  0  0
  4  7  1  0  0  0  0
  5  4  1  0  0  0  0
  7  8  1  0  0  0  0
  8  9  1  0  0  0  0
  8 10  2  0  0  0  0
 10 11  1  0  0  0  0
 12 10  1  0  0  0  0
 13 12  2  0  0  0  0
 14  7  2  0  0  0  0
 14 13  1  0  0  0  0
 15 20  1  0  0  0  0
 16 22  1  0  0  0  0
 16 17  1  0  0  0  0
 17 23  1  0  0  0  0
 18 24  1  0  0  0  0
 18 17  2  0  0  0  0
 19 18  1  0  0  0  0
 20 19  2  0  0  0  0
 20 21  1  0  0  0  0
 21 16  2  0  0  0  0
M  END
>  <minimizedAffinity>
-4.20238781

$$$$

 OpenBabel03272509483D

 24 25  0  0  0  0  0  0  0  0999 V2000
   40.1870   25.2100   34.3750 C   0  0  0  0  0  0  0  0  0  0  0  0
   40.3800   25.2150   33.2820 H   0  0  0  0  0  0  0  0  0  0  0  0
   41.1020   24.7720   34.8440 H   0  0  0  0  0  0  0  0  0  0  0  0
   39.9430   26.6070   34.9020 C   0  0  0  0  0  0  0  0  0  0  0  0
   40.8030   27.2410   34.5440 H   0  0  0  0  0  0  0  0  0  0  0  0
   39.9170   26.6550   35.9910 H   0  0  0  0  0  0  0  0  0  0  0  0
   38.7360   27.1550   34.2270 C   0  0  0  0  0  0  0  0  0  0  0  0
   37.7360   27.5780   35.0880 C   0  0  0  0  0  0  0  0  0  0  0  0
   37.8060   27.5230   36.1730 H   0  0  0  0  0  0  0  0  0  0  0  0
   36.5860   28.1010   34.4950 C   0  0  0  0  0  0  0  0  0  0  0  0
   35.7970   28.4340   35.1820 H   0  0  0  0  0  0  0  0  0  0  0  0
   36.4230   28.2030   33.1220 C   0  0  0  0  0  3  0  0  0  0  0  0
   37.4760   27.7550   32.3220 C   0  0  0  0  0  3  0  0  0  0  0  0
   38.5950   27.2470   32.8880 N   0  0  0  0  0  0  0  0  0  0  0  0
   39.1150   24.3680   34.7210 O   0  0  0  0  0  0  0  0  0  0  0  0
   37.8750   24.0580   38.1170 C   0  0  0  0  0  0  0  0  0  0  0  0
   38.8780   23.2390   38.6530 C   0  0  0  0  0  0  0  0  0  0  0  0
   39.9230   22.8370   37.8300 C   0  0  0  0  0  0  0  0  0  0  0  0
   39.8880   23.2810   36.5360 N   0  0  0  0  0  0  0  0  0  0  0  0
   38.9100   24.0680   36.0450 C   0  0  0  0  0  0  0  0  0  0  0  0
   37.9120   24.4450   36.8570 N   0  0  0  0  0  0  0  0  0  0  0  0
   37.0920   24.3400   38.7940 H   0  0  0  0  0  0  0  0  0  0  0  0
   38.9360   22.8680   39.6810 H   0  0  0  0  0  0  0  0  0  0  0  0
   40.7330   22.2030   38.1820 H   0  0  0  0  0  0  0  0  0  0  0  0
  1 15  1  0  0  0  0
  1  3  1  0  0  0  0
  1  4  1  0  0  0  0
  2  1  1  0  0  0  0
  4  6  1  0  0  0  0
  5  4  1  0  0  0  0
  7  4  1  0  0  0  0
  7  8  1  0  0  0  0
  8  9  1  0  0  0  0
 10  8  2  0  0  0  0
 10 11  1  0  0  0  0
 12 10  1  0  0  0  0
 13 14  1  0  0  0  0
 13 12  2  0  0  0  0
 14  7  2  0  0  0  0
 15 20  1  0  0  0  0
 16 17  1  0  0  0  0
 16 22  1  0  0  0  0
 17 23  1  0  0  0  0
 18 24  1  0  0  0  0
 18 17  2  0  0  0  0
 19 18  1  0  0  0  0
 20 19  2  0  0  0  0
 20 21  1  0  0  0  0
 21 16  2  0  0  0  0
M  END
>  <minimizedAffinity>
-4.1962924

$$$$

 OpenBabel03272509483D

 24 25  0  0  0  0  0  0  0  0999 V2000
   35.7680   29.1750   33.0320 C   0  0  0  0  0  0  0  0  0  0  0  0
   35.8510   29.5580   31.9940 H   0  0  0  0  0  0  0  0  0  0  0  0
   36.5130   29.7550   33.6310 H   0  0  0  0  0  0  0  0  0  0  0  0
   34.3760   29.3740   33.5880 C   0  0  0  0  0  0  0  0  0  0  0  0
   34.0540   28.3830   34.0150 H   0  0  0  0  0  0  0  0  0  0  0  0
   33.6490   29.6670   32.8290 H   0  0  0  0  0  0  0  0  0  0  0  0
   34.4660   30.2990   34.7500 C   0  0  0  0  0  0  0  0  0  0  0  0
   35.7240   30.8430   34.9580 C   0  0  0  0  0  0  0  0  0  0  0  0
   36.5900   30.6250   34.3360 H   0  0  0  0  0  0  0  0  0  0  0  0
   35.8510   31.7170   36.0380 C   0  0  0  0  0  0  0  0  0  0  0  0
   36.8500   32.1450   36.1990 H   0  0  0  0  0  0  0  0  0  0  0  0
   34.7960   32.0420   36.8760 C   0  0  0  0  0  3  0  0  0  0  0  0
   33.5600   31.4530   36.6000 C   0  0  0  0  0  3  0  0  0  0  0  0
   33.4270   30.6050   35.5550 N   0  0  0  0  0  0  0  0  0  0  0  0
   36.1400   27.8230   33.1300 O   0  0  0  0  0  0  0  0  0  0  0  0
   39.5990   26.9240   33.7570 C   0  0  0  0  0  0  0  0  0  0  0  0
   39.5890   26.9400   35.1590 C   0  0  0  0  0  0  0  0  0  0  0  0
   38.4050   27.2550   35.8150 C   0  0  0  0  0  0  0  0  0  0  0  0
   37.3230   27.5310   35.0240 N   0  0  0  0  0  0  0  0  0  0  0  0
   37.3590   27.5090   33.6760 C   0  0  0  0  0  0  0  0  0  0  0  0
   38.5120   27.2010   33.0640 N   0  0  0  0  0  0  0  0  0  0  0  0
   40.5370   26.6740   33.3010 H   0  0  0  0  0  0  0  0  0  0  0  0
   40.4350   26.7250   35.8190 H   0  0  0  0  0  0  0  0  0  0  0  0
   38.3280   27.2850   36.8980 H   0  0  0  0  0  0  0  0  0  0  0  0
  1 15  1  0  0  0  0
  1  4  1  0  0  0  0
  1  3  1  0  0  0  0
  2  1  1  0  0  0  0
  4  5  1  0  0  0  0
  4  7  1  0  0  0  0
  6  4  1  0  0  0  0
  7  8  2  0  0  0  0
  7 14  1  0  0  0  0
  8 10  1  0  0  0  0
  9  8  1  0  0  0  0
 10 11  1  0  0  0  0
 10 12  2  0  0  0  0
 13 12  1  0  0  0  0
 14 13  2  0  0  0  0
 15 20  1  0  0  0  0
 16 17  1  0  0  0  0
 17 18  2  0  0  0  0
 17 23  1  0  0  0  0
 18 24  1  0  0  0  0
 19 18  1  0  0  0  0
 20 19  2  0  0  0  0
 21 20  1  0  0  0  0
 21 16  2  0  0  0  0
 22 16  1  0  0  0  0
M  END
>  <minimizedAffinity>
-4.1055913

$$$$

 OpenBabel03272509483D

 24 25  0  0  0  0  0  0  0  0999 V2000
   38.2620   22.7760   33.6800 C   0  0  0  0  0  0  0  0  0  0  0  0
   38.2770   21.7610   34.1290 H   0  0  0  0  0  0  0  0  0  0  0  0
   39.2910   22.9490   33.2820 H   0  0  0  0  0  0  0  0  0  0  0  0
   37.2430   22.8740   32.5660 C   0  0  0  0  0  0  0  0  0  0  0  0
   37.8230   23.0330   31.6130 H   0  0  0  0  0  0  0  0  0  0  0  0
   36.5560   23.7120   32.6870 H   0  0  0  0  0  0  0  0  0  0  0  0
   36.5860   21.5480   32.4170 C   0  0  0  0  0  0  0  0  0  0  0  0
   36.1070   21.0060   33.5980 C   0  0  0  0  0  0  0  0  0  0  0  0
   36.1940   21.4920   34.5680 H   0  0  0  0  0  0  0  0  0  0  0  0
   35.4820   19.7620   33.5020 C   0  0  0  0  0  0  0  0  0  0  0  0
   35.1040   19.3360   34.4410 H   0  0  0  0  0  0  0  0  0  0  0  0
   35.3340   19.0810   32.3030 C   0  0  0  0  0  3  0  0  0  0  0  0
   35.8440   19.6940   31.1560 C   0  0  0  0  0  3  0  0  0  0  0  0
   36.4510   20.9000   31.2410 N   0  0  0  0  0  0  0  0  0  0  0  0
   38.0280   23.7770   34.6400 O   0  0  0  0  0  0  0  0  0  0  0  0
   39.7500   22.7660   37.6690 C   0  0  0  0  0  0  0  0  0  0  0  0
   38.9380   23.4050   38.6170 C   0  0  0  0  0  0  0  0  0  0  0  0
   37.8490   24.1450   38.1750 C   0  0  0  0  0  0  0  0  0  0  0  0
   37.6520   24.1920   36.8210 N   0  0  0  0  0  0  0  0  0  0  0  0
   38.4480   23.5680   35.9300 C   0  0  0  0  0  0  0  0  0  0  0  0
   39.4930   22.8590   36.3790 N   0  0  0  0  0  0  0  0  0  0  0  0
   40.5760   22.2070   38.0640 H   0  0  0  0  0  0  0  0  0  0  0  0
   39.0680   23.3870   39.7040 H   0  0  0  0  0  0  0  0  0  0  0  0
   37.1800   24.6640   38.8550 H   0  0  0  0  0  0  0  0  0  0  0  0
  1  2  1  0  0  0  0
  1 15  1  0  0  0  0
  3  1  1  0  0  0  0
  4  6  1  0  0  0  0
  4  1  1  0  0  0  0
  5  4  1  0  0  0  0
  7  4  1  0  0  0  0
  7  8  1  0  0  0  0
  8  9  1  0  0  0  0
 10  8  2  0  0  0  0
 10 11  1  0  0  0  0
 12 10  1  0  0  0  0
 13 14  1  0  0  0  0
 13 12  2  0  0  0  0
 14  7  2  0  0  0  0
 15 20  1  0  0  0  0
 16 22  1  0  0  0  0
 16 17  1  0  0  0  0
 17 23  1  0  0  0  0
 18 17  2  0  0  0  0
 18 24  1  0  0  0  0
 19 18  1  0  0  0  0
 20 21  1  0  0  0  0
 20 19  2  0  0  0  0
 21 16  2  0  0  0  0
M  END
>  <minimizedAffinity>
-4.09866905

$$$$

 OpenBabel03272509483D

 24 25  0  0  0  0  0  0  0  0999 V2000
   38.9990   23.4240   33.5760 C   0  0  0  0  0  0  0  0  0  0  0  0
   40.0220   23.4900   33.1510 H   0  0  0  0  0  0  0  0  0  0  0  0
   38.9680   22.4640   34.1470 H   0  0  0  0  0  0  0  0  0  0  0  0
   38.7020   24.5910   34.4910 C   0  0  0  0  0  0  0  0  0  0  0  0
   37.6150   24.8490   34.3430 H   0  0  0  0  0  0  0  0  0  0  0  0
   39.2930   25.4780   34.2600 H   0  0  0  0  0  0  0  0  0  0  0  0
   38.8120   24.1200   35.8970 C   0  0  0  0  0  0  0  0  0  0  0  0
   37.9120   24.7050   36.7740 C   0  0  0  0  0  0  0  0  0  0  0  0
   37.1770   25.4510   36.4800 H   0  0  0  0  0  0  0  0  0  0  0  0
   37.9820   24.2890   38.1040 C   0  0  0  0  0  0  0  0  0  0  0  0
   37.2660   24.7560   38.7950 H   0  0  0  0  0  0  0  0  0  0  0  0
   38.8910   23.3450   38.5550 C   0  0  0  0  0  3  0  0  0  0  0  0
   39.7640   22.8010   37.6100 C   0  0  0  0  0  3  0  0  0  0  0  0
   39.7040   23.1980   36.3180 N   0  0  0  0  0  0  0  0  0  0  0  0
   38.0150   23.3290   32.5770 O   0  0  0  0  0  0  0  0  0  0  0  0
   35.7940   20.6670   33.6500 C   0  0  0  0  0  0  0  0  0  0  0  0
   35.0370   20.5160   32.4800 C   0  0  0  0  0  0  0  0  0  0  0  0
   35.3230   21.3270   31.3890 C   0  0  0  0  0  0  0  0  0  0  0  0
   36.3420   22.2270   31.5470 N   0  0  0  0  0  0  0  0  0  0  0  0
   37.0550   22.3540   32.6840 C   0  0  0  0  0  0  0  0  0  0  0  0
   36.7620   21.5600   33.7240 N   0  0  0  0  0  0  0  0  0  0  0  0
   35.5330   20.0170   34.4610 H   0  0  0  0  0  0  0  0  0  0  0  0
   34.2180   19.8070   32.3210 H   0  0  0  0  0  0  0  0  0  0  0  0
   34.7760   21.2620   30.4520 H   0  0  0  0  0  0  0  0  0  0  0  0
  1  3  1  0  0  0  0
  1  4  1  0  0  0  0
  2  1  1  0  0  0  0
  4  7  1  0  0  0  0
  5  4  1  0  0  0  0
  6  4  1  0  0  0  0
  7 14  2  0  0  0  0
  7  8  1  0  0  0  0
  8 10  2  0  0  0  0
  9  8  1  0  0  0  0
 10 12  1  0  0  0  0
 10 11  1  0  0  0  0
 13 12  2  0  0  0  0
 14 13  1  0  0  0  0
 15 20  1  0  0  0  0
 15  1  1  0  0  0  0
 16 21  1  0  0  0  0
 16 22  1  0  0  0  0
 17 16  2  0  0  0  0
 18 19  2  0  0  0  0
 18 17  1  0  0  0  0
 19 20  1  0  0  0  0
 20 21  2  0  0  0  0
 23 17  1  0  0  0  0
 24 18  1  0  0  0  0
M  END
>  <minimizedAffinity>
-4.06383991

$$$$

 OpenBabel03272509483D

 24 25  0  0  0  0  0  0  0  0999 V2000
   36.4750   27.2070   31.2090 C   0  0  0  0  0  0  0  0  0  0  0  0
   36.4570   27.9460   30.3810 H   0  0  0  0  0  0  0  0  0  0  0  0
   37.4880   26.7360   31.1750 H   0  0  0  0  0  0  0  0  0  0  0  0
   36.2470   27.8690   32.5490 C   0  0  0  0  0  0  0  0  0  0  0  0
   35.3600   27.3540   33.0170 H   0  0  0  0  0  0  0  0  0  0  0  0
   36.0150   28.9320   32.4680 H   0  0  0  0  0  0  0  0  0  0  0  0
   37.4030   27.5500   33.4290 C   0  0  0  0  0  0  0  0  0  0  0  0
   37.1480   27.6760   34.7850 C   0  0  0  0  0  0  0  0  0  0  0  0
   36.1880   27.9820   35.1960 H   0  0  0  0  0  0  0  0  0  0  0  0
   38.2070   27.3850   35.6460 C   0  0  0  0  0  0  0  0  0  0  0  0
   38.0000   27.4870   36.7200 H   0  0  0  0  0  0  0  0  0  0  0  0
   39.4580   26.9900   35.1980 C   0  0  0  0  0  3  0  0  0  0  0  0
   39.6360   26.8860   33.8170 C   0  0  0  0  0  3  0  0  0  0  0  0
   38.6140   27.1660   32.9750 N   0  0  0  0  0  0  0  0  0  0  0  0
   35.5440   26.1710   31.0150 O   0  0  0  0  0  0  0  0  0  0  0  0
   35.8890   22.5880   31.4730 C   0  0  0  0  0  0  0  0  0  0  0  0
   37.2290   22.4360   31.0920 C   0  0  0  0  0  0  0  0  0  0  0  0
   37.9430   23.5610   30.6990 C   0  0  0  0  0  0  0  0  0  0  0  0
   37.2670   24.7510   30.7170 N   0  0  0  0  0  0  0  0  0  0  0  0
   35.9770   24.8700   31.0880 C   0  0  0  0  0  0  0  0  0  0  0  0
   35.3070   23.7710   31.4640 N   0  0  0  0  0  0  0  0  0  0  0  0
   35.3840   21.6880   31.7680 H   0  0  0  0  0  0  0  0  0  0  0  0
   37.7980   21.5010   31.0670 H   0  0  0  0  0  0  0  0  0  0  0  0
   38.9840   23.5150   30.3920 H   0  0  0  0  0  0  0  0  0  0  0  0
  1  4  1  0  0  0  0
  2  1  1  0  0  0  0
  3  1  1  0  0  0  0
  4  5  1  0  0  0  0
  4  7  1  0  0  0  0
  6  4  1  0  0  0  0
  7  8  1  0  0  0  0
  8  9  1  0  0  0  0
  8 10  2  0  0  0  0
 10 11  1  0  0  0  0
 12 10  1  0  0  0  0
 13 12  2  0  0  0  0
 14  7  2  0  0  0  0
 14 13  1  0  0  0  0
 15 20  1  0  0  0  0
 15  1  1  0  0  0  0
 16 22  1  0  0  0  0
 17 16  2  0  0  0  0
 18 19  2  0  0  0  0
 18 17  1  0  0  0  0
 19 20  1  0  0  0  0
 20 21  2  0  0  0  0
 21 16  1  0  0  0  0
 23 17  1  0  0  0  0
 24 18  1  0  0  0  0
M  END
>  <minimizedAffinity>
-4.0464797

$$$$

 OpenBabel03272509483D

 24 25  0  0  0  0  0  0  0  0999 V2000
   38.7930   25.1340   33.9140 C   0  0  0  0  0  0  0  0  0  0  0  0
   38.0830   25.5310   34.6680 H   0  0  0  0  0  0  0  0  0  0  0  0
   39.1580   26.0220   33.3420 H   0  0  0  0  0  0  0  0  0  0  0  0
   39.9530   24.4160   34.5670 C   0  0  0  0  0  0  0  0  0  0  0  0
   40.7700   25.1790   34.7020 H   0  0  0  0  0  0  0  0  0  0  0  0
   40.3490   23.6010   33.9600 H   0  0  0  0  0  0  0  0  0  0  0  0
   39.5430   24.0230   35.9420 C   0  0  0  0  0  0  0  0  0  0  0  0
   38.4340   24.6980   36.4280 C   0  0  0  0  0  0  0  0  0  0  0  0
   37.8920   25.4580   35.8680 H   0  0  0  0  0  0  0  0  0  0  0  0
   38.0160   24.3580   37.7150 C   0  0  0  0  0  0  0  0  0  0  0  0
   37.1370   24.8960   38.0960 H   0  0  0  0  0  0  0  0  0  0  0  0
   38.6550   23.4020   38.4900 C   0  0  0  0  0  3  0  0  0  0  0  0
   39.7640   22.7660   37.9290 C   0  0  0  0  0  3  0  0  0  0  0  0
   40.1770   23.0890   36.6820 N   0  0  0  0  0  0  0  0  0  0  0  0
   38.1620   24.2890   32.9840 O   0  0  0  0  0  0  0  0  0  0  0  0
   35.6590   26.3210   31.3170 C   0  0  0  0  0  0  0  0  0  0  0  0
   34.8520   25.3020   30.7900 C   0  0  0  0  0  0  0  0  0  0  0  0
   35.2030   23.9800   31.0300 C   0  0  0  0  0  0  0  0  0  0  0  0
   36.3310   23.7730   31.7770 N   0  0  0  0  0  0  0  0  0  0  0  0
   37.0910   24.7700   32.2730 C   0  0  0  0  0  0  0  0  0  0  0  0
   36.7330   26.0390   32.0290 N   0  0  0  0  0  0  0  0  0  0  0  0
   35.3430   27.3230   31.1030 H   0  0  0  0  0  0  0  0  0  0  0  0
   33.9460   25.4340   30.1910 H   0  0  0  0  0  0  0  0  0  0  0  0
   34.6230   23.1430   30.6520 H   0  0  0  0  0  0  0  0  0  0  0  0
  1  4  1  0  0  0  0
  1  2  1  0  0  0  0
  3  1  1  0  0  0  0
  4  5  1  0  0  0  0
  4  7  1  0  0  0  0
  6  4  1  0  0  0  0
  7  8  2  0  0  0  0
  7 14  1  0  0  0  0
  8 10  1  0  0  0  0
  9  8  1  0  0  0  0
 10 11  1  0  0  0  0
 10 12  2  0  0  0  0
 13 12  1  0  0  0  0
 14 13  2  0  0  0  0
 15  1  1  0  0  0  0
 16 21  1  0  0  0  0
 17 18  1  0  0  0  0
 17 16  2  0  0  0  0
 18 19  2  0  0  0  0
 19 20  1  0  0  0  0
 20 15  1  0  0  0  0
 21 20  2  0  0  0  0
 22 16  1  0  0  0  0
 23 17  1  0  0  0  0
 24 18  1  0  0  0  0
M  END
>  <minimizedAffinity>
-4.03332853

$$$$

 OpenBabel03272509483D

 24 25  0  0  0  0  0  0  0  0999 V2000
   38.3650   22.2230   35.2220 C   0  0  0  0  0  0  0  0  0  0  0  0
   38.6450   22.6920   34.2550 H   0  0  0  0  0  0  0  0  0  0  0  0
   39.1720   21.4820   35.4460 H   0  0  0  0  0  0  0  0  0  0  0  0
   38.2710   23.2490   36.3290 C   0  0  0  0  0  0  0  0  0  0  0  0
   38.9670   22.9060   37.1460 H   0  0  0  0  0  0  0  0  0  0  0  0
   37.2690   23.3320   36.7520 H   0  0  0  0  0  0  0  0  0  0  0  0
   38.8420   24.5280   35.8290 C   0  0  0  0  0  0  0  0  0  0  0  0
   38.1590   25.6630   36.2360 C   0  0  0  0  0  0  0  0  0  0  0  0
   37.2730   25.6440   36.8690 H   0  0  0  0  0  0  0  0  0  0  0  0
   38.6630   26.8850   35.7890 C   0  0  0  0  0  0  0  0  0  0  0  0
   38.1180   27.7810   36.1140 H   0  0  0  0  0  0  0  0  0  0  0  0
   39.7850   26.9900   34.9810 C   0  0  0  0  0  3  0  0  0  0  0  0
   40.4180   25.8000   34.6140 C   0  0  0  0  0  3  0  0  0  0  0  0
   39.9360   24.6110   35.0430 N   0  0  0  0  0  0  0  0  0  0  0  0
   37.1660   21.4950   35.1320 O   0  0  0  0  0  0  0  0  0  0  0  0
   35.0150   20.6740   32.3260 C   0  0  0  0  0  0  0  0  0  0  0  0
   35.6260   21.4550   31.3350 C   0  0  0  0  0  0  0  0  0  0  0  0
   36.7360   22.2190   31.6740 C   0  0  0  0  0  0  0  0  0  0  0  0
   37.1530   22.1460   32.9750 N   0  0  0  0  0  0  0  0  0  0  0  0
   36.5480   21.3870   33.9110 C   0  0  0  0  0  0  0  0  0  0  0  0
   35.4780   20.6570   33.5610 N   0  0  0  0  0  0  0  0  0  0  0  0
   34.1630   20.1040   32.0120 H   0  0  0  0  0  0  0  0  0  0  0  0
   35.3180   21.5350   30.2870 H   0  0  0  0  0  0  0  0  0  0  0  0
   37.2560   22.8450   30.9550 H   0  0  0  0  0  0  0  0  0  0  0  0
  1  3  1  0  0  0  0
  1  4  1  0  0  0  0
  2  1  1  0  0  0  0
  4  6  1  0  0  0  0
  4  5  1  0  0  0  0
  7  8  1  0  0  0  0
  7  4  1  0  0  0  0
  8  9  1  0  0  0  0
 10 11  1  0  0  0  0
 10  8  2  0  0  0  0
 12 10  1  0  0  0  0
 13 12  2  0  0  0  0
 13 14  1  0  0  0  0
 14  7  2  0  0  0  0
 15  1  1  0  0  0  0
 16 21  1  0  0  0  0
 17 18  1  0  0  0  0
 17 16  2  0  0  0  0
 18 19  2  0  0  0  0
 19 20  1  0  0  0  0
 20 15  1  0  0  0  0
 21 20  2  0  0  0  0
 22 16  1  0  0  0  0
 23 17  1  0  0  0  0
 24 18  1  0  0  0  0
M  END
>  <minimizedAffinity>
-4.01993561

$$$$
