
     RDKit          3D

 38 40  0  0  0  0  0  0  0  0999 V2000
   37.3454   30.1160   48.2898 O   0  0  0  0  0  0  0  0  0  0  0  0
   38.0634   31.3085   48.2224 C   0  0  0  0  0  0  0  0  0  0  0  0
   38.2127   32.0199   49.3977 C   0  0  0  0  0  0  0  0  0  0  0  0
   38.9229   33.2098   49.3551 C   0  0  0  0  0  0  0  0  0  0  0  0
   39.4381   33.6232   48.1685 N   0  0  0  0  0  0  0  0  0  0  0  0
   39.2841   32.9195   47.0332 C   0  0  0  0  0  0  0  0  0  0  0  0
   38.6063   31.7894   47.0893 N   0  0  0  0  0  0  0  0  0  0  0  0
   40.7684   32.4628   45.2431 C   0  0  0  0  0  0  0  0  0  0  0  0
   41.1378   31.3417   45.7025 O   0  0  0  0  0  0  0  0  0  0  0  0
   39.8364   33.3826   45.8018 N   0  0  0  0  0  0  0  0  0  0  0  0
   35.4980   28.6586   50.0468 O   0  0  0  0  0  0  0  0  0  0  0  0
   35.2690   29.0408   48.8923 C   0  0  0  0  0  0  0  0  0  0  0  0
   35.9235   30.1998   48.3294 C   0  0  2  0  0  0  0  0  0  0  0  0
   35.4509   30.1282   46.8439 C   0  0  0  0  0  0  0  0  0  0  0  0
   34.1493   29.3962   46.9341 C   0  0  0  0  0  0  0  0  0  0  0  0
   34.3567   28.4097   47.9852 N   0  0  0  0  0  0  0  0  0  0  0  0
   33.7501   27.0862   48.0659 C   0  0  0  0  0  0  0  0  0  0  0  0
   37.8128   31.7136   50.3557 H   0  0  0  0  0  0  0  0  0  0  0  0
   39.0459   33.7757   50.2718 H   0  0  0  0  0  0  0  0  0  0  0  0
   41.3329   32.5532   44.3223 H   0  0  0  0  0  0  0  0  0  0  0  0
   39.6798   34.2453   45.2602 H   0  0  0  0  0  0  0  0  0  0  0  0
   35.5457   31.1407   48.7578 H   0  0  0  0  0  0  0  0  0  0  0  0
   35.2911   31.1796   46.5521 H   0  0  0  0  0  0  0  0  0  0  0  0
   36.2015   29.6204   46.2170 H   0  0  0  0  0  0  0  0  0  0  0  0
   34.0390   28.8082   45.9804 H   0  0  0  0  0  0  0  0  0  0  0  0
   33.2957   30.0498   47.1285 H   0  0  0  0  0  0  0  0  0  0  0  0
   33.5265   26.7694   47.0341 H   0  0  0  0  0  0  0  0  0  0  0  0
   34.4191   26.3811   48.5980 H   0  0  0  0  0  0  0  0  0  0  0  0
   32.4820   27.2866   48.8168 C   0  0  0  0  0  0  0  0  0  0  0  0
   31.2616   27.2774   48.1770 C   0  0  0  0  0  0  0  0  0  0  0  0
   31.2873   27.1145   47.0905 H   0  0  0  0  0  0  0  0  0  0  0  0
   30.0206   27.4471   48.7340 C   0  0  0  0  0  0  0  0  0  0  0  0
   29.1245   27.4213   48.1355 H   0  0  0  0  0  0  0  0  0  0  0  0
   30.0188   27.6522   50.1158 C   0  0  0  0  0  0  0  0  0  0  0  0
   31.2293   27.6661   50.7830 C   0  0  0  0  0  0  0  0  0  0  0  0
   32.4095   27.4889   50.1469 N   0  0  0  0  0  0  0  0  0  0  0  0
   29.0592   27.7937   50.6164 H   0  0  0  0  0  0  0  0  0  0  0  0
   31.2545   27.8231   51.8542 H   0  0  0  0  0  0  0  0  0  0  0  0
  2  1  1  0
  2  3  2  0
  4  3  1  0
  5  4  2  0
  6  7  2  0
  6  5  1  0
  7  2  1  0
  8  9  2  0
  8 10  1  0
 10  6  1  0
 12 11  2  0
 13  1  1  0
 13 12  1  0
 14 15  1  0
 14 13  1  0
 15 16  1  0
 16 17  1  0
 16 12  1  0
  3 18  1  0
  4 19  1  0
  8 20  1  0
 10 21  1  0
 13 22  1  1
 14 23  1  0
 14 24  1  0
 15 25  1  0
 15 26  1  0
 17 27  1  0
 17 28  1  0
 29 30  2  0
 30 31  1  0
 30 32  1  0
 32 33  1  0
 32 34  2  0
 34 35  1  0
 35 36  2  0
 36 29  1  0
 34 37  1  0
 35 38  1  0
 17 29  1  0
M  ISO  8  18  14  19  14  20   6  22  13  23  13  24  13  25  13  26  13
M  ISO  4  27   8  28   8  31  15  33  16
M  END
>  <DihAtoms>  (1) 
15,16,28,29

>  <DihDeg>  (1) 
89.99952951719015

$$$$
