REMARK  Name = 
REMARK  3 active torsions:
REMARK  status: ('A' for Active; 'I' for Inactive)
REMARK    1  A    between atoms: C_3  and  C_7
REMARK    2  A    between atoms: C_7  and  C_8
REMARK    3  A    between atoms: C_8  and  C_16
REMARK                            x       y       z     vdW  Elec       q    Type
REMARK                         _______ _______ _______ _____ _____    ______ ____
ROOT
ATOM      1  C   UNL     1      38.361  31.226  47.887  0.00  0.00    +0.000 C 
ATOM      2  H   UNL     1      39.278  30.596  47.707  0.00  0.00    +0.000 HD
ATOM      3  H   UNL     1      37.687  31.147  47.017  0.00  0.00    +0.000 HD
ENDROOT
BRANCH   1   6
ATOM      4  C   UNL     1      37.380  30.233  51.395  0.00  0.00    +0.000 A 
ATOM      5  C   UNL     1      38.085  30.909  50.373  0.00  0.00    +0.000 A 
ATOM      6  C   UNL     1      37.722  30.608  49.072  0.00  0.00    +0.000 A 
ATOM      7  N   UNL     1      36.732  29.701  48.862  0.00  0.00    +0.000 NA
ATOM      8  C   UNL     1      36.080  29.074  49.852  0.00  0.00    +0.000 A 
ATOM      9  N   UNL     1      36.408  29.343  51.136  0.00  0.00    +0.000 NA
ATOM     10  H   UNL     1      37.666  30.469  52.427  0.00  0.00    +0.000 HD
ATOM     11  H   UNL     1      38.865  31.622  50.581  0.00  0.00    +0.000 HD
ATOM     12  H   UNL     1      35.319  28.381  49.527  0.00  0.00    +0.000 HD
ENDBRANCH   1   6
BRANCH   1  13
ATOM     13  C   UNL     1      38.757  32.657  48.185  0.00  0.00    +0.000 C 
ATOM     14  H   UNL     1      37.944  33.254  48.591  0.00  0.00    +0.000 HD
ATOM     15  H   UNL     1      39.564  32.619  48.973  0.00  0.00    +0.000 HD
BRANCH  13  16
ATOM     16  C   UNL     1      39.401  33.289  46.976  0.00  0.00    +0.000 A 
ATOM     17  C   UNL     1      40.558  32.729  46.453  0.00  0.00    +0.000 A 
ATOM     18  H   UNL     1      40.943  31.846  46.956  0.00  0.00    +0.000 HD
ATOM     19  C   UNL     1      41.130  33.328  45.341  0.00  0.00    +0.000 A 
ATOM     20  H   UNL     1      42.042  32.835  44.980  0.00  0.00    +0.000 HD
ATOM     21  C   UNL     1      40.553  34.459  44.774  0.00  0.00    +0.000 A 
ATOM     22  C   UNL     1      39.407  34.974  45.331  0.00  0.00    +0.000 A 
ATOM     23  N   UNL     1      38.841  34.399  46.413  0.00  0.00    +0.000 NA
ENDBRANCH  13  16
ENDBRANCH   1  13
TORSDOF 3
