
     RDKit          3D

 33 35  0  0  0  0  0  0  0  0999 V2000
   35.1688   28.6701   50.0232 C   0  0  0  0  0  0  0  0  0  0  0  0
   36.2403   29.5970   49.8554 C   0  0  0  0  0  0  0  0  0  0  0  0
   36.1540   30.5071   48.7999 C   0  0  0  0  0  0  0  0  0  0  0  0
   35.0604   30.4619   47.9933 N   0  0  0  0  0  0  0  0  0  0  0  0
   34.0613   29.5544   48.1967 C   0  0  0  0  0  0  0  0  0  0  0  0
   34.1118   28.6685   49.1979 N   0  0  0  0  0  0  0  0  0  0  0  0
   33.0278   29.7009   47.2292 N   0  0  0  0  0  0  0  0  0  0  0  0
   37.2229   31.4648   48.5966 C   0  0  0  0  0  0  0  0  0  0  0  0
   37.1947   32.5058   49.5133 C   0  0  0  0  0  0  0  0  0  0  0  0
   38.1604   33.5008   49.4407 C   0  0  0  0  0  0  0  0  0  0  0  0
   39.1401   33.4594   48.4689 C   0  0  0  0  0  0  0  0  0  0  0  0
   39.1316   32.4106   47.5806 C   0  0  0  0  0  0  0  0  0  0  0  0
   38.1906   31.4673   47.6738 N   0  0  0  0  0  0  0  0  0  0  0  0
   37.3788   29.5470   50.8003 C   0  0  0  0  0  0  0  0  0  0  0  0
   38.5811   29.8075   50.1503 F   0  0  0  0  0  0  0  0  0  0  0  0
   37.2003   30.5008   51.7613 F   0  0  0  0  0  0  0  0  0  0  0  0
   37.5043   28.3272   51.4325 F   0  0  0  0  0  0  0  0  0  0  0  0
   35.2188   27.9543   50.8393 H   0  0  0  0  0  0  0  0  0  0  0  0
   33.2306   29.6677   46.2159 H   0  0  0  0  0  0  0  0  0  0  0  0
   32.0089   29.8498   47.4913 H   0  0  0  0  0  0  0  0  0  0  0  0
   36.4999   32.6750   50.3220 H   0  0  0  0  0  0  0  0  0  0  0  0
   38.2129   34.3437   50.1109 H   0  0  0  0  0  0  0  0  0  0  0  0
   39.9029   34.2020   48.3745 H   0  0  0  0  0  0  0  0  0  0  0  0
   40.1469   32.3238   46.5359 C   0  0  0  0  0  0  0  0  0  0  0  0
   39.8538   31.7196   45.3303 C   0  0  0  0  0  0  0  0  0  0  0  0
   38.8868   31.2923   45.1037 H   0  0  0  0  0  0  0  0  0  0  0  0
   40.8953   31.7065   44.4406 C   0  0  0  0  0  0  0  0  0  0  0  0
   40.7710   31.2491   43.4474 H   0  0  0  0  0  0  0  0  0  0  0  0
   42.1544   32.2237   44.6418 C   0  0  0  0  0  0  0  0  0  0  0  0
   42.3698   32.8164   45.8842 C   0  0  0  0  0  0  0  0  0  0  0  0
   41.3653   32.8449   46.7802 N   0  0  0  0  0  0  0  0  0  0  0  0
   42.9476   32.2018   43.9359 H   0  0  0  0  0  0  0  0  0  0  0  0
   43.3321   33.2666   46.1695 H   0  0  0  0  0  0  0  0  0  0  0  0
  2  1  2  0
  2 14  1  0
  3  2  1  0
  4  5  1  0
  4  3  2  0
  5  6  2  0
  6  1  1  0
  7  5  1  0
  8  3  1  0
  8  9  2  0
 10  9  1  0
 11 10  2  0
 12 13  2  0
 12 11  1  0
 13  8  1  0
 14 17  1  0
 14 16  1  0
 15 14  1  0
  1 18  1  0
  7 19  1  0
  7 20  1  0
  9 21  1  0
 10 22  1  0
 11 23  1  0
 24 25  2  0
 25 26  1  0
 25 27  1  0
 27 28  1  0
 27 29  2  0
 29 30  1  0
 30 31  2  0
 31 24  1  0
 29 32  1  0
 30 33  1  0
 12 24  1  0
M  ISO  6  18  14  21  14  22  14  23  14  26  15  28  16
M  END
>  <DihAtoms>  (1) 
12,11,23,24

>  <DihDeg>  (1) 
-0.0005284564955650807

$$$$
