
 OpenBabel03272509243D

 23 24  0  0  0  0  0  0  0  0999 V2000
   37.6190   30.3980   47.6740 C   0  0  0  0  0  0  0  0  0  0  0  0
   38.1500   29.4570   47.3520 H   0  0  0  0  0  0  0  0  0  0  0  0
   36.7380   30.5590   47.0290 H   0  0  0  0  0  0  0  0  0  0  0  0
   37.3570   30.1220   51.4300 C   0  0  0  0  0  0  0  0  0  0  0  0
   37.9130   30.4670   50.1770 C   0  0  0  0  0  0  0  0  0  0  0  0
   37.1790   30.1120   49.0590 C   0  0  0  0  0  0  0  0  0  0  0  0
   35.9940   29.4690   49.2310 N   0  0  0  0  0  0  0  0  0  0  0  0
   35.4910   29.1540   50.4340 C   0  0  0  0  0  0  0  0  0  0  0  0
   36.1810   29.4840   51.5480 N   0  0  0  0  0  0  0  0  0  0  0  0
   37.9370   30.4010   52.3180 H   0  0  0  0  0  0  0  0  0  0  0  0
   38.8570   30.9780   50.0820 H   0  0  0  0  0  0  0  0  0  0  0  0
   34.5400   28.6430   50.4080 H   0  0  0  0  0  0  0  0  0  0  0  0
   38.5740   31.5730   47.6540 C   0  0  0  0  0  0  0  0  0  0  0  0
   38.1590   32.4740   48.1000 H   0  0  0  0  0  0  0  0  0  0  0  0
   39.4710   31.2800   48.2730 H   0  0  0  0  0  0  0  0  0  0  0  0
   39.1020   31.8000   46.2590 C   0  0  0  0  0  0  0  0  0  0  0  0
   40.2980   31.2060   45.8820 C   0  0  0  0  0  0  0  0  0  0  0  0
   40.7970   30.5960   46.6300 H   0  0  0  0  0  0  0  0  0  0  0  0
   40.7620   31.4300   44.5940 C   0  0  0  0  0  0  0  0  0  0  0  0
   41.7120   30.9310   44.3610 H   0  0  0  0  0  0  0  0  0  0  0  0
   40.0420   32.2300   43.7140 C   0  0  0  0  0  3  0  0  0  0  0  0
   38.8630   32.7960   44.1380 C   0  0  0  0  0  3  0  0  0  0  0  0
   38.4020   32.5850   45.3890 N   0  0  0  0  0  0  0  0  0  0  0  0
  1  6  1  0  0  0  0
  2  1  1  0  0  0  0
  3  1  1  0  0  0  0
  4  9  1  0  0  0  0
  4 10  1  0  0  0  0
  5  4  2  0  0  0  0
  6  7  2  0  0  0  0
  6  5  1  0  0  0  0
  7  8  1  0  0  0  0
  8  9  2  0  0  0  0
 11  5  1  0  0  0  0
 12  8  1  0  0  0  0
 13  1  1  0  0  0  0
 13 14  1  0  0  0  0
 13 15  1  0  0  0  0
 16 13  1  0  0  0  0
 17 16  1  0  0  0  0
 17 18  1  0  0  0  0
 19 17  2  0  0  0  0
 20 19  1  0  0  0  0
 21 22  2  0  0  0  0
 21 19  1  0  0  0  0
 22 23  1  0  0  0  0
 23 16  2  0  0  0  0
M  END
>  <minimizedAffinity>
-5.01842451

>  <minimizedRMSD>
1.51532447

$$$$
