
 OpenBabel03272501553D

 23 24  0  0  0  0  0  0  0  0999 V2000
   38.1360   25.2980   33.9730 C   0  0  0  0  0  0  0  0  0  0  0  0
   37.6680   25.8880   34.8130 H   0  0  0  0  0  0  0  0  0  0  0  0
   39.0340   25.8490   33.6720 H   0  0  0  0  0  0  0  0  0  0  0  0
   35.7830   24.1540   31.3380 C   0  0  0  0  0  0  0  0  0  0  0  0
   35.2650   25.3590   30.8590 C   0  0  0  0  0  0  0  0  0  0  0  0
   35.7140   26.5670   31.4320 C   0  0  0  0  0  0  0  0  0  0  0  0
   36.6320   26.4570   32.4210 N   0  0  0  0  0  0  0  0  0  0  0  0
   37.1180   25.2750   32.8660 C   0  0  0  0  0  0  0  0  0  0  0  0
   36.6910   24.1380   32.3230 N   0  0  0  0  0  0  0  0  0  0  0  0
   35.4470   23.2010   30.9050 H   0  0  0  0  0  0  0  0  0  0  0  0
   34.5400   25.3940   30.0730 H   0  0  0  0  0  0  0  0  0  0  0  0
   35.3420   27.5140   31.0940 H   0  0  0  0  0  0  0  0  0  0  0  0
   38.4370   23.8920   34.3810 C   0  0  0  0  0  0  0  0  0  0  0  0
   37.5690   23.2720   34.0820 H   0  0  0  0  0  0  0  0  0  0  0  0
   39.3230   23.5800   33.7600 H   0  0  0  0  0  0  0  0  0  0  0  0
   38.6400   23.7040   35.8160 C   0  0  0  0  0  0  0  0  0  0  0  0
   37.7900   24.3360   36.7010 C   0  0  0  0  0  0  0  0  0  0  0  0
   36.9690   24.9730   36.3510 H   0  0  0  0  0  0  0  0  0  0  0  0
   37.8820   24.2350   38.0910 C   0  0  0  0  0  0  0  0  0  0  0  0
   37.1950   24.7470   38.7340 H   0  0  0  0  0  0  0  0  0  0  0  0
   38.9130   23.4330   38.5750 C   0  0  0  0  0  3  0  0  0  0  0  0
   39.7660   22.8000   37.6870 C   0  0  0  0  0  3  0  0  0  0  0  0
   39.6120   22.9470   36.3660 N   0  0  0  0  0  0  0  0  0  0  0  0
  1 13  1  0  0  0  0
  1  2  1  0  0  0  0
  3  1  1  0  0  0  0
  4  9  1  0  0  0  0
  5  4  2  0  0  0  0
  5  6  1  0  0  0  0
  6  7  2  0  0  0  0
  7  8  1  0  0  0  0
  8  1  1  0  0  0  0
  9  8  2  0  0  0  0
 10  4  1  0  0  0  0
 11  5  1  0  0  0  0
 12  6  1  0  0  0  0
 13 16  1  0  0  0  0
 14 13  1  0  0  0  0
 15 13  1  0  0  0  0
 16 23  2  0  0  0  0
 16 17  1  0  0  0  0
 17 19  2  0  0  0  0
 18 17  1  0  0  0  0
 19 21  1  0  0  0  0
 19 20  1  0  0  0  0
 22 21  2  0  0  0  0
 23 22  1  0  0  0  0
M  END
>  <minimizedAffinity>
-4.20932055

$$$$

 OpenBabel03272501553D

 23 24  0  0  0  0  0  0  0  0999 V2000
   37.9560   22.0060   34.6100 C   0  0  0  0  0  0  0  0  0  0  0  0
   36.8290   21.9550   34.5910 H   0  0  0  0  0  0  0  0  0  0  0  0
   38.3140   20.9850   34.4340 H   0  0  0  0  0  0  0  0  0  0  0  0
   37.8090   23.4810   38.0150 C   0  0  0  0  0  0  0  0  0  0  0  0
   39.1140   23.2990   38.4740 C   0  0  0  0  0  0  0  0  0  0  0  0
   40.0510   22.6730   37.6260 C   0  0  0  0  0  0  0  0  0  0  0  0
   39.5980   22.2900   36.4090 N   0  0  0  0  0  0  0  0  0  0  0  0
   38.3260   22.4800   35.9880 C   0  0  0  0  0  0  0  0  0  0  0  0
   37.4450   23.0710   36.7920 N   0  0  0  0  0  0  0  0  0  0  0  0
   37.0620   23.9680   38.6590 H   0  0  0  0  0  0  0  0  0  0  0  0
   39.4250   23.6190   39.4460 H   0  0  0  0  0  0  0  0  0  0  0  0
   41.0640   22.5130   37.9390 H   0  0  0  0  0  0  0  0  0  0  0  0
   38.4850   22.9800   33.6070 C   0  0  0  0  0  0  0  0  0  0  0  0
   38.9940   23.7860   34.1700 H   0  0  0  0  0  0  0  0  0  0  0  0
   39.2630   22.4160   33.0200 H   0  0  0  0  0  0  0  0  0  0  0  0
   37.4650   23.6040   32.7670 C   0  0  0  0  0  0  0  0  0  0  0  0
   36.6360   22.7990   32.0120 C   0  0  0  0  0  0  0  0  0  0  0  0
   36.7250   21.7070   32.0300 H   0  0  0  0  0  0  0  0  0  0  0  0
   35.6260   23.2760   31.1720 C   0  0  0  0  0  0  0  0  0  0  0  0
   35.0090   22.6070   30.6070 H   0  0  0  0  0  0  0  0  0  0  0  0
   35.4800   24.6600   31.1230 C   0  0  0  0  0  3  0  0  0  0  0  0
   36.3120   25.4670   31.8800 C   0  0  0  0  0  3  0  0  0  0  0  0
   37.2580   24.9330   32.6620 N   0  0  0  0  0  0  0  0  0  0  0  0
  1  8  1  0  0  0  0
  2  1  1  0  0  0  0
  3  1  1  0  0  0  0
  4  5  1  0  0  0  0
  4 10  1  0  0  0  0
  5 11  1  0  0  0  0
  6 12  1  0  0  0  0
  6  5  2  0  0  0  0
  7  6  1  0  0  0  0
  8  7  2  0  0  0  0
  8  9  1  0  0  0  0
  9  4  2  0  0  0  0
 13 14  1  0  0  0  0
 13  1  1  0  0  0  0
 15 13  1  0  0  0  0
 16 13  1  0  0  0  0
 17 18  1  0  0  0  0
 17 16  2  0  0  0  0
 19 17  1  0  0  0  0
 20 19  1  0  0  0  0
 21 19  2  0  0  0  0
 21 22  1  0  0  0  0
 22 23  2  0  0  0  0
 23 16  1  0  0  0  0
M  END
>  <minimizedAffinity>
-4.17336178

$$$$

 OpenBabel03272501553D

 23 24  0  0  0  0  0  0  0  0999 V2000
   38.5360   27.0940   35.6450 C   0  0  0  0  0  0  0  0  0  0  0  0
   37.8420   27.9830   35.6040 H   0  0  0  0  0  0  0  0  0  0  0  0
   39.1840   27.2490   36.5150 H   0  0  0  0  0  0  0  0  0  0  0  0
   41.3320   27.1680   33.2030 C   0  0  0  0  0  0  0  0  0  0  0  0
   40.6580   27.1930   31.9800 C   0  0  0  0  0  0  0  0  0  0  0  0
   39.2480   27.1840   31.9830 C   0  0  0  0  0  0  0  0  0  0  0  0
   38.6490   27.1520   33.1960 N   0  0  0  0  0  0  0  0  0  0  0  0
   39.3280   27.1290   34.3670 C   0  0  0  0  0  0  0  0  0  0  0  0
   40.6590   27.1370   34.3600 N   0  0  0  0  0  0  0  0  0  0  0  0
   42.4320   27.1760   33.2240 H   0  0  0  0  0  0  0  0  0  0  0  0
   41.1770   27.2190   31.0460 H   0  0  0  0  0  0  0  0  0  0  0  0
   38.6910   27.2020   31.0660 H   0  0  0  0  0  0  0  0  0  0  0  0
   37.7850   25.8040   35.7130 C   0  0  0  0  0  0  0  0  0  0  0  0
   36.8350   26.0050   36.2450 H   0  0  0  0  0  0  0  0  0  0  0  0
   37.5420   25.5390   34.6460 H   0  0  0  0  0  0  0  0  0  0  0  0
   38.4760   24.7350   36.4320 C   0  0  0  0  0  0  0  0  0  0  0  0
   38.0720   24.4210   37.7140 C   0  0  0  0  0  0  0  0  0  0  0  0
   37.2480   24.9540   38.2020 H   0  0  0  0  0  0  0  0  0  0  0  0
   38.6530   23.4230   38.5000 C   0  0  0  0  0  0  0  0  0  0  0  0
   38.3000   23.2190   39.4920 H   0  0  0  0  0  0  0  0  0  0  0  0
   39.7030   22.7210   37.9150 C   0  0  0  0  0  3  0  0  0  0  0  0
   40.1080   23.0370   36.6290 C   0  0  0  0  0  3  0  0  0  0  0  0
   39.5010   24.0090   35.9380 N   0  0  0  0  0  0  0  0  0  0  0  0
  1 13  1  0  0  0  0
  1  3  1  0  0  0  0
  2  1  1  0  0  0  0
  4 10  1  0  0  0  0
  4  9  1  0  0  0  0
  5  6  1  0  0  0  0
  5  4  2  0  0  0  0
  6  7  2  0  0  0  0
  7  8  1  0  0  0  0
  8  1  1  0  0  0  0
  9  8  2  0  0  0  0
 11  5  1  0  0  0  0
 12  6  1  0  0  0  0
 13 14  1  0  0  0  0
 13 16  1  0  0  0  0
 15 13  1  0  0  0  0
 16 17  1  0  0  0  0
 17 18  1  0  0  0  0
 17 19  2  0  0  0  0
 19 20  1  0  0  0  0
 21 19  1  0  0  0  0
 22 21  2  0  0  0  0
 23 16  2  0  0  0  0
 23 22  1  0  0  0  0
M  END
>  <minimizedAffinity>
-4.14942312

$$$$

 OpenBabel03272501553D

 23 24  0  0  0  0  0  0  0  0999 V2000
   37.8720   26.8810   35.2810 C   0  0  0  0  0  0  0  0  0  0  0  0
   37.2820   26.9640   36.2390 H   0  0  0  0  0  0  0  0  0  0  0  0
   38.7710   27.4930   35.4170 H   0  0  0  0  0  0  0  0  0  0  0  0
   36.0990   27.4140   32.0620 C   0  0  0  0  0  0  0  0  0  0  0  0
   35.3550   28.5670   32.3200 C   0  0  0  0  0  0  0  0  0  0  0  0
   35.4530   29.1670   33.5930 C   0  0  0  0  0  0  0  0  0  0  0  0
   36.2790   28.5640   34.4790 N   0  0  0  0  0  0  0  0  0  0  0  0
   36.9910   27.4470   34.2020 C   0  0  0  0  0  0  0  0  0  0  0  0
   36.8950   26.8830   33.0000 N   0  0  0  0  0  0  0  0  0  0  0  0
   36.0380   26.9300   31.0760 H   0  0  0  0  0  0  0  0  0  0  0  0
   34.7140   29.0070   31.5850 H   0  0  0  0  0  0  0  0  0  0  0  0
   34.8980   30.0530   33.8330 H   0  0  0  0  0  0  0  0  0  0  0  0
   38.1930   25.4600   34.9460 C   0  0  0  0  0  0  0  0  0  0  0  0
   37.2880   25.0210   34.4820 H   0  0  0  0  0  0  0  0  0  0  0  0
   39.0010   25.5080   34.1640 H   0  0  0  0  0  0  0  0  0  0  0  0
   38.5470   24.6290   36.0950 C   0  0  0  0  0  0  0  0  0  0  0  0
   37.8640   24.8010   37.2820 C   0  0  0  0  0  0  0  0  0  0  0  0
   37.0650   25.5440   37.3800 H   0  0  0  0  0  0  0  0  0  0  0  0
   38.1110   24.0690   38.4460 C   0  0  0  0  0  0  0  0  0  0  0  0
   37.5500   24.2430   39.3420 H   0  0  0  0  0  0  0  0  0  0  0  0
   39.1190   23.1130   38.3610 C   0  0  0  0  0  3  0  0  0  0  0  0
   39.8040   22.9410   37.1710 C   0  0  0  0  0  3  0  0  0  0  0  0
   39.5090   23.6820   36.0960 N   0  0  0  0  0  0  0  0  0  0  0  0
  1  3  1  0  0  0  0
  1  2  1  0  0  0  0
  4  5  2  0  0  0  0
  4  9  1  0  0  0  0
  5  6  1  0  0  0  0
  6 12  1  0  0  0  0
  6  7  2  0  0  0  0
  8  7  1  0  0  0  0
  8  1  1  0  0  0  0
  9  8  2  0  0  0  0
 10  4  1  0  0  0  0
 11  5  1  0  0  0  0
 13  1  1  0  0  0  0
 13 16  1  0  0  0  0
 14 13  1  0  0  0  0
 15 13  1  0  0  0  0
 16 23  2  0  0  0  0
 16 17  1  0  0  0  0
 17 18  1  0  0  0  0
 17 19  2  0  0  0  0
 19 20  1  0  0  0  0
 21 19  1  0  0  0  0
 22 21  2  0  0  0  0
 23 22  1  0  0  0  0
M  END
>  <minimizedAffinity>
-4.12553835

$$$$

 OpenBabel03272501553D

 23 24  0  0  0  0  0  0  0  0999 V2000
   38.1460   22.8630   33.4080 C   0  0  0  0  0  0  0  0  0  0  0  0
   37.6840   23.7630   33.9070 H   0  0  0  0  0  0  0  0  0  0  0  0
   38.7800   23.2490   32.6010 H   0  0  0  0  0  0  0  0  0  0  0  0
   35.4790   21.5440   31.1870 C   0  0  0  0  0  0  0  0  0  0  0  0
   34.9120   20.5360   31.9690 C   0  0  0  0  0  0  0  0  0  0  0  0
   35.4370   20.3010   33.2580 C   0  0  0  0  0  0  0  0  0  0  0  0
   36.4690   21.0890   33.6380 N   0  0  0  0  0  0  0  0  0  0  0  0
   37.0000   22.0600   32.8590 C   0  0  0  0  0  0  0  0  0  0  0  0
   36.5020   22.2780   31.6440 N   0  0  0  0  0  0  0  0  0  0  0  0
   35.0850   21.7440   30.1800 H   0  0  0  0  0  0  0  0  0  0  0  0
   34.0950   19.9390   31.6230 H   0  0  0  0  0  0  0  0  0  0  0  0
   35.0310   19.5370   33.8910 H   0  0  0  0  0  0  0  0  0  0  0  0
   38.9070   22.0180   34.3780 C   0  0  0  0  0  0  0  0  0  0  0  0
   38.4640   21.0040   34.3460 H   0  0  0  0  0  0  0  0  0  0  0  0
   39.9550   21.9580   33.9700 H   0  0  0  0  0  0  0  0  0  0  0  0
   38.8500   22.4800   35.7630 C   0  0  0  0  0  0  0  0  0  0  0  0
   39.9890   22.4090   36.5400 C   0  0  0  0  0  0  0  0  0  0  0  0
   40.9300   22.0140   36.1420 H   0  0  0  0  0  0  0  0  0  0  0  0
   40.0600   22.8180   37.8740 C   0  0  0  0  0  0  0  0  0  0  0  0
   40.9710   22.7410   38.4320 H   0  0  0  0  0  0  0  0  0  0  0  0
   38.8830   23.3270   38.4170 C   0  0  0  0  0  3  0  0  0  0  0  0
   37.7410   23.3990   37.6380 C   0  0  0  0  0  3  0  0  0  0  0  0
   37.7530   22.9850   36.3650 N   0  0  0  0  0  0  0  0  0  0  0  0
  1  2  1  0  0  0  0
  1 13  1  0  0  0  0
  3  1  1  0  0  0  0
  4  9  2  0  0  0  0
  4  5  1  0  0  0  0
  5  6  2  0  0  0  0
  6  7  1  0  0  0  0
  6 12  1  0  0  0  0
  8  1  1  0  0  0  0
  8  7  2  0  0  0  0
  9  8  1  0  0  0  0
 10  4  1  0  0  0  0
 11  5  1  0  0  0  0
 13 16  1  0  0  0  0
 14 13  1  0  0  0  0
 15 13  1  0  0  0  0
 16 23  2  0  0  0  0
 16 17  1  0  0  0  0
 17 19  2  0  0  0  0
 18 17  1  0  0  0  0
 19 21  1  0  0  0  0
 19 20  1  0  0  0  0
 22 21  2  0  0  0  0
 23 22  1  0  0  0  0
M  END
>  <minimizedAffinity>
-4.11238194

$$$$

 OpenBabel03272501553D

 23 24  0  0  0  0  0  0  0  0999 V2000
   38.9290   22.1710   34.2730 C   0  0  0  0  0  0  0  0  0  0  0  0
   38.7800   21.0520   34.2700 H   0  0  0  0  0  0  0  0  0  0  0  0
   39.9140   22.3520   33.8280 H   0  0  0  0  0  0  0  0  0  0  0  0
   37.8500   23.5290   37.5560 C   0  0  0  0  0  0  0  0  0  0  0  0
   38.9720   23.3000   38.3560 C   0  0  0  0  0  0  0  0  0  0  0  0
   40.1010   22.6820   37.7790 C   0  0  0  0  0  0  0  0  0  0  0  0
   40.0030   22.3530   36.4700 N   0  0  0  0  0  0  0  0  0  0  0  0
   38.9030   22.5870   35.7180 C   0  0  0  0  0  0  0  0  0  0  0  0
   37.8390   23.1700   36.2660 N   0  0  0  0  0  0  0  0  0  0  0  0
   36.9590   24.0100   37.9850 H   0  0  0  0  0  0  0  0  0  0  0  0
   39.0010   23.5790   39.3880 H   0  0  0  0  0  0  0  0  0  0  0  0
   40.9840   22.4880   38.3580 H   0  0  0  0  0  0  0  0  0  0  0  0
   37.8330   22.8810   33.5460 C   0  0  0  0  0  0  0  0  0  0  0  0
   37.3010   23.5080   34.2880 H   0  0  0  0  0  0  0  0  0  0  0  0
   38.3480   23.5620   32.8130 H   0  0  0  0  0  0  0  0  0  0  0  0
   36.8460   22.0010   32.9230 C   0  0  0  0  0  0  0  0  0  0  0  0
   36.2830   20.9890   33.6740 C   0  0  0  0  0  0  0  0  0  0  0  0
   36.5590   20.8320   34.7230 H   0  0  0  0  0  0  0  0  0  0  0  0
   35.3320   20.0860   33.1920 C   0  0  0  0  0  0  0  0  0  0  0  0
   34.9260   19.3170   33.8190 H   0  0  0  0  0  0  0  0  0  0  0  0
   34.9540   20.2530   31.8620 C   0  0  0  0  0  3  0  0  0  0  0  0
   35.5190   21.2680   31.1100 C   0  0  0  0  0  3  0  0  0  0  0  0
   36.4260   22.0950   31.6440 N   0  0  0  0  0  0  0  0  0  0  0  0
  1  8  1  0  0  0  0
  2  1  1  0  0  0  0
  3  1  1  0  0  0  0
  4 10  1  0  0  0  0
  4  5  1  0  0  0  0
  5 11  1  0  0  0  0
  6  5  2  0  0  0  0
  6 12  1  0  0  0  0
  7  6  1  0  0  0  0
  8  9  1  0  0  0  0
  8  7  2  0  0  0  0
  9  4  2  0  0  0  0
 13  1  1  0  0  0  0
 13 14  1  0  0  0  0
 15 13  1  0  0  0  0
 16 13  1  0  0  0  0
 16 17  1  0  0  0  0
 17 18  1  0  0  0  0
 19 17  2  0  0  0  0
 19 20  1  0  0  0  0
 21 19  1  0  0  0  0
 22 23  1  0  0  0  0
 22 21  2  0  0  0  0
 23 16  2  0  0  0  0
M  END
>  <minimizedAffinity>
-4.11124039

$$$$

 OpenBabel03272501553D

 23 24  0  0  0  0  0  0  0  0999 V2000
   38.3010   24.4350   34.5110 C   0  0  0  0  0  0  0  0  0  0  0  0
   39.0000   25.2980   34.3080 H   0  0  0  0  0  0  0  0  0  0  0  0
   37.2840   24.8280   34.3960 H   0  0  0  0  0  0  0  0  0  0  0  0
   39.7450   22.8170   37.5250 C   0  0  0  0  0  0  0  0  0  0  0  0
   38.9410   23.3230   38.5480 C   0  0  0  0  0  0  0  0  0  0  0  0
   37.9030   24.2190   38.2150 C   0  0  0  0  0  0  0  0  0  0  0  0
   37.7680   24.5210   36.9030 N   0  0  0  0  0  0  0  0  0  0  0  0
   38.5620   24.0150   35.9300 C   0  0  0  0  0  0  0  0  0  0  0  0
   39.5400   23.1700   36.2490 N   0  0  0  0  0  0  0  0  0  0  0  0
   40.5590   22.1170   37.7610 H   0  0  0  0  0  0  0  0  0  0  0  0
   39.0880   23.0540   39.5720 H   0  0  0  0  0  0  0  0  0  0  0  0
   37.2630   24.6320   38.9700 H   0  0  0  0  0  0  0  0  0  0  0  0
   38.5720   23.2760   33.6070 C   0  0  0  0  0  0  0  0  0  0  0  0
   39.0020   23.6830   32.6720 H   0  0  0  0  0  0  0  0  0  0  0  0
   39.3660   22.6680   34.1240 H   0  0  0  0  0  0  0  0  0  0  0  0
   37.3900   22.4960   33.2450 C   0  0  0  0  0  0  0  0  0  0  0  0
   36.7120   22.8070   32.0840 C   0  0  0  0  0  0  0  0  0  0  0  0
   37.0400   23.6230   31.4300 H   0  0  0  0  0  0  0  0  0  0  0  0
   35.5720   22.1370   31.6330 C   0  0  0  0  0  0  0  0  0  0  0  0
   35.0840   22.4200   30.7220 H   0  0  0  0  0  0  0  0  0  0  0  0
   35.1230   21.0920   32.4370 C   0  0  0  0  0  3  0  0  0  0  0  0
   35.8030   20.7810   33.6020 C   0  0  0  0  0  3  0  0  0  0  0  0
   36.8900   21.4710   33.9670 N   0  0  0  0  0  0  0  0  0  0  0  0
  1  8  1  0  0  0  0
  2  1  1  0  0  0  0
  3  1  1  0  0  0  0
  4 10  1  0  0  0  0
  4  5  1  0  0  0  0
  5 11  1  0  0  0  0
  6  5  2  0  0  0  0
  6 12  1  0  0  0  0
  7  6  1  0  0  0  0
  8  9  1  0  0  0  0
  8  7  2  0  0  0  0
  9  4  2  0  0  0  0
 13 15  1  0  0  0  0
 13  1  1  0  0  0  0
 14 13  1  0  0  0  0
 16 13  1  0  0  0  0
 16 23  1  0  0  0  0
 17 16  2  0  0  0  0
 18 17  1  0  0  0  0
 19 17  1  0  0  0  0
 19 21  2  0  0  0  0
 20 19  1  0  0  0  0
 21 22  1  0  0  0  0
 22 23  2  0  0  0  0
M  END
>  <minimizedAffinity>
-4.11094856

$$$$

 OpenBabel03272501553D

 23 24  0  0  0  0  0  0  0  0999 V2000
   38.6820   23.2930   33.6430 C   0  0  0  0  0  0  0  0  0  0  0  0
   39.1300   23.6960   32.6890 H   0  0  0  0  0  0  0  0  0  0  0  0
   39.4240   22.6050   34.0660 H   0  0  0  0  0  0  0  0  0  0  0  0
   35.8640   20.8780   33.5230 C   0  0  0  0  0  0  0  0  0  0  0  0
   35.1530   21.3060   32.4000 C   0  0  0  0  0  0  0  0  0  0  0  0
   35.6310   22.4200   31.6780 C   0  0  0  0  0  0  0  0  0  0  0  0
   36.7640   22.9960   32.1440 N   0  0  0  0  0  0  0  0  0  0  0  0
   37.4340   22.5600   33.2360 C   0  0  0  0  0  0  0  0  0  0  0  0
   36.9790   21.5080   33.9140 N   0  0  0  0  0  0  0  0  0  0  0  0
   35.5090   20.0110   34.0990 H   0  0  0  0  0  0  0  0  0  0  0  0
   34.2610   20.8170   32.0710 H   0  0  0  0  0  0  0  0  0  0  0  0
   35.1160   22.7820   30.8100 H   0  0  0  0  0  0  0  0  0  0  0  0
   38.3110   24.3880   34.5910 C   0  0  0  0  0  0  0  0  0  0  0  0
   38.9660   25.2520   34.3650 H   0  0  0  0  0  0  0  0  0  0  0  0
   37.2530   24.6700   34.3280 H   0  0  0  0  0  0  0  0  0  0  0  0
   38.4880   24.0570   36.0030 C   0  0  0  0  0  0  0  0  0  0  0  0
   39.5200   23.2160   36.3700 C   0  0  0  0  0  0  0  0  0  0  0  0
   40.2060   22.7940   35.6270 H   0  0  0  0  0  0  0  0  0  0  0  0
   39.7900   22.8270   37.6840 C   0  0  0  0  0  0  0  0  0  0  0  0
   40.6050   22.1710   37.9140 H   0  0  0  0  0  0  0  0  0  0  0  0
   38.9390   23.3440   38.6580 C   0  0  0  0  0  3  0  0  0  0  0  0
   37.9040   24.1860   38.2900 C   0  0  0  0  0  3  0  0  0  0  0  0
   37.7100   24.5130   37.0070 N   0  0  0  0  0  0  0  0  0  0  0  0
  1  3  1  0  0  0  0
  1 13  1  0  0  0  0
  2  1  1  0  0  0  0
  4  9  1  0  0  0  0
  4 10  1  0  0  0  0
  5  4  2  0  0  0  0
  6  7  2  0  0  0  0
  6  5  1  0  0  0  0
  7  8  1  0  0  0  0
  8  1  1  0  0  0  0
  8  9  2  0  0  0  0
 11  5  1  0  0  0  0
 12  6  1  0  0  0  0
 13 16  1  0  0  0  0
 14 13  1  0  0  0  0
 15 13  1  0  0  0  0
 16 17  2  0  0  0  0
 16 23  1  0  0  0  0
 17 19  1  0  0  0  0
 18 17  1  0  0  0  0
 19 20  1  0  0  0  0
 19 21  2  0  0  0  0
 22 21  1  0  0  0  0
 23 22  2  0  0  0  0
M  END
>  <minimizedAffinity>
-4.11017847

$$$$

 OpenBabel03272501553D

 23 24  0  0  0  0  0  0  0  0999 V2000
   38.0790   25.3010   34.9190 C   0  0  0  0  0  0  0  0  0  0  0  0
   37.2030   24.7590   34.4590 H   0  0  0  0  0  0  0  0  0  0  0  0
   38.8820   25.2800   34.1730 H   0  0  0  0  0  0  0  0  0  0  0  0
   39.6990   22.8840   37.2250 C   0  0  0  0  0  0  0  0  0  0  0  0
   39.0550   23.1500   38.4350 C   0  0  0  0  0  0  0  0  0  0  0  0
   38.0660   24.1550   38.4710 C   0  0  0  0  0  0  0  0  0  0  0  0
   37.8160   24.7940   37.3030 N   0  0  0  0  0  0  0  0  0  0  0  0
   38.4550   24.5150   36.1440 C   0  0  0  0  0  0  0  0  0  0  0  0
   39.3880   23.5660   36.1150 N   0  0  0  0  0  0  0  0  0  0  0  0
   40.4720   22.1040   37.1750 H   0  0  0  0  0  0  0  0  0  0  0  0
   39.2880   22.6170   39.3320 H   0  0  0  0  0  0  0  0  0  0  0  0
   37.5470   24.3920   39.3790 H   0  0  0  0  0  0  0  0  0  0  0  0
   37.7180   26.6920   35.3310 C   0  0  0  0  0  0  0  0  0  0  0  0
   36.9390   26.6100   36.1140 H   0  0  0  0  0  0  0  0  0  0  0  0
   38.6470   27.1190   35.8010 H   0  0  0  0  0  0  0  0  0  0  0  0
   37.1780   27.5240   34.2570 C   0  0  0  0  0  0  0  0  0  0  0  0
   37.7080   27.4070   32.9880 C   0  0  0  0  0  0  0  0  0  0  0  0
   38.5220   26.7070   32.7700 H   0  0  0  0  0  0  0  0  0  0  0  0
   37.2770   28.1460   31.8830 C   0  0  0  0  0  0  0  0  0  0  0  0
   37.7240   28.0160   30.9180 H   0  0  0  0  0  0  0  0  0  0  0  0
   36.2420   29.0480   32.1200 C   0  0  0  0  0  3  0  0  0  0  0  0
   35.7110   29.1640   33.3930 C   0  0  0  0  0  3  0  0  0  0  0  0
   36.1790   28.4200   34.4020 N   0  0  0  0  0  0  0  0  0  0  0  0
  1 13  1  0  0  0  0
  1  8  1  0  0  0  0
  2  1  1  0  0  0  0
  3  1  1  0  0  0  0
  4  5  1  0  0  0  0
  5  6  2  0  0  0  0
  5 11  1  0  0  0  0
  6 12  1  0  0  0  0
  7  6  1  0  0  0  0
  8  7  2  0  0  0  0
  9  8  1  0  0  0  0
  9  4  2  0  0  0  0
 10  4  1  0  0  0  0
 13 15  1  0  0  0  0
 13 14  1  0  0  0  0
 16 23  1  0  0  0  0
 16 13  1  0  0  0  0
 17 16  2  0  0  0  0
 18 17  1  0  0  0  0
 19 21  2  0  0  0  0
 19 17  1  0  0  0  0
 20 19  1  0  0  0  0
 21 22  1  0  0  0  0
 22 23  2  0  0  0  0
M  END
>  <minimizedAffinity>
-4.08263922

$$$$
