
 OpenBabel03272509243D

 23 24  0  0  0  0  0  0  0  0999 V2000
   37.7030   30.4640   47.7830 C   0  0  0  0  0  0  0  0  0  0  0  0
   38.2170   29.5200   47.4440 H   0  0  0  0  0  0  0  0  0  0  0  0
   36.8570   30.6810   47.1090 H   0  0  0  0  0  0  0  0  0  0  0  0
   37.2490   30.0790   51.5110 C   0  0  0  0  0  0  0  0  0  0  0  0
   37.8660   30.4640   50.2990 C   0  0  0  0  0  0  0  0  0  0  0  0
   37.1940   30.1350   49.1350 C   0  0  0  0  0  0  0  0  0  0  0  0
   36.0090   29.4760   49.2270 N   0  0  0  0  0  0  0  0  0  0  0  0
   35.4470   29.1220   50.3920 C   0  0  0  0  0  0  0  0  0  0  0  0
   36.0750   29.4270   51.5500 N   0  0  0  0  0  0  0  0  0  0  0  0
   37.7790   30.3380   52.4360 H   0  0  0  0  0  0  0  0  0  0  0  0
   38.8070   30.9860   50.2680 H   0  0  0  0  0  0  0  0  0  0  0  0
   34.5050   28.6040   50.3020 H   0  0  0  0  0  0  0  0  0  0  0  0
   38.6950   31.6060   47.8550 C   0  0  0  0  0  0  0  0  0  0  0  0
   38.2800   32.5120   48.2900 H   0  0  0  0  0  0  0  0  0  0  0  0
   39.5360   31.2710   48.5280 H   0  0  0  0  0  0  0  0  0  0  0  0
   39.3270   31.8420   46.5050 C   0  0  0  0  0  0  0  0  0  0  0  0
   39.6020   30.7560   45.6860 C   0  0  0  0  0  0  0  0  0  0  0  0
   39.3410   29.7750   46.0730 H   0  0  0  0  0  0  0  0  0  0  0  0
   40.1820   30.9990   44.4500 C   0  0  0  0  0  0  0  0  0  0  0  0
   40.3740   30.0970   43.8550 H   0  0  0  0  0  0  0  0  0  0  0  0
   40.4760   32.2990   44.0530 C   0  0  0  0  0  3  0  0  0  0  0  0
   40.1830   33.3390   44.9020 C   0  0  0  0  0  3  0  0  0  0  0  0
   39.6180   33.1140   46.1070 N   0  0  0  0  0  0  0  0  0  0  0  0
  1 13  1  0  0  0  0
  1  6  1  0  0  0  0
  2  1  1  0  0  0  0
  3  1  1  0  0  0  0
  4  9  1  0  0  0  0
  4 10  1  0  0  0  0
  5  4  2  0  0  0  0
  6  7  2  0  0  0  0
  6  5  1  0  0  0  0
  7  8  1  0  0  0  0
  8  9  2  0  0  0  0
 11  5  1  0  0  0  0
 12  8  1  0  0  0  0
 13 14  1  0  0  0  0
 13 15  1  0  0  0  0
 16 13  1  0  0  0  0
 17 18  1  0  0  0  0
 17 16  2  0  0  0  0
 19 17  1  0  0  0  0
 20 19  1  0  0  0  0
 21 19  2  0  0  0  0
 21 22  1  0  0  0  0
 22 23  2  0  0  0  0
 23 16  1  0  0  0  0
M  END
>  <minimizedAffinity>
-4.9085021

>  <minimizedRMSD>
1.47792244

$$$$
