
     RDKit          3D

 38 40  0  0  0  0  0  0  0  0999 V2000
   38.1623   31.2449   44.9152 C   0  0  0  0  0  0  0  0  0  0  0  0
   37.3321   30.9535   45.9731 C   0  0  0  0  0  0  0  0  0  0  0  0
   36.1029   30.3617   45.7275 C   0  0  0  0  0  0  0  0  0  0  0  0
   35.6607   30.0467   44.4581 C   0  0  0  0  0  0  0  0  0  0  0  0
   36.4694   30.3299   43.3863 C   0  0  0  0  0  0  0  0  0  0  0  0
   37.6809   30.9140   43.6492 C   0  0  0  0  0  0  0  0  0  0  0  0
   38.6917   32.7751   48.8613 C   0  0  0  0  0  0  0  0  0  0  0  0
   38.3101   32.4446   47.5651 C   0  0  0  0  0  0  0  0  0  0  0  0
   37.6969   31.2675   47.3125 C   0  0  0  0  0  0  0  0  0  0  0  0
   37.4701   30.4363   48.3736 N   0  0  0  0  0  0  0  0  0  0  0  0
   37.8322   30.7511   49.6243 C   0  0  0  0  0  0  0  0  0  0  0  0
   38.4419   31.9168   49.8570 N   0  0  0  0  0  0  0  0  0  0  0  0
   37.4664   29.7847   50.6942 C   0  0  0  0  0  0  0  0  0  0  0  0
   37.7270   30.2901   51.9568 F   0  0  0  0  0  0  0  0  0  0  0  0
   36.0267   29.6375   50.7022 F   0  0  0  0  0  0  0  0  0  0  0  0
   37.8988   28.5509   50.5688 F   0  0  0  0  0  0  0  0  0  0  0  0
   39.7328   31.9363   45.1009 S   0  0  0  0  0  0  0  0  0  0  0  0
   39.6828   33.3998   44.8767 O   0  0  0  0  0  0  0  0  0  0  0  0
   40.2836   31.5683   43.7485 O   0  0  0  0  0  0  0  0  0  0  0  0
   41.1267   31.2482   45.7578 C   0  0  0  0  0  0  0  0  0  0  0  0
   35.4604   30.1380   46.5875 H   0  0  0  0  0  0  0  0  0  0  0  0
   34.6864   29.5875   44.3834 H   0  0  0  0  0  0  0  0  0  0  0  0
   36.0917   30.0712   42.4089 H   0  0  0  0  0  0  0  0  0  0  0  0
   38.2304   31.0932   42.7177 H   0  0  0  0  0  0  0  0  0  0  0  0
   39.1833   33.6551   49.2289 H   0  0  0  0  0  0  0  0  0  0  0  0
   38.5861   33.2961   46.9909 H   0  0  0  0  0  0  0  0  0  0  0  0
   41.8718   32.0747   45.8261 H   0  0  0  0  0  0  0  0  0  0  0  0
   40.8996   31.0846   46.8625 H   0  0  0  0  0  0  0  0  0  0  0  0
   41.8468   30.0796   45.3467 C   0  0  0  0  0  0  0  0  0  0  0  0
   42.7787   29.5107   46.1977 C   0  0  0  0  0  0  0  0  0  0  0  0
   42.9384   29.9828   47.1792 H   0  0  0  0  0  0  0  0  0  0  0  0
   43.5494   28.3811   45.9351 C   0  0  0  0  0  0  0  0  0  0  0  0
   44.2467   28.0301   46.6817 H   0  0  0  0  0  0  0  0  0  0  0  0
   43.3305   27.8002   44.6870 C   0  0  0  0  0  0  0  0  0  0  0  0
   42.4064   28.3506   43.8230 C   0  0  0  0  0  0  0  0  0  0  0  0
   41.6985   29.4471   44.1507 N   0  0  0  0  0  0  0  0  0  0  0  0
   43.9349   26.9136   44.4804 H   0  0  0  0  0  0  0  0  0  0  0  0
   42.3063   27.8307   42.8797 H   0  0  0  0  0  0  0  0  0  0  0  0
  1 17  1  0
  1  2  1  0
  2  9  1  0
  3  2  2  0
  4  3  1  0
  5  6  1  0
  5  4  2  0
  6  1  2  0
  7 12  2  0
  8  7  1  0
  9  8  2  0
  9 10  1  0
 10 11  2  0
 11 12  1  0
 11 13  1  0
 13 15  1  0
 13 14  1  0
 16 13  1  0
 17 20  1  0
 18 17  2  0
 19 17  2  0
  3 21  1  0
  4 22  1  0
  5 23  1  0
  6 24  1  0
  7 25  1  0
  8 26  1  0
 20 27  1  0
 20 28  1  0
 29 30  2  0
 30 31  1  0
 30 32  1  0
 32 33  1  0
 32 34  2  0
 34 35  1  0
 35 36  2  0
 36 29  1  0
 34 37  1  0
 35 38  1  0
 20 29  1  0
M  ISO  8  21  14  22  14  23  14  24  14  25  14  26  14  27   8  28   8
M  ISO  2  31  15  33  16
M  END
>  <DihAtoms>  (1) 
16,19,28,29

>  <DihDeg>  (1) 
90.01462098163363

$$$$
