REMARK  Name = 
REMARK  3 active torsions:
REMARK  status: ('A' for Active; 'I' for Inactive)
REMARK    1  A    between atoms: C_2  and  C_14
REMARK    2  A    between atoms: C_3  and  C_8
REMARK    3  A    between atoms: C_12  and  C_24
REMARK                            x       y       z     vdW  Elec       q    Type
REMARK                         _______ _______ _______ _____ _____    ______ ____
ROOT
ATOM      1  C   UNL     1      37.223  31.465  48.597  0.00  0.00    +0.000 A 
ATOM      2  C   UNL     1      37.195  32.506  49.513  0.00  0.00    +0.000 A 
ATOM      3  C   UNL     1      38.160  33.501  49.441  0.00  0.00    +0.000 A 
ATOM      4  C   UNL     1      39.140  33.459  48.469  0.00  0.00    +0.000 A 
ATOM      5  C   UNL     1      39.132  32.411  47.581  0.00  0.00    +0.000 A 
ATOM      6  N   UNL     1      38.191  31.467  47.674  0.00  0.00    +0.000 NA
ATOM      7  H   UNL     1      36.500  32.675  50.322  0.00  0.00    +0.000 HD
ATOM      8  H   UNL     1      38.213  34.344  50.111  0.00  0.00    +0.000 HD
ATOM      9  H   UNL     1      39.903  34.202  48.374  0.00  0.00    +0.000 HD
ENDROOT
BRANCH   1  12
ATOM     10  C   UNL     1      35.169  28.670  50.023  0.00  0.00    +0.000 A 
ATOM     11  C   UNL     1      36.240  29.597  49.855  0.00  0.00    +0.000 A 
ATOM     12  C   UNL     1      36.154  30.507  48.800  0.00  0.00    +0.000 A 
ATOM     13  N   UNL     1      35.060  30.462  47.993  0.00  0.00    +0.000 NA
ATOM     14  C   UNL     1      34.061  29.554  48.197  0.00  0.00    +0.000 A 
ATOM     15  N   UNL     1      34.112  28.669  49.198  0.00  0.00    +0.000 NA
ATOM     16  N   UNL     1      33.028  29.701  47.229  0.00  0.00    +0.000 N 
ATOM     17  H   UNL     1      35.219  27.954  50.839  0.00  0.00    +0.000 HD
ATOM     18  H   UNL     1      33.231  29.668  46.216  0.00  0.00    +0.000 HD
ATOM     19  H   UNL     1      32.009  29.850  47.491  0.00  0.00    +0.000 HD
BRANCH  11  20
ATOM     20  C   UNL     1      37.379  29.547  50.800  0.00  0.00    +0.000 C 
ATOM     21  F   UNL     1      38.581  29.808  50.150  0.00  0.00    +0.000 F 
ATOM     22  F   UNL     1      37.200  30.501  51.761  0.00  0.00    +0.000 F 
ATOM     23  F   UNL     1      37.504  28.327  51.432  0.00  0.00    +0.000 F 
ENDBRANCH  11  20
ENDBRANCH   1  12
BRANCH   5  24
ATOM     24  C   UNL     1      40.147  32.324  46.536  0.00  0.00    +0.000 A 
ATOM     25  C   UNL     1      39.854  31.720  45.330  0.00  0.00    +0.000 A 
ATOM     26  H   UNL     1      38.887  31.292  45.104  0.00  0.00    +0.000 HD
ATOM     27  C   UNL     1      40.895  31.706  44.441  0.00  0.00    +0.000 A 
ATOM     28  H   UNL     1      40.771  31.249  43.447  0.00  0.00    +0.000 HD
ATOM     29  C   UNL     1      42.154  32.224  44.642  0.00  0.00    +0.000 A 
ATOM     30  C   UNL     1      42.370  32.816  45.884  0.00  0.00    +0.000 A 
ATOM     31  N   UNL     1      41.365  32.845  46.780  0.00  0.00    +0.000 NA
ENDBRANCH   5  24
TORSDOF 3
