
 OpenBabel03272505283D

 30 32  0  0  0  0  0  0  0  0999 V2000
   37.3530   25.2970   32.5720 N   0  0  0  0  0  0  0  0  0  0  0  0
   38.0980   24.9940   33.6690 C   0  0  0  0  0  0  0  0  0  0  0  0
   38.1850   23.6990   34.1570 C   0  0  0  0  0  0  0  0  0  0  0  0
   37.4740   22.7010   33.4800 C   0  0  0  0  0  0  0  0  0  0  0  0
   37.5240   21.5150   33.8860 O   0  0  0  0  0  0  0  0  0  0  0  0
   36.7230   23.0150   32.3730 N   0  0  0  0  0  0  0  0  0  0  0  0
   36.7190   24.2910   32.0040 C   0  0  0  0  0  0  0  0  0  0  0  0
   36.0220   24.5350   30.9930 O   0  0  0  0  0  0  0  0  0  0  0  0
   38.6370   25.7840   34.1710 H   0  0  0  0  0  0  0  0  0  0  0  0
   38.0690   28.3920   30.6430 C   0  0  0  0  0  0  0  0  0  0  0  0
   38.1600   27.0770   31.1290 C   0  0  0  0  0  0  0  0  0  0  0  0
   37.2760   26.6080   32.0900 C   0  0  0  0  0  0  0  0  0  0  0  0
   36.3340   27.4650   32.5350 N   0  0  0  0  0  0  0  0  0  0  0  0
   36.2250   28.7440   32.0830 C   0  0  0  0  0  0  0  0  0  0  0  0
   37.1040   29.1890   31.1320 N   0  0  0  0  0  0  0  0  0  0  0  0
   38.7270   28.8110   29.8960 H   0  0  0  0  0  0  0  0  0  0  0  0
   38.9700   26.5580   30.6690 H   0  0  0  0  0  0  0  0  0  0  0  0
   35.4300   29.3410   32.5120 H   0  0  0  0  0  0  0  0  0  0  0  0
   38.9620   23.3210   35.3190 C   0  0  0  0  0  0  0  0  0  0  0  0
   38.5020   23.4460   36.6110 C   0  0  0  0  0  0  0  0  0  0  0  0
   37.5260   23.8410   36.8110 H   0  0  0  0  0  0  0  0  0  0  0  0
   39.2070   23.0990   37.7440 C   0  0  0  0  0  0  0  0  0  0  0  0
   38.8120   23.2130   38.7430 H   0  0  0  0  0  0  0  0  0  0  0  0
   40.4930   22.5750   37.5800 C   0  0  0  0  0  3  0  0  0  0  0  0
   40.9240   22.4620   36.2610 C   0  0  0  0  0  3  0  0  0  0  0  0
   40.1920   22.8180   35.2050 N   0  0  0  0  0  0  0  0  0  0  0  0
   35.9960   21.9810   31.6850 C   0  0  0  0  0  0  0  0  0  0  0  0
   35.2540   22.5010   30.6750 F   0  0  0  0  0  0  0  0  0  0  0  0
   35.1150   21.2880   32.5000 F   0  0  0  0  0  0  0  0  0  0  0  0
   36.9170   21.0900   31.1210 F   0  0  0  0  0  0  0  0  0  0  0  0
  1  2  1  0  0  0  0
  2  3  2  0  0  0  0
  2  9  1  0  0  0  0
  3 19  1  0  0  0  0
  4  5  2  0  0  0  0
  4  3  1  0  0  0  0
  6  4  1  0  0  0  0
  7  6  1  0  0  0  0
  7  1  1  0  0  0  0
  8  7  2  0  0  0  0
 10 11  2  0  0  0  0
 10 15  1  0  0  0  0
 11 12  1  0  0  0  0
 12 13  2  0  0  0  0
 12  1  1  0  0  0  0
 14 18  1  0  0  0  0
 14 13  1  0  0  0  0
 15 14  2  0  0  0  0
 16 10  1  0  0  0  0
 17 11  1  0  0  0  0
 19 20  1  0  0  0  0
 20 21  1  0  0  0  0
 20 22  2  0  0  0  0
 22 23  1  0  0  0  0
 24 22  1  0  0  0  0
 25 24  2  0  0  0  0
 26 19  2  0  0  0  0
 26 25  1  0  0  0  0
 27  6  1  0  0  0  0
 27 29  1  0  0  0  0
 28 27  1  0  0  0  0
 30 27  1  0  0  0  0
M  END
>  <minimizedAffinity>
-5.686028

$$$$

 OpenBabel03272505283D

 30 32  0  0  0  0  0  0  0  0999 V2000
   37.9900   23.6360   34.2930 N   0  0  0  0  0  0  0  0  0  0  0  0
   37.9370   24.9010   33.7940 C   0  0  0  0  0  0  0  0  0  0  0  0
   37.3090   25.1860   32.5920 C   0  0  0  0  0  0  0  0  0  0  0  0
   36.7240   24.1220   31.8970 C   0  0  0  0  0  0  0  0  0  0  0  0
   36.1430   24.3330   30.8040 O   0  0  0  0  0  0  0  0  0  0  0  0
   36.7820   22.8460   32.4050 N   0  0  0  0  0  0  0  0  0  0  0  0
   37.4110   22.7010   33.5650 C   0  0  0  0  0  0  0  0  0  0  0  0
   37.4440   21.5250   33.9930 O   0  0  0  0  0  0  0  0  0  0  0  0
   38.3960   25.7040   34.3530 H   0  0  0  0  0  0  0  0  0  0  0  0
   38.6500   23.3420   37.9380 C   0  0  0  0  0  0  0  0  0  0  0  0
   38.0080   23.6290   36.7210 C   0  0  0  0  0  0  0  0  0  0  0  0
   38.6260   23.3640   35.5070 C   0  0  0  0  0  0  0  0  0  0  0  0
   39.8620   22.8250   35.5470 N   0  0  0  0  0  0  0  0  0  0  0  0
   40.5080   22.5400   36.7110 C   0  0  0  0  0  0  0  0  0  0  0  0
   39.8810   22.8050   37.8990 N   0  0  0  0  0  0  0  0  0  0  0  0
   38.2190   23.5250   38.9110 H   0  0  0  0  0  0  0  0  0  0  0  0
   37.0470   24.0590   36.8920 H   0  0  0  0  0  0  0  0  0  0  0  0
   41.4960   22.1090   36.6210 H   0  0  0  0  0  0  0  0  0  0  0  0
   37.2230   26.5120   32.0160 C   0  0  0  0  0  0  0  0  0  0  0  0
   38.1950   27.0480   31.2030 C   0  0  0  0  0  0  0  0  0  0  0  0
   39.0780   26.4910   30.9590 H   0  0  0  0  0  0  0  0  0  0  0  0
   38.1540   28.3040   30.6340 C   0  0  0  0  0  0  0  0  0  0  0  0
   38.9390   28.6910   30.0000 H   0  0  0  0  0  0  0  0  0  0  0  0
   37.0390   29.1060   30.8970 C   0  0  0  0  0  3  0  0  0  0  0  0
   36.0760   28.5310   31.7220 C   0  0  0  0  0  3  0  0  0  0  0  0
   36.1760   27.3080   32.2440 N   0  0  0  0  0  0  0  0  0  0  0  0
   36.1770   21.7590   31.6820 C   0  0  0  0  0  0  0  0  0  0  0  0
   35.2910   22.2210   30.7650 F   0  0  0  0  0  0  0  0  0  0  0  0
   35.4770   20.8780   32.4920 F   0  0  0  0  0  0  0  0  0  0  0  0
   37.1820   21.0690   30.9930 F   0  0  0  0  0  0  0  0  0  0  0  0
  1 12  1  0  0  0  0
  2  1  1  0  0  0  0
  2  9  1  0  0  0  0
  3  2  2  0  0  0  0
  4  6  1  0  0  0  0
  4  3  1  0  0  0  0
  5  4  2  0  0  0  0
  6  7  1  0  0  0  0
  7  8  2  0  0  0  0
  7  1  1  0  0  0  0
 10 16  1  0  0  0  0
 11 17  1  0  0  0  0
 11 10  2  0  0  0  0
 12 13  2  0  0  0  0
 12 11  1  0  0  0  0
 13 14  1  0  0  0  0
 14 15  2  0  0  0  0
 15 10  1  0  0  0  0
 18 14  1  0  0  0  0
 19 26  1  0  0  0  0
 19  3  1  0  0  0  0
 20 19  2  0  0  0  0
 21 20  1  0  0  0  0
 22 24  2  0  0  0  0
 22 20  1  0  0  0  0
 23 22  1  0  0  0  0
 24 25  1  0  0  0  0
 25 26  2  0  0  0  0
 27  6  1  0  0  0  0
 27 29  1  0  0  0  0
 28 27  1  0  0  0  0
 30 27  1  0  0  0  0
M  END
>  <minimizedAffinity>
-5.68362379

$$$$

 OpenBabel03272505283D

 30 32  0  0  0  0  0  0  0  0999 V2000
   38.8860   24.6040   34.9070 N   0  0  0  0  0  0  0  0  0  0  0  0
   40.0010   23.8610   34.6680 C   0  0  0  0  0  0  0  0  0  0  0  0
   40.5880   23.0870   35.6570 C   0  0  0  0  0  0  0  0  0  0  0  0
   39.9920   23.0910   36.9240 C   0  0  0  0  0  0  0  0  0  0  0  0
   40.4890   22.4040   37.8490 O   0  0  0  0  0  0  0  0  0  0  0  0
   38.8660   23.8430   37.1580 N   0  0  0  0  0  0  0  0  0  0  0  0
   38.3990   24.5430   36.1300 C   0  0  0  0  0  0  0  0  0  0  0  0
   37.3750   25.2160   36.3850 O   0  0  0  0  0  0  0  0  0  0  0  0
   40.4390   23.8770   33.6810 H   0  0  0  0  0  0  0  0  0  0  0  0
   38.0940   27.4700   32.6780 C   0  0  0  0  0  0  0  0  0  0  0  0
   38.6750   26.7010   33.7000 C   0  0  0  0  0  0  0  0  0  0  0  0
   38.3050   25.3790   33.8990 C   0  0  0  0  0  0  0  0  0  0  0  0
   37.3670   24.8680   33.0740 N   0  0  0  0  0  0  0  0  0  0  0  0
   36.7870   25.5900   32.0770 C   0  0  0  0  0  0  0  0  0  0  0  0
   37.1660   26.8930   31.8940 N   0  0  0  0  0  0  0  0  0  0  0  0
   38.3420   28.5010   32.4760 H   0  0  0  0  0  0  0  0  0  0  0  0
   39.3820   27.2780   34.2520 H   0  0  0  0  0  0  0  0  0  0  0  0
   36.0470   25.0770   31.4770 H   0  0  0  0  0  0  0  0  0  0  0  0
   41.7730   22.2800   35.4590 C   0  0  0  0  0  0  0  0  0  0  0  0
   42.9960   22.5810   36.0150 C   0  0  0  0  0  0  0  0  0  0  0  0
   43.1210   23.4480   36.6320 H   0  0  0  0  0  0  0  0  0  0  0  0
   44.1480   21.8410   35.8520 C   0  0  0  0  0  0  0  0  0  0  0  0
   45.0920   22.1100   36.3050 H   0  0  0  0  0  0  0  0  0  0  0  0
   44.0820   20.6890   35.0610 C   0  0  0  0  0  3  0  0  0  0  0  0
   42.8300   20.4160   34.5160 C   0  0  0  0  0  3  0  0  0  0  0  0
   41.7510   21.1750   34.7110 N   0  0  0  0  0  0  0  0  0  0  0  0
   38.2620   23.8400   38.4640 C   0  0  0  0  0  0  0  0  0  0  0  0
   39.1700   23.5110   39.4170 F   0  0  0  0  0  0  0  0  0  0  0  0
   37.2200   22.9340   38.5890 F   0  0  0  0  0  0  0  0  0  0  0  0
   37.8000   25.1310   38.7430 F   0  0  0  0  0  0  0  0  0  0  0  0
  1  7  1  0  0  0  0
  2  1  1  0  0  0  0
  2  3  2  0  0  0  0
  3  4  1  0  0  0  0
  4  6  1  0  0  0  0
  4  5  2  0  0  0  0
  6 27  1  0  0  0  0
  7  8  2  0  0  0  0
  7  6  1  0  0  0  0
  9  2  1  0  0  0  0
 10 11  1  0  0  0  0
 11 12  2  0  0  0  0
 11 17  1  0  0  0  0
 12  1  1  0  0  0  0
 13 12  1  0  0  0  0
 14 13  2  0  0  0  0
 15 14  1  0  0  0  0
 15 10  2  0  0  0  0
 16 10  1  0  0  0  0
 18 14  1  0  0  0  0
 19  3  1  0  0  0  0
 19 20  1  0  0  0  0
 20 21  1  0  0  0  0
 22 20  2  0  0  0  0
 22 23  1  0  0  0  0
 24 22  1  0  0  0  0
 25 26  1  0  0  0  0
 25 24  2  0  0  0  0
 26 19  2  0  0  0  0
 27 29  1  0  0  0  0
 27 30  1  0  0  0  0
 27 28  1  0  0  0  0
M  END
>  <minimizedAffinity>
-5.55022526

$$$$

 OpenBabel03272505283D

 30 32  0  0  0  0  0  0  0  0999 V2000
   36.9070   26.6070   32.6160 N   0  0  0  0  0  0  0  0  0  0  0  0
   36.6910   25.4210   31.9850 C   0  0  0  0  0  0  0  0  0  0  0  0
   37.0920   24.2160   32.5390 C   0  0  0  0  0  0  0  0  0  0  0  0
   37.7340   24.2540   33.7830 C   0  0  0  0  0  0  0  0  0  0  0  0
   38.1130   23.1870   34.3230 O   0  0  0  0  0  0  0  0  0  0  0  0
   37.9490   25.4560   34.4140 N   0  0  0  0  0  0  0  0  0  0  0  0
   37.5190   26.5410   33.7820 C   0  0  0  0  0  0  0  0  0  0  0  0
   37.7360   27.6140   34.3890 O   0  0  0  0  0  0  0  0  0  0  0  0
   36.1930   25.4210   31.0260 H   0  0  0  0  0  0  0  0  0  0  0  0
   36.8020   29.6340   30.4620 C   0  0  0  0  0  0  0  0  0  0  0  0
   37.2290   28.4250   31.0380 C   0  0  0  0  0  0  0  0  0  0  0  0
   36.4950   27.8150   32.0450 C   0  0  0  0  0  0  0  0  0  0  0  0
   35.3630   28.4300   32.4440 N   0  0  0  0  0  0  0  0  0  0  0  0
   34.9270   29.6010   31.9050 C   0  0  0  0  0  0  0  0  0  0  0  0
   35.6630   30.1880   30.9110 N   0  0  0  0  0  0  0  0  0  0  0  0
   37.3310   30.1530   29.6760 H   0  0  0  0  0  0  0  0  0  0  0  0
   38.1470   28.1010   30.6020 H   0  0  0  0  0  0  0  0  0  0  0  0
   34.0050   30.0030   32.3040 H   0  0  0  0  0  0  0  0  0  0  0  0
   36.8890   22.9260   31.9120 C   0  0  0  0  0  0  0  0  0  0  0  0
   35.7010   22.2340   31.9720 C   0  0  0  0  0  0  0  0  0  0  0  0
   34.8580   22.6330   32.5010 H   0  0  0  0  0  0  0  0  0  0  0  0
   35.4640   21.0060   31.3910 C   0  0  0  0  0  0  0  0  0  0  0  0
   34.5160   20.4930   31.4610 H   0  0  0  0  0  0  0  0  0  0  0  0
   36.5070   20.4060   30.6790 C   0  0  0  0  0  3  0  0  0  0  0  0
   37.6930   21.1350   30.6380 C   0  0  0  0  0  3  0  0  0  0  0  0
   37.8600   22.3210   31.2240 N   0  0  0  0  0  0  0  0  0  0  0  0
   38.6090   25.4840   35.6930 C   0  0  0  0  0  0  0  0  0  0  0  0
   38.0650   24.5750   36.5390 F   0  0  0  0  0  0  0  0  0  0  0  0
   38.5240   26.7110   36.3320 F   0  0  0  0  0  0  0  0  0  0  0  0
   39.9540   25.1410   35.5070 F   0  0  0  0  0  0  0  0  0  0  0  0
  1  7  1  0  0  0  0
  2  3  2  0  0  0  0
  2  1  1  0  0  0  0
  3  4  1  0  0  0  0
  4  5  2  0  0  0  0
  4  6  1  0  0  0  0
  6 27  1  0  0  0  0
  7  8  2  0  0  0  0
  7  6  1  0  0  0  0
  9  2  1  0  0  0  0
 10 15  2  0  0  0  0
 10 11  1  0  0  0  0
 11 12  2  0  0  0  0
 12 13  1  0  0  0  0
 12  1  1  0  0  0  0
 14 18  1  0  0  0  0
 14 13  2  0  0  0  0
 15 14  1  0  0  0  0
 16 10  1  0  0  0  0
 17 11  1  0  0  0  0
 19 20  1  0  0  0  0
 19  3  1  0  0  0  0
 20 21  1  0  0  0  0
 22 23  1  0  0  0  0
 22 20  2  0  0  0  0
 24 22  1  0  0  0  0
 25 24  2  0  0  0  0
 25 26  1  0  0  0  0
 26 19  2  0  0  0  0
 27 29  1  0  0  0  0
 27 28  1  0  0  0  0
 30 27  1  0  0  0  0
M  END
>  <minimizedAffinity>
-5.42963123

$$$$

 OpenBabel03272505283D

 30 32  0  0  0  0  0  0  0  0999 V2000
   37.1270   24.4000   32.5900 N   0  0  0  0  0  0  0  0  0  0  0  0
   36.6390   25.5520   32.0550 C   0  0  0  0  0  0  0  0  0  0  0  0
   36.7860   26.7730   32.6940 C   0  0  0  0  0  0  0  0  0  0  0  0
   37.4580   26.7860   33.9220 C   0  0  0  0  0  0  0  0  0  0  0  0
   37.6150   27.8690   34.5360 O   0  0  0  0  0  0  0  0  0  0  0  0
   37.9470   25.6190   34.4570 N   0  0  0  0  0  0  0  0  0  0  0  0
   37.7430   24.5140   33.7490 C   0  0  0  0  0  0  0  0  0  0  0  0
   38.2020   23.4720   34.2710 O   0  0  0  0  0  0  0  0  0  0  0  0
   36.1250   25.5120   31.1050 H   0  0  0  0  0  0  0  0  0  0  0  0
   35.5930   21.3120   31.2010 C   0  0  0  0  0  0  0  0  0  0  0  0
   35.7420   22.5370   31.8740 C   0  0  0  0  0  0  0  0  0  0  0  0
   36.9720   23.1760   31.9320 C   0  0  0  0  0  0  0  0  0  0  0  0
   38.0120   22.5720   31.3200 N   0  0  0  0  0  0  0  0  0  0  0  0
   37.8970   21.3860   30.6630 C   0  0  0  0  0  0  0  0  0  0  0  0
   36.6740   20.7710   30.6140 N   0  0  0  0  0  0  0  0  0  0  0  0
   34.6630   20.7710   31.1230 H   0  0  0  0  0  0  0  0  0  0  0  0
   34.8160   22.8490   32.3030 H   0  0  0  0  0  0  0  0  0  0  0  0
   38.7990   20.9960   30.2080 H   0  0  0  0  0  0  0  0  0  0  0  0
   36.2870   28.0280   32.1710 C   0  0  0  0  0  0  0  0  0  0  0  0
   36.9360   28.7530   31.1970 C   0  0  0  0  0  0  0  0  0  0  0  0
   37.8600   28.4080   30.7780 H   0  0  0  0  0  0  0  0  0  0  0  0
   36.4980   29.9500   30.6720 C   0  0  0  0  0  0  0  0  0  0  0  0
   37.0360   30.4910   29.9070 H   0  0  0  0  0  0  0  0  0  0  0  0
   35.2990   30.4800   31.1590 C   0  0  0  0  0  3  0  0  0  0  0  0
   34.6710   29.7200   32.1420 C   0  0  0  0  0  3  0  0  0  0  0  0
   35.1480   28.5660   32.6110 N   0  0  0  0  0  0  0  0  0  0  0  0
   38.6370   25.6440   35.7200 C   0  0  0  0  0  0  0  0  0  0  0  0
   39.0200   26.9060   36.0380 F   0  0  0  0  0  0  0  0  0  0  0  0
   39.7880   24.8710   35.7360 F   0  0  0  0  0  0  0  0  0  0  0  0
   37.7580   25.2020   36.7160 F   0  0  0  0  0  0  0  0  0  0  0  0
  1  7  1  0  0  0  0
  2  1  1  0  0  0  0
  2  3  2  0  0  0  0
  3  4  1  0  0  0  0
  4  6  1  0  0  0  0
  4  5  2  0  0  0  0
  6 27  1  0  0  0  0
  7  8  2  0  0  0  0
  7  6  1  0  0  0  0
  9  2  1  0  0  0  0
 10 11  1  0  0  0  0
 11 12  2  0  0  0  0
 11 17  1  0  0  0  0
 12  1  1  0  0  0  0
 13 12  1  0  0  0  0
 14 13  2  0  0  0  0
 15 14  1  0  0  0  0
 15 10  2  0  0  0  0
 16 10  1  0  0  0  0
 18 14  1  0  0  0  0
 19 26  1  0  0  0  0
 19  3  1  0  0  0  0
 20 19  2  0  0  0  0
 21 20  1  0  0  0  0
 22 24  2  0  0  0  0
 22 20  1  0  0  0  0
 23 22  1  0  0  0  0
 24 25  1  0  0  0  0
 25 26  2  0  0  0  0
 27 29  1  0  0  0  0
 27 28  1  0  0  0  0
 27 30  1  0  0  0  0
M  END
>  <minimizedAffinity>
-5.41522026

$$$$

 OpenBabel03272505283D

 30 32  0  0  0  0  0  0  0  0999 V2000
   37.5920   22.8320   32.3680 N   0  0  0  0  0  0  0  0  0  0  0  0
   37.8760   22.6470   33.6860 C   0  0  0  0  0  0  0  0  0  0  0  0
   38.0990   23.7150   34.5420 C   0  0  0  0  0  0  0  0  0  0  0  0
   38.0240   25.0050   34.0030 C   0  0  0  0  0  0  0  0  0  0  0  0
   38.2180   26.0010   34.7410 O   0  0  0  0  0  0  0  0  0  0  0  0
   37.7370   25.1840   32.6710 N   0  0  0  0  0  0  0  0  0  0  0  0
   37.5430   24.0830   31.9550 C   0  0  0  0  0  0  0  0  0  0  0  0
   37.2870   24.2890   30.7470 O   0  0  0  0  0  0  0  0  0  0  0  0
   37.9270   21.6400   34.0750 H   0  0  0  0  0  0  0  0  0  0  0  0
   35.9290   19.9940   30.6380 C   0  0  0  0  0  0  0  0  0  0  0  0
   36.1500   21.0790   31.5040 C   0  0  0  0  0  0  0  0  0  0  0  0
   37.3670   21.7450   31.5180 C   0  0  0  0  0  0  0  0  0  0  0  0
   38.3220   21.3070   30.6720 N   0  0  0  0  0  0  0  0  0  0  0  0
   38.1360   20.2580   29.8250 C   0  0  0  0  0  0  0  0  0  0  0  0
   36.9270   19.6140   29.8230 N   0  0  0  0  0  0  0  0  0  0  0  0
   35.0040   19.4400   30.5830 H   0  0  0  0  0  0  0  0  0  0  0  0
   35.2870   21.2690   32.1010 H   0  0  0  0  0  0  0  0  0  0  0  0
   38.9720   19.9950   29.1910 H   0  0  0  0  0  0  0  0  0  0  0  0
   38.4050   23.5760   35.9500 C   0  0  0  0  0  0  0  0  0  0  0  0
   39.6070   23.0960   36.4200 C   0  0  0  0  0  0  0  0  0  0  0  0
   40.3830   22.7980   35.7430 H   0  0  0  0  0  0  0  0  0  0  0  0
   39.9390   22.9470   37.7500 C   0  0  0  0  0  0  0  0  0  0  0  0
   40.8950   22.5660   38.0810 H   0  0  0  0  0  0  0  0  0  0  0  0
   38.9880   23.3110   38.7080 C   0  0  0  0  0  3  0  0  0  0  0  0
   37.7850   23.7920   38.1960 C   0  0  0  0  0  3  0  0  0  0  0  0
   37.5240   23.9110   36.8940 N   0  0  0  0  0  0  0  0  0  0  0  0
   37.6620   26.5150   32.1280 C   0  0  0  0  0  0  0  0  0  0  0  0
   36.6300   27.2040   32.6770 F   0  0  0  0  0  0  0  0  0  0  0  0
   37.4630   26.5420   30.7570 F   0  0  0  0  0  0  0  0  0  0  0  0
   38.8440   27.1930   32.4470 F   0  0  0  0  0  0  0  0  0  0  0  0
  1  2  1  0  0  0  0
  2  9  1  0  0  0  0
  2  3  2  0  0  0  0
  3 19  1  0  0  0  0
  4  3  1  0  0  0  0
  4  5  2  0  0  0  0
  6  4  1  0  0  0  0
  7  1  1  0  0  0  0
  7  6  1  0  0  0  0
  8  7  2  0  0  0  0
 10 11  1  0  0  0  0
 11 12  2  0  0  0  0
 11 17  1  0  0  0  0
 12  1  1  0  0  0  0
 13 12  1  0  0  0  0
 14 13  2  0  0  0  0
 15 14  1  0  0  0  0
 15 10  2  0  0  0  0
 16 10  1  0  0  0  0
 18 14  1  0  0  0  0
 19 20  2  0  0  0  0
 19 26  1  0  0  0  0
 20 22  1  0  0  0  0
 21 20  1  0  0  0  0
 22 23  1  0  0  0  0
 22 24  2  0  0  0  0
 25 24  1  0  0  0  0
 26 25  2  0  0  0  0
 27 30  1  0  0  0  0
 27  6  1  0  0  0  0
 27 28  1  0  0  0  0
 29 27  1  0  0  0  0
M  END
>  <minimizedAffinity>
-5.39682341

$$$$

 OpenBabel03272505283D

 30 32  0  0  0  0  0  0  0  0999 V2000
   36.0940   28.1070   31.9380 N   0  0  0  0  0  0  0  0  0  0  0  0
   35.6080   28.7070   33.0590 C   0  0  0  0  0  0  0  0  0  0  0  0
   35.5290   30.0860   33.1730 C   0  0  0  0  0  0  0  0  0  0  0  0
   35.9700   30.8540   32.0890 C   0  0  0  0  0  0  0  0  0  0  0  0
   35.9170   32.1060   32.1480 O   0  0  0  0  0  0  0  0  0  0  0  0
   36.4610   30.2420   30.9600 N   0  0  0  0  0  0  0  0  0  0  0  0
   36.4850   28.9140   30.9720 C   0  0  0  0  0  0  0  0  0  0  0  0
   36.9400   28.3960   29.9270 O   0  0  0  0  0  0  0  0  0  0  0  0
   35.2740   28.0890   33.8800 H   0  0  0  0  0  0  0  0  0  0  0  0
   37.2450   24.5970   32.3460 C   0  0  0  0  0  0  0  0  0  0  0  0
   37.1860   25.9980   32.4440 C   0  0  0  0  0  0  0  0  0  0  0  0
   36.1660   26.7150   31.8370 C   0  0  0  0  0  0  0  0  0  0  0  0
   35.2390   26.0130   31.1520 N   0  0  0  0  0  0  0  0  0  0  0  0
   35.2720   24.6570   31.0400 C   0  0  0  0  0  0  0  0  0  0  0  0
   36.2860   23.9650   31.6470 N   0  0  0  0  0  0  0  0  0  0  0  0
   38.0130   23.9880   32.7970 H   0  0  0  0  0  0  0  0  0  0  0  0
   38.0080   26.3730   33.0120 H   0  0  0  0  0  0  0  0  0  0  0  0
   34.4760   24.2000   30.4660 H   0  0  0  0  0  0  0  0  0  0  0  0
   35.0220   30.7760   34.3410 C   0  0  0  0  0  0  0  0  0  0  0  0
   35.8190   31.1770   35.3890 C   0  0  0  0  0  0  0  0  0  0  0  0
   36.8740   30.9890   35.3810 H   0  0  0  0  0  0  0  0  0  0  0  0
   35.3780   31.8350   36.5180 C   0  0  0  0  0  0  0  0  0  0  0  0
   36.0360   32.1340   37.3210 H   0  0  0  0  0  0  0  0  0  0  0  0
   34.0140   32.1240   36.6170 C   0  0  0  0  0  3  0  0  0  0  0  0
   33.2390   31.7040   35.5390 C   0  0  0  0  0  3  0  0  0  0  0  0
   33.7270   31.0690   34.4730 N   0  0  0  0  0  0  0  0  0  0  0  0
   36.9110   31.0410   29.8510 C   0  0  0  0  0  0  0  0  0  0  0  0
   37.1040   30.2740   28.7490 F   0  0  0  0  0  0  0  0  0  0  0  0
   38.1130   31.6890   30.0890 F   0  0  0  0  0  0  0  0  0  0  0  0
   35.9190   31.9800   29.5480 F   0  0  0  0  0  0  0  0  0  0  0  0
  1  2  1  0  0  0  0
  2  3  2  0  0  0  0
  2  9  1  0  0  0  0
  3 19  1  0  0  0  0
  4  5  2  0  0  0  0
  4  3  1  0  0  0  0
  6  7  1  0  0  0  0
  6  4  1  0  0  0  0
  7  1  1  0  0  0  0
  8  7  2  0  0  0  0
 10 11  1  0  0  0  0
 10 16  1  0  0  0  0
 11 17  1  0  0  0  0
 12  1  1  0  0  0  0
 12 11  2  0  0  0  0
 13 12  1  0  0  0  0
 14 13  2  0  0  0  0
 14 15  1  0  0  0  0
 15 10  2  0  0  0  0
 18 14  1  0  0  0  0
 19 26  2  0  0  0  0
 19 20  1  0  0  0  0
 20 22  2  0  0  0  0
 21 20  1  0  0  0  0
 22 24  1  0  0  0  0
 22 23  1  0  0  0  0
 25 24  2  0  0  0  0
 26 25  1  0  0  0  0
 27 29  1  0  0  0  0
 27  6  1  0  0  0  0
 28 27  1  0  0  0  0
 30 27  1  0  0  0  0
M  END
>  <minimizedAffinity>
-5.38910294

$$$$

 OpenBabel03272505283D

 30 32  0  0  0  0  0  0  0  0999 V2000
   37.3660   27.4930   33.5330 N   0  0  0  0  0  0  0  0  0  0  0  0
   36.6490   28.2330   34.4220 C   0  0  0  0  0  0  0  0  0  0  0  0
   35.9540   29.3680   34.0340 C   0  0  0  0  0  0  0  0  0  0  0  0
   36.0130   29.7360   32.6840 C   0  0  0  0  0  0  0  0  0  0  0  0
   35.3990   30.7560   32.2880 O   0  0  0  0  0  0  0  0  0  0  0  0
   36.7400   28.9840   31.7920 N   0  0  0  0  0  0  0  0  0  0  0  0
   37.3610   27.9190   32.2860 C   0  0  0  0  0  0  0  0  0  0  0  0
   38.0130   27.2630   31.4420 O   0  0  0  0  0  0  0  0  0  0  0  0
   36.6210   27.9260   35.4570 H   0  0  0  0  0  0  0  0  0  0  0  0
   39.9760   25.2850   34.9890 C   0  0  0  0  0  0  0  0  0  0  0  0
   39.2900   26.4390   34.5740 C   0  0  0  0  0  0  0  0  0  0  0  0
   38.0600   26.3500   33.9390 C   0  0  0  0  0  0  0  0  0  0  0  0
   37.5560   25.1140   33.7380 N   0  0  0  0  0  0  0  0  0  0  0  0
   38.1990   23.9800   34.1280 C   0  0  0  0  0  0  0  0  0  0  0  0
   39.4110   24.0870   34.7550 N   0  0  0  0  0  0  0  0  0  0  0  0
   40.9340   25.2930   35.4880 H   0  0  0  0  0  0  0  0  0  0  0  0
   39.8490   27.3170   34.8090 H   0  0  0  0  0  0  0  0  0  0  0  0
   37.7000   23.0440   33.9140 H   0  0  0  0  0  0  0  0  0  0  0  0
   35.1770   30.1920   34.9360 C   0  0  0  0  0  0  0  0  0  0  0  0
   35.7280   31.1690   35.7340 C   0  0  0  0  0  0  0  0  0  0  0  0
   36.7830   31.3620   35.7180 H   0  0  0  0  0  0  0  0  0  0  0  0
   35.0270   31.9750   36.6060 C   0  0  0  0  0  0  0  0  0  0  0  0
   35.4960   32.7330   37.2170 H   0  0  0  0  0  0  0  0  0  0  0  0
   33.6430   31.7950   36.6950 C   0  0  0  0  0  3  0  0  0  0  0  0
   33.1210   30.7990   35.8740 C   0  0  0  0  0  3  0  0  0  0  0  0
   33.8550   30.0500   35.0500 N   0  0  0  0  0  0  0  0  0  0  0  0
   36.7930   29.3700   30.4070 C   0  0  0  0  0  0  0  0  0  0  0  0
   35.8250   30.2770   30.1190 F   0  0  0  0  0  0  0  0  0  0  0  0
   36.6090   28.3120   29.5300 F   0  0  0  0  0  0  0  0  0  0  0  0
   38.0300   29.9770   30.1620 F   0  0  0  0  0  0  0  0  0  0  0  0
  1 12  1  0  0  0  0
  1  2  1  0  0  0  0
  2  9  1  0  0  0  0
  3  2  2  0  0  0  0
  3 19  1  0  0  0  0
  4  3  1  0  0  0  0
  5  4  2  0  0  0  0
  6  7  1  0  0  0  0
  6  4  1  0  0  0  0
  7  1  1  0  0  0  0
  8  7  2  0  0  0  0
 10 16  1  0  0  0  0
 11 17  1  0  0  0  0
 11 10  2  0  0  0  0
 12 11  1  0  0  0  0
 13 12  2  0  0  0  0
 13 14  1  0  0  0  0
 14 15  2  0  0  0  0
 15 10  1  0  0  0  0
 18 14  1  0  0  0  0
 19 26  2  0  0  0  0
 19 20  1  0  0  0  0
 20 22  2  0  0  0  0
 21 20  1  0  0  0  0
 22 24  1  0  0  0  0
 22 23  1  0  0  0  0
 25 24  2  0  0  0  0
 26 25  1  0  0  0  0
 27  6  1  0  0  0  0
 28 27  1  0  0  0  0
 29 27  1  0  0  0  0
 30 27  1  0  0  0  0
M  END
>  <minimizedAffinity>
-5.38306665

$$$$

 OpenBabel03272505283D

 30 32  0  0  0  0  0  0  0  0999 V2000
   38.0800   23.7280   34.6680 N   0  0  0  0  0  0  0  0  0  0  0  0
   37.8680   22.6540   33.8600 C   0  0  0  0  0  0  0  0  0  0  0  0
   37.5450   22.8020   32.5200 C   0  0  0  0  0  0  0  0  0  0  0  0
   37.4440   24.1040   32.0160 C   0  0  0  0  0  0  0  0  0  0  0  0
   37.1550   24.2850   30.8080 O   0  0  0  0  0  0  0  0  0  0  0  0
   37.6590   25.1840   32.8370 N   0  0  0  0  0  0  0  0  0  0  0  0
   37.9610   24.9130   34.1020 C   0  0  0  0  0  0  0  0  0  0  0  0
   38.1470   25.9230   34.8180 O   0  0  0  0  0  0  0  0  0  0  0  0
   37.9540   21.6610   34.2760 H   0  0  0  0  0  0  0  0  0  0  0  0
   39.9630   22.9120   37.7660 C   0  0  0  0  0  0  0  0  0  0  0  0
   39.6400   23.0640   36.4070 C   0  0  0  0  0  0  0  0  0  0  0  0
   38.4060   23.5640   36.0170 C   0  0  0  0  0  0  0  0  0  0  0  0
   37.5360   23.8920   36.9940 N   0  0  0  0  0  0  0  0  0  0  0  0
   37.8210   23.7540   38.3180 C   0  0  0  0  0  0  0  0  0  0  0  0
   39.0460   23.2620   38.6840 N   0  0  0  0  0  0  0  0  0  0  0  0
   40.9070   22.5310   38.1270 H   0  0  0  0  0  0  0  0  0  0  0  0
   40.4460   22.7420   35.7870 H   0  0  0  0  0  0  0  0  0  0  0  0
   37.0460   24.0500   39.0130 H   0  0  0  0  0  0  0  0  0  0  0  0
   37.3090   21.6950   31.6160 C   0  0  0  0  0  0  0  0  0  0  0  0
   38.2720   21.1860   30.7750 C   0  0  0  0  0  0  0  0  0  0  0  0
   39.2610   21.6000   30.7550 H   0  0  0  0  0  0  0  0  0  0  0  0
   38.0900   20.1360   29.8990 C   0  0  0  0  0  0  0  0  0  0  0  0
   38.8720   19.7630   29.2530 H   0  0  0  0  0  0  0  0  0  0  0  0
   36.8300   19.5310   29.8540 C   0  0  0  0  0  3  0  0  0  0  0  0
   35.8820   20.0720   30.7180 C   0  0  0  0  0  3  0  0  0  0  0  0
   36.1200   21.0930   31.5430 N   0  0  0  0  0  0  0  0  0  0  0  0
   37.5520   26.5180   32.3090 C   0  0  0  0  0  0  0  0  0  0  0  0
   38.4330   27.3520   32.9170 F   0  0  0  0  0  0  0  0  0  0  0  0
   36.2980   27.0820   32.4820 F   0  0  0  0  0  0  0  0  0  0  0  0
   37.8700   26.4840   30.9460 F   0  0  0  0  0  0  0  0  0  0  0  0
  1 12  1  0  0  0  0
  2  9  1  0  0  0  0
  2  1  1  0  0  0  0
  3  2  2  0  0  0  0
  4  3  1  0  0  0  0
  4  6  1  0  0  0  0
  5  4  2  0  0  0  0
  6  7  1  0  0  0  0
  7  1  1  0  0  0  0
  7  8  2  0  0  0  0
 10 16  1  0  0  0  0
 10 15  1  0  0  0  0
 11 10  2  0  0  0  0
 12 11  1  0  0  0  0
 12 13  2  0  0  0  0
 13 14  1  0  0  0  0
 14 15  2  0  0  0  0
 14 18  1  0  0  0  0
 17 11  1  0  0  0  0
 19  3  1  0  0  0  0
 20 19  2  0  0  0  0
 21 20  1  0  0  0  0
 22 20  1  0  0  0  0
 23 22  1  0  0  0  0
 24 22  2  0  0  0  0
 24 25  1  0  0  0  0
 25 26  2  0  0  0  0
 26 19  1  0  0  0  0
 27 29  1  0  0  0  0
 27  6  1  0  0  0  0
 27 28  1  0  0  0  0
 30 27  1  0  0  0  0
M  END
>  <minimizedAffinity>
-5.36918306

$$$$
