
 OpenBabel03272509243D

 23 24  0  0  0  0  0  0  0  0999 V2000
   37.7030   30.4630   47.7820 C   0  0  0  0  0  0  0  0  0  0  0  0
   38.2170   29.5200   47.4430 H   0  0  0  0  0  0  0  0  0  0  0  0
   36.8560   30.6800   47.1090 H   0  0  0  0  0  0  0  0  0  0  0  0
   37.2490   30.0790   51.5110 C   0  0  0  0  0  0  0  0  0  0  0  0
   37.8660   30.4640   50.2980 C   0  0  0  0  0  0  0  0  0  0  0  0
   37.1940   30.1340   49.1340 C   0  0  0  0  0  0  0  0  0  0  0  0
   36.0090   29.4750   49.2270 N   0  0  0  0  0  0  0  0  0  0  0  0
   35.4470   29.1220   50.3920 C   0  0  0  0  0  0  0  0  0  0  0  0
   36.0750   29.4270   51.5500 N   0  0  0  0  0  0  0  0  0  0  0  0
   37.7800   30.3380   52.4350 H   0  0  0  0  0  0  0  0  0  0  0  0
   38.8080   30.9860   50.2670 H   0  0  0  0  0  0  0  0  0  0  0  0
   34.5050   28.6030   50.3030 H   0  0  0  0  0  0  0  0  0  0  0  0
   38.6940   31.6060   47.8530 C   0  0  0  0  0  0  0  0  0  0  0  0
   38.2780   32.5120   48.2890 H   0  0  0  0  0  0  0  0  0  0  0  0
   39.5350   31.2720   48.5280 H   0  0  0  0  0  0  0  0  0  0  0  0
   39.3260   31.8410   46.5040 C   0  0  0  0  0  0  0  0  0  0  0  0
   39.5970   30.7560   45.6840 C   0  0  0  0  0  0  0  0  0  0  0  0
   39.3340   29.7750   46.0690 H   0  0  0  0  0  0  0  0  0  0  0  0
   40.1780   30.9980   44.4480 C   0  0  0  0  0  0  0  0  0  0  0  0
   40.3660   30.0960   43.8510 H   0  0  0  0  0  0  0  0  0  0  0  0
   40.4750   32.2960   44.0510 C   0  0  0  0  0  3  0  0  0  0  0  0
   40.1850   33.3370   44.9010 C   0  0  0  0  0  3  0  0  0  0  0  0
   39.6210   33.1130   46.1070 N   0  0  0  0  0  0  0  0  0  0  0  0
  1 13  1  0  0  0  0
  1  6  1  0  0  0  0
  2  1  1  0  0  0  0
  3  1  1  0  0  0  0
  4  9  1  0  0  0  0
  4 10  1  0  0  0  0
  5  4  2  0  0  0  0
  6  7  2  0  0  0  0
  6  5  1  0  0  0  0
  7  8  1  0  0  0  0
  8  9  2  0  0  0  0
 11  5  1  0  0  0  0
 12  8  1  0  0  0  0
 13 14  1  0  0  0  0
 13 15  1  0  0  0  0
 16 13  1  0  0  0  0
 17 18  1  0  0  0  0
 17 16  2  0  0  0  0
 19 17  1  0  0  0  0
 20 19  1  0  0  0  0
 21 19  2  0  0  0  0
 21 22  1  0  0  0  0
 22 23  2  0  0  0  0
 23 16  1  0  0  0  0
M  END
>  <minimizedAffinity>
-4.90893412

>  <minimizedRMSD>
1.4368583

$$$$
