
 OpenBabel03272510013D

 20 21  0  0  0  0  0  0  0  0999 V2000
   38.2420   31.3910   50.2040 C   0  0  0  0  0  0  0  0  0  0  0  0
   38.5060   31.4030   48.8290 C   0  0  0  0  0  0  0  0  0  0  0  0
   37.6350   30.7130   48.0000 C   0  0  0  0  0  0  0  0  0  0  0  0
   36.5780   30.0670   48.5640 N   0  0  0  0  0  0  0  0  0  0  0  0
   36.3580   30.0800   49.8920 C   0  0  0  0  0  0  0  0  0  0  0  0
   37.1920   30.7420   50.6940 N   0  0  0  0  0  0  0  0  0  0  0  0
   38.9540   31.9470   50.8030 H   0  0  0  0  0  0  0  0  0  0  0  0
   39.3590   31.9290   48.4230 H   0  0  0  0  0  0  0  0  0  0  0  0
   37.8570   30.6870   46.5580 C   0  0  0  0  0  0  0  0  0  0  0  0
   36.7650   30.6390   45.7180 C   0  0  0  0  0  0  0  0  0  0  0  0
   35.7630   30.6220   46.0960 H   0  0  0  0  0  0  0  0  0  0  0  0
   37.0750   30.6170   44.3690 C   0  0  0  0  0  0  0  0  0  0  0  0
   36.2590   30.5810   43.6520 H   0  0  0  0  0  0  0  0  0  0  0  0
   38.3780   30.6430   43.9800 C   0  0  0  0  0  3  0  0  0  0  0  0
   39.4640   30.6900   44.8380 C   0  0  0  0  0  3  0  0  0  0  0  0
   39.1330   30.7100   46.1360 N   0  0  0  0  0  0  0  0  0  0  0  0
   35.1760   29.3440   50.4110 C   0  0  0  0  0  0  0  0  0  0  0  0
   35.2490   29.1120   51.7650 F   0  0  0  0  0  0  0  0  0  0  0  0
   34.0030   30.0950   50.2120 F   0  0  0  0  0  0  0  0  0  0  0  0
   34.9510   28.1530   49.7880 F   0  0  0  0  0  0  0  0  0  0  0  0
  1  6  1  0  0  0  0
  1  7  1  0  0  0  0
  2  1  2  0  0  0  0
  3  4  2  0  0  0  0
  3  2  1  0  0  0  0
  4  5  1  0  0  0  0
  5 17  1  0  0  0  0
  5  6  2  0  0  0  0
  8  2  1  0  0  0  0
  9  3  1  0  0  0  0
 10 11  1  0  0  0  0
 10  9  2  0  0  0  0
 12 10  1  0  0  0  0
 13 12  1  0  0  0  0
 14 12  2  0  0  0  0
 14 15  1  0  0  0  0
 15 16  2  0  0  0  0
 16  9  1  0  0  0  0
 17 18  1  0  0  0  0
 19 17  1  0  0  0  0
 20 17  1  0  0  0  0
M  END
>  <minimizedAffinity>
-5.27181244

>  <minimizedRMSD>
1.02602935

$$$$
