
 OpenBabel03262523203D

 29 31  0  0  1  0  0  0  0  0999 V2000
   40.9720   22.9650   33.1050 C   0  0  0  0  0  0  0  0  0  0  0  0
   42.2220   23.6260   33.2240 C   0  0  0  0  0  0  0  0  0  0  0  0
   42.5330   24.2210   34.4580 C   0  0  0  0  0  0  0  0  0  0  0  0
   41.6370   24.1400   35.4760 N   0  0  0  0  0  0  0  0  0  0  0  0
   40.4600   23.5040   35.3250 C   0  0  0  0  0  0  0  0  0  0  0  0
   40.1400   22.9320   34.1650 N   0  0  0  0  0  0  0  0  0  0  0  0
   39.5430   23.4480   36.4390 N   0  0  0  0  0  0  0  0  0  0  0  0
   39.8980   22.8360   37.7130 C   0  0  0  0  0  0  0  0  0  0  0  0
   38.8380   23.2910   38.6530 C   0  0  0  0  0  0  0  0  0  0  0  0
   37.9920   24.2820   37.9060 C   0  0  0  0  0  0  0  0  0  0  0  0
   38.1940   23.9670   36.4530 C   0  0  1  0  0  0  0  0  0  0  0  0
   40.6860   22.4940   32.1830 H   0  0  0  0  0  0  0  0  0  0  0  0
   42.9020   23.6640   32.3830 H   0  0  0  0  0  0  0  0  0  0  0  0
   43.4790   24.7340   34.5820 H   0  0  0  0  0  0  0  0  0  0  0  0
   39.7490   21.7250   37.5710 H   0  0  0  0  0  0  0  0  0  0  0  0
   40.9270   23.0460   38.0250 H   0  0  0  0  0  0  0  0  0  0  0  0
   39.3650   23.7550   39.5370 H   0  0  0  0  0  0  0  0  0  0  0  0
   38.2380   22.4570   39.0880 H   0  0  0  0  0  0  0  0  0  0  0  0
   38.3940   25.2920   38.1790 H   0  0  0  0  0  0  0  0  0  0  0  0
   36.9060   24.1680   38.1240 H   0  0  0  0  0  0  0  0  0  0  0  0
   37.5150   23.1260   36.1960 H   0  0  0  0  0  0  0  0  0  0  0  0
   38.0170   25.1580   35.5840 C   0  0  0  0  0  0  0  0  0  0  0  0
   38.3370   26.3820   36.1750 C   0  0  0  0  0  0  0  0  0  0  0  0
   38.6940   26.5650   37.1760 H   0  0  0  0  0  0  0  0  0  0  0  0
   38.1660   27.4970   35.3500 C   0  0  0  0  0  0  0  0  0  0  0  0
   38.3930   28.4970   35.7300 H   0  0  0  0  0  0  0  0  0  0  0  0
   37.7210   27.4430   34.0510 C   0  0  0  0  0  3  0  0  0  0  0  0
   37.4250   26.1830   33.5420 C   0  0  0  0  0  3  0  0  0  0  0  0
   37.5860   25.0890   34.3300 N   0  0  0  0  0  0  0  0  0  0  0  0
  1  2  2  0  0  0  0
  1  6  1  0  0  0  0
  2  3  1  0  0  0  0
  3 14  1  0  0  0  0
  3  4  2  0  0  0  0
  5  4  1  0  0  0  0
  5  7  1  0  0  0  0
  6  5  2  0  0  0  0
  7 11  1  0  0  0  0
  7  8  1  0  0  0  0
  8 16  1  0  0  0  0
  8  9  1  0  0  0  0
  9 18  1  0  0  0  0
  9 17  1  0  0  0  0
 10 20  1  0  0  0  0
 10 19  1  0  0  0  0
 10  9  1  0  0  0  0
 11 21  1  6  0  0  0
 11 10  1  0  0  0  0
 12  1  1  0  0  0  0
 13  2  1  0  0  0  0
 15  8  1  0  0  0  0
 22 23  1  0  0  0  0
 22 11  1  0  0  0  0
 23 24  1  0  0  0  0
 25 26  1  0  0  0  0
 25 23  2  0  0  0  0
 27 25  1  0  0  0  0
 28 27  2  0  0  0  0
 28 29  1  0  0  0  0
 29 22  2  0  0  0  0
M  END
>  <minimizedAffinity>
-4.72678089

$$$$

 OpenBabel03262523203D

 29 31  0  0  1  0  0  0  0  0999 V2000
   39.7480   27.1030   33.9540 C   0  0  0  0  0  0  0  0  0  0  0  0
   39.3190   27.0790   35.3070 C   0  0  0  0  0  0  0  0  0  0  0  0
   38.0640   26.5130   35.5850 C   0  0  0  0  0  0  0  0  0  0  0  0
   37.3190   26.0190   34.5620 N   0  0  0  0  0  0  0  0  0  0  0  0
   37.7590   26.0620   33.2900 C   0  0  0  0  0  0  0  0  0  0  0  0
   38.9460   26.5920   32.9990 N   0  0  0  0  0  0  0  0  0  0  0  0
   36.9280   25.5230   32.2400 N   0  0  0  0  0  0  0  0  0  0  0  0
   36.5000   24.1300   32.2200 C   0  0  0  0  0  0  0  0  0  0  0  0
   35.4160   24.0890   31.2000 C   0  0  0  0  0  0  0  0  0  0  0  0
   35.1590   25.5080   30.7830 C   0  0  0  0  0  0  0  0  0  0  0  0
   36.4210   26.2550   31.1010 C   0  0  1  0  0  0  0  0  0  0  0  0
   40.6990   27.5250   33.6880 H   0  0  0  0  0  0  0  0  0  0  0  0
   39.9490   27.4850   36.0870 H   0  0  0  0  0  0  0  0  0  0  0  0
   37.7070   26.4790   36.6080 H   0  0  0  0  0  0  0  0  0  0  0  0
   37.3690   23.5490   31.7910 H   0  0  0  0  0  0  0  0  0  0  0  0
   36.2330   23.7420   33.2090 H   0  0  0  0  0  0  0  0  0  0  0  0
   34.5190   23.6180   31.6990 H   0  0  0  0  0  0  0  0  0  0  0  0
   35.6410   23.4210   30.3360 H   0  0  0  0  0  0  0  0  0  0  0  0
   34.2940   25.8570   31.4040 H   0  0  0  0  0  0  0  0  0  0  0  0
   34.9810   25.6070   29.6880 H   0  0  0  0  0  0  0  0  0  0  0  0
   37.1280   26.0880   30.2610 H   0  0  0  0  0  0  0  0  0  0  0  0
   36.1740   27.6890   31.3910 C   0  0  0  0  0  0  0  0  0  0  0  0
   36.9780   28.5890   30.6890 C   0  0  0  0  0  0  0  0  0  0  0  0
   37.7490   28.3700   29.9680 H   0  0  0  0  0  0  0  0  0  0  0  0
   36.7380   29.9370   30.9700 C   0  0  0  0  0  0  0  0  0  0  0  0
   37.3220   30.7120   30.4650 H   0  0  0  0  0  0  0  0  0  0  0  0
   35.7940   30.3910   31.8590 C   0  0  0  0  0  3  0  0  0  0  0  0
   35.0370   29.4260   32.5160 C   0  0  0  0  0  3  0  0  0  0  0  0
   35.2570   28.1120   32.2540 N   0  0  0  0  0  0  0  0  0  0  0  0
  1  2  1  0  0  0  0
  2  3  2  0  0  0  0
  2 13  1  0  0  0  0
  3 14  1  0  0  0  0
  4  3  1  0  0  0  0
  5  4  2  0  0  0  0
  6  5  1  0  0  0  0
  6  1  2  0  0  0  0
  7  5  1  0  0  0  0
  8  7  1  0  0  0  0
  8 16  1  0  0  0  0
  9 17  1  0  0  0  0
  9  8  1  0  0  0  0
 10 11  1  0  0  0  0
 10  9  1  0  0  0  0
 10 19  1  0  0  0  0
 11 21  1  6  0  0  0
 11 22  1  0  0  0  0
 11  7  1  0  0  0  0
 12  1  1  0  0  0  0
 15  8  1  0  0  0  0
 18  9  1  0  0  0  0
 20 10  1  0  0  0  0
 22 29  1  0  0  0  0
 23 25  1  0  0  0  0
 23 22  2  0  0  0  0
 24 23  1  0  0  0  0
 25 27  2  0  0  0  0
 26 25  1  0  0  0  0
 27 28  1  0  0  0  0
 29 28  2  0  0  0  0
M  END
>  <minimizedAffinity>
-4.71690607

$$$$

 OpenBabel03262523203D

 29 31  0  0  1  0  0  0  0  0999 V2000
   38.0220   23.2730   36.6150 C   0  0  0  0  0  0  0  0  0  0  0  0
   37.7390   22.2650   35.6580 C   0  0  0  0  0  0  0  0  0  0  0  0
   38.4850   22.2660   34.4670 C   0  0  0  0  0  0  0  0  0  0  0  0
   39.4340   23.2190   34.2820 N   0  0  0  0  0  0  0  0  0  0  0  0
   39.6740   24.1620   35.2130 C   0  0  0  0  0  0  0  0  0  0  0  0
   38.9810   24.1830   36.3510 N   0  0  0  0  0  0  0  0  0  0  0  0
   40.6940   25.1520   34.9660 N   0  0  0  0  0  0  0  0  0  0  0  0
   42.0870   24.7970   34.7300 C   0  0  0  0  0  0  0  0  0  0  0  0
   42.7020   26.0400   34.1920 C   0  0  0  0  0  0  0  0  0  0  0  0
   41.5870   27.0260   33.9950 C   0  0  0  0  0  0  0  0  0  0  0  0
   40.4920   26.5830   34.9200 C   0  0  1  0  0  0  0  0  0  0  0  0
   37.4810   23.3170   37.5420 H   0  0  0  0  0  0  0  0  0  0  0  0
   36.9730   21.5270   35.8530 H   0  0  0  0  0  0  0  0  0  0  0  0
   38.2930   21.5090   33.7150 H   0  0  0  0  0  0  0  0  0  0  0  0
   42.5380   24.6290   35.7530 H   0  0  0  0  0  0  0  0  0  0  0  0
   42.2090   23.9030   34.1080 H   0  0  0  0  0  0  0  0  0  0  0  0
   43.2050   25.7600   33.2200 H   0  0  0  0  0  0  0  0  0  0  0  0
   43.5240   26.4440   34.8280 H   0  0  0  0  0  0  0  0  0  0  0  0
   41.2900   26.9400   32.9170 H   0  0  0  0  0  0  0  0  0  0  0  0
   41.8730   28.0620   34.2890 H   0  0  0  0  0  0  0  0  0  0  0  0
   40.7260   26.9820   35.9300 H   0  0  0  0  0  0  0  0  0  0  0  0
   39.1440   26.9670   34.4290 C   0  0  0  0  0  0  0  0  0  0  0  0
   38.2890   27.5090   35.3910 C   0  0  0  0  0  0  0  0  0  0  0  0
   38.4880   27.6810   36.4370 H   0  0  0  0  0  0  0  0  0  0  0  0
   37.0240   27.8670   34.9200 C   0  0  0  0  0  0  0  0  0  0  0  0
   36.2890   28.3000   35.6040 H   0  0  0  0  0  0  0  0  0  0  0  0
   36.6060   27.7180   33.6190 C   0  0  0  0  0  3  0  0  0  0  0  0
   37.5220   27.1700   32.7260 C   0  0  0  0  0  3  0  0  0  0  0  0
   38.7570   26.8160   33.1680 N   0  0  0  0  0  0  0  0  0  0  0  0
  1 12  1  0  0  0  0
  2 13  1  0  0  0  0
  2  1  2  0  0  0  0
  3  2  1  0  0  0  0
  4  3  2  0  0  0  0
  4  5  1  0  0  0  0
  5  6  2  0  0  0  0
  6  1  1  0  0  0  0
  7  5  1  0  0  0  0
  8  7  1  0  0  0  0
  8 15  1  0  0  0  0
  9  8  1  0  0  0  0
  9 18  1  0  0  0  0
 10  9  1  0  0  0  0
 10 20  1  0  0  0  0
 10 11  1  0  0  0  0
 11  7  1  0  0  0  0
 11 21  1  1  0  0  0
 14  3  1  0  0  0  0
 16  8  1  0  0  0  0
 17  9  1  0  0  0  0
 19 10  1  0  0  0  0
 22 11  1  0  0  0  0
 22 23  1  0  0  0  0
 23 24  1  0  0  0  0
 25 23  2  0  0  0  0
 25 26  1  0  0  0  0
 27 25  1  0  0  0  0
 28 29  1  0  0  0  0
 28 27  2  0  0  0  0
 29 22  2  0  0  0  0
M  END
>  <minimizedAffinity>
-4.68245745

$$$$

 OpenBabel03262523203D

 29 31  0  0  1  0  0  0  0  0999 V2000
   35.9870   29.8810   32.3170 C   0  0  0  0  0  0  0  0  0  0  0  0
   36.4150   30.4050   31.0700 C   0  0  0  0  0  0  0  0  0  0  0  0
   36.7280   29.4910   30.0500 C   0  0  0  0  0  0  0  0  0  0  0  0
   36.6080   28.1600   30.2940 N   0  0  0  0  0  0  0  0  0  0  0  0
   36.1990   27.7000   31.4910 C   0  0  0  0  0  0  0  0  0  0  0  0
   35.8970   28.5450   32.4760 N   0  0  0  0  0  0  0  0  0  0  0  0
   36.0890   26.2760   31.6990 N   0  0  0  0  0  0  0  0  0  0  0  0
   35.2150   25.4340   30.8920 C   0  0  0  0  0  0  0  0  0  0  0  0
   35.6560   24.0450   31.1920 C   0  0  0  0  0  0  0  0  0  0  0  0
   36.8820   24.1550   32.0520 C   0  0  0  0  0  0  0  0  0  0  0  0
   36.8000   25.5080   32.6960 C   0  0  1  0  0  0  0  0  0  0  0  0
   35.7360   30.5360   33.1310 H   0  0  0  0  0  0  0  0  0  0  0  0
   36.4940   31.4730   30.9250 H   0  0  0  0  0  0  0  0  0  0  0  0
   37.0580   29.8580   29.0850 H   0  0  0  0  0  0  0  0  0  0  0  0
   34.1830   25.5490   31.3380 H   0  0  0  0  0  0  0  0  0  0  0  0
   35.2050   25.7070   29.8310 H   0  0  0  0  0  0  0  0  0  0  0  0
   35.8700   23.5500   30.2000 H   0  0  0  0  0  0  0  0  0  0  0  0
   34.8620   23.4140   31.6560 H   0  0  0  0  0  0  0  0  0  0  0  0
   37.7540   24.0710   31.3530 H   0  0  0  0  0  0  0  0  0  0  0  0
   36.9010   23.3980   32.8690 H   0  0  0  0  0  0  0  0  0  0  0  0
   36.1330   25.4180   33.5790 H   0  0  0  0  0  0  0  0  0  0  0  0
   38.1390   26.0640   33.0180 C   0  0  0  0  0  0  0  0  0  0  0  0
   38.3000   26.5120   34.3310 C   0  0  0  0  0  0  0  0  0  0  0  0
   37.5780   26.5010   35.1320 H   0  0  0  0  0  0  0  0  0  0  0  0
   39.5630   27.0340   34.6240 C   0  0  0  0  0  0  0  0  0  0  0  0
   39.7790   27.4080   35.6290 H   0  0  0  0  0  0  0  0  0  0  0  0
   40.5970   27.1220   33.7240 C   0  0  0  0  0  3  0  0  0  0  0  0
   40.3500   26.6530   32.4370 C   0  0  0  0  0  3  0  0  0  0  0  0
   39.1280   26.1420   32.1360 N   0  0  0  0  0  0  0  0  0  0  0  0
  1  6  1  0  0  0  0
  1 12  1  0  0  0  0
  2  1  2  0  0  0  0
  3  4  2  0  0  0  0
  3  2  1  0  0  0  0
  4  5  1  0  0  0  0
  5  7  1  0  0  0  0
  5  6  2  0  0  0  0
  7 11  1  0  0  0  0
  8  9  1  0  0  0  0
  8 15  1  0  0  0  0
  8  7  1  0  0  0  0
  9 18  1  0  0  0  0
  9 10  1  0  0  0  0
 10 11  1  0  0  0  0
 10 20  1  0  0  0  0
 11 22  1  0  0  0  0
 11 21  1  1  0  0  0
 13  2  1  0  0  0  0
 14  3  1  0  0  0  0
 16  8  1  0  0  0  0
 17  9  1  0  0  0  0
 19 10  1  0  0  0  0
 22 23  1  0  0  0  0
 23 25  2  0  0  0  0
 23 24  1  0  0  0  0
 25 26  1  0  0  0  0
 27 25  1  0  0  0  0
 28 27  2  0  0  0  0
 29 28  1  0  0  0  0
 29 22  2  0  0  0  0
M  END
>  <minimizedAffinity>
-4.6259346

$$$$

 OpenBabel03262523203D

 29 31  0  0  1  0  0  0  0  0999 V2000
   40.0340   22.7130   37.7130 C   0  0  0  0  0  0  0  0  0  0  0  0
   39.0550   23.2780   38.5720 C   0  0  0  0  0  0  0  0  0  0  0  0
   37.8080   23.6060   38.0140 C   0  0  0  0  0  0  0  0  0  0  0  0
   37.5910   23.3730   36.6940 N   0  0  0  0  0  0  0  0  0  0  0  0
   38.5450   22.8360   35.9100 C   0  0  0  0  0  0  0  0  0  0  0  0
   39.7360   22.5160   36.4140 N   0  0  0  0  0  0  0  0  0  0  0  0
   38.2630   22.6080   34.5130 N   0  0  0  0  0  0  0  0  0  0  0  0
   37.1780   21.7450   34.0660 C   0  0  0  0  0  0  0  0  0  0  0  0
   37.0240   22.0590   32.6200 C   0  0  0  0  0  0  0  0  0  0  0  0
   37.9360   23.2160   32.3280 C   0  0  0  0  0  0  0  0  0  0  0  0
   38.9860   23.1790   33.3990 C   0  0  1  0  0  0  0  0  0  0  0  0
   41.0040   22.4450   38.0890 H   0  0  0  0  0  0  0  0  0  0  0  0
   39.2770   23.4450   39.6170 H   0  0  0  0  0  0  0  0  0  0  0  0
   37.0390   24.0400   38.6430 H   0  0  0  0  0  0  0  0  0  0  0  0
   37.5810   20.6910   34.1270 H   0  0  0  0  0  0  0  0  0  0  0  0
   36.2680   21.8400   34.6690 H   0  0  0  0  0  0  0  0  0  0  0  0
   35.9360   22.3170   32.4570 H   0  0  0  0  0  0  0  0  0  0  0  0
   37.2100   21.1870   31.9500 H   0  0  0  0  0  0  0  0  0  0  0  0
   37.2960   24.1340   32.3950 H   0  0  0  0  0  0  0  0  0  0  0  0
   38.4560   23.1150   31.3480 H   0  0  0  0  0  0  0  0  0  0  0  0
   39.7530   22.4380   33.0900 H   0  0  0  0  0  0  0  0  0  0  0  0
   39.5450   24.5230   33.6920 C   0  0  0  0  0  0  0  0  0  0  0  0
   38.6290   25.5760   33.6380 C   0  0  0  0  0  0  0  0  0  0  0  0
   37.5750   25.5320   33.4130 H   0  0  0  0  0  0  0  0  0  0  0  0
   39.1650   26.8370   33.9150 C   0  0  0  0  0  0  0  0  0  0  0  0
   38.5200   27.7200   33.8960 H   0  0  0  0  0  0  0  0  0  0  0  0
   40.4830   27.0730   34.2210 C   0  0  0  0  0  3  0  0  0  0  0  0
   41.3270   25.9670   34.2520 C   0  0  0  0  0  3  0  0  0  0  0  0
   40.8220   24.7340   33.9860 N   0  0  0  0  0  0  0  0  0  0  0  0
  1 12  1  0  0  0  0
  1  2  1  0  0  0  0
  2 13  1  0  0  0  0
  3  2  2  0  0  0  0
  3 14  1  0  0  0  0
  4  3  1  0  0  0  0
  5  6  1  0  0  0  0
  5  4  2  0  0  0  0
  6  1  2  0  0  0  0
  7  5  1  0  0  0  0
  8 15  1  0  0  0  0
  8  7  1  0  0  0  0
  8 16  1  0  0  0  0
  9  8  1  0  0  0  0
 10 19  1  0  0  0  0
 10  9  1  0  0  0  0
 10 11  1  0  0  0  0
 11 21  1  6  0  0  0
 11 22  1  0  0  0  0
 11  7  1  0  0  0  0
 17  9  1  0  0  0  0
 18  9  1  0  0  0  0
 20 10  1  0  0  0  0
 22 29  1  0  0  0  0
 23 22  2  0  0  0  0
 23 25  1  0  0  0  0
 24 23  1  0  0  0  0
 25 27  2  0  0  0  0
 26 25  1  0  0  0  0
 27 28  1  0  0  0  0
 29 28  2  0  0  0  0
M  END
>  <minimizedAffinity>
-4.5809226

$$$$

 OpenBabel03262523203D

 29 31  0  0  1  0  0  0  0  0999 V2000
   37.2660   23.4090   31.2740 C   0  0  0  0  0  0  0  0  0  0  0  0
   36.0610   24.1560   31.2180 C   0  0  0  0  0  0  0  0  0  0  0  0
   36.0660   25.4480   31.7700 C   0  0  0  0  0  0  0  0  0  0  0  0
   37.2090   25.9250   32.3280 N   0  0  0  0  0  0  0  0  0  0  0  0
   38.3330   25.1850   32.3640 C   0  0  0  0  0  0  0  0  0  0  0  0
   38.3550   23.9570   31.8480 N   0  0  0  0  0  0  0  0  0  0  0  0
   39.5210   25.7390   32.9690 N   0  0  0  0  0  0  0  0  0  0  0  0
   40.1450   26.9650   32.4860 C   0  0  0  0  0  0  0  0  0  0  0  0
   41.0920   27.3510   33.5670 C   0  0  0  0  0  0  0  0  0  0  0  0
   40.8570   26.4030   34.7090 C   0  0  0  0  0  0  0  0  0  0  0  0
   40.2360   25.1830   34.0950 C   0  0  1  0  0  0  0  0  0  0  0  0
   37.3150   22.4160   30.8670 H   0  0  0  0  0  0  0  0  0  0  0  0
   35.1760   23.7320   30.7620 H   0  0  0  0  0  0  0  0  0  0  0  0
   35.1610   26.0450   31.7430 H   0  0  0  0  0  0  0  0  0  0  0  0
   40.7740   26.6580   31.5990 H   0  0  0  0  0  0  0  0  0  0  0  0
   39.4230   27.7350   32.1930 H   0  0  0  0  0  0  0  0  0  0  0  0
   40.8540   28.4210   33.8410 H   0  0  0  0  0  0  0  0  0  0  0  0
   42.1580   27.3740   33.2410 H   0  0  0  0  0  0  0  0  0  0  0  0
   40.1540   26.9310   35.4040 H   0  0  0  0  0  0  0  0  0  0  0  0
   41.8040   26.0840   35.2010 H   0  0  0  0  0  0  0  0  0  0  0  0
   41.0590   24.5590   33.6870 H   0  0  0  0  0  0  0  0  0  0  0  0
   39.3560   24.4560   35.0450 C   0  0  0  0  0  0  0  0  0  0  0  0
   38.5860   25.2630   35.8850 C   0  0  0  0  0  0  0  0  0  0  0  0
   38.5530   26.3410   35.9260 H   0  0  0  0  0  0  0  0  0  0  0  0
   37.7620   24.5700   36.7750 C   0  0  0  0  0  0  0  0  0  0  0  0
   37.1240   25.1220   37.4700 H   0  0  0  0  0  0  0  0  0  0  0  0
   37.6810   23.2010   36.8560 C   0  0  0  0  0  3  0  0  0  0  0  0
   38.4830   22.4730   35.9830 C   0  0  0  0  0  3  0  0  0  0  0  0
   39.2900   23.1310   35.1100 N   0  0  0  0  0  0  0  0  0  0  0  0
  1  6  1  0  0  0  0
  2  1  2  0  0  0  0
  2  3  1  0  0  0  0
  3  4  2  0  0  0  0
  4  5  1  0  0  0  0
  5  7  1  0  0  0  0
  6  5  2  0  0  0  0
  7 11  1  0  0  0  0
  8  7  1  0  0  0  0
  8  9  1  0  0  0  0
  9 17  1  0  0  0  0
  9 10  1  0  0  0  0
 10 20  1  0  0  0  0
 10 19  1  0  0  0  0
 11 21  1  6  0  0  0
 11 10  1  0  0  0  0
 11 22  1  0  0  0  0
 12  1  1  0  0  0  0
 13  2  1  0  0  0  0
 14  3  1  0  0  0  0
 15  8  1  0  0  0  0
 16  8  1  0  0  0  0
 18  9  1  0  0  0  0
 22 29  2  0  0  0  0
 22 23  1  0  0  0  0
 23 24  1  0  0  0  0
 23 25  2  0  0  0  0
 25 27  1  0  0  0  0
 25 26  1  0  0  0  0
 28 27  2  0  0  0  0
 29 28  1  0  0  0  0
M  END
>  <minimizedAffinity>
-4.41431379

$$$$

 OpenBabel03262523203D

 29 31  0  0  1  0  0  0  0  0999 V2000
   36.3620   24.0660   31.2610 C   0  0  0  0  0  0  0  0  0  0  0  0
   35.2890   24.9880   31.1520 C   0  0  0  0  0  0  0  0  0  0  0  0
   35.6020   26.3580   31.1540 C   0  0  0  0  0  0  0  0  0  0  0  0
   36.9010   26.7400   31.2580 N   0  0  0  0  0  0  0  0  0  0  0  0
   37.8930   25.8340   31.3610 C   0  0  0  0  0  0  0  0  0  0  0  0
   37.6230   24.5300   31.3610 N   0  0  0  0  0  0  0  0  0  0  0  0
   39.2570   26.2930   31.4690 N   0  0  0  0  0  0  0  0  0  0  0  0
   39.8890   27.1140   30.4440 C   0  0  0  0  0  0  0  0  0  0  0  0
   41.1230   27.6350   31.0930 C   0  0  0  0  0  0  0  0  0  0  0  0
   41.0690   27.2100   32.5320 C   0  0  0  0  0  0  0  0  0  0  0  0
   40.1590   26.0180   32.5640 C   0  0  1  0  0  0  0  0  0  0  0  0
   36.1770   23.0080   31.2640 H   0  0  0  0  0  0  0  0  0  0  0  0
   34.2700   24.6340   31.0720 H   0  0  0  0  0  0  0  0  0  0  0  0
   34.8060   27.0890   31.0730 H   0  0  0  0  0  0  0  0  0  0  0  0
   40.2250   26.3940   29.6410 H   0  0  0  0  0  0  0  0  0  0  0  0
   39.2220   27.8730   30.0210 H   0  0  0  0  0  0  0  0  0  0  0  0
   41.1030   28.7580   30.9740 H   0  0  0  0  0  0  0  0  0  0  0  0
   42.0630   27.3150   30.5860 H   0  0  0  0  0  0  0  0  0  0  0  0
   40.6410   28.0830   33.0910 H   0  0  0  0  0  0  0  0  0  0  0  0
   42.0610   26.8840   32.9200 H   0  0  0  0  0  0  0  0  0  0  0  0
   40.7620   25.1300   32.2780 H   0  0  0  0  0  0  0  0  0  0  0  0
   39.4660   25.8680   33.8690 C   0  0  0  0  0  0  0  0  0  0  0  0
   39.1780   27.0620   34.5330 C   0  0  0  0  0  0  0  0  0  0  0  0
   39.3940   28.0690   34.2160 H   0  0  0  0  0  0  0  0  0  0  0  0
   38.5260   26.9100   35.7600 C   0  0  0  0  0  0  0  0  0  0  0  0
   38.2610   27.7920   36.3500 H   0  0  0  0  0  0  0  0  0  0  0  0
   38.1760   25.7020   36.3120 C   0  0  0  0  0  3  0  0  0  0  0  0
   38.5010   24.5620   35.5830 C   0  0  0  0  0  3  0  0  0  0  0  0
   39.1340   24.6910   34.3880 N   0  0  0  0  0  0  0  0  0  0  0  0
  1 12  1  0  0  0  0
  1  6  1  0  0  0  0
  2  3  1  0  0  0  0
  2  1  2  0  0  0  0
  3  4  2  0  0  0  0
  4  5  1  0  0  0  0
  5  7  1  0  0  0  0
  6  5  2  0  0  0  0
  7 11  1  0  0  0  0
  8  9  1  0  0  0  0
  8  7  1  0  0  0  0
  9 10  1  0  0  0  0
 10 11  1  0  0  0  0
 10 20  1  0  0  0  0
 10 19  1  0  0  0  0
 11 21  1  6  0  0  0
 11 22  1  0  0  0  0
 13  2  1  0  0  0  0
 14  3  1  0  0  0  0
 15  8  1  0  0  0  0
 16  8  1  0  0  0  0
 17  9  1  0  0  0  0
 18  9  1  0  0  0  0
 22 29  2  0  0  0  0
 22 23  1  0  0  0  0
 23 25  2  0  0  0  0
 24 23  1  0  0  0  0
 25 27  1  0  0  0  0
 25 26  1  0  0  0  0
 28 27  2  0  0  0  0
 29 28  1  0  0  0  0
M  END
>  <minimizedAffinity>
-4.40955687

$$$$

 OpenBabel03262523203D

 29 31  0  0  1  0  0  0  0  0999 V2000
   38.9370   23.9000   31.0110 C   0  0  0  0  0  0  0  0  0  0  0  0
   37.8190   23.0460   30.8280 C   0  0  0  0  0  0  0  0  0  0  0  0
   36.6310   23.3710   31.5040 C   0  0  0  0  0  0  0  0  0  0  0  0
   36.5990   24.4750   32.2940 N   0  0  0  0  0  0  0  0  0  0  0  0
   37.6820   25.2610   32.4440 C   0  0  0  0  0  0  0  0  0  0  0  0
   38.8210   24.9760   31.8140 N   0  0  0  0  0  0  0  0  0  0  0  0
   37.5950   26.4230   33.2960 N   0  0  0  0  0  0  0  0  0  0  0  0
   36.6420   27.4990   33.0550 C   0  0  0  0  0  0  0  0  0  0  0  0
   36.6480   28.2900   34.3160 C   0  0  0  0  0  0  0  0  0  0  0  0
   37.5010   27.5380   35.2960 C   0  0  0  0  0  0  0  0  0  0  0  0
   38.4080   26.6800   34.4630 C   0  0  1  0  0  0  0  0  0  0  0  0
   39.8690   23.6970   30.5180 H   0  0  0  0  0  0  0  0  0  0  0  0
   37.8940   22.1770   30.1880 H   0  0  0  0  0  0  0  0  0  0  0  0
   35.7580   22.7380   31.3860 H   0  0  0  0  0  0  0  0  0  0  0  0
   37.1120   28.1520   32.2610 H   0  0  0  0  0  0  0  0  0  0  0  0
   35.6590   27.1450   32.7250 H   0  0  0  0  0  0  0  0  0  0  0  0
   35.5740   28.3720   34.6540 H   0  0  0  0  0  0  0  0  0  0  0  0
   36.9810   29.3460   34.1790 H   0  0  0  0  0  0  0  0  0  0  0  0
   36.7910   26.9280   35.9130 H   0  0  0  0  0  0  0  0  0  0  0  0
   38.1460   28.2100   35.9070 H   0  0  0  0  0  0  0  0  0  0  0  0
   39.2610   27.3130   34.1380 H   0  0  0  0  0  0  0  0  0  0  0  0
   38.8240   25.4420   35.1700 C   0  0  0  0  0  0  0  0  0  0  0  0
   37.8690   24.8940   36.0290 C   0  0  0  0  0  0  0  0  0  0  0  0
   36.8750   25.2580   36.2390 H   0  0  0  0  0  0  0  0  0  0  0  0
   38.2700   23.7300   36.6900 C   0  0  0  0  0  0  0  0  0  0  0  0
   37.5860   23.2320   37.3820 H   0  0  0  0  0  0  0  0  0  0  0  0
   39.4980   23.1320   36.5380 C   0  0  0  0  0  3  0  0  0  0  0  0
   40.3890   23.7450   35.6620 C   0  0  0  0  0  3  0  0  0  0  0  0
   40.0150   24.8770   35.0110 N   0  0  0  0  0  0  0  0  0  0  0  0
  1  6  1  0  0  0  0
  2  1  2  0  0  0  0
  2  3  1  0  0  0  0
  3  4  2  0  0  0  0
  4  5  1  0  0  0  0
  5  7  1  0  0  0  0
  6  5  2  0  0  0  0
  7 11  1  0  0  0  0
  8  7  1  0  0  0  0
  8  9  1  0  0  0  0
  9 17  1  0  0  0  0
  9 10  1  0  0  0  0
 10 20  1  0  0  0  0
 10 19  1  0  0  0  0
 11 21  1  6  0  0  0
 11 22  1  0  0  0  0
 11 10  1  0  0  0  0
 12  1  1  0  0  0  0
 13  2  1  0  0  0  0
 14  3  1  0  0  0  0
 15  8  1  0  0  0  0
 16  8  1  0  0  0  0
 18  9  1  0  0  0  0
 22 23  1  0  0  0  0
 23 24  1  0  0  0  0
 23 25  2  0  0  0  0
 25 26  1  0  0  0  0
 27 25  1  0  0  0  0
 28 27  2  0  0  0  0
 29 22  2  0  0  0  0
 29 28  1  0  0  0  0
M  END
>  <minimizedAffinity>
-4.28213835

$$$$

 OpenBabel03262523203D

 29 31  0  0  1  0  0  0  0  0999 V2000
   36.2510   30.1250   30.5720 C   0  0  0  0  0  0  0  0  0  0  0  0
   37.0380   29.0060   30.9510 C   0  0  0  0  0  0  0  0  0  0  0  0
   36.5720   28.2070   32.0080 C   0  0  0  0  0  0  0  0  0  0  0  0
   35.4020   28.5330   32.6180 N   0  0  0  0  0  0  0  0  0  0  0  0
   34.6830   29.6030   32.2310 C   0  0  0  0  0  0  0  0  0  0  0  0
   35.1030   30.3770   31.2310 N   0  0  0  0  0  0  0  0  0  0  0  0
   33.4480   29.9050   32.9130 N   0  0  0  0  0  0  0  0  0  0  0  0
   32.3330   28.9670   32.9610 C   0  0  0  0  0  0  0  0  0  0  0  0
   31.4350   29.5100   34.0170 C   0  0  0  0  0  0  0  0  0  0  0  0
   32.1560   30.6670   34.6460 C   0  0  0  0  0  0  0  0  0  0  0  0
   33.1460   31.1300   33.6180 C   0  0  1  0  0  0  0  0  0  0  0  0
   36.5630   30.7680   29.7700 H   0  0  0  0  0  0  0  0  0  0  0  0
   37.9630   28.7890   30.4340 H   0  0  0  0  0  0  0  0  0  0  0  0
   37.1490   27.3450   32.3230 H   0  0  0  0  0  0  0  0  0  0  0  0
   31.7880   29.0900   31.9790 H   0  0  0  0  0  0  0  0  0  0  0  0
   32.6450   27.9260   33.0960 H   0  0  0  0  0  0  0  0  0  0  0  0
   31.2490   28.6700   34.7490 H   0  0  0  0  0  0  0  0  0  0  0  0
   30.4220   29.7870   33.6430 H   0  0  0  0  0  0  0  0  0  0  0  0
   32.6570   30.2540   35.5590 H   0  0  0  0  0  0  0  0  0  0  0  0
   31.4790   31.5240   34.8660 H   0  0  0  0  0  0  0  0  0  0  0  0
   32.6060   31.7930   32.9090 H   0  0  0  0  0  0  0  0  0  0  0  0
   34.3420   31.7640   34.2270 C   0  0  0  0  0  0  0  0  0  0  0  0
   34.8080   31.1600   35.3970 C   0  0  0  0  0  0  0  0  0  0  0  0
   34.4080   30.2980   35.9060 H   0  0  0  0  0  0  0  0  0  0  0  0
   35.9340   31.7640   35.9640 C   0  0  0  0  0  0  0  0  0  0  0  0
   36.3670   31.3580   36.8820 H   0  0  0  0  0  0  0  0  0  0  0  0
   36.5690   32.8670   35.4460 C   0  0  0  0  0  3  0  0  0  0  0  0
   36.0390   33.4050   34.2780 C   0  0  0  0  0  3  0  0  0  0  0  0
   34.9450   32.8300   33.7140 N   0  0  0  0  0  0  0  0  0  0  0  0
  1  2  2  0  0  0  0
  1  6  1  0  0  0  0
  2  3  1  0  0  0  0
  3 14  1  0  0  0  0
  3  4  2  0  0  0  0
  5  4  1  0  0  0  0
  5  7  1  0  0  0  0
  6  5  2  0  0  0  0
  7  8  1  0  0  0  0
  7 11  1  0  0  0  0
  8 16  1  0  0  0  0
  8  9  1  0  0  0  0
  9 10  1  0  0  0  0
  9 17  1  0  0  0  0
 10 20  1  0  0  0  0
 10 19  1  0  0  0  0
 11 21  1  6  0  0  0
 11 22  1  0  0  0  0
 11 10  1  0  0  0  0
 12  1  1  0  0  0  0
 13  2  1  0  0  0  0
 15  8  1  0  0  0  0
 18  9  1  0  0  0  0
 22 23  1  0  0  0  0
 23 24  1  0  0  0  0
 23 25  2  0  0  0  0
 25 26  1  0  0  0  0
 27 25  1  0  0  0  0
 28 27  2  0  0  0  0
 29 22  2  0  0  0  0
 29 28  1  0  0  0  0
M  END
>  <minimizedAffinity>
-4.27150631

$$$$
