
 OpenBabel03262522393D

 40 44  0  0  0  0  0  0  0  0999 V2000
   38.7880   31.5540   47.0360 C   0  0  0  0  0  0  0  0  0  0  0  0
   39.4540   32.7530   47.0100 C   0  0  0  0  0  0  0  0  0  0  0  0
   40.2820   33.1310   45.9760 C   0  0  0  0  0  0  0  0  0  0  0  0
   40.4690   32.2930   44.9090 C   0  0  0  0  0  0  0  0  0  0  0  0
   39.7850   31.0960   44.9660 C   0  0  0  0  0  0  0  0  0  0  0  0
   38.9860   30.7400   45.9730 N   0  0  0  0  0  0  0  0  0  0  0  0
   39.3060   33.4140   47.8530 H   0  0  0  0  0  0  0  0  0  0  0  0
   40.7570   34.0980   46.0600 H   0  0  0  0  0  0  0  0  0  0  0  0
   41.1140   32.5700   44.0880 H   0  0  0  0  0  0  0  0  0  0  0  0
   39.1420   29.0510   43.6710 C   0  0  0  0  0  0  0  0  0  0  0  0
   39.9430   30.1670   43.8670 C   0  0  0  0  0  0  0  0  0  0  0  0
   40.9160   30.3070   42.8980 C   0  0  0  0  0  0  0  0  0  0  0  0
   41.1190   29.4610   41.8300 C   0  0  0  0  0  0  0  0  0  0  0  0
   41.9970   29.4400   40.8100 N   0  0  0  0  0  0  0  0  0  0  0  0
   41.7180   28.3570   40.0550 C   0  0  0  0  0  0  0  0  0  0  0  0
   40.6440   27.6600   40.5850 C   0  0  0  0  0  0  0  0  0  0  0  0
   40.2810   28.3740   41.7050 C   0  0  0  0  0  0  0  0  0  0  0  0
   39.2950   28.1670   42.6210 C   0  0  0  0  0  0  0  0  0  0  0  0
   38.3420   28.8550   44.3860 H   0  0  0  0  0  0  0  0  0  0  0  0
   41.6040   31.1470   42.9470 H   0  0  0  0  0  0  0  0  0  0  0  0
   42.7370   30.1420   40.6640 H   0  0  0  0  0  0  0  0  0  0  0  0
   42.3030   28.1350   39.1700 H   0  0  0  0  0  0  0  0  0  0  0  0
   40.2340   26.7500   40.1500 H   0  0  0  0  0  0  0  0  0  0  0  0
   38.6500   27.3060   42.5010 H   0  0  0  0  0  0  0  0  0  0  0  0
   37.2880   30.9200   50.4350 C   0  0  0  0  0  0  0  0  0  0  0  0
   38.2010   31.3530   49.4710 C   0  0  0  0  0  0  0  0  0  0  0  0
   37.9090   31.1440   48.1270 C   0  0  0  0  0  0  0  0  0  0  0  0
   36.7560   30.5340   47.8460 N   0  0  0  0  0  0  0  0  0  0  0  0
   35.8740   30.1160   48.7790 C   0  0  0  0  0  0  0  0  0  0  0  0
   36.1450   30.3100   50.0660 N   0  0  0  0  0  0  0  0  0  0  0  0
   37.6180   31.1340   51.4470 H   0  0  0  0  0  0  0  0  0  0  0  0
   39.1260   31.8430   49.7160 H   0  0  0  0  0  0  0  0  0  0  0  0
   34.6390   29.4580   48.3660 C   0  0  0  0  0  0  0  0  0  0  0  0
   34.0660   28.5110   49.1870 C   0  0  0  0  0  0  0  0  0  0  0  0
   34.5670   28.2930   50.1210 H   0  0  0  0  0  0  0  0  0  0  0  0
   32.9020   27.8790   48.8150 C   0  0  0  0  0  0  0  0  0  0  0  0
   32.5020   27.1460   49.5030 H   0  0  0  0  0  0  0  0  0  0  0  0
   32.3100   28.2010   47.6100 C   0  0  0  0  0  0  0  0  0  0  0  0
   32.9070   29.1630   46.7890 C   0  0  0  0  0  0  0  0  0  0  0  0
   34.0540   29.7620   47.1940 N   0  0  0  0  0  0  0  0  0  0  0  0
  1 27  1  0  0  0  0
  2  1  1  0  0  0  0
  2  7  1  0  0  0  0
  3  8  1  0  0  0  0
  3  2  2  0  0  0  0
  4  5  2  0  0  0  0
  4  3  1  0  0  0  0
  5  6  1  0  0  0  0
  6  1  2  0  0  0  0
  9  4  1  0  0  0  0
 10 11  1  0  0  0  0
 10 19  1  0  0  0  0
 11  5  1  0  0  0  0
 12 20  1  0  0  0  0
 12 11  2  0  0  0  0
 13 12  1  0  0  0  0
 14 13  1  0  0  0  0
 15 16  2  0  0  0  0
 15 14  1  0  0  0  0
 16 17  1  0  0  0  0
 17 13  2  0  0  0  0
 17 18  1  0  0  0  0
 18 10  2  0  0  0  0
 21 14  1  0  0  0  0
 22 15  1  0  0  0  0
 23 16  1  0  0  0  0
 24 18  1  0  0  0  0
 25 31  1  0  0  0  0
 26 32  1  0  0  0  0
 26 25  2  0  0  0  0
 27 26  1  0  0  0  0
 28 27  2  0  0  0  0
 28 29  1  0  0  0  0
 29 30  2  0  0  0  0
 30 25  1  0  0  0  0
 33 29  1  0  0  0  0
 33 34  1  0  0  0  0
 34 35  1  0  0  0  0
 36 34  2  0  0  0  0
 36 37  1  0  0  0  0
 38 36  1  0  0  0  0
 39 40  1  0  0  0  0
 39 38  2  0  0  0  0
 40 33  2  0  0  0  0
M  END
>  <minimizedAffinity>
-7.50492954

>  <minimizedRMSD>
1.26261008

$$$$
