
 OpenBabel03272510013D

 20 21  0  0  0  0  0  0  0  0999 V2000
   38.1380   32.8190   49.4120 C   0  0  0  0  0  0  0  0  0  0  0  0
   38.5050   32.6850   48.0670 C   0  0  0  0  0  0  0  0  0  0  0  0
   37.9670   31.6220   47.3570 C   0  0  0  0  0  0  0  0  0  0  0  0
   37.1180   30.7750   48.0010 N   0  0  0  0  0  0  0  0  0  0  0  0
   36.7910   30.9380   49.2960 C   0  0  0  0  0  0  0  0  0  0  0  0
   37.3040   31.9580   49.9840 N   0  0  0  0  0  0  0  0  0  0  0  0
   38.5870   33.6660   49.9180 H   0  0  0  0  0  0  0  0  0  0  0  0
   39.1830   33.3820   47.5950 H   0  0  0  0  0  0  0  0  0  0  0  0
   38.3110   31.4270   45.9520 C   0  0  0  0  0  0  0  0  0  0  0  0
   38.0490   32.4410   45.0560 C   0  0  0  0  0  0  0  0  0  0  0  0
   37.6010   33.3640   45.3660 H   0  0  0  0  0  0  0  0  0  0  0  0
   38.4090   32.1630   43.7490 C   0  0  0  0  0  0  0  0  0  0  0  0
   38.2280   32.9240   42.9920 H   0  0  0  0  0  0  0  0  0  0  0  0
   38.9710   30.9640   43.4490 C   0  0  0  0  0  3  0  0  0  0  0  0
   39.2290   29.9540   44.3620 C   0  0  0  0  0  3  0  0  0  0  0  0
   38.8700   30.2500   45.6180 N   0  0  0  0  0  0  0  0  0  0  0  0
   35.8560   29.9590   49.9090 C   0  0  0  0  0  0  0  0  0  0  0  0
   36.1200   29.7360   51.2400 F   0  0  0  0  0  0  0  0  0  0  0  0
   34.5360   30.4400   49.8540 F   0  0  0  0  0  0  0  0  0  0  0  0
   35.8280   28.7530   49.2740 F   0  0  0  0  0  0  0  0  0  0  0  0
  1  7  1  0  0  0  0
  1  6  1  0  0  0  0
  2  1  2  0  0  0  0
  3  4  2  0  0  0  0
  3  2  1  0  0  0  0
  4  5  1  0  0  0  0
  5 17  1  0  0  0  0
  5  6  2  0  0  0  0
  8  2  1  0  0  0  0
  9  3  1  0  0  0  0
 10 11  1  0  0  0  0
 10  9  2  0  0  0  0
 12 10  1  0  0  0  0
 13 12  1  0  0  0  0
 14 12  2  0  0  0  0
 14 15  1  0  0  0  0
 15 16  2  0  0  0  0
 16  9  1  0  0  0  0
 17 18  1  0  0  0  0
 19 17  1  0  0  0  0
 20 17  1  0  0  0  0
M  END
>  <minimizedAffinity>
-5.1914115

>  <minimizedRMSD>
1.5197407

$$$$
