
 OpenBabel03272504263D

 41 44  0  0  0  0  0  0  0  0999 V2000
   34.6280   29.2740   48.0790 C   0  0  0  0  0  0  0  0  0  0  0  0
   34.6560   27.9860   48.4810 C   0  0  0  0  0  0  0  0  0  0  0  0
   33.7240   27.1150   48.0780 C   0  0  0  0  0  0  0  0  0  0  0  0
   32.7350   27.5440   47.2490 N   0  0  0  0  0  0  0  0  0  0  0  0
   32.7160   28.8130   46.8590 C   0  0  0  0  0  0  0  0  0  0  0  0
   33.6460   29.6920   47.2600 N   0  0  0  0  0  0  0  0  0  0  0  0
   35.4560   27.6750   49.1410 H   0  0  0  0  0  0  0  0  0  0  0  0
   33.7850   26.0840   48.4280 H   0  0  0  0  0  0  0  0  0  0  0  0
   30.3130   28.9850   46.3780 C   0  0  0  0  0  0  0  0  0  0  0  0
   31.6350   29.1560   45.9650 C   0  0  0  0  0  0  0  0  0  0  0  0
   32.0010   29.6230   44.7170 C   0  0  0  0  0  0  0  0  0  0  0  0
   31.0150   29.9450   43.8060 C   0  0  0  0  0  0  0  0  0  0  0  0
   29.6840   29.8060   44.1280 C   0  0  0  0  0  0  0  0  0  0  0  0
   29.4210   29.3410   45.3760 C   0  0  0  0  0  0  0  0  0  0  0  0
   33.0410   29.7400   44.4430 H   0  0  0  0  0  0  0  0  0  0  0  0
   31.3140   30.3100   42.8320 H   0  0  0  0  0  0  0  0  0  0  0  0
   28.9150   30.0500   43.4340 H   0  0  0  0  0  0  0  0  0  0  0  0
   28.3560   29.2340   45.6220 H   0  0  0  0  0  0  0  0  0  0  0  0
   29.8320   28.4480   47.8800 S   0  0  0  0  0  0  0  0  0  0  0  0
   29.3930   27.0150   47.4340 O   0  0  0  0  0  0  0  0  0  0  0  0
   28.6020   29.2330   48.2610 O   0  0  0  0  0  0  0  0  0  0  0  0
   30.1300   27.8460   49.3300 C   0  0  0  0  0  0  0  0  0  0  0  0
   29.7180   26.5730   49.7790 F   0  0  0  0  0  0  0  0  0  0  0  0
   29.2360   28.4720   50.3200 F   0  0  0  0  0  0  0  0  0  0  0  0
   31.2080   28.3310   50.1340 F   0  0  0  0  0  0  0  0  0  0  0  0
   36.7130   31.5290   50.0980 C   0  0  0  0  0  0  0  0  0  0  0  0
   37.5760   32.0810   49.1330 C   0  0  0  0  0  0  0  0  0  0  0  0
   37.4200   31.6670   47.8190 C   0  0  0  0  0  0  0  0  0  0  0  0
   36.4480   30.7550   47.5320 N   0  0  0  0  0  0  0  0  0  0  0  0
   35.6280   30.2420   48.4960 C   0  0  0  0  0  0  0  0  0  0  0  0
   35.7710   30.6340   49.7660 N   0  0  0  0  0  0  0  0  0  0  0  0
   36.8470   31.8620   51.1190 H   0  0  0  0  0  0  0  0  0  0  0  0
   38.3480   32.8010   49.3450 H   0  0  0  0  0  0  0  0  0  0  0  0
   38.2240   32.1320   46.6950 C   0  0  0  0  0  0  0  0  0  0  0  0
   39.4960   32.6420   46.8380 C   0  0  0  0  0  0  0  0  0  0  0  0
   39.9470   32.7130   47.8140 H   0  0  0  0  0  0  0  0  0  0  0  0
   40.2880   33.0920   45.8040 C   0  0  0  0  0  0  0  0  0  0  0  0
   41.2840   33.4860   45.9530 H   0  0  0  0  0  0  0  0  0  0  0  0
   39.7860   33.0360   44.5160 C   0  0  0  0  0  0  0  0  0  0  0  0
   38.5050   32.5220   44.3840 C   0  0  0  0  0  0  0  0  0  0  0  0
   37.7930   32.1040   45.4210 N   0  0  0  0  0  0  0  0  0  0  0  0
  1  2  1  0  0  0  0
  1 30  1  0  0  0  0
  2  7  1  0  0  0  0
  3  8  1  0  0  0  0
  3  2  2  0  0  0  0
  4  3  1  0  0  0  0
  5  4  2  0  0  0  0
  5  6  1  0  0  0  0
  6  1  2  0  0  0  0
  9 19  1  0  0  0  0
 10  9  1  0  0  0  0
 10  5  1  0  0  0  0
 11 10  2  0  0  0  0
 12 13  2  0  0  0  0
 12 11  1  0  0  0  0
 13 14  1  0  0  0  0
 14 18  1  0  0  0  0
 14  9  2  0  0  0  0
 15 11  1  0  0  0  0
 16 12  1  0  0  0  0
 17 13  1  0  0  0  0
 19 21  2  0  0  0  0
 19 22  1  0  0  0  0
 20 19  2  0  0  0  0
 22 23  1  0  0  0  0
 22 25  1  0  0  0  0
 22 24  1  0  0  0  0
 26 32  1  0  0  0  0
 27 33  1  0  0  0  0
 27 26  2  0  0  0  0
 28 27  1  0  0  0  0
 29 28  2  0  0  0  0
 29 30  1  0  0  0  0
 30 31  2  0  0  0  0
 31 26  1  0  0  0  0
 34 35  1  0  0  0  0
 34 28  1  0  0  0  0
 35 36  1  0  0  0  0
 37 38  1  0  0  0  0
 37 35  2  0  0  0  0
 39 37  1  0  0  0  0
 40 39  2  0  0  0  0
 40 41  1  0  0  0  0
 41 34  2  0  0  0  0
M  END
>  <minimizedAffinity>
-6.94462585

>  <minimizedRMSD>
1.73806703

$$$$
