
 OpenBabel03272510003D

 20 21  0  0  0  0  0  0  0  0999 V2000
   38.2340   31.4140   50.2210 C   0  0  0  0  0  0  0  0  0  0  0  0
   38.5150   31.4260   48.8490 C   0  0  0  0  0  0  0  0  0  0  0  0
   37.6590   30.7290   48.0110 C   0  0  0  0  0  0  0  0  0  0  0  0
   36.5990   30.0760   48.5630 N   0  0  0  0  0  0  0  0  0  0  0  0
   36.3630   30.0890   49.8880 C   0  0  0  0  0  0  0  0  0  0  0  0
   37.1830   30.7580   50.6990 N   0  0  0  0  0  0  0  0  0  0  0  0
   38.9350   31.9750   50.8280 H   0  0  0  0  0  0  0  0  0  0  0  0
   39.3690   31.9580   48.4520 H   0  0  0  0  0  0  0  0  0  0  0  0
   37.8980   30.7020   46.5710 C   0  0  0  0  0  0  0  0  0  0  0  0
   39.1960   30.7450   46.1120 C   0  0  0  0  0  0  0  0  0  0  0  0
   40.0300   30.7970   46.7820 H   0  0  0  0  0  0  0  0  0  0  0  0
   39.3220   30.7160   44.7330 C   0  0  0  0  0  0  0  0  0  0  0  0
   40.3220   30.7470   44.3060 H   0  0  0  0  0  0  0  0  0  0  0  0
   38.2070   30.6490   43.9610 C   0  0  0  0  0  3  0  0  0  0  0  0
   36.9070   30.6060   44.4380 C   0  0  0  0  0  3  0  0  0  0  0  0
   36.8160   30.6360   45.7730 N   0  0  0  0  0  0  0  0  0  0  0  0
   35.1800   29.3460   50.3940 C   0  0  0  0  0  0  0  0  0  0  0  0
   35.2430   29.1080   51.7470 F   0  0  0  0  0  0  0  0  0  0  0  0
   34.0060   30.0920   50.1880 F   0  0  0  0  0  0  0  0  0  0  0  0
   34.9660   28.1560   49.7630 F   0  0  0  0  0  0  0  0  0  0  0  0
  1  6  1  0  0  0  0
  1  7  1  0  0  0  0
  2  1  2  0  0  0  0
  3  4  2  0  0  0  0
  3  2  1  0  0  0  0
  4  5  1  0  0  0  0
  5 17  1  0  0  0  0
  5  6  2  0  0  0  0
  8  2  1  0  0  0  0
  9  3  1  0  0  0  0
 10  9  1  0  0  0  0
 10 11  1  0  0  0  0
 12 10  2  0  0  0  0
 13 12  1  0  0  0  0
 14 15  2  0  0  0  0
 14 12  1  0  0  0  0
 15 16  1  0  0  0  0
 16  9  2  0  0  0  0
 17 18  1  0  0  0  0
 19 17  1  0  0  0  0
 20 17  1  0  0  0  0
M  END
>  <minimizedAffinity>
-5.32163477

>  <minimizedRMSD>
1.07409728

$$$$
