
 OpenBabel03272510013D

 20 21  0  0  0  0  0  0  0  0999 V2000
   38.3150   31.2130   50.3410 C   0  0  0  0  0  0  0  0  0  0  0  0
   38.4630   31.5090   48.9810 C   0  0  0  0  0  0  0  0  0  0  0  0
   37.4750   31.0660   48.1150 C   0  0  0  0  0  0  0  0  0  0  0  0
   36.4230   30.3730   48.6300 N   0  0  0  0  0  0  0  0  0  0  0  0
   36.3170   30.1080   49.9460 C   0  0  0  0  0  0  0  0  0  0  0  0
   37.2630   30.5320   50.7840 N   0  0  0  0  0  0  0  0  0  0  0  0
   39.1150   31.5830   50.9720 H   0  0  0  0  0  0  0  0  0  0  0  0
   39.3160   32.0620   48.6130 H   0  0  0  0  0  0  0  0  0  0  0  0
   37.5720   31.3420   46.6850 C   0  0  0  0  0  0  0  0  0  0  0  0
   38.4540   32.3070   46.2530 C   0  0  0  0  0  0  0  0  0  0  0  0
   39.0680   32.8560   46.9370 H   0  0  0  0  0  0  0  0  0  0  0  0
   38.4750   32.4970   44.8810 C   0  0  0  0  0  0  0  0  0  0  0  0
   39.1520   33.2450   44.4750 H   0  0  0  0  0  0  0  0  0  0  0  0
   37.6600   31.7540   44.0900 C   0  0  0  0  0  3  0  0  0  0  0  0
   36.7780   30.7860   44.5400 C   0  0  0  0  0  3  0  0  0  0  0  0
   36.7780   30.6240   45.8690 N   0  0  0  0  0  0  0  0  0  0  0  0
   35.1300   29.3440   50.4110 C   0  0  0  0  0  0  0  0  0  0  0  0
   35.1650   29.0830   51.7610 F   0  0  0  0  0  0  0  0  0  0  0  0
   33.9540   30.0820   50.1910 F   0  0  0  0  0  0  0  0  0  0  0  0
   34.9430   28.1640   49.7560 F   0  0  0  0  0  0  0  0  0  0  0  0
  1  6  1  0  0  0  0
  1  7  1  0  0  0  0
  2  1  2  0  0  0  0
  3  4  2  0  0  0  0
  3  2  1  0  0  0  0
  4  5  1  0  0  0  0
  5 17  1  0  0  0  0
  5  6  2  0  0  0  0
  8  2  1  0  0  0  0
  9  3  1  0  0  0  0
 10  9  1  0  0  0  0
 10 11  1  0  0  0  0
 12 10  2  0  0  0  0
 13 12  1  0  0  0  0
 14 15  2  0  0  0  0
 14 12  1  0  0  0  0
 15 16  1  0  0  0  0
 16  9  2  0  0  0  0
 17 18  1  0  0  0  0
 19 17  1  0  0  0  0
 20 17  1  0  0  0  0
M  END
>  <minimizedAffinity>
-5.3877039

>  <minimizedRMSD>
0.606021404

$$$$
