
 OpenBabel03272510013D

 20 21  0  0  0  0  0  0  0  0999 V2000
   38.0100   32.6360   49.5920 C   0  0  0  0  0  0  0  0  0  0  0  0
   38.7110   32.6950   48.3810 C   0  0  0  0  0  0  0  0  0  0  0  0
   38.2560   31.9050   47.3360 C   0  0  0  0  0  0  0  0  0  0  0  0
   37.1620   31.1220   47.5430 N   0  0  0  0  0  0  0  0  0  0  0  0
   36.5160   31.0940   48.7240 C   0  0  0  0  0  0  0  0  0  0  0  0
   36.9470   31.8510   49.7320 N   0  0  0  0  0  0  0  0  0  0  0  0
   38.4080   33.2740   50.3730 H   0  0  0  0  0  0  0  0  0  0  0  0
   39.5760   33.3320   48.2600 H   0  0  0  0  0  0  0  0  0  0  0  0
   38.9440   31.9210   46.0490 C   0  0  0  0  0  0  0  0  0  0  0  0
   40.1510   31.2680   45.9320 C   0  0  0  0  0  0  0  0  0  0  0  0
   40.5960   30.7510   46.7580 H   0  0  0  0  0  0  0  0  0  0  0  0
   40.7260   31.3390   44.6740 C   0  0  0  0  0  0  0  0  0  0  0  0
   41.6810   30.8430   44.5140 H   0  0  0  0  0  0  0  0  0  0  0  0
   40.0890   32.0170   43.6850 C   0  0  0  0  0  0  0  0  0  0  0  0
   38.8750   32.6690   43.8180 C   0  0  0  0  0  0  0  0  0  0  0  0
   38.3430   32.5840   45.0440 N   0  0  0  0  0  0  0  0  0  0  0  0
   35.3310   30.2060   48.8500 C   0  0  0  0  0  0  0  0  0  0  0  0
   34.5530   30.5140   49.9410 F   0  0  0  0  0  0  0  0  0  0  0  0
   34.4940   30.3410   47.7290 F   0  0  0  0  0  0  0  0  0  0  0  0
   35.6410   28.8790   48.9110 F   0  0  0  0  0  0  0  0  0  0  0  0
  1  6  1  0  0  0  0
  1  7  1  0  0  0  0
  2  1  2  0  0  0  0
  3  4  2  0  0  0  0
  3  2  1  0  0  0  0
  4  5  1  0  0  0  0
  5 17  1  0  0  0  0
  5  6  2  0  0  0  0
  8  2  1  0  0  0  0
  9  3  1  0  0  0  0
 10  9  1  0  0  0  0
 10 11  1  0  0  0  0
 12 10  2  0  0  0  0
 13 12  1  0  0  0  0
 14 15  2  0  0  0  0
 14 12  1  0  0  0  0
 15 16  1  0  0  0  0
 16  9  2  0  0  0  0
 17 20  1  0  0  0  0
 17 18  1  0  0  0  0
 19 17  1  0  0  0  0
M  END
>  <minimizedAffinity>
-5.65953159

>  <minimizedRMSD>
2.14265347

$$$$
