
 OpenBabel03272501263D

 38 41  0  0  1  0  0  0  0  0999 V2000
   34.8490   29.9000   47.3820 C   0  0  0  0  0  0  0  0  0  0  0  0
   35.4850   29.9410   46.1500 C   0  0  0  0  0  0  0  0  0  0  0  0
   36.7000   30.6100   46.3420 C   0  0  0  0  0  0  0  0  0  0  0  0
   36.7510   30.9370   47.6370 N   0  0  0  0  0  0  0  0  0  0  0  0
   35.6550   30.5090   48.2250 N   0  0  0  0  0  0  0  0  0  0  0  0
   35.1810   29.5600   45.1850 H   0  0  0  0  0  0  0  0  0  0  0  0
   37.4630   30.8310   45.6010 H   0  0  0  0  0  0  0  0  0  0  0  0
   38.4630   32.6280   47.5440 N   0  0  0  0  0  0  0  0  0  0  0  0
   39.1450   33.4680   48.5000 C   0  0  0  0  0  0  0  0  0  0  0  0
   38.4890   33.2570   49.8460 C   0  0  0  0  0  0  0  0  0  0  0  0
   37.2340   32.4790   49.4590 C   0  0  0  0  0  0  0  0  0  0  0  0
   37.7810   31.6300   48.3430 C   0  0  1  0  0  0  0  0  0  0  0  0
   37.7630   33.1850   47.0260 H   0  0  0  0  0  0  0  0  0  0  0  0
   39.2010   34.5280   48.2210 H   0  0  0  0  0  0  0  0  0  0  0  0
   40.1940   33.1030   48.5900 H   0  0  0  0  0  0  0  0  0  0  0  0
   39.0990   32.7140   50.5710 H   0  0  0  0  0  0  0  0  0  0  0  0
   38.1250   34.2430   50.2510 H   0  0  0  0  0  0  0  0  0  0  0  0
   36.4120   33.1470   49.1470 H   0  0  0  0  0  0  0  0  0  0  0  0
   36.9080   31.8120   50.2930 H   0  0  0  0  0  0  0  0  0  0  0  0
   38.6830   30.6650   48.9110 N   0  0  0  0  0  0  0  0  0  0  0  0
   39.0110   30.0700   48.1110 H   0  0  0  0  0  0  0  0  0  0  0  0
   38.1630   30.1190   49.6300 H   0  0  0  0  0  0  0  0  0  0  0  0
   33.2360   28.4790   48.6700 C   0  0  0  0  0  0  0  0  0  0  0  0
   33.5480   29.2740   47.5650 C   0  0  0  0  0  0  0  0  0  0  0  0
   32.5520   29.4690   46.5930 C   0  0  0  0  0  0  0  0  0  0  0  0
   31.3510   28.8680   46.7980 N   0  0  0  0  0  0  0  0  0  0  0  0
   31.0810   28.1100   47.8730 C   0  0  0  0  0  0  0  0  0  0  0  0
   32.0470   27.9140   48.8270 N   0  0  0  0  0  0  0  0  0  0  0  0
   34.0020   28.3280   49.4200 H   0  0  0  0  0  0  0  0  0  0  0  0
   32.7170   30.0730   45.7040 H   0  0  0  0  0  0  0  0  0  0  0  0
   29.7990   27.4670   48.0960 C   0  0  0  0  0  0  0  0  0  0  0  0
   29.2730   27.4390   49.3590 C   0  0  0  0  0  0  0  0  0  0  0  0
   29.7360   27.8620   50.2340 H   0  0  0  0  0  0  0  0  0  0  0  0
   28.0450   26.8320   49.6240 C   0  0  0  0  0  0  0  0  0  0  0  0
   27.5510   26.7600   50.5870 H   0  0  0  0  0  0  0  0  0  0  0  0
   27.3780   26.2590   48.5530 C   0  0  0  0  0  0  0  0  0  0  0  0
   27.9000   26.2860   47.2910 C   0  0  0  0  0  0  0  0  0  0  0  0
   29.0900   26.8910   47.1260 N   0  0  0  0  0  0  0  0  0  0  0  0
  1 24  1  0  0  0  0
  1  5  2  0  0  0  0
  2  3  2  0  0  0  0
  2  1  1  0  0  0  0
  3  4  1  0  0  0  0
  4  5  1  0  0  0  0
  4 12  1  0  0  0  0
  6  2  1  0  0  0  0
  7  3  1  0  0  0  0
  8 12  1  0  0  0  0
  8  9  1  0  0  0  0
  9 15  1  0  0  0  0
  9 10  1  0  0  0  0
 10 17  1  0  0  0  0
 10 16  1  0  0  0  0
 11 10  1  0  0  0  0
 11 19  1  0  0  0  0
 12 20  1  1  0  0  0
 12 11  1  0  0  0  0
 13  8  1  0  0  0  0
 14  9  1  0  0  0  0
 18 11  1  0  0  0  0
 20 22  1  0  0  0  0
 21 20  1  0  0  0  0
 23 28  1  0  0  0  0
 23 29  1  0  0  0  0
 24 23  2  0  0  0  0
 25 26  2  0  0  0  0
 25 24  1  0  0  0  0
 26 27  1  0  0  0  0
 27 31  1  0  0  0  0
 27 28  2  0  0  0  0
 30 25  1  0  0  0  0
 31 32  1  0  0  0  0
 32 34  2  0  0  0  0
 32 33  1  0  0  0  0
 34 35  1  0  0  0  0
 36 34  1  0  0  0  0
 37 36  2  0  0  0  0
 38 37  1  0  0  0  0
 38 31  2  0  0  0  0
M  END
>  <minimizedAffinity>
-5.85040045

>  <minimizedRMSD>
0.577473521

$$$$
