
 OpenBabel03272510013D

 20 21  0  0  0  0  0  0  0  0999 V2000
   38.2340   31.4140   50.2210 C   0  0  0  0  0  0  0  0  0  0  0  0
   38.5150   31.4260   48.8490 C   0  0  0  0  0  0  0  0  0  0  0  0
   37.6590   30.7290   48.0110 C   0  0  0  0  0  0  0  0  0  0  0  0
   36.6000   30.0760   48.5630 N   0  0  0  0  0  0  0  0  0  0  0  0
   36.3630   30.0890   49.8880 C   0  0  0  0  0  0  0  0  0  0  0  0
   37.1820   30.7580   50.6990 N   0  0  0  0  0  0  0  0  0  0  0  0
   38.9350   31.9760   50.8290 H   0  0  0  0  0  0  0  0  0  0  0  0
   39.3700   31.9580   48.4530 H   0  0  0  0  0  0  0  0  0  0  0  0
   37.8990   30.7020   46.5710 C   0  0  0  0  0  0  0  0  0  0  0  0
   39.1960   30.7460   46.1130 C   0  0  0  0  0  0  0  0  0  0  0  0
   40.0310   30.8000   46.7830 H   0  0  0  0  0  0  0  0  0  0  0  0
   39.3240   30.7160   44.7350 C   0  0  0  0  0  0  0  0  0  0  0  0
   40.3230   30.7490   44.3070 H   0  0  0  0  0  0  0  0  0  0  0  0
   38.2080   30.6480   43.9610 C   0  0  0  0  0  3  0  0  0  0  0  0
   36.9090   30.6040   44.4370 C   0  0  0  0  0  3  0  0  0  0  0  0
   36.8170   30.6350   45.7730 N   0  0  0  0  0  0  0  0  0  0  0  0
   35.1800   29.3460   50.3930 C   0  0  0  0  0  0  0  0  0  0  0  0
   35.2420   29.1080   51.7460 F   0  0  0  0  0  0  0  0  0  0  0  0
   34.0060   30.0920   50.1870 F   0  0  0  0  0  0  0  0  0  0  0  0
   34.9660   28.1560   49.7630 F   0  0  0  0  0  0  0  0  0  0  0  0
  1  6  1  0  0  0  0
  1  7  1  0  0  0  0
  2  1  2  0  0  0  0
  3  4  2  0  0  0  0
  3  2  1  0  0  0  0
  4  5  1  0  0  0  0
  5 17  1  0  0  0  0
  5  6  2  0  0  0  0
  8  2  1  0  0  0  0
  9  3  1  0  0  0  0
 10  9  1  0  0  0  0
 10 11  1  0  0  0  0
 12 10  2  0  0  0  0
 13 12  1  0  0  0  0
 14 15  2  0  0  0  0
 14 12  1  0  0  0  0
 15 16  1  0  0  0  0
 16  9  2  0  0  0  0
 17 18  1  0  0  0  0
 19 17  1  0  0  0  0
 20 17  1  0  0  0  0
M  END
>  <minimizedAffinity>
-5.32174683

>  <minimizedRMSD>
1.04749799

$$$$
