
 OpenBabel03262523143D

 28 30  0  0  0  0  0  0  0  0999 V2000
   39.9650   25.0720   34.7660 C   0  0  0  0  0  0  0  0  0  0  0  0
   40.7940   26.1490   34.6790 C   0  0  0  0  0  0  0  0  0  0  0  0
   40.4130   27.0950   33.7530 C   0  0  0  0  0  0  0  0  0  0  0  0
   39.2930   26.9730   32.9780 C   0  0  0  0  0  0  0  0  0  0  0  0
   38.5050   25.8520   33.1280 C   0  0  0  0  0  0  0  0  0  0  0  0
   38.8500   24.8990   34.0300 N   0  0  0  0  0  0  0  0  0  0  0  0
   41.6810   26.2720   35.2740 H   0  0  0  0  0  0  0  0  0  0  0  0
   41.0020   27.9980   33.5980 H   0  0  0  0  0  0  0  0  0  0  0  0
   39.0220   27.7340   32.2600 H   0  0  0  0  0  0  0  0  0  0  0  0
   39.7160   22.8030   37.6540 C   0  0  0  0  0  0  0  0  0  0  0  0
   40.8440   21.9700   37.4940 C   0  0  0  0  0  0  0  0  0  0  0  0
   41.6710   22.2050   36.3920 C   0  0  0  0  0  0  0  0  0  0  0  0
   41.3460   23.2030   35.5530 N   0  0  0  0  0  0  0  0  0  0  0  0
   40.2660   23.9930   35.7190 C   0  0  0  0  0  0  0  0  0  0  0  0
   39.4550   23.7770   36.7830 N   0  0  0  0  0  0  0  0  0  0  0  0
   41.0190   21.2000   38.2130 H   0  0  0  0  0  0  0  0  0  0  0  0
   42.5400   21.5850   36.2430 H   0  0  0  0  0  0  0  0  0  0  0  0
   38.8010   22.6580   38.7420 N   0  0  0  0  0  0  0  0  0  0  0  0
   39.3330   23.2360   39.4330 H   0  0  0  0  0  0  0  0  0  0  0  0
   37.8920   22.1090   38.7370 H   0  0  0  0  0  0  0  0  0  0  0  0
   37.2900   25.6130   32.3590 C   0  0  0  0  0  0  0  0  0  0  0  0
   36.7850   24.3590   32.1010 C   0  0  0  0  0  0  0  0  0  0  0  0
   37.2910   23.4860   32.4740 H   0  0  0  0  0  0  0  0  0  0  0  0
   35.6410   24.0900   31.3800 C   0  0  0  0  0  0  0  0  0  0  0  0
   35.2760   23.1040   31.1990 H   0  0  0  0  0  0  0  0  0  0  0  0
   34.9290   25.1510   30.8650 C   0  0  0  0  0  3  0  0  0  0  0  0
   35.4290   26.4090   31.1190 C   0  0  0  0  0  3  0  0  0  0  0  0
   36.5520   26.6120   31.8300 N   0  0  0  0  0  0  0  0  0  0  0  0
  1 14  1  0  0  0  0
  2  1  1  0  0  0  0
  2  7  1  0  0  0  0
  3  2  2  0  0  0  0
  4  5  2  0  0  0  0
  4  3  1  0  0  0  0
  5  6  1  0  0  0  0
  6  1  2  0  0  0  0
  8  3  1  0  0  0  0
  9  4  1  0  0  0  0
 10 18  1  0  0  0  0
 11 10  1  0  0  0  0
 11 16  1  0  0  0  0
 12 11  2  0  0  0  0
 13 14  2  0  0  0  0
 13 12  1  0  0  0  0
 14 15  1  0  0  0  0
 15 10  2  0  0  0  0
 17 12  1  0  0  0  0
 18 19  1  0  0  0  0
 20 18  1  0  0  0  0
 21  5  1  0  0  0  0
 22 21  1  0  0  0  0
 22 23  1  0  0  0  0
 24 22  2  0  0  0  0
 25 24  1  0  0  0  0
 26 27  2  0  0  0  0
 26 24  1  0  0  0  0
 27 28  1  0  0  0  0
 28 21  2  0  0  0  0
M  END
>  <minimizedAffinity>
-5.71892834

$$$$

 OpenBabel03262523143D

 28 30  0  0  0  0  0  0  0  0999 V2000
   37.1970   25.1690   32.5120 C   0  0  0  0  0  0  0  0  0  0  0  0
   36.3990   26.0130   31.8010 C   0  0  0  0  0  0  0  0  0  0  0  0
   35.4020   25.3920   31.0800 C   0  0  0  0  0  0  0  0  0  0  0  0
   35.2190   24.0370   31.0730 C   0  0  0  0  0  0  0  0  0  0  0  0
   36.0690   23.2520   31.8220 C   0  0  0  0  0  0  0  0  0  0  0  0
   37.0620   23.8280   32.5430 N   0  0  0  0  0  0  0  0  0  0  0  0
   36.5200   27.0810   31.7860 H   0  0  0  0  0  0  0  0  0  0  0  0
   34.7050   25.9700   30.4740 H   0  0  0  0  0  0  0  0  0  0  0  0
   34.4270   23.5810   30.4960 H   0  0  0  0  0  0  0  0  0  0  0  0
   39.0190   26.9410   35.1740 C   0  0  0  0  0  0  0  0  0  0  0  0
   40.3700   26.7220   34.8260 C   0  0  0  0  0  0  0  0  0  0  0  0
   40.6280   25.9660   33.6800 C   0  0  0  0  0  0  0  0  0  0  0  0
   39.5830   25.4940   32.9790 N   0  0  0  0  0  0  0  0  0  0  0  0
   38.2970   25.7120   33.3220 C   0  0  0  0  0  0  0  0  0  0  0  0
   38.0320   26.4430   34.4320 N   0  0  0  0  0  0  0  0  0  0  0  0
   41.1330   27.1370   35.4470 H   0  0  0  0  0  0  0  0  0  0  0  0
   41.6500   25.7810   33.3880 H   0  0  0  0  0  0  0  0  0  0  0  0
   38.6350   27.6990   36.3230 N   0  0  0  0  0  0  0  0  0  0  0  0
   38.6770   28.6420   35.8740 H   0  0  0  0  0  0  0  0  0  0  0  0
   38.4010   27.3160   37.2860 H   0  0  0  0  0  0  0  0  0  0  0  0
   35.9710   21.7990   31.8920 C   0  0  0  0  0  0  0  0  0  0  0  0
   35.5800   21.1140   33.0200 C   0  0  0  0  0  0  0  0  0  0  0  0
   35.3260   21.6520   33.9160 H   0  0  0  0  0  0  0  0  0  0  0  0
   35.4740   19.7440   33.1270 C   0  0  0  0  0  0  0  0  0  0  0  0
   35.1670   19.2450   34.0180 H   0  0  0  0  0  0  0  0  0  0  0  0
   35.7810   18.9760   32.0250 C   0  0  0  0  0  3  0  0  0  0  0  0
   36.1740   19.6550   30.8920 C   0  0  0  0  0  3  0  0  0  0  0  0
   36.2600   20.9960   30.8450 N   0  0  0  0  0  0  0  0  0  0  0  0
  1  6  1  0  0  0  0
  1 14  1  0  0  0  0
  2  1  2  0  0  0  0
  3  2  1  0  0  0  0
  4  3  2  0  0  0  0
  4  5  1  0  0  0  0
  5 21  1  0  0  0  0
  5  6  2  0  0  0  0
  7  2  1  0  0  0  0
  8  3  1  0  0  0  0
  9  4  1  0  0  0  0
 10 18  1  0  0  0  0
 11 10  1  0  0  0  0
 11 16  1  0  0  0  0
 12 11  2  0  0  0  0
 13 14  2  0  0  0  0
 13 12  1  0  0  0  0
 14 15  1  0  0  0  0
 15 10  2  0  0  0  0
 17 12  1  0  0  0  0
 18 20  1  0  0  0  0
 19 18  1  0  0  0  0
 21 22  1  0  0  0  0
 22 24  2  0  0  0  0
 22 23  1  0  0  0  0
 24 25  1  0  0  0  0
 26 24  1  0  0  0  0
 27 26  2  0  0  0  0
 28 27  1  0  0  0  0
 28 21  2  0  0  0  0
M  END
>  <minimizedAffinity>
-5.70955849

$$$$

 OpenBabel03262523143D

 28 30  0  0  0  0  0  0  0  0999 V2000
   38.4620   24.7000   34.7450 C   0  0  0  0  0  0  0  0  0  0  0  0
   38.9600   23.9730   33.7070 C   0  0  0  0  0  0  0  0  0  0  0  0
   38.7550   24.5300   32.4640 C   0  0  0  0  0  0  0  0  0  0  0  0
   38.1050   25.7190   32.2760 C   0  0  0  0  0  0  0  0  0  0  0  0
   37.6330   26.3950   33.3800 C   0  0  0  0  0  0  0  0  0  0  0  0
   37.8150   25.8760   34.6200 N   0  0  0  0  0  0  0  0  0  0  0  0
   39.4740   23.0360   33.8240 H   0  0  0  0  0  0  0  0  0  0  0  0
   39.1110   24.0350   31.5610 H   0  0  0  0  0  0  0  0  0  0  0  0
   37.9620   26.1290   31.2860 H   0  0  0  0  0  0  0  0  0  0  0  0
   39.6680   22.7820   37.6460 C   0  0  0  0  0  0  0  0  0  0  0  0
   38.8950   23.3020   38.7070 C   0  0  0  0  0  0  0  0  0  0  0  0
   37.9720   24.3060   38.4020 C   0  0  0  0  0  0  0  0  0  0  0  0
   37.8730   24.7160   37.1270 N   0  0  0  0  0  0  0  0  0  0  0  0
   38.6180   24.2090   36.1220 C   0  0  0  0  0  0  0  0  0  0  0  0
   39.5170   23.2360   36.4030 N   0  0  0  0  0  0  0  0  0  0  0  0
   39.0450   22.9130   39.6900 H   0  0  0  0  0  0  0  0  0  0  0  0
   37.3670   24.7230   39.1920 H   0  0  0  0  0  0  0  0  0  0  0  0
   40.6420   21.7540   37.8370 N   0  0  0  0  0  0  0  0  0  0  0  0
   39.9860   20.9420   37.7640 H   0  0  0  0  0  0  0  0  0  0  0  0
   41.6830   21.8880   37.9950 H   0  0  0  0  0  0  0  0  0  0  0  0
   36.9260   27.6680   33.3030 C   0  0  0  0  0  0  0  0  0  0  0  0
   36.8040   28.4030   32.1470 C   0  0  0  0  0  0  0  0  0  0  0  0
   37.2420   28.0470   31.2320 H   0  0  0  0  0  0  0  0  0  0  0  0
   36.1450   29.6090   32.0320 C   0  0  0  0  0  0  0  0  0  0  0  0
   36.0690   30.1540   31.1180 H   0  0  0  0  0  0  0  0  0  0  0  0
   35.5530   30.1410   33.1570 C   0  0  0  0  0  3  0  0  0  0  0  0
   35.6720   29.4090   34.3190 C   0  0  0  0  0  3  0  0  0  0  0  0
   36.3280   28.2370   34.3720 N   0  0  0  0  0  0  0  0  0  0  0  0
  1 14  1  0  0  0  0
  2  7  1  0  0  0  0
  2  1  2  0  0  0  0
  3  2  1  0  0  0  0
  4  3  2  0  0  0  0
  4  5  1  0  0  0  0
  5  6  2  0  0  0  0
  6  1  1  0  0  0  0
  8  3  1  0  0  0  0
  9  4  1  0  0  0  0
 10 18  1  0  0  0  0
 10 11  1  0  0  0  0
 11 16  1  0  0  0  0
 12 11  2  0  0  0  0
 12 17  1  0  0  0  0
 13 12  1  0  0  0  0
 14 15  1  0  0  0  0
 14 13  2  0  0  0  0
 15 10  2  0  0  0  0
 18 20  1  0  0  0  0
 19 18  1  0  0  0  0
 21  5  1  0  0  0  0
 21 28  1  0  0  0  0
 22 21  2  0  0  0  0
 23 22  1  0  0  0  0
 24 22  1  0  0  0  0
 24 26  2  0  0  0  0
 25 24  1  0  0  0  0
 26 27  1  0  0  0  0
 27 28  2  0  0  0  0
M  END
>  <minimizedAffinity>
-5.66303682

$$$$

 OpenBabel03262523143D

 28 30  0  0  0  0  0  0  0  0999 V2000
   39.8490   23.1850   36.6720 C   0  0  0  0  0  0  0  0  0  0  0  0
   39.2260   23.0570   37.8760 C   0  0  0  0  0  0  0  0  0  0  0  0
   38.1570   23.9060   38.0640 C   0  0  0  0  0  0  0  0  0  0  0  0
   37.7440   24.8080   37.1220 C   0  0  0  0  0  0  0  0  0  0  0  0
   38.4290   24.8740   35.9270 C   0  0  0  0  0  0  0  0  0  0  0  0
   39.4870   24.0540   35.7070 N   0  0  0  0  0  0  0  0  0  0  0  0
   39.5280   22.3590   38.6350 H   0  0  0  0  0  0  0  0  0  0  0  0
   37.5840   23.8900   38.9900 H   0  0  0  0  0  0  0  0  0  0  0  0
   36.9010   25.4590   37.3000 H   0  0  0  0  0  0  0  0  0  0  0  0
   42.4380   20.5820   36.9330 C   0  0  0  0  0  0  0  0  0  0  0  0
   43.1730   20.7520   35.7400 C   0  0  0  0  0  0  0  0  0  0  0  0
   42.7620   21.7620   34.8660 C   0  0  0  0  0  0  0  0  0  0  0  0
   41.6980   22.5080   35.2080 N   0  0  0  0  0  0  0  0  0  0  0  0
   41.0050   22.3350   36.3530 C   0  0  0  0  0  0  0  0  0  0  0  0
   41.3920   21.3590   37.2100 N   0  0  0  0  0  0  0  0  0  0  0  0
   44.0050   20.1090   35.5540 H   0  0  0  0  0  0  0  0  0  0  0  0
   43.3040   21.9160   33.9460 H   0  0  0  0  0  0  0  0  0  0  0  0
   42.7650   19.5830   37.9020 N   0  0  0  0  0  0  0  0  0  0  0  0
   43.4850   20.1390   38.4190 H   0  0  0  0  0  0  0  0  0  0  0  0
   42.3430   18.6120   37.9790 H   0  0  0  0  0  0  0  0  0  0  0  0
   38.0820   25.7940   34.8500 C   0  0  0  0  0  0  0  0  0  0  0  0
   37.1720   26.8170   34.9850 C   0  0  0  0  0  0  0  0  0  0  0  0
   36.6720   26.9740   35.9240 H   0  0  0  0  0  0  0  0  0  0  0  0
   36.8170   27.7070   33.9940 C   0  0  0  0  0  0  0  0  0  0  0  0
   36.1060   28.4910   34.1330 H   0  0  0  0  0  0  0  0  0  0  0  0
   37.4100   27.5800   32.7570 C   0  0  0  0  0  3  0  0  0  0  0  0
   38.3220   26.5570   32.6150 C   0  0  0  0  0  3  0  0  0  0  0  0
   38.6300   25.7160   33.6180 N   0  0  0  0  0  0  0  0  0  0  0  0
  1  2  1  0  0  0  0
  2  3  2  0  0  0  0
  2  7  1  0  0  0  0
  3  8  1  0  0  0  0
  4  9  1  0  0  0  0
  4  3  1  0  0  0  0
  5  4  2  0  0  0  0
  6  5  1  0  0  0  0
  6  1  2  0  0  0  0
 10 15  1  0  0  0  0
 10 18  1  0  0  0  0
 11 10  2  0  0  0  0
 12 13  2  0  0  0  0
 12 11  1  0  0  0  0
 13 14  1  0  0  0  0
 14  1  1  0  0  0  0
 14 15  2  0  0  0  0
 16 11  1  0  0  0  0
 17 12  1  0  0  0  0
 18 20  1  0  0  0  0
 18 19  1  0  0  0  0
 21 22  1  0  0  0  0
 21  5  1  0  0  0  0
 22 23  1  0  0  0  0
 24 25  1  0  0  0  0
 24 22  2  0  0  0  0
 26 24  1  0  0  0  0
 27 26  2  0  0  0  0
 27 28  1  0  0  0  0
 28 21  2  0  0  0  0
M  END
>  <minimizedAffinity>
-5.35409832

$$$$

 OpenBabel03262523143D

 28 30  0  0  0  0  0  0  0  0999 V2000
   36.7010   27.9010   33.3860 C   0  0  0  0  0  0  0  0  0  0  0  0
   36.8690   28.2970   32.0940 C   0  0  0  0  0  0  0  0  0  0  0  0
   36.3410   29.5360   31.7980 C   0  0  0  0  0  0  0  0  0  0  0  0
   35.6990   30.3140   32.7220 C   0  0  0  0  0  0  0  0  0  0  0  0
   35.5730   29.8410   34.0100 C   0  0  0  0  0  0  0  0  0  0  0  0
   36.0790   28.6260   34.3370 N   0  0  0  0  0  0  0  0  0  0  0  0
   37.3680   27.7070   31.3460 H   0  0  0  0  0  0  0  0  0  0  0  0
   36.4170   29.9530   30.7950 H   0  0  0  0  0  0  0  0  0  0  0  0
   35.2970   31.2810   32.4570 H   0  0  0  0  0  0  0  0  0  0  0  0
   37.9130   25.1810   35.5490 C   0  0  0  0  0  0  0  0  0  0  0  0
   38.1940   24.1510   34.6260 C   0  0  0  0  0  0  0  0  0  0  0  0
   37.9610   24.4130   33.2740 C   0  0  0  0  0  0  0  0  0  0  0  0
   37.4840   25.6210   32.9310 N   0  0  0  0  0  0  0  0  0  0  0  0
   37.2210   26.5980   33.8240 C   0  0  0  0  0  0  0  0  0  0  0  0
   37.4420   26.3580   35.1390 N   0  0  0  0  0  0  0  0  0  0  0  0
   38.5700   23.2210   34.9940 H   0  0  0  0  0  0  0  0  0  0  0  0
   38.1670   23.6450   32.5450 H   0  0  0  0  0  0  0  0  0  0  0  0
   38.1120   25.0290   36.9560 N   0  0  0  0  0  0  0  0  0  0  0  0
   39.1260   25.2870   36.9690 H   0  0  0  0  0  0  0  0  0  0  0  0
   37.3840   24.7380   37.6730 H   0  0  0  0  0  0  0  0  0  0  0  0
   34.9100   30.5800   35.0780 C   0  0  0  0  0  0  0  0  0  0  0  0
   35.5520   31.4890   35.8880 C   0  0  0  0  0  0  0  0  0  0  0  0
   36.5990   31.6880   35.7520 H   0  0  0  0  0  0  0  0  0  0  0  0
   34.9630   32.2080   36.9060 C   0  0  0  0  0  0  0  0  0  0  0  0
   35.4900   32.9060   37.5160 H   0  0  0  0  0  0  0  0  0  0  0  0
   33.6210   32.0150   37.1510 C   0  0  0  0  0  3  0  0  0  0  0  0
   32.9720   31.1060   36.3440 C   0  0  0  0  0  3  0  0  0  0  0  0
   33.5990   30.4320   35.3630 N   0  0  0  0  0  0  0  0  0  0  0  0
  1 14  1  0  0  0  0
  1  6  1  0  0  0  0
  2  1  2  0  0  0  0
  3  2  1  0  0  0  0
  3  4  2  0  0  0  0
  4  5  1  0  0  0  0
  5  6  2  0  0  0  0
  5 21  1  0  0  0  0
  7  2  1  0  0  0  0
  8  3  1  0  0  0  0
  9  4  1  0  0  0  0
 10 18  1  0  0  0  0
 11 16  1  0  0  0  0
 11 10  2  0  0  0  0
 12 11  1  0  0  0  0
 13 12  2  0  0  0  0
 13 14  1  0  0  0  0
 14 15  2  0  0  0  0
 15 10  1  0  0  0  0
 17 12  1  0  0  0  0
 18 19  1  0  0  0  0
 18 20  1  0  0  0  0
 21 28  2  0  0  0  0
 21 22  1  0  0  0  0
 22 24  2  0  0  0  0
 23 22  1  0  0  0  0
 24 26  1  0  0  0  0
 24 25  1  0  0  0  0
 27 26  2  0  0  0  0
 28 27  1  0  0  0  0
M  END
>  <minimizedAffinity>
-5.29336691

$$$$

 OpenBabel03262523143D

 28 30  0  0  0  0  0  0  0  0999 V2000
   37.1240   23.0530   31.5310 C   0  0  0  0  0  0  0  0  0  0  0  0
   38.0350   23.0090   30.5200 C   0  0  0  0  0  0  0  0  0  0  0  0
   38.5470   24.2340   30.1520 C   0  0  0  0  0  0  0  0  0  0  0  0
   38.1780   25.4070   30.7500 C   0  0  0  0  0  0  0  0  0  0  0  0
   37.2510   25.3660   31.7690 C   0  0  0  0  0  0  0  0  0  0  0  0
   36.7240   24.1780   32.1570 N   0  0  0  0  0  0  0  0  0  0  0  0
   38.3430   22.1020   30.0310 H   0  0  0  0  0  0  0  0  0  0  0  0
   39.2830   24.3180   29.3540 H   0  0  0  0  0  0  0  0  0  0  0  0
   38.6000   26.3520   30.4390 H   0  0  0  0  0  0  0  0  0  0  0  0
   35.6970   20.5140   33.7820 C   0  0  0  0  0  0  0  0  0  0  0  0
   35.3460   19.4730   32.8960 C   0  0  0  0  0  0  0  0  0  0  0  0
   35.6080   19.6660   31.5370 C   0  0  0  0  0  0  0  0  0  0  0  0
   36.1740   20.8230   31.1540 N   0  0  0  0  0  0  0  0  0  0  0  0
   36.5050   21.8090   32.0120 C   0  0  0  0  0  0  0  0  0  0  0  0
   36.2560   21.6370   33.3330 N   0  0  0  0  0  0  0  0  0  0  0  0
   34.8990   18.5890   33.2940 H   0  0  0  0  0  0  0  0  0  0  0  0
   35.3520   18.8880   30.8350 H   0  0  0  0  0  0  0  0  0  0  0  0
   35.4770   20.4300   35.1920 N   0  0  0  0  0  0  0  0  0  0  0  0
   36.3620   19.9250   35.4280 H   0  0  0  0  0  0  0  0  0  0  0  0
   34.6380   20.8020   35.7270 H   0  0  0  0  0  0  0  0  0  0  0  0
   36.7820   26.5500   32.4800 C   0  0  0  0  0  0  0  0  0  0  0  0
   37.1160   26.8400   33.7830 C   0  0  0  0  0  0  0  0  0  0  0  0
   37.7570   26.1770   34.3350 H   0  0  0  0  0  0  0  0  0  0  0  0
   36.6950   27.9460   34.4890 C   0  0  0  0  0  0  0  0  0  0  0  0
   36.9740   28.1410   35.5000 H   0  0  0  0  0  0  0  0  0  0  0  0
   35.8700   28.8500   33.8570 C   0  0  0  0  0  3  0  0  0  0  0  0
   35.5300   28.5660   32.5520 C   0  0  0  0  0  3  0  0  0  0  0  0
   35.9710   27.4690   31.9120 N   0  0  0  0  0  0  0  0  0  0  0  0
  1 14  1  0  0  0  0
  1  6  1  0  0  0  0
  2  1  2  0  0  0  0
  3  2  1  0  0  0  0
  3  4  2  0  0  0  0
  4  5  1  0  0  0  0
  5  6  2  0  0  0  0
  5 21  1  0  0  0  0
  7  2  1  0  0  0  0
  8  3  1  0  0  0  0
  9  4  1  0  0  0  0
 10 18  1  0  0  0  0
 11 16  1  0  0  0  0
 11 10  2  0  0  0  0
 12 11  1  0  0  0  0
 13 12  2  0  0  0  0
 13 14  1  0  0  0  0
 14 15  2  0  0  0  0
 15 10  1  0  0  0  0
 17 12  1  0  0  0  0
 18 19  1  0  0  0  0
 18 20  1  0  0  0  0
 21 22  1  0  0  0  0
 22 23  1  0  0  0  0
 22 24  2  0  0  0  0
 24 25  1  0  0  0  0
 26 24  1  0  0  0  0
 27 26  2  0  0  0  0
 28 21  2  0  0  0  0
 28 27  1  0  0  0  0
M  END
>  <minimizedAffinity>
-5.2479229

$$$$

 OpenBabel03262523143D

 28 30  0  0  0  0  0  0  0  0999 V2000
   37.3410   26.1910   33.1700 C   0  0  0  0  0  0  0  0  0  0  0  0
   37.6150   25.4930   32.0340 C   0  0  0  0  0  0  0  0  0  0  0  0
   38.2080   24.2660   32.2410 C   0  0  0  0  0  0  0  0  0  0  0  0
   38.5000   23.7790   33.4840 C   0  0  0  0  0  0  0  0  0  0  0  0
   38.1890   24.5480   34.5850 C   0  0  0  0  0  0  0  0  0  0  0  0
   37.6060   25.7610   34.4190 N   0  0  0  0  0  0  0  0  0  0  0  0
   37.3970   25.8510   31.0430 H   0  0  0  0  0  0  0  0  0  0  0  0
   38.4710   23.6220   31.4030 H   0  0  0  0  0  0  0  0  0  0  0  0
   38.9650   22.8120   33.6120 H   0  0  0  0  0  0  0  0  0  0  0  0
   35.9430   29.2980   31.7760 C   0  0  0  0  0  0  0  0  0  0  0  0
   35.5230   29.9960   32.9290 C   0  0  0  0  0  0  0  0  0  0  0  0
   35.7300   29.3820   34.1670 C   0  0  0  0  0  0  0  0  0  0  0  0
   36.3120   28.1710   34.1900 N   0  0  0  0  0  0  0  0  0  0  0  0
   36.7090   27.5160   33.0800 C   0  0  0  0  0  0  0  0  0  0  0  0
   36.5140   28.0980   31.8720 N   0  0  0  0  0  0  0  0  0  0  0  0
   35.0690   30.9550   32.8110 H   0  0  0  0  0  0  0  0  0  0  0  0
   35.4210   29.8910   35.0660 H   0  0  0  0  0  0  0  0  0  0  0  0
   35.7840   29.8260   30.4570 N   0  0  0  0  0  0  0  0  0  0  0  0
   36.6630   30.3920   30.4410 H   0  0  0  0  0  0  0  0  0  0  0  0
   34.9800   29.6340   29.7900 H   0  0  0  0  0  0  0  0  0  0  0  0
   38.4530   24.1330   35.9580 C   0  0  0  0  0  0  0  0  0  0  0  0
   39.4720   23.2800   36.3140 C   0  0  0  0  0  0  0  0  0  0  0  0
   40.1280   22.8800   35.5620 H   0  0  0  0  0  0  0  0  0  0  0  0
   39.7560   22.8640   37.5970 C   0  0  0  0  0  0  0  0  0  0  0  0
   40.5550   22.2010   37.8390 H   0  0  0  0  0  0  0  0  0  0  0  0
   38.9650   23.3290   38.6250 C   0  0  0  0  0  3  0  0  0  0  0  0
   37.9420   24.1840   38.2760 C   0  0  0  0  0  3  0  0  0  0  0  0
   37.7120   24.5560   37.0040 N   0  0  0  0  0  0  0  0  0  0  0  0
  1  6  1  0  0  0  0
  2  3  1  0  0  0  0
  2  1  2  0  0  0  0
  3  4  2  0  0  0  0
  4  9  1  0  0  0  0
  4  5  1  0  0  0  0
  5 21  1  0  0  0  0
  6  5  2  0  0  0  0
  7  2  1  0  0  0  0
  8  3  1  0  0  0  0
 10 15  2  0  0  0  0
 10 11  1  0  0  0  0
 11 12  2  0  0  0  0
 12 13  1  0  0  0  0
 12 17  1  0  0  0  0
 14  1  1  0  0  0  0
 14 13  2  0  0  0  0
 15 14  1  0  0  0  0
 16 11  1  0  0  0  0
 18 10  1  0  0  0  0
 19 18  1  0  0  0  0
 20 18  1  0  0  0  0
 21 22  2  0  0  0  0
 21 28  1  0  0  0  0
 22 24  1  0  0  0  0
 23 22  1  0  0  0  0
 24 25  1  0  0  0  0
 24 26  2  0  0  0  0
 27 26  1  0  0  0  0
 28 27  2  0  0  0  0
M  END
>  <minimizedAffinity>
-5.24325609

$$$$

 OpenBabel03262523143D

 28 30  0  0  0  0  0  0  0  0999 V2000
   38.7440   23.1610   34.0550 C   0  0  0  0  0  0  0  0  0  0  0  0
   38.5990   22.2960   33.0140 C   0  0  0  0  0  0  0  0  0  0  0  0
   37.8640   22.7870   31.9560 C   0  0  0  0  0  0  0  0  0  0  0  0
   37.3200   24.0420   31.9430 C   0  0  0  0  0  0  0  0  0  0  0  0
   37.5150   24.8570   33.0370 C   0  0  0  0  0  0  0  0  0  0  0  0
   38.2320   24.4080   34.0960 N   0  0  0  0  0  0  0  0  0  0  0  0
   39.0140   21.3050   32.9960 H   0  0  0  0  0  0  0  0  0  0  0  0
   37.6840   22.1810   31.0690 H   0  0  0  0  0  0  0  0  0  0  0  0
   36.7490   24.3960   31.0970 H   0  0  0  0  0  0  0  0  0  0  0  0
   39.7040   22.6300   37.5690 C   0  0  0  0  0  0  0  0  0  0  0  0
   40.9530   21.9820   37.4560 C   0  0  0  0  0  0  0  0  0  0  0  0
   41.4420   21.7400   36.1700 C   0  0  0  0  0  0  0  0  0  0  0  0
   40.7000   22.1340   35.1210 N   0  0  0  0  0  0  0  0  0  0  0  0
   39.5080   22.7530   35.2430 C   0  0  0  0  0  0  0  0  0  0  0  0
   39.0210   22.9940   36.4840 N   0  0  0  0  0  0  0  0  0  0  0  0
   41.4690   21.7060   38.3490 H   0  0  0  0  0  0  0  0  0  0  0  0
   42.3940   21.2470   36.0520 H   0  0  0  0  0  0  0  0  0  0  0  0
   39.1040   22.9300   38.8310 N   0  0  0  0  0  0  0  0  0  0  0  0
   39.5960   23.8400   38.9920 H   0  0  0  0  0  0  0  0  0  0  0  0
   38.3910   22.3400   39.3510 H   0  0  0  0  0  0  0  0  0  0  0  0
   36.9850   26.2120   33.1360 C   0  0  0  0  0  0  0  0  0  0  0  0
   37.0180   26.9610   34.2900 C   0  0  0  0  0  0  0  0  0  0  0  0
   37.4520   26.5540   35.1850 H   0  0  0  0  0  0  0  0  0  0  0  0
   36.5280   28.2430   34.4260 C   0  0  0  0  0  0  0  0  0  0  0  0
   36.5700   28.7970   35.3360 H   0  0  0  0  0  0  0  0  0  0  0  0
   35.9540   28.8430   33.3270 C   0  0  0  0  0  3  0  0  0  0  0  0
   35.9170   28.0980   32.1680 C   0  0  0  0  0  3  0  0  0  0  0  0
   36.4100   26.8490   32.0940 N   0  0  0  0  0  0  0  0  0  0  0  0
  1  6  1  0  0  0  0
  1 14  1  0  0  0  0
  2  1  2  0  0  0  0
  3  2  1  0  0  0  0
  4  3  2  0  0  0  0
  4  5  1  0  0  0  0
  5 21  1  0  0  0  0
  5  6  2  0  0  0  0
  7  2  1  0  0  0  0
  8  3  1  0  0  0  0
  9  4  1  0  0  0  0
 10 18  1  0  0  0  0
 11 10  1  0  0  0  0
 11 16  1  0  0  0  0
 12 11  2  0  0  0  0
 13 14  2  0  0  0  0
 13 12  1  0  0  0  0
 14 15  1  0  0  0  0
 15 10  2  0  0  0  0
 17 12  1  0  0  0  0
 18 19  1  0  0  0  0
 18 20  1  0  0  0  0
 21 22  1  0  0  0  0
 22 24  2  0  0  0  0
 22 23  1  0  0  0  0
 24 25  1  0  0  0  0
 26 24  1  0  0  0  0
 27 26  2  0  0  0  0
 28 27  1  0  0  0  0
 28 21  2  0  0  0  0
M  END
>  <minimizedAffinity>
-5.22567701

$$$$

 OpenBabel03262523143D

 28 30  0  0  0  0  0  0  0  0999 V2000
   38.6640   25.8230   33.1470 C   0  0  0  0  0  0  0  0  0  0  0  0
   39.3030   27.0110   32.9620 C   0  0  0  0  0  0  0  0  0  0  0  0
   40.4440   27.1750   33.7170 C   0  0  0  0  0  0  0  0  0  0  0  0
   40.9080   26.2260   34.5850 C   0  0  0  0  0  0  0  0  0  0  0  0
   40.2040   25.0480   34.7140 C   0  0  0  0  0  0  0  0  0  0  0  0
   39.0760   24.8520   33.9870 N   0  0  0  0  0  0  0  0  0  0  0  0
   38.9610   27.7750   32.2870 H   0  0  0  0  0  0  0  0  0  0  0  0
   41.0350   28.0880   33.6490 H   0  0  0  0  0  0  0  0  0  0  0  0
   41.8070   26.3860   35.1620 H   0  0  0  0  0  0  0  0  0  0  0  0
   35.9370   23.9670   31.5140 C   0  0  0  0  0  0  0  0  0  0  0  0
   35.1260   24.9990   30.9930 C   0  0  0  0  0  0  0  0  0  0  0  0
   35.5350   26.3170   31.2150 C   0  0  0  0  0  0  0  0  0  0  0  0
   36.6680   26.5250   31.9070 N   0  0  0  0  0  0  0  0  0  0  0  0
   37.4340   25.5290   32.3980 C   0  0  0  0  0  0  0  0  0  0  0  0
   37.0490   24.2460   32.1910 N   0  0  0  0  0  0  0  0  0  0  0  0
   34.2420   24.7350   30.4560 H   0  0  0  0  0  0  0  0  0  0  0  0
   34.9370   27.1270   30.8280 H   0  0  0  0  0  0  0  0  0  0  0  0
   35.6200   22.5830   31.3500 N   0  0  0  0  0  0  0  0  0  0  0  0
   36.0620   22.4630   30.4090 H   0  0  0  0  0  0  0  0  0  0  0  0
   35.0940   21.9670   32.0360 H   0  0  0  0  0  0  0  0  0  0  0  0
   40.6010   23.9660   35.6060 C   0  0  0  0  0  0  0  0  0  0  0  0
   41.8950   23.5160   35.7300 C   0  0  0  0  0  0  0  0  0  0  0  0
   42.6810   23.9660   35.1500 H   0  0  0  0  0  0  0  0  0  0  0  0
   42.3120   22.4970   36.5610 C   0  0  0  0  0  0  0  0  0  0  0  0
   43.3260   22.1730   36.6330 H   0  0  0  0  0  0  0  0  0  0  0  0
   41.3700   21.8630   37.3410 C   0  0  0  0  0  3  0  0  0  0  0  0
   40.0720   22.3090   37.2220 C   0  0  0  0  0  3  0  0  0  0  0  0
   39.7220   23.3080   36.3930 N   0  0  0  0  0  0  0  0  0  0  0  0
  1  6  1  0  0  0  0
  2  1  2  0  0  0  0
  2  3  1  0  0  0  0
  3  4  2  0  0  0  0
  4  5  1  0  0  0  0
  4  9  1  0  0  0  0
  5 21  1  0  0  0  0
  6  5  2  0  0  0  0
  7  2  1  0  0  0  0
  8  3  1  0  0  0  0
 10 15  1  0  0  0  0
 11 12  1  0  0  0  0
 11 10  2  0  0  0  0
 12 13  2  0  0  0  0
 13 14  1  0  0  0  0
 14  1  1  0  0  0  0
 15 14  2  0  0  0  0
 16 11  1  0  0  0  0
 17 12  1  0  0  0  0
 18 10  1  0  0  0  0
 18 20  1  0  0  0  0
 19 18  1  0  0  0  0
 21 22  2  0  0  0  0
 21 28  1  0  0  0  0
 22 24  1  0  0  0  0
 23 22  1  0  0  0  0
 24 25  1  0  0  0  0
 24 26  2  0  0  0  0
 27 26  1  0  0  0  0
 28 27  2  0  0  0  0
M  END
>  <minimizedAffinity>
-5.2249794

$$$$
