
 OpenBabel03272506563D

 19 20  0  0  0  0  0  0  0  0999 V2000
   40.2920   23.3070   35.9780 C   0  0  0  0  0  0  0  0  0  0  0  0
   39.7740   22.8190   37.1830 C   0  0  0  0  0  0  0  0  0  0  0  0
   38.5440   23.3790   37.5880 C   0  0  0  0  0  0  0  0  0  0  0  0
   37.9450   24.3320   36.8150 N   0  0  0  0  0  0  0  0  0  0  0  0
   38.4980   24.7520   35.6720 C   0  0  0  0  0  0  0  0  0  0  0  0
   39.6780   24.2500   35.2340 N   0  0  0  0  0  0  0  0  0  0  0  0
   41.2470   22.9020   35.6210 H   0  0  0  0  0  0  0  0  0  0  0  0
   38.1190   23.0250   38.5080 H   0  0  0  0  0  0  0  0  0  0  0  0
   37.8500   25.7710   34.8540 C   0  0  0  0  0  0  0  0  0  0  0  0
   37.5880   27.0100   35.4010 C   0  0  0  0  0  0  0  0  0  0  0  0
   37.8660   27.2090   36.4270 H   0  0  0  0  0  0  0  0  0  0  0  0
   36.9780   28.0010   34.6650 C   0  0  0  0  0  0  0  0  0  0  0  0
   36.7790   28.9550   35.0950 H   0  0  0  0  0  0  0  0  0  0  0  0
   36.6250   27.7430   33.3540 C   0  0  0  0  0  3  0  0  0  0  0  0
   36.8960   26.4920   32.8200 C   0  0  0  0  0  3  0  0  0  0  0  0
   37.4930   25.5480   33.5660 N   0  0  0  0  0  0  0  0  0  0  0  0
   40.4650   21.8300   37.9170 N   0  0  0  0  0  0  0  0  0  0  0  0
   40.6170   22.2900   38.8460 H   0  0  0  0  0  0  0  0  0  0  0  0
   40.7730   20.8570   37.6460 H   0  0  0  0  0  0  0  0  0  0  0  0
  1  2  1  0  0  0  0
  2  3  2  0  0  0  0
  2 17  1  0  0  0  0
  3  8  1  0  0  0  0
  4  3  1  0  0  0  0
  5  4  2  0  0  0  0
  6  5  1  0  0  0  0
  6  1  2  0  0  0  0
  7  1  1  0  0  0  0
  9 10  1  0  0  0  0
  9  5  1  0  0  0  0
 10 11  1  0  0  0  0
 12 13  1  0  0  0  0
 12 10  2  0  0  0  0
 14 12  1  0  0  0  0
 15 14  2  0  0  0  0
 15 16  1  0  0  0  0
 16  9  2  0  0  0  0
 17 18  1  0  0  0  0
 19 17  1  0  0  0  0
M  END
>  <minimizedAffinity>
-4.49922895

$$$$

 OpenBabel03272506563D

 19 20  0  0  0  0  0  0  0  0999 V2000
   37.8320   24.3680   37.5850 C   0  0  0  0  0  0  0  0  0  0  0  0
   38.5960   23.2750   38.0130 C   0  0  0  0  0  0  0  0  0  0  0  0
   39.7000   22.9470   37.1990 C   0  0  0  0  0  0  0  0  0  0  0  0
   39.9590   23.6840   36.0770 N   0  0  0  0  0  0  0  0  0  0  0  0
   39.1850   24.7170   35.7270 C   0  0  0  0  0  0  0  0  0  0  0  0
   38.1110   25.0760   36.4710 N   0  0  0  0  0  0  0  0  0  0  0  0
   36.9630   24.6600   38.1850 H   0  0  0  0  0  0  0  0  0  0  0  0
   40.3070   22.1150   37.5000 H   0  0  0  0  0  0  0  0  0  0  0  0
   39.4700   25.4960   34.5280 C   0  0  0  0  0  0  0  0  0  0  0  0
   40.4080   26.5060   34.5880 C   0  0  0  0  0  0  0  0  0  0  0  0
   40.9170   26.7070   35.5200 H   0  0  0  0  0  0  0  0  0  0  0  0
   40.7090   27.2670   33.4800 C   0  0  0  0  0  0  0  0  0  0  0  0
   41.4340   28.0450   33.5340 H   0  0  0  0  0  0  0  0  0  0  0  0
   40.0560   27.0080   32.2900 C   0  0  0  0  0  3  0  0  0  0  0  0
   39.1160   25.9880   32.2480 C   0  0  0  0  0  3  0  0  0  0  0  0
   38.8470   25.2650   33.3470 N   0  0  0  0  0  0  0  0  0  0  0  0
   38.2530   22.5720   39.1880 N   0  0  0  0  0  0  0  0  0  0  0  0
   38.1130   21.5920   38.8440 H   0  0  0  0  0  0  0  0  0  0  0  0
   38.1500   22.9020   40.1860 H   0  0  0  0  0  0  0  0  0  0  0  0
  1  2  1  0  0  0  0
  1  7  1  0  0  0  0
  2 17  1  0  0  0  0
  3  8  1  0  0  0  0
  3  2  2  0  0  0  0
  4  3  1  0  0  0  0
  5  4  2  0  0  0  0
  5  6  1  0  0  0  0
  6  1  2  0  0  0  0
  9 10  1  0  0  0  0
  9  5  1  0  0  0  0
 10 11  1  0  0  0  0
 12 13  1  0  0  0  0
 12 10  2  0  0  0  0
 14 12  1  0  0  0  0
 15 14  2  0  0  0  0
 15 16  1  0  0  0  0
 16  9  2  0  0  0  0
 17 19  1  0  0  0  0
 18 17  1  0  0  0  0
M  END
>  <minimizedAffinity>
-4.14036131

$$$$

 OpenBabel03272506563D

 19 20  0  0  0  0  0  0  0  0999 V2000
   37.3850   25.9120   33.0700 C   0  0  0  0  0  0  0  0  0  0  0  0
   37.3390   25.0020   32.0080 C   0  0  0  0  0  0  0  0  0  0  0  0
   37.6870   23.6730   32.3280 C   0  0  0  0  0  0  0  0  0  0  0  0
   38.0390   23.3540   33.6090 N   0  0  0  0  0  0  0  0  0  0  0  0
   38.0630   24.2760   34.5760 C   0  0  0  0  0  0  0  0  0  0  0  0
   37.7380   25.5680   34.3260 N   0  0  0  0  0  0  0  0  0  0  0  0
   37.1230   26.9570   32.8700 H   0  0  0  0  0  0  0  0  0  0  0  0
   37.6610   22.9490   31.5350 H   0  0  0  0  0  0  0  0  0  0  0  0
   38.4400   23.9250   35.9410 C   0  0  0  0  0  0  0  0  0  0  0  0
   37.6940   24.4130   36.9940 C   0  0  0  0  0  0  0  0  0  0  0  0
   36.8430   25.0490   36.7940 H   0  0  0  0  0  0  0  0  0  0  0  0
   38.0140   24.1070   38.2970 C   0  0  0  0  0  0  0  0  0  0  0  0
   37.4340   24.4880   39.1050 H   0  0  0  0  0  0  0  0  0  0  0  0
   39.1020   23.2930   38.5490 C   0  0  0  0  0  3  0  0  0  0  0  0
   39.8400   22.8110   37.4770 C   0  0  0  0  0  3  0  0  0  0  0  0
   39.5010   23.1290   36.2180 N   0  0  0  0  0  0  0  0  0  0  0  0
   36.9620   25.4230   30.7140 N   0  0  0  0  0  0  0  0  0  0  0  0
   37.7940   25.1640   30.1300 H   0  0  0  0  0  0  0  0  0  0  0  0
   36.0780   25.8850   30.3670 H   0  0  0  0  0  0  0  0  0  0  0  0
  1  6  1  0  0  0  0
  2  3  1  0  0  0  0
  2  1  2  0  0  0  0
  3  4  2  0  0  0  0
  4  5  1  0  0  0  0
  5  9  1  0  0  0  0
  6  5  2  0  0  0  0
  7  1  1  0  0  0  0
  8  3  1  0  0  0  0
  9 16  2  0  0  0  0
  9 10  1  0  0  0  0
 10 12  2  0  0  0  0
 11 10  1  0  0  0  0
 12 14  1  0  0  0  0
 12 13  1  0  0  0  0
 15 14  2  0  0  0  0
 16 15  1  0  0  0  0
 17  2  1  0  0  0  0
 18 17  1  0  0  0  0
 19 17  1  0  0  0  0
M  END
>  <minimizedAffinity>
-4.10804033

$$$$

 OpenBabel03272506563D

 19 20  0  0  0  0  0  0  0  0999 V2000
   36.9550   27.4500   34.4630 C   0  0  0  0  0  0  0  0  0  0  0  0
   36.7790   27.0910   33.1220 C   0  0  0  0  0  0  0  0  0  0  0  0
   37.2170   25.7960   32.7750 C   0  0  0  0  0  0  0  0  0  0  0  0
   37.7710   24.9890   33.7290 N   0  0  0  0  0  0  0  0  0  0  0  0
   37.9090   25.3990   34.9950 C   0  0  0  0  0  0  0  0  0  0  0  0
   37.5060   26.6320   35.3840 N   0  0  0  0  0  0  0  0  0  0  0  0
   36.6290   28.4480   34.7800 H   0  0  0  0  0  0  0  0  0  0  0  0
   37.0960   25.4890   31.7540 H   0  0  0  0  0  0  0  0  0  0  0  0
   38.5020   24.5300   36.0050 C   0  0  0  0  0  0  0  0  0  0  0  0
   37.9200   24.4530   37.2540 C   0  0  0  0  0  0  0  0  0  0  0  0
   37.0360   25.0380   37.4670 H   0  0  0  0  0  0  0  0  0  0  0  0
   38.4450   23.6460   38.2370 C   0  0  0  0  0  0  0  0  0  0  0  0
   37.9910   23.5930   39.2000 H   0  0  0  0  0  0  0  0  0  0  0  0
   39.5750   22.9000   37.9620 C   0  0  0  0  0  3  0  0  0  0  0  0
   40.1460   22.9890   36.7010 C   0  0  0  0  0  3  0  0  0  0  0  0
   39.6080   23.7860   35.7640 N   0  0  0  0  0  0  0  0  0  0  0  0
   36.1950   27.9920   32.2050 N   0  0  0  0  0  0  0  0  0  0  0  0
   36.9370   28.0950   31.4710 H   0  0  0  0  0  0  0  0  0  0  0  0
   35.2530   28.4700   32.2090 H   0  0  0  0  0  0  0  0  0  0  0  0
  1  7  1  0  0  0  0
  1  6  1  0  0  0  0
  2  1  2  0  0  0  0
  3  2  1  0  0  0  0
  3  4  2  0  0  0  0
  4  5  1  0  0  0  0
  5  6  2  0  0  0  0
  5  9  1  0  0  0  0
  8  3  1  0  0  0  0
  9 10  1  0  0  0  0
 10 11  1  0  0  0  0
 10 12  2  0  0  0  0
 12 13  1  0  0  0  0
 14 12  1  0  0  0  0
 15 14  2  0  0  0  0
 16  9  2  0  0  0  0
 16 15  1  0  0  0  0
 17 19  1  0  0  0  0
 17  2  1  0  0  0  0
 18 17  1  0  0  0  0
M  END
>  <minimizedAffinity>
-4.07089329

$$$$

 OpenBabel03272506563D

 19 20  0  0  0  0  0  0  0  0999 V2000
   37.9450   23.3870   32.3510 C   0  0  0  0  0  0  0  0  0  0  0  0
   37.5450   24.6360   31.8620 C   0  0  0  0  0  0  0  0  0  0  0  0
   37.4380   25.6620   32.8240 C   0  0  0  0  0  0  0  0  0  0  0  0
   37.7180   25.3950   34.1340 N   0  0  0  0  0  0  0  0  0  0  0  0
   38.0950   24.1750   34.5320 C   0  0  0  0  0  0  0  0  0  0  0  0
   38.2150   23.1530   33.6520 N   0  0  0  0  0  0  0  0  0  0  0  0
   38.0420   22.5580   31.6410 H   0  0  0  0  0  0  0  0  0  0  0  0
   37.1340   26.6330   32.4810 H   0  0  0  0  0  0  0  0  0  0  0  0
   38.3930   23.9010   35.9340 C   0  0  0  0  0  0  0  0  0  0  0  0
   39.4870   23.1230   36.2510 C   0  0  0  0  0  0  0  0  0  0  0  0
   40.1060   22.7270   35.4600 H   0  0  0  0  0  0  0  0  0  0  0  0
   39.8050   22.8390   37.5600 C   0  0  0  0  0  0  0  0  0  0  0  0
   40.6500   22.2370   37.7980 H   0  0  0  0  0  0  0  0  0  0  0  0
   39.0100   23.3470   38.5710 C   0  0  0  0  0  3  0  0  0  0  0  0
   37.9140   24.1290   38.2320 C   0  0  0  0  0  3  0  0  0  0  0  0
   37.6320   24.3860   36.9450 N   0  0  0  0  0  0  0  0  0  0  0  0
   37.2760   24.8190   30.4880 N   0  0  0  0  0  0  0  0  0  0  0  0
   36.2830   25.1540   30.4850 H   0  0  0  0  0  0  0  0  0  0  0  0
   37.8860   24.6730   29.6380 H   0  0  0  0  0  0  0  0  0  0  0  0
  1  6  1  0  0  0  0
  2  1  2  0  0  0  0
  2  3  1  0  0  0  0
  3  4  2  0  0  0  0
  4  5  1  0  0  0  0
  5  9  1  0  0  0  0
  6  5  2  0  0  0  0
  7  1  1  0  0  0  0
  8  3  1  0  0  0  0
  9 10  2  0  0  0  0
  9 16  1  0  0  0  0
 10 12  1  0  0  0  0
 11 10  1  0  0  0  0
 12 13  1  0  0  0  0
 12 14  2  0  0  0  0
 15 14  1  0  0  0  0
 16 15  2  0  0  0  0
 17  2  1  0  0  0  0
 18 17  1  0  0  0  0
 19 17  1  0  0  0  0
M  END
>  <minimizedAffinity>
-4.01922035

$$$$

 OpenBabel03272506563D

 19 20  0  0  0  0  0  0  0  0999 V2000
   35.7860   29.9290   31.0070 C   0  0  0  0  0  0  0  0  0  0  0  0
   36.2150   28.5980   30.9580 C   0  0  0  0  0  0  0  0  0  0  0  0
   36.2040   27.9090   32.1890 C   0  0  0  0  0  0  0  0  0  0  0  0
   35.7900   28.5510   33.3220 N   0  0  0  0  0  0  0  0  0  0  0  0
   35.3930   29.8280   33.2950 C   0  0  0  0  0  0  0  0  0  0  0  0
   35.3840   30.5380   32.1420 N   0  0  0  0  0  0  0  0  0  0  0  0
   35.7790   30.5060   30.0740 H   0  0  0  0  0  0  0  0  0  0  0  0
   36.5260   26.8850   32.1860 H   0  0  0  0  0  0  0  0  0  0  0  0
   34.9540   30.5040   34.5110 C   0  0  0  0  0  0  0  0  0  0  0  0
   35.8540   31.2770   35.2150 C   0  0  0  0  0  0  0  0  0  0  0  0
   36.8700   31.3700   34.8580 H   0  0  0  0  0  0  0  0  0  0  0  0
   35.4830   31.9330   36.3670 C   0  0  0  0  0  0  0  0  0  0  0  0
   36.1830   32.5270   36.9060 H   0  0  0  0  0  0  0  0  0  0  0  0
   34.1830   31.8110   36.8210 C   0  0  0  0  0  3  0  0  0  0  0  0
   33.2910   31.0290   36.0990 C   0  0  0  0  0  3  0  0  0  0  0  0
   33.6870   30.4030   34.9790 N   0  0  0  0  0  0  0  0  0  0  0  0
   36.6250   28.0160   29.7390 N   0  0  0  0  0  0  0  0  0  0  0  0
   37.6080   27.7120   29.9410 H   0  0  0  0  0  0  0  0  0  0  0  0
   36.1110   27.8920   28.8250 H   0  0  0  0  0  0  0  0  0  0  0  0
  1  6  1  0  0  0  0
  2  1  2  0  0  0  0
  2  3  1  0  0  0  0
  3  4  2  0  0  0  0
  5  4  1  0  0  0  0
  5  9  1  0  0  0  0
  6  5  2  0  0  0  0
  7  1  1  0  0  0  0
  8  3  1  0  0  0  0
  9 16  2  0  0  0  0
  9 10  1  0  0  0  0
 10 12  2  0  0  0  0
 11 10  1  0  0  0  0
 12 14  1  0  0  0  0
 12 13  1  0  0  0  0
 15 14  2  0  0  0  0
 16 15  1  0  0  0  0
 17 18  1  0  0  0  0
 17  2  1  0  0  0  0
 19 17  1  0  0  0  0
M  END
>  <minimizedAffinity>
-4.00918627

$$$$

 OpenBabel03272506563D

 19 20  0  0  0  0  0  0  0  0999 V2000
   36.3540   25.9870   31.2100 C   0  0  0  0  0  0  0  0  0  0  0  0
   36.9050   27.2370   30.9030 C   0  0  0  0  0  0  0  0  0  0  0  0
   37.8140   27.7520   31.8510 C   0  0  0  0  0  0  0  0  0  0  0  0
   38.0990   27.0330   32.9780 N   0  0  0  0  0  0  0  0  0  0  0  0
   37.5340   25.8430   33.2080 C   0  0  0  0  0  0  0  0  0  0  0  0
   36.6540   25.3000   32.3320 N   0  0  0  0  0  0  0  0  0  0  0  0
   35.6420   25.5460   30.5030 H   0  0  0  0  0  0  0  0  0  0  0  0
   38.2560   28.7080   31.6450 H   0  0  0  0  0  0  0  0  0  0  0  0
   37.8450   25.0840   34.4140 C   0  0  0  0  0  0  0  0  0  0  0  0
   37.8480   25.7290   35.6340 C   0  0  0  0  0  0  0  0  0  0  0  0
   37.6210   26.7850   35.6790 H   0  0  0  0  0  0  0  0  0  0  0  0
   38.1360   25.0520   36.7980 C   0  0  0  0  0  0  0  0  0  0  0  0
   38.1370   25.5570   37.7360 H   0  0  0  0  0  0  0  0  0  0  0  0
   38.4260   23.7020   36.7360 C   0  0  0  0  0  3  0  0  0  0  0  0
   38.4170   23.0710   35.5000 C   0  0  0  0  0  3  0  0  0  0  0  0
   38.1320   23.7610   34.3850 N   0  0  0  0  0  0  0  0  0  0  0  0
   36.5510   27.9070   29.7120 N   0  0  0  0  0  0  0  0  0  0  0  0
   36.1640   28.8170   30.0600 H   0  0  0  0  0  0  0  0  0  0  0  0
   36.6350   27.6130   28.7010 H   0  0  0  0  0  0  0  0  0  0  0  0
  1  6  1  0  0  0  0
  2  1  2  0  0  0  0
  2  3  1  0  0  0  0
  3  4  2  0  0  0  0
  4  5  1  0  0  0  0
  5  9  1  0  0  0  0
  6  5  2  0  0  0  0
  7  1  1  0  0  0  0
  8  3  1  0  0  0  0
  9 10  1  0  0  0  0
 10 11  1  0  0  0  0
 10 12  2  0  0  0  0
 12 13  1  0  0  0  0
 14 12  1  0  0  0  0
 15 14  2  0  0  0  0
 16  9  2  0  0  0  0
 16 15  1  0  0  0  0
 17 18  1  0  0  0  0
 17  2  1  0  0  0  0
 19 17  1  0  0  0  0
M  END
>  <minimizedAffinity>
-3.93588471

$$$$

 OpenBabel03272506563D

 19 20  0  0  0  0  0  0  0  0999 V2000
   36.8800   27.5130   34.4100 C   0  0  0  0  0  0  0  0  0  0  0  0
   36.8380   27.2140   33.0430 C   0  0  0  0  0  0  0  0  0  0  0  0
   37.3770   25.9640   32.6750 C   0  0  0  0  0  0  0  0  0  0  0  0
   37.8920   25.1390   33.6340 N   0  0  0  0  0  0  0  0  0  0  0  0
   37.9000   25.4890   34.9250 C   0  0  0  0  0  0  0  0  0  0  0  0
   37.3970   26.6780   35.3350 N   0  0  0  0  0  0  0  0  0  0  0  0
   36.4740   28.4740   34.7440 H   0  0  0  0  0  0  0  0  0  0  0  0
   37.3590   25.7040   31.6340 H   0  0  0  0  0  0  0  0  0  0  0  0
   38.4540   24.6000   35.9410 C   0  0  0  0  0  0  0  0  0  0  0  0
   39.5930   23.8760   35.6550 C   0  0  0  0  0  0  0  0  0  0  0  0
   40.0580   23.9750   34.6840 H   0  0  0  0  0  0  0  0  0  0  0  0
   40.1490   23.0260   36.5840 C   0  0  0  0  0  0  0  0  0  0  0  0
   41.0280   22.4690   36.3560 H   0  0  0  0  0  0  0  0  0  0  0  0
   39.5520   22.9010   37.8240 C   0  0  0  0  0  3  0  0  0  0  0  0
   38.4070   23.6380   38.0940 C   0  0  0  0  0  3  0  0  0  0  0  0
   37.8910   24.4580   37.1650 N   0  0  0  0  0  0  0  0  0  0  0  0
   36.2840   28.1300   32.1220 N   0  0  0  0  0  0  0  0  0  0  0  0
   37.0780   28.3090   31.4610 H   0  0  0  0  0  0  0  0  0  0  0  0
   35.3200   28.5580   32.0660 H   0  0  0  0  0  0  0  0  0  0  0  0
  1  7  1  0  0  0  0
  1  6  1  0  0  0  0
  2  1  2  0  0  0  0
  3  2  1  0  0  0  0
  3  4  2  0  0  0  0
  4  5  1  0  0  0  0
  5  6  2  0  0  0  0
  5  9  1  0  0  0  0
  8  3  1  0  0  0  0
  9 16  1  0  0  0  0
 10  9  2  0  0  0  0
 10 12  1  0  0  0  0
 11 10  1  0  0  0  0
 12 14  2  0  0  0  0
 13 12  1  0  0  0  0
 14 15  1  0  0  0  0
 16 15  2  0  0  0  0
 17  2  1  0  0  0  0
 18 17  1  0  0  0  0
 19 17  1  0  0  0  0
M  END
>  <minimizedAffinity>
-3.88742828

$$$$

 OpenBabel03272506563D

 19 20  0  0  0  0  0  0  0  0999 V2000
   35.9080   29.9260   30.9790 C   0  0  0  0  0  0  0  0  0  0  0  0
   36.2560   28.5710   30.9220 C   0  0  0  0  0  0  0  0  0  0  0  0
   36.1830   27.8720   32.1450 C   0  0  0  0  0  0  0  0  0  0  0  0
   35.7920   28.5270   33.2790 N   0  0  0  0  0  0  0  0  0  0  0  0
   35.4740   29.8260   33.2590 C   0  0  0  0  0  0  0  0  0  0  0  0
   35.5260   30.5470   32.1140 N   0  0  0  0  0  0  0  0  0  0  0  0
   35.9500   30.5110   30.0520 H   0  0  0  0  0  0  0  0  0  0  0  0
   36.4430   26.8300   32.1360 H   0  0  0  0  0  0  0  0  0  0  0  0
   35.0580   30.5150   34.4760 C   0  0  0  0  0  0  0  0  0  0  0  0
   33.7520   30.3990   34.9030 C   0  0  0  0  0  0  0  0  0  0  0  0
   33.0550   29.8010   34.3320 H   0  0  0  0  0  0  0  0  0  0  0  0
   33.3160   31.0320   36.0450 C   0  0  0  0  0  0  0  0  0  0  0  0
   32.3050   30.9380   36.3690 H   0  0  0  0  0  0  0  0  0  0  0  0
   34.2080   31.7960   36.7730 C   0  0  0  0  0  3  0  0  0  0  0  0
   35.5180   31.9010   36.3280 C   0  0  0  0  0  3  0  0  0  0  0  0
   35.9110   31.2700   35.2100 N   0  0  0  0  0  0  0  0  0  0  0  0
   36.6480   27.9770   29.7030 N   0  0  0  0  0  0  0  0  0  0  0  0
   37.6080   27.6120   29.9170 H   0  0  0  0  0  0  0  0  0  0  0  0
   36.1420   27.8940   28.7800 H   0  0  0  0  0  0  0  0  0  0  0  0
  1  6  1  0  0  0  0
  2  1  2  0  0  0  0
  2  3  1  0  0  0  0
  3  4  2  0  0  0  0
  5  4  1  0  0  0  0
  5  9  1  0  0  0  0
  6  5  2  0  0  0  0
  7  1  1  0  0  0  0
  8  3  1  0  0  0  0
  9 10  2  0  0  0  0
  9 16  1  0  0  0  0
 10 12  1  0  0  0  0
 11 10  1  0  0  0  0
 12 13  1  0  0  0  0
 12 14  2  0  0  0  0
 15 14  1  0  0  0  0
 16 15  2  0  0  0  0
 17 18  1  0  0  0  0
 17  2  1  0  0  0  0
 19 17  1  0  0  0  0
M  END
>  <minimizedAffinity>
-3.86767387

$$$$
