
 OpenBabel03262523123D

 28 30  0  0  0  0  0  0  0  0999 V2000
   34.8720   29.2620   48.4560 C   0  0  0  0  0  0  0  0  0  0  0  0
   34.4730   28.0580   48.9530 C   0  0  0  0  0  0  0  0  0  0  0  0
   33.3620   27.5220   48.3390 C   0  0  0  0  0  0  0  0  0  0  0  0
   32.7050   28.1400   47.3110 C   0  0  0  0  0  0  0  0  0  0  0  0
   33.1740   29.3570   46.8650 C   0  0  0  0  0  0  0  0  0  0  0  0
   34.2650   29.9160   47.4460 N   0  0  0  0  0  0  0  0  0  0  0  0
   34.9690   27.5490   49.7590 H   0  0  0  0  0  0  0  0  0  0  0  0
   32.9550   26.5620   48.6550 H   0  0  0  0  0  0  0  0  0  0  0  0
   31.8360   27.6910   46.8510 H   0  0  0  0  0  0  0  0  0  0  0  0
   37.5740   30.1810   50.7800 C   0  0  0  0  0  0  0  0  0  0  0  0
   38.2460   31.2110   50.0860 C   0  0  0  0  0  0  0  0  0  0  0  0
   37.7540   31.5690   48.8280 C   0  0  0  0  0  0  0  0  0  0  0  0
   36.6790   30.9180   48.3540 N   0  0  0  0  0  0  0  0  0  0  0  0
   36.0460   29.9360   49.0290 C   0  0  0  0  0  0  0  0  0  0  0  0
   36.5110   29.5780   50.2500 N   0  0  0  0  0  0  0  0  0  0  0  0
   39.0940   31.6690   50.5450 H   0  0  0  0  0  0  0  0  0  0  0  0
   38.2460   32.3520   48.2730 H   0  0  0  0  0  0  0  0  0  0  0  0
   37.9850   29.7310   52.0730 N   0  0  0  0  0  0  0  0  0  0  0  0
   37.4670   30.4500   52.6280 H   0  0  0  0  0  0  0  0  0  0  0  0
   38.6210   28.9080   52.2860 H   0  0  0  0  0  0  0  0  0  0  0  0
   32.5570   30.1080   45.7790 C   0  0  0  0  0  0  0  0  0  0  0  0
   33.2530   30.5940   44.6960 C   0  0  0  0  0  0  0  0  0  0  0  0
   34.3120   30.4280   44.6170 H   0  0  0  0  0  0  0  0  0  0  0  0
   32.7080   31.3080   43.6490 C   0  0  0  0  0  0  0  0  0  0  0  0
   33.2780   31.6710   42.8240 H   0  0  0  0  0  0  0  0  0  0  0  0
   31.3550   31.5670   43.6690 C   0  0  0  0  0  0  0  0  0  0  0  0
   30.6520   31.0830   44.7510 C   0  0  0  0  0  0  0  0  0  0  0  0
   31.2370   30.3930   45.7450 N   0  0  0  0  0  0  0  0  0  0  0  0
  1  2  1  0  0  0  0
  1 14  1  0  0  0  0
  2  7  1  0  0  0  0
  3  8  1  0  0  0  0
  3  2  2  0  0  0  0
  4  3  1  0  0  0  0
  5  4  2  0  0  0  0
  5  6  1  0  0  0  0
  6  1  2  0  0  0  0
  9  4  1  0  0  0  0
 10 18  1  0  0  0  0
 11 16  1  0  0  0  0
 11 10  2  0  0  0  0
 12 11  1  0  0  0  0
 13 12  2  0  0  0  0
 13 14  1  0  0  0  0
 14 15  2  0  0  0  0
 15 10  1  0  0  0  0
 17 12  1  0  0  0  0
 18 20  1  0  0  0  0
 18 19  1  0  0  0  0
 21  5  1  0  0  0  0
 22 21  2  0  0  0  0
 23 22  1  0  0  0  0
 24 26  2  0  0  0  0
 24 22  1  0  0  0  0
 25 24  1  0  0  0  0
 26 27  1  0  0  0  0
 27 28  2  0  0  0  0
 28 21  1  0  0  0  0
M  END
>  <minimizedAffinity>
-5.39430571

>  <minimizedRMSD>
0.107480697

$$$$
