
 OpenBabel03272510083D

 43 47  0  0  0  0  0  0  0  0999 V2000
   34.9470   30.1700   47.6270 C   0  0  0  0  0  0  0  0  0  0  0  0
   34.8310   30.3790   48.9660 N   0  0  0  0  0  0  0  0  0  0  0  0
   35.8850   30.8360   49.6610 C   0  0  0  0  0  0  0  0  0  0  0  0
   37.1010   31.1200   49.1200 N   0  0  0  0  0  0  0  0  0  0  0  0
   37.2490   30.9240   47.7940 C   0  0  0  0  0  0  0  0  0  0  0  0
   38.4410   31.2090   47.1370 C   0  0  0  0  0  0  0  0  0  0  0  0
   38.5560   31.0230   45.7590 C   0  0  0  0  0  0  0  0  0  0  0  0
   37.4510   30.5440   45.0440 C   0  0  0  0  0  0  0  0  0  0  0  0
   36.2830   30.2720   45.7400 C   0  0  0  0  0  0  0  0  0  0  0  0
   36.1690   30.4550   47.0840 C   0  0  0  0  0  0  0  0  0  0  0  0
   35.8310   31.0160   50.7350 H   0  0  0  0  0  0  0  0  0  0  0  0
   39.2310   31.5710   47.7780 H   0  0  0  0  0  0  0  0  0  0  0  0
   39.5250   31.2770   45.3560 H   0  0  0  0  0  0  0  0  0  0  0  0
   37.7390   30.4710   44.0080 H   0  0  0  0  0  0  0  0  0  0  0  0
   33.3830   28.3650   46.7380 C   0  0  0  0  0  0  0  0  0  0  0  0
   33.7710   29.7030   46.9800 C   0  0  0  0  0  0  0  0  0  0  0  0
   32.9210   30.7420   46.5250 C   0  0  0  0  0  0  0  0  0  0  0  0
   31.7680   30.4310   45.8710 N   0  0  0  0  0  0  0  0  0  0  0  0
   31.4550   29.1180   45.6660 C   0  0  0  0  0  0  0  0  0  0  0  0
   32.2320   28.1160   46.0850 N   0  0  0  0  0  0  0  0  0  0  0  0
   30.2350   28.8470   44.9340 N   0  0  0  0  0  0  0  0  0  0  0  0
   28.9290   29.2400   45.3730 C   0  0  0  0  0  0  0  0  0  0  0  0
   28.0390   28.9600   44.2020 C   0  0  0  0  0  0  0  0  0  0  0  0
   28.9430   28.6780   43.0210 C   0  0  0  0  0  0  0  0  0  0  0  0
   30.1820   28.1360   43.6440 C   0  0  0  0  0  0  0  0  0  0  0  0
   34.0700   27.6330   47.1130 H   0  0  0  0  0  0  0  0  0  0  0  0
   33.1290   31.7770   46.6660 H   0  0  0  0  0  0  0  0  0  0  0  0
   28.8720   30.3030   45.6150 H   0  0  0  0  0  0  0  0  0  0  0  0
   28.6930   28.5900   46.2620 H   0  0  0  0  0  0  0  0  0  0  0  0
   27.4920   28.0040   44.4050 H   0  0  0  0  0  0  0  0  0  0  0  0
   27.2890   29.7410   44.0110 H   0  0  0  0  0  0  0  0  0  0  0  0
   29.1700   29.6520   42.5030 H   0  0  0  0  0  0  0  0  0  0  0  0
   28.4990   27.9650   42.3020 H   0  0  0  0  0  0  0  0  0  0  0  0
   30.2280   27.0510   43.7560 H   0  0  0  0  0  0  0  0  0  0  0  0
   31.0670   28.4880   43.0740 H   0  0  0  0  0  0  0  0  0  0  0  0
   35.3820   29.8230   44.6890 C   0  0  0  0  0  0  0  0  0  0  0  0
   35.1480   28.5610   44.1860 C   0  0  0  0  0  0  0  0  0  0  0  0
   35.7140   27.7840   44.7280 H   0  0  0  0  0  0  0  0  0  0  0  0
   34.3660   28.1600   43.1350 C   0  0  0  0  0  0  0  0  0  0  0  0
   34.3120   27.1090   42.8950 H   0  0  0  0  0  0  0  0  0  0  0  0
   33.7320   29.2070   42.5070 C   0  0  0  0  0  3  0  0  0  0  0  0
   33.9230   30.4910   42.9590 C   0  0  0  0  0  3  0  0  0  0  0  0
   34.7070   30.8060   43.9980 N   0  0  0  0  0  0  0  0  0  0  0  0
  1  2  1  0  0  0  0
  2  3  2  0  0  0  0
  3 11  1  0  0  0  0
  4  3  1  0  0  0  0
  5  4  2  0  0  0  0
  6 12  1  0  0  0  0
  6  5  1  0  0  0  0
  7  6  2  0  0  0  0
  8  9  2  0  0  0  0
  8  7  1  0  0  0  0
  9 10  1  0  0  0  0
 10  1  2  0  0  0  0
 10  5  1  0  0  0  0
 13  7  1  0  0  0  0
 14  8  1  0  0  0  0
 15 16  1  0  0  0  0
 15 26  1  0  0  0  0
 16  1  1  0  0  0  0
 17 27  1  0  0  0  0
 17 16  2  0  0  0  0
 18 17  1  0  0  0  0
 19 18  2  0  0  0  0
 19 20  1  0  0  0  0
 20 15  2  0  0  0  0
 21 22  1  0  0  0  0
 21 19  1  0  0  0  0
 22 28  1  0  0  0  0
 22 29  1  0  0  0  0
 23 30  1  0  0  0  0
 23 22  1  0  0  0  0
 24 25  1  0  0  0  0
 24 23  1  0  0  0  0
 25 34  1  0  0  0  0
 25 21  1  0  0  0  0
 31 23  1  0  0  0  0
 32 24  1  0  0  0  0
 33 24  1  0  0  0  0
 35 25  1  0  0  0  0
 36  9  1  0  0  0  0
 37 36  1  0  0  0  0
 37 38  1  0  0  0  0
 39 37  2  0  0  0  0
 40 39  1  0  0  0  0
 41 42  2  0  0  0  0
 41 39  1  0  0  0  0
 42 43  1  0  0  0  0
 43 36  2  0  0  0  0
M  END
>  <minimizedAffinity>
-4.90218258

>  <minimizedRMSD>
3.44508505

$$$$
