
 OpenBabel03272506593D

 27 29  0  0  0  0  0  0  0  0999 V2000
   37.6180   26.1740   34.5640 C   0  0  0  0  0  0  0  0  0  0  0  0
   37.8210   26.0540   33.1970 C   0  0  0  0  0  0  0  0  0  0  0  0
   37.3640   26.9160   32.2230 C   0  0  0  0  0  0  0  0  0  0  0  0
   36.6430   27.9810   32.6880 N   0  0  0  0  0  0  0  0  0  0  0  0
   36.4270   28.1270   34.0170 C   0  0  0  0  0  0  0  0  0  0  0  0
   36.9020   27.2480   34.9140 N   0  0  0  0  0  0  0  0  0  0  0  0
   38.3920   25.2130   32.8230 H   0  0  0  0  0  0  0  0  0  0  0  0
   37.5590   26.7620   31.1860 H   0  0  0  0  0  0  0  0  0  0  0  0
   39.8090   23.6220   35.9020 C   0  0  0  0  0  0  0  0  0  0  0  0
   39.2800   23.3010   37.1460 C   0  0  0  0  0  0  0  0  0  0  0  0
   38.1190   24.0060   37.5220 C   0  0  0  0  0  0  0  0  0  0  0  0
   37.6040   24.9220   36.6740 N   0  0  0  0  0  0  0  0  0  0  0  0
   38.1510   25.1940   35.4870 C   0  0  0  0  0  0  0  0  0  0  0  0
   39.2820   24.5520   35.0490 N   0  0  0  0  0  0  0  0  0  0  0  0
   40.7140   23.0960   35.5730 H   0  0  0  0  0  0  0  0  0  0  0  0
   37.6960   23.7670   38.4870 H   0  0  0  0  0  0  0  0  0  0  0  0
   39.9000   22.3240   37.9560 N   0  0  0  0  0  0  0  0  0  0  0  0
   39.5860   21.3570   37.7370 H   0  0  0  0  0  0  0  0  0  0  0  0
   40.5710   22.7680   38.6350 H   0  0  0  0  0  0  0  0  0  0  0  0
   35.6570   29.2640   34.5120 C   0  0  0  0  0  0  0  0  0  0  0  0
   36.2770   30.2180   35.2970 C   0  0  0  0  0  0  0  0  0  0  0  0
   37.3280   30.0800   35.5160 H   0  0  0  0  0  0  0  0  0  0  0  0
   35.6300   31.3310   35.8120 C   0  0  0  0  0  0  0  0  0  0  0  0
   36.1290   32.0680   36.4240 H   0  0  0  0  0  0  0  0  0  0  0  0
   34.2960   31.4070   35.4700 C   0  0  0  0  0  3  0  0  0  0  0  0
   33.6290   30.4830   34.6910 C   0  0  0  0  0  3  0  0  0  0  0  0
   34.3310   29.4110   34.2190 N   0  0  0  0  0  0  0  0  0  0  0  0
  1  6  1  0  0  0  0
  1 13  1  0  0  0  0
  2  1  2  0  0  0  0
  3  4  2  0  0  0  0
  3  2  1  0  0  0  0
  4  5  1  0  0  0  0
  5 20  1  0  0  0  0
  5  6  2  0  0  0  0
  7  2  1  0  0  0  0
  8  3  1  0  0  0  0
  9 10  1  0  0  0  0
 10 11  2  0  0  0  0
 10 17  1  0  0  0  0
 11 16  1  0  0  0  0
 12 11  1  0  0  0  0
 13 12  2  0  0  0  0
 14 13  1  0  0  0  0
 14  9  2  0  0  0  0
 15  9  1  0  0  0  0
 17 19  1  0  0  0  0
 18 17  1  0  0  0  0
 20 21  1  0  0  0  0
 21 22  1  0  0  0  0
 21 23  2  0  0  0  0
 23 24  1  0  0  0  0
 25 23  1  0  0  0  0
 26 25  2  0  0  0  0
 27 20  2  0  0  0  0
 27 26  1  0  0  0  0
M  END
>  <minimizedAffinity>
-5.27468443

$$$$

 OpenBabel03272506593D

 27 29  0  0  0  0  0  0  0  0999 V2000
   37.7620   25.1110   33.8110 C   0  0  0  0  0  0  0  0  0  0  0  0
   37.8320   24.4690   32.5830 C   0  0  0  0  0  0  0  0  0  0  0  0
   37.5020   25.0080   31.3590 C   0  0  0  0  0  0  0  0  0  0  0  0
   37.0670   26.3040   31.3960 N   0  0  0  0  0  0  0  0  0  0  0  0
   36.9880   26.9590   32.5790 C   0  0  0  0  0  0  0  0  0  0  0  0
   37.3260   26.3740   33.7390 N   0  0  0  0  0  0  0  0  0  0  0  0
   38.1760   23.4440   32.5470 H   0  0  0  0  0  0  0  0  0  0  0  0
   37.5800   24.4540   30.4500 H   0  0  0  0  0  0  0  0  0  0  0  0
   38.0850   24.4470   37.3540 C   0  0  0  0  0  0  0  0  0  0  0  0
   38.7780   23.2450   37.4400 C   0  0  0  0  0  0  0  0  0  0  0  0
   39.1400   22.6550   36.2120 C   0  0  0  0  0  0  0  0  0  0  0  0
   38.8030   23.2750   35.0620 N   0  0  0  0  0  0  0  0  0  0  0  0
   38.1370   24.4300   35.0330 C   0  0  0  0  0  0  0  0  0  0  0  0
   37.7480   25.0680   36.1840 N   0  0  0  0  0  0  0  0  0  0  0  0
   37.7850   24.9380   38.2880 H   0  0  0  0  0  0  0  0  0  0  0  0
   39.6800   21.7200   36.2630 H   0  0  0  0  0  0  0  0  0  0  0  0
   39.0790   22.6820   38.6990 N   0  0  0  0  0  0  0  0  0  0  0  0
   39.9630   23.0500   39.1080 H   0  0  0  0  0  0  0  0  0  0  0  0
   38.3420   21.9890   38.9880 H   0  0  0  0  0  0  0  0  0  0  0  0
   36.5230   28.3430   32.6180 C   0  0  0  0  0  0  0  0  0  0  0  0
   35.9550   28.8390   33.7760 C   0  0  0  0  0  0  0  0  0  0  0  0
   35.8770   28.1690   34.6230 H   0  0  0  0  0  0  0  0  0  0  0  0
   35.4860   30.1370   33.9090 C   0  0  0  0  0  0  0  0  0  0  0  0
   35.0440   30.5110   34.8210 H   0  0  0  0  0  0  0  0  0  0  0  0
   35.6370   30.9030   32.7710 C   0  0  0  0  0  3  0  0  0  0  0  0
   36.1960   30.4570   31.5920 C   0  0  0  0  0  3  0  0  0  0  0  0
   36.6360   29.1650   31.5340 N   0  0  0  0  0  0  0  0  0  0  0  0
  1 13  1  0  0  0  0
  2  1  2  0  0  0  0
  3  4  2  0  0  0  0
  3  2  1  0  0  0  0
  4  5  1  0  0  0  0
  5 20  1  0  0  0  0
  5  6  2  0  0  0  0
  6  1  1  0  0  0  0
  7  2  1  0  0  0  0
  8  3  1  0  0  0  0
  9 10  1  0  0  0  0
  9 15  1  0  0  0  0
 10 17  1  0  0  0  0
 11 16  1  0  0  0  0
 11 10  2  0  0  0  0
 12 11  1  0  0  0  0
 13 12  2  0  0  0  0
 13 14  1  0  0  0  0
 14  9  2  0  0  0  0
 17 19  1  0  0  0  0
 17 18  1  0  0  0  0
 20 21  1  0  0  0  0
 21 23  2  0  0  0  0
 21 22  1  0  0  0  0
 23 24  1  0  0  0  0
 25 23  1  0  0  0  0
 26 25  2  0  0  0  0
 27 26  1  0  0  0  0
 27 20  2  0  0  0  0
M  END
>  <minimizedAffinity>
-5.22158957

$$$$

 OpenBabel03272506593D

 27 29  0  0  0  0  0  0  0  0999 V2000
   37.7510   25.1410   33.8850 C   0  0  0  0  0  0  0  0  0  0  0  0
   37.6100   24.5400   32.6420 C   0  0  0  0  0  0  0  0  0  0  0  0
   37.0830   25.1210   31.5090 C   0  0  0  0  0  0  0  0  0  0  0  0
   36.6690   26.4150   31.6620 N   0  0  0  0  0  0  0  0  0  0  0  0
   36.7930   27.0300   32.8630 C   0  0  0  0  0  0  0  0  0  0  0  0
   37.3170   26.4060   33.9290 N   0  0  0  0  0  0  0  0  0  0  0  0
   37.9360   23.5170   32.5140 H   0  0  0  0  0  0  0  0  0  0  0  0
   37.0040   24.5990   30.5820 H   0  0  0  0  0  0  0  0  0  0  0  0
   39.9410   22.9170   35.7180 C   0  0  0  0  0  0  0  0  0  0  0  0
   39.5090   22.9820   37.0370 C   0  0  0  0  0  0  0  0  0  0  0  0
   38.4140   23.8350   37.2840 C   0  0  0  0  0  0  0  0  0  0  0  0
   37.8670   24.5160   36.2550 N   0  0  0  0  0  0  0  0  0  0  0  0
   38.3200   24.4180   35.0030 C   0  0  0  0  0  0  0  0  0  0  0  0
   39.3820   23.6100   34.6810 N   0  0  0  0  0  0  0  0  0  0  0  0
   40.7920   22.2650   35.4850 H   0  0  0  0  0  0  0  0  0  0  0  0
   38.0660   23.8960   38.3050 H   0  0  0  0  0  0  0  0  0  0  0  0
   40.1550   22.2260   38.0390 N   0  0  0  0  0  0  0  0  0  0  0  0
   39.7830   21.2570   38.1200 H   0  0  0  0  0  0  0  0  0  0  0  0
   40.8990   22.7950   38.5190 H   0  0  0  0  0  0  0  0  0  0  0  0
   36.3510   28.4120   33.0260 C   0  0  0  0  0  0  0  0  0  0  0  0
   35.9530   28.8590   34.2720 C   0  0  0  0  0  0  0  0  0  0  0  0
   35.9870   28.1520   35.0910 H   0  0  0  0  0  0  0  0  0  0  0  0
   35.5190   30.1510   34.5250 C   0  0  0  0  0  0  0  0  0  0  0  0
   35.2120   30.4850   35.5040 H   0  0  0  0  0  0  0  0  0  0  0  0
   35.5170   30.9650   33.4110 C   0  0  0  0  0  3  0  0  0  0  0  0
   35.9020   30.5700   32.1470 C   0  0  0  0  0  3  0  0  0  0  0  0
   36.3190   29.2810   31.9730 N   0  0  0  0  0  0  0  0  0  0  0  0
  1  6  1  0  0  0  0
  1 13  1  0  0  0  0
  2  1  2  0  0  0  0
  3  4  2  0  0  0  0
  3  2  1  0  0  0  0
  4  5  1  0  0  0  0
  5 20  1  0  0  0  0
  5  6  2  0  0  0  0
  7  2  1  0  0  0  0
  8  3  1  0  0  0  0
  9 10  1  0  0  0  0
 10 11  2  0  0  0  0
 10 17  1  0  0  0  0
 11 16  1  0  0  0  0
 12 11  1  0  0  0  0
 13 12  2  0  0  0  0
 14 13  1  0  0  0  0
 14  9  2  0  0  0  0
 15  9  1  0  0  0  0
 17 18  1  0  0  0  0
 17 19  1  0  0  0  0
 20 21  1  0  0  0  0
 21 23  2  0  0  0  0
 21 22  1  0  0  0  0
 23 24  1  0  0  0  0
 25 23  1  0  0  0  0
 26 25  2  0  0  0  0
 27 26  1  0  0  0  0
 27 20  2  0  0  0  0
M  END
>  <minimizedAffinity>
-5.20561075

$$$$

 OpenBabel03272506593D

 27 29  0  0  0  0  0  0  0  0999 V2000
   38.3760   24.6840   36.0690 C   0  0  0  0  0  0  0  0  0  0  0  0
   37.8750   24.6380   37.3620 C   0  0  0  0  0  0  0  0  0  0  0  0
   38.3140   23.8210   38.3800 C   0  0  0  0  0  0  0  0  0  0  0  0
   39.3460   22.9870   38.0480 N   0  0  0  0  0  0  0  0  0  0  0  0
   39.8580   23.0070   36.7940 C   0  0  0  0  0  0  0  0  0  0  0  0
   39.3820   23.8300   35.8460 N   0  0  0  0  0  0  0  0  0  0  0  0
   37.0600   25.2960   37.6310 H   0  0  0  0  0  0  0  0  0  0  0  0
   37.8820   23.8390   39.3550 H   0  0  0  0  0  0  0  0  0  0  0  0
   37.2300   25.9100   32.8620 C   0  0  0  0  0  0  0  0  0  0  0  0
   36.7830   27.2030   33.1030 C   0  0  0  0  0  0  0  0  0  0  0  0
   36.8900   27.6530   34.4340 C   0  0  0  0  0  0  0  0  0  0  0  0
   37.4060   26.8250   35.3670 N   0  0  0  0  0  0  0  0  0  0  0  0
   37.8220   25.5900   35.0840 C   0  0  0  0  0  0  0  0  0  0  0  0
   37.7510   25.0770   33.8130 N   0  0  0  0  0  0  0  0  0  0  0  0
   37.1630   25.5220   31.8380 H   0  0  0  0  0  0  0  0  0  0  0  0
   36.5460   28.6580   34.6370 H   0  0  0  0  0  0  0  0  0  0  0  0
   36.2580   27.9860   32.0510 N   0  0  0  0  0  0  0  0  0  0  0  0
   36.9930   28.4970   31.5200 H   0  0  0  0  0  0  0  0  0  0  0  0
   35.2100   27.9010   32.0050 H   0  0  0  0  0  0  0  0  0  0  0  0
   40.9590   22.1160   36.4390 C   0  0  0  0  0  0  0  0  0  0  0  0
   41.5880   21.3820   37.4270 C   0  0  0  0  0  0  0  0  0  0  0  0
   41.2310   21.5000   38.4420 H   0  0  0  0  0  0  0  0  0  0  0  0
   42.6400   20.5120   37.1880 C   0  0  0  0  0  0  0  0  0  0  0  0
   43.1220   19.9440   37.9710 H   0  0  0  0  0  0  0  0  0  0  0  0
   43.0120   20.4390   35.8610 C   0  0  0  0  0  3  0  0  0  0  0  0
   42.4180   21.1490   34.8380 C   0  0  0  0  0  3  0  0  0  0  0  0
   41.3870   21.9880   35.1490 N   0  0  0  0  0  0  0  0  0  0  0  0
  1  2  1  0  0  0  0
  2  7  1  0  0  0  0
  2  3  2  0  0  0  0
  3  8  1  0  0  0  0
  4  3  1  0  0  0  0
  5  4  2  0  0  0  0
  6  1  2  0  0  0  0
  6  5  1  0  0  0  0
  9 10  2  0  0  0  0
  9 14  1  0  0  0  0
 10 11  1  0  0  0  0
 11 16  1  0  0  0  0
 11 12  2  0  0  0  0
 13 12  1  0  0  0  0
 13  1  1  0  0  0  0
 14 13  2  0  0  0  0
 15  9  1  0  0  0  0
 17 10  1  0  0  0  0
 18 17  1  0  0  0  0
 19 17  1  0  0  0  0
 20  5  1  0  0  0  0
 20 21  1  0  0  0  0
 21 22  1  0  0  0  0
 23 21  2  0  0  0  0
 23 24  1  0  0  0  0
 25 23  1  0  0  0  0
 26 27  1  0  0  0  0
 26 25  2  0  0  0  0
 27 20  2  0  0  0  0
M  END
>  <minimizedAffinity>
-5.10734797

$$$$

 OpenBabel03272506593D

 27 29  0  0  0  0  0  0  0  0999 V2000
   37.5570   25.5200   32.8260 C   0  0  0  0  0  0  0  0  0  0  0  0
   37.8880   24.4950   31.9520 C   0  0  0  0  0  0  0  0  0  0  0  0
   38.4020   23.2630   32.2940 C   0  0  0  0  0  0  0  0  0  0  0  0
   38.5910   23.0680   33.6340 N   0  0  0  0  0  0  0  0  0  0  0  0
   38.2780   24.0490   34.5140 C   0  0  0  0  0  0  0  0  0  0  0  0
   37.7790   25.2300   34.1130 N   0  0  0  0  0  0  0  0  0  0  0  0
   37.7400   24.6430   30.8900 H   0  0  0  0  0  0  0  0  0  0  0  0
   38.6340   22.5180   31.5670 H   0  0  0  0  0  0  0  0  0  0  0  0
   36.5420   28.0850   30.4820 C   0  0  0  0  0  0  0  0  0  0  0  0
   36.0390   29.1170   31.2650 C   0  0  0  0  0  0  0  0  0  0  0  0
   36.0600   28.9010   32.6570 C   0  0  0  0  0  0  0  0  0  0  0  0
   36.5540   27.7380   33.1330 N   0  0  0  0  0  0  0  0  0  0  0  0
   37.0260   26.7760   32.3380 C   0  0  0  0  0  0  0  0  0  0  0  0
   37.0400   26.9100   30.9720 N   0  0  0  0  0  0  0  0  0  0  0  0
   36.5420   28.2150   29.3930 H   0  0  0  0  0  0  0  0  0  0  0  0
   35.6720   29.6950   33.2790 H   0  0  0  0  0  0  0  0  0  0  0  0
   35.5450   30.2950   30.6620 N   0  0  0  0  0  0  0  0  0  0  0  0
   36.2890   30.9980   30.4740 H   0  0  0  0  0  0  0  0  0  0  0  0
   34.5040   30.2360   30.5160 H   0  0  0  0  0  0  0  0  0  0  0  0
   38.4800   23.8400   35.9450 C   0  0  0  0  0  0  0  0  0  0  0  0
   39.5540   23.0870   36.3790 C   0  0  0  0  0  0  0  0  0  0  0  0
   40.2140   22.6750   35.6260 H   0  0  0  0  0  0  0  0  0  0  0  0
   39.8280   22.8340   37.7140 C   0  0  0  0  0  0  0  0  0  0  0  0
   40.6720   22.2440   38.0390 H   0  0  0  0  0  0  0  0  0  0  0  0
   38.9250   23.4070   38.5860 C   0  0  0  0  0  3  0  0  0  0  0  0
   37.8370   24.1660   38.2050 C   0  0  0  0  0  3  0  0  0  0  0  0
   37.6300   24.3730   36.8710 N   0  0  0  0  0  0  0  0  0  0  0  0
  1  6  1  0  0  0  0
  2  3  1  0  0  0  0
  2  1  2  0  0  0  0
  3  4  2  0  0  0  0
  4  5  1  0  0  0  0
  5 20  1  0  0  0  0
  6  5  2  0  0  0  0
  7  2  1  0  0  0  0
  8  3  1  0  0  0  0
  9 14  2  0  0  0  0
  9 10  1  0  0  0  0
 10 11  2  0  0  0  0
 11 12  1  0  0  0  0
 11 16  1  0  0  0  0
 13  1  1  0  0  0  0
 13 12  2  0  0  0  0
 14 13  1  0  0  0  0
 15  9  1  0  0  0  0
 17 10  1  0  0  0  0
 18 17  1  0  0  0  0
 19 17  1  0  0  0  0
 20 21  2  0  0  0  0
 20 27  1  0  0  0  0
 21 23  1  0  0  0  0
 22 21  1  0  0  0  0
 23 24  1  0  0  0  0
 23 25  2  0  0  0  0
 26 25  1  0  0  0  0
 27 26  2  0  0  0  0
M  END
>  <minimizedAffinity>
-5.10563469

$$$$

 OpenBabel03272506593D

 27 29  0  0  0  0  0  0  0  0999 V2000
   37.3160   26.3400   33.4070 C   0  0  0  0  0  0  0  0  0  0  0  0
   37.6950   25.5600   32.3240 C   0  0  0  0  0  0  0  0  0  0  0  0
   38.3340   24.3410   32.3790 C   0  0  0  0  0  0  0  0  0  0  0  0
   38.6070   23.8880   33.6400 N   0  0  0  0  0  0  0  0  0  0  0  0
   38.2500   24.6260   34.7190 C   0  0  0  0  0  0  0  0  0  0  0  0
   37.6280   25.8090   34.5950 N   0  0  0  0  0  0  0  0  0  0  0  0
   37.4810   25.9120   31.3240 H   0  0  0  0  0  0  0  0  0  0  0  0
   38.5970   23.7920   31.5030 H   0  0  0  0  0  0  0  0  0  0  0  0
   35.6520   29.4490   34.2250 C   0  0  0  0  0  0  0  0  0  0  0  0
   35.3730   30.0470   33.0030 C   0  0  0  0  0  0  0  0  0  0  0  0
   35.7830   29.3330   31.8590 C   0  0  0  0  0  0  0  0  0  0  0  0
   36.4040   28.1450   32.0160 N   0  0  0  0  0  0  0  0  0  0  0  0
   36.6490   27.6110   33.2150 C   0  0  0  0  0  0  0  0  0  0  0  0
   36.2810   28.2450   34.3750 N   0  0  0  0  0  0  0  0  0  0  0  0
   35.3480   29.9740   35.1390 H   0  0  0  0  0  0  0  0  0  0  0  0
   35.5730   29.7860   30.9010 H   0  0  0  0  0  0  0  0  0  0  0  0
   34.7170   31.2970   32.9520 N   0  0  0  0  0  0  0  0  0  0  0  0
   33.6800   31.2130   32.9800 H   0  0  0  0  0  0  0  0  0  0  0  0
   35.4120   32.0850   32.8950 H   0  0  0  0  0  0  0  0  0  0  0  0
   38.5420   24.1420   36.0650 C   0  0  0  0  0  0  0  0  0  0  0  0
   37.7920   24.6010   37.1320 C   0  0  0  0  0  0  0  0  0  0  0  0
   37.0040   25.3130   36.9210 H   0  0  0  0  0  0  0  0  0  0  0  0
   37.9930   24.2000   38.4440 C   0  0  0  0  0  0  0  0  0  0  0  0
   37.3990   24.5670   39.2670 H   0  0  0  0  0  0  0  0  0  0  0  0
   39.0200   23.2910   38.5970 C   0  0  0  0  0  3  0  0  0  0  0  0
   39.7980   22.8030   37.5670 C   0  0  0  0  0  3  0  0  0  0  0  0
   39.5420   23.2430   36.3000 N   0  0  0  0  0  0  0  0  0  0  0  0
  1  6  1  0  0  0  0
  2  3  1  0  0  0  0
  2  1  2  0  0  0  0
  3  4  2  0  0  0  0
  4  5  1  0  0  0  0
  5 20  1  0  0  0  0
  6  5  2  0  0  0  0
  7  2  1  0  0  0  0
  8  3  1  0  0  0  0
  9 14  1  0  0  0  0
  9 15  1  0  0  0  0
 10  9  2  0  0  0  0
 11 12  2  0  0  0  0
 11 10  1  0  0  0  0
 12 13  1  0  0  0  0
 13  1  1  0  0  0  0
 13 14  2  0  0  0  0
 16 11  1  0  0  0  0
 17 18  1  0  0  0  0
 17 10  1  0  0  0  0
 19 17  1  0  0  0  0
 20 27  2  0  0  0  0
 20 21  1  0  0  0  0
 21 23  2  0  0  0  0
 22 21  1  0  0  0  0
 23 25  1  0  0  0  0
 23 24  1  0  0  0  0
 26 25  2  0  0  0  0
 27 26  1  0  0  0  0
M  END
>  <minimizedAffinity>
-5.01727009

$$$$

 OpenBabel03272506593D

 27 29  0  0  0  0  0  0  0  0999 V2000
   36.0230   28.1430   32.0710 C   0  0  0  0  0  0  0  0  0  0  0  0
   36.4860   29.0070   31.0900 C   0  0  0  0  0  0  0  0  0  0  0  0
   36.4920   30.3840   31.1490 C   0  0  0  0  0  0  0  0  0  0  0  0
   35.9840   30.9140   32.3030 N   0  0  0  0  0  0  0  0  0  0  0  0
   35.5240   30.0980   33.2810 C   0  0  0  0  0  0  0  0  0  0  0  0
   35.5470   28.7610   33.1590 N   0  0  0  0  0  0  0  0  0  0  0  0
   36.8900   28.5940   30.1750 H   0  0  0  0  0  0  0  0  0  0  0  0
   36.8650   30.9890   30.3550 H   0  0  0  0  0  0  0  0  0  0  0  0
   37.1120   24.7120   32.4530 C   0  0  0  0  0  0  0  0  0  0  0  0
   36.2720   23.9680   31.6330 C   0  0  0  0  0  0  0  0  0  0  0  0
   35.2950   24.6990   30.9280 C   0  0  0  0  0  0  0  0  0  0  0  0
   35.2370   26.0390   31.0850 N   0  0  0  0  0  0  0  0  0  0  0  0
   36.0690   26.7080   31.8850 C   0  0  0  0  0  0  0  0  0  0  0  0
   37.0460   26.0690   32.6070 N   0  0  0  0  0  0  0  0  0  0  0  0
   37.8860   24.1800   33.0190 H   0  0  0  0  0  0  0  0  0  0  0  0
   34.6340   24.1340   30.2860 H   0  0  0  0  0  0  0  0  0  0  0  0
   36.4200   22.5670   31.5420 N   0  0  0  0  0  0  0  0  0  0  0  0
   37.1240   22.2780   30.8320 H   0  0  0  0  0  0  0  0  0  0  0  0
   35.7800   22.0760   32.2190 H   0  0  0  0  0  0  0  0  0  0  0  0
   34.9820   30.6650   34.5120 C   0  0  0  0  0  0  0  0  0  0  0  0
   35.7920   31.4360   35.3230 C   0  0  0  0  0  0  0  0  0  0  0  0
   36.8160   31.5920   35.0050 H   0  0  0  0  0  0  0  0  0  0  0  0
   35.3690   32.0160   36.5090 C   0  0  0  0  0  0  0  0  0  0  0  0
   36.0140   32.6170   37.1320 H   0  0  0  0  0  0  0  0  0  0  0  0
   34.0490   31.7540   36.8160 C   0  0  0  0  0  3  0  0  0  0  0  0
   33.1980   30.9910   36.0430 C   0  0  0  0  0  3  0  0  0  0  0  0
   33.6860   30.4510   34.8870 N   0  0  0  0  0  0  0  0  0  0  0  0
  1  6  1  0  0  0  0
  2  3  1  0  0  0  0
  2  1  2  0  0  0  0
  3  4  2  0  0  0  0
  4  5  1  0  0  0  0
  5 20  1  0  0  0  0
  6  5  2  0  0  0  0
  7  2  1  0  0  0  0
  8  3  1  0  0  0  0
  9 14  1  0  0  0  0
  9 15  1  0  0  0  0
 10  9  2  0  0  0  0
 11 12  2  0  0  0  0
 11 10  1  0  0  0  0
 12 13  1  0  0  0  0
 13  1  1  0  0  0  0
 13 14  2  0  0  0  0
 16 11  1  0  0  0  0
 17 10  1  0  0  0  0
 17 19  1  0  0  0  0
 18 17  1  0  0  0  0
 20 27  2  0  0  0  0
 20 21  1  0  0  0  0
 21 23  2  0  0  0  0
 22 21  1  0  0  0  0
 23 25  1  0  0  0  0
 23 24  1  0  0  0  0
 26 25  2  0  0  0  0
 27 26  1  0  0  0  0
M  END
>  <minimizedAffinity>
-4.99630022

$$$$

 OpenBabel03272506593D

 27 29  0  0  0  0  0  0  0  0999 V2000
   37.6740   24.3020   32.6670 C   0  0  0  0  0  0  0  0  0  0  0  0
   37.6950   23.0540   32.0620 C   0  0  0  0  0  0  0  0  0  0  0  0
   37.9760   21.8530   32.6760 C   0  0  0  0  0  0  0  0  0  0  0  0
   38.2580   21.9390   34.0120 N   0  0  0  0  0  0  0  0  0  0  0  0
   38.2460   23.1430   34.6320 C   0  0  0  0  0  0  0  0  0  0  0  0
   37.9630   24.2780   33.9740 N   0  0  0  0  0  0  0  0  0  0  0  0
   37.4720   22.9800   31.0060 H   0  0  0  0  0  0  0  0  0  0  0  0
   37.9740   20.9270   32.1480 H   0  0  0  0  0  0  0  0  0  0  0  0
   38.1550   27.1290   30.4580 C   0  0  0  0  0  0  0  0  0  0  0  0
   36.9220   27.7680   30.4070 C   0  0  0  0  0  0  0  0  0  0  0  0
   35.8940   27.1840   31.1730 C   0  0  0  0  0  0  0  0  0  0  0  0
   36.1620   26.0720   31.8910 N   0  0  0  0  0  0  0  0  0  0  0  0
   37.3650   25.4960   31.9070 C   0  0  0  0  0  0  0  0  0  0  0  0
   38.4180   26.0030   31.1870 N   0  0  0  0  0  0  0  0  0  0  0  0
   38.9810   27.5530   29.8740 H   0  0  0  0  0  0  0  0  0  0  0  0
   34.9290   27.6690   31.1440 H   0  0  0  0  0  0  0  0  0  0  0  0
   36.7510   28.9280   29.6200 N   0  0  0  0  0  0  0  0  0  0  0  0
   37.0160   29.8010   30.1210 H   0  0  0  0  0  0  0  0  0  0  0  0
   36.3820   28.6850   28.6650 H   0  0  0  0  0  0  0  0  0  0  0  0
   38.5470   23.2340   36.0580 C   0  0  0  0  0  0  0  0  0  0  0  0
   37.6960   23.9330   36.8920 C   0  0  0  0  0  0  0  0  0  0  0  0
   36.8230   24.3920   36.4450 H   0  0  0  0  0  0  0  0  0  0  0  0
   37.8970   24.0740   38.2560 C   0  0  0  0  0  0  0  0  0  0  0  0
   37.2220   24.6230   38.8950 H   0  0  0  0  0  0  0  0  0  0  0  0
   39.0370   23.4490   38.7180 C   0  0  0  0  0  3  0  0  0  0  0  0
   39.9200   22.7400   37.9290 C   0  0  0  0  0  3  0  0  0  0  0  0
   39.6570   22.6440   36.5930 N   0  0  0  0  0  0  0  0  0  0  0  0
  1  6  1  0  0  0  0
  2  1  2  0  0  0  0
  2  3  1  0  0  0  0
  3  4  2  0  0  0  0
  4  5  1  0  0  0  0
  5 20  1  0  0  0  0
  6  5  2  0  0  0  0
  7  2  1  0  0  0  0
  8  3  1  0  0  0  0
  9 14  1  0  0  0  0
 10  9  2  0  0  0  0
 10 11  1  0  0  0  0
 11 12  2  0  0  0  0
 12 13  1  0  0  0  0
 13  1  1  0  0  0  0
 14 13  2  0  0  0  0
 15  9  1  0  0  0  0
 16 11  1  0  0  0  0
 17 18  1  0  0  0  0
 17 10  1  0  0  0  0
 19 17  1  0  0  0  0
 20 27  2  0  0  0  0
 20 21  1  0  0  0  0
 21 23  2  0  0  0  0
 22 21  1  0  0  0  0
 23 25  1  0  0  0  0
 23 24  1  0  0  0  0
 26 25  2  0  0  0  0
 27 26  1  0  0  0  0
M  END
>  <minimizedAffinity>
-4.96290064

$$$$

 OpenBabel03272506593D

 27 29  0  0  0  0  0  0  0  0999 V2000
   35.6810   29.4260   34.1030 C   0  0  0  0  0  0  0  0  0  0  0  0
   35.6960   29.6640   32.7360 C   0  0  0  0  0  0  0  0  0  0  0  0
   36.2260   28.8380   31.7690 C   0  0  0  0  0  0  0  0  0  0  0  0
   36.7840   27.6820   32.2380 N   0  0  0  0  0  0  0  0  0  0  0  0
   36.7860   27.4190   33.5670 C   0  0  0  0  0  0  0  0  0  0  0  0
   36.2510   28.2680   34.4590 N   0  0  0  0  0  0  0  0  0  0  0  0
   35.2550   30.5770   32.3590 H   0  0  0  0  0  0  0  0  0  0  0  0
   36.2020   29.0840   30.7310 H   0  0  0  0  0  0  0  0  0  0  0  0
   35.4690   32.1200   36.5100 C   0  0  0  0  0  0  0  0  0  0  0  0
   34.1160   32.2500   36.7960 C   0  0  0  0  0  0  0  0  0  0  0  0
   33.2550   31.3620   36.1190 C   0  0  0  0  0  0  0  0  0  0  0  0
   33.7840   30.4640   35.2610 N   0  0  0  0  0  0  0  0  0  0  0  0
   35.0930   30.3790   35.0210 C   0  0  0  0  0  0  0  0  0  0  0  0
   35.9960   31.2080   35.6400 N   0  0  0  0  0  0  0  0  0  0  0  0
   36.1710   32.7940   37.0170 H   0  0  0  0  0  0  0  0  0  0  0  0
   32.2000   31.4510   36.3310 H   0  0  0  0  0  0  0  0  0  0  0  0
   33.6690   33.2270   37.7130 N   0  0  0  0  0  0  0  0  0  0  0  0
   33.6940   32.8990   38.7000 H   0  0  0  0  0  0  0  0  0  0  0  0
   33.3930   34.1130   37.2150 H   0  0  0  0  0  0  0  0  0  0  0  0
   37.3820   26.1840   34.0680 C   0  0  0  0  0  0  0  0  0  0  0  0
   37.6440   26.0510   35.4180 C   0  0  0  0  0  0  0  0  0  0  0  0
   37.3910   26.8850   36.0620 H   0  0  0  0  0  0  0  0  0  0  0  0
   38.2060   24.9190   35.9870 C   0  0  0  0  0  0  0  0  0  0  0  0
   38.4050   24.8300   37.0440 H   0  0  0  0  0  0  0  0  0  0  0  0
   38.4870   23.9200   35.0760 C   0  0  0  0  0  3  0  0  0  0  0  0
   38.2460   24.0020   33.7200 C   0  0  0  0  0  3  0  0  0  0  0  0
   37.6900   25.1490   33.2320 N   0  0  0  0  0  0  0  0  0  0  0  0
  1  6  1  0  0  0  0
  1 13  1  0  0  0  0
  2  1  2  0  0  0  0
  3  4  2  0  0  0  0
  3  2  1  0  0  0  0
  4  5  1  0  0  0  0
  5 20  1  0  0  0  0
  5  6  2  0  0  0  0
  7  2  1  0  0  0  0
  8  3  1  0  0  0  0
  9 10  1  0  0  0  0
  9 15  1  0  0  0  0
 10 17  1  0  0  0  0
 11 16  1  0  0  0  0
 11 10  2  0  0  0  0
 12 11  1  0  0  0  0
 13 12  2  0  0  0  0
 13 14  1  0  0  0  0
 14  9  2  0  0  0  0
 17 18  1  0  0  0  0
 19 17  1  0  0  0  0
 20 21  1  0  0  0  0
 21 23  2  0  0  0  0
 21 22  1  0  0  0  0
 23 24  1  0  0  0  0
 25 23  1  0  0  0  0
 26 25  2  0  0  0  0
 27 26  1  0  0  0  0
 27 20  2  0  0  0  0
M  END
>  <minimizedAffinity>
-4.91288137

$$$$
