
 OpenBabel03272510083D

 43 47  0  0  0  0  0  0  0  0999 V2000
   36.3340   30.2920   48.1000 C   0  0  0  0  0  0  0  0  0  0  0  0
   36.9330   30.6240   49.2750 N   0  0  0  0  0  0  0  0  0  0  0  0
   38.0220   31.4090   49.2670 C   0  0  0  0  0  0  0  0  0  0  0  0
   38.5960   31.9190   48.1440 N   0  0  0  0  0  0  0  0  0  0  0  0
   38.0250   31.6100   46.9610 C   0  0  0  0  0  0  0  0  0  0  0  0
   38.5160   32.1010   45.7560 C   0  0  0  0  0  0  0  0  0  0  0  0
   37.8870   31.7860   44.5510 C   0  0  0  0  0  0  0  0  0  0  0  0
   36.7530   30.9650   44.5710 C   0  0  0  0  0  0  0  0  0  0  0  0
   36.2990   30.4970   45.7950 C   0  0  0  0  0  0  0  0  0  0  0  0
   36.9110   30.8040   46.9720 C   0  0  0  0  0  0  0  0  0  0  0  0
   38.5310   31.6960   50.1870 H   0  0  0  0  0  0  0  0  0  0  0  0
   39.3940   32.7220   45.8500 H   0  0  0  0  0  0  0  0  0  0  0  0
   38.3520   32.2240   43.6800 H   0  0  0  0  0  0  0  0  0  0  0  0
   36.4200   30.8430   43.5540 H   0  0  0  0  0  0  0  0  0  0  0  0
   35.1160   28.0660   48.3430 C   0  0  0  0  0  0  0  0  0  0  0  0
   35.1780   29.4730   48.2170 C   0  0  0  0  0  0  0  0  0  0  0  0
   33.9610   30.1980   48.1820 C   0  0  0  0  0  0  0  0  0  0  0  0
   32.7760   29.5310   48.2660 N   0  0  0  0  0  0  0  0  0  0  0  0
   32.7880   28.1710   48.3820 C   0  0  0  0  0  0  0  0  0  0  0  0
   33.9170   27.4580   48.4210 N   0  0  0  0  0  0  0  0  0  0  0  0
   31.5000   27.5110   48.4320 N   0  0  0  0  0  0  0  0  0  0  0  0
   30.5200   27.7350   49.4540 C   0  0  0  0  0  0  0  0  0  0  0  0
   29.2950   27.0310   48.9590 C   0  0  0  0  0  0  0  0  0  0  0  0
   29.5500   26.6680   47.5120 C   0  0  0  0  0  0  0  0  0  0  0  0
   31.0300   26.5300   47.4370 C   0  0  0  0  0  0  0  0  0  0  0  0
   36.0730   27.5840   48.3670 H   0  0  0  0  0  0  0  0  0  0  0  0
   33.9090   31.2580   48.0940 H   0  0  0  0  0  0  0  0  0  0  0  0
   30.2900   28.7940   49.5870 H   0  0  0  0  0  0  0  0  0  0  0  0
   30.9390   27.2700   50.3890 H   0  0  0  0  0  0  0  0  0  0  0  0
   29.2100   26.0590   49.5090 H   0  0  0  0  0  0  0  0  0  0  0  0
   28.3600   27.5890   49.1190 H   0  0  0  0  0  0  0  0  0  0  0  0
   29.2130   27.5240   46.8630 H   0  0  0  0  0  0  0  0  0  0  0  0
   29.0360   25.7380   47.2060 H   0  0  0  0  0  0  0  0  0  0  0  0
   31.4290   25.5280   47.6100 H   0  0  0  0  0  0  0  0  0  0  0  0
   31.3880   26.9070   46.4560 H   0  0  0  0  0  0  0  0  0  0  0  0
   35.1290   29.7160   45.4250 C   0  0  0  0  0  0  0  0  0  0  0  0
   34.9880   28.3640   45.1930 C   0  0  0  0  0  0  0  0  0  0  0  0
   35.9240   27.8090   45.3800 H   0  0  0  0  0  0  0  0  0  0  0  0
   33.9030   27.6500   44.7560 C   0  0  0  0  0  0  0  0  0  0  0  0
   33.9930   26.5810   44.6370 H   0  0  0  0  0  0  0  0  0  0  0  0
   32.8010   28.4400   44.5210 C   0  0  0  0  0  3  0  0  0  0  0  0
   32.8750   29.7970   44.7300 C   0  0  0  0  0  3  0  0  0  0  0  0
   33.9770   30.4240   45.1620 N   0  0  0  0  0  0  0  0  0  0  0  0
  1 16  1  0  0  0  0
  1  2  1  0  0  0  0
  3  2  2  0  0  0  0
  3 11  1  0  0  0  0
  4  3  1  0  0  0  0
  5 10  1  0  0  0  0
  5  4  2  0  0  0  0
  6 12  1  0  0  0  0
  6  5  1  0  0  0  0
  7  8  1  0  0  0  0
  7  6  2  0  0  0  0
  8  9  2  0  0  0  0
  9 10  1  0  0  0  0
 10  1  2  0  0  0  0
 13  7  1  0  0  0  0
 14  8  1  0  0  0  0
 15 26  1  0  0  0  0
 15 20  1  0  0  0  0
 16 15  2  0  0  0  0
 17 16  1  0  0  0  0
 17 18  2  0  0  0  0
 18 19  1  0  0  0  0
 19 20  2  0  0  0  0
 19 21  1  0  0  0  0
 21 22  1  0  0  0  0
 22 28  1  0  0  0  0
 22 29  1  0  0  0  0
 23 31  1  0  0  0  0
 23 22  1  0  0  0  0
 23 30  1  0  0  0  0
 24 23  1  0  0  0  0
 25 24  1  0  0  0  0
 25 34  1  0  0  0  0
 25 21  1  0  0  0  0
 27 17  1  0  0  0  0
 32 24  1  0  0  0  0
 33 24  1  0  0  0  0
 35 25  1  0  0  0  0
 36  9  1  0  0  0  0
 37 38  1  0  0  0  0
 37 36  1  0  0  0  0
 39 37  2  0  0  0  0
 40 39  1  0  0  0  0
 41 42  2  0  0  0  0
 41 39  1  0  0  0  0
 42 43  1  0  0  0  0
 43 36  2  0  0  0  0
M  END
>  <minimizedAffinity>
-4.15636396

>  <minimizedRMSD>
1.99998331

$$$$
