
 OpenBabel03272500093D

 38 41  0  0  0  0  0  0  0  0999 V2000
   37.3930   26.9300   33.0590 C   0  0  0  0  0  0  0  0  0  0  0  0
   36.3620   27.0520   32.1090 C   0  0  0  0  0  0  0  0  0  0  0  0
   35.9310   25.8830   31.4590 C   0  0  0  0  0  0  0  0  0  0  0  0
   36.5260   24.6980   31.7770 N   0  0  0  0  0  0  0  0  0  0  0  0
   37.5150   24.6350   32.7000 C   0  0  0  0  0  0  0  0  0  0  0  0
   37.9570   25.7480   33.3490 N   0  0  0  0  0  0  0  0  0  0  0  0
   37.7440   27.8200   33.5740 H   0  0  0  0  0  0  0  0  0  0  0  0
   35.1410   25.9710   30.7300 H   0  0  0  0  0  0  0  0  0  0  0  0
   35.8200   28.3390   31.8530 N   0  0  0  0  0  0  0  0  0  0  0  0
   34.9060   28.8920   32.6410 C   0  0  0  0  0  0  0  0  0  0  0  0
   34.4160   30.1520   32.3370 C   0  0  0  0  0  0  0  0  0  0  0  0
   34.9380   30.7350   31.2100 C   0  0  0  0  0  0  0  0  0  0  0  0
   34.5110   31.8890   30.9040 O   0  0  0  0  0  0  0  0  0  0  0  0
   35.8460   30.2150   30.4060 N   0  0  0  0  0  0  0  0  0  0  0  0
   36.3080   28.9750   30.7320 C   0  0  0  0  0  0  0  0  0  0  0  0
   37.1820   28.4600   29.9690 O   0  0  0  0  0  0  0  0  0  0  0  0
   34.5500   28.3520   33.5160 H   0  0  0  0  0  0  0  0  0  0  0  0
   33.6660   30.6320   32.9620 H   0  0  0  0  0  0  0  0  0  0  0  0
   36.2240   30.6880   29.5530 H   0  0  0  0  0  0  0  0  0  0  0  0
   38.1150   23.4060   33.0100 O   0  0  0  0  0  0  0  0  0  0  0  0
   37.2550   22.3740   33.3570 C   0  0  0  0  0  0  0  0  0  0  0  0
   36.4930   21.8870   32.3180 C   0  0  0  0  0  0  0  0  0  0  0  0
   35.5960   20.8570   32.5130 C   0  0  0  0  0  0  0  0  0  0  0  0
   35.4760   20.3170   33.7850 C   0  0  0  0  0  0  0  0  0  0  0  0
   36.2410   20.8100   34.8200 C   0  0  0  0  0  0  0  0  0  0  0  0
   37.1430   21.8470   34.6230 C   0  0  0  0  0  0  0  0  0  0  0  0
   36.5600   22.2850   31.3000 H   0  0  0  0  0  0  0  0  0  0  0  0
   35.0010   20.4790   31.6940 H   0  0  0  0  0  0  0  0  0  0  0  0
   34.7800   19.5230   33.9200 H   0  0  0  0  0  0  0  0  0  0  0  0
   36.0750   20.3250   35.7720 H   0  0  0  0  0  0  0  0  0  0  0  0
   37.9020   22.2960   35.7750 C   0  0  0  0  0  0  0  0  0  0  0  0
   39.2500   22.2040   36.0000 C   0  0  0  0  0  0  0  0  0  0  0  0
   39.8590   21.7510   35.2620 H   0  0  0  0  0  0  0  0  0  0  0  0
   39.9050   22.6690   37.1130 C   0  0  0  0  0  0  0  0  0  0  0  0
   40.9770   22.5580   37.2170 H   0  0  0  0  0  0  0  0  0  0  0  0
   39.1850   23.2870   38.1110 C   0  0  0  0  0  3  0  0  0  0  0  0
   37.8350   23.3600   37.8450 C   0  0  0  0  0  3  0  0  0  0  0  0
   37.2110   22.9000   36.7520 N   0  0  0  0  0  0  0  0  0  0  0  0
  1  6  1  0  0  0  0
  1  7  1  0  0  0  0
  2  1  2  0  0  0  0
  3  4  2  0  0  0  0
  3  2  1  0  0  0  0
  4  5  1  0  0  0  0
  5 20  1  0  0  0  0
  5  6  2  0  0  0  0
  8  3  1  0  0  0  0
  9  2  1  0  0  0  0
  9 10  1  0  0  0  0
 10 17  1  0  0  0  0
 11 10  2  0  0  0  0
 11 18  1  0  0  0  0
 12 11  1  0  0  0  0
 13 12  2  0  0  0  0
 14 15  1  0  0  0  0
 14 12  1  0  0  0  0
 15  9  1  0  0  0  0
 16 15  2  0  0  0  0
 19 14  1  0  0  0  0
 20 21  1  0  0  0  0
 21 26  1  0  0  0  0
 22 23  1  0  0  0  0
 22 21  2  0  0  0  0
 23 24  2  0  0  0  0
 24 29  1  0  0  0  0
 24 25  1  0  0  0  0
 25 30  1  0  0  0  0
 26 25  2  0  0  0  0
 26 31  1  0  0  0  0
 27 22  1  0  0  0  0
 28 23  1  0  0  0  0
 31 32  2  0  0  0  0
 31 38  1  0  0  0  0
 32 34  1  0  0  0  0
 33 32  1  0  0  0  0
 34 35  1  0  0  0  0
 34 36  2  0  0  0  0
 37 36  1  0  0  0  0
 38 37  2  0  0  0  0
M  END
>  <minimizedAffinity>
-6.34864902

$$$$

 OpenBabel03272500093D

 38 41  0  0  0  0  0  0  0  0999 V2000
   38.8440   27.0270   35.5460 C   0  0  0  0  0  0  0  0  0  0  0  0
   39.0510   25.8260   34.8430 C   0  0  0  0  0  0  0  0  0  0  0  0
   38.0970   25.4600   33.8790 C   0  0  0  0  0  0  0  0  0  0  0  0
   37.0250   26.2780   33.6730 N   0  0  0  0  0  0  0  0  0  0  0  0
   36.8720   27.4240   34.3780 C   0  0  0  0  0  0  0  0  0  0  0  0
   37.7780   27.8090   35.3200 N   0  0  0  0  0  0  0  0  0  0  0  0
   39.5680   27.3310   36.2970 H   0  0  0  0  0  0  0  0  0  0  0  0
   38.2510   24.5410   33.3360 H   0  0  0  0  0  0  0  0  0  0  0  0
   40.2010   25.0500   35.1440 N   0  0  0  0  0  0  0  0  0  0  0  0
   41.4140   25.3860   34.7190 C   0  0  0  0  0  0  0  0  0  0  0  0
   42.4970   24.5850   35.0480 C   0  0  0  0  0  0  0  0  0  0  0  0
   42.2080   23.4800   35.8090 C   0  0  0  0  0  0  0  0  0  0  0  0
   43.1770   22.7270   36.1260 O   0  0  0  0  0  0  0  0  0  0  0  0
   41.0170   23.1180   36.2470 N   0  0  0  0  0  0  0  0  0  0  0  0
   39.9740   23.9250   35.9070 C   0  0  0  0  0  0  0  0  0  0  0  0
   38.8200   23.5920   36.3210 O   0  0  0  0  0  0  0  0  0  0  0  0
   41.5460   26.2820   34.1190 H   0  0  0  0  0  0  0  0  0  0  0  0
   43.5020   24.8320   34.7150 H   0  0  0  0  0  0  0  0  0  0  0  0
   40.8320   22.2670   36.8260 H   0  0  0  0  0  0  0  0  0  0  0  0
   35.7600   28.2500   34.1530 O   0  0  0  0  0  0  0  0  0  0  0  0
   35.9410   29.2890   33.2510 C   0  0  0  0  0  0  0  0  0  0  0  0
   36.5060   28.9150   32.0510 C   0  0  0  0  0  0  0  0  0  0  0  0
   36.7410   29.8410   31.0560 C   0  0  0  0  0  0  0  0  0  0  0  0
   36.3960   31.1640   31.2880 C   0  0  0  0  0  0  0  0  0  0  0  0
   35.8310   31.5300   32.4910 C   0  0  0  0  0  0  0  0  0  0  0  0
   35.5950   30.5970   33.4930 C   0  0  0  0  0  0  0  0  0  0  0  0
   36.7920   27.8820   31.8300 H   0  0  0  0  0  0  0  0  0  0  0  0
   37.1850   29.5420   30.1170 H   0  0  0  0  0  0  0  0  0  0  0  0
   36.5830   31.8660   30.5100 H   0  0  0  0  0  0  0  0  0  0  0  0
   35.5970   32.5820   32.5760 H   0  0  0  0  0  0  0  0  0  0  0  0
   34.9980   31.0810   34.7240 C   0  0  0  0  0  0  0  0  0  0  0  0
   35.6190   31.6050   35.8270 C   0  0  0  0  0  0  0  0  0  0  0  0
   36.6740   31.6850   35.8260 H   0  0  0  0  0  0  0  0  0  0  0  0
   34.9850   32.0600   36.9550 C   0  0  0  0  0  0  0  0  0  0  0  0
   35.5480   32.4620   37.7890 H   0  0  0  0  0  0  0  0  0  0  0  0
   33.6100   32.0060   37.0250 C   0  0  0  0  0  3  0  0  0  0  0  0
   33.0260   31.4750   35.8960 C   0  0  0  0  0  3  0  0  0  0  0  0
   33.6620   31.0330   34.8020 N   0  0  0  0  0  0  0  0  0  0  0  0
  1  7  1  0  0  0  0
  2  9  1  0  0  0  0
  2  1  2  0  0  0  0
  3  2  1  0  0  0  0
  4  3  2  0  0  0  0
  4  5  1  0  0  0  0
  5  6  2  0  0  0  0
  6  1  1  0  0  0  0
  8  3  1  0  0  0  0
  9 15  1  0  0  0  0
 10 11  2  0  0  0  0
 10  9  1  0  0  0  0
 11 12  1  0  0  0  0
 12 13  2  0  0  0  0
 12 14  1  0  0  0  0
 14 19  1  0  0  0  0
 15 14  1  0  0  0  0
 15 16  2  0  0  0  0
 17 10  1  0  0  0  0
 18 11  1  0  0  0  0
 20  5  1  0  0  0  0
 21 26  1  0  0  0  0
 21 20  1  0  0  0  0
 22 21  2  0  0  0  0
 23 24  2  0  0  0  0
 23 22  1  0  0  0  0
 24 25  1  0  0  0  0
 25 30  1  0  0  0  0
 25 26  2  0  0  0  0
 26 31  1  0  0  0  0
 27 22  1  0  0  0  0
 28 23  1  0  0  0  0
 29 24  1  0  0  0  0
 31 38  2  0  0  0  0
 31 32  1  0  0  0  0
 32 34  2  0  0  0  0
 33 32  1  0  0  0  0
 34 36  1  0  0  0  0
 34 35  1  0  0  0  0
 37 36  2  0  0  0  0
 38 37  1  0  0  0  0
M  END
>  <minimizedAffinity>
-6.06426907

$$$$

 OpenBabel03272500093D

 38 41  0  0  0  0  0  0  0  0999 V2000
   38.0860   26.1930   32.6270 C   0  0  0  0  0  0  0  0  0  0  0  0
   38.1720   26.2970   31.2260 C   0  0  0  0  0  0  0  0  0  0  0  0
   38.5130   25.1400   30.5050 C   0  0  0  0  0  0  0  0  0  0  0  0
   38.7430   23.9840   31.1900 N   0  0  0  0  0  0  0  0  0  0  0  0
   38.6480   23.9370   32.5400 C   0  0  0  0  0  0  0  0  0  0  0  0
   38.3190   25.0390   33.2710 N   0  0  0  0  0  0  0  0  0  0  0  0
   37.8240   27.0730   33.2060 H   0  0  0  0  0  0  0  0  0  0  0  0
   38.5800   25.2140   29.4310 H   0  0  0  0  0  0  0  0  0  0  0  0
   37.9170   27.5540   30.6200 N   0  0  0  0  0  0  0  0  0  0  0  0
   38.8900   28.3120   30.1250 C   0  0  0  0  0  0  0  0  0  0  0  0
   38.5760   29.5310   29.5450 C   0  0  0  0  0  0  0  0  0  0  0  0
   37.2420   29.8570   29.5340 C   0  0  0  0  0  0  0  0  0  0  0  0
   36.9220   30.9660   29.0100 O   0  0  0  0  0  0  0  0  0  0  0  0
   36.2520   29.1290   30.0160 N   0  0  0  0  0  0  0  0  0  0  0  0
   36.5940   27.9360   30.5790 C   0  0  0  0  0  0  0  0  0  0  0  0
   35.6540   27.2230   31.0480 O   0  0  0  0  0  0  0  0  0  0  0  0
   39.9210   27.9710   30.1790 H   0  0  0  0  0  0  0  0  0  0  0  0
   39.3480   30.1750   29.1310 H   0  0  0  0  0  0  0  0  0  0  0  0
   35.2450   29.4080   29.9910 H   0  0  0  0  0  0  0  0  0  0  0  0
   38.8920   22.7380   33.2250 O   0  0  0  0  0  0  0  0  0  0  0  0
   37.7720   22.0030   33.5920 C   0  0  0  0  0  0  0  0  0  0  0  0
   37.0910   21.4330   32.5400 C   0  0  0  0  0  0  0  0  0  0  0  0
   35.9610   20.6700   32.7540 C   0  0  0  0  0  0  0  0  0  0  0  0
   35.5220   20.4880   34.0560 C   0  0  0  0  0  0  0  0  0  0  0  0
   36.2100   21.0630   35.1040 C   0  0  0  0  0  0  0  0  0  0  0  0
   37.3460   21.8310   34.8880 C   0  0  0  0  0  0  0  0  0  0  0  0
   37.4050   21.5520   31.4980 H   0  0  0  0  0  0  0  0  0  0  0  0
   35.4300   20.2250   31.9240 H   0  0  0  0  0  0  0  0  0  0  0  0
   34.6490   19.8970   34.2050 H   0  0  0  0  0  0  0  0  0  0  0  0
   35.7900   20.8630   36.0800 H   0  0  0  0  0  0  0  0  0  0  0  0
   38.0000   22.3930   36.0550 C   0  0  0  0  0  0  0  0  0  0  0  0
   37.4680   23.2000   37.0270 C   0  0  0  0  0  0  0  0  0  0  0  0
   36.4490   23.4760   36.9570 H   0  0  0  0  0  0  0  0  0  0  0  0
   38.1450   23.6840   38.1180 C   0  0  0  0  0  0  0  0  0  0  0  0
   37.6530   24.3180   38.8450 H   0  0  0  0  0  0  0  0  0  0  0  0
   39.4710   23.3540   38.2890 C   0  0  0  0  0  3  0  0  0  0  0  0
   39.9660   22.5420   37.2930 C   0  0  0  0  0  3  0  0  0  0  0  0
   39.2900   22.0790   36.2320 N   0  0  0  0  0  0  0  0  0  0  0  0
  1  7  1  0  0  0  0
  1  6  1  0  0  0  0
  2  1  2  0  0  0  0
  3  4  2  0  0  0  0
  3  2  1  0  0  0  0
  4  5  1  0  0  0  0
  5 20  1  0  0  0  0
  5  6  2  0  0  0  0
  8  3  1  0  0  0  0
  9  2  1  0  0  0  0
 10 17  1  0  0  0  0
 10  9  1  0  0  0  0
 11 10  2  0  0  0  0
 12 11  1  0  0  0  0
 12 14  1  0  0  0  0
 13 12  2  0  0  0  0
 14 15  1  0  0  0  0
 15  9  1  0  0  0  0
 15 16  2  0  0  0  0
 18 11  1  0  0  0  0
 19 14  1  0  0  0  0
 20 21  1  0  0  0  0
 21 26  1  0  0  0  0
 22 23  1  0  0  0  0
 22 21  2  0  0  0  0
 23 24  2  0  0  0  0
 24 29  1  0  0  0  0
 24 25  1  0  0  0  0
 25 30  1  0  0  0  0
 26 25  2  0  0  0  0
 26 31  1  0  0  0  0
 27 22  1  0  0  0  0
 28 23  1  0  0  0  0
 31 38  2  0  0  0  0
 31 32  1  0  0  0  0
 32 34  2  0  0  0  0
 33 32  1  0  0  0  0
 34 36  1  0  0  0  0
 34 35  1  0  0  0  0
 37 36  2  0  0  0  0
 38 37  1  0  0  0  0
M  END
>  <minimizedAffinity>
-5.953866

$$$$

 OpenBabel03272500093D

 38 41  0  0  0  0  0  0  0  0999 V2000
   37.9330   23.9580   33.2820 C   0  0  0  0  0  0  0  0  0  0  0  0
   38.3970   24.5290   34.4820 C   0  0  0  0  0  0  0  0  0  0  0  0
   37.9700   25.8300   34.7930 C   0  0  0  0  0  0  0  0  0  0  0  0
   37.1340   26.4720   33.9270 N   0  0  0  0  0  0  0  0  0  0  0  0
   36.7170   25.8770   32.7850 C   0  0  0  0  0  0  0  0  0  0  0  0
   37.1110   24.6160   32.4520 N   0  0  0  0  0  0  0  0  0  0  0  0
   38.2500   22.9520   33.0200 H   0  0  0  0  0  0  0  0  0  0  0  0
   38.3220   26.2740   35.7120 H   0  0  0  0  0  0  0  0  0  0  0  0
   39.2690   23.7700   35.3050 N   0  0  0  0  0  0  0  0  0  0  0  0
   40.5880   23.7840   35.1410 C   0  0  0  0  0  0  0  0  0  0  0  0
   41.3860   23.0200   35.9780 C   0  0  0  0  0  0  0  0  0  0  0  0
   40.7190   22.2950   36.9340 C   0  0  0  0  0  0  0  0  0  0  0  0
   41.4210   21.5860   37.7170 O   0  0  0  0  0  0  0  0  0  0  0  0
   39.4140   22.2590   37.1240 N   0  0  0  0  0  0  0  0  0  0  0  0
   38.6570   23.0200   36.2860 C   0  0  0  0  0  0  0  0  0  0  0  0
   37.3990   22.9980   36.4540 O   0  0  0  0  0  0  0  0  0  0  0  0
   41.0280   24.3900   34.3540 H   0  0  0  0  0  0  0  0  0  0  0  0
   42.4680   23.0080   35.8700 H   0  0  0  0  0  0  0  0  0  0  0  0
   38.9380   21.6940   37.8650 H   0  0  0  0  0  0  0  0  0  0  0  0
   35.8600   26.5560   31.9050 O   0  0  0  0  0  0  0  0  0  0  0  0
   36.3440   27.7420   31.3720 C   0  0  0  0  0  0  0  0  0  0  0  0
   37.3260   27.5850   30.4200 C   0  0  0  0  0  0  0  0  0  0  0  0
   37.8970   28.6770   29.7990 C   0  0  0  0  0  0  0  0  0  0  0  0
   37.4600   29.9440   30.1550 C   0  0  0  0  0  0  0  0  0  0  0  0
   36.4770   30.0930   31.1100 C   0  0  0  0  0  0  0  0  0  0  0  0
   35.9020   28.9940   31.7340 C   0  0  0  0  0  0  0  0  0  0  0  0
   37.6980   26.6030   30.1110 H   0  0  0  0  0  0  0  0  0  0  0  0
   38.6680   28.5480   29.0530 H   0  0  0  0  0  0  0  0  0  0  0  0
   37.9100   30.7760   29.6670 H   0  0  0  0  0  0  0  0  0  0  0  0
   36.2040   31.1180   31.3180 H   0  0  0  0  0  0  0  0  0  0  0  0
   34.8750   29.2540   32.7260 C   0  0  0  0  0  0  0  0  0  0  0  0
   35.0260   29.6040   34.0420 C   0  0  0  0  0  0  0  0  0  0  0  0
   36.0050   29.7090   34.4310 H   0  0  0  0  0  0  0  0  0  0  0  0
   34.0030   29.8530   34.9210 C   0  0  0  0  0  0  0  0  0  0  0  0
   34.2040   30.1250   35.9500 H   0  0  0  0  0  0  0  0  0  0  0  0
   32.7000   29.7540   34.4860 C   0  0  0  0  0  3  0  0  0  0  0  0
   32.5920   29.4020   33.1580 C   0  0  0  0  0  3  0  0  0  0  0  0
   33.6040   29.1610   32.3130 N   0  0  0  0  0  0  0  0  0  0  0  0
  1  2  1  0  0  0  0
  2  3  2  0  0  0  0
  2  9  1  0  0  0  0
  3  8  1  0  0  0  0
  4  3  1  0  0  0  0
  5  4  2  0  0  0  0
  6  5  1  0  0  0  0
  6  1  2  0  0  0  0
  7  1  1  0  0  0  0
  9 15  1  0  0  0  0
 10  9  1  0  0  0  0
 10 11  2  0  0  0  0
 11 12  1  0  0  0  0
 12 14  1  0  0  0  0
 12 13  2  0  0  0  0
 14 19  1  0  0  0  0
 15 16  2  0  0  0  0
 15 14  1  0  0  0  0
 17 10  1  0  0  0  0
 18 11  1  0  0  0  0
 20  5  1  0  0  0  0
 21 26  1  0  0  0  0
 21 20  1  0  0  0  0
 22 21  2  0  0  0  0
 23 24  2  0  0  0  0
 23 22  1  0  0  0  0
 24 25  1  0  0  0  0
 25 30  1  0  0  0  0
 25 26  2  0  0  0  0
 26 31  1  0  0  0  0
 27 22  1  0  0  0  0
 28 23  1  0  0  0  0
 29 24  1  0  0  0  0
 31 32  1  0  0  0  0
 32 33  1  0  0  0  0
 32 34  2  0  0  0  0
 34 35  1  0  0  0  0
 36 34  1  0  0  0  0
 37 36  2  0  0  0  0
 38 31  2  0  0  0  0
 38 37  1  0  0  0  0
M  END
>  <minimizedAffinity>
-5.92190123

$$$$

 OpenBabel03272500093D

 38 41  0  0  0  0  0  0  0  0999 V2000
   38.9580   26.9020   33.4380 C   0  0  0  0  0  0  0  0  0  0  0  0
   37.8320   26.7680   32.6030 C   0  0  0  0  0  0  0  0  0  0  0  0
   37.2810   25.4850   32.4520 C   0  0  0  0  0  0  0  0  0  0  0  0
   37.8570   24.4410   33.1150 N   0  0  0  0  0  0  0  0  0  0  0  0
   38.9400   24.6240   33.9060 C   0  0  0  0  0  0  0  0  0  0  0  0
   39.5000   25.8550   34.0760 N   0  0  0  0  0  0  0  0  0  0  0  0
   39.4020   27.8850   33.5700 H   0  0  0  0  0  0  0  0  0  0  0  0
   36.4180   25.3750   31.8140 H   0  0  0  0  0  0  0  0  0  0  0  0
   37.3210   27.9240   31.9580 N   0  0  0  0  0  0  0  0  0  0  0  0
   37.6800   28.2640   30.7250 C   0  0  0  0  0  0  0  0  0  0  0  0
   37.1440   29.4060   30.1510 C   0  0  0  0  0  0  0  0  0  0  0  0
   36.2600   30.1060   30.9340 C   0  0  0  0  0  0  0  0  0  0  0  0
   35.7520   31.1550   30.4370 O   0  0  0  0  0  0  0  0  0  0  0  0
   35.8820   29.7960   32.1600 N   0  0  0  0  0  0  0  0  0  0  0  0
   36.4260   28.6680   32.6960 C   0  0  0  0  0  0  0  0  0  0  0  0
   36.0730   28.3550   33.8750 O   0  0  0  0  0  0  0  0  0  0  0  0
   38.3890   27.6470   30.1800 H   0  0  0  0  0  0  0  0  0  0  0  0
   37.4180   29.7130   29.1440 H   0  0  0  0  0  0  0  0  0  0  0  0
   35.2040   30.3520   32.7290 H   0  0  0  0  0  0  0  0  0  0  0  0
   39.5190   23.5360   34.5760 O   0  0  0  0  0  0  0  0  0  0  0  0
   39.2790   23.4600   35.9420 C   0  0  0  0  0  0  0  0  0  0  0  0
   38.0180   23.8570   36.3260 C   0  0  0  0  0  0  0  0  0  0  0  0
   37.6360   23.8300   37.6520 C   0  0  0  0  0  0  0  0  0  0  0  0
   38.5530   23.3920   38.5950 C   0  0  0  0  0  0  0  0  0  0  0  0
   39.8130   22.9970   38.2030 C   0  0  0  0  0  0  0  0  0  0  0  0
   40.1970   23.0240   36.8680 C   0  0  0  0  0  0  0  0  0  0  0  0
   37.2660   24.2090   35.6120 H   0  0  0  0  0  0  0  0  0  0  0  0
   36.6450   24.1440   37.9470 H   0  0  0  0  0  0  0  0  0  0  0  0
   38.2430   23.3770   39.6140 H   0  0  0  0  0  0  0  0  0  0  0  0
   40.4540   22.6710   39.0110 H   0  0  0  0  0  0  0  0  0  0  0  0
   41.5460   22.5880   36.5560 C   0  0  0  0  0  0  0  0  0  0  0  0
   42.6680   23.3500   36.3670 C   0  0  0  0  0  0  0  0  0  0  0  0
   42.5890   24.4020   36.4490 H   0  0  0  0  0  0  0  0  0  0  0  0
   43.9210   22.8650   36.0890 C   0  0  0  0  0  0  0  0  0  0  0  0
   44.7620   23.5350   35.9530 H   0  0  0  0  0  0  0  0  0  0  0  0
   44.1110   21.5050   35.9840 C   0  0  0  0  0  3  0  0  0  0  0  0
   42.9580   20.7760   36.1810 C   0  0  0  0  0  3  0  0  0  0  0  0
   41.7410   21.2670   36.4510 N   0  0  0  0  0  0  0  0  0  0  0  0
  1  7  1  0  0  0  0
  1  6  1  0  0  0  0
  2  1  2  0  0  0  0
  3  2  1  0  0  0  0
  3  4  2  0  0  0  0
  4  5  1  0  0  0  0
  5  6  2  0  0  0  0
  5 20  1  0  0  0  0
  8  3  1  0  0  0  0
  9  2  1  0  0  0  0
  9 15  1  0  0  0  0
 10  9  1  0  0  0  0
 11 10  2  0  0  0  0
 11 12  1  0  0  0  0
 12 14  1  0  0  0  0
 13 12  2  0  0  0  0
 14 15  1  0  0  0  0
 14 19  1  0  0  0  0
 15 16  2  0  0  0  0
 17 10  1  0  0  0  0
 18 11  1  0  0  0  0
 20 21  1  0  0  0  0
 21 22  2  0  0  0  0
 21 26  1  0  0  0  0
 22 23  1  0  0  0  0
 23 28  1  0  0  0  0
 23 24  2  0  0  0  0
 24 29  1  0  0  0  0
 25 24  1  0  0  0  0
 25 30  1  0  0  0  0
 26 25  2  0  0  0  0
 27 22  1  0  0  0  0
 31 26  1  0  0  0  0
 32 33  1  0  0  0  0
 32 31  2  0  0  0  0
 34 32  1  0  0  0  0
 35 34  1  0  0  0  0
 36 34  2  0  0  0  0
 36 37  1  0  0  0  0
 37 38  2  0  0  0  0
 38 31  1  0  0  0  0
M  END
>  <minimizedAffinity>
-5.90937138

$$$$

 OpenBabel03272500093D

 38 41  0  0  0  0  0  0  0  0999 V2000
   37.5950   23.9370   32.9300 C   0  0  0  0  0  0  0  0  0  0  0  0
   36.5710   23.5420   32.0500 C   0  0  0  0  0  0  0  0  0  0  0  0
   35.7920   24.5510   31.4600 C   0  0  0  0  0  0  0  0  0  0  0  0
   36.0630   25.8520   31.7650 N   0  0  0  0  0  0  0  0  0  0  0  0
   37.0610   26.1790   32.6190 C   0  0  0  0  0  0  0  0  0  0  0  0
   37.8360   25.2260   33.2090 N   0  0  0  0  0  0  0  0  0  0  0  0
   38.2100   23.1740   33.3990 H   0  0  0  0  0  0  0  0  0  0  0  0
   35.0050   24.2540   30.7840 H   0  0  0  0  0  0  0  0  0  0  0  0
   36.3740   22.1560   31.8110 N   0  0  0  0  0  0  0  0  0  0  0  0
   35.4060   21.4660   32.4040 C   0  0  0  0  0  0  0  0  0  0  0  0
   35.2670   20.1150   32.1280 C   0  0  0  0  0  0  0  0  0  0  0  0
   36.1720   19.5940   31.2370 C   0  0  0  0  0  0  0  0  0  0  0  0
   36.0710   18.3610   30.9640 O   0  0  0  0  0  0  0  0  0  0  0  0
   37.1440   20.2510   30.6320 N   0  0  0  0  0  0  0  0  0  0  0  0
   37.2540   21.5770   30.9230 C   0  0  0  0  0  0  0  0  0  0  0  0
   38.1840   22.2250   30.3490 O   0  0  0  0  0  0  0  0  0  0  0  0
   34.7350   21.9640   33.0980 H   0  0  0  0  0  0  0  0  0  0  0  0
   34.4860   19.5210   32.5980 H   0  0  0  0  0  0  0  0  0  0  0  0
   37.8170   19.8230   29.9560 H   0  0  0  0  0  0  0  0  0  0  0  0
   37.3220   27.5240   32.9210 O   0  0  0  0  0  0  0  0  0  0  0  0
   37.1640   28.4280   31.8800 C   0  0  0  0  0  0  0  0  0  0  0  0
   38.0410   28.2530   30.8320 C   0  0  0  0  0  0  0  0  0  0  0  0
   37.9990   29.0760   29.7240 C   0  0  0  0  0  0  0  0  0  0  0  0
   37.0510   30.0870   29.6870 C   0  0  0  0  0  0  0  0  0  0  0  0
   36.1780   30.2550   30.7400 C   0  0  0  0  0  0  0  0  0  0  0  0
   36.2210   29.4280   31.8550 C   0  0  0  0  0  0  0  0  0  0  0  0
   38.8020   27.4670   30.8230 H   0  0  0  0  0  0  0  0  0  0  0  0
   38.6890   28.9340   28.9050 H   0  0  0  0  0  0  0  0  0  0  0  0
   37.0300   30.7120   28.8260 H   0  0  0  0  0  0  0  0  0  0  0  0
   35.4770   31.0690   30.6170 H   0  0  0  0  0  0  0  0  0  0  0  0
   35.2600   29.6860   32.9110 C   0  0  0  0  0  0  0  0  0  0  0  0
   35.4490   30.3490   34.0950 C   0  0  0  0  0  0  0  0  0  0  0  0
   36.4080   30.7410   34.3110 H   0  0  0  0  0  0  0  0  0  0  0  0
   34.4850   30.5710   35.0450 C   0  0  0  0  0  0  0  0  0  0  0  0
   34.7130   31.1060   35.9590 H   0  0  0  0  0  0  0  0  0  0  0  0
   33.2060   30.1070   34.8300 C   0  0  0  0  0  3  0  0  0  0  0  0
   33.0580   29.4480   33.6290 C   0  0  0  0  0  3  0  0  0  0  0  0
   34.0130   29.2390   32.7120 N   0  0  0  0  0  0  0  0  0  0  0  0
  1  6  1  0  0  0  0
  1  7  1  0  0  0  0
  2  1  2  0  0  0  0
  3  4  2  0  0  0  0
  3  2  1  0  0  0  0
  4  5  1  0  0  0  0
  5 20  1  0  0  0  0
  5  6  2  0  0  0  0
  8  3  1  0  0  0  0
  9  2  1  0  0  0  0
  9 10  1  0  0  0  0
 10 17  1  0  0  0  0
 11 10  2  0  0  0  0
 11 18  1  0  0  0  0
 12 11  1  0  0  0  0
 13 12  2  0  0  0  0
 14 15  1  0  0  0  0
 14 12  1  0  0  0  0
 15  9  1  0  0  0  0
 16 15  2  0  0  0  0
 19 14  1  0  0  0  0
 21 20  1  0  0  0  0
 22 21  2  0  0  0  0
 23 22  1  0  0  0  0
 24 23  2  0  0  0  0
 24 25  1  0  0  0  0
 25 26  2  0  0  0  0
 26 21  1  0  0  0  0
 26 31  1  0  0  0  0
 27 22  1  0  0  0  0
 28 23  1  0  0  0  0
 29 24  1  0  0  0  0
 30 25  1  0  0  0  0
 31 32  1  0  0  0  0
 32 33  1  0  0  0  0
 32 34  2  0  0  0  0
 34 35  1  0  0  0  0
 36 34  1  0  0  0  0
 37 36  2  0  0  0  0
 38 31  2  0  0  0  0
 38 37  1  0  0  0  0
M  END
>  <minimizedAffinity>
-5.79463863

$$$$

 OpenBabel03272500093D

 38 41  0  0  0  0  0  0  0  0999 V2000
   35.5030   27.5730   31.5380 C   0  0  0  0  0  0  0  0  0  0  0  0
   35.2740   28.5980   32.4740 C   0  0  0  0  0  0  0  0  0  0  0  0
   36.0490   28.5970   33.6460 C   0  0  0  0  0  0  0  0  0  0  0  0
   36.9760   27.6120   33.8190 N   0  0  0  0  0  0  0  0  0  0  0  0
   37.1570   26.6470   32.8870 C   0  0  0  0  0  0  0  0  0  0  0  0
   36.4230   26.6180   31.7380 N   0  0  0  0  0  0  0  0  0  0  0  0
   34.9160   27.5520   30.6240 H   0  0  0  0  0  0  0  0  0  0  0  0
   35.8790   29.3810   34.3670 H   0  0  0  0  0  0  0  0  0  0  0  0
   34.2780   29.5690   32.1920 N   0  0  0  0  0  0  0  0  0  0  0  0
   33.0760   29.5350   32.7570 C   0  0  0  0  0  0  0  0  0  0  0  0
   32.1460   30.5120   32.4400 C   0  0  0  0  0  0  0  0  0  0  0  0
   32.5650   31.4590   31.5380 C   0  0  0  0  0  0  0  0  0  0  0  0
   31.7380   32.3680   31.2270 O   0  0  0  0  0  0  0  0  0  0  0  0
   33.7500   31.5220   30.9590 N   0  0  0  0  0  0  0  0  0  0  0  0
   34.6410   30.5470   31.2920 C   0  0  0  0  0  0  0  0  0  0  0  0
   35.7850   30.5920   30.7440 O   0  0  0  0  0  0  0  0  0  0  0  0
   32.8330   28.7430   33.4620 H   0  0  0  0  0  0  0  0  0  0  0  0
   31.1540   30.5130   32.8840 H   0  0  0  0  0  0  0  0  0  0  0  0
   34.0360   32.2590   30.2760 H   0  0  0  0  0  0  0  0  0  0  0  0
   38.1140   25.6410   33.0860 O   0  0  0  0  0  0  0  0  0  0  0  0
   39.3950   26.0690   33.4070 C   0  0  0  0  0  0  0  0  0  0  0  0
   40.0030   26.8370   32.4380 C   0  0  0  0  0  0  0  0  0  0  0  0
   41.2760   27.3360   32.6210 C   0  0  0  0  0  0  0  0  0  0  0  0
   41.9360   27.0490   33.8070 C   0  0  0  0  0  0  0  0  0  0  0  0
   41.3200   26.2800   34.7710 C   0  0  0  0  0  0  0  0  0  0  0  0
   40.0390   25.7770   34.5860 C   0  0  0  0  0  0  0  0  0  0  0  0
   39.5160   27.0860   31.4900 H   0  0  0  0  0  0  0  0  0  0  0  0
   41.7490   27.9380   31.8570 H   0  0  0  0  0  0  0  0  0  0  0  0
   42.9170   27.4420   33.9330 H   0  0  0  0  0  0  0  0  0  0  0  0
   41.9150   26.1120   35.6580 H   0  0  0  0  0  0  0  0  0  0  0  0
   39.4780   24.9770   35.6590 C   0  0  0  0  0  0  0  0  0  0  0  0
   38.3960   25.2510   36.4530 C   0  0  0  0  0  0  0  0  0  0  0  0
   37.8690   26.1560   36.3000 H   0  0  0  0  0  0  0  0  0  0  0  0
   37.9090   24.4360   37.4430 C   0  0  0  0  0  0  0  0  0  0  0  0
   37.0450   24.7240   38.0300 H   0  0  0  0  0  0  0  0  0  0  0  0
   38.5290   23.2320   37.6920 C   0  0  0  0  0  3  0  0  0  0  0  0
   39.6110   22.9940   36.8720 C   0  0  0  0  0  3  0  0  0  0  0  0
   40.0730   23.8040   35.9090 N   0  0  0  0  0  0  0  0  0  0  0  0
  1  6  2  0  0  0  0
  1  2  1  0  0  0  0
  2  3  2  0  0  0  0
  3  4  1  0  0  0  0
  3  8  1  0  0  0  0
  5 20  1  0  0  0  0
  5  4  2  0  0  0  0
  6  5  1  0  0  0  0
  7  1  1  0  0  0  0
  9  2  1  0  0  0  0
  9 10  1  0  0  0  0
 10 17  1  0  0  0  0
 11 10  2  0  0  0  0
 11 18  1  0  0  0  0
 12 11  1  0  0  0  0
 13 12  2  0  0  0  0
 14 15  1  0  0  0  0
 14 12  1  0  0  0  0
 15  9  1  0  0  0  0
 16 15  2  0  0  0  0
 19 14  1  0  0  0  0
 20 21  1  0  0  0  0
 21 26  1  0  0  0  0
 22 23  1  0  0  0  0
 22 21  2  0  0  0  0
 23 24  2  0  0  0  0
 24 29  1  0  0  0  0
 24 25  1  0  0  0  0
 25 30  1  0  0  0  0
 26 25  2  0  0  0  0
 26 31  1  0  0  0  0
 27 22  1  0  0  0  0
 28 23  1  0  0  0  0
 31 38  2  0  0  0  0
 31 32  1  0  0  0  0
 32 34  2  0  0  0  0
 33 32  1  0  0  0  0
 34 36  1  0  0  0  0
 34 35  1  0  0  0  0
 37 36  2  0  0  0  0
 38 37  1  0  0  0  0
M  END
>  <minimizedAffinity>
-5.77835083

$$$$

 OpenBabel03272500093D

 38 41  0  0  0  0  0  0  0  0999 V2000
   37.3420   27.4630   34.9630 C   0  0  0  0  0  0  0  0  0  0  0  0
   37.7140   26.3410   34.2000 C   0  0  0  0  0  0  0  0  0  0  0  0
   37.1920   26.2330   32.9000 C   0  0  0  0  0  0  0  0  0  0  0  0
   36.3590   27.2110   32.4440 N   0  0  0  0  0  0  0  0  0  0  0  0
   36.0320   28.2710   33.2190 C   0  0  0  0  0  0  0  0  0  0  0  0
   36.5200   28.4080   34.4840 N   0  0  0  0  0  0  0  0  0  0  0  0
   37.7330   27.5680   35.9710 H   0  0  0  0  0  0  0  0  0  0  0  0
   37.4740   25.3750   32.3100 H   0  0  0  0  0  0  0  0  0  0  0  0
   38.5840   25.3810   34.7790 N   0  0  0  0  0  0  0  0  0  0  0  0
   38.1320   24.3450   35.4770 C   0  0  0  0  0  0  0  0  0  0  0  0
   39.0330   23.4420   36.0180 C   0  0  0  0  0  0  0  0  0  0  0  0
   40.3580   23.7090   35.7750 C   0  0  0  0  0  0  0  0  0  0  0  0
   41.2080   22.9010   36.2570 O   0  0  0  0  0  0  0  0  0  0  0  0
   40.8400   24.7260   35.0870 N   0  0  0  0  0  0  0  0  0  0  0  0
   39.9290   25.5950   34.5690 C   0  0  0  0  0  0  0  0  0  0  0  0
   40.3760   26.5800   33.9040 O   0  0  0  0  0  0  0  0  0  0  0  0
   37.0620   24.2150   35.6180 H   0  0  0  0  0  0  0  0  0  0  0  0
   38.6960   22.5850   36.5950 H   0  0  0  0  0  0  0  0  0  0  0  0
   41.8580   24.9000   34.9210 H   0  0  0  0  0  0  0  0  0  0  0  0
   35.1700   29.2660   32.7320 O   0  0  0  0  0  0  0  0  0  0  0  0
   35.7650   30.4610   32.3540 C   0  0  0  0  0  0  0  0  0  0  0  0
   36.3880   30.4280   31.1250 C   0  0  0  0  0  0  0  0  0  0  0  0
   37.0180   31.5460   30.6170 C   0  0  0  0  0  0  0  0  0  0  0  0
   37.0130   32.7090   31.3710 C   0  0  0  0  0  0  0  0  0  0  0  0
   36.3880   32.7330   32.6000 C   0  0  0  0  0  0  0  0  0  0  0  0
   35.7540   31.6090   33.1110 C   0  0  0  0  0  0  0  0  0  0  0  0
   36.4140   29.5310   30.5000 H   0  0  0  0  0  0  0  0  0  0  0  0
   37.5050   31.5140   29.6530 H   0  0  0  0  0  0  0  0  0  0  0  0
   37.5030   33.5620   30.9650 H   0  0  0  0  0  0  0  0  0  0  0  0
   36.4380   33.6850   33.1100 H   0  0  0  0  0  0  0  0  0  0  0  0
   35.1260   31.7350   34.4130 C   0  0  0  0  0  0  0  0  0  0  0  0
   35.7200   31.8390   35.6430 C   0  0  0  0  0  0  0  0  0  0  0  0
   36.7770   31.8300   35.6990 H   0  0  0  0  0  0  0  0  0  0  0  0
   35.0590   31.9730   36.8380 C   0  0  0  0  0  0  0  0  0  0  0  0
   35.6020   32.0500   37.7710 H   0  0  0  0  0  0  0  0  0  0  0  0
   33.6820   32.0110   36.8460 C   0  0  0  0  0  3  0  0  0  0  0  0
   33.1250   31.9040   35.5910 C   0  0  0  0  0  3  0  0  0  0  0  0
   33.7870   31.7730   34.4330 N   0  0  0  0  0  0  0  0  0  0  0  0
  1  7  1  0  0  0  0
  2  9  1  0  0  0  0
  2  1  2  0  0  0  0
  3  2  1  0  0  0  0
  4  3  2  0  0  0  0
  4  5  1  0  0  0  0
  5  6  2  0  0  0  0
  6  1  1  0  0  0  0
  8  3  1  0  0  0  0
  9 10  1  0  0  0  0
 10 17  1  0  0  0  0
 10 11  2  0  0  0  0
 11 18  1  0  0  0  0
 12 11  1  0  0  0  0
 12 13  2  0  0  0  0
 14 12  1  0  0  0  0
 15  9  1  0  0  0  0
 15 14  1  0  0  0  0
 16 15  2  0  0  0  0
 19 14  1  0  0  0  0
 20  5  1  0  0  0  0
 21 20  1  0  0  0  0
 21 26  1  0  0  0  0
 22 21  2  0  0  0  0
 23 22  1  0  0  0  0
 23 24  2  0  0  0  0
 24 25  1  0  0  0  0
 25 30  1  0  0  0  0
 25 26  2  0  0  0  0
 26 31  1  0  0  0  0
 27 22  1  0  0  0  0
 28 23  1  0  0  0  0
 29 24  1  0  0  0  0
 31 38  2  0  0  0  0
 31 32  1  0  0  0  0
 32 33  1  0  0  0  0
 32 34  2  0  0  0  0
 34 36  1  0  0  0  0
 34 35  1  0  0  0  0
 37 36  2  0  0  0  0
 38 37  1  0  0  0  0
M  END
>  <minimizedAffinity>
-5.75918627

$$$$

 OpenBabel03272500093D

 38 41  0  0  0  0  0  0  0  0999 V2000
   37.5670   25.6490   33.3330 C   0  0  0  0  0  0  0  0  0  0  0  0
   38.2180   25.9800   34.5360 C   0  0  0  0  0  0  0  0  0  0  0  0
   37.8750   27.1950   35.1510 C   0  0  0  0  0  0  0  0  0  0  0  0
   36.9380   27.9890   34.5590 N   0  0  0  0  0  0  0  0  0  0  0  0
   36.3410   27.6240   33.4000 C   0  0  0  0  0  0  0  0  0  0  0  0
   36.6490   26.4520   32.7770 N   0  0  0  0  0  0  0  0  0  0  0  0
   37.8160   24.7140   32.8390 H   0  0  0  0  0  0  0  0  0  0  0  0
   38.3710   27.4540   36.0740 H   0  0  0  0  0  0  0  0  0  0  0  0
   39.1840   25.0790   35.0580 N   0  0  0  0  0  0  0  0  0  0  0  0
   40.4220   25.0160   34.5830 C   0  0  0  0  0  0  0  0  0  0  0  0
   41.3190   24.1150   35.1360 C   0  0  0  0  0  0  0  0  0  0  0  0
   40.8280   23.3430   36.1600 C   0  0  0  0  0  0  0  0  0  0  0  0
   41.6230   22.5090   36.6880 O   0  0  0  0  0  0  0  0  0  0  0  0
   39.6050   23.3810   36.6550 N   0  0  0  0  0  0  0  0  0  0  0  0
   38.7490   24.2770   36.0910 C   0  0  0  0  0  0  0  0  0  0  0  0
   37.5680   24.3270   36.5550 O   0  0  0  0  0  0  0  0  0  0  0  0
   40.7220   25.6680   33.7670 H   0  0  0  0  0  0  0  0  0  0  0  0
   42.3390   24.0370   34.7690 H   0  0  0  0  0  0  0  0  0  0  0  0
   39.2640   22.7780   37.4380 H   0  0  0  0  0  0  0  0  0  0  0  0
   35.3800   28.4560   32.8060 O   0  0  0  0  0  0  0  0  0  0  0  0
   35.8550   29.6290   32.2340 C   0  0  0  0  0  0  0  0  0  0  0  0
   36.4460   29.4670   31.0010 C   0  0  0  0  0  0  0  0  0  0  0  0
   36.9600   30.5460   30.3100 C   0  0  0  0  0  0  0  0  0  0  0  0
   36.8690   31.8040   30.8860 C   0  0  0  0  0  0  0  0  0  0  0  0
   36.2770   31.9570   32.1210 C   0  0  0  0  0  0  0  0  0  0  0  0
   35.7600   30.8710   32.8160 C   0  0  0  0  0  0  0  0  0  0  0  0
   36.5360   28.4920   30.5120 H   0  0  0  0  0  0  0  0  0  0  0  0
   37.4220   30.4130   29.3420 H   0  0  0  0  0  0  0  0  0  0  0  0
   37.2690   32.6260   30.3410 H   0  0  0  0  0  0  0  0  0  0  0  0
   36.2540   32.9750   32.4850 H   0  0  0  0  0  0  0  0  0  0  0  0
   35.1570   31.1350   34.1090 C   0  0  0  0  0  0  0  0  0  0  0  0
   33.8600   30.9380   34.5040 C   0  0  0  0  0  0  0  0  0  0  0  0
   33.1700   30.5440   33.8050 H   0  0  0  0  0  0  0  0  0  0  0  0
   33.3610   31.1960   35.7550 C   0  0  0  0  0  0  0  0  0  0  0  0
   32.3200   31.0130   35.9910 H   0  0  0  0  0  0  0  0  0  0  0  0
   34.2010   31.6950   36.7270 C   0  0  0  0  0  3  0  0  0  0  0  0
   35.4950   31.8770   36.2900 C   0  0  0  0  0  3  0  0  0  0  0  0
   35.9650   31.6200   35.0610 N   0  0  0  0  0  0  0  0  0  0  0  0
  1  2  1  0  0  0  0
  2  9  1  0  0  0  0
  2  3  2  0  0  0  0
  3  8  1  0  0  0  0
  4  3  1  0  0  0  0
  5  4  2  0  0  0  0
  6  1  2  0  0  0  0
  6  5  1  0  0  0  0
  7  1  1  0  0  0  0
  9 15  1  0  0  0  0
 10  9  1  0  0  0  0
 10 11  2  0  0  0  0
 11 12  1  0  0  0  0
 12 14  1  0  0  0  0
 12 13  2  0  0  0  0
 14 19  1  0  0  0  0
 15 16  2  0  0  0  0
 15 14  1  0  0  0  0
 17 10  1  0  0  0  0
 18 11  1  0  0  0  0
 20  5  1  0  0  0  0
 21 20  1  0  0  0  0
 21 26  1  0  0  0  0
 22 21  2  0  0  0  0
 23 24  2  0  0  0  0
 23 22  1  0  0  0  0
 24 25  1  0  0  0  0
 25 30  1  0  0  0  0
 25 26  2  0  0  0  0
 26 31  1  0  0  0  0
 27 22  1  0  0  0  0
 28 23  1  0  0  0  0
 29 24  1  0  0  0  0
 31 32  2  0  0  0  0
 31 38  1  0  0  0  0
 32 34  1  0  0  0  0
 33 32  1  0  0  0  0
 34 35  1  0  0  0  0
 34 36  2  0  0  0  0
 37 36  1  0  0  0  0
 38 37  2  0  0  0  0
M  END
>  <minimizedAffinity>
-5.75636339

$$$$
