
 OpenBabel03272508453D

 26 28  0  0  0  0  0  0  0  0999 V2000
   35.8100   30.1460   49.9350 C   0  0  0  0  0  0  0  0  0  0  0  0
   36.6940   29.8280   50.9500 C   0  0  0  0  0  0  0  0  0  0  0  0
   37.7910   30.6350   50.6550 C   0  0  0  0  0  0  0  0  0  0  0  0
   37.5440   31.3770   49.5260 C   0  0  0  0  0  0  0  0  0  0  0  0
   36.3360   31.0580   49.1130 O   0  0  0  0  0  0  0  0  0  0  0  0
   36.5680   29.1410   51.7540 H   0  0  0  0  0  0  0  0  0  0  0  0
   38.7180   30.6920   51.2130 H   0  0  0  0  0  0  0  0  0  0  0  0
   38.4250   32.3440   48.8760 C   0  0  0  0  0  0  0  0  0  0  0  0
   38.8290   32.0790   47.5710 C   0  0  0  0  0  0  0  0  0  0  0  0
   38.5330   31.2020   47.0050 H   0  0  0  0  0  0  0  0  0  0  0  0
   39.6740   32.9900   46.9270 C   0  0  0  0  0  0  0  0  0  0  0  0
   40.0520   32.8930   45.9200 H   0  0  0  0  0  0  0  0  0  0  0  0
   40.0160   34.0820   47.6960 C   0  0  0  0  0  3  0  0  0  0  0  0
   39.6330   34.3700   48.9860 C   0  0  0  0  0  3  0  0  0  0  0  0
   38.8180   33.4450   49.5410 N   0  0  0  0  0  0  0  0  0  0  0  0
   34.4730   29.5570   49.7840 C   0  0  0  0  0  0  0  0  0  0  0  0
   33.6670   29.6930   50.7410 O   0  0  0  0  0  0  0  0  0  0  0  0
   33.8150   26.8080   47.5070 C   0  0  0  0  0  0  0  0  0  0  0  0
   33.4640   27.4520   46.3160 C   0  0  0  0  0  0  0  0  0  0  0  0
   33.4520   28.8400   46.2860 C   0  0  0  0  0  0  0  0  0  0  0  0
   33.7830   29.4970   47.4270 N   0  0  0  0  0  0  0  0  0  0  0  0
   34.1190   28.8500   48.5660 C   0  0  0  0  0  0  0  0  0  0  0  0
   34.1350   27.5060   48.6080 N   0  0  0  0  0  0  0  0  0  0  0  0
   33.8400   25.7280   47.5810 H   0  0  0  0  0  0  0  0  0  0  0  0
   33.2100   26.8650   45.4360 H   0  0  0  0  0  0  0  0  0  0  0  0
   33.1850   29.3840   45.3800 H   0  0  0  0  0  0  0  0  0  0  0  0
  1  2  2  0  0  0  0
  2  6  1  0  0  0  0
  3  2  1  0  0  0  0
  3  7  1  0  0  0  0
  4  3  2  0  0  0  0
  5  4  1  0  0  0  0
  5  1  1  0  0  0  0
  8  4  1  0  0  0  0
  8 15  1  0  0  0  0
  9  8  2  0  0  0  0
 10  9  1  0  0  0  0
 11  9  1  0  0  0  0
 11 13  2  0  0  0  0
 12 11  1  0  0  0  0
 13 14  1  0  0  0  0
 14 15  2  0  0  0  0
 16  1  1  0  0  0  0
 16 17  2  0  0  0  0
 18 24  1  0  0  0  0
 18 23  1  0  0  0  0
 19 18  2  0  0  0  0
 20 19  1  0  0  0  0
 20 21  2  0  0  0  0
 21 22  1  0  0  0  0
 22 23  2  0  0  0  0
 22 16  1  0  0  0  0
 25 19  1  0  0  0  0
 26 20  1  0  0  0  0
M  END
>  <minimizedAffinity>
-5.592803

>  <minimizedRMSD>
1.99131596

$$$$
