
 OpenBabel03272503333D

 40 43  0  0  1  0  0  0  0  0999 V2000
   35.0750   29.4500   47.9270 C   0  0  0  0  0  0  0  0  0  0  0  0
   34.8390   30.1980   46.7640 C   0  0  0  0  0  0  0  0  0  0  0  0
   33.6790   29.9150   46.0470 C   0  0  0  0  0  0  0  0  0  0  0  0
   32.8530   28.9300   46.5260 N   0  0  0  0  0  0  0  0  0  0  0  0
   33.1110   28.2390   47.6390 C   0  0  0  0  0  0  0  0  0  0  0  0
   34.2340   28.5020   48.3460 N   0  0  0  0  0  0  0  0  0  0  0  0
   35.5020   30.9720   46.4000 H   0  0  0  0  0  0  0  0  0  0  0  0
   33.4080   30.4330   45.1430 H   0  0  0  0  0  0  0  0  0  0  0  0
   36.2700   29.7460   48.6600 N   0  0  0  0  0  0  0  0  0  0  0  0
   37.4040   30.4980   48.1990 C   0  0  0  0  0  0  0  0  0  0  0  0
   37.9580   31.0690   49.4950 C   0  0  2  0  0  0  0  0  0  0  0  0
   36.9730   30.6770   50.5940 C   0  0  0  0  0  0  0  0  0  0  0  0
   36.5580   29.3330   50.0290 C   0  0  0  0  0  0  0  0  0  0  0  0
   37.0600   31.3630   47.6020 H   0  0  0  0  0  0  0  0  0  0  0  0
   38.1620   29.8840   47.6690 H   0  0  0  0  0  0  0  0  0  0  0  0
   38.9110   30.5250   49.7000 H   0  0  0  0  0  0  0  0  0  0  0  0
   36.1430   31.4010   50.5960 H   0  0  0  0  0  0  0  0  0  0  0  0
   37.4740   30.5580   51.5610 H   0  0  0  0  0  0  0  0  0  0  0  0
   35.6600   28.9650   50.5430 H   0  0  0  0  0  0  0  0  0  0  0  0
   37.4270   28.6600   50.0630 H   0  0  0  0  0  0  0  0  0  0  0  0
   38.1490   32.5620   49.4130 C   0  0  0  0  0  0  0  0  0  0  0  0
   37.0080   33.1370   49.9300 F   0  0  0  0  0  0  0  0  0  0  0  0
   38.1760   32.9020   48.0790 F   0  0  0  0  0  0  0  0  0  0  0  0
   39.2810   32.9940   50.0530 F   0  0  0  0  0  0  0  0  0  0  0  0
   32.0070   26.9710   48.2190 S   0  0  0  0  0  0  0  0  0  0  0  0
   30.5460   27.4510   48.8900 C   0  0  0  0  0  0  0  0  0  0  0  0
   29.8230   27.3180   50.0360 C   0  0  0  0  0  0  0  0  0  0  0  0
   28.5810   27.8710   50.2750 C   0  0  0  0  0  0  0  0  0  0  0  0
   28.0960   28.6580   49.1130 C   0  0  0  0  0  0  0  0  0  0  0  0
   29.4140   28.5250   47.8570 S   0  0  0  0  0  0  0  0  0  0  0  0
   30.3410   26.7120   50.7640 H   0  0  0  0  0  0  0  0  0  0  0  0
   28.0320   27.7510   51.1840 H   0  0  0  0  0  0  0  0  0  0  0  0
   26.8440   29.3370   49.0910 C   0  0  0  0  0  0  0  0  0  0  0  0
   25.6460   28.7210   49.3890 C   0  0  0  0  0  0  0  0  0  0  0  0
   25.7120   27.6860   49.6420 H   0  0  0  0  0  0  0  0  0  0  0  0
   24.5360   29.5360   49.3150 C   0  0  0  0  0  0  0  0  0  0  0  0
   23.5930   29.0260   49.5560 H   0  0  0  0  0  0  0  0  0  0  0  0
   24.6390   30.8710   48.9640 C   0  0  0  0  0  0  0  0  0  0  0  0
   25.8550   31.4480   48.6750 C   0  0  0  0  0  0  0  0  0  0  0  0
   26.9400   30.6360   48.7510 N   0  0  0  0  0  0  0  0  0  0  0  0
  1  6  1  0  0  0  0
  1  9  1  0  0  0  0
  2  1  2  0  0  0  0
  3  4  2  0  0  0  0
  3  2  1  0  0  0  0
  4  5  1  0  0  0  0
  5 25  1  0  0  0  0
  5  6  2  0  0  0  0
  7  2  1  0  0  0  0
  8  3  1  0  0  0  0
  9 13  1  0  0  0  0
 10  9  1  0  0  0  0
 10 11  1  0  0  0  0
 11 16  1  1  0  0  0
 11 12  1  0  0  0  0
 12 17  1  0  0  0  0
 12 18  1  0  0  0  0
 13 20  1  0  0  0  0
 13 19  1  0  0  0  0
 13 12  1  0  0  0  0
 14 10  1  0  0  0  0
 15 10  1  0  0  0  0
 21 11  1  0  0  0  0
 21 22  1  0  0  0  0
 21 24  1  0  0  0  0
 23 21  1  0  0  0  0
 25 26  1  0  0  0  0
 26 27  2  0  0  0  0
 27 28  1  0  0  0  0
 27 31  1  0  0  0  0
 28 32  1  0  0  0  0
 29 28  2  0  0  0  0
 30 26  1  0  0  0  0
 30 29  1  0  0  0  0
 33 29  1  0  0  0  0
 33 34  1  0  0  0  0
 34 35  1  0  0  0  0
 36 34  2  0  0  0  0
 36 37  1  0  0  0  0
 38 36  1  0  0  0  0
 39 40  1  0  0  0  0
 39 38  2  0  0  0  0
 40 33  2  0  0  0  0
M  END
>  <minimizedAffinity>
-7.91864061

>  <minimizedRMSD>
0.585245848

$$$$
