
 OpenBabel03272508443D

 26 28  0  0  0  0  0  0  0  0999 V2000
   35.7830   30.1600   50.0100 C   0  0  0  0  0  0  0  0  0  0  0  0
   36.7000   29.7910   50.9750 C   0  0  0  0  0  0  0  0  0  0  0  0
   37.8040   30.5790   50.6560 C   0  0  0  0  0  0  0  0  0  0  0  0
   37.5290   31.3610   49.5610 C   0  0  0  0  0  0  0  0  0  0  0  0
   36.2960   31.0830   49.1920 O   0  0  0  0  0  0  0  0  0  0  0  0
   36.5920   29.0840   51.7640 H   0  0  0  0  0  0  0  0  0  0  0  0
   38.7550   30.5970   51.1750 H   0  0  0  0  0  0  0  0  0  0  0  0
   38.4050   32.3240   48.9010 C   0  0  0  0  0  0  0  0  0  0  0  0
   38.8020   32.0530   47.5940 C   0  0  0  0  0  0  0  0  0  0  0  0
   38.5030   31.1740   47.0360 H   0  0  0  0  0  0  0  0  0  0  0  0
   39.6420   32.9620   46.9400 C   0  0  0  0  0  0  0  0  0  0  0  0
   40.0140   32.8600   45.9330 H   0  0  0  0  0  0  0  0  0  0  0  0
   39.9870   34.0580   47.7010 C   0  0  0  0  0  3  0  0  0  0  0  0
   39.6110   34.3520   48.9920 C   0  0  0  0  0  3  0  0  0  0  0  0
   38.8010   33.4300   49.5570 N   0  0  0  0  0  0  0  0  0  0  0  0
   34.4260   29.6080   49.9000 C   0  0  0  0  0  0  0  0  0  0  0  0
   33.6490   29.7780   50.8770 O   0  0  0  0  0  0  0  0  0  0  0  0
   32.8030   27.1530   47.7780 C   0  0  0  0  0  0  0  0  0  0  0  0
   33.2130   27.5160   46.4900 C   0  0  0  0  0  0  0  0  0  0  0  0
   34.0540   28.6110   46.3420 C   0  0  0  0  0  0  0  0  0  0  0  0
   34.4310   29.2710   47.4670 N   0  0  0  0  0  0  0  0  0  0  0  0
   34.0190   28.8990   48.7010 C   0  0  0  0  0  0  0  0  0  0  0  0
   33.2060   27.8400   48.8570 N   0  0  0  0  0  0  0  0  0  0  0  0
   32.1470   26.3070   47.9460 H   0  0  0  0  0  0  0  0  0  0  0  0
   32.8740   26.9430   45.6300 H   0  0  0  0  0  0  0  0  0  0  0  0
   34.3990   28.9300   45.3600 H   0  0  0  0  0  0  0  0  0  0  0  0
  1  2  2  0  0  0  0
  2  6  1  0  0  0  0
  3  2  1  0  0  0  0
  3  7  1  0  0  0  0
  4  3  2  0  0  0  0
  5  4  1  0  0  0  0
  5  1  1  0  0  0  0
  8 15  1  0  0  0  0
  8  4  1  0  0  0  0
  9  8  2  0  0  0  0
 10  9  1  0  0  0  0
 11  9  1  0  0  0  0
 11 13  2  0  0  0  0
 12 11  1  0  0  0  0
 13 14  1  0  0  0  0
 14 15  2  0  0  0  0
 16  1  1  0  0  0  0
 16 17  2  0  0  0  0
 18 24  1  0  0  0  0
 18 23  1  0  0  0  0
 19 18  2  0  0  0  0
 20 19  1  0  0  0  0
 20 21  2  0  0  0  0
 21 22  1  0  0  0  0
 22 23  2  0  0  0  0
 22 16  1  0  0  0  0
 25 19  1  0  0  0  0
 26 20  1  0  0  0  0
M  END
>  <minimizedAffinity>
-5.53353643

>  <minimizedRMSD>
2.08329868

$$$$
