
 OpenBabel03262522493D

 24 26  0  0  0  0  0  0  0  0999 V2000
   37.0420   26.9210   33.2020 C   0  0  0  0  0  0  0  0  0  0  0  0
   37.3950   25.7210   32.7360 C   0  0  0  0  0  0  0  0  0  0  0  0
   37.9010   24.7710   33.5750 C   0  0  0  0  0  0  0  0  0  0  0  0
   38.0090   25.1430   34.8840 C   0  0  0  0  0  0  0  0  0  0  0  0
   37.3770   26.8590   34.8820 S   0  0  0  0  0  0  0  0  0  0  0  0
   37.2740   25.5060   31.6590 H   0  0  0  0  0  0  0  0  0  0  0  0
   38.2180   23.7740   33.3120 H   0  0  0  0  0  0  0  0  0  0  0  0
   34.9310   29.7920   32.4250 C   0  0  0  0  0  0  0  0  0  0  0  0
   35.4200   30.2320   31.1890 C   0  0  0  0  0  0  0  0  0  0  0  0
   36.4790   29.5310   30.6280 C   0  0  0  0  0  0  0  0  0  0  0  0
   36.9870   28.4590   31.3010 N   0  0  0  0  0  0  0  0  0  0  0  0
   36.4850   28.0770   32.4820 C   0  0  0  0  0  0  0  0  0  0  0  0
   35.4590   28.7210   33.0710 N   0  0  0  0  0  0  0  0  0  0  0  0
   34.1070   30.3480   32.8470 H   0  0  0  0  0  0  0  0  0  0  0  0
   34.9830   31.0930   30.6890 H   0  0  0  0  0  0  0  0  0  0  0  0
   36.9060   29.8170   29.6760 H   0  0  0  0  0  0  0  0  0  0  0  0
   38.5070   24.3810   36.0540 C   0  0  0  0  0  0  0  0  0  0  0  0
   37.8510   24.4770   37.2330 C   0  0  0  0  0  0  0  0  0  0  0  0
   36.9770   25.1100   37.2960 H   0  0  0  0  0  0  0  0  0  0  0  0
   38.3630   23.7430   38.2840 C   0  0  0  0  0  0  0  0  0  0  0  0
   37.8210   23.8300   39.2370 H   0  0  0  0  0  0  0  0  0  0  0  0
   39.4890   22.9600   38.1030 C   0  0  0  0  0  3  0  0  0  0  0  0
   40.1100   22.9050   36.8820 C   0  0  0  0  0  3  0  0  0  0  0  0
   39.5830   23.6280   35.8940 N   0  0  0  0  0  0  0  0  0  0  0  0
  1  5  1  0  0  0  0
  2  1  2  0  0  0  0
  2  3  1  0  0  0  0
  3  4  2  0  0  0  0
  4 17  1  0  0  0  0
  5  4  1  0  0  0  0
  6  2  1  0  0  0  0
  7  3  1  0  0  0  0
  8 14  1  0  0  0  0
  8 13  1  0  0  0  0
  9  8  2  0  0  0  0
 10  9  1  0  0  0  0
 10 11  2  0  0  0  0
 11 12  1  0  0  0  0
 12 13  2  0  0  0  0
 12  1  1  0  0  0  0
 15  9  1  0  0  0  0
 16 10  1  0  0  0  0
 17 18  1  0  0  0  0
 18 19  1  0  0  0  0
 18 20  2  0  0  0  0
 20 21  1  0  0  0  0
 22 20  1  0  0  0  0
 23 22  2  0  0  0  0
 24 17  2  0  0  0  0
 24 23  1  0  0  0  0
M  END
>  <minimizedAffinity>
-4.72538328

$$$$

 OpenBabel03262522493D

 24 26  0  0  0  0  0  0  0  0999 V2000
   37.9900   25.2300   34.8710 C   0  0  0  0  0  0  0  0  0  0  0  0
   37.9880   24.8870   33.5810 C   0  0  0  0  0  0  0  0  0  0  0  0
   37.5190   25.7490   32.6330 C   0  0  0  0  0  0  0  0  0  0  0  0
   37.0710   26.9500   33.1040 C   0  0  0  0  0  0  0  0  0  0  0  0
   37.3330   26.8140   34.9080 S   0  0  0  0  0  0  0  0  0  0  0  0
   38.3700   23.8920   33.2900 H   0  0  0  0  0  0  0  0  0  0  0  0
   37.4680   25.5810   31.5690 H   0  0  0  0  0  0  0  0  0  0  0  0
   38.1580   23.9500   38.2820 C   0  0  0  0  0  0  0  0  0  0  0  0
   39.2370   23.0580   38.2440 C   0  0  0  0  0  0  0  0  0  0  0  0
   39.9040   22.9050   37.0350 C   0  0  0  0  0  0  0  0  0  0  0  0
   39.4800   23.6230   35.9560 N   0  0  0  0  0  0  0  0  0  0  0  0
   38.4420   24.4630   36.0420 C   0  0  0  0  0  0  0  0  0  0  0  0
   37.7590   24.6500   37.1890 N   0  0  0  0  0  0  0  0  0  0  0  0
   37.6510   24.0570   39.2300 H   0  0  0  0  0  0  0  0  0  0  0  0
   39.5400   22.5070   39.1310 H   0  0  0  0  0  0  0  0  0  0  0  0
   40.7460   22.2330   36.9350 H   0  0  0  0  0  0  0  0  0  0  0  0
   36.5040   28.1090   32.3740 C   0  0  0  0  0  0  0  0  0  0  0  0
   37.0620   28.4880   31.2010 C   0  0  0  0  0  0  0  0  0  0  0  0
   37.9120   27.9370   30.8230 H   0  0  0  0  0  0  0  0  0  0  0  0
   36.4900   29.5740   30.5700 C   0  0  0  0  0  0  0  0  0  0  0  0
   36.9530   29.8720   29.6180 H   0  0  0  0  0  0  0  0  0  0  0  0
   35.4020   30.2140   31.1350 C   0  0  0  0  0  3  0  0  0  0  0  0
   34.8810   29.7820   32.3270 C   0  0  0  0  0  3  0  0  0  0  0  0
   35.4630   28.7310   32.9040 N   0  0  0  0  0  0  0  0  0  0  0  0
  1  5  1  0  0  0  0
  1 12  1  0  0  0  0
  2  1  2  0  0  0  0
  3  4  2  0  0  0  0
  3  2  1  0  0  0  0
  4  5  1  0  0  0  0
  6  2  1  0  0  0  0
  7  3  1  0  0  0  0
  8 14  1  0  0  0  0
  9  8  1  0  0  0  0
  9 15  1  0  0  0  0
 10  9  2  0  0  0  0
 11 12  2  0  0  0  0
 11 10  1  0  0  0  0
 12 13  1  0  0  0  0
 13  8  2  0  0  0  0
 16 10  1  0  0  0  0
 17 24  1  0  0  0  0
 17  4  1  0  0  0  0
 18 17  2  0  0  0  0
 19 18  1  0  0  0  0
 20 22  2  0  0  0  0
 20 18  1  0  0  0  0
 21 20  1  0  0  0  0
 22 23  1  0  0  0  0
 23 24  2  0  0  0  0
M  END
>  <minimizedAffinity>
-4.6643796

$$$$

 OpenBabel03262522493D

 24 26  0  0  0  0  0  0  0  0999 V2000
   37.9730   25.2760   34.8780 C   0  0  0  0  0  0  0  0  0  0  0  0
   37.7760   24.9250   33.6060 C   0  0  0  0  0  0  0  0  0  0  0  0
   37.2970   25.8290   32.7010 C   0  0  0  0  0  0  0  0  0  0  0  0
   37.0480   27.0760   33.1960 C   0  0  0  0  0  0  0  0  0  0  0  0
   37.5090   26.9250   34.9590 S   0  0  0  0  0  0  0  0  0  0  0  0
   38.0040   23.8910   33.2920 H   0  0  0  0  0  0  0  0  0  0  0  0
   37.1000   25.6590   31.6550 H   0  0  0  0  0  0  0  0  0  0  0  0
   40.0510   22.9780   36.8020 C   0  0  0  0  0  0  0  0  0  0  0  0
   39.4410   22.9630   38.0630 C   0  0  0  0  0  0  0  0  0  0  0  0
   38.3100   23.7490   38.2410 C   0  0  0  0  0  0  0  0  0  0  0  0
   37.8530   24.4890   37.1910 N   0  0  0  0  0  0  0  0  0  0  0  0
   38.4720   24.4710   36.0040 C   0  0  0  0  0  0  0  0  0  0  0  0
   39.5720   23.7280   35.7760 N   0  0  0  0  0  0  0  0  0  0  0  0
   40.9290   22.3610   36.6810 H   0  0  0  0  0  0  0  0  0  0  0  0
   39.8410   22.3560   38.8710 H   0  0  0  0  0  0  0  0  0  0  0  0
   37.7890   23.7840   39.1890 H   0  0  0  0  0  0  0  0  0  0  0  0
   36.5330   28.2870   32.5130 C   0  0  0  0  0  0  0  0  0  0  0  0
   35.8180   29.1910   33.2200 C   0  0  0  0  0  0  0  0  0  0  0  0
   35.6370   29.0090   34.2710 H   0  0  0  0  0  0  0  0  0  0  0  0
   35.3660   30.2970   32.5280 C   0  0  0  0  0  0  0  0  0  0  0  0
   34.7860   31.0240   33.1150 H   0  0  0  0  0  0  0  0  0  0  0  0
   35.6500   30.4400   31.1830 C   0  0  0  0  0  3  0  0  0  0  0  0
   36.3810   29.4870   30.5200 C   0  0  0  0  0  3  0  0  0  0  0  0
   36.7980   28.4360   31.2250 N   0  0  0  0  0  0  0  0  0  0  0  0
  1  5  1  0  0  0  0
  1 12  1  0  0  0  0
  2  1  2  0  0  0  0
  3  4  2  0  0  0  0
  3  2  1  0  0  0  0
  4  5  1  0  0  0  0
  6  2  1  0  0  0  0
  7  3  1  0  0  0  0
  8  9  1  0  0  0  0
  9 10  2  0  0  0  0
  9 15  1  0  0  0  0
 10 16  1  0  0  0  0
 11 10  1  0  0  0  0
 12 11  2  0  0  0  0
 13 12  1  0  0  0  0
 13  8  2  0  0  0  0
 14  8  1  0  0  0  0
 17  4  1  0  0  0  0
 17 18  1  0  0  0  0
 18 19  1  0  0  0  0
 20 21  1  0  0  0  0
 20 18  2  0  0  0  0
 22 20  1  0  0  0  0
 23 22  2  0  0  0  0
 23 24  1  0  0  0  0
 24 17  2  0  0  0  0
M  END
>  <minimizedAffinity>
-4.63575554

$$$$

 OpenBabel03262522493D

 24 26  0  0  0  0  0  0  0  0999 V2000
   37.6740   27.2300   32.9610 C   0  0  0  0  0  0  0  0  0  0  0  0
   36.9990   27.4790   34.0860 C   0  0  0  0  0  0  0  0  0  0  0  0
   37.2080   26.7220   35.2040 C   0  0  0  0  0  0  0  0  0  0  0  0
   38.1340   25.7280   35.0720 C   0  0  0  0  0  0  0  0  0  0  0  0
   38.6880   25.9000   33.3390 S   0  0  0  0  0  0  0  0  0  0  0  0
   36.2670   28.3050   34.1020 H   0  0  0  0  0  0  0  0  0  0  0  0
   36.7240   26.8300   36.1610 H   0  0  0  0  0  0  0  0  0  0  0  0
   36.6430   29.5690   30.3600 C   0  0  0  0  0  0  0  0  0  0  0  0
   37.4370   29.2100   29.2640 C   0  0  0  0  0  0  0  0  0  0  0  0
   38.3270   28.1560   29.4300 C   0  0  0  0  0  0  0  0  0  0  0  0
   38.3840   27.5300   30.6400 N   0  0  0  0  0  0  0  0  0  0  0  0
   37.6030   27.9110   31.6590 C   0  0  0  0  0  0  0  0  0  0  0  0
   36.7230   28.9250   31.5530 N   0  0  0  0  0  0  0  0  0  0  0  0
   35.9560   30.3890   30.2130 H   0  0  0  0  0  0  0  0  0  0  0  0
   37.3570   29.7380   28.3180 H   0  0  0  0  0  0  0  0  0  0  0  0
   38.9710   27.8270   28.6260 H   0  0  0  0  0  0  0  0  0  0  0  0
   38.6080   24.7300   36.0620 C   0  0  0  0  0  0  0  0  0  0  0  0
   39.6570   23.9360   35.7490 C   0  0  0  0  0  0  0  0  0  0  0  0
   40.1280   24.0470   34.7820 H   0  0  0  0  0  0  0  0  0  0  0  0
   40.0510   23.0290   36.7120 C   0  0  0  0  0  0  0  0  0  0  0  0
   40.9050   22.3890   36.4450 H   0  0  0  0  0  0  0  0  0  0  0  0
   39.3840   22.9640   37.9210 C   0  0  0  0  0  3  0  0  0  0  0  0
   38.3260   23.7970   38.1790 C   0  0  0  0  0  3  0  0  0  0  0  0
   37.9780   24.6580   37.2240 N   0  0  0  0  0  0  0  0  0  0  0  0
  1  5  1  0  0  0  0
  1  2  2  0  0  0  0
  2  6  1  0  0  0  0
  2  3  1  0  0  0  0
  3  7  1  0  0  0  0
  4  3  2  0  0  0  0
  4 17  1  0  0  0  0
  5  4  1  0  0  0  0
  8 13  1  0  0  0  0
  9 10  1  0  0  0  0
  9  8  2  0  0  0  0
 10 11  2  0  0  0  0
 11 12  1  0  0  0  0
 12  1  1  0  0  0  0
 13 12  2  0  0  0  0
 14  8  1  0  0  0  0
 15  9  1  0  0  0  0
 16 10  1  0  0  0  0
 17 24  1  0  0  0  0
 18 17  2  0  0  0  0
 18 20  1  0  0  0  0
 19 18  1  0  0  0  0
 20 22  2  0  0  0  0
 21 20  1  0  0  0  0
 22 23  1  0  0  0  0
 24 23  2  0  0  0  0
M  END
>  <minimizedAffinity>
-4.61267996

$$$$

 OpenBabel03262522493D

 24 26  0  0  0  0  0  0  0  0999 V2000
   38.2800   25.5910   35.0950 C   0  0  0  0  0  0  0  0  0  0  0  0
   37.3840   26.5590   35.3030 C   0  0  0  0  0  0  0  0  0  0  0  0
   37.0270   27.4050   34.2930 C   0  0  0  0  0  0  0  0  0  0  0  0
   37.6440   27.1800   33.0960 C   0  0  0  0  0  0  0  0  0  0  0  0
   38.7300   25.7520   33.4480 S   0  0  0  0  0  0  0  0  0  0  0  0
   36.9350   26.6680   36.3060 H   0  0  0  0  0  0  0  0  0  0  0  0
   36.3190   28.2170   34.3450 H   0  0  0  0  0  0  0  0  0  0  0  0
   40.4240   23.0010   36.5070 C   0  0  0  0  0  0  0  0  0  0  0  0
   39.8190   22.7100   37.7360 C   0  0  0  0  0  0  0  0  0  0  0  0
   38.6690   23.4130   38.0710 C   0  0  0  0  0  0  0  0  0  0  0  0
   38.1890   24.3420   37.1950 N   0  0  0  0  0  0  0  0  0  0  0  0
   38.8040   24.5850   36.0310 C   0  0  0  0  0  0  0  0  0  0  0  0
   39.9220   23.9330   35.6560 N   0  0  0  0  0  0  0  0  0  0  0  0
   41.3170   22.4450   36.2620 H   0  0  0  0  0  0  0  0  0  0  0  0
   40.2380   21.9600   38.4020 H   0  0  0  0  0  0  0  0  0  0  0  0
   38.1520   23.2380   39.0040 H   0  0  0  0  0  0  0  0  0  0  0  0
   37.5000   27.8910   31.8020 C   0  0  0  0  0  0  0  0  0  0  0  0
   36.5470   28.8410   31.6720 C   0  0  0  0  0  0  0  0  0  0  0  0
   35.9090   29.0610   32.5160 H   0  0  0  0  0  0  0  0  0  0  0  0
   36.4640   29.4650   30.4440 C   0  0  0  0  0  0  0  0  0  0  0  0
   35.6850   30.2360   30.3510 H   0  0  0  0  0  0  0  0  0  0  0  0
   37.3290   29.1130   29.4240 C   0  0  0  0  0  3  0  0  0  0  0  0
   38.2760   28.1400   29.6180 C   0  0  0  0  0  3  0  0  0  0  0  0
   38.3220   27.5620   30.8180 N   0  0  0  0  0  0  0  0  0  0  0  0
  1  2  2  0  0  0  0
  1 12  1  0  0  0  0
  2  6  1  0  0  0  0
  3  7  1  0  0  0  0
  3  2  1  0  0  0  0
  4  5  1  0  0  0  0
  4  3  2  0  0  0  0
  5  1  1  0  0  0  0
  8  9  1  0  0  0  0
  9 10  2  0  0  0  0
  9 15  1  0  0  0  0
 10 16  1  0  0  0  0
 11 10  1  0  0  0  0
 12 11  2  0  0  0  0
 13 12  1  0  0  0  0
 13  8  2  0  0  0  0
 14  8  1  0  0  0  0
 17  4  1  0  0  0  0
 18 17  1  0  0  0  0
 18 19  1  0  0  0  0
 20 18  2  0  0  0  0
 21 20  1  0  0  0  0
 22 23  2  0  0  0  0
 22 20  1  0  0  0  0
 23 24  1  0  0  0  0
 24 17  2  0  0  0  0
M  END
>  <minimizedAffinity>
-4.61084127

$$$$

 OpenBabel03262522493D

 24 26  0  0  0  0  0  0  0  0999 V2000
   38.3550   25.5910   35.1260 C   0  0  0  0  0  0  0  0  0  0  0  0
   37.3980   26.4910   35.3660 C   0  0  0  0  0  0  0  0  0  0  0  0
   37.0070   27.3660   34.3950 C   0  0  0  0  0  0  0  0  0  0  0  0
   37.6570   27.2430   33.2000 C   0  0  0  0  0  0  0  0  0  0  0  0
   38.8210   25.8650   33.4990 S   0  0  0  0  0  0  0  0  0  0  0  0
   36.9270   26.5200   36.3650 H   0  0  0  0  0  0  0  0  0  0  0  0
   36.2510   28.1310   34.4750 H   0  0  0  0  0  0  0  0  0  0  0  0
   38.7580   23.3800   37.9980 C   0  0  0  0  0  0  0  0  0  0  0  0
   39.9340   22.6770   37.7070 C   0  0  0  0  0  0  0  0  0  0  0  0
   40.5840   22.9740   36.5160 C   0  0  0  0  0  0  0  0  0  0  0  0
   40.0510   23.9240   35.6960 N   0  0  0  0  0  0  0  0  0  0  0  0
   38.9230   24.5690   36.0190 C   0  0  0  0  0  0  0  0  0  0  0  0
   38.2520   24.3210   37.1600 N   0  0  0  0  0  0  0  0  0  0  0  0
   38.2650   23.1380   38.9290 H   0  0  0  0  0  0  0  0  0  0  0  0
   40.3210   21.9280   38.3920 H   0  0  0  0  0  0  0  0  0  0  0  0
   41.4970   22.4690   36.2300 H   0  0  0  0  0  0  0  0  0  0  0  0
   37.4930   28.0110   31.9420 C   0  0  0  0  0  0  0  0  0  0  0  0
   38.3900   27.8450   30.9450 C   0  0  0  0  0  0  0  0  0  0  0  0
   39.2100   27.1540   31.0870 H   0  0  0  0  0  0  0  0  0  0  0  0
   38.1830   28.5880   29.8000 C   0  0  0  0  0  0  0  0  0  0  0  0
   38.9200   28.4430   28.9960 H   0  0  0  0  0  0  0  0  0  0  0  0
   37.1020   29.4460   29.7130 C   0  0  0  0  0  3  0  0  0  0  0  0
   36.2260   29.5710   30.7610 C   0  0  0  0  0  3  0  0  0  0  0  0
   36.4620   28.8360   31.8470 N   0  0  0  0  0  0  0  0  0  0  0  0
  1  2  2  0  0  0  0
  1 12  1  0  0  0  0
  2  6  1  0  0  0  0
  3  7  1  0  0  0  0
  3  2  1  0  0  0  0
  4  5  1  0  0  0  0
  4  3  2  0  0  0  0
  5  1  1  0  0  0  0
  8 14  1  0  0  0  0
  9  8  1  0  0  0  0
  9 15  1  0  0  0  0
 10  9  2  0  0  0  0
 11 12  2  0  0  0  0
 11 10  1  0  0  0  0
 12 13  1  0  0  0  0
 13  8  2  0  0  0  0
 16 10  1  0  0  0  0
 17  4  1  0  0  0  0
 18 19  1  0  0  0  0
 18 17  2  0  0  0  0
 20 18  1  0  0  0  0
 21 20  1  0  0  0  0
 22 20  2  0  0  0  0
 22 23  1  0  0  0  0
 23 24  2  0  0  0  0
 24 17  1  0  0  0  0
M  END
>  <minimizedAffinity>
-4.59433413

$$$$

 OpenBabel03262522493D

 24 26  0  0  0  0  0  0  0  0999 V2000
   36.3110   26.1320   31.7340 C   0  0  0  0  0  0  0  0  0  0  0  0
   37.2330   25.5270   32.4870 C   0  0  0  0  0  0  0  0  0  0  0  0
   37.2820   24.1650   32.5660 C   0  0  0  0  0  0  0  0  0  0  0  0
   36.3400   23.5020   31.8330 C   0  0  0  0  0  0  0  0  0  0  0  0
   35.3980   24.8550   31.0420 S   0  0  0  0  0  0  0  0  0  0  0  0
   37.9570   26.1440   33.0480 H   0  0  0  0  0  0  0  0  0  0  0  0
   37.9770   23.5720   33.1380 H   0  0  0  0  0  0  0  0  0  0  0  0
   36.5450   29.4600   30.2620 C   0  0  0  0  0  0  0  0  0  0  0  0
   35.6830   30.2290   31.0540 C   0  0  0  0  0  0  0  0  0  0  0  0
   35.0240   29.5910   32.0970 C   0  0  0  0  0  0  0  0  0  0  0  0
   35.2460   28.2600   32.2970 N   0  0  0  0  0  0  0  0  0  0  0  0
   36.0800   27.5670   31.5120 C   0  0  0  0  0  0  0  0  0  0  0  0
   36.7450   28.1360   30.4870 N   0  0  0  0  0  0  0  0  0  0  0  0
   37.0500   29.9720   29.4560 H   0  0  0  0  0  0  0  0  0  0  0  0
   35.5370   31.2880   30.8560 H   0  0  0  0  0  0  0  0  0  0  0  0
   34.3440   30.1240   32.7470 H   0  0  0  0  0  0  0  0  0  0  0  0
   36.1000   22.0460   31.6830 C   0  0  0  0  0  0  0  0  0  0  0  0
   36.9760   21.3020   30.9700 C   0  0  0  0  0  0  0  0  0  0  0  0
   37.8330   21.7880   30.5240 H   0  0  0  0  0  0  0  0  0  0  0  0
   36.6970   19.9550   30.8660 C   0  0  0  0  0  0  0  0  0  0  0  0
   37.4170   19.3610   30.2840 H   0  0  0  0  0  0  0  0  0  0  0  0
   35.5730   19.4270   31.4740 C   0  0  0  0  0  3  0  0  0  0  0  0
   34.7220   20.2350   32.1850 C   0  0  0  0  0  3  0  0  0  0  0  0
   35.0270   21.5290   32.2600 N   0  0  0  0  0  0  0  0  0  0  0  0
  1  2  2  0  0  0  0
  2  3  1  0  0  0  0
  2  6  1  0  0  0  0
  3  7  1  0  0  0  0
  4  3  2  0  0  0  0
  5  1  1  0  0  0  0
  5  4  1  0  0  0  0
  8 13  2  0  0  0  0
  8  9  1  0  0  0  0
  9 10  2  0  0  0  0
 10 11  1  0  0  0  0
 10 16  1  0  0  0  0
 12  1  1  0  0  0  0
 12 11  2  0  0  0  0
 13 12  1  0  0  0  0
 14  8  1  0  0  0  0
 15  9  1  0  0  0  0
 17  4  1  0  0  0  0
 17 24  1  0  0  0  0
 18 17  2  0  0  0  0
 19 18  1  0  0  0  0
 20 18  1  0  0  0  0
 20 22  2  0  0  0  0
 21 20  1  0  0  0  0
 22 23  1  0  0  0  0
 23 24  2  0  0  0  0
M  END
>  <minimizedAffinity>
-4.48900795

$$$$

 OpenBabel03262522493D

 24 26  0  0  0  0  0  0  0  0999 V2000
   39.4320   23.9720   35.7130 C   0  0  0  0  0  0  0  0  0  0  0  0
   38.5460   24.5550   36.5240 C   0  0  0  0  0  0  0  0  0  0  0  0
   37.6850   25.5010   36.0470 C   0  0  0  0  0  0  0  0  0  0  0  0
   37.8060   25.7850   34.7170 C   0  0  0  0  0  0  0  0  0  0  0  0
   39.1600   24.6820   34.1760 S   0  0  0  0  0  0  0  0  0  0  0  0
   38.5200   24.2640   37.5890 H   0  0  0  0  0  0  0  0  0  0  0  0
   36.9330   26.0360   36.6050 H   0  0  0  0  0  0  0  0  0  0  0  0
   42.1450   21.5790   35.2440 C   0  0  0  0  0  0  0  0  0  0  0  0
   42.3310   21.0420   36.5240 C   0  0  0  0  0  0  0  0  0  0  0  0
   41.5140   21.5090   37.5450 C   0  0  0  0  0  0  0  0  0  0  0  0
   40.5800   22.4600   37.2550 N   0  0  0  0  0  0  0  0  0  0  0  0
   40.4410   22.9440   36.0150 C   0  0  0  0  0  0  0  0  0  0  0  0
   41.2060   22.5260   34.9880 N   0  0  0  0  0  0  0  0  0  0  0  0
   42.7880   21.2040   34.4620 H   0  0  0  0  0  0  0  0  0  0  0  0
   43.0880   20.2850   36.7080 H   0  0  0  0  0  0  0  0  0  0  0  0
   41.6040   21.1370   38.5570 H   0  0  0  0  0  0  0  0  0  0  0  0
   37.0480   26.7420   33.8740 C   0  0  0  0  0  0  0  0  0  0  0  0
   36.6490   27.9190   34.4060 C   0  0  0  0  0  0  0  0  0  0  0  0
   36.8900   28.1360   35.4380 H   0  0  0  0  0  0  0  0  0  0  0  0
   35.9480   28.7660   33.5720 C   0  0  0  0  0  0  0  0  0  0  0  0
   35.6290   29.7200   34.0170 H   0  0  0  0  0  0  0  0  0  0  0  0
   35.6880   28.3970   32.2650 C   0  0  0  0  0  3  0  0  0  0  0  0
   36.1200   27.1880   31.7830 C   0  0  0  0  0  3  0  0  0  0  0  0
   36.7930   26.4010   32.6210 N   0  0  0  0  0  0  0  0  0  0  0  0
  1 12  1  0  0  0  0
  1  2  2  0  0  0  0
  2  6  1  0  0  0  0
  3  2  1  0  0  0  0
  3  7  1  0  0  0  0
  4  3  2  0  0  0  0
  5  4  1  0  0  0  0
  5  1  1  0  0  0  0
  8  9  1  0  0  0  0
  9 15  1  0  0  0  0
  9 10  2  0  0  0  0
 10 16  1  0  0  0  0
 11 10  1  0  0  0  0
 12 11  2  0  0  0  0
 13  8  2  0  0  0  0
 13 12  1  0  0  0  0
 14  8  1  0  0  0  0
 17 18  1  0  0  0  0
 17  4  1  0  0  0  0
 18 19  1  0  0  0  0
 20 21  1  0  0  0  0
 20 18  2  0  0  0  0
 22 20  1  0  0  0  0
 23 22  2  0  0  0  0
 23 24  1  0  0  0  0
 24 17  2  0  0  0  0
M  END
>  <minimizedAffinity>
-4.41145468

$$$$

 OpenBabel03262522493D

 24 26  0  0  0  0  0  0  0  0999 V2000
   37.9230   26.3610   34.4380 C   0  0  0  0  0  0  0  0  0  0  0  0
   37.5470   25.9550   35.6530 C   0  0  0  0  0  0  0  0  0  0  0  0
   38.2190   24.9520   36.2900 C   0  0  0  0  0  0  0  0  0  0  0  0
   39.2700   24.4210   35.5980 C   0  0  0  0  0  0  0  0  0  0  0  0
   39.2720   25.3790   34.0410 S   0  0  0  0  0  0  0  0  0  0  0  0
   36.6820   26.4420   36.1380 H   0  0  0  0  0  0  0  0  0  0  0  0
   38.0070   24.5440   37.2650 H   0  0  0  0  0  0  0  0  0  0  0  0
   37.3040   28.4560   31.5180 C   0  0  0  0  0  0  0  0  0  0  0  0
   36.3030   29.3340   31.9520 C   0  0  0  0  0  0  0  0  0  0  0  0
   35.8460   29.1970   33.2560 C   0  0  0  0  0  0  0  0  0  0  0  0
   36.3900   28.2250   34.0430 N   0  0  0  0  0  0  0  0  0  0  0  0
   37.3450   27.4080   33.5820 C   0  0  0  0  0  0  0  0  0  0  0  0
   37.8240   27.4970   32.3260 N   0  0  0  0  0  0  0  0  0  0  0  0
   37.6470   28.5760   30.5010 H   0  0  0  0  0  0  0  0  0  0  0  0
   35.9000   30.0950   31.2880 H   0  0  0  0  0  0  0  0  0  0  0  0
   35.0750   29.8420   33.6560 H   0  0  0  0  0  0  0  0  0  0  0  0
   40.2090   23.3370   35.9760 C   0  0  0  0  0  0  0  0  0  0  0  0
   40.1550   22.8200   37.2240 C   0  0  0  0  0  0  0  0  0  0  0  0
   39.4260   23.2120   37.9220 H   0  0  0  0  0  0  0  0  0  0  0  0
   41.0540   21.8150   37.5140 C   0  0  0  0  0  0  0  0  0  0  0  0
   40.9990   21.4030   38.5330 H   0  0  0  0  0  0  0  0  0  0  0  0
   41.9490   21.3820   36.5530 C   0  0  0  0  0  3  0  0  0  0  0  0
   41.9550   21.9460   35.3030 C   0  0  0  0  0  3  0  0  0  0  0  0
   41.0700   22.9140   35.0640 N   0  0  0  0  0  0  0  0  0  0  0  0
  1  2  2  0  0  0  0
  2  6  1  0  0  0  0
  2  3  1  0  0  0  0
  3  7  1  0  0  0  0
  4 17  1  0  0  0  0
  4  3  2  0  0  0  0
  5  1  1  0  0  0  0
  5  4  1  0  0  0  0
  8  9  2  0  0  0  0
  8 13  1  0  0  0  0
  9 10  1  0  0  0  0
 10 16  1  0  0  0  0
 10 11  2  0  0  0  0
 12 11  1  0  0  0  0
 12  1  1  0  0  0  0
 13 12  2  0  0  0  0
 14  8  1  0  0  0  0
 15  9  1  0  0  0  0
 17 18  1  0  0  0  0
 18 20  2  0  0  0  0
 18 19  1  0  0  0  0
 20 21  1  0  0  0  0
 22 20  1  0  0  0  0
 23 22  2  0  0  0  0
 24 23  1  0  0  0  0
 24 17  2  0  0  0  0
M  END
>  <minimizedAffinity>
-4.37277126

$$$$
