
 OpenBabel03272500073D

 38 41  0  0  0  0  0  0  0  0999 V2000
   35.4490   28.8760   49.1740 C   0  0  0  0  0  0  0  0  0  0  0  0
   35.3830   30.0640   48.4230 C   0  0  0  0  0  0  0  0  0  0  0  0
   34.2890   30.2300   47.5580 C   0  0  0  0  0  0  0  0  0  0  0  0
   33.3530   29.2410   47.4860 N   0  0  0  0  0  0  0  0  0  0  0  0
   33.4630   28.1160   48.2310 C   0  0  0  0  0  0  0  0  0  0  0  0
   34.5100   27.9220   49.0810 N   0  0  0  0  0  0  0  0  0  0  0  0
   36.2860   28.7240   49.8500 H   0  0  0  0  0  0  0  0  0  0  0  0
   34.2330   31.1390   46.9800 H   0  0  0  0  0  0  0  0  0  0  0  0
   36.4190   31.0230   48.5730 N   0  0  0  0  0  0  0  0  0  0  0  0
   36.5930   31.7070   49.6980 C   0  0  0  0  0  0  0  0  0  0  0  0
   37.6240   32.6300   49.7820 C   0  0  0  0  0  0  0  0  0  0  0  0
   38.3980   32.7580   48.6560 C   0  0  0  0  0  0  0  0  0  0  0  0
   39.3500   33.5940   48.7000 O   0  0  0  0  0  0  0  0  0  0  0  0
   38.2530   32.0950   47.5240 N   0  0  0  0  0  0  0  0  0  0  0  0
   37.2310   31.1950   47.4740 C   0  0  0  0  0  0  0  0  0  0  0  0
   37.0770   30.5490   46.3920 O   0  0  0  0  0  0  0  0  0  0  0  0
   35.9270   31.5390   50.5410 H   0  0  0  0  0  0  0  0  0  0  0  0
   37.7920   33.2070   50.6880 H   0  0  0  0  0  0  0  0  0  0  0  0
   38.8630   32.2170   46.6840 H   0  0  0  0  0  0  0  0  0  0  0  0
   32.4900   27.1090   48.1400 O   0  0  0  0  0  0  0  0  0  0  0  0
   31.1720   27.5150   48.2990 C   0  0  0  0  0  0  0  0  0  0  0  0
   30.7950   27.7420   49.6040 C   0  0  0  0  0  0  0  0  0  0  0  0
   29.5160   28.1550   49.9140 C   0  0  0  0  0  0  0  0  0  0  0  0
   28.6110   28.3380   48.8790 C   0  0  0  0  0  0  0  0  0  0  0  0
   28.9960   28.1080   47.5760 C   0  0  0  0  0  0  0  0  0  0  0  0
   30.2840   27.6920   47.2650 C   0  0  0  0  0  0  0  0  0  0  0  0
   31.4790   27.6090   50.4480 H   0  0  0  0  0  0  0  0  0  0  0  0
   29.2250   28.3310   50.9400 H   0  0  0  0  0  0  0  0  0  0  0  0
   27.6280   28.6570   49.1340 H   0  0  0  0  0  0  0  0  0  0  0  0
   28.2200   28.2790   46.8420 H   0  0  0  0  0  0  0  0  0  0  0  0
   30.5920   27.4760   45.8630 C   0  0  0  0  0  0  0  0  0  0  0  0
   30.6920   26.2920   45.1820 C   0  0  0  0  0  0  0  0  0  0  0  0
   30.5330   25.3880   45.7090 H   0  0  0  0  0  0  0  0  0  0  0  0
   30.9720   26.1640   43.8450 C   0  0  0  0  0  0  0  0  0  0  0  0
   31.0340   25.1890   43.3780 H   0  0  0  0  0  0  0  0  0  0  0  0
   31.1740   27.2960   43.0870 C   0  0  0  0  0  0  0  0  0  0  0  0
   31.0640   28.4640   43.8080 C   0  0  0  0  0  0  0  0  0  0  0  0
   30.7900   28.5710   45.1160 N   0  0  0  0  0  0  0  0  0  0  0  0
  1  7  1  0  0  0  0
  2  9  1  0  0  0  0
  2  1  2  0  0  0  0
  3  2  1  0  0  0  0
  4  3  2  0  0  0  0
  4  5  1  0  0  0  0
  5  6  2  0  0  0  0
  6  1  1  0  0  0  0
  8  3  1  0  0  0  0
  9 10  1  0  0  0  0
 10 11  2  0  0  0  0
 10 17  1  0  0  0  0
 11 18  1  0  0  0  0
 12 13  2  0  0  0  0
 12 11  1  0  0  0  0
 14 12  1  0  0  0  0
 15 14  1  0  0  0  0
 15  9  1  0  0  0  0
 16 15  2  0  0  0  0
 19 14  1  0  0  0  0
 20  5  1  0  0  0  0
 20 21  1  0  0  0  0
 21 22  1  0  0  0  0
 22 23  2  0  0  0  0
 22 27  1  0  0  0  0
 23 28  1  0  0  0  0
 24 29  1  0  0  0  0
 24 23  1  0  0  0  0
 25 24  2  0  0  0  0
 26 25  1  0  0  0  0
 26 21  2  0  0  0  0
 30 25  1  0  0  0  0
 31 26  1  0  0  0  0
 32 33  1  0  0  0  0
 32 31  1  0  0  0  0
 34 32  2  0  0  0  0
 35 34  1  0  0  0  0
 36 37  2  0  0  0  0
 36 34  1  0  0  0  0
 37 38  1  0  0  0  0
 38 31  2  0  0  0  0
M  END
>  <minimizedAffinity>
-5.78483629

>  <minimizedRMSD>
0.176768646

$$$$
