
 OpenBabel03272506583D

 27 29  0  0  0  0  0  0  0  0999 V2000
   37.8760   31.2900   46.4440 C   0  0  0  0  0  0  0  0  0  0  0  0
   39.2210   31.0170   46.6500 C   0  0  0  0  0  0  0  0  0  0  0  0
   40.2500   31.2700   45.7700 C   0  0  0  0  0  0  0  0  0  0  0  0
   39.8720   31.8470   44.5890 N   0  0  0  0  0  0  0  0  0  0  0  0
   38.5670   32.1270   44.3570 C   0  0  0  0  0  0  0  0  0  0  0  0
   37.6110   31.8540   45.2600 N   0  0  0  0  0  0  0  0  0  0  0  0
   39.5260   30.5610   47.5830 H   0  0  0  0  0  0  0  0  0  0  0  0
   41.2650   31.0340   45.9940 H   0  0  0  0  0  0  0  0  0  0  0  0
   34.8310   29.9910   47.9070 C   0  0  0  0  0  0  0  0  0  0  0  0
   34.9170   30.2930   49.2610 C   0  0  0  0  0  0  0  0  0  0  0  0
   36.0820   30.9740   49.6660 C   0  0  0  0  0  0  0  0  0  0  0  0
   37.0160   31.2840   48.7420 N   0  0  0  0  0  0  0  0  0  0  0  0
   36.8860   30.9710   47.4520 C   0  0  0  0  0  0  0  0  0  0  0  0
   35.7820   30.3070   46.9780 N   0  0  0  0  0  0  0  0  0  0  0  0
   33.9390   29.4600   47.5520 H   0  0  0  0  0  0  0  0  0  0  0  0
   36.1630   31.2170   50.7160 H   0  0  0  0  0  0  0  0  0  0  0  0
   33.8790   29.9210   50.1430 N   0  0  0  0  0  0  0  0  0  0  0  0
   33.1120   30.6230   50.1860 H   0  0  0  0  0  0  0  0  0  0  0  0
   34.0830   28.9930   50.5950 H   0  0  0  0  0  0  0  0  0  0  0  0
   38.1640   32.7420   43.0960 C   0  0  0  0  0  0  0  0  0  0  0  0
   36.8290   32.7560   42.7400 C   0  0  0  0  0  0  0  0  0  0  0  0
   36.1230   32.3010   43.4230 H   0  0  0  0  0  0  0  0  0  0  0  0
   36.3500   33.3160   41.5660 C   0  0  0  0  0  0  0  0  0  0  0  0
   35.3030   33.3200   41.3010 H   0  0  0  0  0  0  0  0  0  0  0  0
   37.3340   33.8680   40.7710 C   0  0  0  0  0  0  0  0  0  0  0  0
   38.6790   33.8800   41.0790 C   0  0  0  0  0  0  0  0  0  0  0  0
   39.0770   33.3090   42.2540 N   0  0  0  0  0  0  0  0  0  0  0  0
  1  2  1  0  0  0  0
  1 13  1  0  0  0  0
  2  7  1  0  0  0  0
  3  8  1  0  0  0  0
  3  2  2  0  0  0  0
  4  3  1  0  0  0  0
  5  4  2  0  0  0  0
  5  6  1  0  0  0  0
  6  1  2  0  0  0  0
  9 10  1  0  0  0  0
 10 11  2  0  0  0  0
 10 17  1  0  0  0  0
 11 16  1  0  0  0  0
 12 11  1  0  0  0  0
 13 12  2  0  0  0  0
 14 13  1  0  0  0  0
 14  9  2  0  0  0  0
 15  9  1  0  0  0  0
 17 18  1  0  0  0  0
 17 19  1  0  0  0  0
 20  5  1  0  0  0  0
 21 20  1  0  0  0  0
 21 22  1  0  0  0  0
 23 21  2  0  0  0  0
 24 23  1  0  0  0  0
 25 26  2  0  0  0  0
 25 23  1  0  0  0  0
 26 27  1  0  0  0  0
 27 20  2  0  0  0  0
M  END
>  <minimizedAffinity>
-5.25621653

>  <minimizedRMSD>
1.3287859

$$$$
