
 OpenBabel03272500363D

 20 21  0  0  0  0  0  0  0  0999 V2000
   38.3680   23.8650   37.0220 C   0  0  0  0  0  0  0  0  0  0  0  0
   39.0640   22.8430   36.3730 C   0  0  0  0  0  0  0  0  0  0  0  0
   39.1960   22.9180   34.9790 C   0  0  0  0  0  0  0  0  0  0  0  0
   38.6300   23.9980   34.3380 N   0  0  0  0  0  0  0  0  0  0  0  0
   37.9730   24.9530   35.0080 C   0  0  0  0  0  0  0  0  0  0  0  0
   37.8390   24.8920   36.3410 N   0  0  0  0  0  0  0  0  0  0  0  0
   39.4950   22.0080   36.9230 H   0  0  0  0  0  0  0  0  0  0  0  0
   39.7190   22.1640   34.4180 H   0  0  0  0  0  0  0  0  0  0  0  0
   37.4000   26.0660   34.2560 C   0  0  0  0  0  0  0  0  0  0  0  0
   37.0310   27.2410   34.8770 C   0  0  0  0  0  0  0  0  0  0  0  0
   37.1470   27.3820   35.9210 H   0  0  0  0  0  0  0  0  0  0  0  0
   36.4930   28.2510   34.0810 C   0  0  0  0  0  0  0  0  0  0  0  0
   36.1820   29.1920   34.4880 H   0  0  0  0  0  0  0  0  0  0  0  0
   36.3460   28.0540   32.7160 C   0  0  0  0  0  3  0  0  0  0  0  0
   36.7230   26.8700   32.1250 C   0  0  0  0  0  3  0  0  0  0  0  0
   37.2380   25.9190   32.9140 N   0  0  0  0  0  0  0  0  0  0  0  0
   38.2250   23.7910   38.5090 C   0  0  0  0  0  0  0  0  0  0  0  0
   37.8930   25.0400   39.0110 F   0  0  0  0  0  0  0  0  0  0  0  0
   37.3190   22.8190   38.7980 F   0  0  0  0  0  0  0  0  0  0  0  0
   39.4910   23.4930   39.0250 F   0  0  0  0  0  0  0  0  0  0  0  0
  1 17  1  0  0  0  0
  2  7  1  0  0  0  0
  2  1  1  0  0  0  0
  3  2  2  0  0  0  0
  4  3  1  0  0  0  0
  4  5  2  0  0  0  0
  5  6  1  0  0  0  0
  6  1  2  0  0  0  0
  8  3  1  0  0  0  0
  9 10  1  0  0  0  0
  9  5  1  0  0  0  0
 10 11  1  0  0  0  0
 12 13  1  0  0  0  0
 12 10  2  0  0  0  0
 14 12  1  0  0  0  0
 15 14  2  0  0  0  0
 15 16  1  0  0  0  0
 16  9  2  0  0  0  0
 17 19  1  0  0  0  0
 17 18  1  0  0  0  0
 17 20  1  0  0  0  0
M  END
>  <minimizedAffinity>
-5.2035346

$$$$

 OpenBabel03272500363D

 20 21  0  0  0  0  0  0  0  0999 V2000
   38.7380   23.0630   37.0240 C   0  0  0  0  0  0  0  0  0  0  0  0
   40.0990   22.8550   36.7880 C   0  0  0  0  0  0  0  0  0  0  0  0
   40.4780   22.3100   35.5540 C   0  0  0  0  0  0  0  0  0  0  0  0
   39.4810   22.0130   34.6500 N   0  0  0  0  0  0  0  0  0  0  0  0
   38.1900   22.2320   34.9250 C   0  0  0  0  0  0  0  0  0  0  0  0
   37.8140   22.7530   36.1030 N   0  0  0  0  0  0  0  0  0  0  0  0
   40.8520   23.1060   37.5340 H   0  0  0  0  0  0  0  0  0  0  0  0
   41.5090   22.1240   35.3080 H   0  0  0  0  0  0  0  0  0  0  0  0
   37.1930   21.8900   33.9150 C   0  0  0  0  0  0  0  0  0  0  0  0
   36.2310   20.9280   34.1480 C   0  0  0  0  0  0  0  0  0  0  0  0
   36.1790   20.4000   35.0660 H   0  0  0  0  0  0  0  0  0  0  0  0
   35.3180   20.6660   33.1270 C   0  0  0  0  0  0  0  0  0  0  0  0
   34.5430   19.9340   33.2300 H   0  0  0  0  0  0  0  0  0  0  0  0
   35.3980   21.3640   31.9310 C   0  0  0  0  0  3  0  0  0  0  0  0
   36.3680   22.3180   31.7280 C   0  0  0  0  0  3  0  0  0  0  0  0
   37.2300   22.5480   32.7260 N   0  0  0  0  0  0  0  0  0  0  0  0
   38.3280   23.6450   38.3390 C   0  0  0  0  0  0  0  0  0  0  0  0
   39.3790   23.5580   39.2380 F   0  0  0  0  0  0  0  0  0  0  0  0
   37.8890   24.9130   38.1210 F   0  0  0  0  0  0  0  0  0  0  0  0
   37.3160   22.8240   38.8490 F   0  0  0  0  0  0  0  0  0  0  0  0
  1 17  1  0  0  0  0
  2  1  1  0  0  0  0
  2  7  1  0  0  0  0
  3  2  2  0  0  0  0
  4  5  2  0  0  0  0
  4  3  1  0  0  0  0
  5  6  1  0  0  0  0
  6  1  2  0  0  0  0
  8  3  1  0  0  0  0
  9 10  1  0  0  0  0
  9  5  1  0  0  0  0
 10 11  1  0  0  0  0
 12 13  1  0  0  0  0
 12 10  2  0  0  0  0
 14 12  1  0  0  0  0
 15 14  2  0  0  0  0
 15 16  1  0  0  0  0
 16  9  2  0  0  0  0
 17 20  1  0  0  0  0
 17 18  1  0  0  0  0
 19 17  1  0  0  0  0
M  END
>  <minimizedAffinity>
-5.07429552

$$$$

 OpenBabel03272500363D

 20 21  0  0  0  0  0  0  0  0999 V2000
   38.4140   23.8030   36.9830 C   0  0  0  0  0  0  0  0  0  0  0  0
   39.0380   22.7490   36.3110 C   0  0  0  0  0  0  0  0  0  0  0  0
   39.1390   22.8260   34.9150 C   0  0  0  0  0  0  0  0  0  0  0  0
   38.6150   23.9390   34.2930 N   0  0  0  0  0  0  0  0  0  0  0  0
   38.0260   24.9220   34.9850 C   0  0  0  0  0  0  0  0  0  0  0  0
   37.9230   24.8600   36.3210 N   0  0  0  0  0  0  0  0  0  0  0  0
   39.4380   21.8890   36.8460 H   0  0  0  0  0  0  0  0  0  0  0  0
   39.6070   22.0490   34.3360 H   0  0  0  0  0  0  0  0  0  0  0  0
   37.4940   26.0690   34.2530 C   0  0  0  0  0  0  0  0  0  0  0  0
   37.5090   26.1140   32.8740 C   0  0  0  0  0  0  0  0  0  0  0  0
   37.9080   25.3210   32.2930 H   0  0  0  0  0  0  0  0  0  0  0  0
   36.9800   27.2470   32.2590 C   0  0  0  0  0  0  0  0  0  0  0  0
   36.9560   27.3580   31.1940 H   0  0  0  0  0  0  0  0  0  0  0  0
   36.4630   28.2770   33.0310 C   0  0  0  0  0  3  0  0  0  0  0  0
   36.4610   28.2030   34.4050 C   0  0  0  0  0  3  0  0  0  0  0  0
   36.9760   27.1020   34.9670 N   0  0  0  0  0  0  0  0  0  0  0  0
   38.3040   23.7270   38.4730 C   0  0  0  0  0  0  0  0  0  0  0  0
   37.3060   22.8310   38.8240 F   0  0  0  0  0  0  0  0  0  0  0  0
   39.5300   23.4130   38.9710 F   0  0  0  0  0  0  0  0  0  0  0  0
   37.8680   24.9810   38.9130 F   0  0  0  0  0  0  0  0  0  0  0  0
  1 17  1  0  0  0  0
  2  7  1  0  0  0  0
  2  1  2  0  0  0  0
  3  2  1  0  0  0  0
  4  3  2  0  0  0  0
  4  5  1  0  0  0  0
  5  6  2  0  0  0  0
  6  1  1  0  0  0  0
  8  3  1  0  0  0  0
  9 16  1  0  0  0  0
  9  5  1  0  0  0  0
 10  9  2  0  0  0  0
 11 10  1  0  0  0  0
 12 10  1  0  0  0  0
 12 14  2  0  0  0  0
 13 12  1  0  0  0  0
 14 15  1  0  0  0  0
 15 16  2  0  0  0  0
 17 18  1  0  0  0  0
 17 20  1  0  0  0  0
 17 19  1  0  0  0  0
M  END
>  <minimizedAffinity>
-5.06135082

$$$$

 OpenBabel03272500363D

 20 21  0  0  0  0  0  0  0  0999 V2000
   38.1840   23.6320   36.6840 C   0  0  0  0  0  0  0  0  0  0  0  0
   38.7230   24.7520   36.0480 C   0  0  0  0  0  0  0  0  0  0  0  0
   38.7320   24.7730   34.6460 C   0  0  0  0  0  0  0  0  0  0  0  0
   38.2090   23.6840   33.9850 N   0  0  0  0  0  0  0  0  0  0  0  0
   37.7030   22.6330   34.6430 C   0  0  0  0  0  0  0  0  0  0  0  0
   37.6880   22.6010   35.9840 N   0  0  0  0  0  0  0  0  0  0  0  0
   39.1260   25.5910   36.6140 H   0  0  0  0  0  0  0  0  0  0  0  0
   39.1330   25.6050   34.0940 H   0  0  0  0  0  0  0  0  0  0  0  0
   37.1670   21.5170   33.8690 C   0  0  0  0  0  0  0  0  0  0  0  0
   35.9610   20.9300   34.1920 C   0  0  0  0  0  0  0  0  0  0  0  0
   35.3770   21.2650   35.0120 H   0  0  0  0  0  0  0  0  0  0  0  0
   35.5250   19.8690   33.3980 C   0  0  0  0  0  0  0  0  0  0  0  0
   34.6010   19.3620   33.5840 H   0  0  0  0  0  0  0  0  0  0  0  0
   36.2980   19.4420   32.3290 C   0  0  0  0  0  3  0  0  0  0  0  0
   37.4970   20.0470   32.0320 C   0  0  0  0  0  3  0  0  0  0  0  0
   37.8890   21.0630   32.8110 N   0  0  0  0  0  0  0  0  0  0  0  0
   38.1700   23.6050   38.1800 C   0  0  0  0  0  0  0  0  0  0  0  0
   38.0020   24.8910   38.6700 F   0  0  0  0  0  0  0  0  0  0  0  0
   37.2080   22.7310   38.5770 F   0  0  0  0  0  0  0  0  0  0  0  0
   39.4450   23.1990   38.5910 F   0  0  0  0  0  0  0  0  0  0  0  0
  1 17  1  0  0  0  0
  2  7  1  0  0  0  0
  2  1  1  0  0  0  0
  3  2  2  0  0  0  0
  4  5  2  0  0  0  0
  4  3  1  0  0  0  0
  5  6  1  0  0  0  0
  6  1  2  0  0  0  0
  8  3  1  0  0  0  0
  9 10  1  0  0  0  0
  9  5  1  0  0  0  0
 10 11  1  0  0  0  0
 12 13  1  0  0  0  0
 12 10  2  0  0  0  0
 14 12  1  0  0  0  0
 15 14  2  0  0  0  0
 15 16  1  0  0  0  0
 16  9  2  0  0  0  0
 17 19  1  0  0  0  0
 17 20  1  0  0  0  0
 17 18  1  0  0  0  0
M  END
>  <minimizedAffinity>
-4.91199636

$$$$

 OpenBabel03272500363D

 20 21  0  0  0  0  0  0  0  0999 V2000
   39.9460   23.1070   37.0560 C   0  0  0  0  0  0  0  0  0  0  0  0
   39.2470   23.0370   38.2630 C   0  0  0  0  0  0  0  0  0  0  0  0
   38.0790   23.8010   38.3940 C   0  0  0  0  0  0  0  0  0  0  0  0
   37.6940   24.5740   37.3200 N   0  0  0  0  0  0  0  0  0  0  0  0
   38.4000   24.6060   36.1840 C   0  0  0  0  0  0  0  0  0  0  0  0
   39.5200   23.8800   36.0460 N   0  0  0  0  0  0  0  0  0  0  0  0
   39.5900   22.4100   39.0850 H   0  0  0  0  0  0  0  0  0  0  0  0
   37.4940   23.7930   39.2970 H   0  0  0  0  0  0  0  0  0  0  0  0
   37.9280   25.4520   35.0910 C   0  0  0  0  0  0  0  0  0  0  0  0
   37.5980   26.7760   35.2950 C   0  0  0  0  0  0  0  0  0  0  0  0
   37.6740   27.2310   36.2500 H   0  0  0  0  0  0  0  0  0  0  0  0
   37.1560   27.5100   34.1950 C   0  0  0  0  0  0  0  0  0  0  0  0
   36.8810   28.5420   34.2720 H   0  0  0  0  0  0  0  0  0  0  0  0
   37.0620   26.9030   32.9510 C   0  0  0  0  0  3  0  0  0  0  0  0
   37.3980   25.5800   32.7780 C   0  0  0  0  0  3  0  0  0  0  0  0
   37.8200   24.9020   33.8530 N   0  0  0  0  0  0  0  0  0  0  0  0
   41.1920   22.2930   36.9110 C   0  0  0  0  0  0  0  0  0  0  0  0
   42.2930   23.1320   36.8310 F   0  0  0  0  0  0  0  0  0  0  0  0
   41.2420   21.4100   37.9430 F   0  0  0  0  0  0  0  0  0  0  0  0
   41.1120   21.6440   35.6730 F   0  0  0  0  0  0  0  0  0  0  0  0
  1  2  1  0  0  0  0
  2  3  2  0  0  0  0
  2  7  1  0  0  0  0
  3  8  1  0  0  0  0
  4  3  1  0  0  0  0
  5  4  2  0  0  0  0
  6  5  1  0  0  0  0
  6  1  2  0  0  0  0
  9 10  1  0  0  0  0
  9  5  1  0  0  0  0
 10 11  1  0  0  0  0
 12 13  1  0  0  0  0
 12 10  2  0  0  0  0
 14 12  1  0  0  0  0
 15 14  2  0  0  0  0
 15 16  1  0  0  0  0
 16  9  2  0  0  0  0
 17  1  1  0  0  0  0
 17 19  1  0  0  0  0
 18 17  1  0  0  0  0
 20 17  1  0  0  0  0
M  END
>  <minimizedAffinity>
-4.77421713

$$$$

 OpenBabel03272500363D

 20 21  0  0  0  0  0  0  0  0999 V2000
   38.8490   23.2360   36.8640 C   0  0  0  0  0  0  0  0  0  0  0  0
   40.0650   22.5630   36.7210 C   0  0  0  0  0  0  0  0  0  0  0  0
   40.4620   22.1890   35.4290 C   0  0  0  0  0  0  0  0  0  0  0  0
   39.6260   22.5090   34.3820 N   0  0  0  0  0  0  0  0  0  0  0  0
   38.4700   23.1560   34.5740 C   0  0  0  0  0  0  0  0  0  0  0  0
   38.0780   23.5200   35.8050 N   0  0  0  0  0  0  0  0  0  0  0  0
   40.6930   22.3310   37.5790 H   0  0  0  0  0  0  0  0  0  0  0  0
   41.3860   21.6680   35.2490 H   0  0  0  0  0  0  0  0  0  0  0  0
   37.6380   23.4590   33.4120 C   0  0  0  0  0  0  0  0  0  0  0  0
   37.4930   24.7500   32.9470 C   0  0  0  0  0  0  0  0  0  0  0  0
   37.9760   25.5700   33.4130 H   0  0  0  0  0  0  0  0  0  0  0  0
   36.6790   24.9470   31.8320 C   0  0  0  0  0  0  0  0  0  0  0  0
   36.5160   25.9180   31.4110 H   0  0  0  0  0  0  0  0  0  0  0  0
   36.0520   23.8650   31.2320 C   0  0  0  0  0  3  0  0  0  0  0  0
   36.2160   22.5890   31.7190 C   0  0  0  0  0  3  0  0  0  0  0  0
   37.0040   22.4310   32.7910 N   0  0  0  0  0  0  0  0  0  0  0  0
   38.4210   23.6380   38.2400 C   0  0  0  0  0  0  0  0  0  0  0  0
   37.3110   22.8990   38.6200 F   0  0  0  0  0  0  0  0  0  0  0  0
   39.4870   23.5030   39.0710 F   0  0  0  0  0  0  0  0  0  0  0  0
   37.9890   24.9670   38.1580 F   0  0  0  0  0  0  0  0  0  0  0  0
  1 17  1  0  0  0  0
  2  1  1  0  0  0  0
  2  7  1  0  0  0  0
  3  2  2  0  0  0  0
  4  5  2  0  0  0  0
  4  3  1  0  0  0  0
  5  6  1  0  0  0  0
  6  1  2  0  0  0  0
  8  3  1  0  0  0  0
  9  5  1  0  0  0  0
 10  9  1  0  0  0  0
 10 11  1  0  0  0  0
 12 10  2  0  0  0  0
 13 12  1  0  0  0  0
 14 15  2  0  0  0  0
 14 12  1  0  0  0  0
 15 16  1  0  0  0  0
 16  9  2  0  0  0  0
 17 18  1  0  0  0  0
 17 19  1  0  0  0  0
 20 17  1  0  0  0  0
M  END
>  <minimizedAffinity>
-4.6494379

$$$$

 OpenBabel03272500363D

 20 21  0  0  0  0  0  0  0  0999 V2000
   38.3370   23.6350   36.8990 C   0  0  0  0  0  0  0  0  0  0  0  0
   37.7460   22.5550   36.2370 C   0  0  0  0  0  0  0  0  0  0  0  0
   37.8670   22.4910   34.8420 C   0  0  0  0  0  0  0  0  0  0  0  0
   38.5630   23.4990   34.2110 N   0  0  0  0  0  0  0  0  0  0  0  0
   39.1100   24.5130   34.8930 C   0  0  0  0  0  0  0  0  0  0  0  0
   39.0010   24.5860   36.2280 N   0  0  0  0  0  0  0  0  0  0  0  0
   37.2050   21.7810   36.7800 H   0  0  0  0  0  0  0  0  0  0  0  0
   37.4360   21.6870   34.2720 H   0  0  0  0  0  0  0  0  0  0  0  0
   39.8320   25.5440   34.1510 C   0  0  0  0  0  0  0  0  0  0  0  0
   39.3330   26.0690   32.9770 C   0  0  0  0  0  0  0  0  0  0  0  0
   38.4110   25.7450   32.5660 H   0  0  0  0  0  0  0  0  0  0  0  0
   40.0880   27.0500   32.3350 C   0  0  0  0  0  0  0  0  0  0  0  0
   39.7700   27.5060   31.4200 H   0  0  0  0  0  0  0  0  0  0  0  0
   41.2930   27.4650   32.8830 C   0  0  0  0  0  3  0  0  0  0  0  0
   41.7640   26.9230   34.0560 C   0  0  0  0  0  3  0  0  0  0  0  0
   41.0170   25.9830   34.6490 N   0  0  0  0  0  0  0  0  0  0  0  0
   38.2110   23.7080   38.3880 C   0  0  0  0  0  0  0  0  0  0  0  0
   37.9460   25.0130   38.7720 F   0  0  0  0  0  0  0  0  0  0  0  0
   37.2640   22.8130   38.7760 F   0  0  0  0  0  0  0  0  0  0  0  0
   39.4690   23.3980   38.9170 F   0  0  0  0  0  0  0  0  0  0  0  0
  1 17  1  0  0  0  0
  2  7  1  0  0  0  0
  2  1  1  0  0  0  0
  3  2  2  0  0  0  0
  4  3  1  0  0  0  0
  4  5  2  0  0  0  0
  5  6  1  0  0  0  0
  6  1  2  0  0  0  0
  8  3  1  0  0  0  0
  9 16  1  0  0  0  0
  9  5  1  0  0  0  0
 10  9  2  0  0  0  0
 11 10  1  0  0  0  0
 12 14  2  0  0  0  0
 12 10  1  0  0  0  0
 13 12  1  0  0  0  0
 14 15  1  0  0  0  0
 15 16  2  0  0  0  0
 17 18  1  0  0  0  0
 17 19  1  0  0  0  0
 17 20  1  0  0  0  0
M  END
>  <minimizedAffinity>
-4.5931673

$$$$

 OpenBabel03272500363D

 20 21  0  0  0  0  0  0  0  0999 V2000
   39.1760   23.0290   37.3500 C   0  0  0  0  0  0  0  0  0  0  0  0
   40.4740   22.6050   37.6480 C   0  0  0  0  0  0  0  0  0  0  0  0
   41.2120   21.9820   36.6330 C   0  0  0  0  0  0  0  0  0  0  0  0
   40.6100   21.8250   35.4030 N   0  0  0  0  0  0  0  0  0  0  0  0
   39.3620   22.2490   35.1690 C   0  0  0  0  0  0  0  0  0  0  0  0
   38.6440   22.8470   36.1320 N   0  0  0  0  0  0  0  0  0  0  0  0
   40.9080   22.7510   38.6360 H   0  0  0  0  0  0  0  0  0  0  0  0
   42.2170   21.6320   36.7960 H   0  0  0  0  0  0  0  0  0  0  0  0
   38.7930   22.0460   33.8400 C   0  0  0  0  0  0  0  0  0  0  0  0
   37.6430   22.6950   33.4410 C   0  0  0  0  0  0  0  0  0  0  0  0
   37.1270   23.3640   34.0820 H   0  0  0  0  0  0  0  0  0  0  0  0
   37.1700   22.4420   32.1540 C   0  0  0  0  0  0  0  0  0  0  0  0
   36.2840   22.9060   31.7710 H   0  0  0  0  0  0  0  0  0  0  0  0
   37.8550   21.5640   31.3260 C   0  0  0  0  0  3  0  0  0  0  0  0
   39.0000   20.9320   31.7510 C   0  0  0  0  0  3  0  0  0  0  0  0
   39.4290   21.1950   32.9920 N   0  0  0  0  0  0  0  0  0  0  0  0
   38.3830   23.6960   38.4290 C   0  0  0  0  0  0  0  0  0  0  0  0
   38.0270   24.9740   38.0260 F   0  0  0  0  0  0  0  0  0  0  0  0
   37.3270   22.8960   38.7320 F   0  0  0  0  0  0  0  0  0  0  0  0
   39.2420   23.8610   39.5210 F   0  0  0  0  0  0  0  0  0  0  0  0
  1  2  1  0  0  0  0
  1 17  1  0  0  0  0
  2  7  1  0  0  0  0
  3  8  1  0  0  0  0
  3  2  2  0  0  0  0
  4  3  1  0  0  0  0
  5  4  2  0  0  0  0
  5  6  1  0  0  0  0
  6  1  2  0  0  0  0
  9  5  1  0  0  0  0
 10  9  1  0  0  0  0
 10 11  1  0  0  0  0
 12 10  2  0  0  0  0
 13 12  1  0  0  0  0
 14 15  2  0  0  0  0
 14 12  1  0  0  0  0
 15 16  1  0  0  0  0
 16  9  2  0  0  0  0
 17 19  1  0  0  0  0
 17 20  1  0  0  0  0
 18 17  1  0  0  0  0
M  END
>  <minimizedAffinity>
-4.52315998

$$$$

 OpenBabel03272500363D

 20 21  0  0  0  0  0  0  0  0999 V2000
   37.4670   26.9040   34.0160 C   0  0  0  0  0  0  0  0  0  0  0  0
   36.8510   27.9170   33.2780 C   0  0  0  0  0  0  0  0  0  0  0  0
   36.1980   27.5620   32.0900 C   0  0  0  0  0  0  0  0  0  0  0  0
   36.2060   26.2330   31.7250 N   0  0  0  0  0  0  0  0  0  0  0  0
   36.8130   25.3000   32.4680 C   0  0  0  0  0  0  0  0  0  0  0  0
   37.4410   25.6270   33.6080 N   0  0  0  0  0  0  0  0  0  0  0  0
   36.8700   28.9550   33.6080 H   0  0  0  0  0  0  0  0  0  0  0  0
   35.7030   28.2930   31.4750 H   0  0  0  0  0  0  0  0  0  0  0  0
   36.7780   23.9130   32.0130 C   0  0  0  0  0  0  0  0  0  0  0  0
   35.6120   23.3310   31.5610 C   0  0  0  0  0  0  0  0  0  0  0  0
   34.6960   23.8660   31.5280 H   0  0  0  0  0  0  0  0  0  0  0  0
   35.6710   22.0020   31.1450 C   0  0  0  0  0  0  0  0  0  0  0  0
   34.8090   21.4800   30.7820 H   0  0  0  0  0  0  0  0  0  0  0  0
   36.8750   21.3140   31.1940 C   0  0  0  0  0  3  0  0  0  0  0  0
   38.0220   21.9210   31.6500 C   0  0  0  0  0  3  0  0  0  0  0  0
   37.9340   23.1990   32.0420 N   0  0  0  0  0  0  0  0  0  0  0  0
   38.1650   27.2760   35.2860 C   0  0  0  0  0  0  0  0  0  0  0  0
   39.5320   27.3450   35.0660 F   0  0  0  0  0  0  0  0  0  0  0  0
   37.6190   28.4340   35.7440 F   0  0  0  0  0  0  0  0  0  0  0  0
   37.9720   26.2190   36.1810 F   0  0  0  0  0  0  0  0  0  0  0  0
  1 17  1  0  0  0  0
  2  7  1  0  0  0  0
  2  1  2  0  0  0  0
  3  2  1  0  0  0  0
  4  3  2  0  0  0  0
  4  5  1  0  0  0  0
  5  6  2  0  0  0  0
  6  1  1  0  0  0  0
  8  3  1  0  0  0  0
  9 16  1  0  0  0  0
  9  5  1  0  0  0  0
 10  9  2  0  0  0  0
 11 10  1  0  0  0  0
 12 14  2  0  0  0  0
 12 10  1  0  0  0  0
 13 12  1  0  0  0  0
 14 15  1  0  0  0  0
 15 16  2  0  0  0  0
 17 19  1  0  0  0  0
 17 20  1  0  0  0  0
 18 17  1  0  0  0  0
M  END
>  <minimizedAffinity>
-4.51810884

$$$$
