
 OpenBabel03272505333D

 39 42  0  0  0  0  0  0  0  0999 V2000
   37.9870   24.2210   34.4090 N   0  0  0  0  0  0  0  0  0  0  0  0
   37.7430   25.5370   34.1720 C   0  0  0  0  0  0  0  0  0  0  0  0
   37.0960   25.9720   33.0300 C   0  0  0  0  0  0  0  0  0  0  0  0
   36.6920   24.9940   32.1050 C   0  0  0  0  0  0  0  0  0  0  0  0
   36.1010   25.3400   31.0510 O   0  0  0  0  0  0  0  0  0  0  0  0
   36.9410   23.6680   32.3490 N   0  0  0  0  0  0  0  0  0  0  0  0
   37.5680   23.3800   33.4780 C   0  0  0  0  0  0  0  0  0  0  0  0
   37.7760   22.1600   33.6640 O   0  0  0  0  0  0  0  0  0  0  0  0
   38.0540   26.3040   34.8870 H   0  0  0  0  0  0  0  0  0  0  0  0
   38.6590   23.3390   37.9530 C   0  0  0  0  0  0  0  0  0  0  0  0
   37.9910   23.7690   36.7930 C   0  0  0  0  0  0  0  0  0  0  0  0
   38.6400   23.7970   35.5640 C   0  0  0  0  0  0  0  0  0  0  0  0
   39.9310   23.3980   35.5290 N   0  0  0  0  0  0  0  0  0  0  0  0
   40.5970   22.9790   36.6440 C   0  0  0  0  0  0  0  0  0  0  0  0
   39.9520   22.9540   37.8470 N   0  0  0  0  0  0  0  0  0  0  0  0
   38.0870   23.3470   38.8560 H   0  0  0  0  0  0  0  0  0  0  0  0
   36.9530   24.0950   36.7870 H   0  0  0  0  0  0  0  0  0  0  0  0
   41.6350   22.6640   36.5890 H   0  0  0  0  0  0  0  0  0  0  0  0
   36.8110   27.3620   32.7290 C   0  0  0  0  0  0  0  0  0  0  0  0
   37.1540   27.9800   31.5600 C   0  0  0  0  0  0  0  0  0  0  0  0
   36.8990   29.2880   31.2480 C   0  0  0  0  0  0  0  0  0  0  0  0
   36.2380   30.0630   32.1880 C   0  0  0  0  0  0  0  0  0  0  0  0
   35.8920   29.4280   33.3750 C   0  0  0  0  0  0  0  0  0  0  0  0
   36.1820   28.1370   33.5980 N   0  0  0  0  0  0  0  0  0  0  0  0
   37.6760   27.4170   30.7840 H   0  0  0  0  0  0  0  0  0  0  0  0
   37.1900   29.7400   30.3030 H   0  0  0  0  0  0  0  0  0  0  0  0
   36.0100   31.0810   32.0110 H   0  0  0  0  0  0  0  0  0  0  0  0
   35.1950   30.1210   34.4520 C   0  0  0  0  0  0  0  0  0  0  0  0
   35.8190   30.9800   35.3310 C   0  0  0  0  0  0  0  0  0  0  0  0
   36.8700   31.1710   35.2450 H   0  0  0  0  0  0  0  0  0  0  0  0
   35.2040   31.6580   36.3630 C   0  0  0  0  0  0  0  0  0  0  0  0
   35.7250   32.3130   37.0210 H   0  0  0  0  0  0  0  0  0  0  0  0
   33.8500   31.4700   36.5470 C   0  0  0  0  0  3  0  0  0  0  0  0
   33.2180   30.6110   35.6720 C   0  0  0  0  0  3  0  0  0  0  0  0
   33.8740   29.9800   34.6840 N   0  0  0  0  0  0  0  0  0  0  0  0
   36.5210   22.6770   31.3930 C   0  0  0  0  0  0  0  0  0  0  0  0
   35.3710   23.0480   30.7730 F   0  0  0  0  0  0  0  0  0  0  0  0
   36.2700   21.4350   31.9630 F   0  0  0  0  0  0  0  0  0  0  0  0
   37.5180   22.5450   30.4190 F   0  0  0  0  0  0  0  0  0  0  0  0
  1 12  1  0  0  0  0
  2  1  1  0  0  0  0
  2  9  1  0  0  0  0
  3  2  2  0  0  0  0
  4  6  1  0  0  0  0
  4  3  1  0  0  0  0
  5  4  2  0  0  0  0
  6  7  1  0  0  0  0
  7  8  2  0  0  0  0
  7  1  1  0  0  0  0
 10 16  1  0  0  0  0
 11 10  2  0  0  0  0
 12 11  1  0  0  0  0
 13 12  2  0  0  0  0
 13 14  1  0  0  0  0
 14 15  2  0  0  0  0
 15 10  1  0  0  0  0
 17 11  1  0  0  0  0
 18 14  1  0  0  0  0
 19  3  1  0  0  0  0
 19 24  1  0  0  0  0
 20 19  2  0  0  0  0
 21 20  1  0  0  0  0
 21 22  2  0  0  0  0
 22 23  1  0  0  0  0
 23 24  2  0  0  0  0
 23 28  1  0  0  0  0
 25 20  1  0  0  0  0
 26 21  1  0  0  0  0
 27 22  1  0  0  0  0
 28 35  2  0  0  0  0
 28 29  1  0  0  0  0
 29 31  2  0  0  0  0
 30 29  1  0  0  0  0
 31 33  1  0  0  0  0
 31 32  1  0  0  0  0
 34 33  2  0  0  0  0
 35 34  1  0  0  0  0
 36 38  1  0  0  0  0
 36  6  1  0  0  0  0
 37 36  1  0  0  0  0
 39 36  1  0  0  0  0
M  END
>  <minimizedAffinity>
-6.99671364

$$$$

 OpenBabel03272505333D

 39 42  0  0  0  0  0  0  0  0999 V2000
   35.9260   29.1590   33.3860 N   0  0  0  0  0  0  0  0  0  0  0  0
   36.3170   27.8900   33.6840 C   0  0  0  0  0  0  0  0  0  0  0  0
   37.0040   27.1010   32.7800 C   0  0  0  0  0  0  0  0  0  0  0  0
   37.2900   27.6590   31.5230 C   0  0  0  0  0  0  0  0  0  0  0  0
   37.9120   26.9800   30.6660 O   0  0  0  0  0  0  0  0  0  0  0  0
   36.8940   28.9380   31.2290 N   0  0  0  0  0  0  0  0  0  0  0  0
   36.2440   29.5910   32.1780 C   0  0  0  0  0  0  0  0  0  0  0  0
   35.9000   30.7540   31.8710 O   0  0  0  0  0  0  0  0  0  0  0  0
   36.0980   27.4490   34.6610 H   0  0  0  0  0  0  0  0  0  0  0  0
   35.1980   31.5670   36.1180 C   0  0  0  0  0  0  0  0  0  0  0  0
   35.9050   30.7790   35.1920 C   0  0  0  0  0  0  0  0  0  0  0  0
   35.2350   29.9430   34.3070 C   0  0  0  0  0  0  0  0  0  0  0  0
   33.8860   29.9170   34.3700 N   0  0  0  0  0  0  0  0  0  0  0  0
   33.1810   30.6730   35.2620 C   0  0  0  0  0  0  0  0  0  0  0  0
   33.8470   31.4920   36.1280 N   0  0  0  0  0  0  0  0  0  0  0  0
   35.7900   32.1810   36.7620 H   0  0  0  0  0  0  0  0  0  0  0  0
   36.9910   30.7770   35.1150 H   0  0  0  0  0  0  0  0  0  0  0  0
   32.0970   30.6340   35.2930 H   0  0  0  0  0  0  0  0  0  0  0  0
   37.4430   25.7440   33.0460 C   0  0  0  0  0  0  0  0  0  0  0  0
   37.5720   24.7780   32.0890 C   0  0  0  0  0  0  0  0  0  0  0  0
   37.9830   23.4910   32.3100 C   0  0  0  0  0  0  0  0  0  0  0  0
   38.2990   23.1230   33.6080 C   0  0  0  0  0  0  0  0  0  0  0  0
   38.1650   24.1120   34.5770 C   0  0  0  0  0  0  0  0  0  0  0  0
   37.7540   25.3520   34.2710 N   0  0  0  0  0  0  0  0  0  0  0  0
   37.3380   25.0130   31.0490 H   0  0  0  0  0  0  0  0  0  0  0  0
   38.0730   22.7530   31.5170 H   0  0  0  0  0  0  0  0  0  0  0  0
   38.6230   22.1450   33.8480 H   0  0  0  0  0  0  0  0  0  0  0  0
   38.4610   23.8660   35.9840 C   0  0  0  0  0  0  0  0  0  0  0  0
   37.7270   24.4040   37.0190 C   0  0  0  0  0  0  0  0  0  0  0  0
   36.8880   25.0390   36.8130 H   0  0  0  0  0  0  0  0  0  0  0  0
   37.9660   24.2020   38.3620 C   0  0  0  0  0  0  0  0  0  0  0  0
   37.3740   24.6380   39.1320 H   0  0  0  0  0  0  0  0  0  0  0  0
   39.0290   23.3970   38.7180 C   0  0  0  0  0  3  0  0  0  0  0  0
   39.7690   22.8550   37.6870 C   0  0  0  0  0  3  0  0  0  0  0  0
   39.4840   23.0910   36.3950 N   0  0  0  0  0  0  0  0  0  0  0  0
   37.1940   29.4970   29.9360 C   0  0  0  0  0  0  0  0  0  0  0  0
   36.4390   30.5990   29.6900 F   0  0  0  0  0  0  0  0  0  0  0  0
   36.9510   28.6190   28.8870 F   0  0  0  0  0  0  0  0  0  0  0  0
   38.5410   29.8790   29.9150 F   0  0  0  0  0  0  0  0  0  0  0  0
  1  2  1  0  0  0  0
  1 12  1  0  0  0  0
  2  9  1  0  0  0  0
  3 19  1  0  0  0  0
  3  2  2  0  0  0  0
  4  3  1  0  0  0  0
  5  4  2  0  0  0  0
  6  4  1  0  0  0  0
  6  7  1  0  0  0  0
  7  1  1  0  0  0  0
  8  7  2  0  0  0  0
 10 15  1  0  0  0  0
 10 16  1  0  0  0  0
 11 10  2  0  0  0  0
 12 13  2  0  0  0  0
 12 11  1  0  0  0  0
 13 14  1  0  0  0  0
 14 18  1  0  0  0  0
 14 15  2  0  0  0  0
 17 11  1  0  0  0  0
 19 24  1  0  0  0  0
 20 21  1  0  0  0  0
 20 19  2  0  0  0  0
 21 22  2  0  0  0  0
 22 27  1  0  0  0  0
 22 23  1  0  0  0  0
 23 28  1  0  0  0  0
 24 23  2  0  0  0  0
 25 20  1  0  0  0  0
 26 21  1  0  0  0  0
 28 35  2  0  0  0  0
 28 29  1  0  0  0  0
 29 31  2  0  0  0  0
 30 29  1  0  0  0  0
 31 33  1  0  0  0  0
 31 32  1  0  0  0  0
 34 33  2  0  0  0  0
 35 34  1  0  0  0  0
 36  6  1  0  0  0  0
 37 36  1  0  0  0  0
 38 36  1  0  0  0  0
 39 36  1  0  0  0  0
M  END
>  <minimizedAffinity>
-6.73274708

$$$$

 OpenBabel03272505333D

 39 42  0  0  0  0  0  0  0  0999 V2000
   37.2790   23.3200   32.8390 N   0  0  0  0  0  0  0  0  0  0  0  0
   36.9550   24.5750   32.4270 C   0  0  0  0  0  0  0  0  0  0  0  0
   37.3090   25.7010   33.1470 C   0  0  0  0  0  0  0  0  0  0  0  0
   38.0270   25.5050   34.3390 C   0  0  0  0  0  0  0  0  0  0  0  0
   38.3720   26.4990   35.0290 O   0  0  0  0  0  0  0  0  0  0  0  0
   38.3530   24.2380   34.7490 N   0  0  0  0  0  0  0  0  0  0  0  0
   37.9560   23.2430   33.9730 C   0  0  0  0  0  0  0  0  0  0  0  0
   38.2720   22.1030   34.3810 O   0  0  0  0  0  0  0  0  0  0  0  0
   36.3950   24.7350   31.5010 H   0  0  0  0  0  0  0  0  0  0  0  0
   35.3220   20.4480   31.5330 C   0  0  0  0  0  0  0  0  0  0  0  0
   35.6800   21.5830   32.2810 C   0  0  0  0  0  0  0  0  0  0  0  0
   36.9160   22.1950   32.1040 C   0  0  0  0  0  0  0  0  0  0  0  0
   37.7550   21.6560   31.1920 N   0  0  0  0  0  0  0  0  0  0  0  0
   37.4280   20.5540   30.4580 C   0  0  0  0  0  0  0  0  0  0  0  0
   36.2110   19.9600   30.6370 N   0  0  0  0  0  0  0  0  0  0  0  0
   34.3540   20.0400   31.7300 H   0  0  0  0  0  0  0  0  0  0  0  0
   35.0280   22.0410   33.0220 H   0  0  0  0  0  0  0  0  0  0  0  0
   38.1200   20.1400   29.7310 H   0  0  0  0  0  0  0  0  0  0  0  0
   36.9880   27.0600   32.7530 C   0  0  0  0  0  0  0  0  0  0  0  0
   37.3700   27.6260   31.5700 C   0  0  0  0  0  0  0  0  0  0  0  0
   37.0820   28.9030   31.1720 C   0  0  0  0  0  0  0  0  0  0  0  0
   36.3410   29.7000   32.0290 C   0  0  0  0  0  0  0  0  0  0  0  0
   35.9550   29.1170   33.2310 C   0  0  0  0  0  0  0  0  0  0  0  0
   36.2820   27.8530   33.5420 N   0  0  0  0  0  0  0  0  0  0  0  0
   37.9550   27.0430   30.8570 H   0  0  0  0  0  0  0  0  0  0  0  0
   37.4070   29.3140   30.2190 H   0  0  0  0  0  0  0  0  0  0  0  0
   36.0830   30.6970   31.7830 H   0  0  0  0  0  0  0  0  0  0  0  0
   35.1730   29.8380   34.2290 C   0  0  0  0  0  0  0  0  0  0  0  0
   35.7060   30.7980   35.0630 C   0  0  0  0  0  0  0  0  0  0  0  0
   36.7460   31.0500   35.0000 H   0  0  0  0  0  0  0  0  0  0  0  0
   35.0100   31.5060   36.0190 C   0  0  0  0  0  0  0  0  0  0  0  0
   35.4610   32.2390   36.6450 H   0  0  0  0  0  0  0  0  0  0  0  0
   33.6640   31.2440   36.1690 C   0  0  0  0  0  3  0  0  0  0  0  0
   33.1230   30.2850   35.3380 C   0  0  0  0  0  3  0  0  0  0  0  0
   33.8560   29.6280   34.4230 N   0  0  0  0  0  0  0  0  0  0  0  0
   39.0890   24.0520   35.9720 C   0  0  0  0  0  0  0  0  0  0  0  0
   39.0200   22.7640   36.3970 F   0  0  0  0  0  0  0  0  0  0  0  0
   38.6180   24.8320   37.0220 F   0  0  0  0  0  0  0  0  0  0  0  0
   40.4350   24.3610   35.7360 F   0  0  0  0  0  0  0  0  0  0  0  0
  1  7  1  0  0  0  0
  2  1  1  0  0  0  0
  2  3  2  0  0  0  0
  3  4  1  0  0  0  0
  4  6  1  0  0  0  0
  4  5  2  0  0  0  0
  6 36  1  0  0  0  0
  7  8  2  0  0  0  0
  7  6  1  0  0  0  0
  9  2  1  0  0  0  0
 10 16  1  0  0  0  0
 10 11  1  0  0  0  0
 11 17  1  0  0  0  0
 12 11  2  0  0  0  0
 12  1  1  0  0  0  0
 13 12  1  0  0  0  0
 14 15  1  0  0  0  0
 14 13  2  0  0  0  0
 15 10  2  0  0  0  0
 18 14  1  0  0  0  0
 19  3  1  0  0  0  0
 19 24  1  0  0  0  0
 20 19  2  0  0  0  0
 21 20  1  0  0  0  0
 21 22  2  0  0  0  0
 22 23  1  0  0  0  0
 23 24  2  0  0  0  0
 23 28  1  0  0  0  0
 25 20  1  0  0  0  0
 26 21  1  0  0  0  0
 27 22  1  0  0  0  0
 28 35  2  0  0  0  0
 28 29  1  0  0  0  0
 29 31  2  0  0  0  0
 30 29  1  0  0  0  0
 31 33  1  0  0  0  0
 31 32  1  0  0  0  0
 34 33  2  0  0  0  0
 35 34  1  0  0  0  0
 36 37  1  0  0  0  0
 36 38  1  0  0  0  0
 39 36  1  0  0  0  0
M  END
>  <minimizedAffinity>
-6.6120286

$$$$

 OpenBabel03272505333D

 39 42  0  0  0  0  0  0  0  0999 V2000
   38.2200   23.6580   34.2490 N   0  0  0  0  0  0  0  0  0  0  0  0
   38.0920   24.9530   33.8540 C   0  0  0  0  0  0  0  0  0  0  0  0
   37.3620   25.3120   32.7350 C   0  0  0  0  0  0  0  0  0  0  0  0
   36.7480   24.2790   32.0070 C   0  0  0  0  0  0  0  0  0  0  0  0
   36.0740   24.5560   30.9820 O   0  0  0  0  0  0  0  0  0  0  0  0
   36.8800   22.9760   32.4110 N   0  0  0  0  0  0  0  0  0  0  0  0
   37.6040   22.7620   33.4970 C   0  0  0  0  0  0  0  0  0  0  0  0
   37.7010   21.5600   33.8330 O   0  0  0  0  0  0  0  0  0  0  0  0
   38.5680   25.7620   34.4150 H   0  0  0  0  0  0  0  0  0  0  0  0
   41.0080   22.5190   36.4210 C   0  0  0  0  0  0  0  0  0  0  0  0
   40.2710   22.8670   35.2760 C   0  0  0  0  0  0  0  0  0  0  0  0
   38.9580   23.3110   35.3780 C   0  0  0  0  0  0  0  0  0  0  0  0
   38.4210   23.3920   36.6150 N   0  0  0  0  0  0  0  0  0  0  0  0
   39.1180   23.0580   37.7390 C   0  0  0  0  0  0  0  0  0  0  0  0
   40.4080   22.6240   37.6300 N   0  0  0  0  0  0  0  0  0  0  0  0
   42.0100   22.1880   36.2540 H   0  0  0  0  0  0  0  0  0  0  0  0
   40.6750   22.8120   34.2670 H   0  0  0  0  0  0  0  0  0  0  0  0
   38.6630   23.1320   38.7220 H   0  0  0  0  0  0  0  0  0  0  0  0
   37.1940   26.6760   32.2700 C   0  0  0  0  0  0  0  0  0  0  0  0
   37.8580   27.2090   31.2020 C   0  0  0  0  0  0  0  0  0  0  0  0
   37.7210   28.4910   30.7410 C   0  0  0  0  0  0  0  0  0  0  0  0
   36.8370   29.3280   31.4030 C   0  0  0  0  0  0  0  0  0  0  0  0
   36.1650   28.7780   32.4880 C   0  0  0  0  0  0  0  0  0  0  0  0
   36.3610   27.5080   32.8730 N   0  0  0  0  0  0  0  0  0  0  0  0
   38.5660   26.5940   30.6440 H   0  0  0  0  0  0  0  0  0  0  0  0
   38.2700   28.8750   29.8850 H   0  0  0  0  0  0  0  0  0  0  0  0
   36.6830   30.3300   31.0980 H   0  0  0  0  0  0  0  0  0  0  0  0
   35.2070   29.5440   33.2770 C   0  0  0  0  0  0  0  0  0  0  0  0
   35.5350   30.1960   34.4470 C   0  0  0  0  0  0  0  0  0  0  0  0
   36.5390   30.1580   34.8220 H   0  0  0  0  0  0  0  0  0  0  0  0
   34.6670   30.9300   35.2270 C   0  0  0  0  0  0  0  0  0  0  0  0
   34.9620   31.4190   36.1260 H   0  0  0  0  0  0  0  0  0  0  0  0
   33.3540   31.0310   34.8170 C   0  0  0  0  0  3  0  0  0  0  0  0
   33.0170   30.3820   33.6480 C   0  0  0  0  0  3  0  0  0  0  0  0
   33.9110   29.6800   32.9310 N   0  0  0  0  0  0  0  0  0  0  0  0
   36.2440   21.9280   31.6550 C   0  0  0  0  0  0  0  0  0  0  0  0
   35.2980   22.4300   30.8190 F   0  0  0  0  0  0  0  0  0  0  0  0
   35.5990   20.9900   32.4510 F   0  0  0  0  0  0  0  0  0  0  0  0
   37.2150   21.2840   30.8780 F   0  0  0  0  0  0  0  0  0  0  0  0
  1 12  1  0  0  0  0
  2  1  1  0  0  0  0
  2  9  1  0  0  0  0
  3  2  2  0  0  0  0
  4  6  1  0  0  0  0
  4  3  1  0  0  0  0
  5  4  2  0  0  0  0
  6  7  1  0  0  0  0
  7  8  2  0  0  0  0
  7  1  1  0  0  0  0
 10 15  1  0  0  0  0
 11 12  1  0  0  0  0
 11 10  2  0  0  0  0
 12 13  2  0  0  0  0
 13 14  1  0  0  0  0
 14 18  1  0  0  0  0
 15 14  2  0  0  0  0
 16 10  1  0  0  0  0
 17 11  1  0  0  0  0
 19  3  1  0  0  0  0
 19 24  1  0  0  0  0
 20 19  2  0  0  0  0
 21 20  1  0  0  0  0
 21 22  2  0  0  0  0
 22 23  1  0  0  0  0
 23 24  2  0  0  0  0
 23 28  1  0  0  0  0
 25 20  1  0  0  0  0
 26 21  1  0  0  0  0
 27 22  1  0  0  0  0
 28 29  1  0  0  0  0
 29 30  1  0  0  0  0
 29 31  2  0  0  0  0
 31 32  1  0  0  0  0
 33 31  1  0  0  0  0
 34 33  2  0  0  0  0
 35 28  2  0  0  0  0
 35 34  1  0  0  0  0
 36  6  1  0  0  0  0
 36 38  1  0  0  0  0
 37 36  1  0  0  0  0
 39 36  1  0  0  0  0
M  END
>  <minimizedAffinity>
-6.546453

$$$$

 OpenBabel03272505333D

 39 42  0  0  0  0  0  0  0  0999 V2000
   37.3260   25.1570   32.4450 N   0  0  0  0  0  0  0  0  0  0  0  0
   37.9890   24.8900   33.6030 C   0  0  0  0  0  0  0  0  0  0  0  0
   37.9970   23.6310   34.1730 C   0  0  0  0  0  0  0  0  0  0  0  0
   37.2870   22.6170   33.5080 C   0  0  0  0  0  0  0  0  0  0  0  0
   37.2640   21.4550   33.9890 O   0  0  0  0  0  0  0  0  0  0  0  0
   36.6210   22.8910   32.3420 N   0  0  0  0  0  0  0  0  0  0  0  0
   36.6890   24.1360   31.8990 C   0  0  0  0  0  0  0  0  0  0  0  0
   36.0690   24.3450   30.8320 O   0  0  0  0  0  0  0  0  0  0  0  0
   38.5440   25.6750   34.1260 H   0  0  0  0  0  0  0  0  0  0  0  0
   38.3690   28.1560   30.5210 C   0  0  0  0  0  0  0  0  0  0  0  0
   38.3780   26.8690   31.0850 C   0  0  0  0  0  0  0  0  0  0  0  0
   37.3270   26.4300   31.8820 C   0  0  0  0  0  0  0  0  0  0  0  0
   36.3020   27.2860   32.0920 N   0  0  0  0  0  0  0  0  0  0  0  0
   36.2750   28.5400   31.5540 C   0  0  0  0  0  0  0  0  0  0  0  0
   37.3110   28.9620   30.7720 N   0  0  0  0  0  0  0  0  0  0  0  0
   39.2150   28.4140   29.9210 H   0  0  0  0  0  0  0  0  0  0  0  0
   39.1870   26.1560   30.9360 H   0  0  0  0  0  0  0  0  0  0  0  0
   35.4400   29.2090   31.7380 H   0  0  0  0  0  0  0  0  0  0  0  0
   38.6870   23.2940   35.4040 C   0  0  0  0  0  0  0  0  0  0  0  0
   38.2380   23.6280   36.6510 C   0  0  0  0  0  0  0  0  0  0  0  0
   38.8660   23.3250   37.8280 C   0  0  0  0  0  0  0  0  0  0  0  0
   40.0580   22.6190   37.7670 C   0  0  0  0  0  0  0  0  0  0  0  0
   40.5080   22.2830   36.4950 C   0  0  0  0  0  0  0  0  0  0  0  0
   39.8260   22.6220   35.3900 N   0  0  0  0  0  0  0  0  0  0  0  0
   37.3050   24.1830   36.7580 H   0  0  0  0  0  0  0  0  0  0  0  0
   38.4720   23.6100   38.8010 H   0  0  0  0  0  0  0  0  0  0  0  0
   40.5940   22.3520   38.6390 H   0  0  0  0  0  0  0  0  0  0  0  0
   41.7460   21.5420   36.2800 C   0  0  0  0  0  0  0  0  0  0  0  0
   42.2950   20.6940   37.2180 C   0  0  0  0  0  0  0  0  0  0  0  0
   41.8110   20.5490   38.1640 H   0  0  0  0  0  0  0  0  0  0  0  0
   43.4600   19.9730   37.0630 C   0  0  0  0  0  0  0  0  0  0  0  0
   43.8510   19.3290   37.8150 H   0  0  0  0  0  0  0  0  0  0  0  0
   44.1490   20.1010   35.8750 C   0  0  0  0  0  3  0  0  0  0  0  0
   43.6050   20.9480   34.9310 C   0  0  0  0  0  3  0  0  0  0  0  0
   42.4640   21.6240   35.1430 N   0  0  0  0  0  0  0  0  0  0  0  0
   35.8970   21.8420   31.6720 C   0  0  0  0  0  0  0  0  0  0  0  0
   35.1550   22.3350   30.6460 F   0  0  0  0  0  0  0  0  0  0  0  0
   35.0100   21.1690   32.5030 F   0  0  0  0  0  0  0  0  0  0  0  0
   36.8180   20.9290   31.1430 F   0  0  0  0  0  0  0  0  0  0  0  0
  1  2  1  0  0  0  0
  2  9  1  0  0  0  0
  2  3  2  0  0  0  0
  3 19  1  0  0  0  0
  4  5  2  0  0  0  0
  4  3  1  0  0  0  0
  6  4  1  0  0  0  0
  7  6  1  0  0  0  0
  7  1  1  0  0  0  0
  8  7  2  0  0  0  0
 10 15  2  0  0  0  0
 10 11  1  0  0  0  0
 11 12  2  0  0  0  0
 12 13  1  0  0  0  0
 12  1  1  0  0  0  0
 14 18  1  0  0  0  0
 14 13  2  0  0  0  0
 15 14  1  0  0  0  0
 16 10  1  0  0  0  0
 17 11  1  0  0  0  0
 19 20  1  0  0  0  0
 20 25  1  0  0  0  0
 20 21  2  0  0  0  0
 21 26  1  0  0  0  0
 22 21  1  0  0  0  0
 22 27  1  0  0  0  0
 23 22  2  0  0  0  0
 24 19  2  0  0  0  0
 24 23  1  0  0  0  0
 28 23  1  0  0  0  0
 28 29  1  0  0  0  0
 29 30  1  0  0  0  0
 31 29  2  0  0  0  0
 31 32  1  0  0  0  0
 33 31  1  0  0  0  0
 34 35  1  0  0  0  0
 34 33  2  0  0  0  0
 35 28  2  0  0  0  0
 36  6  1  0  0  0  0
 36 38  1  0  0  0  0
 37 36  1  0  0  0  0
 39 36  1  0  0  0  0
M  END
>  <minimizedAffinity>
-6.36303473

$$$$

 OpenBabel03272505333D

 39 42  0  0  0  0  0  0  0  0999 V2000
   36.0040   29.2330   33.5660 N   0  0  0  0  0  0  0  0  0  0  0  0
   36.5440   28.0240   33.8770 C   0  0  0  0  0  0  0  0  0  0  0  0
   37.2720   27.2850   32.9620 C   0  0  0  0  0  0  0  0  0  0  0  0
   37.4380   27.8320   31.6790 C   0  0  0  0  0  0  0  0  0  0  0  0
   38.0910   27.1970   30.8110 O   0  0  0  0  0  0  0  0  0  0  0  0
   36.8910   29.0500   31.3700 N   0  0  0  0  0  0  0  0  0  0  0  0
   36.2170   29.6580   32.3330 C   0  0  0  0  0  0  0  0  0  0  0  0
   35.7340   30.7670   32.0120 O   0  0  0  0  0  0  0  0  0  0  0  0
   36.4190   27.5920   34.8750 H   0  0  0  0  0  0  0  0  0  0  0  0
   35.1430   31.6220   36.2750 C   0  0  0  0  0  0  0  0  0  0  0  0
   35.8890   30.8860   35.3380 C   0  0  0  0  0  0  0  0  0  0  0  0
   35.2730   29.9660   34.4980 C   0  0  0  0  0  0  0  0  0  0  0  0
   33.9370   29.8060   34.6180 N   0  0  0  0  0  0  0  0  0  0  0  0
   33.1950   30.5100   35.5220 C   0  0  0  0  0  0  0  0  0  0  0  0
   33.8080   31.4120   36.3430 N   0  0  0  0  0  0  0  0  0  0  0  0
   35.6940   32.3090   36.8810 H   0  0  0  0  0  0  0  0  0  0  0  0
   36.9660   30.9910   35.2160 H   0  0  0  0  0  0  0  0  0  0  0  0
   32.1220   30.3630   35.5990 H   0  0  0  0  0  0  0  0  0  0  0  0
   37.8680   25.9930   33.2430 C   0  0  0  0  0  0  0  0  0  0  0  0
   39.0920   25.8230   33.8260 C   0  0  0  0  0  0  0  0  0  0  0  0
   39.6800   24.6180   34.1010 C   0  0  0  0  0  0  0  0  0  0  0  0
   38.9870   23.4650   33.7690 C   0  0  0  0  0  0  0  0  0  0  0  0
   37.7420   23.6460   33.1760 C   0  0  0  0  0  0  0  0  0  0  0  0
   37.2400   24.8680   32.9410 N   0  0  0  0  0  0  0  0  0  0  0  0
   39.6820   26.6970   34.1090 H   0  0  0  0  0  0  0  0  0  0  0  0
   40.6580   24.5290   34.5680 H   0  0  0  0  0  0  0  0  0  0  0  0
   39.3830   22.5020   33.9550 H   0  0  0  0  0  0  0  0  0  0  0  0
   36.9030   22.5230   32.7730 C   0  0  0  0  0  0  0  0  0  0  0  0
   36.2870   22.4390   31.5420 C   0  0  0  0  0  0  0  0  0  0  0  0
   36.4130   23.2230   30.8220 H   0  0  0  0  0  0  0  0  0  0  0  0
   35.4870   21.4010   31.1150 C   0  0  0  0  0  0  0  0  0  0  0  0
   35.0290   21.3760   30.1540 H   0  0  0  0  0  0  0  0  0  0  0  0
   35.2720   20.3490   31.9810 C   0  0  0  0  0  3  0  0  0  0  0  0
   35.8840   20.4250   33.2140 C   0  0  0  0  0  3  0  0  0  0  0  0
   36.6550   21.4670   33.5720 N   0  0  0  0  0  0  0  0  0  0  0  0
   37.0690   29.5980   30.0510 C   0  0  0  0  0  0  0  0  0  0  0  0
   36.1980   30.6140   29.8190 F   0  0  0  0  0  0  0  0  0  0  0  0
   36.8610   28.6700   29.0380 F   0  0  0  0  0  0  0  0  0  0  0  0
   38.3700   30.1080   29.9490 F   0  0  0  0  0  0  0  0  0  0  0  0
  1  2  1  0  0  0  0
  1 12  1  0  0  0  0
  2  9  1  0  0  0  0
  3 19  1  0  0  0  0
  3  2  2  0  0  0  0
  4  3  1  0  0  0  0
  5  4  2  0  0  0  0
  6  4  1  0  0  0  0
  6  7  1  0  0  0  0
  7  1  1  0  0  0  0
  8  7  2  0  0  0  0
 10 15  1  0  0  0  0
 10 16  1  0  0  0  0
 11 10  2  0  0  0  0
 12 13  2  0  0  0  0
 12 11  1  0  0  0  0
 13 14  1  0  0  0  0
 14 18  1  0  0  0  0
 14 15  2  0  0  0  0
 17 11  1  0  0  0  0
 19 20  1  0  0  0  0
 20 21  2  0  0  0  0
 20 25  1  0  0  0  0
 21 26  1  0  0  0  0
 22 27  1  0  0  0  0
 22 21  1  0  0  0  0
 23 22  2  0  0  0  0
 24 23  1  0  0  0  0
 24 19  2  0  0  0  0
 28 23  1  0  0  0  0
 28 35  1  0  0  0  0
 29 28  2  0  0  0  0
 30 29  1  0  0  0  0
 31 29  1  0  0  0  0
 31 33  2  0  0  0  0
 32 31  1  0  0  0  0
 33 34  1  0  0  0  0
 34 35  2  0  0  0  0
 36  6  1  0  0  0  0
 37 36  1  0  0  0  0
 38 36  1  0  0  0  0
 39 36  1  0  0  0  0
M  END
>  <minimizedAffinity>
-6.32625246

$$$$

 OpenBabel03272505333D

 39 42  0  0  0  0  0  0  0  0999 V2000
   36.3070   27.7410   32.8030 N   0  0  0  0  0  0  0  0  0  0  0  0
   36.5560   26.6640   32.0100 C   0  0  0  0  0  0  0  0  0  0  0  0
   37.4170   25.6520   32.3920 C   0  0  0  0  0  0  0  0  0  0  0  0
   38.0390   25.7740   33.6460 C   0  0  0  0  0  0  0  0  0  0  0  0
   38.8320   24.8790   34.0380 O   0  0  0  0  0  0  0  0  0  0  0  0
   37.7840   26.8610   34.4410 N   0  0  0  0  0  0  0  0  0  0  0  0
   36.9410   27.7610   33.9630 C   0  0  0  0  0  0  0  0  0  0  0  0
   36.7350   28.7370   34.7180 O   0  0  0  0  0  0  0  0  0  0  0  0
   36.0750   26.5630   31.0320 H   0  0  0  0  0  0  0  0  0  0  0  0
   34.9450   30.7510   31.1090 C   0  0  0  0  0  0  0  0  0  0  0  0
   35.8320   29.7340   31.5040 C   0  0  0  0  0  0  0  0  0  0  0  0
   35.4360   28.7530   32.4060 C   0  0  0  0  0  0  0  0  0  0  0  0
   34.1750   28.8160   32.8850 N   0  0  0  0  0  0  0  0  0  0  0  0
   33.3000   29.7950   32.5160 C   0  0  0  0  0  0  0  0  0  0  0  0
   33.6960   30.7550   31.6290 N   0  0  0  0  0  0  0  0  0  0  0  0
   35.3280   31.4660   30.4120 H   0  0  0  0  0  0  0  0  0  0  0  0
   36.8530   29.6550   31.1370 H   0  0  0  0  0  0  0  0  0  0  0  0
   32.2910   29.8240   32.9160 H   0  0  0  0  0  0  0  0  0  0  0  0
   37.7170   24.4840   31.5860 C   0  0  0  0  0  0  0  0  0  0  0  0
   38.6070   24.4760   30.5490 C   0  0  0  0  0  0  0  0  0  0  0  0
   38.9100   23.3910   29.7720 C   0  0  0  0  0  0  0  0  0  0  0  0
   38.2690   22.1940   30.0480 C   0  0  0  0  0  0  0  0  0  0  0  0
   37.3650   22.2100   31.1040 C   0  0  0  0  0  0  0  0  0  0  0  0
   37.1270   23.3220   31.8160 N   0  0  0  0  0  0  0  0  0  0  0  0
   39.1410   25.3910   30.2880 H   0  0  0  0  0  0  0  0  0  0  0  0
   39.6270   23.4290   28.9550 H   0  0  0  0  0  0  0  0  0  0  0  0
   38.4570   21.3170   29.4860 H   0  0  0  0  0  0  0  0  0  0  0  0
   36.6180   21.0230   31.5050 C   0  0  0  0  0  0  0  0  0  0  0  0
   35.2570   21.0220   31.7250 C   0  0  0  0  0  0  0  0  0  0  0  0
   34.6890   21.9230   31.6020 H   0  0  0  0  0  0  0  0  0  0  0  0
   34.5070   19.9290   32.1050 C   0  0  0  0  0  0  0  0  0  0  0  0
   33.4550   19.9700   32.2650 H   0  0  0  0  0  0  0  0  0  0  0  0
   35.1580   18.7260   32.2860 C   0  0  0  0  0  3  0  0  0  0  0  0
   36.5210   18.7200   32.0690 C   0  0  0  0  0  3  0  0  0  0  0  0
   37.1960   19.8210   31.6990 N   0  0  0  0  0  0  0  0  0  0  0  0
   38.4280   26.9720   35.7240 C   0  0  0  0  0  0  0  0  0  0  0  0
   37.9950   28.0690   36.3990 F   0  0  0  0  0  0  0  0  0  0  0  0
   39.8100   27.0920   35.6370 F   0  0  0  0  0  0  0  0  0  0  0  0
   38.1110   25.8400   36.4840 F   0  0  0  0  0  0  0  0  0  0  0  0
  1  7  1  0  0  0  0
  2  3  2  0  0  0  0
  2  1  1  0  0  0  0
  3  4  1  0  0  0  0
  4  5  2  0  0  0  0
  4  6  1  0  0  0  0
  6 36  1  0  0  0  0
  7  6  1  0  0  0  0
  7  8  2  0  0  0  0
  9  2  1  0  0  0  0
 10 11  2  0  0  0  0
 10 15  1  0  0  0  0
 11 12  1  0  0  0  0
 12  1  1  0  0  0  0
 12 13  2  0  0  0  0
 14 13  1  0  0  0  0
 14 18  1  0  0  0  0
 15 14  2  0  0  0  0
 16 10  1  0  0  0  0
 17 11  1  0  0  0  0
 19 24  1  0  0  0  0
 19  3  1  0  0  0  0
 20 19  2  0  0  0  0
 21 22  2  0  0  0  0
 21 20  1  0  0  0  0
 22 23  1  0  0  0  0
 23 28  1  0  0  0  0
 23 24  2  0  0  0  0
 25 20  1  0  0  0  0
 26 21  1  0  0  0  0
 27 22  1  0  0  0  0
 28 35  2  0  0  0  0
 28 29  1  0  0  0  0
 29 31  2  0  0  0  0
 30 29  1  0  0  0  0
 31 32  1  0  0  0  0
 31 33  1  0  0  0  0
 34 33  2  0  0  0  0
 35 34  1  0  0  0  0
 36 37  1  0  0  0  0
 36 39  1  0  0  0  0
 38 36  1  0  0  0  0
M  END
>  <minimizedAffinity>
-6.30063629

$$$$

 OpenBabel03272505333D

 39 42  0  0  0  0  0  0  0  0999 V2000
   38.3100   24.0570   34.2990 N   0  0  0  0  0  0  0  0  0  0  0  0
   37.9940   25.3700   34.1380 C   0  0  0  0  0  0  0  0  0  0  0  0
   37.1690   25.8090   33.1190 C   0  0  0  0  0  0  0  0  0  0  0  0
   36.6590   24.8400   32.2400 C   0  0  0  0  0  0  0  0  0  0  0  0
   35.9040   25.1900   31.2960 O   0  0  0  0  0  0  0  0  0  0  0  0
   36.9800   23.5180   32.4070 N   0  0  0  0  0  0  0  0  0  0  0  0
   37.7790   23.2250   33.4200 C   0  0  0  0  0  0  0  0  0  0  0  0
   38.0480   22.0090   33.5380 O   0  0  0  0  0  0  0  0  0  0  0  0
   38.3880   26.1310   34.8200 H   0  0  0  0  0  0  0  0  0  0  0  0
   41.3450   23.0650   36.1930 C   0  0  0  0  0  0  0  0  0  0  0  0
   40.5130   23.4980   35.1460 C   0  0  0  0  0  0  0  0  0  0  0  0
   39.1420   23.6290   35.3310 C   0  0  0  0  0  0  0  0  0  0  0  0
   38.6430   23.3240   36.5480 N   0  0  0  0  0  0  0  0  0  0  0  0
   39.4330   22.9010   37.5780 C   0  0  0  0  0  0  0  0  0  0  0  0
   40.7790   22.7760   37.3880 N   0  0  0  0  0  0  0  0  0  0  0  0
   42.3870   22.9920   35.9680 H   0  0  0  0  0  0  0  0  0  0  0  0
   40.8840   23.7510   34.1550 H   0  0  0  0  0  0  0  0  0  0  0  0
   39.0070   22.6620   38.5470 H   0  0  0  0  0  0  0  0  0  0  0  0
   36.8010   27.1960   32.9030 C   0  0  0  0  0  0  0  0  0  0  0  0
   36.1500   27.9690   33.8230 C   0  0  0  0  0  0  0  0  0  0  0  0
   35.7910   29.2780   33.6470 C   0  0  0  0  0  0  0  0  0  0  0  0
   36.1080   29.8840   32.4420 C   0  0  0  0  0  0  0  0  0  0  0  0
   36.7710   29.0910   31.5120 C   0  0  0  0  0  0  0  0  0  0  0  0
   37.0860   27.8120   31.7670 N   0  0  0  0  0  0  0  0  0  0  0  0
   35.8760   27.5430   34.7900 H   0  0  0  0  0  0  0  0  0  0  0  0
   35.2730   29.8570   34.4070 H   0  0  0  0  0  0  0  0  0  0  0  0
   35.8600   30.8930   32.2410 H   0  0  0  0  0  0  0  0  0  0  0  0
   37.1660   29.5960   30.2020 C   0  0  0  0  0  0  0  0  0  0  0  0
   36.8920   30.8760   29.7680 C   0  0  0  0  0  0  0  0  0  0  0  0
   36.3640   31.5590   30.4020 H   0  0  0  0  0  0  0  0  0  0  0  0
   37.2430   31.3990   28.5420 C   0  0  0  0  0  0  0  0  0  0  0  0
   37.0110   32.3950   28.2450 H   0  0  0  0  0  0  0  0  0  0  0  0
   37.9270   30.5870   27.6610 C   0  0  0  0  0  3  0  0  0  0  0  0
   38.2040   29.3050   28.0870 C   0  0  0  0  0  3  0  0  0  0  0  0
   37.8340   28.8530   29.2970 N   0  0  0  0  0  0  0  0  0  0  0  0
   36.4500   22.5350   31.4970 C   0  0  0  0  0  0  0  0  0  0  0  0
   35.4630   23.0620   30.7260 F   0  0  0  0  0  0  0  0  0  0  0  0
   35.8930   21.4360   32.1400 F   0  0  0  0  0  0  0  0  0  0  0  0
   37.4800   22.1050   30.6530 F   0  0  0  0  0  0  0  0  0  0  0  0
  1 12  1  0  0  0  0
  2  1  1  0  0  0  0
  2  9  1  0  0  0  0
  3  2  2  0  0  0  0
  4  6  1  0  0  0  0
  4  3  1  0  0  0  0
  5  4  2  0  0  0  0
  6  7  1  0  0  0  0
  7  8  2  0  0  0  0
  7  1  1  0  0  0  0
 10 15  1  0  0  0  0
 11 12  1  0  0  0  0
 11 10  2  0  0  0  0
 12 13  2  0  0  0  0
 13 14  1  0  0  0  0
 14 18  1  0  0  0  0
 15 14  2  0  0  0  0
 16 10  1  0  0  0  0
 17 11  1  0  0  0  0
 19  3  1  0  0  0  0
 19 20  1  0  0  0  0
 20 25  1  0  0  0  0
 21 20  2  0  0  0  0
 21 26  1  0  0  0  0
 22 21  1  0  0  0  0
 23 24  1  0  0  0  0
 23 22  2  0  0  0  0
 24 19  2  0  0  0  0
 27 22  1  0  0  0  0
 28 23  1  0  0  0  0
 29 28  1  0  0  0  0
 29 30  1  0  0  0  0
 31 29  2  0  0  0  0
 32 31  1  0  0  0  0
 33 34  2  0  0  0  0
 33 31  1  0  0  0  0
 34 35  1  0  0  0  0
 35 28  2  0  0  0  0
 36 38  1  0  0  0  0
 36  6  1  0  0  0  0
 37 36  1  0  0  0  0
 39 36  1  0  0  0  0
M  END
>  <minimizedAffinity>
-6.2892189

$$$$

 OpenBabel03272505333D

 39 42  0  0  0  0  0  0  0  0999 V2000
   38.0530   23.1250   34.8500 N   0  0  0  0  0  0  0  0  0  0  0  0
   38.4920   23.9950   33.9010 C   0  0  0  0  0  0  0  0  0  0  0  0
   38.1360   23.8750   32.5700 C   0  0  0  0  0  0  0  0  0  0  0  0
   37.2910   22.8070   32.2230 C   0  0  0  0  0  0  0  0  0  0  0  0
   36.9400   22.6550   31.0250 O   0  0  0  0  0  0  0  0  0  0  0  0
   36.8510   21.9330   33.1830 N   0  0  0  0  0  0  0  0  0  0  0  0
   37.2630   22.1560   34.4210 C   0  0  0  0  0  0  0  0  0  0  0  0
   36.8390   21.3370   35.2670 O   0  0  0  0  0  0  0  0  0  0  0  0
   39.1500   24.8290   34.1640 H   0  0  0  0  0  0  0  0  0  0  0  0
   38.0350   24.1370   38.4220 C   0  0  0  0  0  0  0  0  0  0  0  0
   37.6570   24.0080   37.0740 C   0  0  0  0  0  0  0  0  0  0  0  0
   38.4190   23.2590   36.1870 C   0  0  0  0  0  0  0  0  0  0  0  0
   39.5330   22.6630   36.6670 N   0  0  0  0  0  0  0  0  0  0  0  0
   39.9180   22.7760   37.9710 C   0  0  0  0  0  0  0  0  0  0  0  0
   39.1630   23.5140   38.8370 N   0  0  0  0  0  0  0  0  0  0  0  0
   37.3940   24.7300   39.0370 H   0  0  0  0  0  0  0  0  0  0  0  0
   36.7670   24.4750   36.6570 H   0  0  0  0  0  0  0  0  0  0  0  0
   40.8180   22.2880   38.3320 H   0  0  0  0  0  0  0  0  0  0  0  0
   38.5760   24.7730   31.5200 C   0  0  0  0  0  0  0  0  0  0  0  0
   39.5590   24.4760   30.6180 C   0  0  0  0  0  0  0  0  0  0  0  0
   39.9950   25.3020   29.6180 C   0  0  0  0  0  0  0  0  0  0  0  0
   39.3990   26.5480   29.4980 C   0  0  0  0  0  0  0  0  0  0  0  0
   38.4010   26.8430   30.4190 C   0  0  0  0  0  0  0  0  0  0  0  0
   38.0340   25.9700   31.3700 N   0  0  0  0  0  0  0  0  0  0  0  0
   40.0620   23.5080   30.6660 H   0  0  0  0  0  0  0  0  0  0  0  0
   40.7810   25.0240   28.9210 H   0  0  0  0  0  0  0  0  0  0  0  0
   39.6890   27.2350   28.7460 H   0  0  0  0  0  0  0  0  0  0  0  0
   37.6880   28.1160   30.4110 C   0  0  0  0  0  0  0  0  0  0  0  0
   36.7800   28.4830   31.3810 C   0  0  0  0  0  0  0  0  0  0  0  0
   36.5640   27.8210   32.1970 H   0  0  0  0  0  0  0  0  0  0  0  0
   36.0830   29.6720   31.4180 C   0  0  0  0  0  0  0  0  0  0  0  0
   35.3880   29.9160   32.1870 H   0  0  0  0  0  0  0  0  0  0  0  0
   36.2990   30.5830   30.4050 C   0  0  0  0  0  3  0  0  0  0  0  0
   37.2070   30.2230   29.4300 C   0  0  0  0  0  3  0  0  0  0  0  0
   37.8560   29.0460   29.4510 N   0  0  0  0  0  0  0  0  0  0  0  0
   35.9860   20.8440   32.8130 C   0  0  0  0  0  0  0  0  0  0  0  0
   35.0210   21.2540   31.9480 F   0  0  0  0  0  0  0  0  0  0  0  0
   35.3210   20.2780   33.8930 F   0  0  0  0  0  0  0  0  0  0  0  0
   36.7520   19.8600   32.1750 F   0  0  0  0  0  0  0  0  0  0  0  0
  1 12  1  0  0  0  0
  2  9  1  0  0  0  0
  2  1  1  0  0  0  0
  3  2  2  0  0  0  0
  4  3  1  0  0  0  0
  4  6  1  0  0  0  0
  5  4  2  0  0  0  0
  6  7  1  0  0  0  0
  7  1  1  0  0  0  0
  7  8  2  0  0  0  0
 10 15  1  0  0  0  0
 10 16  1  0  0  0  0
 11 10  2  0  0  0  0
 12 13  2  0  0  0  0
 12 11  1  0  0  0  0
 13 14  1  0  0  0  0
 14 18  1  0  0  0  0
 14 15  2  0  0  0  0
 17 11  1  0  0  0  0
 19  3  1  0  0  0  0
 20 25  1  0  0  0  0
 20 19  2  0  0  0  0
 21 20  1  0  0  0  0
 22 21  2  0  0  0  0
 22 23  1  0  0  0  0
 23 24  2  0  0  0  0
 24 19  1  0  0  0  0
 26 21  1  0  0  0  0
 27 22  1  0  0  0  0
 28 23  1  0  0  0  0
 28 29  1  0  0  0  0
 29 31  2  0  0  0  0
 29 30  1  0  0  0  0
 31 32  1  0  0  0  0
 33 31  1  0  0  0  0
 34 35  1  0  0  0  0
 34 33  2  0  0  0  0
 35 28  2  0  0  0  0
 36  6  1  0  0  0  0
 36 38  1  0  0  0  0
 37 36  1  0  0  0  0
 39 36  1  0  0  0  0
M  END
>  <minimizedAffinity>
-6.26727057

$$$$
