
 OpenBabel03262523433D

 27 29  0  0  0  0  0  0  0  0999 V2000
   38.0620   33.2980   49.5920 Cl  0  0  0  0  0  0  0  0  0  0  0  0
   38.4600   32.4210   48.1370 C   0  0  0  0  0  0  0  0  0  0  0  0
   38.0160   31.1150   47.9630 C   0  0  0  0  0  0  0  0  0  0  0  0
   38.3720   30.4980   46.7950 C   0  0  0  0  0  0  0  0  0  0  0  0
   39.1250   31.0930   45.8150 C   0  0  0  0  0  0  0  0  0  0  0  0
   39.5480   32.3980   46.0270 C   0  0  0  0  0  0  0  0  0  0  0  0
   40.4990   33.1690   44.7840 Cl  0  0  0  0  0  0  0  0  0  0  0  0
   39.2250   33.0840   47.1870 C   0  0  0  0  0  0  0  0  0  0  0  0
   38.0180   29.4840   46.6780 H   0  0  0  0  0  0  0  0  0  0  0  0
   39.5550   34.0930   47.3460 H   0  0  0  0  0  0  0  0  0  0  0  0
   37.0130   29.3890   51.1700 C   0  0  0  0  0  0  0  0  0  0  0  0
   37.7860   29.9490   50.1430 C   0  0  0  0  0  0  0  0  0  0  0  0
   37.2230   30.5330   49.0270 C   0  0  0  0  0  0  0  0  0  0  0  0
   35.8560   30.5320   48.9860 N   0  0  0  0  0  0  0  0  0  0  0  0
   35.1120   29.9980   49.9670 C   0  0  0  0  0  0  0  0  0  0  0  0
   35.6910   29.4340   51.0450 N   0  0  0  0  0  0  0  0  0  0  0  0
   37.5920   28.9640   51.9870 H   0  0  0  0  0  0  0  0  0  0  0  0
   38.8790   29.9450   50.1830 H   0  0  0  0  0  0  0  0  0  0  0  0
   34.0280   30.0180   49.8960 H   0  0  0  0  0  0  0  0  0  0  0  0
   39.4980   30.4250   44.5750 C   0  0  0  0  0  0  0  0  0  0  0  0
   40.5910   30.7720   43.8120 C   0  0  0  0  0  0  0  0  0  0  0  0
   41.2260   31.5830   44.1290 H   0  0  0  0  0  0  0  0  0  0  0  0
   40.8910   30.0990   42.6430 C   0  0  0  0  0  0  0  0  0  0  0  0
   41.7690   30.3850   42.0420 H   0  0  0  0  0  0  0  0  0  0  0  0
   40.1310   29.0590   42.1780 C   0  0  0  0  0  0  0  0  0  0  0  0
   39.0490   28.7440   42.9700 C   0  0  0  0  0  0  0  0  0  0  0  0
   38.7670   29.4020   44.0980 N   0  0  0  0  0  0  0  0  0  0  0  0
  2  1  1  0  0  0  0
  3  2  1  0  0  0  0
  3 13  1  0  0  0  0
  4  3  2  0  0  0  0
  5  6  2  0  0  0  0
  5  4  1  0  0  0  0
  6  8  1  0  0  0  0
  7  6  1  0  0  0  0
  8 10  1  0  0  0  0
  8  2  2  0  0  0  0
  9  4  1  0  0  0  0
 11 17  1  0  0  0  0
 12 18  1  0  0  0  0
 12 11  2  0  0  0  0
 13 12  1  0  0  0  0
 14 13  2  0  0  0  0
 14 15  1  0  0  0  0
 15 16  2  0  0  0  0
 16 11  1  0  0  0  0
 19 15  1  0  0  0  0
 20  5  1  0  0  0  0
 21 22  1  0  0  0  0
 21 20  2  0  0  0  0
 23 21  1  0  0  0  0
 24 23  1  0  0  0  0
 25 23  2  0  0  0  0
 25 26  1  0  0  0  0
 26 27  2  0  0  0  0
 27 20  1  0  0  0  0
M  END
>  <minimizedAffinity>
-6.61674786

>  <minimizedRMSD>
0.143587425

$$$$
