REMARK  Name = 
REMARK  4 active torsions:
REMARK  status: ('A' for Active; 'I' for Inactive)
REMARK    1  A    between atoms: C_2  and  C_12
REMARK    2  A    between atoms: C_6  and  O_16
REMARK    3  A    between atoms: O_16  and  C_18
REMARK    4  A    between atoms: C_22  and  C_37
REMARK                            x       y       z     vdW  Elec       q    Type
REMARK                         _______ _______ _______ _____ _____    ______ ____
ROOT
ATOM      1  C   UNL     1      36.252  30.177  46.864  0.00  0.00    +0.000 A 
ATOM      2  C   UNL     1      37.086  30.764  47.813  0.00  0.00    +0.000 A 
ATOM      3  C   UNL     1      38.057  31.677  47.434  0.00  0.00    +0.000 A 
ATOM      4  C   UNL     1      38.146  31.964  46.077  0.00  0.00    +0.000 A 
ATOM      5  N   UNL     1      39.025  32.828  45.479  0.00  0.00    +0.000 N 
ATOM      6  C   UNL     1      38.746  32.783  44.167  0.00  0.00    +0.000 A 
ATOM      7  N   UNL     1      37.756  31.948  43.935  0.00  0.00    +0.000 NA
ATOM      8  C   UNL     1      37.350  31.413  45.112  0.00  0.00    +0.000 A 
ATOM      9  C   UNL     1      36.378  30.495  45.519  0.00  0.00    +0.000 A 
ATOM     10  H   UNL     1      35.482  29.457  47.139  0.00  0.00    +0.000 HD
ATOM     11  H   UNL     1      38.698  32.127  48.171  0.00  0.00    +0.000 HD
ATOM     12  H   UNL     1      39.771  33.412  45.949  0.00  0.00    +0.000 HD
ATOM     13  H   UNL     1      35.759  30.071  44.741  0.00  0.00    +0.000 HD
ENDROOT
BRANCH   2  16
ATOM     14  C   UNL     1      37.484  30.180  51.494  0.00  0.00    +0.000 A 
ATOM     15  C   UNL     1      37.787  30.618  50.217  0.00  0.00    +0.000 A 
ATOM     16  C   UNL     1      36.884  30.363  49.191  0.00  0.00    +0.000 A 
ATOM     17  N   UNL     1      35.747  29.690  49.517  0.00  0.00    +0.000 NA
ATOM     18  C   UNL     1      35.461  29.268  50.758  0.00  0.00    +0.000 A 
ATOM     19  N   UNL     1      36.327  29.516  51.731  0.00  0.00    +0.000 NA
ATOM     20  H   UNL     1      38.216  30.399  52.273  0.00  0.00    +0.000 HD
ATOM     21  H   UNL     1      38.702  31.157  49.969  0.00  0.00    +0.000 HD
ATOM     22  H   UNL     1      34.521  28.742  50.887  0.00  0.00    +0.000 HD
ENDBRANCH   2  16
BRANCH   6  23
ATOM     23  O   UNL     1      39.467  33.559  43.241  0.00  0.00    +0.000 OA
BRANCH  23  25
ATOM     24  N   UNL     1      39.561  31.865  41.720  0.00  0.00    +0.000 NA
ATOM     25  C   UNL     1      39.211  33.263  41.867  0.00  0.00    +0.000 C 
ATOM     26  C   UNL     1      37.805  33.451  41.526  0.00  0.00    +0.000 C 
ATOM     27  O   UNL     1      37.630  33.153  40.165  0.00  0.00    +0.000 OA
ATOM     28  C   UNL     1      38.057  31.920  39.779  0.00  0.00    +0.000 C 
ATOM     29  C   UNL     1      39.407  31.543  40.303  0.00  0.00    +0.000 C 
ATOM     30  H   UNL     1      40.578  31.777  41.931  0.00  0.00    +0.000 HD
ATOM     31  H   UNL     1      39.822  33.954  41.262  0.00  0.00    +0.000 HD
ATOM     32  H   UNL     1      36.990  32.980  42.002  0.00  0.00    +0.000 HD
ATOM     33  H   UNL     1      37.600  34.565  41.571  0.00  0.00    +0.000 HD
ATOM     34  H   UNL     1      38.093  31.892  38.685  0.00  0.00    +0.000 HD
ATOM     35  H   UNL     1      37.303  31.147  40.074  0.00  0.00    +0.000 HD
ATOM     36  H   UNL     1      39.405  30.409  40.303  0.00  0.00    +0.000 HD
BRANCH  29  37
ATOM     37  C   UNL     1      40.544  31.936  39.473  0.00  0.00    +0.000 A 
ATOM     38  C   UNL     1      41.262  30.982  38.737  0.00  0.00    +0.000 A 
ATOM     39  H   UNL     1      40.902  29.946  38.840  0.00  0.00    +0.000 HD
ATOM     40  C   UNL     1      42.347  31.209  37.918  0.00  0.00    +0.000 A 
ATOM     41  H   UNL     1      42.791  30.359  37.417  0.00  0.00    +0.000 HD
ATOM     42  C   UNL     1      42.774  32.507  37.808  0.00  0.00    +0.000 A 
ATOM     43  C   UNL     1      42.070  33.448  38.530  0.00  0.00    +0.000 A 
ATOM     44  N   UNL     1      41.015  33.186  39.320  0.00  0.00    +0.000 NA
ENDBRANCH  29  37
ENDBRANCH  23  25
ENDBRANCH   6  23
TORSDOF 4
