
 OpenBabel03262523293D

 30 33  0  0  0  0  0  0  0  0999 V2000
   36.3430   29.6920   50.8100 C   0  0  0  0  0  0  0  0  0  0  0  0
   37.0690   30.3950   49.8400 C   0  0  0  0  0  0  0  0  0  0  0  0
   36.6670   30.2990   48.5220 C   0  0  0  0  0  0  0  0  0  0  0  0
   35.5960   29.5310   48.2520 N   0  0  0  0  0  0  0  0  0  0  0  0
   34.8940   28.8510   49.1900 C   0  0  0  0  0  0  0  0  0  0  0  0
   35.2680   28.9330   50.4630 N   0  0  0  0  0  0  0  0  0  0  0  0
   36.7330   29.8280   51.8150 H   0  0  0  0  0  0  0  0  0  0  0  0
   37.9250   31.0080   50.0580 H   0  0  0  0  0  0  0  0  0  0  0  0
   36.8760   30.6660   46.1320 C   0  0  0  0  0  0  0  0  0  0  0  0
   37.3130   30.9660   47.3980 C   0  0  0  0  0  0  0  0  0  0  0  0
   38.3400   31.8770   47.5850 C   0  0  0  0  0  0  0  0  0  0  0  0
   38.8920   32.4610   46.4560 C   0  0  0  0  0  0  0  0  0  0  0  0
   39.9060   33.3790   46.3870 N   0  0  0  0  0  0  0  0  0  0  0  0
   40.1000   33.6520   45.0810 C   0  0  0  0  0  0  0  0  0  0  0  0
   39.2470   32.9400   44.3210 N   0  0  0  0  0  0  0  0  0  0  0  0
   38.4840   32.1890   45.1620 C   0  0  0  0  0  0  0  0  0  0  0  0
   37.4570   31.2750   45.0150 C   0  0  0  0  0  0  0  0  0  0  0  0
   36.0880   29.9690   45.9600 H   0  0  0  0  0  0  0  0  0  0  0  0
   38.6940   32.1240   48.5560 H   0  0  0  0  0  0  0  0  0  0  0  0
   40.4620   33.8240   47.1430 H   0  0  0  0  0  0  0  0  0  0  0  0
   40.7800   34.3040   44.5530 H   0  0  0  0  0  0  0  0  0  0  0  0
   37.1180   31.0430   44.0310 H   0  0  0  0  0  0  0  0  0  0  0  0
   33.7460   28.0440   48.7940 C   0  0  0  0  0  0  0  0  0  0  0  0
   33.9240   26.9730   47.9280 C   0  0  0  0  0  0  0  0  0  0  0  0
   34.9380   26.7880   47.5820 H   0  0  0  0  0  0  0  0  0  0  0  0
   32.8730   26.1750   47.5200 C   0  0  0  0  0  0  0  0  0  0  0  0
   33.0550   25.3500   46.8440 H   0  0  0  0  0  0  0  0  0  0  0  0
   31.6280   26.4970   48.0190 C   0  0  0  0  0  0  0  0  0  0  0  0
   31.4310   27.5700   48.8890 C   0  0  0  0  0  0  0  0  0  0  0  0
   32.5110   28.3100   49.2470 N   0  0  0  0  0  0  0  0  0  0  0  0
  1  7  1  0  0  0  0
  2  8  1  0  0  0  0
  2  1  2  0  0  0  0
  3  2  1  0  0  0  0
  4  3  2  0  0  0  0
  4  5  1  0  0  0  0
  5  6  2  0  0  0  0
  6  1  1  0  0  0  0
  9 10  1  0  0  0  0
 10 11  2  0  0  0  0
 10  3  1  0  0  0  0
 11 19  1  0  0  0  0
 12 11  1  0  0  0  0
 13 12  1  0  0  0  0
 13 20  1  0  0  0  0
 14 13  1  0  0  0  0
 15 14  2  0  0  0  0
 15 16  1  0  0  0  0
 16 12  2  0  0  0  0
 17 16  1  0  0  0  0
 17  9  2  0  0  0  0
 18  9  1  0  0  0  0
 21 14  1  0  0  0  0
 22 17  1  0  0  0  0
 23  5  1  0  0  0  0
 23 30  1  0  0  0  0
 24 23  2  0  0  0  0
 25 24  1  0  0  0  0
 26 24  1  0  0  0  0
 26 28  2  0  0  0  0
 27 26  1  0  0  0  0
 28 29  1  0  0  0  0
 29 30  2  0  0  0  0
M  END
>  <minimizedAffinity>
-6.57795811

>  <minimizedRMSD>
1.25796437

$$$$
