
 OpenBabel03272505383D

 30 32  0  0  0  0  0  0  0  0999 V2000
   36.4090   30.5360   46.6010 C   0  0  0  0  0  0  0  0  0  0  0  0
   35.1280   30.0320   46.5320 C   0  0  0  0  0  0  0  0  0  0  0  0
   34.5670   29.7420   45.2980 C   0  0  0  0  0  0  0  0  0  0  0  0
   35.2300   29.9340   44.1070 C   0  0  0  0  0  0  0  0  0  0  0  0
   36.5080   30.4380   44.1730 C   0  0  0  0  0  0  0  0  0  0  0  0
   37.0690   30.7270   45.3990 C   0  0  0  0  0  0  0  0  0  0  0  0
   34.5750   29.8680   47.4540 H   0  0  0  0  0  0  0  0  0  0  0  0
   33.5500   29.3470   45.3340 H   0  0  0  0  0  0  0  0  0  0  0  0
   34.7410   29.6890   43.1640 H   0  0  0  0  0  0  0  0  0  0  0  0
   37.0120   30.5820   43.2240 H   0  0  0  0  0  0  0  0  0  0  0  0
   37.4050   30.2940   50.1120 C   0  0  0  0  0  0  0  0  0  0  0  0
   38.1920   31.4450   50.2930 C   0  0  0  0  0  0  0  0  0  0  0  0
   38.3690   32.2950   49.1930 C   0  0  0  0  0  0  0  0  0  0  0  0
   37.7680   31.9430   48.0340 N   0  0  0  0  0  0  0  0  0  0  0  0
   37.0230   30.8420   47.8830 C   0  0  0  0  0  0  0  0  0  0  0  0
   36.8490   30.0270   48.9280 N   0  0  0  0  0  0  0  0  0  0  0  0
   38.6660   31.7090   51.2300 H   0  0  0  0  0  0  0  0  0  0  0  0
   38.9540   33.1970   49.2440 H   0  0  0  0  0  0  0  0  0  0  0  0
   37.2250   29.3970   51.3000 C   0  0  0  0  0  0  0  0  0  0  0  0
   35.8610   29.1510   51.4740 F   0  0  0  0  0  0  0  0  0  0  0  0
   37.9370   28.2660   51.0830 F   0  0  0  0  0  0  0  0  0  0  0  0
   37.6390   30.0800   52.4230 F   0  0  0  0  0  0  0  0  0  0  0  0
   38.4140   31.2650   45.3260 C   0  0  0  0  0  0  0  0  0  0  0  0
   39.6110   30.6110   45.5580 C   0  0  0  0  0  0  0  0  0  0  0  0
   39.5130   29.5560   45.8400 H   0  0  0  0  0  0  0  0  0  0  0  0
   40.8210   31.2530   45.4430 C   0  0  0  0  0  0  0  0  0  0  0  0
   41.6850   30.6360   45.6480 H   0  0  0  0  0  0  0  0  0  0  0  0
   40.8380   32.5830   45.0880 C   0  0  0  0  0  0  0  0  0  0  0  0
   39.6550   33.2240   44.8600 C   0  0  0  0  0  0  0  0  0  0  0  0
   38.4840   32.5800   44.9780 N   0  0  0  0  0  0  0  0  0  0  0  0
  1 15  1  0  0  0  0
  2  1  1  0  0  0  0
  2  7  1  0  0  0  0
  3  8  1  0  0  0  0
  3  2  2  0  0  0  0
  4  5  2  0  0  0  0
  4  3  1  0  0  0  0
  5  6  1  0  0  0  0
  6  1  2  0  0  0  0
  9  4  1  0  0  0  0
 10  5  1  0  0  0  0
 11 12  1  0  0  0  0
 11 19  1  0  0  0  0
 12 17  1  0  0  0  0
 13 18  1  0  0  0  0
 13 12  2  0  0  0  0
 14 13  1  0  0  0  0
 15 14  2  0  0  0  0
 15 16  1  0  0  0  0
 16 11  2  0  0  0  0
 19 20  1  0  0  0  0
 19 22  1  0  0  0  0
 21 19  1  0  0  0  0
 23  6  1  0  0  0  0
 23 24  1  0  0  0  0
 24 25  1  0  0  0  0
 26 24  2  0  0  0  0
 26 27  1  0  0  0  0
 28 26  1  0  0  0  0
 29 30  1  0  0  0  0
 29 28  2  0  0  0  0
 30 23  2  0  0  0  0
M  END
>  <minimizedAffinity>
-7.20630121

>  <minimizedRMSD>
0.353160083

$$$$
