
 OpenBabel03272506073D

 29 31  0  0  0  0  0  0  0  0999 V2000
   37.2720   23.4710   31.3030 C   0  0  0  0  0  0  0  0  0  0  0  0
   37.4620   24.0820   30.3970 H   0  0  0  0  0  0  0  0  0  0  0  0
   38.0250   22.6480   31.2460 H   0  0  0  0  0  0  0  0  0  0  0  0
   37.5860   24.2580   32.5470 C   0  0  0  0  0  0  0  0  0  0  0  0
   37.5560   25.7010   32.4650 C   0  0  0  0  0  0  0  0  0  0  0  0
   37.9790   26.1410   34.1290 S   0  0  0  0  0  0  0  0  0  0  0  0
   38.1360   24.3610   34.6990 C   0  0  0  0  0  0  0  0  0  0  0  0
   37.8860   23.7410   33.7070 N   0  0  0  0  0  0  0  0  0  0  0  0
   37.3350   26.2890   31.6170 H   0  0  0  0  0  0  0  0  0  0  0  0
   38.4980   23.9660   36.1020 C   0  0  0  0  0  0  0  0  0  0  0  0
   37.6790   24.4820   37.0860 C   0  0  0  0  0  0  0  0  0  0  0  0
   36.8550   25.1170   36.8210 H   0  0  0  0  0  0  0  0  0  0  0  0
   38.0360   24.1010   38.3610 C   0  0  0  0  0  0  0  0  0  0  0  0
   37.4310   24.4750   39.1760 H   0  0  0  0  0  0  0  0  0  0  0  0
   39.1250   23.2730   38.6120 C   0  0  0  0  0  3  0  0  0  0  0  0
   39.9000   22.7940   37.5540 C   0  0  0  0  0  3  0  0  0  0  0  0
   39.5380   23.1760   36.3130 N   0  0  0  0  0  0  0  0  0  0  0  0
   35.8620   23.0040   31.2790 C   0  0  0  0  0  0  0  0  0  0  0  0
   35.4060   23.0080   30.2580 H   0  0  0  0  0  0  0  0  0  0  0  0
   35.1840   23.6270   31.9010 H   0  0  0  0  0  0  0  0  0  0  0  0
   35.9230   19.2910   31.2250 C   0  0  0  0  0  0  0  0  0  0  0  0
   35.6400   18.9660   32.5540 C   0  0  0  0  0  0  0  0  0  0  0  0
   35.4320   20.0110   33.4600 C   0  0  0  0  0  0  0  0  0  0  0  0
   35.5180   21.2820   32.9810 N   0  0  0  0  0  0  0  0  0  0  0  0
   35.7910   21.5540   31.6930 C   0  0  0  0  0  0  0  0  0  0  0  0
   35.9940   20.5620   30.8130 N   0  0  0  0  0  0  0  0  0  0  0  0
   36.0810   18.4600   30.5360 H   0  0  0  0  0  0  0  0  0  0  0  0
   35.5800   17.9530   32.8980 H   0  0  0  0  0  0  0  0  0  0  0  0
   35.2090   19.8420   34.5020 H   0  0  0  0  0  0  0  0  0  0  0  0
  1  4  1  0  0  0  0
  2  1  1  0  0  0  0
  3  1  1  0  0  0  0
  4  8  1  0  0  0  0
  5  4  2  0  0  0  0
  5  6  1  0  0  0  0
  6  7  1  0  0  0  0
  7 10  1  0  0  0  0
  8  7  2  0  0  0  0
  9  5  1  0  0  0  0
 10 17  2  0  0  0  0
 10 11  1  0  0  0  0
 11 13  2  0  0  0  0
 12 11  1  0  0  0  0
 13 15  1  0  0  0  0
 13 14  1  0  0  0  0
 16 15  2  0  0  0  0
 17 16  1  0  0  0  0
 18  1  1  0  0  0  0
 18 25  1  0  0  0  0
 18 20  1  0  0  0  0
 19 18  1  0  0  0  0
 21 22  1  0  0  0  0
 22 28  1  0  0  0  0
 22 23  2  0  0  0  0
 23 29  1  0  0  0  0
 24 23  1  0  0  0  0
 25 24  2  0  0  0  0
 26 21  2  0  0  0  0
 26 25  1  0  0  0  0
 27 21  1  0  0  0  0
M  END
>  <minimizedAffinity>
-5.08489895

$$$$

 OpenBabel03272506073D

 29 31  0  0  0  0  0  0  0  0999 V2000
   38.2870   25.9950   33.8900 C   0  0  0  0  0  0  0  0  0  0  0  0
   39.2900   25.5240   33.8760 H   0  0  0  0  0  0  0  0  0  0  0  0
   38.4550   27.0220   33.4860 H   0  0  0  0  0  0  0  0  0  0  0  0
   37.3630   25.2980   32.9270 C   0  0  0  0  0  0  0  0  0  0  0  0
   36.5060   26.1140   32.0950 C   0  0  0  0  0  0  0  0  0  0  0  0
   35.6470   24.8670   31.1740 S   0  0  0  0  0  0  0  0  0  0  0  0
   36.5360   23.4470   32.0160 C   0  0  0  0  0  0  0  0  0  0  0  0
   37.2680   24.0050   32.7790 N   0  0  0  0  0  0  0  0  0  0  0  0
   36.4470   27.1670   32.0780 H   0  0  0  0  0  0  0  0  0  0  0  0
   36.2800   22.0010   31.6990 C   0  0  0  0  0  0  0  0  0  0  0  0
   35.1580   21.4600   32.2910 C   0  0  0  0  0  0  0  0  0  0  0  0
   34.5410   22.0670   32.9280 H   0  0  0  0  0  0  0  0  0  0  0  0
   34.9510   20.1340   31.9810 C   0  0  0  0  0  0  0  0  0  0  0  0
   34.0850   19.6540   32.4170 H   0  0  0  0  0  0  0  0  0  0  0  0
   35.8050   19.4240   31.1450 C   0  0  0  0  0  3  0  0  0  0  0  0
   36.9210   20.0510   30.5860 C   0  0  0  0  0  3  0  0  0  0  0  0
   37.1090   21.3480   30.9000 N   0  0  0  0  0  0  0  0  0  0  0  0
   37.7650   25.9700   35.2810 C   0  0  0  0  0  0  0  0  0  0  0  0
   36.6810   25.7040   35.3470 H   0  0  0  0  0  0  0  0  0  0  0  0
   37.8560   26.9470   35.8010 H   0  0  0  0  0  0  0  0  0  0  0  0
   40.1190   23.2990   36.3400 C   0  0  0  0  0  0  0  0  0  0  0  0
   39.5980   22.9120   37.5770 C   0  0  0  0  0  0  0  0  0  0  0  0
   38.4490   23.5610   38.0430 C   0  0  0  0  0  0  0  0  0  0  0  0
   37.9150   24.5320   37.2530 N   0  0  0  0  0  0  0  0  0  0  0  0
   38.4470   24.8750   36.0680 C   0  0  0  0  0  0  0  0  0  0  0  0
   39.5470   24.2630   35.6090 N   0  0  0  0  0  0  0  0  0  0  0  0
   41.0140   22.7790   35.9970 H   0  0  0  0  0  0  0  0  0  0  0  0
   40.0440   22.1420   38.1740 H   0  0  0  0  0  0  0  0  0  0  0  0
   37.9870   23.3200   38.9870 H   0  0  0  0  0  0  0  0  0  0  0  0
  1 18  1  0  0  0  0
  2  1  1  0  0  0  0
  3  1  1  0  0  0  0
  4  1  1  0  0  0  0
  5  4  2  0  0  0  0
  6  7  1  0  0  0  0
  6  5  1  0  0  0  0
  7  8  2  0  0  0  0
  8  4  1  0  0  0  0
  9  5  1  0  0  0  0
 10  7  1  0  0  0  0
 10 11  1  0  0  0  0
 11 12  1  0  0  0  0
 13 11  2  0  0  0  0
 13 14  1  0  0  0  0
 15 13  1  0  0  0  0
 16 17  1  0  0  0  0
 16 15  2  0  0  0  0
 17 10  2  0  0  0  0
 18 19  1  0  0  0  0
 18 20  1  0  0  0  0
 18 25  1  0  0  0  0
 21 22  1  0  0  0  0
 22 23  2  0  0  0  0
 22 28  1  0  0  0  0
 23 29  1  0  0  0  0
 24 23  1  0  0  0  0
 25 24  2  0  0  0  0
 26 25  1  0  0  0  0
 26 21  2  0  0  0  0
 27 21  1  0  0  0  0
M  END
>  <minimizedAffinity>
-4.97022104

$$$$

 OpenBabel03272506073D

 29 31  0  0  0  0  0  0  0  0999 V2000
   37.7130   26.9820   33.7860 C   0  0  0  0  0  0  0  0  0  0  0  0
   37.3960   26.0060   33.3670 H   0  0  0  0  0  0  0  0  0  0  0  0
   38.5590   27.3040   33.1330 H   0  0  0  0  0  0  0  0  0  0  0  0
   36.6250   28.0090   33.6180 C   0  0  0  0  0  0  0  0  0  0  0  0
   35.9810   28.1130   32.3280 C   0  0  0  0  0  0  0  0  0  0  0  0
   34.8180   29.4140   32.6360 S   0  0  0  0  0  0  0  0  0  0  0  0
   35.3440   29.6390   34.4220 C   0  0  0  0  0  0  0  0  0  0  0  0
   36.2080   28.8210   34.5510 N   0  0  0  0  0  0  0  0  0  0  0  0
   36.1850   27.5430   31.4640 H   0  0  0  0  0  0  0  0  0  0  0  0
   34.7300   30.6480   35.3500 C   0  0  0  0  0  0  0  0  0  0  0  0
   35.6260   31.4900   35.9760 C   0  0  0  0  0  0  0  0  0  0  0  0
   36.6780   31.3930   35.7860 H   0  0  0  0  0  0  0  0  0  0  0  0
   35.0320   32.4040   36.8190 C   0  0  0  0  0  0  0  0  0  0  0  0
   35.6840   33.0920   37.3400 H   0  0  0  0  0  0  0  0  0  0  0  0
   33.6560   32.4570   37.0070 C   0  0  0  0  0  3  0  0  0  0  0  0
   32.8200   31.5660   36.3300 C   0  0  0  0  0  3  0  0  0  0  0  0
   33.4170   30.6780   35.5100 N   0  0  0  0  0  0  0  0  0  0  0  0
   38.0860   26.7940   35.2110 C   0  0  0  0  0  0  0  0  0  0  0  0
   37.3540   27.2400   35.9290 H   0  0  0  0  0  0  0  0  0  0  0  0
   39.0640   27.2530   35.4720 H   0  0  0  0  0  0  0  0  0  0  0  0
   37.9610   23.5930   37.0910 C   0  0  0  0  0  0  0  0  0  0  0  0
   38.0530   22.6420   36.0720 C   0  0  0  0  0  0  0  0  0  0  0  0
   38.1570   23.0950   34.7530 C   0  0  0  0  0  0  0  0  0  0  0  0
   38.1620   24.4410   34.5510 N   0  0  0  0  0  0  0  0  0  0  0  0
   38.0720   25.3240   35.5590 C   0  0  0  0  0  0  0  0  0  0  0  0
   37.9710   24.9050   36.8290 N   0  0  0  0  0  0  0  0  0  0  0  0
   37.8820   23.2170   38.1120 H   0  0  0  0  0  0  0  0  0  0  0  0
   38.0470   21.5880   36.2670 H   0  0  0  0  0  0  0  0  0  0  0  0
   38.2320   22.4240   33.9110 H   0  0  0  0  0  0  0  0  0  0  0  0
  1 18  1  0  0  0  0
  2  1  1  0  0  0  0
  3  1  1  0  0  0  0
  4  1  1  0  0  0  0
  4  8  1  0  0  0  0
  5  6  1  0  0  0  0
  5  4  2  0  0  0  0
  6  7  1  0  0  0  0
  7  8  2  0  0  0  0
  7 10  1  0  0  0  0
  9  5  1  0  0  0  0
 10 17  2  0  0  0  0
 10 11  1  0  0  0  0
 11 13  2  0  0  0  0
 12 11  1  0  0  0  0
 13 15  1  0  0  0  0
 13 14  1  0  0  0  0
 16 15  2  0  0  0  0
 17 16  1  0  0  0  0
 18 20  1  0  0  0  0
 18 25  1  0  0  0  0
 18 19  1  0  0  0  0
 21 27  1  0  0  0  0
 22 28  1  0  0  0  0
 22 21  2  0  0  0  0
 23 22  1  0  0  0  0
 24 23  2  0  0  0  0
 24 25  1  0  0  0  0
 25 26  2  0  0  0  0
 26 21  1  0  0  0  0
 29 23  1  0  0  0  0
M  END
>  <minimizedAffinity>
-4.84118128

$$$$

 OpenBabel03272506073D

 29 31  0  0  0  0  0  0  0  0999 V2000
   38.6480   26.1230   34.3620 C   0  0  0  0  0  0  0  0  0  0  0  0
   39.5220   26.0770   33.6810 H   0  0  0  0  0  0  0  0  0  0  0  0
   39.0530   26.5610   35.3050 H   0  0  0  0  0  0  0  0  0  0  0  0
   37.6230   27.0940   33.8400 C   0  0  0  0  0  0  0  0  0  0  0  0
   37.3420   27.0910   32.4210 C   0  0  0  0  0  0  0  0  0  0  0  0
   36.1140   28.3640   32.3190 S   0  0  0  0  0  0  0  0  0  0  0  0
   36.1430   28.7220   34.1600 C   0  0  0  0  0  0  0  0  0  0  0  0
   36.9580   27.9480   34.5690 N   0  0  0  0  0  0  0  0  0  0  0  0
   37.7790   26.4740   31.6850 H   0  0  0  0  0  0  0  0  0  0  0  0
   35.2860   29.7650   34.8180 C   0  0  0  0  0  0  0  0  0  0  0  0
   35.9750   30.7460   35.5000 C   0  0  0  0  0  0  0  0  0  0  0  0
   37.0480   30.7240   35.5330 H   0  0  0  0  0  0  0  0  0  0  0  0
   35.1610   31.6870   36.0920 C   0  0  0  0  0  0  0  0  0  0  0  0
   35.6450   32.4830   36.6420 H   0  0  0  0  0  0  0  0  0  0  0  0
   33.7750   31.6360   35.9970 C   0  0  0  0  0  3  0  0  0  0  0  0
   33.1580   30.6060   35.2840 C   0  0  0  0  0  3  0  0  0  0  0  0
   33.9680   29.6930   34.7120 N   0  0  0  0  0  0  0  0  0  0  0  0
   38.0900   24.7550   34.5200 C   0  0  0  0  0  0  0  0  0  0  0  0
   38.5390   24.0050   33.8230 H   0  0  0  0  0  0  0  0  0  0  0  0
   36.9960   24.7040   34.3340 H   0  0  0  0  0  0  0  0  0  0  0  0
   39.6790   22.8700   37.2980 C   0  0  0  0  0  0  0  0  0  0  0  0
   38.9550   23.3060   38.4100 C   0  0  0  0  0  0  0  0  0  0  0  0
   37.9320   24.2380   38.2080 C   0  0  0  0  0  0  0  0  0  0  0  0
   37.7090   24.6590   36.9340 N   0  0  0  0  0  0  0  0  0  0  0  0
   38.4290   24.2140   35.8890 C   0  0  0  0  0  0  0  0  0  0  0  0
   39.4140   23.3220   36.0660 N   0  0  0  0  0  0  0  0  0  0  0  0
   40.4720   22.1430   37.4780 H   0  0  0  0  0  0  0  0  0  0  0  0
   39.1570   22.9530   39.4020 H   0  0  0  0  0  0  0  0  0  0  0  0
   37.3280   24.6220   39.0150 H   0  0  0  0  0  0  0  0  0  0  0  0
  1 18  1  0  0  0  0
  1  3  1  0  0  0  0
  2  1  1  0  0  0  0
  4  1  1  0  0  0  0
  4  8  1  0  0  0  0
  5  4  2  0  0  0  0
  6  5  1  0  0  0  0
  6  7  1  0  0  0  0
  7  8  2  0  0  0  0
  7 10  1  0  0  0  0
  9  5  1  0  0  0  0
 10 11  1  0  0  0  0
 11 12  1  0  0  0  0
 11 13  2  0  0  0  0
 13 14  1  0  0  0  0
 15 13  1  0  0  0  0
 16 15  2  0  0  0  0
 17 10  2  0  0  0  0
 17 16  1  0  0  0  0
 18 25  1  0  0  0  0
 19 18  1  0  0  0  0
 20 18  1  0  0  0  0
 21 27  1  0  0  0  0
 21 22  1  0  0  0  0
 22 28  1  0  0  0  0
 23 22  2  0  0  0  0
 23 29  1  0  0  0  0
 24 23  1  0  0  0  0
 25 26  1  0  0  0  0
 25 24  2  0  0  0  0
 26 21  2  0  0  0  0
M  END
>  <minimizedAffinity>
-4.83888054

$$$$

 OpenBabel03272506073D

 29 31  0  0  0  0  0  0  0  0999 V2000
   38.2800   24.0610   33.6100 C   0  0  0  0  0  0  0  0  0  0  0  0
   37.7240   23.3010   34.1940 H   0  0  0  0  0  0  0  0  0  0  0  0
   38.8820   23.4680   32.8800 H   0  0  0  0  0  0  0  0  0  0  0  0
   37.3310   24.9040   32.8010 C   0  0  0  0  0  0  0  0  0  0  0  0
   36.5320   24.2480   31.7880 C   0  0  0  0  0  0  0  0  0  0  0  0
   35.6150   25.6200   31.1430 S   0  0  0  0  0  0  0  0  0  0  0  0
   36.4130   26.8650   32.2970 C   0  0  0  0  0  0  0  0  0  0  0  0
   37.1650   26.1910   32.9370 N   0  0  0  0  0  0  0  0  0  0  0  0
   36.5330   23.2230   31.5400 H   0  0  0  0  0  0  0  0  0  0  0  0
   36.0800   28.3300   32.2980 C   0  0  0  0  0  0  0  0  0  0  0  0
   35.8960   28.8890   33.5450 C   0  0  0  0  0  0  0  0  0  0  0  0
   35.9920   28.2810   34.4260 H   0  0  0  0  0  0  0  0  0  0  0  0
   35.5930   30.2320   33.5130 C   0  0  0  0  0  0  0  0  0  0  0  0
   35.4370   30.7270   34.4620 H   0  0  0  0  0  0  0  0  0  0  0  0
   35.4870   30.9420   32.3220 C   0  0  0  0  0  3  0  0  0  0  0  0
   35.6900   30.2960   31.1000 C   0  0  0  0  0  3  0  0  0  0  0  0
   35.9850   28.9820   31.1500 N   0  0  0  0  0  0  0  0  0  0  0  0
   39.0950   24.8810   34.5430 C   0  0  0  0  0  0  0  0  0  0  0  0
   38.7420   25.9380   34.6360 H   0  0  0  0  0  0  0  0  0  0  0  0
   40.1620   24.9580   34.2410 H   0  0  0  0  0  0  0  0  0  0  0  0
   37.9370   24.2600   38.0170 C   0  0  0  0  0  0  0  0  0  0  0  0
   38.8390   23.2930   38.4670 C   0  0  0  0  0  0  0  0  0  0  0  0
   39.8350   22.8580   37.5850 C   0  0  0  0  0  0  0  0  0  0  0  0
   39.8580   23.4110   36.3420 N   0  0  0  0  0  0  0  0  0  0  0  0
   38.9710   24.3410   35.9480 C   0  0  0  0  0  0  0  0  0  0  0  0
   38.0100   24.7670   36.7810 N   0  0  0  0  0  0  0  0  0  0  0  0
   37.1700   24.5850   38.7210 H   0  0  0  0  0  0  0  0  0  0  0  0
   38.7930   22.8780   39.4540 H   0  0  0  0  0  0  0  0  0  0  0  0
   40.5680   22.1150   37.8570 H   0  0  0  0  0  0  0  0  0  0  0  0
  1  2  1  0  0  0  0
  1 18  1  0  0  0  0
  3  1  1  0  0  0  0
  4  8  1  0  0  0  0
  4  1  1  0  0  0  0
  5  4  2  0  0  0  0
  6  5  1  0  0  0  0
  6  7  1  0  0  0  0
  7 10  1  0  0  0  0
  7  8  2  0  0  0  0
  9  5  1  0  0  0  0
 10 11  1  0  0  0  0
 11 12  1  0  0  0  0
 13 11  2  0  0  0  0
 13 14  1  0  0  0  0
 15 13  1  0  0  0  0
 16 17  1  0  0  0  0
 16 15  2  0  0  0  0
 17 10  2  0  0  0  0
 18 19  1  0  0  0  0
 18 25  1  0  0  0  0
 20 18  1  0  0  0  0
 21 22  1  0  0  0  0
 21 27  1  0  0  0  0
 22 28  1  0  0  0  0
 23 29  1  0  0  0  0
 23 22  2  0  0  0  0
 24 23  1  0  0  0  0
 25 24  2  0  0  0  0
 25 26  1  0  0  0  0
 26 21  2  0  0  0  0
M  END
>  <minimizedAffinity>
-4.75019932

$$$$

 OpenBabel03272506073D

 29 31  0  0  0  0  0  0  0  0999 V2000
   36.1390   28.9800   34.4950 C   0  0  0  0  0  0  0  0  0  0  0  0
   35.5100   28.9940   35.4080 H   0  0  0  0  0  0  0  0  0  0  0  0
   36.9760   29.6830   34.7230 H   0  0  0  0  0  0  0  0  0  0  0  0
   36.7590   27.6220   34.3010 C   0  0  0  0  0  0  0  0  0  0  0  0
   36.8290   27.0910   32.9570 C   0  0  0  0  0  0  0  0  0  0  0  0
   37.6120   25.5290   33.2530 S   0  0  0  0  0  0  0  0  0  0  0  0
   37.7360   25.7940   35.1050 C   0  0  0  0  0  0  0  0  0  0  0  0
   37.2430   26.8740   35.2540 N   0  0  0  0  0  0  0  0  0  0  0  0
   36.4900   27.5520   32.0700 H   0  0  0  0  0  0  0  0  0  0  0  0
   38.3390   24.7940   36.0500 C   0  0  0  0  0  0  0  0  0  0  0  0
   39.4370   24.1150   35.5630 C   0  0  0  0  0  0  0  0  0  0  0  0
   39.7990   24.3190   34.5720 H   0  0  0  0  0  0  0  0  0  0  0  0
   39.9670   23.2050   36.4520 C   0  0  0  0  0  0  0  0  0  0  0  0
   40.8310   22.6420   36.1260 H   0  0  0  0  0  0  0  0  0  0  0  0
   39.4300   23.0050   37.7190 C   0  0  0  0  0  3  0  0  0  0  0  0
   38.3160   23.7380   38.1320 C   0  0  0  0  0  3  0  0  0  0  0  0
   37.8090   24.6230   37.2500 N   0  0  0  0  0  0  0  0  0  0  0  0
   35.3080   29.3840   33.3330 C   0  0  0  0  0  0  0  0  0  0  0  0
   35.3590   28.6700   32.4750 H   0  0  0  0  0  0  0  0  0  0  0  0
   35.5980   30.3690   32.9080 H   0  0  0  0  0  0  0  0  0  0  0  0
   31.6000   29.2200   33.1790 C   0  0  0  0  0  0  0  0  0  0  0  0
   31.2360   29.3670   34.5200 C   0  0  0  0  0  0  0  0  0  0  0  0
   32.2540   29.5210   35.4670 C   0  0  0  0  0  0  0  0  0  0  0  0
   33.5370   29.5170   35.0150 N   0  0  0  0  0  0  0  0  0  0  0  0
   33.8460   29.3740   33.7150 C   0  0  0  0  0  0  0  0  0  0  0  0
   32.8820   29.2240   32.7950 N   0  0  0  0  0  0  0  0  0  0  0  0
   30.7900   29.1020   32.4580 H   0  0  0  0  0  0  0  0  0  0  0  0
   30.2140   29.3660   34.8420 H   0  0  0  0  0  0  0  0  0  0  0  0
   32.0550   29.6400   36.5210 H   0  0  0  0  0  0  0  0  0  0  0  0
  1  3  1  0  0  0  0
  1  2  1  0  0  0  0
  4  1  1  0  0  0  0
  4  8  1  0  0  0  0
  5  6  1  0  0  0  0
  5  4  2  0  0  0  0
  6  7  1  0  0  0  0
  7  8  2  0  0  0  0
  7 10  1  0  0  0  0
  9  5  1  0  0  0  0
 10 17  1  0  0  0  0
 11 10  2  0  0  0  0
 11 13  1  0  0  0  0
 12 11  1  0  0  0  0
 13 15  2  0  0  0  0
 14 13  1  0  0  0  0
 15 16  1  0  0  0  0
 17 16  2  0  0  0  0
 18 25  1  0  0  0  0
 18  1  1  0  0  0  0
 19 18  1  0  0  0  0
 20 18  1  0  0  0  0
 21 22  1  0  0  0  0
 22 28  1  0  0  0  0
 22 23  2  0  0  0  0
 23 29  1  0  0  0  0
 24 23  1  0  0  0  0
 25 24  2  0  0  0  0
 26 21  2  0  0  0  0
 26 25  1  0  0  0  0
 27 21  1  0  0  0  0
M  END
>  <minimizedAffinity>
-4.7334075

$$$$

 OpenBabel03272506073D

 29 31  0  0  0  0  0  0  0  0999 V2000
   36.7610   26.7690   32.0820 C   0  0  0  0  0  0  0  0  0  0  0  0
   37.7020   26.7650   31.4950 H   0  0  0  0  0  0  0  0  0  0  0  0
   37.0550   26.3710   33.0820 H   0  0  0  0  0  0  0  0  0  0  0  0
   36.2830   28.1800   32.3030 C   0  0  0  0  0  0  0  0  0  0  0  0
   36.3210   29.0950   31.1840 C   0  0  0  0  0  0  0  0  0  0  0  0
   35.6800   30.5670   31.9320 S   0  0  0  0  0  0  0  0  0  0  0  0
   35.4530   29.7710   33.6150 C   0  0  0  0  0  0  0  0  0  0  0  0
   35.8330   28.6520   33.4330 N   0  0  0  0  0  0  0  0  0  0  0  0
   36.6510   28.8900   30.2020 H   0  0  0  0  0  0  0  0  0  0  0  0
   34.9100   30.4980   34.8120 C   0  0  0  0  0  0  0  0  0  0  0  0
   35.8340   31.2410   35.5160 C   0  0  0  0  0  0  0  0  0  0  0  0
   36.8580   31.2690   35.1950 H   0  0  0  0  0  0  0  0  0  0  0  0
   35.3050   31.8950   36.6070 C   0  0  0  0  0  0  0  0  0  0  0  0
   35.9820   32.4950   37.2000 H   0  0  0  0  0  0  0  0  0  0  0  0
   33.9600   31.8020   36.9500 C   0  0  0  0  0  3  0  0  0  0  0  0
   33.0920   31.0250   36.1790 C   0  0  0  0  0  3  0  0  0  0  0  0
   33.6260   30.3920   35.1160 N   0  0  0  0  0  0  0  0  0  0  0  0
   35.7500   25.9430   31.3730 C   0  0  0  0  0  0  0  0  0  0  0  0
   35.5770   26.2580   30.3140 H   0  0  0  0  0  0  0  0  0  0  0  0
   34.7480   25.9730   31.8520 H   0  0  0  0  0  0  0  0  0  0  0  0
   37.8970   22.9730   30.7730 C   0  0  0  0  0  0  0  0  0  0  0  0
   37.0280   21.9130   31.0450 C   0  0  0  0  0  0  0  0  0  0  0  0
   35.7170   22.2160   31.4300 C   0  0  0  0  0  0  0  0  0  0  0  0
   35.3770   23.5310   31.5140 N   0  0  0  0  0  0  0  0  0  0  0  0
   36.2430   24.5220   31.2440 C   0  0  0  0  0  0  0  0  0  0  0  0
   37.5030   24.2470   30.8740 N   0  0  0  0  0  0  0  0  0  0  0  0
   38.9130   22.7130   30.4740 H   0  0  0  0  0  0  0  0  0  0  0  0
   37.3290   20.8880   30.9680 H   0  0  0  0  0  0  0  0  0  0  0  0
   34.9870   21.4550   31.6570 H   0  0  0  0  0  0  0  0  0  0  0  0
  1  4  1  0  0  0  0
  1  3  1  0  0  0  0
  2  1  1  0  0  0  0
  4  8  1  0  0  0  0
  5  6  1  0  0  0  0
  5  4  2  0  0  0  0
  6  7  1  0  0  0  0
  7 10  1  0  0  0  0
  8  7  2  0  0  0  0
  9  5  1  0  0  0  0
 10 17  2  0  0  0  0
 10 11  1  0  0  0  0
 11 13  2  0  0  0  0
 12 11  1  0  0  0  0
 13 15  1  0  0  0  0
 13 14  1  0  0  0  0
 16 15  2  0  0  0  0
 17 16  1  0  0  0  0
 18 20  1  0  0  0  0
 18  1  1  0  0  0  0
 19 18  1  0  0  0  0
 21 26  2  0  0  0  0
 21 22  1  0  0  0  0
 22 23  2  0  0  0  0
 23 24  1  0  0  0  0
 23 29  1  0  0  0  0
 25 18  1  0  0  0  0
 25 24  2  0  0  0  0
 26 25  1  0  0  0  0
 27 21  1  0  0  0  0
 28 22  1  0  0  0  0
M  END
>  <minimizedAffinity>
-4.62991381

$$$$

 OpenBabel03272506073D

 29 31  0  0  0  0  0  0  0  0999 V2000
   37.1000   25.5370   31.6940 C   0  0  0  0  0  0  0  0  0  0  0  0
   37.1970   25.2510   30.6270 H   0  0  0  0  0  0  0  0  0  0  0  0
   36.0000   25.6310   31.8580 H   0  0  0  0  0  0  0  0  0  0  0  0
   37.5740   24.4200   32.5850 C   0  0  0  0  0  0  0  0  0  0  0  0
   37.7930   23.1200   31.9900 C   0  0  0  0  0  0  0  0  0  0  0  0
   38.3250   22.1900   33.4010 S   0  0  0  0  0  0  0  0  0  0  0  0
   38.1830   23.6440   34.5780 C   0  0  0  0  0  0  0  0  0  0  0  0
   37.8070   24.5270   33.8650 N   0  0  0  0  0  0  0  0  0  0  0  0
   37.6580   22.8500   30.9790 H   0  0  0  0  0  0  0  0  0  0  0  0
   38.5040   23.5620   36.0430 C   0  0  0  0  0  0  0  0  0  0  0  0
   37.6450   24.2550   36.8700 C   0  0  0  0  0  0  0  0  0  0  0  0
   36.8210   24.8020   36.4530 H   0  0  0  0  0  0  0  0  0  0  0  0
   37.9650   24.1610   38.2070 C   0  0  0  0  0  0  0  0  0  0  0  0
   37.3270   24.6840   38.9060 H   0  0  0  0  0  0  0  0  0  0  0  0
   39.0570   23.4280   38.6600 C   0  0  0  0  0  3  0  0  0  0  0  0
   39.8750   22.7540   37.7510 C   0  0  0  0  0  3  0  0  0  0  0  0
   39.5490   22.8580   36.4470 N   0  0  0  0  0  0  0  0  0  0  0  0
   37.8570   26.7930   31.9250 C   0  0  0  0  0  0  0  0  0  0  0  0
   38.2940   27.2300   30.9930 H   0  0  0  0  0  0  0  0  0  0  0  0
   38.7180   26.6650   32.6160 H   0  0  0  0  0  0  0  0  0  0  0  0
   35.4830   29.6460   32.0550 C   0  0  0  0  0  0  0  0  0  0  0  0
   35.2610   29.7920   33.4270 C   0  0  0  0  0  0  0  0  0  0  0  0
   35.9210   28.9180   34.2980 C   0  0  0  0  0  0  0  0  0  0  0  0
   36.7390   27.9810   33.7470 N   0  0  0  0  0  0  0  0  0  0  0  0
   36.9260   27.8740   32.4200 C   0  0  0  0  0  0  0  0  0  0  0  0
   36.3000   28.7030   31.5720 N   0  0  0  0  0  0  0  0  0  0  0  0
   34.9590   30.3390   31.3950 H   0  0  0  0  0  0  0  0  0  0  0  0
   34.6100   30.5420   33.8280 H   0  0  0  0  0  0  0  0  0  0  0  0
   35.8020   28.9660   35.3700 H   0  0  0  0  0  0  0  0  0  0  0  0
  1  3  1  0  0  0  0
  1 18  1  0  0  0  0
  1  4  1  0  0  0  0
  2  1  1  0  0  0  0
  4  8  1  0  0  0  0
  5  4  2  0  0  0  0
  5  6  1  0  0  0  0
  6  7  1  0  0  0  0
  7 10  1  0  0  0  0
  8  7  2  0  0  0  0
  9  5  1  0  0  0  0
 10 17  2  0  0  0  0
 10 11  1  0  0  0  0
 11 13  2  0  0  0  0
 12 11  1  0  0  0  0
 13 15  1  0  0  0  0
 13 14  1  0  0  0  0
 16 15  2  0  0  0  0
 17 16  1  0  0  0  0
 18 25  1  0  0  0  0
 18 20  1  0  0  0  0
 19 18  1  0  0  0  0
 21 22  1  0  0  0  0
 22 28  1  0  0  0  0
 22 23  2  0  0  0  0
 23 29  1  0  0  0  0
 24 23  1  0  0  0  0
 25 24  2  0  0  0  0
 26 21  2  0  0  0  0
 26 25  1  0  0  0  0
 27 21  1  0  0  0  0
M  END
>  <minimizedAffinity>
-4.58521366

$$$$

 OpenBabel03272506073D

 29 31  0  0  0  0  0  0  0  0999 V2000
   36.5280   27.8900   33.1900 C   0  0  0  0  0  0  0  0  0  0  0  0
   37.1920   28.5360   32.5820 H   0  0  0  0  0  0  0  0  0  0  0  0
   35.6470   27.6970   32.5320 H   0  0  0  0  0  0  0  0  0  0  0  0
   37.1770   26.5560   33.4450 C   0  0  0  0  0  0  0  0  0  0  0  0
   37.4640   25.7100   32.3070 C   0  0  0  0  0  0  0  0  0  0  0  0
   38.1970   24.3090   33.1060 S   0  0  0  0  0  0  0  0  0  0  0  0
   38.0220   25.0330   34.8270 C   0  0  0  0  0  0  0  0  0  0  0  0
   37.5070   26.0930   34.6190 N   0  0  0  0  0  0  0  0  0  0  0  0
   37.2680   25.9190   31.2910 H   0  0  0  0  0  0  0  0  0  0  0  0
   38.4720   24.3290   36.0750 C   0  0  0  0  0  0  0  0  0  0  0  0
   37.7590   24.6420   37.2140 C   0  0  0  0  0  0  0  0  0  0  0  0
   36.9500   25.3460   37.1650 H   0  0  0  0  0  0  0  0  0  0  0  0
   38.1950   23.9810   38.3410 C   0  0  0  0  0  0  0  0  0  0  0  0
   37.6750   24.1850   39.2670 H   0  0  0  0  0  0  0  0  0  0  0  0
   39.2570   23.0830   38.3120 C   0  0  0  0  0  3  0  0  0  0  0  0
   39.9230   22.8230   37.1130 C   0  0  0  0  0  3  0  0  0  0  0  0
   39.4850   23.4790   36.0200 N   0  0  0  0  0  0  0  0  0  0  0  0
   36.1960   28.5980   34.4530 C   0  0  0  0  0  0  0  0  0  0  0  0
   37.0690   29.1200   34.9170 H   0  0  0  0  0  0  0  0  0  0  0  0
   35.8090   27.9220   35.2450 H   0  0  0  0  0  0  0  0  0  0  0  0
   34.6670   31.9620   34.0810 C   0  0  0  0  0  0  0  0  0  0  0  0
   33.3750   31.6600   33.6450 C   0  0  0  0  0  0  0  0  0  0  0  0
   33.0320   30.3130   33.4810 C   0  0  0  0  0  0  0  0  0  0  0  0
   33.9870   29.3850   33.7590 N   0  0  0  0  0  0  0  0  0  0  0  0
   35.2200   29.7170   34.1770 C   0  0  0  0  0  0  0  0  0  0  0  0
   35.5640   31.0030   34.3390 N   0  0  0  0  0  0  0  0  0  0  0  0
   34.9120   33.0180   34.2030 H   0  0  0  0  0  0  0  0  0  0  0  0
   32.6470   32.4170   33.4350 H   0  0  0  0  0  0  0  0  0  0  0  0
   32.0550   29.9990   33.1480 H   0  0  0  0  0  0  0  0  0  0  0  0
  1  4  1  0  0  0  0
  1 18  1  0  0  0  0
  2  1  1  0  0  0  0
  3  1  1  0  0  0  0
  4  8  1  0  0  0  0
  5  6  1  0  0  0  0
  5  4  2  0  0  0  0
  6  7  1  0  0  0  0
  7 10  1  0  0  0  0
  8  7  2  0  0  0  0
  9  5  1  0  0  0  0
 10 11  1  0  0  0  0
 11 13  2  0  0  0  0
 12 11  1  0  0  0  0
 13 14  1  0  0  0  0
 15 13  1  0  0  0  0
 16 15  2  0  0  0  0
 17 10  2  0  0  0  0
 17 16  1  0  0  0  0
 18 19  1  0  0  0  0
 18 20  1  0  0  0  0
 21 27  1  0  0  0  0
 21 26  1  0  0  0  0
 22 21  2  0  0  0  0
 23 22  1  0  0  0  0
 23 24  2  0  0  0  0
 24 25  1  0  0  0  0
 25 26  2  0  0  0  0
 25 18  1  0  0  0  0
 28 22  1  0  0  0  0
 29 23  1  0  0  0  0
M  END
>  <minimizedAffinity>
-4.55824375

$$$$
