
 OpenBabel03272509563D

 42 45  0  0  0  0  0  0  0  0999 V2000
   36.3560   26.1260   31.7850 C   0  0  0  0  0  0  0  0  0  0  0  0
   35.3920   25.5890   31.8830 H   0  0  0  0  0  0  0  0  0  0  0  0
   36.2600   26.7850   30.8810 H   0  0  0  0  0  0  0  0  0  0  0  0
   37.5490   25.2540   31.5990 C   0  0  0  0  0  0  0  0  0  0  0  0
   38.4570   25.8480   31.7010 H   0  0  0  0  0  0  0  0  0  0  0  0
   37.5930   24.8170   30.5670 H   0  0  0  0  0  0  0  0  0  0  0  0
   37.5820   24.1090   32.5570 C   0  0  0  0  0  0  0  0  0  0  0  0
   37.1910   22.8710   32.0830 C   0  0  0  0  0  0  0  0  0  0  0  0
   37.1870   21.7630   32.8840 C   0  0  0  0  0  0  0  0  0  0  0  0
   37.5700   21.8790   34.1580 N   0  0  0  0  0  0  0  0  0  0  0  0
   37.9520   23.0970   34.6170 C   0  0  0  0  0  0  0  0  0  0  0  0
   37.9650   24.2040   33.8480 N   0  0  0  0  0  0  0  0  0  0  0  0
   36.8780   22.7760   31.0440 H   0  0  0  0  0  0  0  0  0  0  0  0
   36.8670   20.8240   32.4420 H   0  0  0  0  0  0  0  0  0  0  0  0
   38.3630   23.1720   36.0210 C   0  0  0  0  0  0  0  0  0  0  0  0
   39.5910   22.6850   36.4320 C   0  0  0  0  0  0  0  0  0  0  0  0
   40.2390   22.2480   35.6910 H   0  0  0  0  0  0  0  0  0  0  0  0
   40.0110   22.7390   37.7490 C   0  0  0  0  0  0  0  0  0  0  0  0
   40.9820   22.3480   38.0390 H   0  0  0  0  0  0  0  0  0  0  0  0
   39.1170   23.3200   38.6550 C   0  0  0  0  0  3  0  0  0  0  0  0
   37.8930   23.7980   38.2090 C   0  0  0  0  0  3  0  0  0  0  0  0
   37.5340   23.7210   36.9200 N   0  0  0  0  0  0  0  0  0  0  0  0
   36.5590   27.0340   32.8740 O   0  0  0  0  0  0  0  0  0  0  0  0
   36.4000   30.3690   31.5170 C   0  0  0  0  0  0  0  0  0  0  0  0
   35.7860   31.0570   32.5960 C   0  0  0  0  0  0  0  0  0  0  0  0
   35.4660   30.3190   33.7260 C   0  0  0  0  0  0  0  0  0  0  0  0
   35.7820   28.9770   33.6860 N   0  0  0  0  0  0  0  0  0  0  0  0
   36.3540   28.3690   32.6610 C   0  0  0  0  0  0  0  0  0  0  0  0
   36.6660   29.0810   31.5620 N   0  0  0  0  0  0  0  0  0  0  0  0
   36.6360   30.9840   30.6470 H   0  0  0  0  0  0  0  0  0  0  0  0
   35.5470   32.1040   32.6130 H   0  0  0  0  0  0  0  0  0  0  0  0
   36.6840   31.8540   35.8570 F   0  0  0  0  0  0  0  0  0  0  0  0
   35.4020   31.5500   35.9270 C   0  0  0  0  0  0  0  0  0  0  0  0
   34.8430   30.8290   34.9190 C   0  0  0  0  0  0  0  0  0  0  0  0
   33.4940   30.5720   35.1060 C   0  0  0  0  0  0  0  0  0  0  0  0
   32.7780   31.0010   36.2000 C   0  0  0  0  0  0  0  0  0  0  0  0
   33.3880   31.7270   37.1930 C   0  0  0  0  0  0  0  0  0  0  0  0
   34.7160   31.9990   37.0440 C   0  0  0  0  0  0  0  0  0  0  0  0
   32.9440   29.9950   34.3490 H   0  0  0  0  0  0  0  0  0  0  0  0
   31.7260   30.7590   36.2710 H   0  0  0  0  0  0  0  0  0  0  0  0
   32.7800   32.0360   38.0270 H   0  0  0  0  0  0  0  0  0  0  0  0
   35.2160   32.5700   37.8130 H   0  0  0  0  0  0  0  0  0  0  0  0
  1  2  1  0  0  0  0
  1 23  1  0  0  0  0
  3  1  1  0  0  0  0
  4  5  1  0  0  0  0
  4  1  1  0  0  0  0
  4  7  1  0  0  0  0
  6  4  1  0  0  0  0
  7 12  1  0  0  0  0
  8  7  2  0  0  0  0
  8  9  1  0  0  0  0
  9 10  2  0  0  0  0
 10 11  1  0  0  0  0
 11 15  1  0  0  0  0
 12 11  2  0  0  0  0
 13  8  1  0  0  0  0
 14  9  1  0  0  0  0
 15 16  2  0  0  0  0
 15 22  1  0  0  0  0
 16 18  1  0  0  0  0
 17 16  1  0  0  0  0
 18 19  1  0  0  0  0
 18 20  2  0  0  0  0
 21 20  1  0  0  0  0
 22 21  2  0  0  0  0
 24 29  2  0  0  0  0
 24 25  1  0  0  0  0
 25 31  1  0  0  0  0
 25 26  2  0  0  0  0
 26 34  1  0  0  0  0
 27 26  1  0  0  0  0
 28 23  1  0  0  0  0
 28 27  2  0  0  0  0
 29 28  1  0  0  0  0
 30 24  1  0  0  0  0
 32 33  1  0  0  0  0
 33 38  1  0  0  0  0
 34 35  1  0  0  0  0
 34 33  2  0  0  0  0
 35 36  2  0  0  0  0
 36 40  1  0  0  0  0
 36 37  1  0  0  0  0
 37 41  1  0  0  0  0
 38 37  2  0  0  0  0
 38 42  1  0  0  0  0
 39 35  1  0  0  0  0
M  END
>  <minimizedAffinity>
-6.53978252

$$$$

 OpenBabel03272509563D

 42 45  0  0  0  0  0  0  0  0999 V2000
   37.8660   27.2540   35.0980 C   0  0  0  0  0  0  0  0  0  0  0  0
   37.9430   28.3200   35.3900 H   0  0  0  0  0  0  0  0  0  0  0  0
   37.2630   26.7510   35.9010 H   0  0  0  0  0  0  0  0  0  0  0  0
   39.1660   26.5380   34.9760 C   0  0  0  0  0  0  0  0  0  0  0  0
   39.9670   27.1630   35.3660 H   0  0  0  0  0  0  0  0  0  0  0  0
   39.4370   26.3390   33.9060 H   0  0  0  0  0  0  0  0  0  0  0  0
   39.1650   25.2190   35.6760 C   0  0  0  0  0  0  0  0  0  0  0  0
   38.0830   24.9280   36.4850 C   0  0  0  0  0  0  0  0  0  0  0  0
   37.9920   23.7460   37.1670 C   0  0  0  0  0  0  0  0  0  0  0  0
   38.9730   22.8490   37.0480 N   0  0  0  0  0  0  0  0  0  0  0  0
   40.0330   23.1390   36.2520 C   0  0  0  0  0  0  0  0  0  0  0  0
   40.1460   24.2970   35.5700 N   0  0  0  0  0  0  0  0  0  0  0  0
   37.2820   25.6600   36.5830 H   0  0  0  0  0  0  0  0  0  0  0  0
   37.1130   23.5890   37.7840 H   0  0  0  0  0  0  0  0  0  0  0  0
   41.0820   22.1230   36.1560 C   0  0  0  0  0  0  0  0  0  0  0  0
   41.5780   21.4990   37.2870 C   0  0  0  0  0  0  0  0  0  0  0  0
   41.1700   21.7810   38.2430 H   0  0  0  0  0  0  0  0  0  0  0  0
   42.5670   20.5340   37.2330 C   0  0  0  0  0  0  0  0  0  0  0  0
   42.9350   20.0630   38.1400 H   0  0  0  0  0  0  0  0  0  0  0  0
   43.0480   20.2180   35.9570 C   0  0  0  0  0  3  0  0  0  0  0  0
   42.5290   20.8640   34.8430 C   0  0  0  0  0  3  0  0  0  0  0  0
   41.5680   21.7930   34.9500 N   0  0  0  0  0  0  0  0  0  0  0  0
   37.0870   27.0950   33.9080 O   0  0  0  0  0  0  0  0  0  0  0  0
   35.6950   29.6290   31.7550 C   0  0  0  0  0  0  0  0  0  0  0  0
   35.0930   30.4810   32.7160 C   0  0  0  0  0  0  0  0  0  0  0  0
   35.2080   30.1230   34.0520 C   0  0  0  0  0  0  0  0  0  0  0  0
   35.9050   28.9600   34.3120 N   0  0  0  0  0  0  0  0  0  0  0  0
   36.4530   28.1890   33.3880 C   0  0  0  0  0  0  0  0  0  0  0  0
   36.3430   28.5340   32.0910 N   0  0  0  0  0  0  0  0  0  0  0  0
   35.5820   29.9450   30.7170 H   0  0  0  0  0  0  0  0  0  0  0  0
   34.5530   31.3840   32.4990 H   0  0  0  0  0  0  0  0  0  0  0  0
   36.6290   31.7960   35.9370 F   0  0  0  0  0  0  0  0  0  0  0  0
   35.3260   31.6380   36.0640 C   0  0  0  0  0  0  0  0  0  0  0  0
   34.6710   30.8500   35.1720 C   0  0  0  0  0  0  0  0  0  0  0  0
   33.3080   30.7600   35.4080 C   0  0  0  0  0  0  0  0  0  0  0  0
   32.6680   31.4040   36.4420 C   0  0  0  0  0  0  0  0  0  0  0  0
   33.3730   32.1920   37.3190 C   0  0  0  0  0  0  0  0  0  0  0  0
   34.7180   32.3020   37.1180 C   0  0  0  0  0  0  0  0  0  0  0  0
   32.6830   30.1460   34.7440 H   0  0  0  0  0  0  0  0  0  0  0  0
   31.5990   31.2840   36.5590 H   0  0  0  0  0  0  0  0  0  0  0  0
   32.8220   32.6710   38.1100 H   0  0  0  0  0  0  0  0  0  0  0  0
   35.2930   32.9170   37.7950 H   0  0  0  0  0  0  0  0  0  0  0  0
  1  2  1  0  0  0  0
  1  3  1  0  0  0  0
  4  1  1  0  0  0  0
  4  5  1  0  0  0  0
  4  7  1  0  0  0  0
  6  4  1  0  0  0  0
  7  8  1  0  0  0  0
  8 13  1  0  0  0  0
  8  9  2  0  0  0  0
  9 14  1  0  0  0  0
 10  9  1  0  0  0  0
 11 10  2  0  0  0  0
 12  7  2  0  0  0  0
 12 11  1  0  0  0  0
 15 11  1  0  0  0  0
 15 16  1  0  0  0  0
 16 17  1  0  0  0  0
 18 16  2  0  0  0  0
 18 19  1  0  0  0  0
 20 18  1  0  0  0  0
 21 22  1  0  0  0  0
 21 20  2  0  0  0  0
 22 15  2  0  0  0  0
 23  1  1  0  0  0  0
 24 29  2  0  0  0  0
 24 25  1  0  0  0  0
 25 26  2  0  0  0  0
 26 27  1  0  0  0  0
 26 34  1  0  0  0  0
 28 23  1  0  0  0  0
 28 27  2  0  0  0  0
 29 28  1  0  0  0  0
 30 24  1  0  0  0  0
 31 25  1  0  0  0  0
 32 33  1  0  0  0  0
 33 38  1  0  0  0  0
 34 35  1  0  0  0  0
 34 33  2  0  0  0  0
 35 36  2  0  0  0  0
 36 40  1  0  0  0  0
 36 37  1  0  0  0  0
 37 41  1  0  0  0  0
 38 37  2  0  0  0  0
 38 42  1  0  0  0  0
 39 35  1  0  0  0  0
M  END
>  <minimizedAffinity>
-6.39789677

$$$$

 OpenBabel03272509563D

 42 45  0  0  0  0  0  0  0  0999 V2000
   35.4310   21.5380   32.3750 C   0  0  0  0  0  0  0  0  0  0  0  0
   34.4420   21.0520   32.4880 H   0  0  0  0  0  0  0  0  0  0  0  0
   35.5640   22.1940   33.2760 H   0  0  0  0  0  0  0  0  0  0  0  0
   35.5820   22.3850   31.1590 C   0  0  0  0  0  0  0  0  0  0  0  0
   34.6880   22.3020   30.5410 H   0  0  0  0  0  0  0  0  0  0  0  0
   36.4270   22.0400   30.5080 H   0  0  0  0  0  0  0  0  0  0  0  0
   35.8410   23.8190   31.4840 C   0  0  0  0  0  0  0  0  0  0  0  0
   35.1340   24.7710   30.7750 C   0  0  0  0  0  0  0  0  0  0  0  0
   35.3020   26.1090   31.0020 C   0  0  0  0  0  0  0  0  0  0  0  0
   36.1740   26.5070   31.9310 N   0  0  0  0  0  0  0  0  0  0  0  0
   36.8660   25.5680   32.6240 C   0  0  0  0  0  0  0  0  0  0  0  0
   36.7180   24.2440   32.4190 N   0  0  0  0  0  0  0  0  0  0  0  0
   34.4220   24.4470   30.0160 H   0  0  0  0  0  0  0  0  0  0  0  0
   34.7110   26.7980   30.4060 H   0  0  0  0  0  0  0  0  0  0  0  0
   37.8100   26.0560   33.6310 C   0  0  0  0  0  0  0  0  0  0  0  0
   37.3960   26.8980   34.6490 C   0  0  0  0  0  0  0  0  0  0  0  0
   36.3590   27.1850   34.6810 H   0  0  0  0  0  0  0  0  0  0  0  0
   38.2600   27.3770   35.6170 C   0  0  0  0  0  0  0  0  0  0  0  0
   37.9030   28.0360   36.4030 H   0  0  0  0  0  0  0  0  0  0  0  0
   39.5920   26.9610   35.5130 C   0  0  0  0  0  3  0  0  0  0  0  0
   39.9730   26.1170   34.4790 C   0  0  0  0  0  3  0  0  0  0  0  0
   39.0950   25.6800   33.5650 N   0  0  0  0  0  0  0  0  0  0  0  0
   36.4950   20.5840   32.4610 O   0  0  0  0  0  0  0  0  0  0  0  0
   39.9940   21.4470   32.4650 C   0  0  0  0  0  0  0  0  0  0  0  0
   40.1140   22.0300   33.7530 C   0  0  0  0  0  0  0  0  0  0  0  0
   38.9730   22.0880   34.5380 C   0  0  0  0  0  0  0  0  0  0  0  0
   37.8240   21.5650   33.9820 N   0  0  0  0  0  0  0  0  0  0  0  0
   37.7490   21.0280   32.7760 C   0  0  0  0  0  0  0  0  0  0  0  0
   38.8550   20.9710   32.0100 N   0  0  0  0  0  0  0  0  0  0  0  0
   40.9140   21.4210   31.8780 H   0  0  0  0  0  0  0  0  0  0  0  0
   41.0170   22.4340   34.1740 H   0  0  0  0  0  0  0  0  0  0  0  0
   40.7690   21.6560   36.7660 F   0  0  0  0  0  0  0  0  0  0  0  0
   39.7220   22.4440   36.9200 C   0  0  0  0  0  0  0  0  0  0  0  0
   38.8870   22.6380   35.8660 C   0  0  0  0  0  0  0  0  0  0  0  0
   37.8250   23.4830   36.1490 C   0  0  0  0  0  0  0  0  0  0  0  0
   37.6270   24.0750   37.3750 C   0  0  0  0  0  0  0  0  0  0  0  0
   38.4990   23.8490   38.4110 C   0  0  0  0  0  0  0  0  0  0  0  0
   39.5560   23.0210   38.1690 C   0  0  0  0  0  0  0  0  0  0  0  0
   37.0890   23.7080   35.3650 H   0  0  0  0  0  0  0  0  0  0  0  0
   36.7720   24.7240   37.5170 H   0  0  0  0  0  0  0  0  0  0  0  0
   38.2950   24.3370   39.3490 H   0  0  0  0  0  0  0  0  0  0  0  0
   40.2560   22.8290   38.9690 H   0  0  0  0  0  0  0  0  0  0  0  0
  1 23  1  0  0  0  0
  1  2  1  0  0  0  0
  1  3  1  0  0  0  0
  4  7  1  0  0  0  0
  4  1  1  0  0  0  0
  5  4  1  0  0  0  0
  6  4  1  0  0  0  0
  7 12  1  0  0  0  0
  8  9  1  0  0  0  0
  8  7  2  0  0  0  0
  9 10  2  0  0  0  0
 10 11  1  0  0  0  0
 11 15  1  0  0  0  0
 12 11  2  0  0  0  0
 13  8  1  0  0  0  0
 14  9  1  0  0  0  0
 15 16  1  0  0  0  0
 16 17  1  0  0  0  0
 16 18  2  0  0  0  0
 18 19  1  0  0  0  0
 20 18  1  0  0  0  0
 21 20  2  0  0  0  0
 22 15  2  0  0  0  0
 22 21  1  0  0  0  0
 23 28  1  0  0  0  0
 24 25  1  0  0  0  0
 25 31  1  0  0  0  0
 25 26  2  0  0  0  0
 26 34  1  0  0  0  0
 27 26  1  0  0  0  0
 28 27  2  0  0  0  0
 29 24  2  0  0  0  0
 29 28  1  0  0  0  0
 30 24  1  0  0  0  0
 32 33  1  0  0  0  0
 33 38  1  0  0  0  0
 34 35  1  0  0  0  0
 34 33  2  0  0  0  0
 35 36  2  0  0  0  0
 36 40  1  0  0  0  0
 36 37  1  0  0  0  0
 37 41  1  0  0  0  0
 38 37  2  0  0  0  0
 38 42  1  0  0  0  0
 39 35  1  0  0  0  0
M  END
>  <minimizedAffinity>
-6.35080957

$$$$

 OpenBabel03272509563D

 42 45  0  0  0  0  0  0  0  0999 V2000
   38.5180   26.3630   34.5810 C   0  0  0  0  0  0  0  0  0  0  0  0
   39.5050   26.6430   35.0000 H   0  0  0  0  0  0  0  0  0  0  0  0
   38.0380   27.3190   34.2400 H   0  0  0  0  0  0  0  0  0  0  0  0
   37.5930   25.6950   35.5380 C   0  0  0  0  0  0  0  0  0  0  0  0
   36.7900   25.2030   34.9900 H   0  0  0  0  0  0  0  0  0  0  0  0
   37.0840   26.4310   36.2140 H   0  0  0  0  0  0  0  0  0  0  0  0
   38.2870   24.7070   36.4170 C   0  0  0  0  0  0  0  0  0  0  0  0
   37.8610   24.6110   37.7280 C   0  0  0  0  0  0  0  0  0  0  0  0
   38.4350   23.7350   38.6080 C   0  0  0  0  0  0  0  0  0  0  0  0
   39.4330   22.9530   38.1910 N   0  0  0  0  0  0  0  0  0  0  0  0
   39.8460   23.0510   36.9020 C   0  0  0  0  0  0  0  0  0  0  0  0
   39.2980   23.9060   36.0150 N   0  0  0  0  0  0  0  0  0  0  0  0
   37.0470   25.2500   38.0690 H   0  0  0  0  0  0  0  0  0  0  0  0
   38.0470   23.7160   39.6220 H   0  0  0  0  0  0  0  0  0  0  0  0
   40.9430   22.1720   36.4940 C   0  0  0  0  0  0  0  0  0  0  0  0
   41.3590   22.1130   35.1760 C   0  0  0  0  0  0  0  0  0  0  0  0
   40.8540   22.7340   34.4550 H   0  0  0  0  0  0  0  0  0  0  0  0
   42.3920   21.2950   34.7560 C   0  0  0  0  0  0  0  0  0  0  0  0
   42.6950   21.2730   33.7120 H   0  0  0  0  0  0  0  0  0  0  0  0
   43.0020   20.5180   35.7470 C   0  0  0  0  0  3  0  0  0  0  0  0
   42.5600   20.6010   37.0600 C   0  0  0  0  0  3  0  0  0  0  0  0
   41.5540   21.4120   37.4150 N   0  0  0  0  0  0  0  0  0  0  0  0
   38.6600   25.5840   33.3880 O   0  0  0  0  0  0  0  0  0  0  0  0
   35.7090   25.8840   31.3410 C   0  0  0  0  0  0  0  0  0  0  0  0
   35.4060   24.5150   31.1240 C   0  0  0  0  0  0  0  0  0  0  0  0
   36.2450   23.5740   31.7020 C   0  0  0  0  0  0  0  0  0  0  0  0
   37.3010   24.0710   32.4390 N   0  0  0  0  0  0  0  0  0  0  0  0
   37.5530   25.3560   32.6190 C   0  0  0  0  0  0  0  0  0  0  0  0
   36.7410   26.2720   32.0590 N   0  0  0  0  0  0  0  0  0  0  0  0
   35.0260   26.5920   30.8690 H   0  0  0  0  0  0  0  0  0  0  0  0
   34.5790   24.1420   30.5480 H   0  0  0  0  0  0  0  0  0  0  0  0
   37.9500   21.7170   30.2800 F   0  0  0  0  0  0  0  0  0  0  0  0
   36.9010   21.2610   30.9380 C   0  0  0  0  0  0  0  0  0  0  0  0
   36.1090   22.1440   31.6010 C   0  0  0  0  0  0  0  0  0  0  0  0
   35.0400   21.5480   32.2520 C   0  0  0  0  0  0  0  0  0  0  0  0
   34.7950   20.1940   32.2370 C   0  0  0  0  0  0  0  0  0  0  0  0
   35.6250   19.3410   31.5520 C   0  0  0  0  0  0  0  0  0  0  0  0
   36.6880   19.8930   30.8980 C   0  0  0  0  0  0  0  0  0  0  0  0
   34.3360   22.1730   32.8200 H   0  0  0  0  0  0  0  0  0  0  0  0
   33.9380   19.8060   32.7710 H   0  0  0  0  0  0  0  0  0  0  0  0
   35.3860   18.2910   31.5720 H   0  0  0  0  0  0  0  0  0  0  0  0
   37.3550   19.2400   30.3530 H   0  0  0  0  0  0  0  0  0  0  0  0
  1  2  1  0  0  0  0
  1  4  1  0  0  0  0
  3  1  1  0  0  0  0
  4  6  1  0  0  0  0
  4  7  1  0  0  0  0
  5  4  1  0  0  0  0
  7  8  1  0  0  0  0
  8 13  1  0  0  0  0
  8  9  2  0  0  0  0
  9 14  1  0  0  0  0
 10  9  1  0  0  0  0
 11 10  2  0  0  0  0
 12  7  2  0  0  0  0
 12 11  1  0  0  0  0
 15 11  1  0  0  0  0
 15 22  1  0  0  0  0
 16 15  2  0  0  0  0
 17 16  1  0  0  0  0
 18 16  1  0  0  0  0
 18 20  2  0  0  0  0
 19 18  1  0  0  0  0
 20 21  1  0  0  0  0
 21 22  2  0  0  0  0
 23  1  1  0  0  0  0
 24 29  1  0  0  0  0
 25 24  2  0  0  0  0
 25 26  1  0  0  0  0
 26 27  2  0  0  0  0
 27 28  1  0  0  0  0
 28 23  1  0  0  0  0
 29 28  2  0  0  0  0
 30 24  1  0  0  0  0
 31 25  1  0  0  0  0
 32 33  1  0  0  0  0
 33 34  1  0  0  0  0
 34 26  1  0  0  0  0
 34 35  2  0  0  0  0
 35 39  1  0  0  0  0
 36 35  1  0  0  0  0
 36 40  1  0  0  0  0
 37 41  1  0  0  0  0
 37 36  2  0  0  0  0
 38 33  2  0  0  0  0
 38 37  1  0  0  0  0
 42 38  1  0  0  0  0
M  END
>  <minimizedAffinity>
-6.34762573

$$$$

 OpenBabel03272509563D

 42 45  0  0  0  0  0  0  0  0999 V2000
   38.4820   26.8510   34.9390 C   0  0  0  0  0  0  0  0  0  0  0  0
   38.9030   27.8750   34.8940 H   0  0  0  0  0  0  0  0  0  0  0  0
   38.3140   26.6260   36.0260 H   0  0  0  0  0  0  0  0  0  0  0  0
   39.3560   25.7840   34.3750 C   0  0  0  0  0  0  0  0  0  0  0  0
   40.3690   25.8990   34.7600 H   0  0  0  0  0  0  0  0  0  0  0  0
   39.4510   25.8630   33.2600 H   0  0  0  0  0  0  0  0  0  0  0  0
   38.8530   24.4100   34.6720 C   0  0  0  0  0  0  0  0  0  0  0  0
   39.1430   23.8800   35.9140 C   0  0  0  0  0  0  0  0  0  0  0  0
   38.7250   22.6300   36.2790 C   0  0  0  0  0  0  0  0  0  0  0  0
   38.0190   21.9010   35.4110 N   0  0  0  0  0  0  0  0  0  0  0  0
   37.7380   22.4270   34.1920 C   0  0  0  0  0  0  0  0  0  0  0  0
   38.1380   23.6560   33.8090 N   0  0  0  0  0  0  0  0  0  0  0  0
   39.7200   24.4740   36.6230 H   0  0  0  0  0  0  0  0  0  0  0  0
   38.9910   22.2810   37.2710 H   0  0  0  0  0  0  0  0  0  0  0  0
   36.9610   21.5880   33.2770 C   0  0  0  0  0  0  0  0  0  0  0  0
   37.2170   21.5880   31.9170 C   0  0  0  0  0  0  0  0  0  0  0  0
   38.0050   22.2230   31.5480 H   0  0  0  0  0  0  0  0  0  0  0  0
   36.5040   20.8080   31.0250 C   0  0  0  0  0  0  0  0  0  0  0  0
   36.7300   20.8310   29.9630 H   0  0  0  0  0  0  0  0  0  0  0  0
   35.4960   20.0080   31.5760 C   0  0  0  0  0  3  0  0  0  0  0  0
   35.2660   20.0330   32.9450 C   0  0  0  0  0  3  0  0  0  0  0  0
   35.9870   20.8080   33.7680 N   0  0  0  0  0  0  0  0  0  0  0  0
   37.1770   26.7960   34.3530 O   0  0  0  0  0  0  0  0  0  0  0  0
   36.2420   29.3540   31.9920 C   0  0  0  0  0  0  0  0  0  0  0  0
   35.5810   30.2690   32.8520 C   0  0  0  0  0  0  0  0  0  0  0  0
   35.5010   29.9400   34.1970 C   0  0  0  0  0  0  0  0  0  0  0  0
   36.0810   28.7430   34.5660 N   0  0  0  0  0  0  0  0  0  0  0  0
   36.6890   27.9140   33.7350 C   0  0  0  0  0  0  0  0  0  0  0  0
   36.7680   28.2300   32.4290 N   0  0  0  0  0  0  0  0  0  0  0  0
   36.2830   29.6490   30.9420 H   0  0  0  0  0  0  0  0  0  0  0  0
   35.1340   31.1990   32.5500 H   0  0  0  0  0  0  0  0  0  0  0  0
   36.7420   31.8580   35.9740 F   0  0  0  0  0  0  0  0  0  0  0  0
   35.4460   31.6330   36.0650 C   0  0  0  0  0  0  0  0  0  0  0  0
   34.8750   30.7300   35.2250 C   0  0  0  0  0  0  0  0  0  0  0  0
   33.5110   30.5790   35.4170 C   0  0  0  0  0  0  0  0  0  0  0  0
   32.7920   31.2730   36.3630 C   0  0  0  0  0  0  0  0  0  0  0  0
   33.4130   32.1770   37.1900 C   0  0  0  0  0  0  0  0  0  0  0  0
   34.7570   32.3500   37.0300 C   0  0  0  0  0  0  0  0  0  0  0  0
   32.9520   29.8720   34.7890 H   0  0  0  0  0  0  0  0  0  0  0  0
   31.7280   31.0990   36.4500 H   0  0  0  0  0  0  0  0  0  0  0  0
   32.8020   32.6900   37.9130 H   0  0  0  0  0  0  0  0  0  0  0  0
   35.2660   33.0570   37.6700 H   0  0  0  0  0  0  0  0  0  0  0  0
  1  3  1  0  0  0  0
  2  1  1  0  0  0  0
  4  7  1  0  0  0  0
  4  5  1  0  0  0  0
  4  1  1  0  0  0  0
  6  4  1  0  0  0  0
  7  8  1  0  0  0  0
  8  9  2  0  0  0  0
  8 13  1  0  0  0  0
  9 14  1  0  0  0  0
 10  9  1  0  0  0  0
 11 10  2  0  0  0  0
 12 11  1  0  0  0  0
 12  7  2  0  0  0  0
 15 22  1  0  0  0  0
 15 11  1  0  0  0  0
 16 15  2  0  0  0  0
 17 16  1  0  0  0  0
 18 20  2  0  0  0  0
 18 16  1  0  0  0  0
 19 18  1  0  0  0  0
 20 21  1  0  0  0  0
 21 22  2  0  0  0  0
 23  1  1  0  0  0  0
 24 29  2  0  0  0  0
 24 25  1  0  0  0  0
 25 26  2  0  0  0  0
 26 27  1  0  0  0  0
 26 34  1  0  0  0  0
 28 23  1  0  0  0  0
 28 27  2  0  0  0  0
 29 28  1  0  0  0  0
 30 24  1  0  0  0  0
 31 25  1  0  0  0  0
 32 33  1  0  0  0  0
 33 38  1  0  0  0  0
 34 35  1  0  0  0  0
 34 33  2  0  0  0  0
 35 36  2  0  0  0  0
 36 40  1  0  0  0  0
 36 37  1  0  0  0  0
 37 41  1  0  0  0  0
 38 37  2  0  0  0  0
 38 42  1  0  0  0  0
 39 35  1  0  0  0  0
M  END
>  <minimizedAffinity>
-6.30477619

$$$$

 OpenBabel03272509563D

 42 45  0  0  0  0  0  0  0  0999 V2000
   37.1740   25.9150   31.6950 C   0  0  0  0  0  0  0  0  0  0  0  0
   37.8880   26.5060   31.0880 H   0  0  0  0  0  0  0  0  0  0  0  0
   37.6450   25.7960   32.7070 H   0  0  0  0  0  0  0  0  0  0  0  0
   36.8680   24.5570   31.1640 C   0  0  0  0  0  0  0  0  0  0  0  0
   37.5210   24.3380   30.3200 H   0  0  0  0  0  0  0  0  0  0  0  0
   35.8250   24.4900   30.7590 H   0  0  0  0  0  0  0  0  0  0  0  0
   37.0020   23.4900   32.2000 C   0  0  0  0  0  0  0  0  0  0  0  0
   36.4350   22.2610   31.9240 C   0  0  0  0  0  0  0  0  0  0  0  0
   36.5060   21.2210   32.8100 C   0  0  0  0  0  0  0  0  0  0  0  0
   37.1380   21.3980   33.9720 N   0  0  0  0  0  0  0  0  0  0  0  0
   37.6930   22.6080   34.2370 C   0  0  0  0  0  0  0  0  0  0  0  0
   37.6370   23.6480   33.3810 N   0  0  0  0  0  0  0  0  0  0  0  0
   35.9190   22.1150   30.9760 H   0  0  0  0  0  0  0  0  0  0  0  0
   36.0370   20.2850   32.5240 H   0  0  0  0  0  0  0  0  0  0  0  0
   38.3750   22.7510   35.5250 C   0  0  0  0  0  0  0  0  0  0  0  0
   37.7730   23.4090   36.5830 C   0  0  0  0  0  0  0  0  0  0  0  0
   36.7860   23.8140   36.4340 H   0  0  0  0  0  0  0  0  0  0  0  0
   38.3870   23.5620   37.8120 C   0  0  0  0  0  0  0  0  0  0  0  0
   37.8860   24.0840   38.6230 H   0  0  0  0  0  0  0  0  0  0  0  0
   39.6670   23.0090   37.9330 C   0  0  0  0  0  3  0  0  0  0  0  0
   40.2430   22.3560   36.8510 C   0  0  0  0  0  3  0  0  0  0  0  0
   39.6030   22.2350   35.6790 N   0  0  0  0  0  0  0  0  0  0  0  0
   35.9680   26.6450   31.9400 O   0  0  0  0  0  0  0  0  0  0  0  0
   36.3610   30.0500   30.8230 C   0  0  0  0  0  0  0  0  0  0  0  0
   35.8940   30.7510   31.9650 C   0  0  0  0  0  0  0  0  0  0  0  0
   35.4720   29.9980   33.0510 C   0  0  0  0  0  0  0  0  0  0  0  0
   35.5510   28.6270   32.9080 N   0  0  0  0  0  0  0  0  0  0  0  0
   35.9920   28.0080   31.8270 C   0  0  0  0  0  0  0  0  0  0  0  0
   36.4020   28.7360   30.7710 N   0  0  0  0  0  0  0  0  0  0  0  0
   36.6830   30.6780   29.9910 H   0  0  0  0  0  0  0  0  0  0  0  0
   35.8390   31.8200   32.0620 H   0  0  0  0  0  0  0  0  0  0  0  0
   32.7970   29.7540   34.1290 F   0  0  0  0  0  0  0  0  0  0  0  0
   33.7150   30.4100   34.8130 C   0  0  0  0  0  0  0  0  0  0  0  0
   34.9670   30.5170   34.2950 C   0  0  0  0  0  0  0  0  0  0  0  0
   35.8410   31.2280   35.1020 C   0  0  0  0  0  0  0  0  0  0  0  0
   35.4870   31.7760   36.3130 C   0  0  0  0  0  0  0  0  0  0  0  0
   34.2090   31.6410   36.7960 C   0  0  0  0  0  0  0  0  0  0  0  0
   33.3200   30.9480   36.0270 C   0  0  0  0  0  0  0  0  0  0  0  0
   36.8810   31.3740   34.7760 H   0  0  0  0  0  0  0  0  0  0  0  0
   36.2290   32.3180   36.8850 H   0  0  0  0  0  0  0  0  0  0  0  0
   33.9870   32.0910   37.7490 H   0  0  0  0  0  0  0  0  0  0  0  0
   32.3090   30.8280   36.3870 H   0  0  0  0  0  0  0  0  0  0  0  0
  1 23  1  0  0  0  0
  1  3  1  0  0  0  0
  2  1  1  0  0  0  0
  4  1  1  0  0  0  0
  4  7  1  0  0  0  0
  5  4  1  0  0  0  0
  6  4  1  0  0  0  0
  7 12  1  0  0  0  0
  8  7  2  0  0  0  0
  8  9  1  0  0  0  0
  9 10  2  0  0  0  0
 10 11  1  0  0  0  0
 11 15  1  0  0  0  0
 12 11  2  0  0  0  0
 13  8  1  0  0  0  0
 14  9  1  0  0  0  0
 15 22  2  0  0  0  0
 15 16  1  0  0  0  0
 16 18  2  0  0  0  0
 17 16  1  0  0  0  0
 18 20  1  0  0  0  0
 18 19  1  0  0  0  0
 21 20  2  0  0  0  0
 22 21  1  0  0  0  0
 24 25  1  0  0  0  0
 25 31  1  0  0  0  0
 25 26  2  0  0  0  0
 26 34  1  0  0  0  0
 27 26  1  0  0  0  0
 28 23  1  0  0  0  0
 28 27  2  0  0  0  0
 29 24  2  0  0  0  0
 29 28  1  0  0  0  0
 30 24  1  0  0  0  0
 32 33  1  0  0  0  0
 33 38  1  0  0  0  0
 34 33  2  0  0  0  0
 34 35  1  0  0  0  0
 35 36  2  0  0  0  0
 36 37  1  0  0  0  0
 36 40  1  0  0  0  0
 37 41  1  0  0  0  0
 38 42  1  0  0  0  0
 38 37  2  0  0  0  0
 39 35  1  0  0  0  0
M  END
>  <minimizedAffinity>
-6.19398451

$$$$

 OpenBabel03272509563D

 42 45  0  0  0  0  0  0  0  0999 V2000
   42.7370   23.1960   36.6220 C   0  0  0  0  0  0  0  0  0  0  0  0
   43.7240   23.1210   37.1190 H   0  0  0  0  0  0  0  0  0  0  0  0
   42.2660   24.1430   36.9980 H   0  0  0  0  0  0  0  0  0  0  0  0
   41.8030   22.0700   36.9010 C   0  0  0  0  0  0  0  0  0  0  0  0
   41.9540   21.7120   37.9180 H   0  0  0  0  0  0  0  0  0  0  0  0
   42.0010   21.1850   36.2410 H   0  0  0  0  0  0  0  0  0  0  0  0
   40.3710   22.4470   36.7040 C   0  0  0  0  0  0  0  0  0  0  0  0
   39.6850   22.9370   37.7980 C   0  0  0  0  0  0  0  0  0  0  0  0
   38.3720   23.3100   37.7170 C   0  0  0  0  0  0  0  0  0  0  0  0
   37.7350   23.1960   36.5490 N   0  0  0  0  0  0  0  0  0  0  0  0
   38.4130   22.7140   35.4780 C   0  0  0  0  0  0  0  0  0  0  0  0
   39.7070   22.3410   35.5320 N   0  0  0  0  0  0  0  0  0  0  0  0
   40.2040   23.0300   38.7520 H   0  0  0  0  0  0  0  0  0  0  0  0
   37.8990   23.6860   38.6190 H   0  0  0  0  0  0  0  0  0  0  0  0
   37.6700   22.6090   34.2210 C   0  0  0  0  0  0  0  0  0  0  0  0
   37.6980   23.6290   33.2870 C   0  0  0  0  0  0  0  0  0  0  0  0
   38.2830   24.5060   33.5090 H   0  0  0  0  0  0  0  0  0  0  0  0
   37.0090   23.5630   32.0900 C   0  0  0  0  0  0  0  0  0  0  0  0
   37.0520   24.3820   31.3770 H   0  0  0  0  0  0  0  0  0  0  0  0
   36.2710   22.3950   31.8690 C   0  0  0  0  0  3  0  0  0  0  0  0
   36.2630   21.3910   32.8280 C   0  0  0  0  0  3  0  0  0  0  0  0
   36.9510   21.5040   33.9730 N   0  0  0  0  0  0  0  0  0  0  0  0
   42.8780   23.3970   35.2110 O   0  0  0  0  0  0  0  0  0  0  0  0
   43.6210   26.6560   33.8610 C   0  0  0  0  0  0  0  0  0  0  0  0
   42.3170   27.2110   33.7950 C   0  0  0  0  0  0  0  0  0  0  0  0
   41.2620   26.4180   34.2230 C   0  0  0  0  0  0  0  0  0  0  0  0
   41.5920   25.1570   34.6760 N   0  0  0  0  0  0  0  0  0  0  0  0
   42.8210   24.6730   34.7230 C   0  0  0  0  0  0  0  0  0  0  0  0
   43.8480   25.4390   34.3070 N   0  0  0  0  0  0  0  0  0  0  0  0
   44.4230   27.3100   33.5150 H   0  0  0  0  0  0  0  0  0  0  0  0
   42.0740   28.1950   33.4410 H   0  0  0  0  0  0  0  0  0  0  0  0
   39.5380   26.9470   31.9590 F   0  0  0  0  0  0  0  0  0  0  0  0
   39.0520   27.0470   33.1820 C   0  0  0  0  0  0  0  0  0  0  0  0
   39.8720   26.7950   34.2360 C   0  0  0  0  0  0  0  0  0  0  0  0
   39.2500   26.9330   35.4670 C   0  0  0  0  0  0  0  0  0  0  0  0
   37.9290   27.2870   35.6200 C   0  0  0  0  0  0  0  0  0  0  0  0
   37.1390   27.5310   34.5230 C   0  0  0  0  0  0  0  0  0  0  0  0
   37.7190   27.4060   33.2940 C   0  0  0  0  0  0  0  0  0  0  0  0
   39.8250   26.7530   36.3860 H   0  0  0  0  0  0  0  0  0  0  0  0
   37.5170   27.3730   36.6160 H   0  0  0  0  0  0  0  0  0  0  0  0
   36.1130   27.8060   34.7010 H   0  0  0  0  0  0  0  0  0  0  0  0
   37.1160   27.5920   32.4180 H   0  0  0  0  0  0  0  0  0  0  0  0
  1  4  1  0  0  0  0
  1  3  1  0  0  0  0
  1  2  1  0  0  0  0
  4  5  1  0  0  0  0
  6  4  1  0  0  0  0
  7  4  1  0  0  0  0
  7  8  1  0  0  0  0
  8 13  1  0  0  0  0
  9  8  2  0  0  0  0
  9 14  1  0  0  0  0
 10  9  1  0  0  0  0
 11 12  1  0  0  0  0
 11 10  2  0  0  0  0
 12  7  2  0  0  0  0
 15 11  1  0  0  0  0
 16 17  1  0  0  0  0
 16 15  2  0  0  0  0
 18 16  1  0  0  0  0
 19 18  1  0  0  0  0
 20 18  2  0  0  0  0
 20 21  1  0  0  0  0
 21 22  2  0  0  0  0
 22 15  1  0  0  0  0
 23  1  1  0  0  0  0
 24 29  1  0  0  0  0
 25 24  2  0  0  0  0
 25 26  1  0  0  0  0
 26 34  1  0  0  0  0
 26 27  2  0  0  0  0
 27 28  1  0  0  0  0
 28 23  1  0  0  0  0
 29 28  2  0  0  0  0
 30 24  1  0  0  0  0
 31 25  1  0  0  0  0
 32 33  1  0  0  0  0
 33 38  2  0  0  0  0
 33 34  1  0  0  0  0
 34 35  2  0  0  0  0
 35 36  1  0  0  0  0
 35 39  1  0  0  0  0
 36 40  1  0  0  0  0
 37 41  1  0  0  0  0
 37 36  2  0  0  0  0
 38 37  1  0  0  0  0
 42 38  1  0  0  0  0
M  END
>  <minimizedAffinity>
-6.10125351

$$$$

 OpenBabel03272509563D

 42 45  0  0  0  0  0  0  0  0999 V2000
   42.6440   22.8110   36.6870 C   0  0  0  0  0  0  0  0  0  0  0  0
   42.4310   23.7120   37.2960 H   0  0  0  0  0  0  0  0  0  0  0  0
   43.5190   22.3020   37.1730 H   0  0  0  0  0  0  0  0  0  0  0  0
   42.9970   23.0810   35.2650 C   0  0  0  0  0  0  0  0  0  0  0  0
   42.5280   22.3350   34.6240 H   0  0  0  0  0  0  0  0  0  0  0  0
   44.0990   22.9840   35.0790 H   0  0  0  0  0  0  0  0  0  0  0  0
   42.6010   24.4510   34.8230 C   0  0  0  0  0  0  0  0  0  0  0  0
   43.6070   25.2990   34.4010 C   0  0  0  0  0  0  0  0  0  0  0  0
   43.3440   26.5730   33.9770 C   0  0  0  0  0  0  0  0  0  0  0  0
   42.0820   27.0090   33.9720 N   0  0  0  0  0  0  0  0  0  0  0  0
   41.0990   26.1720   34.3880 C   0  0  0  0  0  0  0  0  0  0  0  0
   41.3320   24.9130   34.8100 N   0  0  0  0  0  0  0  0  0  0  0  0
   44.6370   24.9440   34.4050 H   0  0  0  0  0  0  0  0  0  0  0  0
   44.1850   27.1810   33.6600 H   0  0  0  0  0  0  0  0  0  0  0  0
   39.7330   26.6980   34.3640 C   0  0  0  0  0  0  0  0  0  0  0  0
   39.1000   27.0980   35.5280 C   0  0  0  0  0  0  0  0  0  0  0  0
   39.6410   27.0130   36.4550 H   0  0  0  0  0  0  0  0  0  0  0  0
   37.8120   27.6000   35.5420 C   0  0  0  0  0  0  0  0  0  0  0  0
   37.3440   27.9060   36.4730 H   0  0  0  0  0  0  0  0  0  0  0  0
   37.1720   27.6830   34.3000 C   0  0  0  0  0  3  0  0  0  0  0  0
   37.8350   27.2720   33.1520 C   0  0  0  0  0  3  0  0  0  0  0  0
   39.0860   26.7930   33.1930 N   0  0  0  0  0  0  0  0  0  0  0  0
   41.5780   21.8600   36.7720 O   0  0  0  0  0  0  0  0  0  0  0  0
   38.5730   23.3440   38.0990 C   0  0  0  0  0  0  0  0  0  0  0  0
   37.6690   23.0890   37.0350 C   0  0  0  0  0  0  0  0  0  0  0  0
   38.1600   22.4180   35.9240 C   0  0  0  0  0  0  0  0  0  0  0  0
   39.4920   22.0620   35.9680 N   0  0  0  0  0  0  0  0  0  0  0  0
   40.3060   22.3170   36.9780 C   0  0  0  0  0  0  0  0  0  0  0  0
   39.8340   22.9680   38.0570 N   0  0  0  0  0  0  0  0  0  0  0  0
   38.1490   23.8730   38.9530 H   0  0  0  0  0  0  0  0  0  0  0  0
   36.6330   23.3720   37.0160 H   0  0  0  0  0  0  0  0  0  0  0  0
   38.3580   23.5640   33.2740 F   0  0  0  0  0  0  0  0  0  0  0  0
   37.4900   22.5960   33.4990 C   0  0  0  0  0  0  0  0  0  0  0  0
   37.4070   22.0670   34.7490 C   0  0  0  0  0  0  0  0  0  0  0  0
   36.4610   21.0610   34.8620 C   0  0  0  0  0  0  0  0  0  0  0  0
   35.6760   20.6290   33.8180 C   0  0  0  0  0  0  0  0  0  0  0  0
   35.7970   21.1940   32.5720 C   0  0  0  0  0  0  0  0  0  0  0  0
   36.7180   22.1890   32.4230 C   0  0  0  0  0  0  0  0  0  0  0  0
   36.3130   20.5650   35.8320 H   0  0  0  0  0  0  0  0  0  0  0  0
   34.9600   19.8360   33.9880 H   0  0  0  0  0  0  0  0  0  0  0  0
   35.1560   20.8180   31.7920 H   0  0  0  0  0  0  0  0  0  0  0  0
   36.8300   22.6480   31.4520 H   0  0  0  0  0  0  0  0  0  0  0  0
  1 23  1  0  0  0  0
  1  3  1  0  0  0  0
  1  2  1  0  0  0  0
  4  1  1  0  0  0  0
  5  4  1  0  0  0  0
  6  4  1  0  0  0  0
  7  4  1  0  0  0  0
  8 13  1  0  0  0  0
  8  7  2  0  0  0  0
  9  8  1  0  0  0  0
 10  9  2  0  0  0  0
 10 11  1  0  0  0  0
 11 12  2  0  0  0  0
 12  7  1  0  0  0  0
 14  9  1  0  0  0  0
 15 11  1  0  0  0  0
 15 16  1  0  0  0  0
 16 18  2  0  0  0  0
 16 17  1  0  0  0  0
 18 19  1  0  0  0  0
 20 18  1  0  0  0  0
 21 22  1  0  0  0  0
 21 20  2  0  0  0  0
 22 15  2  0  0  0  0
 23 28  1  0  0  0  0
 24 30  1  0  0  0  0
 25 24  2  0  0  0  0
 26 27  2  0  0  0  0
 26 25  1  0  0  0  0
 27 28  1  0  0  0  0
 28 29  2  0  0  0  0
 29 24  1  0  0  0  0
 31 25  1  0  0  0  0
 32 33  1  0  0  0  0
 33 34  1  0  0  0  0
 34 35  2  0  0  0  0
 34 26  1  0  0  0  0
 35 39  1  0  0  0  0
 36 40  1  0  0  0  0
 36 35  1  0  0  0  0
 37 36  2  0  0  0  0
 38 37  1  0  0  0  0
 38 33  2  0  0  0  0
 41 37  1  0  0  0  0
 42 38  1  0  0  0  0
M  END
>  <minimizedAffinity>
-6.08271313

$$$$

 OpenBabel03272509563D

 42 45  0  0  0  0  0  0  0  0999 V2000
   37.0420   26.0230   32.5090 C   0  0  0  0  0  0  0  0  0  0  0  0
   36.7620   25.0300   32.9130 H   0  0  0  0  0  0  0  0  0  0  0  0
   36.2880   26.2620   31.7120 H   0  0  0  0  0  0  0  0  0  0  0  0
   38.3990   26.0970   31.9020 C   0  0  0  0  0  0  0  0  0  0  0  0
   38.4940   27.0180   31.3280 H   0  0  0  0  0  0  0  0  0  0  0  0
   38.5780   25.2690   31.1670 H   0  0  0  0  0  0  0  0  0  0  0  0
   39.4900   26.0170   32.9180 C   0  0  0  0  0  0  0  0  0  0  0  0
   40.3670   27.0830   32.9970 C   0  0  0  0  0  0  0  0  0  0  0  0
   41.3970   27.1020   33.8950 C   0  0  0  0  0  0  0  0  0  0  0  0
   41.5620   26.0640   34.7190 N   0  0  0  0  0  0  0  0  0  0  0  0
   40.6990   25.0210   34.6370 C   0  0  0  0  0  0  0  0  0  0  0  0
   39.6760   24.9780   33.7600 N   0  0  0  0  0  0  0  0  0  0  0  0
   40.2330   27.9300   32.3250 H   0  0  0  0  0  0  0  0  0  0  0  0
   42.0450   27.9740   33.8990 H   0  0  0  0  0  0  0  0  0  0  0  0
   40.9230   23.9080   35.5620 C   0  0  0  0  0  0  0  0  0  0  0  0
   39.8700   23.3240   36.2450 C   0  0  0  0  0  0  0  0  0  0  0  0
   38.8790   23.7110   36.0780 H   0  0  0  0  0  0  0  0  0  0  0  0
   40.0450   22.2710   37.1240 C   0  0  0  0  0  0  0  0  0  0  0  0
   39.1970   21.8350   37.6450 H   0  0  0  0  0  0  0  0  0  0  0  0
   41.3600   21.8210   37.2900 C   0  0  0  0  0  3  0  0  0  0  0  0
   42.3920   22.4300   36.5900 C   0  0  0  0  0  3  0  0  0  0  0  0
   42.1680   23.4480   35.7480 N   0  0  0  0  0  0  0  0  0  0  0  0
   36.8700   27.0510   33.4890 O   0  0  0  0  0  0  0  0  0  0  0  0
   35.9400   29.9920   31.6230 C   0  0  0  0  0  0  0  0  0  0  0  0
   35.3420   30.7690   32.6490 C   0  0  0  0  0  0  0  0  0  0  0  0
   35.2990   30.2240   33.9240 C   0  0  0  0  0  0  0  0  0  0  0  0
   35.8500   28.9660   34.0660 N   0  0  0  0  0  0  0  0  0  0  0  0
   36.3990   28.2700   33.0850 C   0  0  0  0  0  0  0  0  0  0  0  0
   36.4410   28.7960   31.8470 N   0  0  0  0  0  0  0  0  0  0  0  0
   35.9530   30.4560   30.6350 H   0  0  0  0  0  0  0  0  0  0  0  0
   34.9170   31.7480   32.5230 H   0  0  0  0  0  0  0  0  0  0  0  0
   36.6500   31.8670   35.8850 F   0  0  0  0  0  0  0  0  0  0  0  0
   35.3610   31.6230   36.0210 C   0  0  0  0  0  0  0  0  0  0  0  0
   34.7390   30.8490   35.0920 C   0  0  0  0  0  0  0  0  0  0  0  0
   33.3880   30.6630   35.3420 C   0  0  0  0  0  0  0  0  0  0  0  0
   32.7290   31.2040   36.4220 C   0  0  0  0  0  0  0  0  0  0  0  0
   33.4010   31.9800   37.3340 C   0  0  0  0  0  0  0  0  0  0  0  0
   34.7330   32.1850   37.1210 C   0  0  0  0  0  0  0  0  0  0  0  0
   32.7900   30.0520   34.6510 H   0  0  0  0  0  0  0  0  0  0  0  0
   31.6720   31.0120   36.5460 H   0  0  0  0  0  0  0  0  0  0  0  0
   32.8360   32.3780   38.1600 H   0  0  0  0  0  0  0  0  0  0  0  0
   35.2810   32.7930   37.8250 H   0  0  0  0  0  0  0  0  0  0  0  0
  1  2  1  0  0  0  0
  1 23  1  0  0  0  0
  3  1  1  0  0  0  0
  4  1  1  0  0  0  0
  4  7  1  0  0  0  0
  5  4  1  0  0  0  0
  6  4  1  0  0  0  0
  7  8  2  0  0  0  0
  7 12  1  0  0  0  0
  8  9  1  0  0  0  0
  9 14  1  0  0  0  0
  9 10  2  0  0  0  0
 11 10  1  0  0  0  0
 11 15  1  0  0  0  0
 12 11  2  0  0  0  0
 13  8  1  0  0  0  0
 15 22  2  0  0  0  0
 15 16  1  0  0  0  0
 16 18  2  0  0  0  0
 17 16  1  0  0  0  0
 18 20  1  0  0  0  0
 18 19  1  0  0  0  0
 21 20  2  0  0  0  0
 22 21  1  0  0  0  0
 24 29  2  0  0  0  0
 24 25  1  0  0  0  0
 25 26  2  0  0  0  0
 26 27  1  0  0  0  0
 26 34  1  0  0  0  0
 28 23  1  0  0  0  0
 28 27  2  0  0  0  0
 29 28  1  0  0  0  0
 30 24  1  0  0  0  0
 31 25  1  0  0  0  0
 32 33  1  0  0  0  0
 33 38  1  0  0  0  0
 34 35  1  0  0  0  0
 34 33  2  0  0  0  0
 35 36  2  0  0  0  0
 36 40  1  0  0  0  0
 36 37  1  0  0  0  0
 37 41  1  0  0  0  0
 38 37  2  0  0  0  0
 38 42  1  0  0  0  0
 39 35  1  0  0  0  0
M  END
>  <minimizedAffinity>
-6.05167055

$$$$
