
 OpenBabel03272508503D

 39 43  0  0  0  0  0  0  0  0999 V2000
   37.6260   26.4540   34.0850 C   0  0  0  0  0  0  0  0  0  0  0  0
   37.6420   27.0680   35.3380 C   0  0  0  0  0  0  0  0  0  0  0  0
   38.5910   26.3380   36.0440 C   0  0  0  0  0  0  0  0  0  0  0  0
   39.0890   25.3530   35.2260 C   0  0  0  0  0  0  0  0  0  0  0  0
   38.4830   25.4570   34.0550 O   0  0  0  0  0  0  0  0  0  0  0  0
   37.0680   27.9110   35.7050 H   0  0  0  0  0  0  0  0  0  0  0  0
   38.8920   26.5130   37.0770 H   0  0  0  0  0  0  0  0  0  0  0  0
   41.2940   24.3470   34.8590 C   0  0  0  0  0  0  0  0  0  0  0  0
   40.1000   24.3600   35.5530 C   0  0  0  0  0  0  0  0  0  0  0  0
   39.8440   23.4400   36.5600 C   0  0  0  0  0  0  0  0  0  0  0  0
   40.7910   22.4810   36.8930 C   0  0  0  0  0  0  0  0  0  0  0  0
   40.8480   21.4800   37.7910 N   0  0  0  0  0  0  0  0  0  0  0  0
   42.0180   20.8900   37.6480 N   0  0  0  0  0  0  0  0  0  0  0  0
   42.7300   21.4890   36.6690 C   0  0  0  0  0  0  0  0  0  0  0  0
   41.9590   22.5190   36.1680 C   0  0  0  0  0  0  0  0  0  0  0  0
   42.2770   23.4010   35.1570 C   0  0  0  0  0  0  0  0  0  0  0  0
   41.5050   25.0620   34.0680 H   0  0  0  0  0  0  0  0  0  0  0  0
   38.9060   23.4700   37.0880 H   0  0  0  0  0  0  0  0  0  0  0  0
   40.0810   21.2370   38.4710 H   0  0  0  0  0  0  0  0  0  0  0  0
   43.7260   21.1990   36.3500 H   0  0  0  0  0  0  0  0  0  0  0  0
   43.2230   23.3540   34.6400 H   0  0  0  0  0  0  0  0  0  0  0  0
   36.7690   26.8810   32.9850 C   0  0  0  0  0  0  0  0  0  0  0  0
   36.3890   26.0270   32.1600 O   0  0  0  0  0  0  0  0  0  0  0  0
   36.3290   30.2180   31.6000 C   0  0  0  0  0  0  0  0  0  0  0  0
   35.6890   30.9010   32.6150 C   0  0  0  0  0  0  0  0  0  0  0  0
   35.3920   30.2540   33.7880 C   0  0  0  0  0  0  0  0  0  0  0  0
   35.7530   28.9510   33.8810 N   0  0  0  0  0  0  0  0  0  0  0  0
   36.3810   28.2860   32.8810 C   0  0  0  0  0  0  0  0  0  0  0  0
   36.6650   28.9380   31.7360 N   0  0  0  0  0  0  0  0  0  0  0  0
   36.5300   30.8070   30.6990 H   0  0  0  0  0  0  0  0  0  0  0  0
   35.4030   31.9400   32.5380 H   0  0  0  0  0  0  0  0  0  0  0  0
   34.7210   30.8380   34.9450 C   0  0  0  0  0  0  0  0  0  0  0  0
   35.3960   31.5870   35.8880 C   0  0  0  0  0  0  0  0  0  0  0  0
   36.4530   31.7680   35.8000 H   0  0  0  0  0  0  0  0  0  0  0  0
   34.8300   32.1670   37.0040 C   0  0  0  0  0  0  0  0  0  0  0  0
   35.3830   32.7430   37.7160 H   0  0  0  0  0  0  0  0  0  0  0  0
   33.4640   31.9890   37.2030 C   0  0  0  0  0  3  0  0  0  0  0  0
   32.8100   31.2370   36.2490 C   0  0  0  0  0  3  0  0  0  0  0  0
   33.3980   30.6850   35.1710 N   0  0  0  0  0  0  0  0  0  0  0  0
  1  2  2  0  0  0  0
  2  6  1  0  0  0  0
  2  3  1  0  0  0  0
  3  7  1  0  0  0  0
  4  9  1  0  0  0  0
  4  3  2  0  0  0  0
  5  1  1  0  0  0  0
  5  4  1  0  0  0  0
  8 16  2  0  0  0  0
  8  9  1  0  0  0  0
  9 10  2  0  0  0  0
 10 11  1  0  0  0  0
 10 18  1  0  0  0  0
 11 12  1  0  0  0  0
 12 19  1  0  0  0  0
 13 12  1  0  0  0  0
 14 13  2  0  0  0  0
 15 14  1  0  0  0  0
 15 11  2  0  0  0  0
 16 15  1  0  0  0  0
 17  8  1  0  0  0  0
 20 14  1  0  0  0  0
 21 16  1  0  0  0  0
 22  1  1  0  0  0  0
 23 22  2  0  0  0  0
 24 29  2  0  0  0  0
 24 25  1  0  0  0  0
 25 26  2  0  0  0  0
 26 27  1  0  0  0  0
 26 32  1  0  0  0  0
 28 22  1  0  0  0  0
 28 27  2  0  0  0  0
 29 28  1  0  0  0  0
 30 24  1  0  0  0  0
 31 25  1  0  0  0  0
 32 39  2  0  0  0  0
 32 33  1  0  0  0  0
 33 35  2  0  0  0  0
 34 33  1  0  0  0  0
 35 37  1  0  0  0  0
 35 36  1  0  0  0  0
 38 37  2  0  0  0  0
 39 38  1  0  0  0  0
M  END
>  <minimizedAffinity>
-7.02445173

$$$$

 OpenBabel03272508503D

 39 43  0  0  0  0  0  0  0  0999 V2000
   37.2170   27.8160   32.3100 C   0  0  0  0  0  0  0  0  0  0  0  0
   36.5480   28.3940   31.2300 C   0  0  0  0  0  0  0  0  0  0  0  0
   35.6140   29.2270   31.8350 C   0  0  0  0  0  0  0  0  0  0  0  0
   35.7490   29.1250   33.1980 C   0  0  0  0  0  0  0  0  0  0  0  0
   36.7250   28.2670   33.4440 O   0  0  0  0  0  0  0  0  0  0  0  0
   36.6950   28.2490   30.1660 H   0  0  0  0  0  0  0  0  0  0  0  0
   34.8920   29.8570   31.3170 H   0  0  0  0  0  0  0  0  0  0  0  0
   33.6350   29.5370   34.3680 C   0  0  0  0  0  0  0  0  0  0  0  0
   34.9780   29.8200   34.2170 C   0  0  0  0  0  0  0  0  0  0  0  0
   35.6100   30.7580   35.0210 C   0  0  0  0  0  0  0  0  0  0  0  0
   34.8990   31.4350   36.0020 C   0  0  0  0  0  0  0  0  0  0  0  0
   35.2080   32.3740   36.9170 N   0  0  0  0  0  0  0  0  0  0  0  0
   34.1070   32.6460   37.5880 N   0  0  0  0  0  0  0  0  0  0  0  0
   33.0790   31.9000   37.1280 C   0  0  0  0  0  0  0  0  0  0  0  0
   33.5670   31.1110   36.1050 C   0  0  0  0  0  0  0  0  0  0  0  0
   32.8780   30.1930   35.3410 C   0  0  0  0  0  0  0  0  0  0  0  0
   33.1290   28.8050   33.7440 H   0  0  0  0  0  0  0  0  0  0  0  0
   36.6590   30.9620   34.8860 H   0  0  0  0  0  0  0  0  0  0  0  0
   36.1650   32.7950   37.0480 H   0  0  0  0  0  0  0  0  0  0  0  0
   32.0630   31.9300   37.5070 H   0  0  0  0  0  0  0  0  0  0  0  0
   31.8260   30.0040   35.4930 H   0  0  0  0  0  0  0  0  0  0  0  0
   38.3040   26.8550   32.1700 C   0  0  0  0  0  0  0  0  0  0  0  0
   39.3490   27.2170   31.5960 O   0  0  0  0  0  0  0  0  0  0  0  0
   37.5970   23.2870   32.2950 C   0  0  0  0  0  0  0  0  0  0  0  0
   37.8170   22.9650   33.6200 C   0  0  0  0  0  0  0  0  0  0  0  0
   38.2080   23.9420   34.5000 C   0  0  0  0  0  0  0  0  0  0  0  0
   38.3580   25.1950   34.0040 N   0  0  0  0  0  0  0  0  0  0  0  0
   38.1400   25.5030   32.7010 C   0  0  0  0  0  0  0  0  0  0  0  0
   37.7570   24.5300   31.8520 N   0  0  0  0  0  0  0  0  0  0  0  0
   37.2880   22.4500   31.6600 H   0  0  0  0  0  0  0  0  0  0  0  0
   37.6960   21.9660   34.0130 H   0  0  0  0  0  0  0  0  0  0  0  0
   38.4770   23.7590   35.9220 C   0  0  0  0  0  0  0  0  0  0  0  0
   37.7210   24.3710   36.9010 C   0  0  0  0  0  0  0  0  0  0  0  0
   36.8950   25.0100   36.6450 H   0  0  0  0  0  0  0  0  0  0  0  0
   37.9170   24.2440   38.2600 C   0  0  0  0  0  0  0  0  0  0  0  0
   37.3100   24.7330   38.9940 H   0  0  0  0  0  0  0  0  0  0  0  0
   38.9640   23.4340   38.6900 C   0  0  0  0  0  3  0  0  0  0  0  0
   39.7070   22.8340   37.6950 C   0  0  0  0  0  3  0  0  0  0  0  0
   39.4860   22.9820   36.3760 N   0  0  0  0  0  0  0  0  0  0  0  0
  1  5  1  0  0  0  0
  2  3  1  0  0  0  0
  2  1  2  0  0  0  0
  3  4  2  0  0  0  0
  4  5  1  0  0  0  0
  4  9  1  0  0  0  0
  6  2  1  0  0  0  0
  7  3  1  0  0  0  0
  8 16  1  0  0  0  0
  9  8  2  0  0  0  0
  9 10  1  0  0  0  0
 10 11  2  0  0  0  0
 11 15  1  0  0  0  0
 11 12  1  0  0  0  0
 12 19  1  0  0  0  0
 12 13  1  0  0  0  0
 14 20  1  0  0  0  0
 14 13  2  0  0  0  0
 15 14  1  0  0  0  0
 16 21  1  0  0  0  0
 16 15  2  0  0  0  0
 17  8  1  0  0  0  0
 18 10  1  0  0  0  0
 22  1  1  0  0  0  0
 22 28  1  0  0  0  0
 23 22  2  0  0  0  0
 24 25  1  0  0  0  0
 25 31  1  0  0  0  0
 25 26  2  0  0  0  0
 26 32  1  0  0  0  0
 27 26  1  0  0  0  0
 28 27  2  0  0  0  0
 29 24  2  0  0  0  0
 29 28  1  0  0  0  0
 30 24  1  0  0  0  0
 32 39  2  0  0  0  0
 32 33  1  0  0  0  0
 33 35  2  0  0  0  0
 34 33  1  0  0  0  0
 35 37  1  0  0  0  0
 35 36  1  0  0  0  0
 38 37  2  0  0  0  0
 39 38  1  0  0  0  0
M  END
>  <minimizedAffinity>
-6.92536116

$$$$

 OpenBabel03272508503D

 39 43  0  0  0  0  0  0  0  0999 V2000
   37.1470   27.8110   32.4200 C   0  0  0  0  0  0  0  0  0  0  0  0
   36.3220   28.2790   31.3960 C   0  0  0  0  0  0  0  0  0  0  0  0
   35.4670   29.1610   32.0460 C   0  0  0  0  0  0  0  0  0  0  0  0
   35.7950   29.1910   33.3800 C   0  0  0  0  0  0  0  0  0  0  0  0
   36.8110   28.3650   33.5650 O   0  0  0  0  0  0  0  0  0  0  0  0
   36.3200   28.0340   30.3400 H   0  0  0  0  0  0  0  0  0  0  0  0
   34.6680   29.7360   31.5790 H   0  0  0  0  0  0  0  0  0  0  0  0
   35.9280   30.8240   35.2030 C   0  0  0  0  0  0  0  0  0  0  0  0
   35.1620   29.9760   34.4280 C   0  0  0  0  0  0  0  0  0  0  0  0
   33.7940   29.8570   34.6300 C   0  0  0  0  0  0  0  0  0  0  0  0
   33.1640   30.5950   35.6230 C   0  0  0  0  0  0  0  0  0  0  0  0
   31.8940   30.7040   36.0590 N   0  0  0  0  0  0  0  0  0  0  0  0
   31.8920   31.5740   37.0490 N   0  0  0  0  0  0  0  0  0  0  0  0
   33.1410   32.0390   37.2690 C   0  0  0  0  0  0  0  0  0  0  0  0
   33.9790   31.4210   36.3610 C   0  0  0  0  0  0  0  0  0  0  0  0
   35.3400   31.5860   36.2140 C   0  0  0  0  0  0  0  0  0  0  0  0
   37.0000   30.9250   35.0540 H   0  0  0  0  0  0  0  0  0  0  0  0
   33.2160   29.1900   34.0130 H   0  0  0  0  0  0  0  0  0  0  0  0
   31.0740   30.1760   35.6610 H   0  0  0  0  0  0  0  0  0  0  0  0
   33.4170   32.7650   38.0270 H   0  0  0  0  0  0  0  0  0  0  0  0
   35.9000   32.2600   36.8440 H   0  0  0  0  0  0  0  0  0  0  0  0
   38.2200   26.8450   32.2180 C   0  0  0  0  0  0  0  0  0  0  0  0
   39.2380   27.2080   31.5970 O   0  0  0  0  0  0  0  0  0  0  0  0
   37.5760   23.2640   32.3270 C   0  0  0  0  0  0  0  0  0  0  0  0
   37.7890   22.9440   33.6530 C   0  0  0  0  0  0  0  0  0  0  0  0
   38.1530   23.9250   34.5400 C   0  0  0  0  0  0  0  0  0  0  0  0
   38.2860   25.1810   34.0480 N   0  0  0  0  0  0  0  0  0  0  0  0
   38.0760   25.4890   32.7440 C   0  0  0  0  0  0  0  0  0  0  0  0
   37.7190   24.5120   31.8880 N   0  0  0  0  0  0  0  0  0  0  0  0
   37.2890   22.4240   31.6870 H   0  0  0  0  0  0  0  0  0  0  0  0
   37.6820   21.9420   34.0430 H   0  0  0  0  0  0  0  0  0  0  0  0
   38.4120   23.7430   35.9640 C   0  0  0  0  0  0  0  0  0  0  0  0
   39.5050   23.0410   36.4320 C   0  0  0  0  0  0  0  0  0  0  0  0
   40.2120   22.6000   35.7520 H   0  0  0  0  0  0  0  0  0  0  0  0
   39.8120   22.8290   37.7590 C   0  0  0  0  0  0  0  0  0  0  0  0
   40.6690   22.2800   38.0870 H   0  0  0  0  0  0  0  0  0  0  0  0
   38.9530   23.3640   38.7150 C   0  0  0  0  0  3  0  0  0  0  0  0
   37.8680   24.0610   38.2260 C   0  0  0  0  0  3  0  0  0  0  0  0
   37.6000   24.2470   36.9200 N   0  0  0  0  0  0  0  0  0  0  0  0
  1  5  1  0  0  0  0
  2  3  1  0  0  0  0
  2  1  2  0  0  0  0
  3  4  2  0  0  0  0
  4  5  1  0  0  0  0
  4  9  1  0  0  0  0
  6  2  1  0  0  0  0
  7  3  1  0  0  0  0
  8 16  1  0  0  0  0
  9 10  1  0  0  0  0
  9  8  2  0  0  0  0
 10 11  2  0  0  0  0
 11 12  1  0  0  0  0
 11 15  1  0  0  0  0
 12 13  1  0  0  0  0
 13 14  2  0  0  0  0
 14 20  1  0  0  0  0
 15 14  1  0  0  0  0
 16 15  2  0  0  0  0
 16 21  1  0  0  0  0
 17  8  1  0  0  0  0
 18 10  1  0  0  0  0
 19 12  1  0  0  0  0
 22  1  1  0  0  0  0
 22 28  1  0  0  0  0
 23 22  2  0  0  0  0
 24 25  1  0  0  0  0
 25 31  1  0  0  0  0
 25 26  2  0  0  0  0
 26 32  1  0  0  0  0
 27 26  1  0  0  0  0
 28 27  2  0  0  0  0
 29 24  2  0  0  0  0
 29 28  1  0  0  0  0
 30 24  1  0  0  0  0
 32 33  2  0  0  0  0
 32 39  1  0  0  0  0
 33 35  1  0  0  0  0
 34 33  1  0  0  0  0
 35 36  1  0  0  0  0
 35 37  2  0  0  0  0
 38 37  1  0  0  0  0
 39 38  2  0  0  0  0
M  END
>  <minimizedAffinity>
-6.83666706

$$$$

 OpenBabel03272508503D

 39 43  0  0  0  0  0  0  0  0999 V2000
   36.5770   25.9280   32.1790 C   0  0  0  0  0  0  0  0  0  0  0  0
   35.4860   26.0780   31.3210 C   0  0  0  0  0  0  0  0  0  0  0  0
   35.1470   24.7700   30.9960 C   0  0  0  0  0  0  0  0  0  0  0  0
   36.0080   23.9170   31.6430 C   0  0  0  0  0  0  0  0  0  0  0  0
   36.8540   24.6530   32.3450 O   0  0  0  0  0  0  0  0  0  0  0  0
   34.9980   26.9800   30.9710 H   0  0  0  0  0  0  0  0  0  0  0  0
   34.3340   24.4660   30.3370 H   0  0  0  0  0  0  0  0  0  0  0  0
   34.9940   21.7510   32.1800 C   0  0  0  0  0  0  0  0  0  0  0  0
   36.0190   22.4630   31.5890 C   0  0  0  0  0  0  0  0  0  0  0  0
   37.0640   21.8180   30.9430 C   0  0  0  0  0  0  0  0  0  0  0  0
   37.0990   20.4320   30.8770 C   0  0  0  0  0  0  0  0  0  0  0  0
   37.9450   19.5310   30.3400 N   0  0  0  0  0  0  0  0  0  0  0  0
   37.4570   18.3340   30.5950 N   0  0  0  0  0  0  0  0  0  0  0  0
   36.3030   18.4340   31.2900 C   0  0  0  0  0  0  0  0  0  0  0  0
   36.0520   19.7780   31.4830 C   0  0  0  0  0  0  0  0  0  0  0  0
   34.9870   20.3550   32.1410 C   0  0  0  0  0  0  0  0  0  0  0  0
   34.1710   22.2460   32.6900 H   0  0  0  0  0  0  0  0  0  0  0  0
   37.8520   22.3940   30.4880 H   0  0  0  0  0  0  0  0  0  0  0  0
   38.8280   19.7720   29.8190 H   0  0  0  0  0  0  0  0  0  0  0  0
   35.6980   17.5980   31.6260 H   0  0  0  0  0  0  0  0  0  0  0  0
   34.2070   19.7590   32.5890 H   0  0  0  0  0  0  0  0  0  0  0  0
   37.2860   27.0460   32.7890 C   0  0  0  0  0  0  0  0  0  0  0  0
   38.3670   26.8200   33.3690 O   0  0  0  0  0  0  0  0  0  0  0  0
   36.3770   30.3030   31.4420 C   0  0  0  0  0  0  0  0  0  0  0  0
   35.6850   30.8940   32.4810 C   0  0  0  0  0  0  0  0  0  0  0  0
   35.5090   30.2100   33.6570 C   0  0  0  0  0  0  0  0  0  0  0  0
   36.0380   28.9640   33.7300 N   0  0  0  0  0  0  0  0  0  0  0  0
   36.7170   28.3900   32.7060 C   0  0  0  0  0  0  0  0  0  0  0  0
   36.8790   29.0770   31.5590 N   0  0  0  0  0  0  0  0  0  0  0  0
   36.4720   30.9150   30.5390 H   0  0  0  0  0  0  0  0  0  0  0  0
   35.2640   31.8870   32.4200 H   0  0  0  0  0  0  0  0  0  0  0  0
   34.8050   30.6980   34.8370 C   0  0  0  0  0  0  0  0  0  0  0  0
   35.4150   31.4980   35.7820 C   0  0  0  0  0  0  0  0  0  0  0  0
   36.4440   31.7920   35.6780 H   0  0  0  0  0  0  0  0  0  0  0  0
   34.8140   31.9950   36.9190 C   0  0  0  0  0  0  0  0  0  0  0  0
   35.3170   32.6140   37.6330 H   0  0  0  0  0  0  0  0  0  0  0  0
   33.4790   31.6670   37.1410 C   0  0  0  0  0  3  0  0  0  0  0  0
   32.8890   30.8670   36.1850 C   0  0  0  0  0  3  0  0  0  0  0  0
   33.5100   30.4000   35.0850 N   0  0  0  0  0  0  0  0  0  0  0  0
  1  5  1  0  0  0  0
  1 22  1  0  0  0  0
  2  1  2  0  0  0  0
  3  2  1  0  0  0  0
  3  4  2  0  0  0  0
  4  5  1  0  0  0  0
  6  2  1  0  0  0  0
  7  3  1  0  0  0  0
  8 17  1  0  0  0  0
  9  4  1  0  0  0  0
  9  8  2  0  0  0  0
 10  9  1  0  0  0  0
 11 10  2  0  0  0  0
 11 15  1  0  0  0  0
 12 13  1  0  0  0  0
 12 11  1  0  0  0  0
 13 14  2  0  0  0  0
 14 15  1  0  0  0  0
 14 20  1  0  0  0  0
 15 16  2  0  0  0  0
 16  8  1  0  0  0  0
 16 21  1  0  0  0  0
 18 10  1  0  0  0  0
 19 12  1  0  0  0  0
 22 23  2  0  0  0  0
 24 29  2  0  0  0  0
 24 25  1  0  0  0  0
 25 26  2  0  0  0  0
 26 27  1  0  0  0  0
 26 32  1  0  0  0  0
 28 22  1  0  0  0  0
 28 27  2  0  0  0  0
 29 28  1  0  0  0  0
 30 24  1  0  0  0  0
 31 25  1  0  0  0  0
 32 39  2  0  0  0  0
 32 33  1  0  0  0  0
 33 35  2  0  0  0  0
 34 33  1  0  0  0  0
 35 37  1  0  0  0  0
 35 36  1  0  0  0  0
 38 37  2  0  0  0  0
 39 38  1  0  0  0  0
M  END
>  <minimizedAffinity>
-6.78821898

$$$$

 OpenBabel03272508503D

 39 43  0  0  0  0  0  0  0  0999 V2000
   37.3630   27.7000   32.9220 C   0  0  0  0  0  0  0  0  0  0  0  0
   36.8420   28.2650   31.7570 C   0  0  0  0  0  0  0  0  0  0  0  0
   35.8810   29.1520   32.2290 C   0  0  0  0  0  0  0  0  0  0  0  0
   35.8600   29.0910   33.6010 C   0  0  0  0  0  0  0  0  0  0  0  0
   36.7670   28.2060   33.9800 O   0  0  0  0  0  0  0  0  0  0  0  0
   37.0990   28.0800   30.7200 H   0  0  0  0  0  0  0  0  0  0  0  0
   35.2460   29.7910   31.6150 H   0  0  0  0  0  0  0  0  0  0  0  0
   33.6480   29.6180   34.5160 C   0  0  0  0  0  0  0  0  0  0  0  0
   35.0090   29.8480   34.5070 C   0  0  0  0  0  0  0  0  0  0  0  0
   35.5850   30.7900   35.3470 C   0  0  0  0  0  0  0  0  0  0  0  0
   34.7980   31.5250   36.2220 C   0  0  0  0  0  0  0  0  0  0  0  0
   35.0410   32.4830   37.1370 N   0  0  0  0  0  0  0  0  0  0  0  0
   33.8850   32.8170   37.6740 N   0  0  0  0  0  0  0  0  0  0  0  0
   32.8850   32.0930   37.1250 C   0  0  0  0  0  0  0  0  0  0  0  0
   33.4510   31.2520   36.1860 C   0  0  0  0  0  0  0  0  0  0  0  0
   32.8140   30.3340   35.3780 C   0  0  0  0  0  0  0  0  0  0  0  0
   33.1850   28.8830   33.8620 H   0  0  0  0  0  0  0  0  0  0  0  0
   36.6500   30.9510   35.3230 H   0  0  0  0  0  0  0  0  0  0  0  0
   35.9940   32.8730   37.3610 H   0  0  0  0  0  0  0  0  0  0  0  0
   31.8350   32.1720   37.3870 H   0  0  0  0  0  0  0  0  0  0  0  0
   31.7460   30.1880   35.4180 H   0  0  0  0  0  0  0  0  0  0  0  0
   38.4190   26.6950   32.9320 C   0  0  0  0  0  0  0  0  0  0  0  0
   39.3870   26.8550   33.7010 O   0  0  0  0  0  0  0  0  0  0  0  0
   38.8700   24.5580   30.0200 C   0  0  0  0  0  0  0  0  0  0  0  0
   38.1670   23.4170   30.3510 C   0  0  0  0  0  0  0  0  0  0  0  0
   37.5250   23.3410   31.5620 C   0  0  0  0  0  0  0  0  0  0  0  0
   37.6230   24.4180   32.3790 N   0  0  0  0  0  0  0  0  0  0  0  0
   38.3160   25.5360   32.0470 C   0  0  0  0  0  0  0  0  0  0  0  0
   38.9390   25.5910   30.8540 N   0  0  0  0  0  0  0  0  0  0  0  0
   39.3530   24.5370   29.0370 H   0  0  0  0  0  0  0  0  0  0  0  0
   38.0900   22.5600   29.6980 H   0  0  0  0  0  0  0  0  0  0  0  0
   36.7470   22.2090   32.0520 C   0  0  0  0  0  0  0  0  0  0  0  0
   35.9660   21.4340   31.2180 C   0  0  0  0  0  0  0  0  0  0  0  0
   35.9050   21.6420   30.1650 H   0  0  0  0  0  0  0  0  0  0  0  0
   35.2060   20.3530   31.6100 C   0  0  0  0  0  0  0  0  0  0  0  0
   34.6110   19.7720   30.9360 H   0  0  0  0  0  0  0  0  0  0  0  0
   35.2220   20.0050   32.9580 C   0  0  0  0  0  3  0  0  0  0  0  0
   36.0070   20.7930   33.7730 C   0  0  0  0  0  3  0  0  0  0  0  0
   36.7370   21.8440   33.3530 N   0  0  0  0  0  0  0  0  0  0  0  0
  1 22  1  0  0  0  0
  1  5  1  0  0  0  0
  2  3  1  0  0  0  0
  2  1  2  0  0  0  0
  3  4  2  0  0  0  0
  4  5  1  0  0  0  0
  4  9  1  0  0  0  0
  6  2  1  0  0  0  0
  7  3  1  0  0  0  0
  8 16  1  0  0  0  0
  9  8  2  0  0  0  0
  9 10  1  0  0  0  0
 10 11  2  0  0  0  0
 11 12  1  0  0  0  0
 12 19  1  0  0  0  0
 12 13  1  0  0  0  0
 14 20  1  0  0  0  0
 14 13  2  0  0  0  0
 15 11  1  0  0  0  0
 15 14  1  0  0  0  0
 16 21  1  0  0  0  0
 16 15  2  0  0  0  0
 17  8  1  0  0  0  0
 18 10  1  0  0  0  0
 22 23  2  0  0  0  0
 24 25  2  0  0  0  0
 24 29  1  0  0  0  0
 25 26  1  0  0  0  0
 26 32  1  0  0  0  0
 26 27  2  0  0  0  0
 28 27  1  0  0  0  0
 28 22  1  0  0  0  0
 29 28  2  0  0  0  0
 30 24  1  0  0  0  0
 31 25  1  0  0  0  0
 32 39  1  0  0  0  0
 33 35  1  0  0  0  0
 33 32  2  0  0  0  0
 34 33  1  0  0  0  0
 35 37  2  0  0  0  0
 36 35  1  0  0  0  0
 37 38  1  0  0  0  0
 39 38  2  0  0  0  0
M  END
>  <minimizedAffinity>
-6.5132947

$$$$

 OpenBabel03272508503D

 39 43  0  0  0  0  0  0  0  0999 V2000
   37.2080   27.5620   32.7260 C   0  0  0  0  0  0  0  0  0  0  0  0
   36.3120   27.7450   31.6720 C   0  0  0  0  0  0  0  0  0  0  0  0
   35.3430   28.5830   32.2130 C   0  0  0  0  0  0  0  0  0  0  0  0
   35.6770   28.8610   33.5160 C   0  0  0  0  0  0  0  0  0  0  0  0
   36.8070   28.2280   33.7870 O   0  0  0  0  0  0  0  0  0  0  0  0
   36.3340   27.3460   30.6640 H   0  0  0  0  0  0  0  0  0  0  0  0
   34.4620   28.9590   31.6930 H   0  0  0  0  0  0  0  0  0  0  0  0
   33.5960   29.4850   34.6500 C   0  0  0  0  0  0  0  0  0  0  0  0
   34.9470   29.6960   34.4570 C   0  0  0  0  0  0  0  0  0  0  0  0
   35.6250   30.6920   35.1450 C   0  0  0  0  0  0  0  0  0  0  0  0
   34.9530   31.5030   36.0500 C   0  0  0  0  0  0  0  0  0  0  0  0
   35.3110   32.5240   36.8510 N   0  0  0  0  0  0  0  0  0  0  0  0
   34.2300   32.9140   37.4970 N   0  0  0  0  0  0  0  0  0  0  0  0
   33.1680   32.1630   37.1320 C   0  0  0  0  0  0  0  0  0  0  0  0
   33.6110   31.2450   36.1990 C   0  0  0  0  0  0  0  0  0  0  0  0
   32.8770   30.2760   35.5490 C   0  0  0  0  0  0  0  0  0  0  0  0
   33.0540   28.7090   34.1160 H   0  0  0  0  0  0  0  0  0  0  0  0
   36.6790   30.8370   34.9790 H   0  0  0  0  0  0  0  0  0  0  0  0
   36.2850   32.9180   36.9250 H   0  0  0  0  0  0  0  0  0  0  0  0
   32.1580   32.2750   37.5140 H   0  0  0  0  0  0  0  0  0  0  0  0
   31.8210   30.1480   35.7310 H   0  0  0  0  0  0  0  0  0  0  0  0
   38.4100   26.7420   32.6330 C   0  0  0  0  0  0  0  0  0  0  0  0
   39.3870   27.1880   31.9990 O   0  0  0  0  0  0  0  0  0  0  0  0
   39.3150   24.0870   34.9520 C   0  0  0  0  0  0  0  0  0  0  0  0
   38.5430   23.0220   34.5330 C   0  0  0  0  0  0  0  0  0  0  0  0
   37.7010   23.1740   33.4600 C   0  0  0  0  0  0  0  0  0  0  0  0
   37.6780   24.3900   32.8630 N   0  0  0  0  0  0  0  0  0  0  0  0
   38.4390   25.4320   33.2800 C   0  0  0  0  0  0  0  0  0  0  0  0
   39.2590   25.2640   34.3350 N   0  0  0  0  0  0  0  0  0  0  0  0
   39.9590   23.8830   35.8140 H   0  0  0  0  0  0  0  0  0  0  0  0
   38.5640   22.0530   35.0110 H   0  0  0  0  0  0  0  0  0  0  0  0
   36.8270   22.1470   32.9030 C   0  0  0  0  0  0  0  0  0  0  0  0
   36.3270   21.1110   33.6650 C   0  0  0  0  0  0  0  0  0  0  0  0
   36.5670   21.0250   34.7100 H   0  0  0  0  0  0  0  0  0  0  0  0
   35.4990   20.1080   33.2070 C   0  0  0  0  0  0  0  0  0  0  0  0
   35.1280   19.3180   33.8260 H   0  0  0  0  0  0  0  0  0  0  0  0
   35.1310   20.1350   31.8640 C   0  0  0  0  0  3  0  0  0  0  0  0
   35.6430   21.1780   31.1220 C   0  0  0  0  0  3  0  0  0  0  0  0
   36.4510   22.1400   31.6040 N   0  0  0  0  0  0  0  0  0  0  0  0
  1  5  1  0  0  0  0
  2  3  1  0  0  0  0
  2  1  2  0  0  0  0
  3  4  2  0  0  0  0
  4  5  1  0  0  0  0
  4  9  1  0  0  0  0
  6  2  1  0  0  0  0
  7  3  1  0  0  0  0
  8 16  1  0  0  0  0
  9  8  2  0  0  0  0
  9 10  1  0  0  0  0
 10 11  2  0  0  0  0
 11 15  1  0  0  0  0
 11 12  1  0  0  0  0
 12 19  1  0  0  0  0
 12 13  1  0  0  0  0
 14 13  2  0  0  0  0
 14 20  1  0  0  0  0
 15 14  1  0  0  0  0
 16 21  1  0  0  0  0
 16 15  2  0  0  0  0
 17  8  1  0  0  0  0
 18 10  1  0  0  0  0
 22  1  1  0  0  0  0
 22 28  1  0  0  0  0
 23 22  2  0  0  0  0
 24 30  1  0  0  0  0
 25 24  1  0  0  0  0
 25 31  1  0  0  0  0
 26 25  2  0  0  0  0
 27 28  2  0  0  0  0
 27 26  1  0  0  0  0
 28 29  1  0  0  0  0
 29 24  2  0  0  0  0
 32 26  1  0  0  0  0
 32 33  1  0  0  0  0
 33 34  1  0  0  0  0
 35 33  2  0  0  0  0
 35 36  1  0  0  0  0
 37 35  1  0  0  0  0
 38 39  1  0  0  0  0
 38 37  2  0  0  0  0
 39 32  2  0  0  0  0
M  END
>  <minimizedAffinity>
-6.50974226

$$$$

 OpenBabel03272508503D

 39 43  0  0  0  0  0  0  0  0999 V2000
   36.2280   24.6530   31.7650 C   0  0  0  0  0  0  0  0  0  0  0  0
   36.0060   23.2860   31.5960 C   0  0  0  0  0  0  0  0  0  0  0  0
   36.9540   22.6990   32.4260 C   0  0  0  0  0  0  0  0  0  0  0  0
   37.6800   23.6920   33.0380 C   0  0  0  0  0  0  0  0  0  0  0  0
   37.2120   24.8540   32.6140 O   0  0  0  0  0  0  0  0  0  0  0  0
   35.2810   22.7720   30.9760 H   0  0  0  0  0  0  0  0  0  0  0  0
   37.1010   21.6290   32.5710 H   0  0  0  0  0  0  0  0  0  0  0  0
   39.9230   24.2800   33.8340 C   0  0  0  0  0  0  0  0  0  0  0  0
   38.7720   23.5320   33.9860 C   0  0  0  0  0  0  0  0  0  0  0  0
   38.6360   22.6270   35.0290 C   0  0  0  0  0  0  0  0  0  0  0  0
   39.6610   22.4560   35.9490 C   0  0  0  0  0  0  0  0  0  0  0  0
   39.8360   21.6840   37.0380 N   0  0  0  0  0  0  0  0  0  0  0  0
   41.0320   21.9510   37.5220 N   0  0  0  0  0  0  0  0  0  0  0  0
   41.6470   22.8870   36.7660 C   0  0  0  0  0  0  0  0  0  0  0  0
   40.7810   23.2280   35.7450 C   0  0  0  0  0  0  0  0  0  0  0  0
   40.9820   24.1420   34.7330 C   0  0  0  0  0  0  0  0  0  0  0  0
   40.0420   24.9920   33.0200 H   0  0  0  0  0  0  0  0  0  0  0  0
   37.7290   22.0560   35.1280 H   0  0  0  0  0  0  0  0  0  0  0  0
   39.1260   21.0010   37.4110 H   0  0  0  0  0  0  0  0  0  0  0  0
   42.6400   23.2850   36.9440 H   0  0  0  0  0  0  0  0  0  0  0  0
   41.8990   24.7050   34.6520 H   0  0  0  0  0  0  0  0  0  0  0  0
   35.4600   25.6880   31.0830 C   0  0  0  0  0  0  0  0  0  0  0  0
   34.5220   25.3410   30.3390 O   0  0  0  0  0  0  0  0  0  0  0  0
   37.0070   28.9430   30.5750 C   0  0  0  0  0  0  0  0  0  0  0  0
   36.4970   29.7020   31.6100 C   0  0  0  0  0  0  0  0  0  0  0  0
   35.6210   29.1360   32.5010 C   0  0  0  0  0  0  0  0  0  0  0  0
   35.3020   27.8330   32.3070 N   0  0  0  0  0  0  0  0  0  0  0  0
   35.8070   27.0930   31.2890 C   0  0  0  0  0  0  0  0  0  0  0  0
   36.6650   27.6670   30.4230 N   0  0  0  0  0  0  0  0  0  0  0  0
   37.6980   29.4710   29.9090 H   0  0  0  0  0  0  0  0  0  0  0  0
   36.7530   30.7410   31.7620 H   0  0  0  0  0  0  0  0  0  0  0  0
   35.0000   29.8050   33.6390 C   0  0  0  0  0  0  0  0  0  0  0  0
   35.7130   30.6210   34.4940 C   0  0  0  0  0  0  0  0  0  0  0  0
   36.7650   30.7930   34.3470 H   0  0  0  0  0  0  0  0  0  0  0  0
   35.1950   31.2840   35.5860 C   0  0  0  0  0  0  0  0  0  0  0  0
   35.7770   31.9100   36.2290 H   0  0  0  0  0  0  0  0  0  0  0  0
   33.8390   31.1220   35.8570 C   0  0  0  0  0  3  0  0  0  0  0  0
   33.1460   30.3020   34.9910 C   0  0  0  0  0  3  0  0  0  0  0  0
   33.6880   29.6700   33.9330 N   0  0  0  0  0  0  0  0  0  0  0  0
  1  5  1  0  0  0  0
  2  1  2  0  0  0  0
  2  3  1  0  0  0  0
  3  7  1  0  0  0  0
  3  4  2  0  0  0  0
  4  9  1  0  0  0  0
  5  4  1  0  0  0  0
  6  2  1  0  0  0  0
  8  9  2  0  0  0  0
  8 16  1  0  0  0  0
  9 10  1  0  0  0  0
 10 18  1  0  0  0  0
 10 11  2  0  0  0  0
 11 12  1  0  0  0  0
 12 19  1  0  0  0  0
 12 13  1  0  0  0  0
 14 20  1  0  0  0  0
 14 13  2  0  0  0  0
 15 11  1  0  0  0  0
 15 14  1  0  0  0  0
 16 15  2  0  0  0  0
 17  8  1  0  0  0  0
 21 16  1  0  0  0  0
 22 28  1  0  0  0  0
 22  1  1  0  0  0  0
 23 22  2  0  0  0  0
 24 25  1  0  0  0  0
 25 31  1  0  0  0  0
 25 26  2  0  0  0  0
 26 32  1  0  0  0  0
 27 26  1  0  0  0  0
 28 27  2  0  0  0  0
 29 24  2  0  0  0  0
 29 28  1  0  0  0  0
 30 24  1  0  0  0  0
 32 39  2  0  0  0  0
 32 33  1  0  0  0  0
 33 35  2  0  0  0  0
 34 33  1  0  0  0  0
 35 37  1  0  0  0  0
 35 36  1  0  0  0  0
 38 37  2  0  0  0  0
 39 38  1  0  0  0  0
M  END
>  <minimizedAffinity>
-6.48725224

$$$$

 OpenBabel03272508503D

 39 43  0  0  0  0  0  0  0  0999 V2000
   38.2290   24.8210   35.9350 C   0  0  0  0  0  0  0  0  0  0  0  0
   38.5080   25.8830   36.7970 C   0  0  0  0  0  0  0  0  0  0  0  0
   38.1850   27.0060   36.0440 C   0  0  0  0  0  0  0  0  0  0  0  0
   37.7420   26.5970   34.8100 C   0  0  0  0  0  0  0  0  0  0  0  0
   37.7830   25.2750   34.7840 O   0  0  0  0  0  0  0  0  0  0  0  0
   38.8870   25.8700   37.8120 H   0  0  0  0  0  0  0  0  0  0  0  0
   38.2690   28.0410   36.3740 H   0  0  0  0  0  0  0  0  0  0  0  0
   36.2720   28.3370   33.9040 C   0  0  0  0  0  0  0  0  0  0  0  0
   37.3000   27.4360   33.7070 C   0  0  0  0  0  0  0  0  0  0  0  0
   37.9220   27.3140   32.4720 C   0  0  0  0  0  0  0  0  0  0  0  0
   37.5200   28.1020   31.4020 C   0  0  0  0  0  0  0  0  0  0  0  0
   37.9070   28.2230   30.1180 N   0  0  0  0  0  0  0  0  0  0  0  0
   37.1510   29.1500   29.5650 N   0  0  0  0  0  0  0  0  0  0  0  0
   36.2730   29.6410   30.4670 C   0  0  0  0  0  0  0  0  0  0  0  0
   36.4930   28.9790   31.6600 C   0  0  0  0  0  0  0  0  0  0  0  0
   35.8330   29.1510   32.8580 C   0  0  0  0  0  0  0  0  0  0  0  0
   35.7770   28.4410   34.8660 H   0  0  0  0  0  0  0  0  0  0  0  0
   38.7220   26.6050   32.3420 H   0  0  0  0  0  0  0  0  0  0  0  0
   38.6770   27.6630   29.6670 H   0  0  0  0  0  0  0  0  0  0  0  0
   35.5370   30.4130   30.2710 H   0  0  0  0  0  0  0  0  0  0  0  0
   35.0330   29.8670   32.9670 H   0  0  0  0  0  0  0  0  0  0  0  0
   38.4140   23.4200   36.2890 C   0  0  0  0  0  0  0  0  0  0  0  0
   39.4290   23.0990   36.9380 O   0  0  0  0  0  0  0  0  0  0  0  0
   35.5840   21.1370   36.4610 C   0  0  0  0  0  0  0  0  0  0  0  0
   35.5240   20.6100   35.1860 C   0  0  0  0  0  0  0  0  0  0  0  0
   36.4340   21.0100   34.2410 C   0  0  0  0  0  0  0  0  0  0  0  0
   37.3600   21.9220   34.6260 N   0  0  0  0  0  0  0  0  0  0  0  0
   37.4140   22.4360   35.8790 C   0  0  0  0  0  0  0  0  0  0  0  0
   36.5110   22.0310   36.7940 N   0  0  0  0  0  0  0  0  0  0  0  0
   34.8220   20.7650   37.1540 H   0  0  0  0  0  0  0  0  0  0  0  0
   34.7840   19.8820   34.8830 H   0  0  0  0  0  0  0  0  0  0  0  0
   36.4980   20.5460   32.8600 C   0  0  0  0  0  0  0  0  0  0  0  0
   35.8840   19.3820   32.4430 C   0  0  0  0  0  0  0  0  0  0  0  0
   35.3290   18.7700   33.1330 H   0  0  0  0  0  0  0  0  0  0  0  0
   35.9020   18.8830   31.1580 C   0  0  0  0  0  0  0  0  0  0  0  0
   35.4140   17.9750   30.8690 H   0  0  0  0  0  0  0  0  0  0  0  0
   36.5960   19.6070   30.1920 C   0  0  0  0  0  3  0  0  0  0  0  0
   37.2020   20.7660   30.6310 C   0  0  0  0  0  3  0  0  0  0  0  0
   37.1630   21.2220   31.8960 N   0  0  0  0  0  0  0  0  0  0  0  0
  1 22  1  0  0  0  0
  1  2  2  0  0  0  0
  2  6  1  0  0  0  0
  3  7  1  0  0  0  0
  3  2  1  0  0  0  0
  4  3  2  0  0  0  0
  5  4  1  0  0  0  0
  5  1  1  0  0  0  0
  8 17  1  0  0  0  0
  9  8  1  0  0  0  0
  9  4  1  0  0  0  0
 10  9  2  0  0  0  0
 11 15  2  0  0  0  0
 11 10  1  0  0  0  0
 12 11  1  0  0  0  0
 13 12  1  0  0  0  0
 13 14  2  0  0  0  0
 14 15  1  0  0  0  0
 15 16  1  0  0  0  0
 16 21  1  0  0  0  0
 16  8  2  0  0  0  0
 18 10  1  0  0  0  0
 19 12  1  0  0  0  0
 20 14  1  0  0  0  0
 22 23  2  0  0  0  0
 24 29  1  0  0  0  0
 24 30  1  0  0  0  0
 25 24  2  0  0  0  0
 26 27  2  0  0  0  0
 26 25  1  0  0  0  0
 27 28  1  0  0  0  0
 28 22  1  0  0  0  0
 28 29  2  0  0  0  0
 31 25  1  0  0  0  0
 32 26  1  0  0  0  0
 33 32  1  0  0  0  0
 33 34  1  0  0  0  0
 35 33  2  0  0  0  0
 36 35  1  0  0  0  0
 37 38  2  0  0  0  0
 37 35  1  0  0  0  0
 38 39  1  0  0  0  0
 39 32  2  0  0  0  0
M  END
>  <minimizedAffinity>
-6.4686656

$$$$

 OpenBabel03272508503D

 39 43  0  0  0  0  0  0  0  0999 V2000
   39.1310   26.2130   34.4330 C   0  0  0  0  0  0  0  0  0  0  0  0
   40.2250   27.0610   34.2560 C   0  0  0  0  0  0  0  0  0  0  0  0
   41.3140   26.2530   34.5620 C   0  0  0  0  0  0  0  0  0  0  0  0
   40.8560   25.0020   34.8970 C   0  0  0  0  0  0  0  0  0  0  0  0
   39.5360   25.0190   34.8070 O   0  0  0  0  0  0  0  0  0  0  0  0
   40.2550   28.1020   33.9550 H   0  0  0  0  0  0  0  0  0  0  0  0
   42.3600   26.5580   34.5420 H   0  0  0  0  0  0  0  0  0  0  0  0
   42.8700   23.6220   34.6860 C   0  0  0  0  0  0  0  0  0  0  0  0
   41.6470   23.8450   35.2860 C   0  0  0  0  0  0  0  0  0  0  0  0
   41.1550   22.9840   36.2560 C   0  0  0  0  0  0  0  0  0  0  0  0
   41.8890   21.8730   36.6470 C   0  0  0  0  0  0  0  0  0  0  0  0
   41.6980   20.8760   37.5320 N   0  0  0  0  0  0  0  0  0  0  0  0
   42.7530   20.0880   37.4700 N   0  0  0  0  0  0  0  0  0  0  0  0
   43.6340   20.5530   36.5580 C   0  0  0  0  0  0  0  0  0  0  0  0
   43.0980   21.7040   36.0140 C   0  0  0  0  0  0  0  0  0  0  0  0
   43.6450   22.5170   35.0440 C   0  0  0  0  0  0  0  0  0  0  0  0
   43.2660   24.2890   33.9240 H   0  0  0  0  0  0  0  0  0  0  0  0
   40.1980   23.1780   36.7110 H   0  0  0  0  0  0  0  0  0  0  0  0
   40.8490   20.7720   38.1470 H   0  0  0  0  0  0  0  0  0  0  0  0
   44.5850   20.0910   36.3120 H   0  0  0  0  0  0  0  0  0  0  0  0
   44.6050   22.3040   34.6010 H   0  0  0  0  0  0  0  0  0  0  0  0
   37.7470   26.6220   34.2240 C   0  0  0  0  0  0  0  0  0  0  0  0
   37.2340   27.4200   35.0320 O   0  0  0  0  0  0  0  0  0  0  0  0
   35.6680   26.5200   31.2380 C   0  0  0  0  0  0  0  0  0  0  0  0
   35.6070   25.1730   30.9390 C   0  0  0  0  0  0  0  0  0  0  0  0
   36.2640   24.2700   31.7360 C   0  0  0  0  0  0  0  0  0  0  0  0
   36.9500   24.7660   32.7940 N   0  0  0  0  0  0  0  0  0  0  0  0
   37.0060   26.0900   33.0810 C   0  0  0  0  0  0  0  0  0  0  0  0
   36.3540   26.9620   32.2870 N   0  0  0  0  0  0  0  0  0  0  0  0
   35.1170   27.1730   30.5530 H   0  0  0  0  0  0  0  0  0  0  0  0
   35.0590   24.7800   30.0950 H   0  0  0  0  0  0  0  0  0  0  0  0
   36.2930   22.8230   31.5500 C   0  0  0  0  0  0  0  0  0  0  0  0
   35.2900   21.9980   32.0190 C   0  0  0  0  0  0  0  0  0  0  0  0
   34.4410   22.4010   32.5430 H   0  0  0  0  0  0  0  0  0  0  0  0
   35.2510   20.6270   31.8810 C   0  0  0  0  0  0  0  0  0  0  0  0
   34.4570   20.0170   32.2560 H   0  0  0  0  0  0  0  0  0  0  0  0
   36.3080   20.0140   31.2140 C   0  0  0  0  0  3  0  0  0  0  0  0
   37.2990   20.8560   30.7550 C   0  0  0  0  0  3  0  0  0  0  0  0
   37.3030   22.1930   30.9090 N   0  0  0  0  0  0  0  0  0  0  0  0
  1  5  1  0  0  0  0
  2  1  2  0  0  0  0
  2  3  1  0  0  0  0
  3  4  2  0  0  0  0
  4  9  1  0  0  0  0
  5  4  1  0  0  0  0
  6  2  1  0  0  0  0
  7  3  1  0  0  0  0
  8 16  2  0  0  0  0
  8  9  1  0  0  0  0
  9 10  2  0  0  0  0
 10 11  1  0  0  0  0
 10 18  1  0  0  0  0
 11 12  1  0  0  0  0
 12 19  1  0  0  0  0
 13 12  1  0  0  0  0
 14 13  2  0  0  0  0
 15 14  1  0  0  0  0
 15 11  2  0  0  0  0
 16 15  1  0  0  0  0
 17  8  1  0  0  0  0
 20 14  1  0  0  0  0
 21 16  1  0  0  0  0
 22  1  1  0  0  0  0
 22 23  2  0  0  0  0
 24 29  1  0  0  0  0
 25 24  2  0  0  0  0
 25 26  1  0  0  0  0
 26 27  2  0  0  0  0
 27 28  1  0  0  0  0
 28 22  1  0  0  0  0
 29 28  2  0  0  0  0
 30 24  1  0  0  0  0
 31 25  1  0  0  0  0
 32 26  1  0  0  0  0
 32 33  1  0  0  0  0
 33 34  1  0  0  0  0
 35 33  2  0  0  0  0
 35 36  1  0  0  0  0
 37 35  1  0  0  0  0
 38 39  1  0  0  0  0
 38 37  2  0  0  0  0
 39 32  2  0  0  0  0
M  END
>  <minimizedAffinity>
-6.30786371

$$$$
