
 OpenBabel03272510203D

 35 38  0  0  0  0  0  0  0  0999 V2000
   37.3810   29.1590   50.8040 Br  0  0  0  0  0  0  0  0  0  0  0  0
   35.9780   29.2800   49.5130 C   0  0  0  0  0  0  0  0  0  0  0  0
   35.9830   30.2820   48.5530 C   0  0  0  0  0  0  0  0  0  0  0  0
   34.9400   30.3060   47.6550 C   0  0  0  0  0  0  0  0  0  0  0  0
   33.9030   29.3910   47.6680 C   0  0  0  0  0  0  0  0  0  0  0  0
   33.9330   28.4240   48.6230 C   0  0  0  0  0  0  0  0  0  0  0  0
   34.9650   28.3740   49.5360 C   0  0  0  0  0  0  0  0  0  0  0  0
   34.8900   31.0700   46.8780 H   0  0  0  0  0  0  0  0  0  0  0  0
   33.1600   27.6530   48.7180 H   0  0  0  0  0  0  0  0  0  0  0  0
   34.9790   27.5940   50.2970 H   0  0  0  0  0  0  0  0  0  0  0  0
   38.0050   33.1770   49.4800 C   0  0  0  0  0  0  0  0  0  0  0  0
   39.0370   33.1780   48.4950 C   0  0  0  0  0  0  0  0  0  0  0  0
   39.0140   32.1890   47.5400 C   0  0  0  0  0  0  0  0  0  0  0  0
   38.0150   31.2460   47.5630 N   0  0  0  0  0  0  0  0  0  0  0  0
   37.0570   31.2690   48.5010 C   0  0  0  0  0  0  0  0  0  0  0  0
   37.0630   32.2350   49.4500 N   0  0  0  0  0  0  0  0  0  0  0  0
   38.0040   33.9460   50.2400 H   0  0  0  0  0  0  0  0  0  0  0  0
   39.8050   33.9450   48.5180 H   0  0  0  0  0  0  0  0  0  0  0  0
   39.7720   32.1390   46.7660 H   0  0  0  0  0  0  0  0  0  0  0  0
   32.8060   29.4160   46.7250 C   0  0  0  0  0  0  0  0  0  0  0  0
   31.9590   28.3600   46.4690 C   0  0  0  0  0  0  0  0  0  0  0  0
   30.9180   28.4360   45.5500 C   0  0  0  0  0  0  0  0  0  0  0  0
   30.7100   29.5770   44.8720 N   0  0  0  0  0  0  0  0  0  0  0  0
   31.5280   30.6070   45.1140 C   0  0  0  0  0  0  0  0  0  0  0  0
   32.5310   30.5170   46.0050 N   0  0  0  0  0  0  0  0  0  0  0  0
   32.1220   27.4270   47.0190 H   0  0  0  0  0  0  0  0  0  0  0  0
   30.2630   27.5910   45.3660 H   0  0  0  0  0  0  0  0  0  0  0  0
   31.3320   31.8610   44.3940 C   0  0  0  0  0  0  0  0  0  0  0  0
   31.7030   33.0680   44.9590 C   0  0  0  0  0  0  0  0  0  0  0  0
   32.1380   33.0020   45.9480 H   0  0  0  0  0  0  0  0  0  0  0  0
   31.5050   34.2410   44.2550 C   0  0  0  0  0  0  0  0  0  0  0  0
   31.8430   35.1030   44.8230 H   0  0  0  0  0  0  0  0  0  0  0  0
   30.9460   34.2400   43.0040 C   0  0  0  0  0  3  0  0  0  0  0  0
   30.5910   33.0240   42.4780 C   0  0  0  0  0  3  0  0  0  0  0  0
   30.7820   31.8680   43.1630 N   0  0  0  0  0  0  0  0  0  0  0  0
  2  7  1  0  0  0  0
  2  1  1  0  0  0  0
  3  2  2  0  0  0  0
  4  5  2  0  0  0  0
  4  3  1  0  0  0  0
  5  6  1  0  0  0  0
  6  9  1  0  0  0  0
  6  7  2  0  0  0  0
  7 10  1  0  0  0  0
  8  4  1  0  0  0  0
 11 17  1  0  0  0  0
 12 18  1  0  0  0  0
 12 11  2  0  0  0  0
 13 14  2  0  0  0  0
 13 12  1  0  0  0  0
 14 15  1  0  0  0  0
 15  3  1  0  0  0  0
 15 16  2  0  0  0  0
 16 11  1  0  0  0  0
 19 13  1  0  0  0  0
 20  5  1  0  0  0  0
 21 20  1  0  0  0  0
 21 26  1  0  0  0  0
 22 21  2  0  0  0  0
 23 24  2  0  0  0  0
 23 22  1  0  0  0  0
 24 25  1  0  0  0  0
 25 20  2  0  0  0  0
 27 22  1  0  0  0  0
 28 29  1  0  0  0  0
 28 24  1  0  0  0  0
 29 30  1  0  0  0  0
 31 32  1  0  0  0  0
 31 29  2  0  0  0  0
 33 31  1  0  0  0  0
 34 33  2  0  0  0  0
 34 35  1  0  0  0  0
 35 28  2  0  0  0  0
M  END
>  <minimizedAffinity>
-6.64899778

>  <minimizedRMSD>
0.482353151

$$$$
