
 OpenBabel03262521243D

 46 49  0  0  0  0  0  0  0  0999 V2000
   38.1710   28.2260   51.3180 C   0  0  0  0  0  0  0  0  0  0  0  0
   37.8560   27.5060   50.5250 H   0  0  0  0  0  0  0  0  0  0  0  0
   39.0810   28.7210   50.8990 H   0  0  0  0  0  0  0  0  0  0  0  0
   37.1350   29.2940   51.5730 C   0  0  0  0  0  0  0  0  0  0  0  0
   36.1640   28.8690   51.2360 H   0  0  0  0  0  0  0  0  0  0  0  0
   37.0180   29.3040   52.6970 H   0  0  0  0  0  0  0  0  0  0  0  0
   37.4640   30.5170   51.0780 C   0  0  0  0  0  0  0  0  0  0  0  0
   38.4690   30.8970   51.4130 H   0  0  0  0  0  0  0  0  0  0  0  0
   36.7470   31.3420   51.2670 H   0  0  0  0  0  0  0  0  0  0  0  0
   37.4710   30.1890   49.7500 O   0  0  0  0  0  0  0  0  0  0  0  0
   38.0690   31.0450   48.8650 C   0  0  0  0  0  0  0  0  0  0  0  0
   38.3450   32.2730   49.4180 C   0  0  0  0  0  0  0  0  0  0  0  0
   38.9630   33.2570   48.6180 C   0  0  0  0  0  0  0  0  0  0  0  0
   39.2510   32.9230   47.3270 N   0  0  0  0  0  0  0  0  0  0  0  0
   38.9610   31.6890   46.8080 C   0  0  0  0  0  0  0  0  0  0  0  0
   38.3730   30.7690   47.5920 N   0  0  0  0  0  0  0  0  0  0  0  0
   39.8680   32.5560   44.7720 C   0  0  0  0  0  0  0  0  0  0  0  0
   40.0760   33.6970   45.2710 O   0  0  0  0  0  0  0  0  0  0  0  0
   39.3070   31.4530   45.4480 N   0  0  0  0  0  0  0  0  0  0  0  0
   38.1660   32.6500   50.4160 H   0  0  0  0  0  0  0  0  0  0  0  0
   39.2150   34.2410   48.9630 H   0  0  0  0  0  0  0  0  0  0  0  0
   40.1720   32.5080   43.7370 H   0  0  0  0  0  0  0  0  0  0  0  0
   39.1570   30.5460   44.9990 H   0  0  0  0  0  0  0  0  0  0  0  0
   38.6600   27.3030   52.7630 S   0  0  0  0  0  0  0  0  0  0  0  0
   40.4960   25.2190   53.3830 C   0  0  0  0  0  0  0  0  0  0  0  0
   39.8270   26.0220   52.4530 C   0  0  0  0  0  0  0  0  0  0  0  0
   40.1310   25.7670   51.1030 C   0  0  0  0  0  0  0  0  0  0  0  0
   41.0090   24.8120   50.7150 C   0  0  0  0  0  0  0  0  0  0  0  0
   41.4780   24.3600   49.5620 N   0  0  0  0  0  0  0  0  0  0  0  0
   42.3780   23.3470   49.7140 C   0  0  0  0  0  0  0  0  0  0  0  0
   42.4710   23.1590   51.0770 C   0  0  0  0  0  0  0  0  0  0  0  0
   41.6280   24.0610   51.6980 C   0  0  0  0  0  0  0  0  0  0  0  0
   41.3860   24.2470   53.0170 C   0  0  0  0  0  0  0  0  0  0  0  0
   40.1970   25.4890   54.3820 H   0  0  0  0  0  0  0  0  0  0  0  0
   39.6670   26.3340   50.3070 H   0  0  0  0  0  0  0  0  0  0  0  0
   41.1760   24.7550   48.6270 H   0  0  0  0  0  0  0  0  0  0  0  0
   42.8530   22.8690   48.8670 H   0  0  0  0  0  0  0  0  0  0  0  0
   43.1390   22.3920   51.4240 H   0  0  0  0  0  0  0  0  0  0  0  0
   42.0310   23.4630   54.0630 C   0  0  0  0  0  0  0  0  0  0  0  0
   43.1880   23.8250   54.6730 C   0  0  0  0  0  0  0  0  0  0  0  0
   43.7040   24.7190   54.4220 H   0  0  0  0  0  0  0  0  0  0  0  0
   43.8330   23.1170   55.6660 C   0  0  0  0  0  0  0  0  0  0  0  0
   44.7580   23.4220   56.1420 H   0  0  0  0  0  0  0  0  0  0  0  0
   43.2610   21.9190   56.0940 C   0  0  0  0  0  0  0  0  0  0  0  0
   42.0930   21.5890   55.4520 C   0  0  0  0  0  0  0  0  0  0  0  0
   41.4970   22.3070   54.4890 N   0  0  0  0  0  0  0  0  0  0  0  0
  1  4  1  0  0  0  0
  1 24  1  0  0  0  0
  2  1  1  0  0  0  0
  3  1  1  0  0  0  0
  4  6  1  0  0  0  0
  5  4  1  0  0  0  0
  7  9  1  0  0  0  0
  7  8  1  0  0  0  0
  7  4  1  0  0  0  0
 10  7  1  0  0  0  0
 11 12  1  0  0  0  0
 11 10  1  0  0  0  0
 12 20  1  0  0  0  0
 13 21  1  0  0  0  0
 13 12  2  0  0  0  0
 14 13  1  0  0  0  0
 15 14  2  0  0  0  0
 15 16  1  0  0  0  0
 16 11  2  0  0  0  0
 17 18  2  0  0  0  0
 17 19  1  0  0  0  0
 19 15  1  0  0  0  0
 22 17  1  0  0  0  0
 23 19  1  0  0  0  0
 25 34  1  0  0  0  0
 26 24  1  0  0  0  0
 26 25  2  0  0  0  0
 27 26  1  0  0  0  0
 28 27  2  0  0  0  0
 28 32  1  0  0  0  0
 29 30  1  0  0  0  0
 29 28  1  0  0  0  0
 30 31  2  0  0  0  0
 31 38  1  0  0  0  0
 31 32  1  0  0  0  0
 32 33  2  0  0  0  0
 33 25  1  0  0  0  0
 33 39  1  0  0  0  0
 35 27  1  0  0  0  0
 36 29  1  0  0  0  0
 37 30  1  0  0  0  0
 39 46  2  0  0  0  0
 39 40  1  0  0  0  0
 40 42  2  0  0  0  0
 41 40  1  0  0  0  0
 42 44  1  0  0  0  0
 42 43  1  0  0  0  0
 45 44  2  0  0  0  0
 46 45  1  0  0  0  0
M  END
>  <minimizedAffinity>
-4.37927723

>  <minimizedRMSD>
0.305884808

$$$$
