
 OpenBabel03272504453D

 29 31  0  0  0  0  0  0  0  0999 V2000
   36.4450   29.3500   50.7510 C   0  0  0  0  0  0  0  0  0  0  0  0
   37.3290   29.9880   49.8880 C   0  0  0  0  0  0  0  0  0  0  0  0
   37.0710   30.2570   48.5660 C   0  0  0  0  0  0  0  0  0  0  0  0
   35.8520   29.8440   48.1440 N   0  0  0  0  0  0  0  0  0  0  0  0
   34.9830   29.2230   48.9640 C   0  0  0  0  0  0  0  0  0  0  0  0
   35.2570   28.9780   50.2290 N   0  0  0  0  0  0  0  0  0  0  0  0
   36.7340   29.1760   51.7910 H   0  0  0  0  0  0  0  0  0  0  0  0
   37.5650   33.0650   49.3110 Cl  0  0  0  0  0  0  0  0  0  0  0  0
   38.2940   32.2510   47.9560 C   0  0  0  0  0  0  0  0  0  0  0  0
   38.0000   30.9220   47.6820 C   0  0  0  0  0  0  0  0  0  0  0  0
   38.6230   30.3620   46.5910 C   0  0  0  0  0  0  0  0  0  0  0  0
   39.5000   31.0390   45.7820 C   0  0  0  0  0  0  0  0  0  0  0  0
   39.7670   32.3830   46.1000 C   0  0  0  0  0  0  0  0  0  0  0  0
   40.8820   33.2170   45.0560 Cl  0  0  0  0  0  0  0  0  0  0  0  0
   39.1730   32.9910   47.1750 C   0  0  0  0  0  0  0  0  0  0  0  0
   38.3670   29.3160   46.4070 H   0  0  0  0  0  0  0  0  0  0  0  0
   39.9750   30.5660   44.9280 H   0  0  0  0  0  0  0  0  0  0  0  0
   39.3950   34.0270   47.3970 H   0  0  0  0  0  0  0  0  0  0  0  0
   33.7050   28.8380   48.3520 C   0  0  0  0  0  0  0  0  0  0  0  0
   33.4250   29.3150   47.0800 C   0  0  0  0  0  0  0  0  0  0  0  0
   34.0730   29.9520   46.4960 H   0  0  0  0  0  0  0  0  0  0  0  0
   32.1860   28.8930   46.5870 C   0  0  0  0  0  0  0  0  0  0  0  0
   31.9250   29.2470   45.5850 H   0  0  0  0  0  0  0  0  0  0  0  0
   31.2990   28.0840   47.2590 C   0  0  0  0  0  0  0  0  0  0  0  0
   31.6560   27.6520   48.5240 C   0  0  0  0  0  0  0  0  0  0  0  0
   32.8470   28.0470   49.0210 N   0  0  0  0  0  0  0  0  0  0  0  0
   38.5920   30.3840   50.4390 N   0  0  0  0  0  0  0  0  0  0  0  0
   39.0270   31.3410   50.5330 H   0  0  0  0  0  0  0  0  0  0  0  0
   39.0960   29.5310   50.7760 H   0  0  0  0  0  0  0  0  0  0  0  0
  1  7  1  0  0  0  0
  2 27  1  0  0  0  0
  2  1  2  0  0  0  0
  3  2  1  0  0  0  0
  4  3  2  0  0  0  0
  4  5  1  0  0  0  0
  5  6  2  0  0  0  0
  6  1  1  0  0  0  0
  9  8  1  0  0  0  0
 10  9  1  0  0  0  0
 10  3  1  0  0  0  0
 11 10  2  0  0  0  0
 12 13  2  0  0  0  0
 12 11  1  0  0  0  0
 13 15  1  0  0  0  0
 14 13  1  0  0  0  0
 15 18  1  0  0  0  0
 15  9  2  0  0  0  0
 16 11  1  0  0  0  0
 17 12  1  0  0  0  0
 19  5  1  0  0  0  0
 19 26  1  0  0  0  0
 20 19  2  0  0  0  0
 21 20  1  0  0  0  0
 22 20  1  0  0  0  0
 22 24  2  0  0  0  0
 23 22  1  0  0  0  0
 24 25  1  0  0  0  0
 25 26  2  0  0  0  0
 27 28  1  0  0  0  0
 27 29  1  0  0  0  0
M  END
>  <minimizedAffinity>
-6.56894875

>  <minimizedRMSD>
1.36263239

$$$$
