
 OpenBabel03272508543D

 37 40  0  0  1  0  0  0  0  0999 V2000
   38.4360   31.8130   44.6340 C   0  0  0  0  0  0  0  0  0  0  0  0
   37.3100   32.3910   44.5760 O   0  0  0  0  0  0  0  0  0  0  0  0
   39.0240   31.4780   45.8970 N   0  0  0  0  0  0  0  0  0  0  0  0
   40.0110   31.1580   46.0090 H   0  0  0  0  0  0  0  0  0  0  0  0
   39.1650   31.4740   43.3980 C   0  0  0  0  0  0  0  0  0  0  0  0
   40.1490   30.5260   43.4710 C   0  0  0  0  0  0  0  0  0  0  0  0
   40.8310   30.2030   42.3150 C   0  0  0  0  0  0  0  0  0  0  0  0
   40.4810   30.8530   41.1480 C   0  0  0  0  0  0  0  0  0  0  0  0
   39.4760   31.8230   41.0660 C   0  0  0  0  0  0  0  0  0  0  0  0
   38.8650   32.0780   42.2320 N   0  0  0  0  0  0  0  0  0  0  0  0
   40.4540   29.9940   44.3650 H   0  0  0  0  0  0  0  0  0  0  0  0
   41.6210   29.4650   42.2870 H   0  0  0  0  0  0  0  0  0  0  0  0
   41.0180   30.5980   40.2370 H   0  0  0  0  0  0  0  0  0  0  0  0
   39.1380   32.4850   39.8160 C   0  0  0  0  0  0  0  0  0  0  0  0
   39.7010   31.9790   38.6720 C   0  0  0  0  0  0  0  0  0  0  0  0
   40.3760   31.1240   38.6510 H   0  0  0  0  0  0  0  0  0  0  0  0
   39.3900   32.5940   37.4760 C   0  0  0  0  0  0  0  0  0  0  0  0
   39.7650   32.2970   36.5060 H   0  0  0  0  0  0  0  0  0  0  0  0
   38.5330   33.6720   37.5480 C   0  0  0  0  0  0  0  0  0  0  0  0
   37.9570   34.1900   38.7130 C   0  0  0  0  0  0  0  0  0  0  0  0
   38.3090   33.5320   39.8510 N   0  0  0  0  0  0  0  0  0  0  0  0
   38.6950   31.1540   48.3410 C   0  0  2  0  0  0  0  0  0  0  0  0
   38.7210   32.6080   48.1180 C   0  0  0  0  0  0  0  0  0  0  0  0
   38.1760   31.6030   47.0730 C   0  0  1  0  0  0  0  0  0  0  0  0
   39.7260   30.7080   48.4070 H   0  0  0  0  0  0  0  0  0  0  0  0
   37.9620   33.1790   48.6910 H   0  0  0  0  0  0  0  0  0  0  0  0
   39.6430   33.1380   47.8750 H   0  0  0  0  0  0  0  0  0  0  0  0
   37.0810   31.7060   46.9030 H   0  0  0  0  0  0  0  0  0  0  0  0
   35.9270   29.1720   49.7670 C   0  0  0  0  0  0  0  0  0  0  0  0
   36.1320   29.3280   51.1760 C   0  0  0  0  0  0  0  0  0  0  0  0
   37.2480   30.1420   51.5930 C   0  0  0  0  0  0  0  0  0  0  0  0
   38.0360   30.7120   50.6520 N   0  0  0  0  0  0  0  0  0  0  0  0
   37.7870   30.5250   49.3330 C   0  0  0  0  0  0  0  0  0  0  0  0
   36.7390   29.7590   48.8620 N   0  0  0  0  0  0  0  0  0  0  0  0
   35.0850   28.5570   49.5200 H   0  0  0  0  0  0  0  0  0  0  0  0
   35.4770   28.8540   51.8770 H   0  0  0  0  0  0  0  0  0  0  0  0
   37.4020   30.2610   52.6480 H   0  0  0  0  0  0  0  0  0  0  0  0
  1  3  1  0  0  0  0
  2  1  2  0  0  0  0
  3  4  1  0  0  0  0
  3 24  1  0  0  0  0
  5  6  1  0  0  0  0
  5  1  1  0  0  0  0
  6 11  1  0  0  0  0
  7  6  2  0  0  0  0
  8  7  1  0  0  0  0
  9  8  2  0  0  0  0
  9 10  1  0  0  0  0
 10  5  2  0  0  0  0
 12  7  1  0  0  0  0
 13  8  1  0  0  0  0
 14 21  1  0  0  0  0
 14  9  1  0  0  0  0
 15 14  2  0  0  0  0
 16 15  1  0  0  0  0
 17 19  2  0  0  0  0
 17 15  1  0  0  0  0
 18 17  1  0  0  0  0
 19 20  1  0  0  0  0
 20 21  2  0  0  0  0
 22 25  1  6  0  0  0
 22 33  1  0  0  0  0
 23 22  1  0  0  0  0
 23 26  1  0  0  0  0
 24 28  1  6  0  0  0
 24 23  1  0  0  0  0
 24 22  1  0  0  0  0
 27 23  1  0  0  0  0
 29 30  1  0  0  0  0
 30 31  2  0  0  0  0
 30 36  1  0  0  0  0
 31 37  1  0  0  0  0
 32 31  1  0  0  0  0
 33 32  2  0  0  0  0
 34 33  1  0  0  0  0
 34 29  2  0  0  0  0
 35 29  1  0  0  0  0
M  END
>  <minimizedAffinity>
-5.37440634

>  <minimizedRMSD>
0.837747633

$$$$
