
 OpenBabel03272508183D

 24 26  0  0  0  0  0  0  0  0999 V2000
   37.3250   31.2480   49.5230 C   0  0  0  0  0  0  0  0  0  0  0  0
   36.6110   30.2660   48.8550 C   0  0  0  0  0  0  0  0  0  0  0  0
   36.3100   29.1370   49.6410 C   0  0  0  0  0  0  0  0  0  0  0  0
   36.6930   29.0410   50.9240 N   0  0  0  0  0  0  0  0  0  0  0  0
   37.3950   30.0350   51.5370 C   0  0  0  0  0  0  0  0  0  0  0  0
   37.7000   31.1230   50.8230 N   0  0  0  0  0  0  0  0  0  0  0  0
   35.7810   28.2520   49.3730 H   0  0  0  0  0  0  0  0  0  0  0  0
   37.7550   30.0840   52.5370 H   0  0  0  0  0  0  0  0  0  0  0  0
   37.5780   32.5450   48.7860 C   0  0  0  0  0  0  0  0  0  0  0  0
   38.5460   33.5060   49.2650 C   0  0  0  0  0  0  0  0  0  0  0  0
   39.0010   32.5480   48.1880 C   0  0  0  0  0  0  0  0  0  0  0  0
   36.8740   32.8210   47.9530 H   0  0  0  0  0  0  0  0  0  0  0  0
   38.9350   33.3140   50.3090 H   0  0  0  0  0  0  0  0  0  0  0  0
   38.4790   34.5840   49.0780 H   0  0  0  0  0  0  0  0  0  0  0  0
   39.1720   33.0590   47.2250 H   0  0  0  0  0  0  0  0  0  0  0  0
   39.7050   31.7730   48.4700 H   0  0  0  0  0  0  0  0  0  0  0  0
   36.1650   30.2650   47.4830 C   0  0  0  0  0  0  0  0  0  0  0  0
   34.8600   30.0080   47.1860 C   0  0  0  0  0  0  0  0  0  0  0  0
   34.0740   29.7900   47.8950 H   0  0  0  0  0  0  0  0  0  0  0  0
   34.3480   29.9930   45.9070 C   0  0  0  0  0  0  0  0  0  0  0  0
   33.2920   29.7860   45.6650 H   0  0  0  0  0  0  0  0  0  0  0  0
   35.1330   30.2400   44.8320 C   0  0  0  0  0  0  0  0  0  0  0  0
   36.4480   30.4980   45.1440 C   0  0  0  0  0  0  0  0  0  0  0  0
   36.8900   30.5000   46.3950 N   0  0  0  0  0  0  0  0  0  0  0  0
  1  6  1  0  0  0  0
  2  1  2  0  0  0  0
  2  3  1  0  0  0  0
  3  4  2  0  0  0  0
  4  5  1  0  0  0  0
  5  8  1  0  0  0  0
  6  5  2  0  0  0  0
  7  3  1  0  0  0  0
  9 10  1  0  0  0  0
  9  1  1  0  0  0  0
 10 13  1  0  0  0  0
 11 16  1  0  0  0  0
 11  9  1  0  0  0  0
 11 10  1  0  0  0  0
 12  9  1  0  0  0  0
 14 10  1  0  0  0  0
 15 11  1  0  0  0  0
 17  2  1  0  0  0  0
 18 17  1  0  0  0  0
 18 19  1  0  0  0  0
 20 18  2  0  0  0  0
 21 20  1  0  0  0  0
 22 23  2  0  0  0  0
 22 20  1  0  0  0  0
 23 24  1  0  0  0  0
 24 17  2  0  0  0  0
M  END
>  <minimizedAffinity>
-4.82145071

>  <minimizedRMSD>
5.47587633

$$$$
