
 OpenBabel03272508313D

 31 33  0  0  1  0  0  0  0  0999 V2000
   38.2720   22.9430   34.6590 N   0  0  0  0  0  0  0  0  0  0  0  0
   37.4490   21.8640   34.1260 C   0  0  0  0  0  0  0  0  0  0  0  0
   37.4660   21.7920   32.6430 C   0  0  0  0  0  0  0  0  0  0  0  0
   38.6680   22.3770   32.1390 N   0  0  0  0  0  0  0  0  0  0  0  0
   38.5510   23.8090   32.3800 C   0  0  0  0  0  0  0  0  0  0  0  0
   38.8630   23.9890   33.8410 C   0  0  1  0  0  0  0  0  0  0  0  0
   37.9220   20.9190   34.5190 H   0  0  0  0  0  0  0  0  0  0  0  0
   36.4210   21.8650   34.5610 H   0  0  0  0  0  0  0  0  0  0  0  0
   37.4100   20.7460   32.2850 H   0  0  0  0  0  0  0  0  0  0  0  0
   36.6080   22.3310   32.1990 H   0  0  0  0  0  0  0  0  0  0  0  0
   39.5320   21.9880   32.5500 H   0  0  0  0  0  0  0  0  0  0  0  0
   37.5600   24.1620   32.0930 H   0  0  0  0  0  0  0  0  0  0  0  0
   39.3070   24.3700   31.7980 H   0  0  0  0  0  0  0  0  0  0  0  0
   39.9620   23.9070   33.9670 H   0  0  0  0  0  0  0  0  0  0  0  0
   37.5360   23.3260   36.9810 C   0  0  0  0  0  0  0  0  0  0  0  0
   38.5250   22.9980   36.0520 C   0  0  0  0  0  0  0  0  0  0  0  0
   39.7950   22.7210   36.5450 C   0  0  0  0  0  0  0  0  0  0  0  0
   39.9810   22.7910   37.9160 N   0  0  0  0  0  0  0  0  0  0  0  0
   38.9970   23.1100   38.7580 C   0  0  0  0  0  0  0  0  0  0  0  0
   37.7430   23.3860   38.3090 N   0  0  0  0  0  0  0  0  0  0  0  0
   36.5290   23.5490   36.6310 H   0  0  0  0  0  0  0  0  0  0  0  0
   40.6220   22.4590   35.9110 H   0  0  0  0  0  0  0  0  0  0  0  0
   39.2200   23.1440   39.8120 H   0  0  0  0  0  0  0  0  0  0  0  0
   38.4570   25.3420   34.3200 C   0  0  0  0  0  0  0  0  0  0  0  0
   39.2460   26.1180   35.1410 C   0  0  0  0  0  0  0  0  0  0  0  0
   40.2060   25.7410   35.4590 H   0  0  0  0  0  0  0  0  0  0  0  0
   38.8690   27.3600   35.5780 C   0  0  0  0  0  0  0  0  0  0  0  0
   39.4980   27.9770   36.2310 H   0  0  0  0  0  0  0  0  0  0  0  0
   37.6520   27.8930   35.2030 C   0  0  0  0  0  3  0  0  0  0  0  0
   36.8790   27.0990   34.3810 C   0  0  0  0  0  3  0  0  0  0  0  0
   37.2760   25.8780   33.9650 N   0  0  0  0  0  0  0  0  0  0  0  0
  1 16  1  0  0  0  0
  2  7  1  0  0  0  0
  2  8  1  0  0  0  0
  2  1  1  0  0  0  0
  3  2  1  0  0  0  0
  4  5  1  0  0  0  0
  4 11  1  0  0  0  0
  4  3  1  0  0  0  0
  5  6  1  0  0  0  0
  6 14  1  1  0  0  0
  6 24  1  0  0  0  0
  6  1  1  0  0  0  0
  9  3  1  0  0  0  0
 10  3  1  0  0  0  0
 12  5  1  0  0  0  0
 13  5  1  0  0  0  0
 15 20  1  0  0  0  0
 16 17  1  0  0  0  0
 16 15  2  0  0  0  0
 17 18  2  0  0  0  0
 18 19  1  0  0  0  0
 19 23  1  0  0  0  0
 20 19  2  0  0  0  0
 21 15  1  0  0  0  0
 22 17  1  0  0  0  0
 24 25  1  0  0  0  0
 25 26  1  0  0  0  0
 25 27  2  0  0  0  0
 27 28  1  0  0  0  0
 29 27  1  0  0  0  0
 30 29  2  0  0  0  0
 31 24  2  0  0  0  0
 31 30  1  0  0  0  0
M  END
>  <minimizedAffinity>
-4.81078482

$$$$

 OpenBabel03272508313D

 31 33  0  0  1  0  0  0  0  0999 V2000
   36.9140   24.5760   31.8430 N   0  0  0  0  0  0  0  0  0  0  0  0
   35.5580   24.1810   31.4850 C   0  0  0  0  0  0  0  0  0  0  0  0
   34.7730   25.2780   30.8630 C   0  0  0  0  0  0  0  0  0  0  0  0
   35.6530   26.2260   30.2580 N   0  0  0  0  0  0  0  0  0  0  0  0
   36.3270   26.9070   31.3560 C   0  0  0  0  0  0  0  0  0  0  0  0
   37.3890   25.9490   31.8210 C   0  0  1  0  0  0  0  0  0  0  0  0
   35.6880   23.3730   30.7090 H   0  0  0  0  0  0  0  0  0  0  0  0
   35.0290   23.6770   32.3280 H   0  0  0  0  0  0  0  0  0  0  0  0
   34.0830   24.8960   30.0860 H   0  0  0  0  0  0  0  0  0  0  0  0
   34.1540   25.8100   31.6110 H   0  0  0  0  0  0  0  0  0  0  0  0
   36.3260   25.8130   29.5910 H   0  0  0  0  0  0  0  0  0  0  0  0
   35.6090   27.1820   32.1300 H   0  0  0  0  0  0  0  0  0  0  0  0
   36.8290   27.8270   30.9990 H   0  0  0  0  0  0  0  0  0  0  0  0
   38.2230   25.9850   31.0910 H   0  0  0  0  0  0  0  0  0  0  0  0
   37.6610   22.7990   33.3810 C   0  0  0  0  0  0  0  0  0  0  0  0
   37.8430   23.5820   32.2400 C   0  0  0  0  0  0  0  0  0  0  0  0
   38.9900   23.3540   31.4890 C   0  0  0  0  0  0  0  0  0  0  0  0
   39.8600   22.3700   31.9270 N   0  0  0  0  0  0  0  0  0  0  0  0
   39.6340   21.6500   33.0280 C   0  0  0  0  0  0  0  0  0  0  0  0
   38.5220   21.8480   33.7860 N   0  0  0  0  0  0  0  0  0  0  0  0
   36.7740   22.9500   33.9950 H   0  0  0  0  0  0  0  0  0  0  0  0
   39.2200   23.9040   30.5950 H   0  0  0  0  0  0  0  0  0  0  0  0
   40.3580   20.9020   33.3050 H   0  0  0  0  0  0  0  0  0  0  0  0
   37.9390   26.3510   33.1470 C   0  0  0  0  0  0  0  0  0  0  0  0
   39.2680   26.6510   33.3520 C   0  0  0  0  0  0  0  0  0  0  0  0
   39.9550   26.5970   32.5210 H   0  0  0  0  0  0  0  0  0  0  0  0
   39.7690   27.0200   34.5720 C   0  0  0  0  0  0  0  0  0  0  0  0
   40.8270   27.2590   34.7340 H   0  0  0  0  0  0  0  0  0  0  0  0
   38.9380   27.1050   35.6710 C   0  0  0  0  0  3  0  0  0  0  0  0
   37.6120   26.8000   35.4440 C   0  0  0  0  0  3  0  0  0  0  0  0
   37.1460   26.4400   34.2300 N   0  0  0  0  0  0  0  0  0  0  0  0
  1 16  1  0  0  0  0
  2  1  1  0  0  0  0
  2  8  1  0  0  0  0
  3  2  1  0  0  0  0
  3 10  1  0  0  0  0
  4  3  1  0  0  0  0
  4  5  1  0  0  0  0
  5  6  1  0  0  0  0
  5 12  1  0  0  0  0
  6 14  1  6  0  0  0
  6  1  1  0  0  0  0
  6 24  1  0  0  0  0
  7  2  1  0  0  0  0
  9  3  1  0  0  0  0
 11  4  1  0  0  0  0
 13  5  1  0  0  0  0
 15 20  1  0  0  0  0
 15 21  1  0  0  0  0
 16 15  2  0  0  0  0
 17 18  2  0  0  0  0
 17 16  1  0  0  0  0
 18 19  1  0  0  0  0
 19 23  1  0  0  0  0
 19 20  2  0  0  0  0
 22 17  1  0  0  0  0
 24 25  2  0  0  0  0
 24 31  1  0  0  0  0
 25 27  1  0  0  0  0
 26 25  1  0  0  0  0
 27 28  1  0  0  0  0
 27 29  2  0  0  0  0
 30 29  1  0  0  0  0
 31 30  2  0  0  0  0
M  END
>  <minimizedAffinity>
-4.6507926

$$$$

 OpenBabel03272508313D

 31 33  0  0  1  0  0  0  0  0999 V2000
   39.9210   22.2890   35.3520 N   0  0  0  0  0  0  0  0  0  0  0  0
   41.1600   21.5390   35.5130 C   0  0  0  0  0  0  0  0  0  0  0  0
   41.6430   21.4980   36.9170 C   0  0  0  0  0  0  0  0  0  0  0  0
   40.5470   21.6830   37.8150 N   0  0  0  0  0  0  0  0  0  0  0  0
   40.1350   23.0720   37.6670 C   0  0  0  0  0  0  0  0  0  0  0  0
   39.3320   23.1110   36.3950 C   0  0  1  0  0  0  0  0  0  0  0  0
   40.9010   20.4840   35.2110 H   0  0  0  0  0  0  0  0  0  0  0  0
   41.9420   21.8560   34.7820 H   0  0  0  0  0  0  0  0  0  0  0  0
   42.1290   20.5320   37.1540 H   0  0  0  0  0  0  0  0  0  0  0  0
   42.3880   22.2920   37.1160 H   0  0  0  0  0  0  0  0  0  0  0  0
   39.7600   21.0300   37.6620 H   0  0  0  0  0  0  0  0  0  0  0  0
   41.0060   23.7280   37.6610 H   0  0  0  0  0  0  0  0  0  0  0  0
   39.4710   23.3770   38.4990 H   0  0  0  0  0  0  0  0  0  0  0  0
   38.3320   22.6830   36.6100 H   0  0  0  0  0  0  0  0  0  0  0  0
   37.8840   21.8760   34.0250 C   0  0  0  0  0  0  0  0  0  0  0  0
   39.2310   22.2300   34.1160 C   0  0  0  0  0  0  0  0  0  0  0  0
   39.8910   22.5280   32.9290 C   0  0  0  0  0  0  0  0  0  0  0  0
   39.1650   22.4520   31.7530 N   0  0  0  0  0  0  0  0  0  0  0  0
   37.8760   22.1080   31.7270 C   0  0  0  0  0  0  0  0  0  0  0  0
   37.2000   21.8110   32.8690 N   0  0  0  0  0  0  0  0  0  0  0  0
   37.3340   21.6360   34.9350 H   0  0  0  0  0  0  0  0  0  0  0  0
   40.9280   22.8100   32.8940 H   0  0  0  0  0  0  0  0  0  0  0  0
   37.3780   22.0710   30.7720 H   0  0  0  0  0  0  0  0  0  0  0  0
   39.1260   24.5120   35.9260 C   0  0  0  0  0  0  0  0  0  0  0  0
   37.9200   25.1700   36.0260 C   0  0  0  0  0  0  0  0  0  0  0  0
   37.0760   24.6590   36.4630 H   0  0  0  0  0  0  0  0  0  0  0  0
   37.7360   26.4570   35.5940 C   0  0  0  0  0  0  0  0  0  0  0  0
   36.7760   26.9800   35.6740 H   0  0  0  0  0  0  0  0  0  0  0  0
   38.7810   27.1590   35.0260 C   0  0  0  0  0  3  0  0  0  0  0  0
   39.9790   26.4800   34.9360 C   0  0  0  0  0  3  0  0  0  0  0  0
   40.1320   25.2130   35.3710 N   0  0  0  0  0  0  0  0  0  0  0  0
  1  2  1  0  0  0  0
  1  6  1  0  0  0  0
  2  3  1  0  0  0  0
  3 10  1  0  0  0  0
  3  9  1  0  0  0  0
  3  4  1  0  0  0  0
  5  4  1  0  0  0  0
  5 13  1  0  0  0  0
  6 14  1  1  0  0  0
  6  5  1  0  0  0  0
  7  2  1  0  0  0  0
  8  2  1  0  0  0  0
 11  4  1  0  0  0  0
 12  5  1  0  0  0  0
 15 16  1  0  0  0  0
 15 21  1  0  0  0  0
 16  1  1  0  0  0  0
 17 16  2  0  0  0  0
 18 17  1  0  0  0  0
 19 18  2  0  0  0  0
 19 20  1  0  0  0  0
 20 15  2  0  0  0  0
 22 17  1  0  0  0  0
 23 19  1  0  0  0  0
 24 25  1  0  0  0  0
 24  6  1  0  0  0  0
 25 26  1  0  0  0  0
 27 28  1  0  0  0  0
 27 25  2  0  0  0  0
 29 27  1  0  0  0  0
 30 29  2  0  0  0  0
 30 31  1  0  0  0  0
 31 24  2  0  0  0  0
M  END
>  <minimizedAffinity>
-4.42317343

$$$$

 OpenBabel03272508313D

 31 33  0  0  1  0  0  0  0  0999 V2000
   39.3790   22.6260   35.6020 N   0  0  0  0  0  0  0  0  0  0  0  0
   40.5750   21.9100   36.0290 C   0  0  0  0  0  0  0  0  0  0  0  0
   40.8430   22.0320   37.4840 C   0  0  0  0  0  0  0  0  0  0  0  0
   39.6280   22.3070   38.1840 N   0  0  0  0  0  0  0  0  0  0  0  0
   39.2530   23.6670   37.8200 C   0  0  0  0  0  0  0  0  0  0  0  0
   38.6480   23.5550   36.4480 C   0  0  1  0  0  0  0  0  0  0  0  0
   40.3550   20.8260   35.8130 H   0  0  0  0  0  0  0  0  0  0  0  0
   41.4590   22.1500   35.3910 H   0  0  0  0  0  0  0  0  0  0  0  0
   41.2810   21.1030   37.8980 H   0  0  0  0  0  0  0  0  0  0  0  0
   41.5570   22.8500   37.7000 H   0  0  0  0  0  0  0  0  0  0  0  0
   38.8680   21.6340   37.9910 H   0  0  0  0  0  0  0  0  0  0  0  0
   40.1210   24.3260   37.8690 H   0  0  0  0  0  0  0  0  0  0  0  0
   38.4760   24.0580   38.5050 H   0  0  0  0  0  0  0  0  0  0  0  0
   37.6240   23.1440   36.5590 H   0  0  0  0  0  0  0  0  0  0  0  0
   37.5870   21.9530   34.0480 C   0  0  0  0  0  0  0  0  0  0  0  0
   38.8790   22.4210   34.2920 C   0  0  0  0  0  0  0  0  0  0  0  0
   39.6800   22.6870   33.1870 C   0  0  0  0  0  0  0  0  0  0  0  0
   39.1360   22.4670   31.9330 N   0  0  0  0  0  0  0  0  0  0  0  0
   37.8920   22.0170   31.7590 C   0  0  0  0  0  0  0  0  0  0  0  0
   37.0820   21.7480   32.8180 N   0  0  0  0  0  0  0  0  0  0  0  0
   36.9310   21.7340   34.8890 H   0  0  0  0  0  0  0  0  0  0  0  0
   40.6870   23.0500   33.2710 H   0  0  0  0  0  0  0  0  0  0  0  0
   37.5400   21.8710   30.7510 H   0  0  0  0  0  0  0  0  0  0  0  0
   38.5250   24.8920   35.7980 C   0  0  0  0  0  0  0  0  0  0  0  0
   39.6120   25.6580   35.4380 C   0  0  0  0  0  0  0  0  0  0  0  0
   40.6060   25.2830   35.6290 H   0  0  0  0  0  0  0  0  0  0  0  0
   39.4940   26.8850   34.8410 C   0  0  0  0  0  0  0  0  0  0  0  0
   40.3600   27.4930   34.5540 H   0  0  0  0  0  0  0  0  0  0  0  0
   38.2470   27.4130   34.5730 C   0  0  0  0  0  3  0  0  0  0  0  0
   37.1730   26.6300   34.9430 C   0  0  0  0  0  3  0  0  0  0  0  0
   37.3190   25.4240   35.5290 N   0  0  0  0  0  0  0  0  0  0  0  0
  1  2  1  0  0  0  0
  1  6  1  0  0  0  0
  2  3  1  0  0  0  0
  3 10  1  0  0  0  0
  3  9  1  0  0  0  0
  3  4  1  0  0  0  0
  5 12  1  0  0  0  0
  5  4  1  0  0  0  0
  5 13  1  0  0  0  0
  6 14  1  1  0  0  0
  6  5  1  0  0  0  0
  7  2  1  0  0  0  0
  8  2  1  0  0  0  0
 11  4  1  0  0  0  0
 15 16  1  0  0  0  0
 15 21  1  0  0  0  0
 16  1  1  0  0  0  0
 17 22  1  0  0  0  0
 17 16  2  0  0  0  0
 18 17  1  0  0  0  0
 19 18  2  0  0  0  0
 19 20  1  0  0  0  0
 20 15  2  0  0  0  0
 23 19  1  0  0  0  0
 24  6  1  0  0  0  0
 25 26  1  0  0  0  0
 25 24  2  0  0  0  0
 27 25  1  0  0  0  0
 28 27  1  0  0  0  0
 29 27  2  0  0  0  0
 29 30  1  0  0  0  0
 30 31  2  0  0  0  0
 31 24  1  0  0  0  0
M  END
>  <minimizedAffinity>
-4.37683582

$$$$

 OpenBabel03272508313D

 31 33  0  0  1  0  0  0  0  0999 V2000
   40.4550   23.7330   35.3270 N   0  0  0  0  0  0  0  0  0  0  0  0
   41.2420   23.2160   36.4390 C   0  0  0  0  0  0  0  0  0  0  0  0
   40.4400   22.4250   37.4070 C   0  0  0  0  0  0  0  0  0  0  0  0
   39.2840   21.8890   36.7610 N   0  0  0  0  0  0  0  0  0  0  0  0
   38.4130   23.0250   36.4880 C   0  0  0  0  0  0  0  0  0  0  0  0
   39.0040   23.6910   35.2750 C   0  0  1  0  0  0  0  0  0  0  0  0
   41.9890   22.5170   35.9650 H   0  0  0  0  0  0  0  0  0  0  0  0
   41.8650   24.0080   36.9190 H   0  0  0  0  0  0  0  0  0  0  0  0
   41.0230   21.5850   37.8310 H   0  0  0  0  0  0  0  0  0  0  0  0
   40.1010   23.0450   38.2590 H   0  0  0  0  0  0  0  0  0  0  0  0
   39.4910   21.3490   35.9050 H   0  0  0  0  0  0  0  0  0  0  0  0
   38.3500   23.6740   37.3620 H   0  0  0  0  0  0  0  0  0  0  0  0
   37.3920   22.6850   36.2270 H   0  0  0  0  0  0  0  0  0  0  0  0
   38.7360   23.0830   34.3880 H   0  0  0  0  0  0  0  0  0  0  0  0
   41.9340   25.4430   34.3430 C   0  0  0  0  0  0  0  0  0  0  0  0
   41.1200   24.3160   34.2200 C   0  0  0  0  0  0  0  0  0  0  0  0
   40.9780   23.7700   32.9490 C   0  0  0  0  0  0  0  0  0  0  0  0
   41.6520   24.3840   31.9070 N   0  0  0  0  0  0  0  0  0  0  0  0
   42.4190   25.4620   32.0840 C   0  0  0  0  0  0  0  0  0  0  0  0
   42.5800   26.0210   33.3140 N   0  0  0  0  0  0  0  0  0  0  0  0
   42.0690   25.8990   35.3240 H   0  0  0  0  0  0  0  0  0  0  0  0
   40.3730   22.9040   32.7520 H   0  0  0  0  0  0  0  0  0  0  0  0
   42.9110   25.8830   31.2240 H   0  0  0  0  0  0  0  0  0  0  0  0
   38.4320   25.0530   35.0720 C   0  0  0  0  0  0  0  0  0  0  0  0
   38.5930   26.0810   35.9750 C   0  0  0  0  0  0  0  0  0  0  0  0
   39.1580   25.9050   36.8780 H   0  0  0  0  0  0  0  0  0  0  0  0
   38.0660   27.3310   35.7840 C   0  0  0  0  0  0  0  0  0  0  0  0
   38.1950   28.1480   36.5030 H   0  0  0  0  0  0  0  0  0  0  0  0
   37.3340   27.6130   34.6480 C   0  0  0  0  0  3  0  0  0  0  0  0
   37.1850   26.5700   33.7570 C   0  0  0  0  0  3  0  0  0  0  0  0
   37.7160   25.3480   33.9720 N   0  0  0  0  0  0  0  0  0  0  0  0
  1  2  1  0  0  0  0
  2  8  1  0  0  0  0
  2  3  1  0  0  0  0
  3  9  1  0  0  0  0
  3 10  1  0  0  0  0
  4  3  1  0  0  0  0
  5  4  1  0  0  0  0
  5 12  1  0  0  0  0
  6 14  1  6  0  0  0
  6  1  1  0  0  0  0
  6  5  1  0  0  0  0
  7  2  1  0  0  0  0
 11  4  1  0  0  0  0
 13  5  1  0  0  0  0
 15 21  1  0  0  0  0
 16 15  1  0  0  0  0
 16  1  1  0  0  0  0
 17 16  2  0  0  0  0
 18 19  2  0  0  0  0
 18 17  1  0  0  0  0
 19 20  1  0  0  0  0
 20 15  2  0  0  0  0
 22 17  1  0  0  0  0
 23 19  1  0  0  0  0
 24  6  1  0  0  0  0
 24 25  1  0  0  0  0
 25 26  1  0  0  0  0
 27 25  2  0  0  0  0
 27 28  1  0  0  0  0
 29 27  1  0  0  0  0
 30 31  1  0  0  0  0
 30 29  2  0  0  0  0
 31 24  2  0  0  0  0
M  END
>  <minimizedAffinity>
-4.32120991

$$$$

 OpenBabel03272508313D

 31 33  0  0  1  0  0  0  0  0999 V2000
   36.2100   28.9710   31.7340 N   0  0  0  0  0  0  0  0  0  0  0  0
   36.5610   29.9110   30.6770 C   0  0  0  0  0  0  0  0  0  0  0  0
   37.1960   29.2620   29.5010 C   0  0  0  0  0  0  0  0  0  0  0  0
   36.8020   27.8910   29.4290 N   0  0  0  0  0  0  0  0  0  0  0  0
   37.4580   27.2240   30.5460 C   0  0  0  0  0  0  0  0  0  0  0  0
   36.6380   27.5830   31.7550 C   0  0  1  0  0  0  0  0  0  0  0  0
   35.5780   30.3450   30.3360 H   0  0  0  0  0  0  0  0  0  0  0  0
   37.1340   30.7870   31.0650 H   0  0  0  0  0  0  0  0  0  0  0  0
   36.9060   29.7580   28.5550 H   0  0  0  0  0  0  0  0  0  0  0  0
   38.3000   29.3000   29.5610 H   0  0  0  0  0  0  0  0  0  0  0  0
   35.7790   27.7430   29.4410 H   0  0  0  0  0  0  0  0  0  0  0  0
   38.5020   27.5330   30.6120 H   0  0  0  0  0  0  0  0  0  0  0  0
   37.4230   26.1240   30.4240 H   0  0  0  0  0  0  0  0  0  0  0  0
   35.7160   26.9670   31.7370 H   0  0  0  0  0  0  0  0  0  0  0  0
   35.8960   30.2450   33.8220 C   0  0  0  0  0  0  0  0  0  0  0  0
   35.4060   29.4120   32.8140 C   0  0  0  0  0  0  0  0  0  0  0  0
   34.0760   29.0190   32.9040 C   0  0  0  0  0  0  0  0  0  0  0  0
   33.3410   29.4820   33.9820 N   0  0  0  0  0  0  0  0  0  0  0  0
   33.8620   30.2780   34.9180 C   0  0  0  0  0  0  0  0  0  0  0  0
   35.1600   30.6810   34.8590 N   0  0  0  0  0  0  0  0  0  0  0  0
   36.9340   30.5730   33.7840 H   0  0  0  0  0  0  0  0  0  0  0  0
   33.6070   28.3800   32.1780 H   0  0  0  0  0  0  0  0  0  0  0  0
   33.2260   30.5960   35.7270 H   0  0  0  0  0  0  0  0  0  0  0  0
   37.3640   27.2620   33.0180 C   0  0  0  0  0  0  0  0  0  0  0  0
   38.7290   27.3890   33.1560 C   0  0  0  0  0  0  0  0  0  0  0  0
   39.3130   27.7360   32.3160 H   0  0  0  0  0  0  0  0  0  0  0  0
   39.3910   27.0940   34.3180 C   0  0  0  0  0  0  0  0  0  0  0  0
   40.4780   27.1950   34.4260 H   0  0  0  0  0  0  0  0  0  0  0  0
   38.6960   26.6450   35.4220 C   0  0  0  0  0  3  0  0  0  0  0  0
   37.3300   26.5250   35.2630 C   0  0  0  0  0  3  0  0  0  0  0  0
   36.7040   26.8240   34.1060 N   0  0  0  0  0  0  0  0  0  0  0  0
  1  6  1  0  0  0  0
  1 16  1  0  0  0  0
  2  8  1  0  0  0  0
  2  1  1  0  0  0  0
  3 10  1  0  0  0  0
  3  2  1  0  0  0  0
  4 11  1  0  0  0  0
  4  3  1  0  0  0  0
  4  5  1  0  0  0  0
  5 12  1  0  0  0  0
  5  6  1  0  0  0  0
  6 14  1  6  0  0  0
  6 24  1  0  0  0  0
  7  2  1  0  0  0  0
  9  3  1  0  0  0  0
 13  5  1  0  0  0  0
 15 20  1  0  0  0  0
 16 17  1  0  0  0  0
 16 15  2  0  0  0  0
 17 18  2  0  0  0  0
 18 19  1  0  0  0  0
 19 23  1  0  0  0  0
 20 19  2  0  0  0  0
 21 15  1  0  0  0  0
 22 17  1  0  0  0  0
 24 25  2  0  0  0  0
 24 31  1  0  0  0  0
 25 27  1  0  0  0  0
 26 25  1  0  0  0  0
 27 28  1  0  0  0  0
 27 29  2  0  0  0  0
 30 29  1  0  0  0  0
 31 30  2  0  0  0  0
M  END
>  <minimizedAffinity>
-4.27771997

$$$$

 OpenBabel03272508313D

 31 33  0  0  1  0  0  0  0  0999 V2000
   40.5950   24.8940   34.3870 N   0  0  0  0  0  0  0  0  0  0  0  0
   41.6530   24.3540   33.5420 C   0  0  0  0  0  0  0  0  0  0  0  0
   42.7450   25.3260   33.2770 C   0  0  0  0  0  0  0  0  0  0  0  0
   42.7990   26.2970   34.3230 N   0  0  0  0  0  0  0  0  0  0  0  0
   41.6060   27.1190   34.1700 C   0  0  0  0  0  0  0  0  0  0  0  0
   40.4850   26.2980   34.7460 C   0  0  1  0  0  0  0  0  0  0  0  0
   42.0920   23.5030   34.1360 H   0  0  0  0  0  0  0  0  0  0  0  0
   41.2510   23.8740   32.6180 H   0  0  0  0  0  0  0  0  0  0  0  0
   43.7310   24.8250   33.2150 H   0  0  0  0  0  0  0  0  0  0  0  0
   42.5930   25.8590   32.3190 H   0  0  0  0  0  0  0  0  0  0  0  0
   42.8680   25.8940   35.2720 H   0  0  0  0  0  0  0  0  0  0  0  0
   41.4630   27.3900   33.1230 H   0  0  0  0  0  0  0  0  0  0  0  0
   41.6890   28.0490   34.7660 H   0  0  0  0  0  0  0  0  0  0  0  0
   40.5590   26.3480   35.8520 H   0  0  0  0  0  0  0  0  0  0  0  0
   39.4140   23.8250   36.2690 C   0  0  0  0  0  0  0  0  0  0  0  0
   39.6050   24.0200   34.9000 C   0  0  0  0  0  0  0  0  0  0  0  0
   38.7760   23.3150   34.0350 C   0  0  0  0  0  0  0  0  0  0  0  0
   37.8270   22.4760   34.5960 N   0  0  0  0  0  0  0  0  0  0  0  0
   37.6900   22.3290   35.9150 C   0  0  0  0  0  0  0  0  0  0  0  0
   38.4840   23.0040   36.7880 N   0  0  0  0  0  0  0  0  0  0  0  0
   40.0450   24.3610   36.9770 H   0  0  0  0  0  0  0  0  0  0  0  0
   38.8450   23.3970   32.9660 H   0  0  0  0  0  0  0  0  0  0  0  0
   36.9280   21.6570   36.2750 H   0  0  0  0  0  0  0  0  0  0  0  0
   39.1540   26.8490   34.3620 C   0  0  0  0  0  0  0  0  0  0  0  0
   38.2440   27.3290   35.2780 C   0  0  0  0  0  0  0  0  0  0  0  0
   38.4940   27.3100   36.3290 H   0  0  0  0  0  0  0  0  0  0  0  0
   37.0220   27.8350   34.9210 C   0  0  0  0  0  0  0  0  0  0  0  0
   36.2990   28.2170   35.6510 H   0  0  0  0  0  0  0  0  0  0  0  0
   36.6490   27.8830   33.5930 C   0  0  0  0  0  3  0  0  0  0  0  0
   37.5750   27.3980   32.6920 C   0  0  0  0  0  3  0  0  0  0  0  0
   38.7720   26.9060   33.0730 N   0  0  0  0  0  0  0  0  0  0  0  0
  1  6  1  0  0  0  0
  1 16  1  0  0  0  0
  2  7  1  0  0  0  0
  2  1  1  0  0  0  0
  3  2  1  0  0  0  0
  3  4  1  0  0  0  0
  4 11  1  0  0  0  0
  5  4  1  0  0  0  0
  5  6  1  0  0  0  0
  5 13  1  0  0  0  0
  6 14  1  1  0  0  0
  8  2  1  0  0  0  0
  9  3  1  0  0  0  0
 10  3  1  0  0  0  0
 12  5  1  0  0  0  0
 15 20  1  0  0  0  0
 15 21  1  0  0  0  0
 16 15  2  0  0  0  0
 17 18  2  0  0  0  0
 17 16  1  0  0  0  0
 18 19  1  0  0  0  0
 19 23  1  0  0  0  0
 19 20  2  0  0  0  0
 22 17  1  0  0  0  0
 24  6  1  0  0  0  0
 24 25  1  0  0  0  0
 25 26  1  0  0  0  0
 27 25  2  0  0  0  0
 27 28  1  0  0  0  0
 29 27  1  0  0  0  0
 30 31  1  0  0  0  0
 30 29  2  0  0  0  0
 31 24  2  0  0  0  0
M  END
>  <minimizedAffinity>
-4.26681089

$$$$

 OpenBabel03272508313D

 31 33  0  0  1  0  0  0  0  0999 V2000
   35.0560   31.2080   34.9950 N   0  0  0  0  0  0  0  0  0  0  0  0
   35.7980   32.4410   35.2290 C   0  0  0  0  0  0  0  0  0  0  0  0
   35.3920   33.1410   36.4740 C   0  0  0  0  0  0  0  0  0  0  0  0
   34.8280   32.2090   37.3970 N   0  0  0  0  0  0  0  0  0  0  0  0
   33.5460   31.8080   36.8330 C   0  0  0  0  0  0  0  0  0  0  0  0
   33.8840   30.8130   35.7570 C   0  0  1  0  0  0  0  0  0  0  0  0
   36.8690   32.1140   35.3560 H   0  0  0  0  0  0  0  0  0  0  0  0
   35.8110   33.1010   34.3290 H   0  0  0  0  0  0  0  0  0  0  0  0
   36.2530   33.6380   36.9620 H   0  0  0  0  0  0  0  0  0  0  0  0
   34.6380   33.9260   36.2730 H   0  0  0  0  0  0  0  0  0  0  0  0
   35.4310   31.3940   37.5970 H   0  0  0  0  0  0  0  0  0  0  0  0
   33.0010   32.6810   36.4720 H   0  0  0  0  0  0  0  0  0  0  0  0
   32.9250   31.2940   37.5910 H   0  0  0  0  0  0  0  0  0  0  0  0
   34.1350   29.8510   36.2490 H   0  0  0  0  0  0  0  0  0  0  0  0
   35.5450   30.7110   32.6290 C   0  0  0  0  0  0  0  0  0  0  0  0
   35.4820   30.3270   33.9700 C   0  0  0  0  0  0  0  0  0  0  0  0
   35.8580   29.0240   34.2770 C   0  0  0  0  0  0  0  0  0  0  0  0
   36.2660   28.2110   33.2330 N   0  0  0  0  0  0  0  0  0  0  0  0
   36.3060   28.6330   31.9680 C   0  0  0  0  0  0  0  0  0  0  0  0
   35.9450   29.9010   31.6330 N   0  0  0  0  0  0  0  0  0  0  0  0
   35.2580   31.7250   32.3510 H   0  0  0  0  0  0  0  0  0  0  0  0
   35.8440   28.6340   35.2780 H   0  0  0  0  0  0  0  0  0  0  0  0
   36.6340   27.9400   31.2100 H   0  0  0  0  0  0  0  0  0  0  0  0
   32.7170   30.5640   34.8610 C   0  0  0  0  0  0  0  0  0  0  0  0
   32.1190   29.3300   34.7270 C   0  0  0  0  0  0  0  0  0  0  0  0
   32.5040   28.4950   35.2920 H   0  0  0  0  0  0  0  0  0  0  0  0
   31.0480   29.1070   33.9040 C   0  0  0  0  0  0  0  0  0  0  0  0
   30.5730   28.1240   33.7990 H   0  0  0  0  0  0  0  0  0  0  0  0
   30.5150   30.1380   33.1580 C   0  0  0  0  0  3  0  0  0  0  0  0
   31.1290   31.3650   33.3070 C   0  0  0  0  0  3  0  0  0  0  0  0
   32.1830   31.5560   34.1260 N   0  0  0  0  0  0  0  0  0  0  0  0
  1  2  1  0  0  0  0
  1  6  1  0  0  0  0
  2  7  1  0  0  0  0
  2  3  1  0  0  0  0
  3  9  1  0  0  0  0
  3  4  1  0  0  0  0
  4 11  1  0  0  0  0
  5  4  1  0  0  0  0
  5 13  1  0  0  0  0
  6 14  1  1  0  0  0
  6  5  1  0  0  0  0
  8  2  1  0  0  0  0
 10  3  1  0  0  0  0
 12  5  1  0  0  0  0
 15 16  1  0  0  0  0
 16 17  2  0  0  0  0
 16  1  1  0  0  0  0
 17 22  1  0  0  0  0
 18 17  1  0  0  0  0
 19 18  2  0  0  0  0
 20 19  1  0  0  0  0
 20 15  2  0  0  0  0
 21 15  1  0  0  0  0
 23 19  1  0  0  0  0
 24  6  1  0  0  0  0
 25 24  1  0  0  0  0
 25 26  1  0  0  0  0
 27 25  2  0  0  0  0
 28 27  1  0  0  0  0
 29 30  2  0  0  0  0
 29 27  1  0  0  0  0
 30 31  1  0  0  0  0
 31 24  2  0  0  0  0
M  END
>  <minimizedAffinity>
-4.23248148

$$$$

 OpenBabel03272508313D

 31 33  0  0  1  0  0  0  0  0999 V2000
   38.8070   24.2480   36.3000 N   0  0  0  0  0  0  0  0  0  0  0  0
   38.0910   24.3660   37.5640 C   0  0  0  0  0  0  0  0  0  0  0  0
   38.4800   23.3320   38.5570 C   0  0  0  0  0  0  0  0  0  0  0  0
   39.8000   22.8600   38.2790 N   0  0  0  0  0  0  0  0  0  0  0  0
   39.7010   22.0890   37.0470 C   0  0  0  0  0  0  0  0  0  0  0  0
   39.6410   23.1110   35.9460 C   0  0  1  0  0  0  0  0  0  0  0  0
   38.3990   25.3680   37.9780 H   0  0  0  0  0  0  0  0  0  0  0  0
   36.9880   24.4490   37.4170 H   0  0  0  0  0  0  0  0  0  0  0  0
   38.4630   23.7300   39.5900 H   0  0  0  0  0  0  0  0  0  0  0  0
   37.7930   22.4650   38.5330 H   0  0  0  0  0  0  0  0  0  0  0  0
   40.5100   23.6080   38.2080 H   0  0  0  0  0  0  0  0  0  0  0  0
   38.8350   21.4260   37.0830 H   0  0  0  0  0  0  0  0  0  0  0  0
   40.6090   21.4740   36.8940 H   0  0  0  0  0  0  0  0  0  0  0  0
   40.6660   23.5060   35.7910 H   0  0  0  0  0  0  0  0  0  0  0  0
   37.4830   25.6600   34.7740 C   0  0  0  0  0  0  0  0  0  0  0  0
   38.7010   25.2880   35.3440 C   0  0  0  0  0  0  0  0  0  0  0  0
   39.8330   25.9850   34.9370 C   0  0  0  0  0  0  0  0  0  0  0  0
   39.6660   26.9900   34.0000 N   0  0  0  0  0  0  0  0  0  0  0  0
   38.4740   27.3040   33.4880 C   0  0  0  0  0  0  0  0  0  0  0  0
   37.3470   26.6430   33.8650 N   0  0  0  0  0  0  0  0  0  0  0  0
   36.5740   25.1370   35.0690 H   0  0  0  0  0  0  0  0  0  0  0  0
   40.8160   25.7730   35.3170 H   0  0  0  0  0  0  0  0  0  0  0  0
   38.4250   28.0990   32.7630 H   0  0  0  0  0  0  0  0  0  0  0  0
   39.1990   22.4990   34.6600 C   0  0  0  0  0  0  0  0  0  0  0  0
   40.0170   22.3890   33.5570 C   0  0  0  0  0  0  0  0  0  0  0  0
   41.0300   22.7600   33.6140 H   0  0  0  0  0  0  0  0  0  0  0  0
   39.6070   21.8250   32.3780 C   0  0  0  0  0  0  0  0  0  0  0  0
   40.2600   21.7380   31.5010 H   0  0  0  0  0  0  0  0  0  0  0  0
   38.3240   21.3350   32.2490 C   0  0  0  0  0  3  0  0  0  0  0  0
   37.5210   21.4550   33.3650 C   0  0  0  0  0  3  0  0  0  0  0  0
   37.9520   22.0150   34.5140 N   0  0  0  0  0  0  0  0  0  0  0  0
  1  2  1  0  0  0  0
  2  7  1  0  0  0  0
  2  3  1  0  0  0  0
  3  9  1  0  0  0  0
  4  3  1  0  0  0  0
  5 12  1  0  0  0  0
  5  4  1  0  0  0  0
  6 14  1  6  0  0  0
  6  1  1  0  0  0  0
  6  5  1  0  0  0  0
  8  2  1  0  0  0  0
 10  3  1  0  0  0  0
 11  4  1  0  0  0  0
 13  5  1  0  0  0  0
 15 21  1  0  0  0  0
 15 16  1  0  0  0  0
 16  1  1  0  0  0  0
 17 22  1  0  0  0  0
 17 16  2  0  0  0  0
 18 17  1  0  0  0  0
 19 20  1  0  0  0  0
 19 18  2  0  0  0  0
 20 15  2  0  0  0  0
 23 19  1  0  0  0  0
 24  6  1  0  0  0  0
 25 26  1  0  0  0  0
 25 24  2  0  0  0  0
 27 25  1  0  0  0  0
 28 27  1  0  0  0  0
 29 27  2  0  0  0  0
 29 30  1  0  0  0  0
 30 31  2  0  0  0  0
 31 24  1  0  0  0  0
M  END
>  <minimizedAffinity>
-4.18889141

$$$$
