
 OpenBabel03272510203D

 35 38  0  0  0  0  0  0  0  0999 V2000
   37.4140   29.1620   50.8030 Br  0  0  0  0  0  0  0  0  0  0  0  0
   35.9990   29.2780   49.5240 C   0  0  0  0  0  0  0  0  0  0  0  0
   35.9930   30.2780   48.5620 C   0  0  0  0  0  0  0  0  0  0  0  0
   34.9430   30.2990   47.6740 C   0  0  0  0  0  0  0  0  0  0  0  0
   33.9070   29.3810   47.6970 C   0  0  0  0  0  0  0  0  0  0  0  0
   33.9480   28.4170   48.6540 C   0  0  0  0  0  0  0  0  0  0  0  0
   34.9880   28.3700   49.5570 C   0  0  0  0  0  0  0  0  0  0  0  0
   34.8830   31.0610   46.8960 H   0  0  0  0  0  0  0  0  0  0  0  0
   33.1780   27.6440   48.7570 H   0  0  0  0  0  0  0  0  0  0  0  0
   35.0100   27.5920   50.3200 H   0  0  0  0  0  0  0  0  0  0  0  0
   38.0130   33.1830   49.4630 C   0  0  0  0  0  0  0  0  0  0  0  0
   39.0400   33.1810   48.4720 C   0  0  0  0  0  0  0  0  0  0  0  0
   39.0150   32.1870   47.5230 C   0  0  0  0  0  0  0  0  0  0  0  0
   38.0180   31.2420   47.5570 N   0  0  0  0  0  0  0  0  0  0  0  0
   37.0650   31.2680   48.5000 C   0  0  0  0  0  0  0  0  0  0  0  0
   37.0730   32.2380   49.4430 N   0  0  0  0  0  0  0  0  0  0  0  0
   38.0150   33.9570   50.2180 H   0  0  0  0  0  0  0  0  0  0  0  0
   39.8070   33.9500   48.4870 H   0  0  0  0  0  0  0  0  0  0  0  0
   39.7680   32.1340   46.7460 H   0  0  0  0  0  0  0  0  0  0  0  0
   32.8020   29.4030   46.7640 C   0  0  0  0  0  0  0  0  0  0  0  0
   31.9670   28.3380   46.5030 C   0  0  0  0  0  0  0  0  0  0  0  0
   30.9170   28.4110   45.5930 C   0  0  0  0  0  0  0  0  0  0  0  0
   30.6880   29.5570   44.9310 N   0  0  0  0  0  0  0  0  0  0  0  0
   31.4950   30.5950   45.1780 C   0  0  0  0  0  0  0  0  0  0  0  0
   32.5060   30.5080   46.0600 N   0  0  0  0  0  0  0  0  0  0  0  0
   32.1480   27.4010   47.0400 H   0  0  0  0  0  0  0  0  0  0  0  0
   30.2720   27.5590   45.4050 H   0  0  0  0  0  0  0  0  0  0  0  0
   31.2750   31.8550   44.4750 C   0  0  0  0  0  0  0  0  0  0  0  0
   30.5880   31.8870   43.2750 C   0  0  0  0  0  0  0  0  0  0  0  0
   30.2410   30.9260   42.9140 H   0  0  0  0  0  0  0  0  0  0  0  0
   30.3940   33.0930   42.6300 C   0  0  0  0  0  0  0  0  0  0  0  0
   29.8420   32.9600   41.7040 H   0  0  0  0  0  0  0  0  0  0  0  0
   30.8660   34.2680   43.1520 C   0  0  0  0  0  3  0  0  0  0  0  0
   31.5410   34.1970   44.3450 C   0  0  0  0  0  3  0  0  0  0  0  0
   31.7360   33.0150   44.9840 N   0  0  0  0  0  0  0  0  0  0  0  0
  2  7  1  0  0  0  0
  2  1  1  0  0  0  0
  3  2  2  0  0  0  0
  4  5  2  0  0  0  0
  4  3  1  0  0  0  0
  5  6  1  0  0  0  0
  6  9  1  0  0  0  0
  6  7  2  0  0  0  0
  7 10  1  0  0  0  0
  8  4  1  0  0  0  0
 11 17  1  0  0  0  0
 12 18  1  0  0  0  0
 12 11  2  0  0  0  0
 13 14  2  0  0  0  0
 13 12  1  0  0  0  0
 14 15  1  0  0  0  0
 15  3  1  0  0  0  0
 15 16  2  0  0  0  0
 16 11  1  0  0  0  0
 19 13  1  0  0  0  0
 20  5  1  0  0  0  0
 21 20  1  0  0  0  0
 21 26  1  0  0  0  0
 22 21  2  0  0  0  0
 23 24  2  0  0  0  0
 23 22  1  0  0  0  0
 24 25  1  0  0  0  0
 25 20  2  0  0  0  0
 27 22  1  0  0  0  0
 28 35  1  0  0  0  0
 28 24  1  0  0  0  0
 29 28  2  0  0  0  0
 30 29  1  0  0  0  0
 31 33  2  0  0  0  0
 31 29  1  0  0  0  0
 32 31  1  0  0  0  0
 33 34  1  0  0  0  0
 34 35  2  0  0  0  0
M  END
>  <minimizedAffinity>
-6.64379072

>  <minimizedRMSD>
0.342677027

$$$$
