
 OpenBabel03272506133D

 43 46  0  0  1  0  0  0  0  0999 V2000
   37.7420   23.8730   32.1220 C   0  0  1  0  0  0  0  0  0  0  0  0
   37.9290   23.7350   30.5550 C   0  0  0  0  0  0  0  0  0  0  0  0
   38.8590   24.8300   30.0360 C   0  0  0  0  0  0  0  0  0  0  0  0
   38.4950   26.1590   30.6270 C   0  0  0  0  0  0  0  0  0  0  0  0
   37.0920   26.0810   31.1200 C   0  0  0  0  0  0  0  0  0  0  0  0
   37.0550   25.1850   32.3410 C   0  0  2  0  0  0  0  0  0  0  0  0
   38.7360   24.1070   32.3110 H   0  0  0  0  0  0  0  0  0  0  0  0
   36.9600   23.7050   30.0710 H   0  0  0  0  0  0  0  0  0  0  0  0
   38.4460   22.7750   30.4160 H   0  0  0  0  0  0  0  0  0  0  0  0
   38.7380   24.8180   28.9450 H   0  0  0  0  0  0  0  0  0  0  0  0
   39.8770   24.5690   30.3740 H   0  0  0  0  0  0  0  0  0  0  0  0
   39.2280   26.4920   31.3770 H   0  0  0  0  0  0  0  0  0  0  0  0
   38.5230   26.9340   29.8010 H   0  0  0  0  0  0  0  0  0  0  0  0
   36.6970   27.0540   31.4480 H   0  0  0  0  0  0  0  0  0  0  0  0
   36.4500   25.6600   30.3490 H   0  0  0  0  0  0  0  0  0  0  0  0
   35.9940   25.1480   32.6270 H   0  0  0  0  0  0  0  0  0  0  0  0
   37.2700   22.0650   33.7190 C   0  0  0  0  0  0  0  0  0  0  0  0
   36.4500   21.0080   34.0660 C   0  0  0  0  0  0  0  0  0  0  0  0
   35.3940   20.5520   33.3220 C   0  0  0  0  0  0  0  0  0  0  0  0
   35.1040   21.1840   32.1120 C   0  0  0  0  0  0  0  0  0  0  0  0
   35.9290   22.2450   31.7570 C   0  0  0  0  0  0  0  0  0  0  0  0
   36.9980   22.7090   32.5150 C   0  0  0  0  0  0  0  0  0  0  0  0
   36.5970   20.4500   35.0050 H   0  0  0  0  0  0  0  0  0  0  0  0
   34.7970   19.7250   33.6590 H   0  0  0  0  0  0  0  0  0  0  0  0
   34.2690   20.8090   31.5440 H   0  0  0  0  0  0  0  0  0  0  0  0
   35.6010   22.6240   30.7980 H   0  0  0  0  0  0  0  0  0  0  0  0
   37.9630   22.9580   35.8810 C   0  0  0  0  0  0  0  0  0  0  0  0
   38.3290   22.3550   34.6230 C   0  0  0  0  0  0  0  0  0  0  0  0
   39.6690   22.0890   34.4080 C   0  0  0  0  0  0  0  0  0  0  0  0
   40.5830   22.3850   35.3610 N   0  0  0  0  0  0  0  0  0  0  0  0
   40.2170   22.9560   36.5540 C   0  0  0  0  0  0  0  0  0  0  0  0
   38.9160   23.2340   36.7950 N   0  0  0  0  0  0  0  0  0  0  0  0
   36.9670   23.2200   36.1870 H   0  0  0  0  0  0  0  0  0  0  0  0
   40.1840   21.7350   33.5710 H   0  0  0  0  0  0  0  0  0  0  0  0
   40.9230   23.2070   37.3410 H   0  0  0  0  0  0  0  0  0  0  0  0
   37.6620   25.9150   33.5280 C   0  0  0  0  0  0  0  0  0  0  0  0
   39.0110   25.7270   33.8290 C   0  0  0  0  0  0  0  0  0  0  0  0
   39.6540   25.0630   33.2320 H   0  0  0  0  0  0  0  0  0  0  0  0
   39.6720   26.3460   34.8880 C   0  0  0  0  0  0  0  0  0  0  0  0
   40.7170   26.1670   35.0760 H   0  0  0  0  0  0  0  0  0  0  0  0
   38.9320   27.1950   35.6810 C   0  0  0  0  0  3  0  0  0  0  0  0
   37.6190   27.3380   35.3390 C   0  0  0  0  0  3  0  0  0  0  0  0
   37.0030   26.7370   34.3210 N   0  0  0  0  0  0  0  0  0  0  0  0
  1  7  1  1  0  0  0
  1  6  1  0  0  0  0
  1 22  1  0  0  0  0
  2  1  1  0  0  0  0
  3 11  1  0  0  0  0
  3  2  1  0  0  0  0
  3  4  1  0  0  0  0
  4  5  1  0  0  0  0
  4 12  1  0  0  0  0
  5 14  1  0  0  0  0
  5  6  1  0  0  0  0
  6 16  1  1  0  0  0
  6 36  1  0  0  0  0
  8  2  1  0  0  0  0
  9  2  1  0  0  0  0
 10  3  1  0  0  0  0
 13  4  1  0  0  0  0
 15  5  1  0  0  0  0
 17 18  1  0  0  0  0
 17 28  1  0  0  0  0
 18 23  1  0  0  0  0
 19 24  1  0  0  0  0
 19 18  2  0  0  0  0
 20 19  1  0  0  0  0
 21 20  2  0  0  0  0
 21 22  1  0  0  0  0
 22 17  2  0  0  0  0
 25 20  1  0  0  0  0
 26 21  1  0  0  0  0
 27 33  1  0  0  0  0
 27 32  1  0  0  0  0
 28 27  2  0  0  0  0
 29 28  1  0  0  0  0
 29 30  2  0  0  0  0
 30 31  1  0  0  0  0
 31 32  2  0  0  0  0
 31 35  1  0  0  0  0
 34 29  1  0  0  0  0
 36 37  2  0  0  0  0
 36 43  1  0  0  0  0
 37 39  1  0  0  0  0
 38 37  1  0  0  0  0
 39 40  1  0  0  0  0
 39 41  2  0  0  0  0
 42 41  1  0  0  0  0
 43 42  2  0  0  0  0
M  END
>  <minimizedAffinity>
-5.9847784

$$$$

 OpenBabel03272506133D

 43 46  0  0  1  0  0  0  0  0999 V2000
   38.5430   25.6230   33.1420 C   0  0  1  0  0  0  0  0  0  0  0  0
   39.4260   26.7390   32.4480 C   0  0  0  0  0  0  0  0  0  0  0  0
   40.7920   26.8280   33.1250 C   0  0  0  0  0  0  0  0  0  0  0  0
   40.6460   26.8170   34.6170 C   0  0  0  0  0  0  0  0  0  0  0  0
   39.2500   27.2130   34.9510 C   0  0  0  0  0  0  0  0  0  0  0  0
   38.3170   26.0900   34.5460 C   0  0  2  0  0  0  0  0  0  0  0  0
   39.3230   24.9460   33.2540 H   0  0  0  0  0  0  0  0  0  0  0  0
   38.8790   27.6750   32.4190 H   0  0  0  0  0  0  0  0  0  0  0  0
   39.5920   26.3720   31.4240 H   0  0  0  0  0  0  0  0  0  0  0  0
   41.2330   27.7660   32.7610 H   0  0  0  0  0  0  0  0  0  0  0  0
   41.3540   25.9260   32.8260 H   0  0  0  0  0  0  0  0  0  0  0  0
   40.9710   25.8630   35.0560 H   0  0  0  0  0  0  0  0  0  0  0  0
   41.3360   27.6070   35.0470 H   0  0  0  0  0  0  0  0  0  0  0  0
   39.0920   27.3620   36.0300 H   0  0  0  0  0  0  0  0  0  0  0  0
   38.9790   28.1160   34.4080 H   0  0  0  0  0  0  0  0  0  0  0  0
   37.3110   26.4630   34.7890 H   0  0  0  0  0  0  0  0  0  0  0  0
   36.9550   24.2800   31.8300 C   0  0  0  0  0  0  0  0  0  0  0  0
   35.7630   24.2470   31.1310 C   0  0  0  0  0  0  0  0  0  0  0  0
   34.9580   25.3300   30.8940 C   0  0  0  0  0  0  0  0  0  0  0  0
   35.3510   26.5770   31.3830 C   0  0  0  0  0  0  0  0  0  0  0  0
   36.5510   26.6150   32.0840 C   0  0  0  0  0  0  0  0  0  0  0  0
   37.3650   25.5140   32.3260 C   0  0  0  0  0  0  0  0  0  0  0  0
   35.3680   23.3080   30.7100 H   0  0  0  0  0  0  0  0  0  0  0  0
   34.0420   25.2270   30.3440 H   0  0  0  0  0  0  0  0  0  0  0  0
   34.7020   27.4140   31.1850 H   0  0  0  0  0  0  0  0  0  0  0  0
   36.7350   27.6380   32.3860 H   0  0  0  0  0  0  0  0  0  0  0  0
   37.1140   22.0720   32.8560 C   0  0  0  0  0  0  0  0  0  0  0  0
   37.6500   23.0440   31.9350 C   0  0  0  0  0  0  0  0  0  0  0  0
   38.7770   22.6880   31.2160 C   0  0  0  0  0  0  0  0  0  0  0  0
   39.3320   21.4650   31.3830 N   0  0  0  0  0  0  0  0  0  0  0  0
   38.8070   20.5520   32.2620 C   0  0  0  0  0  0  0  0  0  0  0  0
   37.7090   20.8680   32.9840 N   0  0  0  0  0  0  0  0  0  0  0  0
   36.2480   22.2060   33.4790 H   0  0  0  0  0  0  0  0  0  0  0  0
   39.3840   23.2280   30.5600 H   0  0  0  0  0  0  0  0  0  0  0  0
   39.2260   19.5620   32.4210 H   0  0  0  0  0  0  0  0  0  0  0  0
   38.4550   24.9340   35.5230 C   0  0  0  0  0  0  0  0  0  0  0  0
   37.9810   25.0800   36.8260 C   0  0  0  0  0  0  0  0  0  0  0  0
   37.5090   26.0120   37.1740 H   0  0  0  0  0  0  0  0  0  0  0  0
   38.0510   24.0890   37.8030 C   0  0  0  0  0  0  0  0  0  0  0  0
   37.6690   24.2540   38.7960 H   0  0  0  0  0  0  0  0  0  0  0  0
   38.6290   22.8910   37.4430 C   0  0  0  0  0  3  0  0  0  0  0  0
   39.0740   22.8070   36.1560 C   0  0  0  0  0  3  0  0  0  0  0  0
   38.9990   23.7670   35.2350 N   0  0  0  0  0  0  0  0  0  0  0  0
  1  7  1  1  0  0  0
  1  6  1  0  0  0  0
  2  3  1  0  0  0  0
  2  1  1  0  0  0  0
  3  4  1  0  0  0  0
  4  5  1  0  0  0  0
  4 13  1  0  0  0  0
  4 12  1  0  0  0  0
  5 14  1  0  0  0  0
  6 16  1  1  0  0  0
  6  5  1  0  0  0  0
  6 36  1  0  0  0  0
  8  2  1  0  0  0  0
  9  2  1  0  0  0  0
 10  3  1  0  0  0  0
 11  3  1  0  0  0  0
 15  5  1  0  0  0  0
 17 28  1  0  0  0  0
 17 22  1  0  0  0  0
 18 17  2  0  0  0  0
 19 18  1  0  0  0  0
 19 20  2  0  0  0  0
 20 21  1  0  0  0  0
 21 22  2  0  0  0  0
 21 26  1  0  0  0  0
 22  1  1  0  0  0  0
 23 18  1  0  0  0  0
 24 19  1  0  0  0  0
 25 20  1  0  0  0  0
 27 32  1  0  0  0  0
 27 33  1  0  0  0  0
 28 27  2  0  0  0  0
 29 30  2  0  0  0  0
 29 28  1  0  0  0  0
 30 31  1  0  0  0  0
 31 35  1  0  0  0  0
 31 32  2  0  0  0  0
 34 29  1  0  0  0  0
 36 37  1  0  0  0  0
 37 38  1  0  0  0  0
 37 39  2  0  0  0  0
 39 40  1  0  0  0  0
 41 39  1  0  0  0  0
 42 41  2  0  0  0  0
 43 36  2  0  0  0  0
 43 42  1  0  0  0  0
M  END
>  <minimizedAffinity>
-5.78348017

$$$$

 OpenBabel03272506133D

 43 46  0  0  1  0  0  0  0  0999 V2000
   38.3520   26.2370   34.2660 C   0  0  1  0  0  0  0  0  0  0  0  0
   38.2460   27.6280   35.0170 C   0  0  0  0  0  0  0  0  0  0  0  0
   36.8300   28.1870   34.8920 C   0  0  0  0  0  0  0  0  0  0  0  0
   36.3340   28.0640   33.4820 C   0  0  0  0  0  0  0  0  0  0  0  0
   37.5120   27.9030   32.5860 C   0  0  0  0  0  0  0  0  0  0  0  0
   38.1140   26.5320   32.8180 C   0  0  2  0  0  0  0  0  0  0  0  0
   37.4240   25.8930   34.5790 H   0  0  0  0  0  0  0  0  0  0  0  0
   39.0240   28.2950   34.6650 H   0  0  0  0  0  0  0  0  0  0  0  0
   38.4090   27.3880   36.0780 H   0  0  0  0  0  0  0  0  0  0  0  0
   36.9060   29.2360   35.2110 H   0  0  0  0  0  0  0  0  0  0  0  0
   36.1850   27.5700   35.5410 H   0  0  0  0  0  0  0  0  0  0  0  0
   35.5690   27.2810   33.3820 H   0  0  0  0  0  0  0  0  0  0  0  0
   35.8230   29.0350   33.2000 H   0  0  0  0  0  0  0  0  0  0  0  0
   37.2490   27.9400   31.5180 H   0  0  0  0  0  0  0  0  0  0  0  0
   38.2580   28.6620   32.8110 H   0  0  0  0  0  0  0  0  0  0  0  0
   38.9900   26.4960   32.1540 H   0  0  0  0  0  0  0  0  0  0  0  0
   39.8050   24.5410   35.2930 C   0  0  0  0  0  0  0  0  0  0  0  0
   41.0940   24.0790   35.4860 C   0  0  0  0  0  0  0  0  0  0  0  0
   42.2290   24.7020   35.0380 C   0  0  0  0  0  0  0  0  0  0  0  0
   42.1040   25.9000   34.3320 C   0  0  0  0  0  0  0  0  0  0  0  0
   40.8090   26.3690   34.1390 C   0  0  0  0  0  0  0  0  0  0  0  0
   39.6580   25.7340   34.5910 C   0  0  0  0  0  0  0  0  0  0  0  0
   41.2940   23.1410   36.0270 H   0  0  0  0  0  0  0  0  0  0  0  0
   43.1990   24.2810   35.2230 H   0  0  0  0  0  0  0  0  0  0  0  0
   43.0090   26.3710   33.9890 H   0  0  0  0  0  0  0  0  0  0  0  0
   40.8640   27.3040   33.5970 H   0  0  0  0  0  0  0  0  0  0  0  0
   38.3320   22.6040   35.1140 C   0  0  0  0  0  0  0  0  0  0  0  0
   38.7690   23.7540   35.8680 C   0  0  0  0  0  0  0  0  0  0  0  0
   38.1660   23.9840   37.0910 C   0  0  0  0  0  0  0  0  0  0  0  0
   37.2070   23.1430   37.5450 N   0  0  0  0  0  0  0  0  0  0  0  0
   36.8050   22.0520   36.8170 C   0  0  0  0  0  0  0  0  0  0  0  0
   37.3720   21.8000   35.6150 N   0  0  0  0  0  0  0  0  0  0  0  0
   38.7080   22.3000   34.1550 H   0  0  0  0  0  0  0  0  0  0  0  0
   38.2500   24.7700   37.7720 H   0  0  0  0  0  0  0  0  0  0  0  0
   36.0410   21.3560   37.1500 H   0  0  0  0  0  0  0  0  0  0  0  0
   37.2210   25.4710   32.1960 C   0  0  0  0  0  0  0  0  0  0  0  0
   37.6610   24.1490   32.1470 C   0  0  0  0  0  0  0  0  0  0  0  0
   38.6420   23.8470   32.5450 H   0  0  0  0  0  0  0  0  0  0  0  0
   36.9270   23.0960   31.6060 C   0  0  0  0  0  0  0  0  0  0  0  0
   37.3140   22.0910   31.5940 H   0  0  0  0  0  0  0  0  0  0  0  0
   35.6860   23.3960   31.0880 C   0  0  0  0  0  3  0  0  0  0  0  0
   35.3090   24.7050   31.1630 C   0  0  0  0  0  3  0  0  0  0  0  0
   36.0260   25.6990   31.6850 N   0  0  0  0  0  0  0  0  0  0  0  0
  1  7  1  1  0  0  0
  1 22  1  0  0  0  0
  1  2  1  0  0  0  0
  2  9  1  0  0  0  0
  3  2  1  0  0  0  0
  3 10  1  0  0  0  0
  3 11  1  0  0  0  0
  4  3  1  0  0  0  0
  5 15  1  0  0  0  0
  5  6  1  0  0  0  0
  5  4  1  0  0  0  0
  6 16  1  6  0  0  0
  6  1  1  0  0  0  0
  8  2  1  0  0  0  0
 12  4  1  0  0  0  0
 13  4  1  0  0  0  0
 14  5  1  0  0  0  0
 17 18  1  0  0  0  0
 17 28  1  0  0  0  0
 18 23  1  0  0  0  0
 19 24  1  0  0  0  0
 19 18  2  0  0  0  0
 20 19  1  0  0  0  0
 21 20  2  0  0  0  0
 21 22  1  0  0  0  0
 22 17  2  0  0  0  0
 25 20  1  0  0  0  0
 26 21  1  0  0  0  0
 27 32  2  0  0  0  0
 27 28  1  0  0  0  0
 28 29  2  0  0  0  0
 29 30  1  0  0  0  0
 29 34  1  0  0  0  0
 31 35  1  0  0  0  0
 31 30  2  0  0  0  0
 32 31  1  0  0  0  0
 33 27  1  0  0  0  0
 36  6  1  0  0  0  0
 37 36  1  0  0  0  0
 37 38  1  0  0  0  0
 39 37  2  0  0  0  0
 40 39  1  0  0  0  0
 41 42  2  0  0  0  0
 41 39  1  0  0  0  0
 42 43  1  0  0  0  0
 43 36  2  0  0  0  0
M  END
>  <minimizedAffinity>
-5.71630096

$$$$

 OpenBabel03272506133D

 43 46  0  0  1  0  0  0  0  0999 V2000
   36.5260   27.3660   31.5880 C   0  0  1  0  0  0  0  0  0  0  0  0
   35.6930   26.3900   30.6600 C   0  0  0  0  0  0  0  0  0  0  0  0
   35.4560   25.0590   31.3720 C   0  0  0  0  0  0  0  0  0  0  0  0
   36.7170   24.5720   32.0200 C   0  0  0  0  0  0  0  0  0  0  0  0
   37.8690   25.2560   31.3700 C   0  0  0  0  0  0  0  0  0  0  0  0
   37.8610   26.7150   31.7770 C   0  0  2  0  0  0  0  0  0  0  0  0
   36.0270   27.1080   32.4620 H   0  0  0  0  0  0  0  0  0  0  0  0
   36.1760   26.3000   29.6940 H   0  0  0  0  0  0  0  0  0  0  0  0
   34.7140   26.8770   30.5450 H   0  0  0  0  0  0  0  0  0  0  0  0
   35.1040   24.3730   30.5890 H   0  0  0  0  0  0  0  0  0  0  0  0
   34.7120   25.2510   32.1650 H   0  0  0  0  0  0  0  0  0  0  0  0
   36.6830   24.6700   33.1150 H   0  0  0  0  0  0  0  0  0  0  0  0
   36.8180   23.4630   31.8110 H   0  0  0  0  0  0  0  0  0  0  0  0
   38.8430   24.8580   31.6910 H   0  0  0  0  0  0  0  0  0  0  0  0
   37.7800   25.1880   30.2870 H   0  0  0  0  0  0  0  0  0  0  0  0
   38.7100   27.1600   31.2390 H   0  0  0  0  0  0  0  0  0  0  0  0
   35.8810   29.7320   31.4170 C   0  0  0  0  0  0  0  0  0  0  0  0
   36.0190   30.9260   30.7350 C   0  0  0  0  0  0  0  0  0  0  0  0
   36.7550   31.1000   29.5930 C   0  0  0  0  0  0  0  0  0  0  0  0
   37.4240   30.0020   29.0510 C   0  0  0  0  0  0  0  0  0  0  0  0
   37.2850   28.7970   29.7320 C   0  0  0  0  0  0  0  0  0  0  0  0
   36.5410   28.6230   30.8940 C   0  0  0  0  0  0  0  0  0  0  0  0
   35.5330   31.8500   31.0870 H   0  0  0  0  0  0  0  0  0  0  0  0
   36.8200   32.0620   29.1190 H   0  0  0  0  0  0  0  0  0  0  0  0
   37.9970   30.1620   28.1530 H   0  0  0  0  0  0  0  0  0  0  0  0
   37.8380   28.0380   29.1960 H   0  0  0  0  0  0  0  0  0  0  0  0
   35.5830   30.4060   33.7430 C   0  0  0  0  0  0  0  0  0  0  0  0
   35.0460   29.7640   32.5680 C   0  0  0  0  0  0  0  0  0  0  0  0
   33.7620   29.2570   32.6470 C   0  0  0  0  0  0  0  0  0  0  0  0
   33.0530   29.3760   33.7940 N   0  0  0  0  0  0  0  0  0  0  0  0
   33.5780   29.9920   34.9020 C   0  0  0  0  0  0  0  0  0  0  0  0
   34.8320   30.4960   34.8600 N   0  0  0  0  0  0  0  0  0  0  0  0
   36.5590   30.8460   33.8290 H   0  0  0  0  0  0  0  0  0  0  0  0
   33.1920   28.6950   31.9770 H   0  0  0  0  0  0  0  0  0  0  0  0
   33.0380   30.1060   35.8380 H   0  0  0  0  0  0  0  0  0  0  0  0
   38.3190   26.8440   33.2210 C   0  0  0  0  0  0  0  0  0  0  0  0
   37.4460   27.3750   34.1700 C   0  0  0  0  0  0  0  0  0  0  0  0
   36.4310   27.7080   33.9070 H   0  0  0  0  0  0  0  0  0  0  0  0
   37.7570   27.5350   35.5190 C   0  0  0  0  0  0  0  0  0  0  0  0
   37.0450   27.9510   36.2120 H   0  0  0  0  0  0  0  0  0  0  0  0
   39.0110   27.1390   35.9270 C   0  0  0  0  0  3  0  0  0  0  0  0
   39.8210   26.6280   34.9550 C   0  0  0  0  0  3  0  0  0  0  0  0
   39.5060   26.4820   33.6680 N   0  0  0  0  0  0  0  0  0  0  0  0
  1  6  1  0  0  0  0
  1  7  1  1  0  0  0
  2  3  1  0  0  0  0
  2  1  1  0  0  0  0
  3  4  1  0  0  0  0
  3 11  1  0  0  0  0
  4 12  1  0  0  0  0
  5 14  1  0  0  0  0
  5  6  1  0  0  0  0
  5  4  1  0  0  0  0
  6 16  1  6  0  0  0
  6 36  1  0  0  0  0
  8  2  1  0  0  0  0
  9  2  1  0  0  0  0
 10  3  1  0  0  0  0
 13  4  1  0  0  0  0
 15  5  1  0  0  0  0
 17 28  1  0  0  0  0
 18 23  1  0  0  0  0
 18 17  2  0  0  0  0
 19 18  1  0  0  0  0
 20 19  2  0  0  0  0
 20 21  1  0  0  0  0
 21 22  2  0  0  0  0
 22 17  1  0  0  0  0
 22  1  1  0  0  0  0
 24 19  1  0  0  0  0
 25 20  1  0  0  0  0
 26 21  1  0  0  0  0
 27 33  1  0  0  0  0
 27 32  1  0  0  0  0
 28 29  1  0  0  0  0
 28 27  2  0  0  0  0
 29 30  2  0  0  0  0
 30 31  1  0  0  0  0
 31 35  1  0  0  0  0
 32 31  2  0  0  0  0
 34 29  1  0  0  0  0
 36 43  2  0  0  0  0
 36 37  1  0  0  0  0
 37 39  2  0  0  0  0
 38 37  1  0  0  0  0
 39 41  1  0  0  0  0
 39 40  1  0  0  0  0
 42 41  2  0  0  0  0
 43 42  1  0  0  0  0
M  END
>  <minimizedAffinity>
-5.70335627

$$$$

 OpenBabel03272506133D

 43 46  0  0  1  0  0  0  0  0999 V2000
   39.0630   24.2700   34.9730 C   0  0  1  0  0  0  0  0  0  0  0  0
   40.5740   24.4500   35.4120 C   0  0  0  0  0  0  0  0  0  0  0  0
   41.2810   23.0970   35.4380 C   0  0  0  0  0  0  0  0  0  0  0  0
   40.4290   22.0670   36.1170 C   0  0  0  0  0  0  0  0  0  0  0  0
   39.4230   22.7730   36.9570 C   0  0  0  0  0  0  0  0  0  0  0  0
   38.4180   23.4490   36.0460 C   0  0  2  0  0  0  0  0  0  0  0  0
   39.2650   23.5610   34.2410 H   0  0  0  0  0  0  0  0  0  0  0  0
   40.6220   24.9990   36.3450 H   0  0  0  0  0  0  0  0  0  0  0  0
   41.0330   25.0420   34.6060 H   0  0  0  0  0  0  0  0  0  0  0  0
   42.2210   23.2740   35.9790 H   0  0  0  0  0  0  0  0  0  0  0  0
   41.4230   22.7910   34.3870 H   0  0  0  0  0  0  0  0  0  0  0  0
   40.0050   21.3460   35.4010 H   0  0  0  0  0  0  0  0  0  0  0  0
   41.0880   21.4620   36.8120 H   0  0  0  0  0  0  0  0  0  0  0  0
   38.8410   22.0930   37.5960 H   0  0  0  0  0  0  0  0  0  0  0  0
   39.9130   23.5280   37.5680 H   0  0  0  0  0  0  0  0  0  0  0  0
   37.7330   23.9730   36.7280 H   0  0  0  0  0  0  0  0  0  0  0  0
   38.0350   26.0330   33.6020 C   0  0  0  0  0  0  0  0  0  0  0  0
   37.4830   27.2990   33.5640 C   0  0  0  0  0  0  0  0  0  0  0  0
   37.4040   28.1570   34.6290 C   0  0  0  0  0  0  0  0  0  0  0  0
   37.9170   27.7470   35.8610 C   0  0  0  0  0  0  0  0  0  0  0  0
   38.4770   26.4750   35.9030 C   0  0  0  0  0  0  0  0  0  0  0  0
   38.5530   25.6040   34.8210 C   0  0  0  0  0  0  0  0  0  0  0  0
   37.0480   27.7100   32.6390 H   0  0  0  0  0  0  0  0  0  0  0  0
   36.9550   29.1270   34.5250 H   0  0  0  0  0  0  0  0  0  0  0  0
   37.8430   28.4380   36.6840 H   0  0  0  0  0  0  0  0  0  0  0  0
   38.8460   26.2990   36.9050 H   0  0  0  0  0  0  0  0  0  0  0  0
   39.2730   25.3310   31.6200 C   0  0  0  0  0  0  0  0  0  0  0  0
   38.0420   25.3190   32.3730 C   0  0  0  0  0  0  0  0  0  0  0  0
   36.9830   24.5980   31.8520 C   0  0  0  0  0  0  0  0  0  0  0  0
   37.1220   23.9330   30.6820 N   0  0  0  0  0  0  0  0  0  0  0  0
   38.3010   23.9530   29.9800 C   0  0  0  0  0  0  0  0  0  0  0  0
   39.3570   24.6520   30.4580 N   0  0  0  0  0  0  0  0  0  0  0  0
   40.1760   25.8440   31.8990 H   0  0  0  0  0  0  0  0  0  0  0  0
   35.9900   24.4990   32.1600 H   0  0  0  0  0  0  0  0  0  0  0  0
   38.4500   23.4310   29.0390 H   0  0  0  0  0  0  0  0  0  0  0  0
   37.4970   22.4030   35.4380 C   0  0  0  0  0  0  0  0  0  0  0  0
   36.5860   21.7360   36.2570 C   0  0  0  0  0  0  0  0  0  0  0  0
   36.5130   21.9420   37.3350 H   0  0  0  0  0  0  0  0  0  0  0  0
   35.6940   20.7650   35.8090 C   0  0  0  0  0  0  0  0  0  0  0  0
   35.0090   20.2800   36.4840 H   0  0  0  0  0  0  0  0  0  0  0  0
   35.7250   20.4530   34.4670 C   0  0  0  0  0  3  0  0  0  0  0  0
   36.6360   21.1370   33.7170 C   0  0  0  0  0  3  0  0  0  0  0  0
   37.4830   22.0630   34.1630 N   0  0  0  0  0  0  0  0  0  0  0  0
  1  7  1  6  0  0  0
  1  2  1  0  0  0  0
  1  6  1  0  0  0  0
  2  3  1  0  0  0  0
  2  8  1  0  0  0  0
  3 10  1  0  0  0  0
  3  4  1  0  0  0  0
  4 13  1  0  0  0  0
  4  5  1  0  0  0  0
  5 15  1  0  0  0  0
  5 14  1  0  0  0  0
  6 16  1  1  0  0  0
  6  5  1  0  0  0  0
  9  2  1  0  0  0  0
 11  3  1  0  0  0  0
 12  4  1  0  0  0  0
 17 22  1  0  0  0  0
 18 17  2  0  0  0  0
 18 19  1  0  0  0  0
 19 20  2  0  0  0  0
 20 21  1  0  0  0  0
 20 25  1  0  0  0  0
 21 26  1  0  0  0  0
 22  1  1  0  0  0  0
 22 21  2  0  0  0  0
 23 18  1  0  0  0  0
 24 19  1  0  0  0  0
 27 33  1  0  0  0  0
 27 28  1  0  0  0  0
 28 17  1  0  0  0  0
 29 34  1  0  0  0  0
 29 28  2  0  0  0  0
 30 29  1  0  0  0  0
 31 32  1  0  0  0  0
 31 30  2  0  0  0  0
 32 27  2  0  0  0  0
 35 31  1  0  0  0  0
 36  6  1  0  0  0  0
 36 37  1  0  0  0  0
 37 38  1  0  0  0  0
 39 37  2  0  0  0  0
 39 40  1  0  0  0  0
 41 39  1  0  0  0  0
 42 43  1  0  0  0  0
 42 41  2  0  0  0  0
 43 36  2  0  0  0  0
M  END
>  <minimizedAffinity>
-5.53686571

$$$$

 OpenBabel03272506133D

 43 46  0  0  1  0  0  0  0  0999 V2000
   39.1100   24.1460   35.1090 C   0  0  1  0  0  0  0  0  0  0  0  0
   40.6410   24.2790   35.4910 C   0  0  0  0  0  0  0  0  0  0  0  0
   41.2810   22.8960   35.5960 C   0  0  0  0  0  0  0  0  0  0  0  0
   40.4010   21.9620   36.3710 C   0  0  0  0  0  0  0  0  0  0  0  0
   39.4580   22.7780   37.1860 C   0  0  0  0  0  0  0  0  0  0  0  0
   38.4600   23.4380   36.2570 C   0  0  2  0  0  0  0  0  0  0  0  0
   39.2530   23.3770   34.4250 H   0  0  0  0  0  0  0  0  0  0  0  0
   40.7460   24.8890   36.3810 H   0  0  0  0  0  0  0  0  0  0  0  0
   41.1030   24.7880   34.6320 H   0  0  0  0  0  0  0  0  0  0  0  0
   42.2450   23.0620   36.0960 H   0  0  0  0  0  0  0  0  0  0  0  0
   41.3740   22.5090   34.5660 H   0  0  0  0  0  0  0  0  0  0  0  0
   39.9200   21.2150   35.7230 H   0  0  0  0  0  0  0  0  0  0  0  0
   41.0510   21.3760   37.0900 H   0  0  0  0  0  0  0  0  0  0  0  0
   38.8640   22.1760   37.8890 H   0  0  0  0  0  0  0  0  0  0  0  0
   40.0040   23.5480   37.7270 H   0  0  0  0  0  0  0  0  0  0  0  0
   37.8230   24.0440   36.9170 H   0  0  0  0  0  0  0  0  0  0  0  0
   38.2910   25.9040   33.5990 C   0  0  0  0  0  0  0  0  0  0  0  0
   37.7860   27.1850   33.4740 C   0  0  0  0  0  0  0  0  0  0  0  0
   37.6220   28.0710   34.5060 C   0  0  0  0  0  0  0  0  0  0  0  0
   37.9880   27.6770   35.7940 C   0  0  0  0  0  0  0  0  0  0  0  0
   38.5000   26.3900   35.9230 C   0  0  0  0  0  0  0  0  0  0  0  0
   38.6620   25.4910   34.8750 C   0  0  0  0  0  0  0  0  0  0  0  0
   37.4660   27.5850   32.4990 H   0  0  0  0  0  0  0  0  0  0  0  0
   37.2190   29.0510   34.3330 H   0  0  0  0  0  0  0  0  0  0  0  0
   37.8500   28.3890   36.5900 H   0  0  0  0  0  0  0  0  0  0  0  0
   38.7540   26.2280   36.9620 H   0  0  0  0  0  0  0  0  0  0  0  0
   37.1790   24.6680   31.8130 C   0  0  0  0  0  0  0  0  0  0  0  0
   38.4060   25.1600   32.3930 C   0  0  0  0  0  0  0  0  0  0  0  0
   39.5830   24.8890   31.7200 C   0  0  0  0  0  0  0  0  0  0  0  0
   39.5600   24.1920   30.5600 N   0  0  0  0  0  0  0  0  0  0  0  0
   38.3840   23.7340   30.0210 C   0  0  0  0  0  0  0  0  0  0  0  0
   37.2140   23.9780   30.6550 N   0  0  0  0  0  0  0  0  0  0  0  0
   36.1940   24.8010   32.2190 H   0  0  0  0  0  0  0  0  0  0  0  0
   40.5830   25.0650   31.9670 H   0  0  0  0  0  0  0  0  0  0  0  0
   38.3270   23.1730   29.0920 H   0  0  0  0  0  0  0  0  0  0  0  0
   37.4690   22.4010   35.7530 C   0  0  0  0  0  0  0  0  0  0  0  0
   37.4730   22.0510   34.4030 C   0  0  0  0  0  0  0  0  0  0  0  0
   38.1720   22.5050   33.6850 H   0  0  0  0  0  0  0  0  0  0  0  0
   36.6150   21.1120   33.8330 C   0  0  0  0  0  0  0  0  0  0  0  0
   36.6610   20.8770   32.7840 H   0  0  0  0  0  0  0  0  0  0  0  0
   35.7100   20.4980   34.6700 C   0  0  0  0  0  3  0  0  0  0  0  0
   35.7520   20.8810   35.9790 C   0  0  0  0  0  3  0  0  0  0  0  0
   36.5800   21.7820   36.5070 N   0  0  0  0  0  0  0  0  0  0  0  0
  1  7  1  6  0  0  0
  1  2  1  0  0  0  0
  1  6  1  0  0  0  0
  2  3  1  0  0  0  0
  2  8  1  0  0  0  0
  3 10  1  0  0  0  0
  3  4  1  0  0  0  0
  4 13  1  0  0  0  0
  4  5  1  0  0  0  0
  5 15  1  0  0  0  0
  5 14  1  0  0  0  0
  6 16  1  1  0  0  0
  6  5  1  0  0  0  0
  9  2  1  0  0  0  0
 11  3  1  0  0  0  0
 12  4  1  0  0  0  0
 17 22  1  0  0  0  0
 18 17  2  0  0  0  0
 18 19  1  0  0  0  0
 19 20  2  0  0  0  0
 20 21  1  0  0  0  0
 20 25  1  0  0  0  0
 21 26  1  0  0  0  0
 22  1  1  0  0  0  0
 22 21  2  0  0  0  0
 23 18  1  0  0  0  0
 24 19  1  0  0  0  0
 27 33  1  0  0  0  0
 27 28  1  0  0  0  0
 28 17  1  0  0  0  0
 29 34  1  0  0  0  0
 29 28  2  0  0  0  0
 30 29  1  0  0  0  0
 31 30  2  0  0  0  0
 31 32  1  0  0  0  0
 32 27  2  0  0  0  0
 35 31  1  0  0  0  0
 36  6  1  0  0  0  0
 36 43  1  0  0  0  0
 37 36  2  0  0  0  0
 38 37  1  0  0  0  0
 39 37  1  0  0  0  0
 39 41  2  0  0  0  0
 40 39  1  0  0  0  0
 41 42  1  0  0  0  0
 42 43  2  0  0  0  0
M  END
>  <minimizedAffinity>
-5.49905062

$$$$

 OpenBabel03272506133D

 43 46  0  0  1  0  0  0  0  0999 V2000
   38.0010   26.2640   33.1600 C   0  0  1  0  0  0  0  0  0  0  0  0
   37.4270   26.4200   34.6280 C   0  0  0  0  0  0  0  0  0  0  0  0
   38.3470   27.3080   35.4630 C   0  0  0  0  0  0  0  0  0  0  0  0
   39.7820   26.9200   35.2640 C   0  0  0  0  0  0  0  0  0  0  0  0
   39.8190   25.5310   34.7290 C   0  0  0  0  0  0  0  0  0  0  0  0
   39.3060   25.5460   33.3030 C   0  0  2  0  0  0  0  0  0  0  0  0
   38.3000   27.2550   33.0730 H   0  0  0  0  0  0  0  0  0  0  0  0
   37.2400   25.4420   35.0560 H   0  0  0  0  0  0  0  0  0  0  0  0
   36.4770   26.9610   34.5040 H   0  0  0  0  0  0  0  0  0  0  0  0
   38.0220   27.1640   36.5020 H   0  0  0  0  0  0  0  0  0  0  0  0
   38.2140   28.3410   35.0940 H   0  0  0  0  0  0  0  0  0  0  0  0
   40.3290   27.6590   34.6610 H   0  0  0  0  0  0  0  0  0  0  0  0
   40.2900   26.9080   36.2760 H   0  0  0  0  0  0  0  0  0  0  0  0
   40.8360   25.1160   34.6790 H   0  0  0  0  0  0  0  0  0  0  0  0
   39.1830   24.8840   35.3300 H   0  0  0  0  0  0  0  0  0  0  0  0
   39.3300   24.4920   32.9880 H   0  0  0  0  0  0  0  0  0  0  0  0
   36.0950   26.2490   31.6080 C   0  0  0  0  0  0  0  0  0  0  0  0
   35.2030   25.4920   30.8720 C   0  0  0  0  0  0  0  0  0  0  0  0
   35.1300   24.1240   30.8880 C   0  0  0  0  0  0  0  0  0  0  0  0
   36.0100   23.4140   31.7070 C   0  0  0  0  0  0  0  0  0  0  0  0
   36.9060   24.1730   32.4530 C   0  0  0  0  0  0  0  0  0  0  0  0
   36.9820   25.5610   32.4310 C   0  0  0  0  0  0  0  0  0  0  0  0
   34.4720   25.9610   30.1930 H   0  0  0  0  0  0  0  0  0  0  0  0
   34.4120   23.6020   30.2840 H   0  0  0  0  0  0  0  0  0  0  0  0
   35.9350   22.3400   31.7040 H   0  0  0  0  0  0  0  0  0  0  0  0
   37.5090   23.5000   33.0470 H   0  0  0  0  0  0  0  0  0  0  0  0
   36.6530   28.2550   30.3360 C   0  0  0  0  0  0  0  0  0  0  0  0
   35.9800   27.6600   31.4650 C   0  0  0  0  0  0  0  0  0  0  0  0
   35.2650   28.5000   32.2980 C   0  0  0  0  0  0  0  0  0  0  0  0
   35.2070   29.8270   32.0380 N   0  0  0  0  0  0  0  0  0  0  0  0
   35.8500   30.3770   30.9580 C   0  0  0  0  0  0  0  0  0  0  0  0
   36.5630   29.5840   30.1250 N   0  0  0  0  0  0  0  0  0  0  0  0
   37.2420   27.7310   29.6060 H   0  0  0  0  0  0  0  0  0  0  0  0
   34.7670   28.3290   33.1990 H   0  0  0  0  0  0  0  0  0  0  0  0
   35.8250   31.4360   30.7190 H   0  0  0  0  0  0  0  0  0  0  0  0
   40.3560   26.1580   32.3900 C   0  0  0  0  0  0  0  0  0  0  0  0
   39.9950   27.1980   31.5350 C   0  0  0  0  0  0  0  0  0  0  0  0
   38.9690   27.5930   31.4980 H   0  0  0  0  0  0  0  0  0  0  0  0
   40.8730   27.8350   30.6600 C   0  0  0  0  0  0  0  0  0  0  0  0
   40.5430   28.6360   30.0200 H   0  0  0  0  0  0  0  0  0  0  0  0
   42.1790   27.3980   30.6500 C   0  0  0  0  0  3  0  0  0  0  0  0
   42.4720   26.3770   31.5070 C   0  0  0  0  0  3  0  0  0  0  0  0
   41.6190   25.7790   32.3370 N   0  0  0  0  0  0  0  0  0  0  0  0
  1  7  1  6  0  0  0
  1  6  1  0  0  0  0
  1  2  1  0  0  0  0
  2  8  1  0  0  0  0
  2  3  1  0  0  0  0
  3 10  1  0  0  0  0
  4  3  1  0  0  0  0
  4 13  1  0  0  0  0
  5  4  1  0  0  0  0
  5 15  1  0  0  0  0
  6 16  1  6  0  0  0
  6  5  1  0  0  0  0
  9  2  1  0  0  0  0
 11  3  1  0  0  0  0
 12  4  1  0  0  0  0
 14  5  1  0  0  0  0
 17 22  1  0  0  0  0
 18 19  1  0  0  0  0
 18 17  2  0  0  0  0
 19 20  2  0  0  0  0
 20 21  1  0  0  0  0
 21 26  1  0  0  0  0
 22 21  2  0  0  0  0
 22  1  1  0  0  0  0
 23 18  1  0  0  0  0
 24 19  1  0  0  0  0
 25 20  1  0  0  0  0
 27 28  1  0  0  0  0
 28 17  1  0  0  0  0
 28 29  2  0  0  0  0
 29 34  1  0  0  0  0
 30 29  1  0  0  0  0
 31 30  2  0  0  0  0
 32 27  2  0  0  0  0
 32 31  1  0  0  0  0
 33 27  1  0  0  0  0
 35 31  1  0  0  0  0
 36  6  1  0  0  0  0
 37 36  2  0  0  0  0
 38 37  1  0  0  0  0
 39 37  1  0  0  0  0
 40 39  1  0  0  0  0
 41 39  2  0  0  0  0
 41 42  1  0  0  0  0
 42 43  2  0  0  0  0
 43 36  1  0  0  0  0
M  END
>  <minimizedAffinity>
-5.46769047

$$$$

 OpenBabel03272506133D

 43 46  0  0  1  0  0  0  0  0999 V2000
   38.7140   25.0980   33.4320 C   0  0  1  0  0  0  0  0  0  0  0  0
   39.2240   26.3900   32.6710 C   0  0  0  0  0  0  0  0  0  0  0  0
   40.3740   27.0360   33.4400 C   0  0  0  0  0  0  0  0  0  0  0  0
   40.0560   27.1130   34.9030 C   0  0  0  0  0  0  0  0  0  0  0  0
   38.5810   27.0000   35.0660 C   0  0  0  0  0  0  0  0  0  0  0  0
   38.1640   25.5810   34.7380 C   0  0  2  0  0  0  0  0  0  0  0  0
   39.6620   24.7680   33.6980 H   0  0  0  0  0  0  0  0  0  0  0  0
   38.3900   27.0530   32.4730 H   0  0  0  0  0  0  0  0  0  0  0  0
   39.6350   26.0140   31.7230 H   0  0  0  0  0  0  0  0  0  0  0  0
   40.4970   28.0310   32.9920 H   0  0  0  0  0  0  0  0  0  0  0  0
   41.2520   26.3780   33.3110 H   0  0  0  0  0  0  0  0  0  0  0  0
   40.6410   26.3900   35.4910 H   0  0  0  0  0  0  0  0  0  0  0  0
   40.3620   28.1370   35.2790 H   0  0  0  0  0  0  0  0  0  0  0  0
   38.2470   27.1820   36.0980 H   0  0  0  0  0  0  0  0  0  0  0  0
   38.0780   27.6850   34.3870 H   0  0  0  0  0  0  0  0  0  0  0  0
   37.0690   25.5800   34.8460 H   0  0  0  0  0  0  0  0  0  0  0  0
   38.0140   23.2430   31.9790 C   0  0  0  0  0  0  0  0  0  0  0  0
   37.0100   22.6870   31.2090 C   0  0  0  0  0  0  0  0  0  0  0  0
   35.7920   23.2650   30.9650 C   0  0  0  0  0  0  0  0  0  0  0  0
   35.5180   24.5150   31.5230 C   0  0  0  0  0  0  0  0  0  0  0  0
   36.5280   25.0800   32.2950 C   0  0  0  0  0  0  0  0  0  0  0  0
   37.7620   24.4900   32.5450 C   0  0  0  0  0  0  0  0  0  0  0  0
   37.1290   21.7010   30.7310 H   0  0  0  0  0  0  0  0  0  0  0  0
   35.0570   22.7700   30.3580 H   0  0  0  0  0  0  0  0  0  0  0  0
   34.5550   24.9500   31.3180 H   0  0  0  0  0  0  0  0  0  0  0  0
   36.1870   26.0450   32.6460 H   0  0  0  0  0  0  0  0  0  0  0  0
   40.2740   22.8240   31.1610 C   0  0  0  0  0  0  0  0  0  0  0  0
   39.2140   22.4860   32.0790 C   0  0  0  0  0  0  0  0  0  0  0  0
   39.4570   21.4760   32.9920 C   0  0  0  0  0  0  0  0  0  0  0  0
   40.6560   20.8480   33.0080 N   0  0  0  0  0  0  0  0  0  0  0  0
   41.6540   21.1830   32.1290 C   0  0  0  0  0  0  0  0  0  0  0  0
   41.4490   22.1640   31.2200 N   0  0  0  0  0  0  0  0  0  0  0  0
   40.2300   23.5830   30.4010 H   0  0  0  0  0  0  0  0  0  0  0  0
   38.8410   21.0070   33.6920 H   0  0  0  0  0  0  0  0  0  0  0  0
   42.6280   20.7010   32.1130 H   0  0  0  0  0  0  0  0  0  0  0  0
   38.5790   24.6530   35.8680 C   0  0  0  0  0  0  0  0  0  0  0  0
   37.9480   24.7600   37.1080 C   0  0  0  0  0  0  0  0  0  0  0  0
   37.1550   25.5000   37.2960 H   0  0  0  0  0  0  0  0  0  0  0  0
   38.2440   23.9620   38.2110 C   0  0  0  0  0  0  0  0  0  0  0  0
   37.7250   24.0860   39.1460 H   0  0  0  0  0  0  0  0  0  0  0  0
   39.2260   23.0100   38.0520 C   0  0  0  0  0  3  0  0  0  0  0  0
   39.8080   22.9520   36.8190 C   0  0  0  0  0  3  0  0  0  0  0  0
   39.5120   23.7250   35.7750 N   0  0  0  0  0  0  0  0  0  0  0  0
  1  7  1  1  0  0  0
  1  6  1  0  0  0  0
  2  1  1  0  0  0  0
  2  3  1  0  0  0  0
  3  4  1  0  0  0  0
  4  5  1  0  0  0  0
  4 13  1  0  0  0  0
  4 12  1  0  0  0  0
  5 14  1  0  0  0  0
  6 16  1  6  0  0  0
  6  5  1  0  0  0  0
  6 36  1  0  0  0  0
  8  2  1  0  0  0  0
  9  2  1  0  0  0  0
 10  3  1  0  0  0  0
 11  3  1  0  0  0  0
 15  5  1  0  0  0  0
 17 28  1  0  0  0  0
 17 22  1  0  0  0  0
 18 17  2  0  0  0  0
 19 18  1  0  0  0  0
 19 20  2  0  0  0  0
 20 21  1  0  0  0  0
 21 22  2  0  0  0  0
 21 26  1  0  0  0  0
 22  1  1  0  0  0  0
 23 18  1  0  0  0  0
 24 19  1  0  0  0  0
 25 20  1  0  0  0  0
 27 32  2  0  0  0  0
 27 28  1  0  0  0  0
 28 29  2  0  0  0  0
 29 30  1  0  0  0  0
 29 34  1  0  0  0  0
 31 30  2  0  0  0  0
 32 31  1  0  0  0  0
 33 27  1  0  0  0  0
 35 31  1  0  0  0  0
 36 37  1  0  0  0  0
 37 38  1  0  0  0  0
 37 39  2  0  0  0  0
 39 40  1  0  0  0  0
 41 39  1  0  0  0  0
 42 41  2  0  0  0  0
 43 36  2  0  0  0  0
 43 42  1  0  0  0  0
M  END
>  <minimizedAffinity>
-5.43500423

$$$$

 OpenBabel03272506133D

 43 46  0  0  1  0  0  0  0  0999 V2000
   38.3010   25.4200   33.8790 C   0  0  1  0  0  0  0  0  0  0  0  0
   37.1250   26.4030   34.2750 C   0  0  0  0  0  0  0  0  0  0  0  0
   37.6510   27.5220   35.1710 C   0  0  0  0  0  0  0  0  0  0  0  0
   38.5480   26.9690   36.2380 C   0  0  0  0  0  0  0  0  0  0  0  0
   38.2540   25.5180   36.3880 C   0  0  0  0  0  0  0  0  0  0  0  0
   38.7590   24.7910   35.1580 C   0  0  2  0  0  0  0  0  0  0  0  0
   39.0040   26.1710   33.7360 H   0  0  0  0  0  0  0  0  0  0  0  0
   36.3020   25.8400   34.6990 H   0  0  0  0  0  0  0  0  0  0  0  0
   36.8120   26.8650   33.3270 H   0  0  0  0  0  0  0  0  0  0  0  0
   36.7560   27.9990   35.5920 H   0  0  0  0  0  0  0  0  0  0  0  0
   38.2510   28.1900   34.5280 H   0  0  0  0  0  0  0  0  0  0  0  0
   39.6050   27.2070   36.0530 H   0  0  0  0  0  0  0  0  0  0  0  0
   38.2840   27.4720   37.2190 H   0  0  0  0  0  0  0  0  0  0  0  0
   38.7720   25.0590   37.2430 H   0  0  0  0  0  0  0  0  0  0  0  0
   37.1800   25.3620   36.4770 H   0  0  0  0  0  0  0  0  0  0  0  0
   38.4810   23.7390   35.3220 H   0  0  0  0  0  0  0  0  0  0  0  0
   37.5290   24.9270   31.5980 C   0  0  0  0  0  0  0  0  0  0  0  0
   37.0610   23.9760   30.7110 C   0  0  0  0  0  0  0  0  0  0  0  0
   36.7880   22.6710   31.0270 C   0  0  0  0  0  0  0  0  0  0  0  0
   36.9840   22.2430   32.3410 C   0  0  0  0  0  0  0  0  0  0  0  0
   37.4520   23.1980   33.2380 C   0  0  0  0  0  0  0  0  0  0  0  0
   37.7320   24.5210   32.9140 C   0  0  0  0  0  0  0  0  0  0  0  0
   36.8790   24.2160   29.6520 H   0  0  0  0  0  0  0  0  0  0  0  0
   36.4300   21.9860   30.2820 H   0  0  0  0  0  0  0  0  0  0  0  0
   36.7640   21.2130   32.5660 H   0  0  0  0  0  0  0  0  0  0  0  0
   37.5410   22.7350   34.2110 H   0  0  0  0  0  0  0  0  0  0  0  0
   36.5310   27.0170   30.8290 C   0  0  0  0  0  0  0  0  0  0  0  0
   37.7190   26.2330   31.0680 C   0  0  0  0  0  0  0  0  0  0  0  0
   38.9390   26.8200   30.7860 C   0  0  0  0  0  0  0  0  0  0  0  0
   38.9910   28.0860   30.3110 N   0  0  0  0  0  0  0  0  0  0  0  0
   37.8520   28.8180   30.0920 C   0  0  0  0  0  0  0  0  0  0  0  0
   36.6410   28.2740   30.3530 N   0  0  0  0  0  0  0  0  0  0  0  0
   35.5200   26.6960   31.0010 H   0  0  0  0  0  0  0  0  0  0  0  0
   39.9130   26.4440   30.8010 H   0  0  0  0  0  0  0  0  0  0  0  0
   37.8560   29.8370   29.7120 H   0  0  0  0  0  0  0  0  0  0  0  0
   40.2770   24.7110   35.2010 C   0  0  0  0  0  0  0  0  0  0  0  0
   40.8870   23.6790   35.9140 C   0  0  0  0  0  0  0  0  0  0  0  0
   40.3020   22.9160   36.4510 H   0  0  0  0  0  0  0  0  0  0  0  0
   42.2650   23.5050   36.0180 C   0  0  0  0  0  0  0  0  0  0  0  0
   42.6860   22.6890   36.5810 H   0  0  0  0  0  0  0  0  0  0  0  0
   43.0650   24.4210   35.3710 C   0  0  0  0  0  3  0  0  0  0  0  0
   42.4130   25.4080   34.6910 C   0  0  0  0  0  3  0  0  0  0  0  0
   41.0920   25.5580   34.6020 N   0  0  0  0  0  0  0  0  0  0  0  0
  1  7  1  6  0  0  0
  1  2  1  0  0  0  0
  1  6  1  0  0  0  0
  2  8  1  0  0  0  0
  2  3  1  0  0  0  0
  3 10  1  0  0  0  0
  3  4  1  0  0  0  0
  4  5  1  0  0  0  0
  4 13  1  0  0  0  0
  5 15  1  0  0  0  0
  5 14  1  0  0  0  0
  6 36  1  0  0  0  0
  6 16  1  1  0  0  0
  6  5  1  0  0  0  0
  9  2  1  0  0  0  0
 11  3  1  0  0  0  0
 12  4  1  0  0  0  0
 17 22  1  0  0  0  0
 18 19  1  0  0  0  0
 18 17  2  0  0  0  0
 19 20  2  0  0  0  0
 20 25  1  0  0  0  0
 20 21  1  0  0  0  0
 21 26  1  0  0  0  0
 22 21  2  0  0  0  0
 22  1  1  0  0  0  0
 23 18  1  0  0  0  0
 24 19  1  0  0  0  0
 27 33  1  0  0  0  0
 27 28  1  0  0  0  0
 28 17  1  0  0  0  0
 29 34  1  0  0  0  0
 29 28  2  0  0  0  0
 30 29  1  0  0  0  0
 31 30  2  0  0  0  0
 31 32  1  0  0  0  0
 32 27  2  0  0  0  0
 35 31  1  0  0  0  0
 36 37  1  0  0  0  0
 37 39  2  0  0  0  0
 37 38  1  0  0  0  0
 39 40  1  0  0  0  0
 41 39  1  0  0  0  0
 42 41  2  0  0  0  0
 43 42  1  0  0  0  0
 43 36  2  0  0  0  0
M  END
>  <minimizedAffinity>
-5.39414072

$$$$
