
 OpenBabel03262523073D

 40 44  0  0  0  0  0  0  0  0999 V2000
   37.2560   26.8450   32.4250 C   0  0  0  0  0  0  0  0  0  0  0  0
   37.7160   27.3980   31.2600 C   0  0  0  0  0  0  0  0  0  0  0  0
   37.3600   28.6840   30.9620 C   0  0  0  0  0  0  0  0  0  0  0  0
   36.5640   29.3930   31.8130 N   0  0  0  0  0  0  0  0  0  0  0  0
   36.1400   28.8130   32.9380 C   0  0  0  0  0  0  0  0  0  0  0  0
   36.4750   27.5470   33.2570 N   0  0  0  0  0  0  0  0  0  0  0  0
   38.3460   26.7550   30.6410 H   0  0  0  0  0  0  0  0  0  0  0  0
   37.7290   29.1140   30.0350 H   0  0  0  0  0  0  0  0  0  0  0  0
   35.2920   29.5680   33.8440 C   0  0  0  0  0  0  0  0  0  0  0  0
   33.9250   29.3680   33.8750 C   0  0  0  0  0  0  0  0  0  0  0  0
   33.0010   30.0030   34.6710 C   0  0  0  0  0  0  0  0  0  0  0  0
   33.5490   30.9450   35.5290 C   0  0  0  0  0  0  0  0  0  0  0  0
   32.6940   31.6170   36.3520 N   0  0  0  0  0  0  0  0  0  0  0  0
   33.1290   32.5570   37.2250 C   0  0  0  0  0  0  0  0  0  0  0  0
   34.4800   32.8420   37.2830 C   0  0  0  0  0  0  0  0  0  0  0  0
   35.3460   32.1600   36.4480 C   0  0  0  0  0  0  0  0  0  0  0  0
   34.9010   31.1960   35.5520 C   0  0  0  0  0  0  0  0  0  0  0  0
   35.7650   30.5200   34.7240 C   0  0  0  0  0  0  0  0  0  0  0  0
   33.5430   28.6140   33.1790 H   0  0  0  0  0  0  0  0  0  0  0  0
   31.9650   29.7740   34.6170 H   0  0  0  0  0  0  0  0  0  0  0  0
   32.4220   33.0760   37.8690 H   0  0  0  0  0  0  0  0  0  0  0  0
   34.8770   33.5830   37.9620 H   0  0  0  0  0  0  0  0  0  0  0  0
   36.4060   32.3850   36.4960 H   0  0  0  0  0  0  0  0  0  0  0  0
   36.8270   30.7210   34.7450 H   0  0  0  0  0  0  0  0  0  0  0  0
   37.9850   23.2380   32.2670 C   0  0  0  0  0  0  0  0  0  0  0  0
   38.2600   22.9070   33.5880 C   0  0  0  0  0  0  0  0  0  0  0  0
   38.1870   23.9580   34.5280 C   0  0  0  0  0  0  0  0  0  0  0  0
   37.8600   25.1980   34.1000 N   0  0  0  0  0  0  0  0  0  0  0  0
   37.6020   25.4720   32.8010 C   0  0  0  0  0  0  0  0  0  0  0  0
   37.6690   24.4790   31.9080 N   0  0  0  0  0  0  0  0  0  0  0  0
   38.0540   22.4060   31.5920 H   0  0  0  0  0  0  0  0  0  0  0  0
   38.5170   21.9390   33.9350 H   0  0  0  0  0  0  0  0  0  0  0  0
   38.4440   23.7890   35.9500 C   0  0  0  0  0  0  0  0  0  0  0  0
   37.7050   24.3890   36.9410 C   0  0  0  0  0  0  0  0  0  0  0  0
   36.8780   25.0320   36.6790 H   0  0  0  0  0  0  0  0  0  0  0  0
   37.9230   24.2480   38.2940 C   0  0  0  0  0  0  0  0  0  0  0  0
   37.3150   24.7410   39.0440 H   0  0  0  0  0  0  0  0  0  0  0  0
   38.9620   23.4440   38.7130 C   0  0  0  0  0  3  0  0  0  0  0  0
   39.6960   22.8460   37.7120 C   0  0  0  0  0  3  0  0  0  0  0  0
   39.4480   23.0120   36.4160 N   0  0  0  0  0  0  0  0  0  0  0  0
  1 29  1  0  0  0  0
  1  6  1  0  0  0  0
  2  1  2  0  0  0  0
  3  2  1  0  0  0  0
  3  4  2  0  0  0  0
  4  5  1  0  0  0  0
  5  6  2  0  0  0  0
  5  9  1  0  0  0  0
  7  2  1  0  0  0  0
  8  3  1  0  0  0  0
  9 10  2  0  0  0  0
  9 18  1  0  0  0  0
 10 11  1  0  0  0  0
 11 12  2  0  0  0  0
 12 17  1  0  0  0  0
 12 13  1  0  0  0  0
 13 14  2  0  0  0  0
 14 15  1  0  0  0  0
 14 21  1  0  0  0  0
 15 22  1  0  0  0  0
 16 23  1  0  0  0  0
 16 15  2  0  0  0  0
 17 16  1  0  0  0  0
 18 24  1  0  0  0  0
 18 17  2  0  0  0  0
 19 10  1  0  0  0  0
 20 11  1  0  0  0  0
 25 26  1  0  0  0  0
 26 32  1  0  0  0  0
 26 27  2  0  0  0  0
 27 33  1  0  0  0  0
 28 27  1  0  0  0  0
 29 28  2  0  0  0  0
 30 25  2  0  0  0  0
 30 29  1  0  0  0  0
 31 25  1  0  0  0  0
 33 40  2  0  0  0  0
 33 34  1  0  0  0  0
 34 36  2  0  0  0  0
 35 34  1  0  0  0  0
 36 38  1  0  0  0  0
 36 37  1  0  0  0  0
 39 38  2  0  0  0  0
 40 39  1  0  0  0  0
M  END
>  <minimizedAffinity>
-7.23463106

$$$$

 OpenBabel03262523073D

 40 44  0  0  0  0  0  0  0  0999 V2000
   36.5150   27.2000   32.2960 C   0  0  0  0  0  0  0  0  0  0  0  0
   36.0850   26.4700   31.2200 C   0  0  0  0  0  0  0  0  0  0  0  0
   36.3250   25.1240   31.2060 C   0  0  0  0  0  0  0  0  0  0  0  0
   36.9780   24.5290   32.2450 N   0  0  0  0  0  0  0  0  0  0  0  0
   37.3780   25.2820   33.2740 C   0  0  0  0  0  0  0  0  0  0  0  0
   37.1560   26.6100   33.3140 N   0  0  0  0  0  0  0  0  0  0  0  0
   35.5720   27.0320   30.4350 H   0  0  0  0  0  0  0  0  0  0  0  0
   35.9800   24.5540   30.3480 H   0  0  0  0  0  0  0  0  0  0  0  0
   38.0740   24.6480   34.3800 C   0  0  0  0  0  0  0  0  0  0  0  0
   37.7490   24.9450   35.6910 C   0  0  0  0  0  0  0  0  0  0  0  0
   38.3150   24.4310   36.8330 C   0  0  0  0  0  0  0  0  0  0  0  0
   39.3240   23.5080   36.5960 C   0  0  0  0  0  0  0  0  0  0  0  0
   39.9340   22.9530   37.6820 N   0  0  0  0  0  0  0  0  0  0  0  0
   40.9300   22.0440   37.5590 C   0  0  0  0  0  0  0  0  0  0  0  0
   41.3400   21.6680   36.2930 C   0  0  0  0  0  0  0  0  0  0  0  0
   40.7210   22.2330   35.1930 C   0  0  0  0  0  0  0  0  0  0  0  0
   39.6990   23.1650   35.3190 C   0  0  0  0  0  0  0  0  0  0  0  0
   39.0860   23.7240   34.2230 C   0  0  0  0  0  0  0  0  0  0  0  0
   36.9460   25.6770   35.8230 H   0  0  0  0  0  0  0  0  0  0  0  0
   37.9900   24.7270   37.8000 H   0  0  0  0  0  0  0  0  0  0  0  0
   41.3970   21.6180   38.4450 H   0  0  0  0  0  0  0  0  0  0  0  0
   42.1300   20.9480   36.1420 H   0  0  0  0  0  0  0  0  0  0  0  0
   41.0440   21.9360   34.2020 H   0  0  0  0  0  0  0  0  0  0  0  0
   39.3850   23.4510   33.2200 H   0  0  0  0  0  0  0  0  0  0  0  0
   36.4410   30.7910   31.4770 C   0  0  0  0  0  0  0  0  0  0  0  0
   35.8300   31.3610   32.5860 C   0  0  0  0  0  0  0  0  0  0  0  0
   35.4480   30.4760   33.6190 C   0  0  0  0  0  0  0  0  0  0  0  0
   35.6920   29.1550   33.4720 N   0  0  0  0  0  0  0  0  0  0  0  0
   36.2890   28.6450   32.3710 C   0  0  0  0  0  0  0  0  0  0  0  0
   36.6540   29.4800   31.3920 N   0  0  0  0  0  0  0  0  0  0  0  0
   36.7120   31.5030   30.7210 H   0  0  0  0  0  0  0  0  0  0  0  0
   35.6340   32.3950   32.7120 H   0  0  0  0  0  0  0  0  0  0  0  0
   34.7980   30.9040   34.8480 C   0  0  0  0  0  0  0  0  0  0  0  0
   35.3990   31.6910   35.8000 C   0  0  0  0  0  0  0  0  0  0  0  0
   36.4150   32.0280   35.6550 H   0  0  0  0  0  0  0  0  0  0  0  0
   34.8100   32.1120   36.9730 C   0  0  0  0  0  0  0  0  0  0  0  0
   35.3220   32.7340   37.6990 H   0  0  0  0  0  0  0  0  0  0  0  0
   33.5130   31.7250   37.2350 C   0  0  0  0  0  3  0  0  0  0  0  0
   32.9200   30.9350   36.2740 C   0  0  0  0  0  3  0  0  0  0  0  0
   33.5280   30.5530   35.1550 N   0  0  0  0  0  0  0  0  0  0  0  0
  1 29  1  0  0  0  0
  1  6  1  0  0  0  0
  2  1  2  0  0  0  0
  3  2  1  0  0  0  0
  3  4  2  0  0  0  0
  4  5  1  0  0  0  0
  5  6  2  0  0  0  0
  5  9  1  0  0  0  0
  7  2  1  0  0  0  0
  8  3  1  0  0  0  0
  9 10  1  0  0  0  0
 10 19  1  0  0  0  0
 10 11  2  0  0  0  0
 11 20  1  0  0  0  0
 12 11  1  0  0  0  0
 12 13  1  0  0  0  0
 14 13  2  0  0  0  0
 14 21  1  0  0  0  0
 15 14  1  0  0  0  0
 16 17  1  0  0  0  0
 16 15  2  0  0  0  0
 17 12  2  0  0  0  0
 18  9  2  0  0  0  0
 18 17  1  0  0  0  0
 22 15  1  0  0  0  0
 23 16  1  0  0  0  0
 24 18  1  0  0  0  0
 25 26  1  0  0  0  0
 26 32  1  0  0  0  0
 26 27  2  0  0  0  0
 27 33  1  0  0  0  0
 28 27  1  0  0  0  0
 29 28  2  0  0  0  0
 30 25  2  0  0  0  0
 30 29  1  0  0  0  0
 31 25  1  0  0  0  0
 33 40  2  0  0  0  0
 33 34  1  0  0  0  0
 34 36  2  0  0  0  0
 35 34  1  0  0  0  0
 36 38  1  0  0  0  0
 36 37  1  0  0  0  0
 39 38  2  0  0  0  0
 40 39  1  0  0  0  0
M  END
>  <minimizedAffinity>
-6.87857866

$$$$

 OpenBabel03262523073D

 40 44  0  0  0  0  0  0  0  0999 V2000
   36.2510   27.0140   32.0690 C   0  0  0  0  0  0  0  0  0  0  0  0
   35.5240   26.2940   31.1580 C   0  0  0  0  0  0  0  0  0  0  0  0
   35.6800   24.9370   31.1230 C   0  0  0  0  0  0  0  0  0  0  0  0
   36.5430   24.3200   31.9810 N   0  0  0  0  0  0  0  0  0  0  0  0
   37.2300   25.0630   32.8530 C   0  0  0  0  0  0  0  0  0  0  0  0
   37.0960   26.4030   32.9100 N   0  0  0  0  0  0  0  0  0  0  0  0
   34.8590   26.8740   30.5120 H   0  0  0  0  0  0  0  0  0  0  0  0
   35.0990   24.3750   30.3970 H   0  0  0  0  0  0  0  0  0  0  0  0
   38.1490   24.4060   33.7660 C   0  0  0  0  0  0  0  0  0  0  0  0
   39.2870   23.7740   33.3010 C   0  0  0  0  0  0  0  0  0  0  0  0
   40.2420   23.1150   34.0370 C   0  0  0  0  0  0  0  0  0  0  0  0
   39.9960   23.1090   35.4030 C   0  0  0  0  0  0  0  0  0  0  0  0
   40.9010   22.4740   36.2000 N   0  0  0  0  0  0  0  0  0  0  0  0
   40.7530   22.4110   37.5450 C   0  0  0  0  0  0  0  0  0  0  0  0
   39.6500   23.0090   38.1250 C   0  0  0  0  0  0  0  0  0  0  0  0
   38.7320   23.6530   37.3140 C   0  0  0  0  0  0  0  0  0  0  0  0
   38.8850   23.7180   35.9350 C   0  0  0  0  0  0  0  0  0  0  0  0
   37.9700   24.3590   35.1330 C   0  0  0  0  0  0  0  0  0  0  0  0
   39.4350   23.8080   32.2160 H   0  0  0  0  0  0  0  0  0  0  0  0
   41.0860   22.6600   33.5790 H   0  0  0  0  0  0  0  0  0  0  0  0
   41.4920   21.8960   38.1550 H   0  0  0  0  0  0  0  0  0  0  0  0
   39.4850   22.9860   39.1920 H   0  0  0  0  0  0  0  0  0  0  0  0
   37.8680   24.1220   37.7720 H   0  0  0  0  0  0  0  0  0  0  0  0
   37.0970   24.8360   35.5570 H   0  0  0  0  0  0  0  0  0  0  0  0
   36.4090   30.6070   31.2700 C   0  0  0  0  0  0  0  0  0  0  0  0
   35.8640   31.2100   32.3960 C   0  0  0  0  0  0  0  0  0  0  0  0
   35.4430   30.3470   33.4320 C   0  0  0  0  0  0  0  0  0  0  0  0
   35.5910   29.0130   33.2730 N   0  0  0  0  0  0  0  0  0  0  0  0
   36.1280   28.4710   32.1560 C   0  0  0  0  0  0  0  0  0  0  0  0
   36.5280   29.2850   31.1740 N   0  0  0  0  0  0  0  0  0  0  0  0
   36.7140   31.3030   30.5130 H   0  0  0  0  0  0  0  0  0  0  0  0
   35.7430   32.2550   32.5310 H   0  0  0  0  0  0  0  0  0  0  0  0
   34.8510   30.8110   34.6780 C   0  0  0  0  0  0  0  0  0  0  0  0
   35.5180   31.5710   35.6080 C   0  0  0  0  0  0  0  0  0  0  0  0
   36.5440   31.8570   35.4320 H   0  0  0  0  0  0  0  0  0  0  0  0
   34.9860   32.0250   36.7950 C   0  0  0  0  0  0  0  0  0  0  0  0
   35.5480   32.6230   37.5030 H   0  0  0  0  0  0  0  0  0  0  0  0
   33.6790   31.7030   37.0970 C   0  0  0  0  0  3  0  0  0  0  0  0
   33.0200   30.9400   36.1570 C   0  0  0  0  0  3  0  0  0  0  0  0
   33.5760   30.5240   35.0230 N   0  0  0  0  0  0  0  0  0  0  0  0
  1 29  1  0  0  0  0
  1  6  1  0  0  0  0
  2  1  2  0  0  0  0
  3  2  1  0  0  0  0
  3  4  2  0  0  0  0
  4  5  1  0  0  0  0
  5  6  2  0  0  0  0
  5  9  1  0  0  0  0
  7  2  1  0  0  0  0
  8  3  1  0  0  0  0
  9 18  1  0  0  0  0
 10  9  2  0  0  0  0
 10 11  1  0  0  0  0
 11 12  2  0  0  0  0
 12 17  1  0  0  0  0
 12 13  1  0  0  0  0
 13 14  2  0  0  0  0
 14 15  1  0  0  0  0
 14 21  1  0  0  0  0
 15 22  1  0  0  0  0
 16 23  1  0  0  0  0
 16 15  2  0  0  0  0
 17 16  1  0  0  0  0
 18 24  1  0  0  0  0
 18 17  2  0  0  0  0
 19 10  1  0  0  0  0
 20 11  1  0  0  0  0
 25 26  1  0  0  0  0
 26 32  1  0  0  0  0
 26 27  2  0  0  0  0
 27 33  1  0  0  0  0
 28 27  1  0  0  0  0
 29 28  2  0  0  0  0
 30 25  2  0  0  0  0
 30 29  1  0  0  0  0
 31 25  1  0  0  0  0
 33 40  2  0  0  0  0
 33 34  1  0  0  0  0
 34 36  2  0  0  0  0
 35 34  1  0  0  0  0
 36 38  1  0  0  0  0
 36 37  1  0  0  0  0
 39 38  2  0  0  0  0
 40 39  1  0  0  0  0
M  END
>  <minimizedAffinity>
-6.87753344

$$$$

 OpenBabel03262523073D

 40 44  0  0  0  0  0  0  0  0999 V2000
   37.8950   25.3890   34.5730 C   0  0  0  0  0  0  0  0  0  0  0  0
   38.2100   24.9170   33.3260 C   0  0  0  0  0  0  0  0  0  0  0  0
   37.8360   25.6530   32.2360 C   0  0  0  0  0  0  0  0  0  0  0  0
   37.1650   26.8300   32.3960 N   0  0  0  0  0  0  0  0  0  0  0  0
   36.8810   27.2500   33.6310 C   0  0  0  0  0  0  0  0  0  0  0  0
   37.2370   26.5460   34.7240 N   0  0  0  0  0  0  0  0  0  0  0  0
   38.7470   23.9660   33.2960 H   0  0  0  0  0  0  0  0  0  0  0  0
   38.0900   25.2700   31.2520 H   0  0  0  0  0  0  0  0  0  0  0  0
   36.1670   28.5030   33.8010 C   0  0  0  0  0  0  0  0  0  0  0  0
   35.2150   28.9120   32.8850 C   0  0  0  0  0  0  0  0  0  0  0  0
   34.4640   30.0630   32.9100 C   0  0  0  0  0  0  0  0  0  0  0  0
   34.7220   30.8790   34.0020 C   0  0  0  0  0  0  0  0  0  0  0  0
   34.0140   32.0410   34.0970 N   0  0  0  0  0  0  0  0  0  0  0  0
   34.1910   32.9070   35.1230 C   0  0  0  0  0  0  0  0  0  0  0  0
   35.1190   32.6030   36.1030 C   0  0  0  0  0  0  0  0  0  0  0  0
   35.8360   31.4250   36.0040 C   0  0  0  0  0  0  0  0  0  0  0  0
   35.6540   30.5360   34.9520 C   0  0  0  0  0  0  0  0  0  0  0  0
   36.3700   29.3660   34.8580 C   0  0  0  0  0  0  0  0  0  0  0  0
   35.0490   28.2320   32.0430 H   0  0  0  0  0  0  0  0  0  0  0  0
   33.7540   30.2840   32.1520 H   0  0  0  0  0  0  0  0  0  0  0  0
   33.6110   33.8260   35.1720 H   0  0  0  0  0  0  0  0  0  0  0  0
   35.2980   33.2610   36.9400 H   0  0  0  0  0  0  0  0  0  0  0  0
   36.5630   31.1890   36.7740 H   0  0  0  0  0  0  0  0  0  0  0  0
   37.1020   29.1010   35.6080 H   0  0  0  0  0  0  0  0  0  0  0  0
   37.8600   23.9570   37.9670 C   0  0  0  0  0  0  0  0  0  0  0  0
   39.0400   23.2260   38.0190 C   0  0  0  0  0  0  0  0  0  0  0  0
   39.8430   23.2420   36.8570 C   0  0  0  0  0  0  0  0  0  0  0  0
   39.4270   23.9510   35.7840 N   0  0  0  0  0  0  0  0  0  0  0  0
   38.2680   24.6480   35.7800 C   0  0  0  0  0  0  0  0  0  0  0  0
   37.5060   24.6360   36.8790 N   0  0  0  0  0  0  0  0  0  0  0  0
   37.2860   23.9130   38.8730 H   0  0  0  0  0  0  0  0  0  0  0  0
   39.3760   22.6660   38.8550 H   0  0  0  0  0  0  0  0  0  0  0  0
   41.1080   22.5330   36.7400 C   0  0  0  0  0  0  0  0  0  0  0  0
   42.1780   22.9870   36.0090 C   0  0  0  0  0  0  0  0  0  0  0  0
   42.1060   23.9250   35.4760 H   0  0  0  0  0  0  0  0  0  0  0  0
   43.3870   22.3400   35.8790 C   0  0  0  0  0  0  0  0  0  0  0  0
   44.2070   22.7350   35.2900 H   0  0  0  0  0  0  0  0  0  0  0  0
   43.5620   21.1350   36.5270 C   0  0  0  0  0  3  0  0  0  0  0  0
   42.4830   20.6880   37.2580 C   0  0  0  0  0  3  0  0  0  0  0  0
   41.3330   21.3490   37.3540 N   0  0  0  0  0  0  0  0  0  0  0  0
  1  6  1  0  0  0  0
  1 29  1  0  0  0  0
  2  1  2  0  0  0  0
  3  4  2  0  0  0  0
  3  2  1  0  0  0  0
  4  5  1  0  0  0  0
  5  9  1  0  0  0  0
  5  6  2  0  0  0  0
  7  2  1  0  0  0  0
  8  3  1  0  0  0  0
  9 18  1  0  0  0  0
 10 11  1  0  0  0  0
 10  9  2  0  0  0  0
 11 12  2  0  0  0  0
 12 13  1  0  0  0  0
 12 17  1  0  0  0  0
 13 14  2  0  0  0  0
 14 21  1  0  0  0  0
 14 15  1  0  0  0  0
 15 22  1  0  0  0  0
 16 15  2  0  0  0  0
 16 23  1  0  0  0  0
 17 16  1  0  0  0  0
 18 17  2  0  0  0  0
 18 24  1  0  0  0  0
 19 10  1  0  0  0  0
 20 11  1  0  0  0  0
 25 26  1  0  0  0  0
 25 31  1  0  0  0  0
 26 32  1  0  0  0  0
 27 26  2  0  0  0  0
 28 27  1  0  0  0  0
 29 28  2  0  0  0  0
 29 30  1  0  0  0  0
 30 25  2  0  0  0  0
 33 27  1  0  0  0  0
 33 40  1  0  0  0  0
 34 33  2  0  0  0  0
 35 34  1  0  0  0  0
 36 34  1  0  0  0  0
 36 38  2  0  0  0  0
 37 36  1  0  0  0  0
 38 39  1  0  0  0  0
 39 40  2  0  0  0  0
M  END
>  <minimizedAffinity>
-6.85876989

$$$$

 OpenBabel03262523073D

 40 44  0  0  0  0  0  0  0  0999 V2000
   37.1970   26.9120   32.2870 C   0  0  0  0  0  0  0  0  0  0  0  0
   37.1620   27.3250   30.9820 C   0  0  0  0  0  0  0  0  0  0  0  0
   36.5380   28.5050   30.6870 C   0  0  0  0  0  0  0  0  0  0  0  0
   35.9670   29.2490   31.6770 N   0  0  0  0  0  0  0  0  0  0  0  0
   36.0260   28.8060   32.9360 C   0  0  0  0  0  0  0  0  0  0  0  0
   36.6350   27.6470   33.2560 N   0  0  0  0  0  0  0  0  0  0  0  0
   37.6450   26.6640   30.2570 H   0  0  0  0  0  0  0  0  0  0  0  0
   36.5150   28.8240   29.6490 H   0  0  0  0  0  0  0  0  0  0  0  0
   35.4170   29.5980   33.9900 C   0  0  0  0  0  0  0  0  0  0  0  0
   36.1730   30.4650   34.7580 C   0  0  0  0  0  0  0  0  0  0  0  0
   35.7410   31.2730   35.7830 C   0  0  0  0  0  0  0  0  0  0  0  0
   34.3810   31.1770   36.0410 C   0  0  0  0  0  0  0  0  0  0  0  0
   33.8780   31.9500   37.0450 N   0  0  0  0  0  0  0  0  0  0  0  0
   32.5650   31.9300   37.3770 C   0  0  0  0  0  0  0  0  0  0  0  0
   31.7100   31.0990   36.6750 C   0  0  0  0  0  0  0  0  0  0  0  0
   32.2230   30.3150   35.6570 C   0  0  0  0  0  0  0  0  0  0  0  0
   33.5700   30.3370   35.3170 C   0  0  0  0  0  0  0  0  0  0  0  0
   34.0750   29.5560   34.3040 C   0  0  0  0  0  0  0  0  0  0  0  0
   37.2400   30.5040   34.5130 H   0  0  0  0  0  0  0  0  0  0  0  0
   36.4080   31.9070   36.3130 H   0  0  0  0  0  0  0  0  0  0  0  0
   32.1920   32.5580   38.1830 H   0  0  0  0  0  0  0  0  0  0  0  0
   30.6560   31.0460   36.9010 H   0  0  0  0  0  0  0  0  0  0  0  0
   31.5500   29.6650   35.1090 H   0  0  0  0  0  0  0  0  0  0  0  0
   33.4320   28.8960   33.7380 H   0  0  0  0  0  0  0  0  0  0  0  0
   38.9270   23.6630   32.1290 C   0  0  0  0  0  0  0  0  0  0  0  0
   39.0680   23.3090   33.4640 C   0  0  0  0  0  0  0  0  0  0  0  0
   38.5520   24.2180   34.4150 C   0  0  0  0  0  0  0  0  0  0  0  0
   37.9640   25.3550   33.9810 N   0  0  0  0  0  0  0  0  0  0  0  0
   37.8500   25.6570   32.6680 C   0  0  0  0  0  0  0  0  0  0  0  0
   38.3360   24.7980   31.7650 N   0  0  0  0  0  0  0  0  0  0  0  0
   39.3330   22.9410   31.4460 H   0  0  0  0  0  0  0  0  0  0  0  0
   39.5270   22.4200   33.8150 H   0  0  0  0  0  0  0  0  0  0  0  0
   38.6160   24.0040   35.8530 C   0  0  0  0  0  0  0  0  0  0  0  0
   37.8170   24.6550   36.7610 C   0  0  0  0  0  0  0  0  0  0  0  0
   37.0880   25.3740   36.4170 H   0  0  0  0  0  0  0  0  0  0  0  0
   37.8520   24.4740   38.1260 C   0  0  0  0  0  0  0  0  0  0  0  0
   37.2020   25.0100   38.8090 H   0  0  0  0  0  0  0  0  0  0  0  0
   38.7560   23.5730   38.6480 C   0  0  0  0  0  3  0  0  0  0  0  0
   39.5530   22.9260   37.7280 C   0  0  0  0  0  3  0  0  0  0  0  0
   39.4820   23.1320   36.4170 N   0  0  0  0  0  0  0  0  0  0  0  0
  1 29  1  0  0  0  0
  1  6  1  0  0  0  0
  2  1  2  0  0  0  0
  3  2  1  0  0  0  0
  3  4  2  0  0  0  0
  4  5  1  0  0  0  0
  5  6  2  0  0  0  0
  5  9  1  0  0  0  0
  7  2  1  0  0  0  0
  8  3  1  0  0  0  0
  9 18  2  0  0  0  0
  9 10  1  0  0  0  0
 10 11  2  0  0  0  0
 11 12  1  0  0  0  0
 11 20  1  0  0  0  0
 12 13  1  0  0  0  0
 13 14  2  0  0  0  0
 14 21  1  0  0  0  0
 15 22  1  0  0  0  0
 15 14  1  0  0  0  0
 16 15  2  0  0  0  0
 17 16  1  0  0  0  0
 17 12  2  0  0  0  0
 18 17  1  0  0  0  0
 19 10  1  0  0  0  0
 23 16  1  0  0  0  0
 24 18  1  0  0  0  0
 25 26  1  0  0  0  0
 26 32  1  0  0  0  0
 26 27  2  0  0  0  0
 27 33  1  0  0  0  0
 28 27  1  0  0  0  0
 29 28  2  0  0  0  0
 30 25  2  0  0  0  0
 30 29  1  0  0  0  0
 31 25  1  0  0  0  0
 33 40  2  0  0  0  0
 33 34  1  0  0  0  0
 34 36  2  0  0  0  0
 35 34  1  0  0  0  0
 36 38  1  0  0  0  0
 36 37  1  0  0  0  0
 39 38  2  0  0  0  0
 40 39  1  0  0  0  0
M  END
>  <minimizedAffinity>
-6.82300997

$$$$

 OpenBabel03262523073D

 40 44  0  0  0  0  0  0  0  0999 V2000
   35.8560   28.8520   33.6840 C   0  0  0  0  0  0  0  0  0  0  0  0
   35.9040   28.8630   32.3150 C   0  0  0  0  0  0  0  0  0  0  0  0
   36.6450   27.9070   31.6790 C   0  0  0  0  0  0  0  0  0  0  0  0
   37.3190   26.9650   32.4000 N   0  0  0  0  0  0  0  0  0  0  0  0
   37.2430   26.9940   33.7330 C   0  0  0  0  0  0  0  0  0  0  0  0
   36.5200   27.9250   34.3860 N   0  0  0  0  0  0  0  0  0  0  0  0
   35.3330   29.6550   31.8230 H   0  0  0  0  0  0  0  0  0  0  0  0
   36.6760   27.9240   30.5940 H   0  0  0  0  0  0  0  0  0  0  0  0
   37.9610   25.9910   34.5000 C   0  0  0  0  0  0  0  0  0  0  0  0
   39.0270   25.3030   33.9530 C   0  0  0  0  0  0  0  0  0  0  0  0
   39.7970   24.3340   34.5510 C   0  0  0  0  0  0  0  0  0  0  0  0
   39.4270   24.0450   35.8560 C   0  0  0  0  0  0  0  0  0  0  0  0
   40.1450   23.0930   36.5170 N   0  0  0  0  0  0  0  0  0  0  0  0
   39.8630   22.7380   37.7930 C   0  0  0  0  0  0  0  0  0  0  0  0
   38.8150   23.3610   38.4450 C   0  0  0  0  0  0  0  0  0  0  0  0
   38.0870   24.3260   37.7730 C   0  0  0  0  0  0  0  0  0  0  0  0
   38.3760   24.6900   36.4640 C   0  0  0  0  0  0  0  0  0  0  0  0
   37.6500   25.6510   35.8010 C   0  0  0  0  0  0  0  0  0  0  0  0
   39.2800   25.5680   32.9210 H   0  0  0  0  0  0  0  0  0  0  0  0
   40.6010   23.8630   34.0390 H   0  0  0  0  0  0  0  0  0  0  0  0
   40.4550   21.9740   38.2940 H   0  0  0  0  0  0  0  0  0  0  0  0
   38.5500   23.1130   39.4620 H   0  0  0  0  0  0  0  0  0  0  0  0
   37.2660   24.8130   38.2870 H   0  0  0  0  0  0  0  0  0  0  0  0
   36.8240   26.1550   36.2830 H   0  0  0  0  0  0  0  0  0  0  0  0
   33.1460   30.5320   35.5290 C   0  0  0  0  0  0  0  0  0  0  0  0
   33.6780   31.7840   35.8110 C   0  0  0  0  0  0  0  0  0  0  0  0
   34.9890   32.0300   35.3480 C   0  0  0  0  0  0  0  0  0  0  0  0
   35.6390   31.0560   34.6730 N   0  0  0  0  0  0  0  0  0  0  0  0
   35.0800   29.8500   34.4230 C   0  0  0  0  0  0  0  0  0  0  0  0
   33.8370   29.6140   34.8590 N   0  0  0  0  0  0  0  0  0  0  0  0
   32.1490   30.3940   35.9000 H   0  0  0  0  0  0  0  0  0  0  0  0
   33.1770   32.5560   36.3390 H   0  0  0  0  0  0  0  0  0  0  0  0
   35.6970   33.2850   35.5560 C   0  0  0  0  0  0  0  0  0  0  0  0
   35.1250   34.4050   36.1080 C   0  0  0  0  0  0  0  0  0  0  0  0
   34.0890   34.3840   36.4150 H   0  0  0  0  0  0  0  0  0  0  0  0
   35.7670   35.6060   36.3180 C   0  0  0  0  0  0  0  0  0  0  0  0
   35.2770   36.4680   36.7570 H   0  0  0  0  0  0  0  0  0  0  0  0
   37.0920   35.7170   35.9530 C   0  0  0  0  0  3  0  0  0  0  0  0
   37.6550   34.5870   35.4000 C   0  0  0  0  0  3  0  0  0  0  0  0
   36.9950   33.4480   35.2160 N   0  0  0  0  0  0  0  0  0  0  0  0
  1  6  1  0  0  0  0
  1 29  1  0  0  0  0
  2  1  2  0  0  0  0
  3  2  1  0  0  0  0
  3  4  2  0  0  0  0
  4  5  1  0  0  0  0
  5  6  2  0  0  0  0
  5  9  1  0  0  0  0
  7  2  1  0  0  0  0
  8  3  1  0  0  0  0
  9 18  1  0  0  0  0
 10  9  2  0  0  0  0
 10 11  1  0  0  0  0
 11 12  2  0  0  0  0
 12 17  1  0  0  0  0
 12 13  1  0  0  0  0
 13 14  2  0  0  0  0
 14 21  1  0  0  0  0
 14 15  1  0  0  0  0
 15 22  1  0  0  0  0
 16 23  1  0  0  0  0
 16 15  2  0  0  0  0
 17 16  1  0  0  0  0
 18 24  1  0  0  0  0
 18 17  2  0  0  0  0
 19 10  1  0  0  0  0
 20 11  1  0  0  0  0
 25 26  1  0  0  0  0
 25 31  1  0  0  0  0
 26 32  1  0  0  0  0
 27 33  1  0  0  0  0
 27 26  2  0  0  0  0
 28 27  1  0  0  0  0
 29 28  2  0  0  0  0
 29 30  1  0  0  0  0
 30 25  2  0  0  0  0
 33 34  1  0  0  0  0
 34 36  2  0  0  0  0
 34 35  1  0  0  0  0
 36 37  1  0  0  0  0
 38 36  1  0  0  0  0
 39 38  2  0  0  0  0
 40 39  1  0  0  0  0
 40 33  2  0  0  0  0
M  END
>  <minimizedAffinity>
-6.75549793

$$$$

 OpenBabel03262523073D

 40 44  0  0  0  0  0  0  0  0999 V2000
   37.0890   26.8110   32.3340 C   0  0  0  0  0  0  0  0  0  0  0  0
   37.2280   27.2040   31.0290 C   0  0  0  0  0  0  0  0  0  0  0  0
   36.6450   28.3760   30.6330 C   0  0  0  0  0  0  0  0  0  0  0  0
   35.9420   29.1310   31.5250 N   0  0  0  0  0  0  0  0  0  0  0  0
   35.8340   28.7080   32.7880 C   0  0  0  0  0  0  0  0  0  0  0  0
   36.3970   27.5580   33.2050 N   0  0  0  0  0  0  0  0  0  0  0  0
   37.8070   26.5350   30.3870 H   0  0  0  0  0  0  0  0  0  0  0  0
   36.7610   28.6780   29.5970 H   0  0  0  0  0  0  0  0  0  0  0  0
   35.0850   29.5130   33.7370 C   0  0  0  0  0  0  0  0  0  0  0  0
   33.7100   29.4070   33.8340 C   0  0  0  0  0  0  0  0  0  0  0  0
   32.8710   30.0970   34.6760 C   0  0  0  0  0  0  0  0  0  0  0  0
   33.5240   30.9930   35.5120 C   0  0  0  0  0  0  0  0  0  0  0  0
   32.7580   31.7150   36.3780 N   0  0  0  0  0  0  0  0  0  0  0  0
   33.2980   32.6160   37.2340 C   0  0  0  0  0  0  0  0  0  0  0  0
   34.6670   32.8070   37.2270 C   0  0  0  0  0  0  0  0  0  0  0  0
   35.4430   32.0740   36.3470 C   0  0  0  0  0  0  0  0  0  0  0  0
   34.8890   31.1500   35.4700 C   0  0  0  0  0  0  0  0  0  0  0  0
   35.6640   30.4230   34.5970 C   0  0  0  0  0  0  0  0  0  0  0  0
   33.2430   28.6860   33.1540 H   0  0  0  0  0  0  0  0  0  0  0  0
   31.8210   29.9400   34.6720 H   0  0  0  0  0  0  0  0  0  0  0  0
   32.6610   33.1770   37.9140 H   0  0  0  0  0  0  0  0  0  0  0  0
   35.1460   33.5130   37.8890 H   0  0  0  0  0  0  0  0  0  0  0  0
   36.5160   32.2260   36.3450 H   0  0  0  0  0  0  0  0  0  0  0  0
   36.7370   30.5510   34.5680 H   0  0  0  0  0  0  0  0  0  0  0  0
   39.3710   24.4030   33.9340 C   0  0  0  0  0  0  0  0  0  0  0  0
   38.7600   23.1780   33.7010 C   0  0  0  0  0  0  0  0  0  0  0  0
   37.5460   23.2070   32.9800 C   0  0  0  0  0  0  0  0  0  0  0  0
   37.0580   24.3980   32.5670 N   0  0  0  0  0  0  0  0  0  0  0  0
   37.6890   25.5670   32.8190 C   0  0  0  0  0  0  0  0  0  0  0  0
   38.8400   25.5430   33.5010 N   0  0  0  0  0  0  0  0  0  0  0  0
   40.2900   24.3290   34.4850 H   0  0  0  0  0  0  0  0  0  0  0  0
   39.1340   22.2380   34.0200 H   0  0  0  0  0  0  0  0  0  0  0  0
   36.7760   22.0170   32.6480 C   0  0  0  0  0  0  0  0  0  0  0  0
   36.3020   21.1260   33.5800 C   0  0  0  0  0  0  0  0  0  0  0  0
   36.4970   21.2910   34.6300 H   0  0  0  0  0  0  0  0  0  0  0  0
   35.5710   19.9930   33.2990 C   0  0  0  0  0  0  0  0  0  0  0  0
   35.2150   19.3150   34.0660 H   0  0  0  0  0  0  0  0  0  0  0  0
   35.2780   19.7080   31.9820 C   0  0  0  0  0  3  0  0  0  0  0  0
   35.7590   20.6090   31.0550 C   0  0  0  0  0  3  0  0  0  0  0  0
   36.4620   21.6910   31.3740 N   0  0  0  0  0  0  0  0  0  0  0  0
  1 29  1  0  0  0  0
  1  6  1  0  0  0  0
  2  1  2  0  0  0  0
  3  2  1  0  0  0  0
  3  4  2  0  0  0  0
  4  5  1  0  0  0  0
  5  6  2  0  0  0  0
  5  9  1  0  0  0  0
  7  2  1  0  0  0  0
  8  3  1  0  0  0  0
  9 10  2  0  0  0  0
  9 18  1  0  0  0  0
 10 11  1  0  0  0  0
 11 12  2  0  0  0  0
 12 13  1  0  0  0  0
 13 14  2  0  0  0  0
 14 21  1  0  0  0  0
 15 14  1  0  0  0  0
 15 22  1  0  0  0  0
 16 15  2  0  0  0  0
 17 12  1  0  0  0  0
 17 16  1  0  0  0  0
 18 17  2  0  0  0  0
 19 10  1  0  0  0  0
 20 11  1  0  0  0  0
 23 16  1  0  0  0  0
 24 18  1  0  0  0  0
 25 31  1  0  0  0  0
 26 25  1  0  0  0  0
 26 32  1  0  0  0  0
 27 26  2  0  0  0  0
 28 29  2  0  0  0  0
 28 27  1  0  0  0  0
 29 30  1  0  0  0  0
 30 25  2  0  0  0  0
 33 27  1  0  0  0  0
 33 34  1  0  0  0  0
 34 35  1  0  0  0  0
 36 34  2  0  0  0  0
 36 37  1  0  0  0  0
 38 36  1  0  0  0  0
 39 40  1  0  0  0  0
 39 38  2  0  0  0  0
 40 33  2  0  0  0  0
M  END
>  <minimizedAffinity>
-6.72405672

$$$$

 OpenBabel03262523073D

 40 44  0  0  0  0  0  0  0  0999 V2000
   37.5330   26.6000   33.7230 C   0  0  0  0  0  0  0  0  0  0  0  0
   38.4940   26.6790   34.6970 C   0  0  0  0  0  0  0  0  0  0  0  0
   39.1400   25.5340   35.0730 C   0  0  0  0  0  0  0  0  0  0  0  0
   38.8290   24.3430   34.4850 N   0  0  0  0  0  0  0  0  0  0  0  0
   37.8860   24.3140   33.5390 C   0  0  0  0  0  0  0  0  0  0  0  0
   37.2330   25.4270   33.1490 N   0  0  0  0  0  0  0  0  0  0  0  0
   38.6750   27.6740   35.1110 H   0  0  0  0  0  0  0  0  0  0  0  0
   39.8990   25.6070   35.8450 H   0  0  0  0  0  0  0  0  0  0  0  0
   37.5550   23.0460   32.9130 C   0  0  0  0  0  0  0  0  0  0  0  0
   38.0410   22.7200   31.6610 C   0  0  0  0  0  0  0  0  0  0  0  0
   37.8170   21.5670   30.9470 C   0  0  0  0  0  0  0  0  0  0  0  0
   37.0020   20.6510   31.5970 C   0  0  0  0  0  0  0  0  0  0  0  0
   36.7330   19.4810   30.9500 N   0  0  0  0  0  0  0  0  0  0  0  0
   35.9490   18.5220   31.4980 C   0  0  0  0  0  0  0  0  0  0  0  0
   35.4060   18.7380   32.7510 C   0  0  0  0  0  0  0  0  0  0  0  0
   35.6790   19.9260   33.4050 C   0  0  0  0  0  0  0  0  0  0  0  0
   36.4830   20.9090   32.8430 C   0  0  0  0  0  0  0  0  0  0  0  0
   36.7520   22.0880   33.4980 C   0  0  0  0  0  0  0  0  0  0  0  0
   38.6800   23.4760   31.1920 H   0  0  0  0  0  0  0  0  0  0  0  0
   38.2410   21.4140   29.9850 H   0  0  0  0  0  0  0  0  0  0  0  0
   35.7530   17.5990   30.9580 H   0  0  0  0  0  0  0  0  0  0  0  0
   34.7730   18.0050   33.2310 H   0  0  0  0  0  0  0  0  0  0  0  0
   35.2510   20.0910   34.3880 H   0  0  0  0  0  0  0  0  0  0  0  0
   36.3410   22.2860   34.4780 H   0  0  0  0  0  0  0  0  0  0  0  0
   36.0490   29.2190   31.6010 C   0  0  0  0  0  0  0  0  0  0  0  0
   35.4180   30.0530   32.5140 C   0  0  0  0  0  0  0  0  0  0  0  0
   35.5200   29.6880   33.8750 C   0  0  0  0  0  0  0  0  0  0  0  0
   36.2090   28.5730   34.2040 N   0  0  0  0  0  0  0  0  0  0  0  0
   36.8060   27.7900   33.2770 C   0  0  0  0  0  0  0  0  0  0  0  0
   36.7130   28.1330   31.9880 N   0  0  0  0  0  0  0  0  0  0  0  0
   35.9430   29.5380   30.5810 H   0  0  0  0  0  0  0  0  0  0  0  0
   34.8750   30.9300   32.2670 H   0  0  0  0  0  0  0  0  0  0  0  0
   34.9200   30.4480   34.9610 C   0  0  0  0  0  0  0  0  0  0  0  0
   35.6130   31.3280   35.7560 C   0  0  0  0  0  0  0  0  0  0  0  0
   36.6690   31.4860   35.5890 H   0  0  0  0  0  0  0  0  0  0  0  0
   35.0740   32.0620   36.7910 C   0  0  0  0  0  0  0  0  0  0  0  0
   35.6590   32.7460   37.3950 H   0  0  0  0  0  0  0  0  0  0  0  0
   33.7320   31.9180   37.0710 C   0  0  0  0  0  3  0  0  0  0  0  0
   33.0460   31.0330   36.2670 C   0  0  0  0  0  3  0  0  0  0  0  0
   33.6090   30.3460   35.2780 N   0  0  0  0  0  0  0  0  0  0  0  0
  1  2  1  0  0  0  0
  2  3  2  0  0  0  0
  2  7  1  0  0  0  0
  3  8  1  0  0  0  0
  4  3  1  0  0  0  0
  5  4  2  0  0  0  0
  6  5  1  0  0  0  0
  6  1  2  0  0  0  0
  9 18  1  0  0  0  0
  9  5  1  0  0  0  0
 10  9  2  0  0  0  0
 11 12  2  0  0  0  0
 11 10  1  0  0  0  0
 12 17  1  0  0  0  0
 13 14  2  0  0  0  0
 13 12  1  0  0  0  0
 14 15  1  0  0  0  0
 15 22  1  0  0  0  0
 15 16  2  0  0  0  0
 16 23  1  0  0  0  0
 17 16  1  0  0  0  0
 17 18  2  0  0  0  0
 18 24  1  0  0  0  0
 19 10  1  0  0  0  0
 20 11  1  0  0  0  0
 21 14  1  0  0  0  0
 25 30  2  0  0  0  0
 25 26  1  0  0  0  0
 26 27  2  0  0  0  0
 27 28  1  0  0  0  0
 27 33  1  0  0  0  0
 29  1  1  0  0  0  0
 29 28  2  0  0  0  0
 30 29  1  0  0  0  0
 31 25  1  0  0  0  0
 32 26  1  0  0  0  0
 33 40  2  0  0  0  0
 33 34  1  0  0  0  0
 34 36  2  0  0  0  0
 35 34  1  0  0  0  0
 36 38  1  0  0  0  0
 36 37  1  0  0  0  0
 39 38  2  0  0  0  0
 40 39  1  0  0  0  0
M  END
>  <minimizedAffinity>
-6.62650394

$$$$

 OpenBabel03262523073D

 40 44  0  0  0  0  0  0  0  0999 V2000
   35.9110   28.5390   32.8230 C   0  0  0  0  0  0  0  0  0  0  0  0
   36.5500   28.9090   31.6700 C   0  0  0  0  0  0  0  0  0  0  0  0
   37.7520   28.3300   31.3730 C   0  0  0  0  0  0  0  0  0  0  0  0
   38.2960   27.4030   32.2130 N   0  0  0  0  0  0  0  0  0  0  0  0
   37.6360   27.0720   33.3260 C   0  0  0  0  0  0  0  0  0  0  0  0
   36.4500   27.6270   33.6440 N   0  0  0  0  0  0  0  0  0  0  0  0
   36.0390   29.6590   31.0600 H   0  0  0  0  0  0  0  0  0  0  0  0
   38.2500   28.6310   30.4560 H   0  0  0  0  0  0  0  0  0  0  0  0
   38.2160   26.0840   34.2200 C   0  0  0  0  0  0  0  0  0  0  0  0
   39.3210   25.3440   33.8450 C   0  0  0  0  0  0  0  0  0  0  0  0
   39.9750   24.3820   34.5760 C   0  0  0  0  0  0  0  0  0  0  0  0
   39.4290   24.1610   35.8320 C   0  0  0  0  0  0  0  0  0  0  0  0
   40.0250   23.2190   36.6180 N   0  0  0  0  0  0  0  0  0  0  0  0
   39.5680   22.9280   37.8600 C   0  0  0  0  0  0  0  0  0  0  0  0
   38.4650   23.6070   38.3430 C   0  0  0  0  0  0  0  0  0  0  0  0
   37.8620   24.5610   37.5440 C   0  0  0  0  0  0  0  0  0  0  0  0
   38.3300   24.8600   36.2710 C   0  0  0  0  0  0  0  0  0  0  0  0
   37.7280   25.8100   35.4810 C   0  0  0  0  0  0  0  0  0  0  0  0
   39.7140   25.5580   32.8450 H   0  0  0  0  0  0  0  0  0  0  0  0
   40.8230   23.8680   34.1930 H   0  0  0  0  0  0  0  0  0  0  0  0
   40.0650   22.1710   38.4640 H   0  0  0  0  0  0  0  0  0  0  0  0
   38.0620   23.4100   39.3260 H   0  0  0  0  0  0  0  0  0  0  0  0
   36.9970   25.0920   37.9270 H   0  0  0  0  0  0  0  0  0  0  0  0
   36.8630   26.3570   35.8310 H   0  0  0  0  0  0  0  0  0  0  0  0
   32.3080   29.2920   32.9770 C   0  0  0  0  0  0  0  0  0  0  0  0
   32.2270   30.2740   33.9550 C   0  0  0  0  0  0  0  0  0  0  0  0
   33.4430   30.6660   34.5560 C   0  0  0  0  0  0  0  0  0  0  0  0
   34.5920   30.0780   34.1550 N   0  0  0  0  0  0  0  0  0  0  0  0
   34.6210   29.1230   33.1970 C   0  0  0  0  0  0  0  0  0  0  0  0
   33.4710   28.7490   32.6250 N   0  0  0  0  0  0  0  0  0  0  0  0
   31.3590   29.0280   32.5510 H   0  0  0  0  0  0  0  0  0  0  0  0
   31.3320   30.7420   34.2780 H   0  0  0  0  0  0  0  0  0  0  0  0
   33.5400   31.6800   35.5960 C   0  0  0  0  0  0  0  0  0  0  0  0
   34.6960   31.9720   36.2780 C   0  0  0  0  0  0  0  0  0  0  0  0
   35.6040   31.4330   36.0510 H   0  0  0  0  0  0  0  0  0  0  0  0
   34.8190   32.9240   37.2660 C   0  0  0  0  0  0  0  0  0  0  0  0
   35.7530   33.1230   37.7800 H   0  0  0  0  0  0  0  0  0  0  0  0
   33.7050   33.6570   37.6170 C   0  0  0  0  0  3  0  0  0  0  0  0
   32.5510   33.3560   36.9270 C   0  0  0  0  0  3  0  0  0  0  0  0
   32.4790   32.4260   35.9790 N   0  0  0  0  0  0  0  0  0  0  0  0
  1 29  1  0  0  0  0
  1  6  1  0  0  0  0
  2  1  2  0  0  0  0
  3  2  1  0  0  0  0
  3  4  2  0  0  0  0
  4  5  1  0  0  0  0
  5  6  2  0  0  0  0
  5  9  1  0  0  0  0
  7  2  1  0  0  0  0
  8  3  1  0  0  0  0
  9 18  1  0  0  0  0
 10  9  2  0  0  0  0
 10 11  1  0  0  0  0
 11 12  2  0  0  0  0
 12 17  1  0  0  0  0
 12 13  1  0  0  0  0
 13 14  2  0  0  0  0
 14 15  1  0  0  0  0
 14 21  1  0  0  0  0
 15 22  1  0  0  0  0
 16 23  1  0  0  0  0
 16 15  2  0  0  0  0
 17 16  1  0  0  0  0
 18 24  1  0  0  0  0
 18 17  2  0  0  0  0
 19 10  1  0  0  0  0
 20 11  1  0  0  0  0
 25 26  1  0  0  0  0
 26 32  1  0  0  0  0
 26 27  2  0  0  0  0
 27 33  1  0  0  0  0
 28 27  1  0  0  0  0
 29 28  2  0  0  0  0
 30 25  2  0  0  0  0
 30 29  1  0  0  0  0
 31 25  1  0  0  0  0
 33 40  2  0  0  0  0
 33 34  1  0  0  0  0
 34 36  2  0  0  0  0
 35 34  1  0  0  0  0
 36 38  1  0  0  0  0
 36 37  1  0  0  0  0
 39 38  2  0  0  0  0
 40 39  1  0  0  0  0
M  END
>  <minimizedAffinity>
-6.51533604

$$$$
