REMARK  Name = 
REMARK  3 active torsions:
REMARK  status: ('A' for Active; 'I' for Inactive)
REMARK    1  A    between atoms: C_3  and  C_12
REMARK    2  A    between atoms: C_5  and  C_14
REMARK    3  A    between atoms: C_18  and  C_28
REMARK                            x       y       z     vdW  Elec       q    Type
REMARK                         _______ _______ _______ _____ _____    ______ ____
ROOT
ATOM      1 BR   UNL     1      37.313  29.332  51.028  0.00  0.00    +0.000 Br
ATOM      2  C   UNL     1      35.962  29.329  49.676  0.00  0.00    +0.000 A 
ATOM      3  C   UNL     1      35.994  30.252  48.640  0.00  0.00    +0.000 A 
ATOM      4  C   UNL     1      34.989  30.189  47.703  0.00  0.00    +0.000 A 
ATOM      5  C   UNL     1      33.963  29.262  47.747  0.00  0.00    +0.000 A 
ATOM      6  C   UNL     1      33.966  28.375  48.777  0.00  0.00    +0.000 A 
ATOM      7  C   UNL     1      34.960  28.413  49.731  0.00  0.00    +0.000 A 
ATOM      8  H   UNL     1      34.961  30.888  46.866  0.00  0.00    +0.000 HD
ATOM      9  H   UNL     1      33.199  27.602  48.902  0.00  0.00    +0.000 HD
ATOM     10  H   UNL     1      34.952  27.696  50.552  0.00  0.00    +0.000 HD
ENDROOT
BRANCH   3  15
ATOM     11  C   UNL     1      37.985  33.200  49.462  0.00  0.00    +0.000 A 
ATOM     12  C   UNL     1      39.017  33.177  48.477  0.00  0.00    +0.000 A 
ATOM     13  C   UNL     1      39.005  32.154  47.558  0.00  0.00    +0.000 A 
ATOM     14  N   UNL     1      38.016  31.202  47.616  0.00  0.00    +0.000 NA
ATOM     15  C   UNL     1      37.058  31.248  48.553  0.00  0.00    +0.000 A 
ATOM     16  N   UNL     1      37.053  32.247  49.466  0.00  0.00    +0.000 NA
ATOM     17  H   UNL     1      37.976  33.996  50.194  0.00  0.00    +0.000 HD
ATOM     18  H   UNL     1      39.777  33.952  48.473  0.00  0.00    +0.000 HD
ATOM     19  H   UNL     1      39.763  32.084  46.787  0.00  0.00    +0.000 HD
ENDBRANCH   3  15
BRANCH   5  20
ATOM     20  C   UNL     1      32.905  29.196  46.762  0.00  0.00    +0.000 A 
ATOM     21  C   UNL     1      32.260  28.043  46.371  0.00  0.00    +0.000 A 
ATOM     22  C   UNL     1      31.248  28.034  45.417  0.00  0.00    +0.000 A 
ATOM     23  N   UNL     1      30.866  29.185  44.840  0.00  0.00    +0.000 NA
ATOM     24  C   UNL     1      31.488  30.309  45.214  0.00  0.00    +0.000 A 
ATOM     25  N   UNL     1      32.465  30.301  46.137  0.00  0.00    +0.000 NA
ATOM     26  H   UNL     1      32.566  27.101  46.838  0.00  0.00    +0.000 HD
ATOM     27  H   UNL     1      30.754  27.113  45.126  0.00  0.00    +0.000 HD
BRANCH  24  28
ATOM     28  C   UNL     1      31.099  31.578  44.606  0.00  0.00    +0.000 A 
ATOM     29  C   UNL     1      31.902  32.697  44.726  0.00  0.00    +0.000 A 
ATOM     30  H   UNL     1      32.814  32.555  45.291  0.00  0.00    +0.000 HD
ATOM     31  C   UNL     1      31.509  33.886  44.141  0.00  0.00    +0.000 A 
ATOM     32  H   UNL     1      32.236  34.672  44.318  0.00  0.00    +0.000 HD
ATOM     33  C   UNL     1      30.336  33.986  43.440  0.00  0.00    +0.000 A 
ATOM     34  C   UNL     1      29.566  32.854  43.343  0.00  0.00    +0.000 A 
ATOM     35  N   UNL     1      29.945  31.683  43.915  0.00  0.00    +0.000 NA
ENDBRANCH  24  28
ENDBRANCH   5  20
TORSDOF 3
