
 OpenBabel03272510063D

 29 31  0  0  0  0  0  0  0  0999 V2000
   35.0600   29.7160   49.1280 C   0  0  0  0  0  0  0  0  0  0  0  0
   35.6470   30.3270   48.0170 C   0  0  0  0  0  0  0  0  0  0  0  0
   35.0890   30.0370   46.7720 C   0  0  0  0  0  0  0  0  0  0  0  0
   34.0290   29.1950   46.7080 N   0  0  0  0  0  0  0  0  0  0  0  0
   33.4910   28.6260   47.7980 C   0  0  0  0  0  0  0  0  0  0  0  0
   33.9910   28.8730   49.0100 N   0  0  0  0  0  0  0  0  0  0  0  0
   32.3670   27.7470   47.6240 N   0  0  0  0  0  0  0  0  0  0  0  0
   31.1090   28.1620   47.0430 C   0  0  0  0  0  0  0  0  0  0  0  0
   30.3540   26.8910   46.8520 C   0  0  0  0  0  0  0  0  0  0  0  0
   31.3270   25.7610   47.0940 C   0  0  0  0  0  0  0  0  0  0  0  0
   32.3540   26.3410   48.0080 C   0  0  0  0  0  0  0  0  0  0  0  0
   35.4160   29.8720   50.1470 H   0  0  0  0  0  0  0  0  0  0  0  0
   35.5330   30.5030   45.9060 H   0  0  0  0  0  0  0  0  0  0  0  0
   30.6010   28.8480   47.7740 H   0  0  0  0  0  0  0  0  0  0  0  0
   31.2230   28.7690   46.1240 H   0  0  0  0  0  0  0  0  0  0  0  0
   29.4480   26.8040   47.4810 H   0  0  0  0  0  0  0  0  0  0  0  0
   30.0380   26.8360   45.7730 H   0  0  0  0  0  0  0  0  0  0  0  0
   31.7070   25.3150   46.1730 H   0  0  0  0  0  0  0  0  0  0  0  0
   30.7760   24.9880   47.6660 H   0  0  0  0  0  0  0  0  0  0  0  0
   33.3490   25.9450   47.6970 H   0  0  0  0  0  0  0  0  0  0  0  0
   32.1660   26.2170   49.0730 H   0  0  0  0  0  0  0  0  0  0  0  0
   36.7800   31.2080   48.2350 C   0  0  0  0  0  0  0  0  0  0  0  0
   37.0610   31.7780   49.4550 C   0  0  0  0  0  0  0  0  0  0  0  0
   36.4410   31.5890   50.3100 H   0  0  0  0  0  0  0  0  0  0  0  0
   38.1360   32.6180   49.6750 C   0  0  0  0  0  0  0  0  0  0  0  0
   38.3550   33.0650   50.6360 H   0  0  0  0  0  0  0  0  0  0  0  0
   38.9470   32.8670   48.5650 C   0  0  0  0  0  0  0  0  0  0  0  0
   38.6380   32.2780   47.3490 C   0  0  0  0  0  0  0  0  0  0  0  0
   37.5690   31.4570   47.1790 N   0  0  0  0  0  0  0  0  0  0  0  0
  1 12  1  0  0  0  0
  2 22  1  0  0  0  0
  2  1  2  0  0  0  0
  3  2  1  0  0  0  0
  4  3  2  0  0  0  0
  4  5  1  0  0  0  0
  5  6  2  0  0  0  0
  6  1  1  0  0  0  0
  7  5  1  0  0  0  0
  7 11  1  0  0  0  0
  8  7  1  0  0  0  0
  8 14  1  0  0  0  0
  9  8  1  0  0  0  0
  9 10  1  0  0  0  0
  9 16  1  0  0  0  0
 10 19  1  0  0  0  0
 10 11  1  0  0  0  0
 11 21  1  0  0  0  0
 13  3  1  0  0  0  0
 15  8  1  0  0  0  0
 17  9  1  0  0  0  0
 18 10  1  0  0  0  0
 20 11  1  0  0  0  0
 22 23  1  0  0  0  0
 23 25  2  0  0  0  0
 23 24  1  0  0  0  0
 25 26  1  0  0  0  0
 27 25  1  0  0  0  0
 28 27  2  0  0  0  0
 29 28  1  0  0  0  0
 29 22  2  0  0  0  0
M  END
>  <minimizedAffinity>
-4.9641881

>  <minimizedRMSD>
4.47016335

$$$$
