
 OpenBabel03272508113D

 33 35  0  0  0  0  0  0  0  0999 V2000
   36.6520   29.5210   44.0470 Cl  0  0  0  0  0  0  0  0  0  0  0  0
   38.2940   29.8810   43.4800 C   0  0  0  0  0  0  0  0  0  0  0  0
   39.3050   30.3470   44.3210 C   0  0  0  0  0  0  0  0  0  0  0  0
   40.5460   30.5900   43.7570 C   0  0  0  0  0  0  0  0  0  0  0  0
   40.7740   30.3810   42.4230 C   0  0  0  0  0  0  0  0  0  0  0  0
   39.7970   29.9290   41.6010 C   0  0  0  0  0  0  0  0  0  0  0  0
   38.5690   29.6810   42.1250 C   0  0  0  0  0  0  0  0  0  0  0  0
   41.2750   30.9500   44.4810 H   0  0  0  0  0  0  0  0  0  0  0  0
   41.7950   30.6190   42.1440 H   0  0  0  0  0  0  0  0  0  0  0  0
   40.0740   29.7980   40.5740 H   0  0  0  0  0  0  0  0  0  0  0  0
   37.4900   29.1940   41.2740 C   0  0  0  0  0  0  0  0  0  0  0  0
   36.6330   30.0200   40.5850 C   0  0  0  0  0  0  0  0  0  0  0  0
   36.7260   31.0740   40.6460 H   0  0  0  0  0  0  0  0  0  0  0  0
   35.6080   29.5740   39.7780 C   0  0  0  0  0  0  0  0  0  0  0  0
   34.9500   30.2620   39.2480 H   0  0  0  0  0  0  0  0  0  0  0  0
   35.4040   28.2170   39.6320 C   0  0  0  0  0  0  0  0  0  0  0  0
   36.2640   27.3910   40.3230 C   0  0  0  0  0  0  0  0  0  0  0  0
   37.2500   27.8790   41.0980 N   0  0  0  0  0  0  0  0  0  0  0  0
   38.8910   30.4940   45.6190 O   0  0  0  0  0  0  0  0  0  0  0  0
   39.4650   32.5070   47.1250 O   0  0  0  0  0  0  0  0  0  0  0  0
   38.3370   31.8510   46.4180 P   0  0  1  0  0  0  0  0  0  0  0  0
   37.7470   32.8790   45.1800 O   0  0  0  0  0  0  0  0  0  0  0  0
   38.3960   33.6150   45.0110 H   0  0  0  0  0  0  0  0  0  0  0  0
   37.0600   31.4140   47.4380 O   0  0  0  0  0  0  0  0  0  0  0  0
   37.6090   30.5270   50.9820 C   0  0  0  0  0  0  0  0  0  0  0  0
   37.7160   31.3080   49.8090 C   0  0  0  0  0  0  0  0  0  0  0  0
   37.0930   30.8500   48.6490 C   0  0  0  0  0  0  0  0  0  0  0  0
   36.4110   29.6590   48.7200 N   0  0  0  0  0  0  0  0  0  0  0  0
   36.3350   28.9500   49.8550 C   0  0  0  0  0  0  0  0  0  0  0  0
   36.9330   29.3830   50.9830 N   0  0  0  0  0  0  0  0  0  0  0  0
   38.1220   30.9600   51.8310 H   0  0  0  0  0  0  0  0  0  0  0  0
   38.2230   32.2300   49.6810 H   0  0  0  0  0  0  0  0  0  0  0  0
   35.7930   28.0090   49.9050 H   0  0  0  0  0  0  0  0  0  0  0  0
  2  1  1  0  0  0  0
  2  3  1  0  0  0  0
  3 19  1  0  0  0  0
  4  3  2  0  0  0  0
  4  8  1  0  0  0  0
  5  4  1  0  0  0  0
  6  7  1  0  0  0  0
  6  5  2  0  0  0  0
  7  2  2  0  0  0  0
  9  5  1  0  0  0  0
 10  6  1  0  0  0  0
 11  7  1  0  0  0  0
 12 13  1  0  0  0  0
 12 11  2  0  0  0  0
 14 12  1  0  0  0  0
 15 14  1  0  0  0  0
 16 14  2  0  0  0  0
 16 17  1  0  0  0  0
 17 18  2  0  0  0  0
 18 11  1  0  0  0  0
 19 21  1  0  0  0  0
 21 20  2  1  0  0  0
 21 24  1  0  0  0  0
 22 21  1  0  0  0  0
 23 22  1  0  0  0  0
 24 27  1  0  0  0  0
 25 30  1  0  0  0  0
 25 31  1  0  0  0  0
 26 25  2  0  0  0  0
 27 28  2  0  0  0  0
 27 26  1  0  0  0  0
 28 29  1  0  0  0  0
 29 33  1  0  0  0  0
 29 30  2  0  0  0  0
 32 26  1  0  0  0  0
M  END
>  <minimizedAffinity>
-4.82843971

>  <minimizedRMSD>
0.680777311

$$$$
