
 OpenBabel03272509213D

 45 49  0  0  0  0  0  0  0  0999 V2000
   37.9820   31.2760   47.7710 C   0  0  0  0  0  0  0  0  0  0  0  0
   37.0660   31.2970   48.8070 C   0  0  0  0  0  0  0  0  0  0  0  0
   37.1870   32.4050   49.6610 C   0  0  0  0  0  0  0  0  0  0  0  0
   38.1600   33.3880   49.4600 C   0  0  0  0  0  0  0  0  0  0  0  0
   39.0510   33.2750   48.3700 C   0  0  0  0  0  0  0  0  0  0  0  0
   38.9370   32.1790   47.5160 C   0  0  0  0  0  0  0  0  0  0  0  0
   36.5220   32.5150   50.4990 H   0  0  0  0  0  0  0  0  0  0  0  0
   38.2360   34.2310   50.1280 H   0  0  0  0  0  0  0  0  0  0  0  0
   39.7950   34.0500   48.2350 H   0  0  0  0  0  0  0  0  0  0  0  0
   34.9070   30.3030   48.2690 C   0  0  0  0  0  0  0  0  0  0  0  0
   36.0750   30.2970   49.0150 C   0  0  0  0  0  0  0  0  0  0  0  0
   36.2330   29.2730   49.9690 C   0  0  0  0  0  0  0  0  0  0  0  0
   35.2470   28.3570   50.1100 N   0  0  0  0  0  0  0  0  0  0  0  0
   34.1180   28.4060   49.3520 C   0  0  0  0  0  0  0  0  0  0  0  0
   33.9480   29.3730   48.4380 N   0  0  0  0  0  0  0  0  0  0  0  0
   34.7540   31.0680   47.5350 H   0  0  0  0  0  0  0  0  0  0  0  0
   33.4120   27.6130   49.5690 H   0  0  0  0  0  0  0  0  0  0  0  0
   37.4630   29.2150   50.7970 C   0  0  0  0  0  0  0  0  0  0  0  0
   37.2720   28.5320   51.6490 H   0  0  0  0  0  0  0  0  0  0  0  0
   37.8010   30.2260   51.1120 H   0  0  0  0  0  0  0  0  0  0  0  0
   38.2460   28.7460   50.1630 H   0  0  0  0  0  0  0  0  0  0  0  0
   37.9440   30.2120   46.8620 O   0  0  0  0  0  0  0  0  0  0  0  0
   37.3520   30.1780   46.0570 H   0  0  0  0  0  0  0  0  0  0  0  0
   39.8440   32.1340   46.4690 O   0  0  0  0  0  0  0  0  0  0  0  0
   40.2260   31.3120   44.1680 C   0  0  0  0  0  0  0  0  0  0  0  0
   39.5430   31.9860   45.1500 C   0  0  0  0  0  0  0  0  0  0  0  0
   38.3620   32.6340   44.8040 C   0  0  0  0  0  0  0  0  0  0  0  0
   37.8760   32.6000   43.4840 C   0  0  0  0  0  0  0  0  0  0  0  0
   36.8090   33.1030   42.8450 N   0  0  0  0  0  0  0  0  0  0  0  0
   36.8250   32.7640   41.5530 C   0  0  0  0  0  0  0  0  0  0  0  0
   37.9400   32.0240   41.3720 N   0  0  0  0  0  0  0  0  0  0  0  0
   38.6090   31.9050   42.5430 C   0  0  0  0  0  0  0  0  0  0  0  0
   39.7730   31.2630   42.8710 C   0  0  0  0  0  0  0  0  0  0  0  0
   41.1240   30.8330   44.4890 H   0  0  0  0  0  0  0  0  0  0  0  0
   37.7230   33.2010   45.4710 H   0  0  0  0  0  0  0  0  0  0  0  0
   36.0700   33.6800   43.3040 H   0  0  0  0  0  0  0  0  0  0  0  0
   36.0910   33.0280   40.7930 H   0  0  0  0  0  0  0  0  0  0  0  0
   40.4980   30.5480   41.8310 C   0  0  0  0  0  0  0  0  0  0  0  0
   40.7260   31.0360   40.5680 C   0  0  0  0  0  0  0  0  0  0  0  0
   40.3540   32.0130   40.3010 H   0  0  0  0  0  0  0  0  0  0  0  0
   41.4110   30.3640   39.5770 C   0  0  0  0  0  0  0  0  0  0  0  0
   41.5740   30.7800   38.5880 H   0  0  0  0  0  0  0  0  0  0  0  0
   41.9150   29.1100   39.8450 C   0  0  0  0  0  3  0  0  0  0  0  0
   41.6810   28.6290   41.1160 C   0  0  0  0  0  3  0  0  0  0  0  0
   41.0070   29.3200   42.0510 N   0  0  0  0  0  0  0  0  0  0  0  0
  1  2  1  0  0  0  0
  2 11  1  0  0  0  0
  2  3  2  0  0  0  0
  3  7  1  0  0  0  0
  4  3  1  0  0  0  0
  4  8  1  0  0  0  0
  5  4  2  0  0  0  0
  6  1  2  0  0  0  0
  6  5  1  0  0  0  0
  9  5  1  0  0  0  0
 10 15  2  0  0  0  0
 10 11  1  0  0  0  0
 11 12  2  0  0  0  0
 12 13  1  0  0  0  0
 12 18  1  0  0  0  0
 14 17  1  0  0  0  0
 14 13  2  0  0  0  0
 15 14  1  0  0  0  0
 16 10  1  0  0  0  0
 18 20  1  0  0  0  0
 18 19  1  0  0  0  0
 21 18  1  0  0  0  0
 22  1  1  0  0  0  0
 23 22  1  0  0  0  0
 24  6  1  0  0  0  0
 25 34  1  0  0  0  0
 25 26  1  0  0  0  0
 26 24  1  0  0  0  0
 27 26  2  0  0  0  0
 27 35  1  0  0  0  0
 28 27  1  0  0  0  0
 29 36  1  0  0  0  0
 29 28  1  0  0  0  0
 30 29  1  0  0  0  0
 31 30  2  0  0  0  0
 31 32  1  0  0  0  0
 32 33  1  0  0  0  0
 32 28  2  0  0  0  0
 33 25  2  0  0  0  0
 37 30  1  0  0  0  0
 38 45  1  0  0  0  0
 38 33  1  0  0  0  0
 39 38  2  0  0  0  0
 40 39  1  0  0  0  0
 41 43  2  0  0  0  0
 41 39  1  0  0  0  0
 42 41  1  0  0  0  0
 43 44  1  0  0  0  0
 44 45  2  0  0  0  0
M  END
>  <minimizedAffinity>
-7.70823908

>  <minimizedRMSD>
0.564726532

$$$$
