
 OpenBabel03262520583D

 32 34  0  0  1  0  0  0  0  0999 V2000
   39.2190   27.1280   33.0790 N   0  0  0  0  0  0  0  0  0  0  0  0
   38.9310   26.6710   34.3910 C   0  0  1  0  0  0  0  0  0  0  0  0
   37.8050   27.4730   35.0170 C   0  0  0  0  0  0  0  0  0  0  0  0
   36.6490   27.3460   34.1490 N   0  0  0  0  0  0  0  0  0  0  0  0
   37.0070   28.0950   32.9330 C   0  0  0  0  0  0  0  0  0  0  0  0
   38.0670   27.2310   32.2490 C   0  0  2  0  0  0  0  0  0  0  0  0
   39.9050   26.4810   32.6310 H   0  0  0  0  0  0  0  0  0  0  0  0
   39.8610   26.7140   34.9830 H   0  0  0  0  0  0  0  0  0  0  0  0
   37.6130   27.1030   36.0330 H   0  0  0  0  0  0  0  0  0  0  0  0
   38.1370   28.5300   35.0630 H   0  0  0  0  0  0  0  0  0  0  0  0
   35.8420   27.8590   34.5760 H   0  0  0  0  0  0  0  0  0  0  0  0
   37.5060   29.0490   33.1980 H   0  0  0  0  0  0  0  0  0  0  0  0
   36.1530   28.2330   32.2690 H   0  0  0  0  0  0  0  0  0  0  0  0
   38.3760   27.8290   31.3420 H   0  0  0  0  0  0  0  0  0  0  0  0
   37.4970   25.9540   31.7820 C   0  0  0  0  0  0  0  0  0  0  0  0
   38.3500   25.0680   31.1590 C   0  0  0  0  0  0  0  0  0  0  0  0
   39.3890   25.1910   30.9690 H   0  0  0  0  0  0  0  0  0  0  0  0
   37.8500   23.8500   30.7030 C   0  0  0  0  0  0  0  0  0  0  0  0
   38.4500   23.0800   30.1950 H   0  0  0  0  0  0  0  0  0  0  0  0
   36.4920   23.5810   30.9000 C   0  0  0  0  0  3  0  0  0  0  0  0
   35.6480   24.4760   31.5260 C   0  0  0  0  0  3  0  0  0  0  0  0
   36.2020   25.6200   31.9350 N   0  0  0  0  0  0  0  0  0  0  0  0
   38.3260   24.9270   34.4060 S   0  0  0  0  0  0  0  0  0  0  0  0
   38.2170   23.8120   38.3180 C   0  0  0  0  0  0  0  0  0  0  0  0
   37.8280   24.4420   37.1390 C   0  0  0  0  0  0  0  0  0  0  0  0
   38.6380   24.2170   36.0280 C   0  0  0  0  0  0  0  0  0  0  0  0
   39.7420   23.4100   36.1520 N   0  0  0  0  0  0  0  0  0  0  0  0
   40.0610   22.8360   37.3070 C   0  0  0  0  0  0  0  0  0  0  0  0
   39.2900   23.0360   38.4110 N   0  0  0  0  0  0  0  0  0  0  0  0
   37.5950   23.9860   39.1700 H   0  0  0  0  0  0  0  0  0  0  0  0
   36.9710   25.0800   37.0020 H   0  0  0  0  0  0  0  0  0  0  0  0
   40.9200   22.1950   37.4520 H   0  0  0  0  0  0  0  0  0  0  0  0
  1  2  1  0  0  0  0
  2 23  1  0  0  0  0
  2  8  1  1  0  0  0
  2  3  1  0  0  0  0
  3 10  1  0  0  0  0
  3  9  1  0  0  0  0
  4 11  1  0  0  0  0
  4  3  1  0  0  0  0
  5 12  1  0  0  0  0
  5  4  1  0  0  0  0
  6 14  1  6  0  0  0
  6  5  1  0  0  0  0
  6  1  1  0  0  0  0
  7  1  1  0  0  0  0
 13  5  1  0  0  0  0
 15 22  1  0  0  0  0
 15  6  1  0  0  0  0
 16 15  2  0  0  0  0
 17 16  1  0  0  0  0
 18 20  2  0  0  0  0
 18 16  1  0  0  0  0
 19 18  1  0  0  0  0
 20 21  1  0  0  0  0
 21 22  2  0  0  0  0
 23 26  1  0  0  0  0
 24 29  1  0  0  0  0
 24 30  1  0  0  0  0
 25 24  2  0  0  0  0
 26 27  2  0  0  0  0
 26 25  1  0  0  0  0
 27 28  1  0  0  0  0
 28 32  1  0  0  0  0
 28 29  2  0  0  0  0
 31 25  1  0  0  0  0
M  END
>  <minimizedAffinity>
-4.73203707

$$$$

 OpenBabel03262520583D

 32 34  0  0  1  0  0  0  0  0999 V2000
   38.9510   22.7870   31.5900 N   0  0  0  0  0  0  0  0  0  0  0  0
   38.8150   23.3570   32.8820 C   0  0  1  0  0  0  0  0  0  0  0  0
   37.9650   24.6140   32.8420 C   0  0  0  0  0  0  0  0  0  0  0  0
   36.6750   24.2450   32.2910 N   0  0  0  0  0  0  0  0  0  0  0  0
   36.9440   23.9340   30.8770 C   0  0  0  0  0  0  0  0  0  0  0  0
   37.7100   22.6100   30.9160 C   0  0  2  0  0  0  0  0  0  0  0  0
   39.4300   21.8630   31.6690 H   0  0  0  0  0  0  0  0  0  0  0  0
   39.8260   23.5420   33.2850 H   0  0  0  0  0  0  0  0  0  0  0  0
   37.8890   25.0360   33.8530 H   0  0  0  0  0  0  0  0  0  0  0  0
   38.4760   25.3370   32.1750 H   0  0  0  0  0  0  0  0  0  0  0  0
   36.0520   25.0870   32.2860 H   0  0  0  0  0  0  0  0  0  0  0  0
   37.6360   24.6810   30.4400 H   0  0  0  0  0  0  0  0  0  0  0  0
   36.0260   23.8170   30.2990 H   0  0  0  0  0  0  0  0  0  0  0  0
   37.9580   22.3960   29.8350 H   0  0  0  0  0  0  0  0  0  0  0  0
   36.8590   21.5140   31.4140 C   0  0  0  0  0  0  0  0  0  0  0  0
   37.4430   20.2740   31.5620 C   0  0  0  0  0  0  0  0  0  0  0  0
   38.4500   20.0020   31.3580 H   0  0  0  0  0  0  0  0  0  0  0  0
   36.6730   19.2120   32.0310 C   0  0  0  0  0  0  0  0  0  0  0  0
   37.0470   18.1880   32.1820 H   0  0  0  0  0  0  0  0  0  0  0  0
   35.3300   19.4560   32.3330 C   0  0  0  0  0  3  0  0  0  0  0  0
   34.7560   20.7020   32.1810 C   0  0  0  0  0  3  0  0  0  0  0  0
   35.5590   21.6680   31.7280 N   0  0  0  0  0  0  0  0  0  0  0  0
   37.9330   22.2340   34.0510 S   0  0  0  0  0  0  0  0  0  0  0  0
   40.0490   22.6350   37.5050 C   0  0  0  0  0  0  0  0  0  0  0  0
   39.7840   22.3030   36.1790 C   0  0  0  0  0  0  0  0  0  0  0  0
   38.4950   22.5780   35.7250 C   0  0  0  0  0  0  0  0  0  0  0  0
   37.5860   23.1440   36.5830 N   0  0  0  0  0  0  0  0  0  0  0  0
   37.9000   23.4380   37.8390 C   0  0  0  0  0  0  0  0  0  0  0  0
   39.1500   23.1810   38.3140 N   0  0  0  0  0  0  0  0  0  0  0  0
   41.0380   22.4230   37.8520 H   0  0  0  0  0  0  0  0  0  0  0  0
   40.4690   21.8600   35.4750 H   0  0  0  0  0  0  0  0  0  0  0  0
   37.2170   23.8830   38.5510 H   0  0  0  0  0  0  0  0  0  0  0  0
  1  7  1  0  0  0  0
  1  2  1  0  0  0  0
  2  8  1  1  0  0  0
  2 23  1  0  0  0  0
  3  2  1  0  0  0  0
  3  9  1  0  0  0  0
  4  3  1  0  0  0  0
  5  6  1  0  0  0  0
  5  4  1  0  0  0  0
  6 14  1  6  0  0  0
  6 15  1  0  0  0  0
  6  1  1  0  0  0  0
 10  3  1  0  0  0  0
 11  4  1  0  0  0  0
 12  5  1  0  0  0  0
 13  5  1  0  0  0  0
 15 16  2  0  0  0  0
 15 22  1  0  0  0  0
 16 18  1  0  0  0  0
 17 16  1  0  0  0  0
 18 19  1  0  0  0  0
 18 20  2  0  0  0  0
 21 20  1  0  0  0  0
 22 21  2  0  0  0  0
 23 26  1  0  0  0  0
 24 30  1  0  0  0  0
 24 29  1  0  0  0  0
 25 24  2  0  0  0  0
 26 25  1  0  0  0  0
 26 27  2  0  0  0  0
 27 28  1  0  0  0  0
 28 29  2  0  0  0  0
 28 32  1  0  0  0  0
 31 25  1  0  0  0  0
M  END
>  <minimizedAffinity>
-4.66982508

$$$$

 OpenBabel03262520583D

 32 34  0  0  1  0  0  0  0  0999 V2000
   40.1910   25.0000   32.2200 N   0  0  0  0  0  0  0  0  0  0  0  0
   39.8800   25.4910   33.5150 C   0  0  1  0  0  0  0  0  0  0  0  0
   39.6400   26.9900   33.4920 C   0  0  0  0  0  0  0  0  0  0  0  0
   38.5570   27.2400   32.5590 N   0  0  0  0  0  0  0  0  0  0  0  0
   39.1230   26.9340   31.2340 C   0  0  0  0  0  0  0  0  0  0  0  0
   39.2640   25.4100   31.2210 C   0  0  2  0  0  0  0  0  0  0  0  0
   40.2250   23.9580   32.2450 H   0  0  0  0  0  0  0  0  0  0  0  0
   40.6970   25.2040   34.1980 H   0  0  0  0  0  0  0  0  0  0  0  0
   39.4130   27.3390   34.5080 H   0  0  0  0  0  0  0  0  0  0  0  0
   40.5740   27.4680   33.1340 H   0  0  0  0  0  0  0  0  0  0  0  0
   38.3440   28.2650   32.5500 H   0  0  0  0  0  0  0  0  0  0  0  0
   40.1490   27.3430   31.1470 H   0  0  0  0  0  0  0  0  0  0  0  0
   38.4680   27.2550   30.4230 H   0  0  0  0  0  0  0  0  0  0  0  0
   39.7420   25.1810   30.2240 H   0  0  0  0  0  0  0  0  0  0  0  0
   37.9460   24.7510   31.2590 C   0  0  0  0  0  0  0  0  0  0  0  0
   37.9270   23.3720   31.2630 C   0  0  0  0  0  0  0  0  0  0  0  0
   38.7580   22.7110   31.2430 H   0  0  0  0  0  0  0  0  0  0  0  0
   36.7010   22.7110   31.2990 C   0  0  0  0  0  0  0  0  0  0  0  0
   36.5820   21.6170   31.3050 H   0  0  0  0  0  0  0  0  0  0  0  0
   35.5360   23.4840   31.3280 C   0  0  0  0  0  3  0  0  0  0  0  0
   35.5680   24.8630   31.3230 C   0  0  0  0  0  3  0  0  0  0  0  0
   36.7800   25.4240   31.2890 N   0  0  0  0  0  0  0  0  0  0  0  0
   38.3100   24.7780   34.1730 S   0  0  0  0  0  0  0  0  0  0  0  0
   39.7460   22.8470   37.4550 C   0  0  0  0  0  0  0  0  0  0  0  0
   39.6580   23.2540   36.1270 C   0  0  0  0  0  0  0  0  0  0  0  0
   38.6130   24.1240   35.8210 C   0  0  0  0  0  0  0  0  0  0  0  0
   37.7540   24.5200   36.8150 N   0  0  0  0  0  0  0  0  0  0  0  0
   37.8900   24.0950   38.0660 C   0  0  0  0  0  0  0  0  0  0  0  0
   38.9010   23.2450   38.3970 N   0  0  0  0  0  0  0  0  0  0  0  0
   40.5480   22.1790   37.6880 H   0  0  0  0  0  0  0  0  0  0  0  0
   40.3110   22.9670   35.3190 H   0  0  0  0  0  0  0  0  0  0  0  0
   37.2380   24.3790   38.8810 H   0  0  0  0  0  0  0  0  0  0  0  0
  1  7  1  0  0  0  0
  1  2  1  0  0  0  0
  2 23  1  0  0  0  0
  2  8  1  1  0  0  0
  3  2  1  0  0  0  0
  3  9  1  0  0  0  0
  4  3  1  0  0  0  0
  5  4  1  0  0  0  0
  6 14  1  6  0  0  0
  6  5  1  0  0  0  0
  6 15  1  0  0  0  0
  6  1  1  0  0  0  0
 10  3  1  0  0  0  0
 11  4  1  0  0  0  0
 12  5  1  0  0  0  0
 13  5  1  0  0  0  0
 15 16  2  0  0  0  0
 15 22  1  0  0  0  0
 16 18  1  0  0  0  0
 17 16  1  0  0  0  0
 18 19  1  0  0  0  0
 18 20  2  0  0  0  0
 21 20  1  0  0  0  0
 22 21  2  0  0  0  0
 23 26  1  0  0  0  0
 24 30  1  0  0  0  0
 24 29  1  0  0  0  0
 25 24  2  0  0  0  0
 26 25  1  0  0  0  0
 26 27  2  0  0  0  0
 27 28  1  0  0  0  0
 28 29  2  0  0  0  0
 28 32  1  0  0  0  0
 31 25  1  0  0  0  0
M  END
>  <minimizedAffinity>
-4.55674267

$$$$

 OpenBabel03262520583D

 32 34  0  0  1  0  0  0  0  0999 V2000
   37.7970   25.3900   33.7780 N   0  0  0  0  0  0  0  0  0  0  0  0
   37.8640   24.2210   32.9760 C   0  0  1  0  0  0  0  0  0  0  0  0
   39.1880   24.1370   32.2370 C   0  0  0  0  0  0  0  0  0  0  0  0
   40.2410   24.1510   33.2350 N   0  0  0  0  0  0  0  0  0  0  0  0
   40.2130   25.5130   33.7930 C   0  0  0  0  0  0  0  0  0  0  0  0
   38.9290   25.5610   34.6240 C   0  0  2  0  0  0  0  0  0  0  0  0
   36.9360   25.3550   34.3660 H   0  0  0  0  0  0  0  0  0  0  0  0
   36.9980   24.2230   32.2920 H   0  0  0  0  0  0  0  0  0  0  0  0
   39.2040   23.2300   31.6180 H   0  0  0  0  0  0  0  0  0  0  0  0
   39.2610   25.0320   31.5870 H   0  0  0  0  0  0  0  0  0  0  0  0
   41.1670   24.0560   32.7560 H   0  0  0  0  0  0  0  0  0  0  0  0
   40.0880   26.2610   32.9840 H   0  0  0  0  0  0  0  0  0  0  0  0
   41.0760   25.7160   34.4280 H   0  0  0  0  0  0  0  0  0  0  0  0
   38.8840   26.6210   35.0120 H   0  0  0  0  0  0  0  0  0  0  0  0
   39.0090   24.6530   35.7830 C   0  0  0  0  0  0  0  0  0  0  0  0
   37.9680   24.6850   36.6860 C   0  0  0  0  0  0  0  0  0  0  0  0
   37.0970   25.2940   36.6530 H   0  0  0  0  0  0  0  0  0  0  0  0
   38.0050   23.8420   37.7950 C   0  0  0  0  0  0  0  0  0  0  0  0
   37.2250   23.7950   38.5700 H   0  0  0  0  0  0  0  0  0  0  0  0
   39.1080   22.9950   37.9410 C   0  0  0  0  0  3  0  0  0  0  0  0
   40.1440   22.9720   37.0290 C   0  0  0  0  0  3  0  0  0  0  0  0
   40.0350   23.8080   35.9940 N   0  0  0  0  0  0  0  0  0  0  0  0
   37.7930   22.6760   33.9830 S   0  0  0  0  0  0  0  0  0  0  0  0
   35.2000   19.7260   32.9160 C   0  0  0  0  0  0  0  0  0  0  0  0
   35.8910   20.6070   33.7440 C   0  0  0  0  0  0  0  0  0  0  0  0
   36.7950   21.4590   33.1120 C   0  0  0  0  0  0  0  0  0  0  0  0
   36.9510   21.3860   31.7510 N   0  0  0  0  0  0  0  0  0  0  0  0
   36.2610   20.5220   31.0150 C   0  0  0  0  0  0  0  0  0  0  0  0
   35.3700   19.6760   31.6010 N   0  0  0  0  0  0  0  0  0  0  0  0
   34.5070   19.0730   33.4020 H   0  0  0  0  0  0  0  0  0  0  0  0
   35.7970   20.6960   34.8140 H   0  0  0  0  0  0  0  0  0  0  0  0
   36.3510   20.4280   29.9410 H   0  0  0  0  0  0  0  0  0  0  0  0
  1  7  1  0  0  0  0
  1  6  1  0  0  0  0
  2  8  1  6  0  0  0
  2  1  1  0  0  0  0
  2 23  1  0  0  0  0
  3  2  1  0  0  0  0
  3  4  1  0  0  0  0
  4  5  1  0  0  0  0
  5 13  1  0  0  0  0
  5  6  1  0  0  0  0
  6 14  1  1  0  0  0
  6 15  1  0  0  0  0
  9  3  1  0  0  0  0
 10  3  1  0  0  0  0
 11  4  1  0  0  0  0
 12  5  1  0  0  0  0
 15 22  2  0  0  0  0
 15 16  1  0  0  0  0
 16 18  2  0  0  0  0
 17 16  1  0  0  0  0
 18 20  1  0  0  0  0
 18 19  1  0  0  0  0
 21 20  2  0  0  0  0
 22 21  1  0  0  0  0
 24 30  1  0  0  0  0
 24 25  1  0  0  0  0
 25 31  1  0  0  0  0
 26 25  2  0  0  0  0
 26 23  1  0  0  0  0
 27 26  1  0  0  0  0
 28 29  1  0  0  0  0
 28 27  2  0  0  0  0
 29 24  2  0  0  0  0
 32 28  1  0  0  0  0
M  END
>  <minimizedAffinity>
-4.44839621

$$$$

 OpenBabel03262520583D

 32 34  0  0  1  0  0  0  0  0999 V2000
   33.9110   29.3680   32.6750 N   0  0  0  0  0  0  0  0  0  0  0  0
   35.1490   28.6740   32.6630 C   0  0  1  0  0  0  0  0  0  0  0  0
   36.0880   29.2440   31.6160 C   0  0  0  0  0  0  0  0  0  0  0  0
   36.2760   30.6500   31.9220 N   0  0  0  0  0  0  0  0  0  0  0  0
   34.9740   31.2750   31.6330 C   0  0  0  0  0  0  0  0  0  0  0  0
   34.0560   30.7820   32.7530 C   0  0  2  0  0  0  0  0  0  0  0  0
   33.3400   29.0400   33.4840 H   0  0  0  0  0  0  0  0  0  0  0  0
   34.9410   27.6020   32.5060 H   0  0  0  0  0  0  0  0  0  0  0  0
   37.0310   28.6800   31.6240 H   0  0  0  0  0  0  0  0  0  0  0  0
   35.5940   29.1280   30.6300 H   0  0  0  0  0  0  0  0  0  0  0  0
   36.9510   31.0620   31.2360 H   0  0  0  0  0  0  0  0  0  0  0  0
   34.5540   30.8770   30.6880 H   0  0  0  0  0  0  0  0  0  0  0  0
   35.0290   32.3640   31.6480 H   0  0  0  0  0  0  0  0  0  0  0  0
   33.0460   31.2230   32.5040 H   0  0  0  0  0  0  0  0  0  0  0  0
   34.4760   31.3140   34.0620 C   0  0  0  0  0  0  0  0  0  0  0  0
   33.6870   31.0120   35.1520 C   0  0  0  0  0  0  0  0  0  0  0  0
   32.7960   30.4330   35.1690 H   0  0  0  0  0  0  0  0  0  0  0  0
   34.0500   31.4950   36.4070 C   0  0  0  0  0  0  0  0  0  0  0  0
   33.4870   31.3090   37.3350 H   0  0  0  0  0  0  0  0  0  0  0  0
   35.2090   32.2710   36.5040 C   0  0  0  0  0  3  0  0  0  0  0  0
   35.9910   32.5660   35.4060 C   0  0  0  0  0  3  0  0  0  0  0  0
   35.5780   32.0670   34.2380 N   0  0  0  0  0  0  0  0  0  0  0  0
   36.0640   28.8510   34.2550 S   0  0  0  0  0  0  0  0  0  0  0  0
   38.8960   26.1860   35.4590 C   0  0  0  0  0  0  0  0  0  0  0  0
   38.1380   27.3540   35.4460 C   0  0  0  0  0  0  0  0  0  0  0  0
   37.1580   27.4370   34.4580 C   0  0  0  0  0  0  0  0  0  0  0  0
   36.9980   26.3950   33.5790 N   0  0  0  0  0  0  0  0  0  0  0  0
   37.7540   25.3050   33.6440 C   0  0  0  0  0  0  0  0  0  0  0  0
   38.7200   25.1930   34.5960 N   0  0  0  0  0  0  0  0  0  0  0  0
   39.6470   26.1240   36.2160 H   0  0  0  0  0  0  0  0  0  0  0  0
   38.2330   28.1920   36.1160 H   0  0  0  0  0  0  0  0  0  0  0  0
   37.6640   24.4610   32.9730 H   0  0  0  0  0  0  0  0  0  0  0  0
  1  6  1  0  0  0  0
  1  7  1  0  0  0  0
  2  8  1  6  0  0  0
  2  1  1  0  0  0  0
  2 23  1  0  0  0  0
  3  9  1  0  0  0  0
  3  4  1  0  0  0  0
  3  2  1  0  0  0  0
  5 13  1  0  0  0  0
  5  4  1  0  0  0  0
  5  6  1  0  0  0  0
  6 14  1  6  0  0  0
  6 15  1  0  0  0  0
 10  3  1  0  0  0  0
 11  4  1  0  0  0  0
 12  5  1  0  0  0  0
 15 22  2  0  0  0  0
 15 16  1  0  0  0  0
 16 17  1  0  0  0  0
 16 18  2  0  0  0  0
 18 20  1  0  0  0  0
 18 19  1  0  0  0  0
 21 20  2  0  0  0  0
 22 21  1  0  0  0  0
 23 26  1  0  0  0  0
 24 30  1  0  0  0  0
 25 24  1  0  0  0  0
 25 31  1  0  0  0  0
 26 25  2  0  0  0  0
 27 28  2  0  0  0  0
 27 26  1  0  0  0  0
 28 29  1  0  0  0  0
 29 24  2  0  0  0  0
 32 28  1  0  0  0  0
M  END
>  <minimizedAffinity>
-4.31950188

$$$$

 OpenBabel03262520583D

 32 34  0  0  1  0  0  0  0  0999 V2000
   37.0260   26.0050   30.6370 N   0  0  0  0  0  0  0  0  0  0  0  0
   37.5480   24.6860   30.6860 C   0  0  1  0  0  0  0  0  0  0  0  0
   38.9250   24.6170   30.0530 C   0  0  0  0  0  0  0  0  0  0  0  0
   39.7780   25.5470   30.7690 N   0  0  0  0  0  0  0  0  0  0  0  0
   39.2690   26.8800   30.4050 C   0  0  0  0  0  0  0  0  0  0  0  0
   37.9270   26.9900   31.1310 C   0  0  2  0  0  0  0  0  0  0  0  0
   36.1410   26.0460   31.1880 H   0  0  0  0  0  0  0  0  0  0  0  0
   36.8240   24.0100   30.1990 H   0  0  0  0  0  0  0  0  0  0  0  0
   39.2970   23.5840   30.0970 H   0  0  0  0  0  0  0  0  0  0  0  0
   38.8190   24.9290   28.9940 H   0  0  0  0  0  0  0  0  0  0  0  0
   40.7470   25.4940   30.3770 H   0  0  0  0  0  0  0  0  0  0  0  0
   39.0410   26.9260   29.3210 H   0  0  0  0  0  0  0  0  0  0  0  0
   39.9360   27.6790   30.7320 H   0  0  0  0  0  0  0  0  0  0  0  0
   37.5150   27.9920   30.8130 H   0  0  0  0  0  0  0  0  0  0  0  0
   38.1110   27.0150   32.5940 C   0  0  0  0  0  0  0  0  0  0  0  0
   36.9770   27.0840   33.3750 C   0  0  0  0  0  0  0  0  0  0  0  0
   35.9660   27.1230   33.0500 H   0  0  0  0  0  0  0  0  0  0  0  0
   37.1090   27.1100   34.7620 C   0  0  0  0  0  0  0  0  0  0  0  0
   36.2660   27.1640   35.4680 H   0  0  0  0  0  0  0  0  0  0  0  0
   38.3970   27.0630   35.3020 C   0  0  0  0  0  3  0  0  0  0  0  0
   39.5250   26.9940   34.5090 C   0  0  0  0  0  3  0  0  0  0  0  0
   39.3170   26.9720   33.1900 N   0  0  0  0  0  0  0  0  0  0  0  0
   37.8000   24.0990   32.4180 S   0  0  0  0  0  0  0  0  0  0  0  0
   36.1340   20.6640   33.8260 C   0  0  0  0  0  0  0  0  0  0  0  0
   36.9640   21.7810   33.7900 C   0  0  0  0  0  0  0  0  0  0  0  0
   36.8330   22.6050   32.6730 C   0  0  0  0  0  0  0  0  0  0  0  0
   35.9210   22.2800   31.7000 N   0  0  0  0  0  0  0  0  0  0  0  0
   35.1570   21.1980   31.7920 C   0  0  0  0  0  0  0  0  0  0  0  0
   35.2600   20.3730   32.8700 N   0  0  0  0  0  0  0  0  0  0  0  0
   36.2350   20.0330   34.6830 H   0  0  0  0  0  0  0  0  0  0  0  0
   37.6890   22.0700   34.5310 H   0  0  0  0  0  0  0  0  0  0  0  0
   34.4260   20.9020   31.0510 H   0  0  0  0  0  0  0  0  0  0  0  0
  1  2  1  0  0  0  0
  1  6  1  0  0  0  0
  1  7  1  0  0  0  0
  2  8  1  6  0  0  0
  2 23  1  0  0  0  0
  3  9  1  0  0  0  0
  3  2  1  0  0  0  0
  3  4  1  0  0  0  0
  5 13  1  0  0  0  0
  5  4  1  0  0  0  0
  5  6  1  0  0  0  0
  6 14  1  6  0  0  0
  6 15  1  0  0  0  0
 10  3  1  0  0  0  0
 11  4  1  0  0  0  0
 12  5  1  0  0  0  0
 15 22  2  0  0  0  0
 15 16  1  0  0  0  0
 16 18  2  0  0  0  0
 17 16  1  0  0  0  0
 18 20  1  0  0  0  0
 18 19  1  0  0  0  0
 21 20  2  0  0  0  0
 22 21  1  0  0  0  0
 23 26  1  0  0  0  0
 24 30  1  0  0  0  0
 25 24  1  0  0  0  0
 25 31  1  0  0  0  0
 26 25  2  0  0  0  0
 27 28  2  0  0  0  0
 27 26  1  0  0  0  0
 28 29  1  0  0  0  0
 29 24  2  0  0  0  0
 32 28  1  0  0  0  0
M  END
>  <minimizedAffinity>
-4.31367731

$$$$

 OpenBabel03262520583D

 32 34  0  0  1  0  0  0  0  0999 V2000
   36.5440   21.6650   32.4380 N   0  0  0  0  0  0  0  0  0  0  0  0
   37.6140   21.6560   33.3700 C   0  0  1  0  0  0  0  0  0  0  0  0
   38.8690   21.0610   32.7600 C   0  0  0  0  0  0  0  0  0  0  0  0
   39.1990   21.8520   31.5900 N   0  0  0  0  0  0  0  0  0  0  0  0
   38.1340   21.5490   30.6180 C   0  0  0  0  0  0  0  0  0  0  0  0
   36.8920   22.2400   31.1830 C   0  0  2  0  0  0  0  0  0  0  0  0
   35.7390   22.1910   32.8410 H   0  0  0  0  0  0  0  0  0  0  0  0
   37.2810   21.1110   34.2710 H   0  0  0  0  0  0  0  0  0  0  0  0
   39.6740   21.0580   33.5090 H   0  0  0  0  0  0  0  0  0  0  0  0
   38.6320   20.0180   32.4660 H   0  0  0  0  0  0  0  0  0  0  0  0
   40.0850   21.4870   31.1680 H   0  0  0  0  0  0  0  0  0  0  0  0
   37.9110   20.4630   30.6140 H   0  0  0  0  0  0  0  0  0  0  0  0
   38.3600   21.9390   29.6250 H   0  0  0  0  0  0  0  0  0  0  0  0
   36.0660   21.9670   30.4630 H   0  0  0  0  0  0  0  0  0  0  0  0
   37.0430   23.7070   31.1690 C   0  0  0  0  0  0  0  0  0  0  0  0
   35.9820   24.4580   31.6250 C   0  0  0  0  0  0  0  0  0  0  0  0
   35.0490   24.1080   31.9930 H   0  0  0  0  0  0  0  0  0  0  0  0
   36.0860   25.8480   31.6280 C   0  0  0  0  0  0  0  0  0  0  0  0
   35.2950   26.5320   31.9720 H   0  0  0  0  0  0  0  0  0  0  0  0
   37.2740   26.4210   31.1640 C   0  0  0  0  0  3  0  0  0  0  0  0
   38.3300   25.6570   30.7100 C   0  0  0  0  0  3  0  0  0  0  0  0
   38.1550   24.3330   30.7390 N   0  0  0  0  0  0  0  0  0  0  0  0
   38.1070   23.3580   33.8840 S   0  0  0  0  0  0  0  0  0  0  0  0
   38.2050   23.9060   37.9160 C   0  0  0  0  0  0  0  0  0  0  0  0
   37.7580   24.0250   36.6030 C   0  0  0  0  0  0  0  0  0  0  0  0
   38.5010   23.3450   35.6390 C   0  0  0  0  0  0  0  0  0  0  0  0
   39.5990   22.6180   36.0250 N   0  0  0  0  0  0  0  0  0  0  0  0
   39.9750   22.5420   37.2970 C   0  0  0  0  0  0  0  0  0  0  0  0
   39.2710   23.1950   38.2620 N   0  0  0  0  0  0  0  0  0  0  0  0
   37.6340   24.4280   38.6540 H   0  0  0  0  0  0  0  0  0  0  0  0
   36.9030   24.5850   36.2600 H   0  0  0  0  0  0  0  0  0  0  0  0
   40.8320   21.9830   37.6470 H   0  0  0  0  0  0  0  0  0  0  0  0
  1  7  1  0  0  0  0
  1  2  1  0  0  0  0
  2 23  1  0  0  0  0
  2  8  1  1  0  0  0
  3  2  1  0  0  0  0
  3  9  1  0  0  0  0
  4  3  1  0  0  0  0
  5  6  1  0  0  0  0
  5  4  1  0  0  0  0
  6 14  1  6  0  0  0
  6  1  1  0  0  0  0
 10  3  1  0  0  0  0
 11  4  1  0  0  0  0
 12  5  1  0  0  0  0
 13  5  1  0  0  0  0
 15  6  1  0  0  0  0
 15 16  1  0  0  0  0
 16 18  2  0  0  0  0
 16 17  1  0  0  0  0
 18 19  1  0  0  0  0
 20 18  1  0  0  0  0
 21 22  1  0  0  0  0
 21 20  2  0  0  0  0
 22 15  2  0  0  0  0
 23 26  1  0  0  0  0
 24 29  1  0  0  0  0
 24 30  1  0  0  0  0
 25 24  2  0  0  0  0
 26 27  2  0  0  0  0
 26 25  1  0  0  0  0
 27 28  1  0  0  0  0
 28 32  1  0  0  0  0
 28 29  2  0  0  0  0
 31 25  1  0  0  0  0
M  END
>  <minimizedAffinity>
-4.28338242

$$$$

 OpenBabel03262520583D

 32 34  0  0  1  0  0  0  0  0999 V2000
   36.9180   26.2170   33.0730 N   0  0  0  0  0  0  0  0  0  0  0  0
   37.0520   24.9080   32.5440 C   0  0  1  0  0  0  0  0  0  0  0  0
   36.8630   24.9020   31.0380 C   0  0  0  0  0  0  0  0  0  0  0  0
   37.8530   25.8010   30.4740 N   0  0  0  0  0  0  0  0  0  0  0  0
   37.4240   27.1450   30.8970 C   0  0  0  0  0  0  0  0  0  0  0  0
   37.7150   27.1850   32.3990 C   0  0  2  0  0  0  0  0  0  0  0  0
   37.1770   26.2090   34.0840 H   0  0  0  0  0  0  0  0  0  0  0  0
   36.3330   24.2510   33.0630 H   0  0  0  0  0  0  0  0  0  0  0  0
   36.9620   23.8750   30.6600 H   0  0  0  0  0  0  0  0  0  0  0  0
   35.8410   25.2770   30.8310 H   0  0  0  0  0  0  0  0  0  0  0  0
   37.7710   25.7890   29.4300 H   0  0  0  0  0  0  0  0  0  0  0  0
   36.3260   27.2540   30.7900 H   0  0  0  0  0  0  0  0  0  0  0  0
   37.9800   27.9340   30.3890 H   0  0  0  0  0  0  0  0  0  0  0  0
   37.3410   28.1980   32.7310 H   0  0  0  0  0  0  0  0  0  0  0  0
   39.1630   27.1230   32.6650 C   0  0  0  0  0  0  0  0  0  0  0  0
   39.5660   27.1010   33.9830 C   0  0  0  0  0  0  0  0  0  0  0  0
   38.9520   27.1230   34.8500 H   0  0  0  0  0  0  0  0  0  0  0  0
   40.9260   27.0410   34.2770 C   0  0  0  0  0  0  0  0  0  0  0  0
   41.3450   27.0200   35.2940 H   0  0  0  0  0  0  0  0  0  0  0  0
   41.8290   27.0070   33.2100 C   0  0  0  0  0  3  0  0  0  0  0  0
   41.4140   27.0290   31.8940 C   0  0  0  0  0  3  0  0  0  0  0  0
   40.0950   27.0850   31.6940 N   0  0  0  0  0  0  0  0  0  0  0  0
   38.7440   24.2190   32.8040 S   0  0  0  0  0  0  0  0  0  0  0  0
   39.7260   22.3150   36.2640 C   0  0  0  0  0  0  0  0  0  0  0  0
   39.7430   22.6270   34.9070 C   0  0  0  0  0  0  0  0  0  0  0  0
   38.8870   23.6500   34.5040 C   0  0  0  0  0  0  0  0  0  0  0  0
   38.0980   24.2750   35.4370 N   0  0  0  0  0  0  0  0  0  0  0  0
   38.1280   23.9310   36.7200 C   0  0  0  0  0  0  0  0  0  0  0  0
   38.9530   22.9360   37.1460 N   0  0  0  0  0  0  0  0  0  0  0  0
   40.3830   21.5290   36.5720 H   0  0  0  0  0  0  0  0  0  0  0  0
   40.3460   22.1610   34.1460 H   0  0  0  0  0  0  0  0  0  0  0  0
   37.5250   24.3950   37.4900 H   0  0  0  0  0  0  0  0  0  0  0  0
  1  7  1  0  0  0  0
  2 23  1  0  0  0  0
  2  8  1  1  0  0  0
  2  1  1  0  0  0  0
  3  2  1  0  0  0  0
  4  5  1  0  0  0  0
  4  3  1  0  0  0  0
  5  6  1  0  0  0  0
  6 15  1  0  0  0  0
  6 14  1  1  0  0  0
  6  1  1  0  0  0  0
  9  3  1  0  0  0  0
 10  3  1  0  0  0  0
 11  4  1  0  0  0  0
 12  5  1  0  0  0  0
 13  5  1  0  0  0  0
 15 16  1  0  0  0  0
 16 18  2  0  0  0  0
 16 17  1  0  0  0  0
 18 19  1  0  0  0  0
 20 18  1  0  0  0  0
 21 20  2  0  0  0  0
 22 21  1  0  0  0  0
 22 15  2  0  0  0  0
 23 26  1  0  0  0  0
 24 30  1  0  0  0  0
 24 29  1  0  0  0  0
 25 24  2  0  0  0  0
 26 25  1  0  0  0  0
 26 27  2  0  0  0  0
 27 28  1  0  0  0  0
 28 29  2  0  0  0  0
 28 32  1  0  0  0  0
 31 25  1  0  0  0  0
M  END
>  <minimizedAffinity>
-4.26428175

$$$$

 OpenBabel03262520583D

 32 34  0  0  1  0  0  0  0  0999 V2000
   41.1810   27.5540   33.0080 N   0  0  0  0  0  0  0  0  0  0  0  0
   40.6040   26.8920   31.8940 C   0  0  1  0  0  0  0  0  0  0  0  0
   41.4180   25.6730   31.4980 C   0  0  0  0  0  0  0  0  0  0  0  0
   41.4800   24.8000   32.6550 N   0  0  0  0  0  0  0  0  0  0  0  0
   42.3300   25.5150   33.6220 C   0  0  0  0  0  0  0  0  0  0  0  0
   41.4660   26.6850   34.0990 C   0  0  2  0  0  0  0  0  0  0  0  0
   40.5360   28.3070   33.3340 H   0  0  0  0  0  0  0  0  0  0  0  0
   40.5080   27.6220   31.0710 H   0  0  0  0  0  0  0  0  0  0  0  0
   40.9530   25.1900   30.6280 H   0  0  0  0  0  0  0  0  0  0  0  0
   42.4340   26.0270   31.2280 H   0  0  0  0  0  0  0  0  0  0  0  0
   42.0050   23.9310   32.3990 H   0  0  0  0  0  0  0  0  0  0  0  0
   43.2060   25.9630   33.1110 H   0  0  0  0  0  0  0  0  0  0  0  0
   42.6080   24.8870   34.4690 H   0  0  0  0  0  0  0  0  0  0  0  0
   42.1350   27.2600   34.8030 H   0  0  0  0  0  0  0  0  0  0  0  0
   40.2980   26.2100   34.8630 C   0  0  0  0  0  0  0  0  0  0  0  0
   39.4060   27.1590   35.3130 C   0  0  0  0  0  0  0  0  0  0  0  0
   39.4530   28.2120   35.1760 H   0  0  0  0  0  0  0  0  0  0  0  0
   38.2890   26.7510   36.0390 C   0  0  0  0  0  0  0  0  0  0  0  0
   37.5220   27.4310   36.4400 H   0  0  0  0  0  0  0  0  0  0  0  0
   38.1240   25.3840   36.2800 C   0  0  0  0  0  3  0  0  0  0  0  0
   39.0240   24.4420   35.8240 C   0  0  0  0  0  3  0  0  0  0  0  0
   40.0680   24.9120   35.1360 N   0  0  0  0  0  0  0  0  0  0  0  0
   38.9240   26.2290   32.2680 S   0  0  0  0  0  0  0  0  0  0  0  0
   36.6830   29.2070   30.6330 C   0  0  0  0  0  0  0  0  0  0  0  0
   37.7030   28.2670   30.7470 C   0  0  0  0  0  0  0  0  0  0  0  0
   37.7030   27.5000   31.9110 C   0  0  0  0  0  0  0  0  0  0  0  0
   36.7270   27.7080   32.8540 N   0  0  0  0  0  0  0  0  0  0  0  0
   35.7790   28.6230   32.6870 C   0  0  0  0  0  0  0  0  0  0  0  0
   35.7510   29.3880   31.5610 N   0  0  0  0  0  0  0  0  0  0  0  0
   36.6840   29.7950   29.7400 H   0  0  0  0  0  0  0  0  0  0  0  0
   38.4850   28.0740   30.0310 H   0  0  0  0  0  0  0  0  0  0  0  0
   34.9910   28.8220   33.4010 H   0  0  0  0  0  0  0  0  0  0  0  0
  1  7  1  0  0  0  0
  1  6  1  0  0  0  0
  2  8  1  6  0  0  0
  2 23  1  0  0  0  0
  2  1  1  0  0  0  0
  3  2  1  0  0  0  0
  3  4  1  0  0  0  0
  4  5  1  0  0  0  0
  5  6  1  0  0  0  0
  5 13  1  0  0  0  0
  6 14  1  1  0  0  0
  6 15  1  0  0  0  0
  9  3  1  0  0  0  0
 10  3  1  0  0  0  0
 11  4  1  0  0  0  0
 12  5  1  0  0  0  0
 15 22  2  0  0  0  0
 15 16  1  0  0  0  0
 16 18  2  0  0  0  0
 17 16  1  0  0  0  0
 18 20  1  0  0  0  0
 18 19  1  0  0  0  0
 21 20  2  0  0  0  0
 22 21  1  0  0  0  0
 24 25  2  0  0  0  0
 24 29  1  0  0  0  0
 25 26  1  0  0  0  0
 26 23  1  0  0  0  0
 26 27  2  0  0  0  0
 28 27  1  0  0  0  0
 28 32  1  0  0  0  0
 29 28  2  0  0  0  0
 30 24  1  0  0  0  0
 31 25  1  0  0  0  0
M  END
>  <minimizedAffinity>
-4.20884943

$$$$
