
 OpenBabel03272506513D

 33 35  0  0  1  0  0  0  0  0999 V2000
   34.7110   30.5390   48.6880 C   0  0  1  0  0  0  0  0  0  0  0  0
   34.0800   30.1720   47.4000 C   0  0  0  0  0  0  0  0  0  0  0  0
   34.1360   28.7270   47.0050 C   0  0  0  0  0  0  0  0  0  0  0  0
   33.9560   27.7630   48.1180 C   0  0  1  0  0  0  0  0  0  0  0  0
   34.5750   28.1140   49.4270 C   0  0  0  0  0  0  0  0  0  0  0  0
   34.4100   29.5660   49.7640 C   0  0  0  0  0  0  0  0  0  0  0  0
   34.2100   31.5020   49.0310 H   0  0  0  0  0  0  0  0  0  0  0  0
   34.2430   30.8200   46.5510 H   0  0  0  0  0  0  0  0  0  0  0  0
   32.9650   30.3030   47.5860 H   0  0  0  0  0  0  0  0  0  0  0  0
   33.3580   28.5390   46.2390 H   0  0  0  0  0  0  0  0  0  0  0  0
   35.1460   28.5680   46.5530 H   0  0  0  0  0  0  0  0  0  0  0  0
   34.4490   26.8040   47.7780 H   0  0  0  0  0  0  0  0  0  0  0  0
   35.6540   27.8530   49.3970 H   0  0  0  0  0  0  0  0  0  0  0  0
   34.1180   27.5350   50.2310 H   0  0  0  0  0  0  0  0  0  0  0  0
   33.3040   29.6770   50.0160 H   0  0  0  0  0  0  0  0  0  0  0  0
   34.9130   29.8000   50.7090 H   0  0  0  0  0  0  0  0  0  0  0  0
   36.9210   30.7770   47.4420 C   0  0  0  0  0  0  0  0  0  0  0  0
   36.1360   30.9270   48.6110 C   0  0  0  0  0  0  0  0  0  0  0  0
   36.7540   31.4720   49.7220 C   0  0  0  0  0  0  0  0  0  0  0  0
   38.0660   31.8380   49.6560 N   0  0  0  0  0  0  0  0  0  0  0  0
   38.7750   31.6720   48.5060 C   0  0  0  0  0  0  0  0  0  0  0  0
   38.2090   31.1460   47.4050 N   0  0  0  0  0  0  0  0  0  0  0  0
   36.4730   30.3650   46.5830 H   0  0  0  0  0  0  0  0  0  0  0  0
   36.3380   31.6700   50.6910 H   0  0  0  0  0  0  0  0  0  0  0  0
   39.8190   31.9460   48.4030 H   0  0  0  0  0  0  0  0  0  0  0  0
   32.5070   27.4310   48.1980 C   0  0  0  0  0  0  0  0  0  0  0  0
   31.9460   26.6210   47.2050 C   0  0  0  0  0  0  0  0  0  0  0  0
   32.5340   26.2230   46.3690 H   0  0  0  0  0  0  0  0  0  0  0  0
   30.5920   26.2720   47.2220 C   0  0  0  0  0  0  0  0  0  0  0  0
   30.1930   25.6390   46.4300 H   0  0  0  0  0  0  0  0  0  0  0  0
   29.8290   26.7640   48.2700 C   0  0  0  0  0  0  0  0  0  0  0  0
   30.4050   27.5670   49.2470 C   0  0  0  0  0  0  0  0  0  0  0  0
   31.7300   27.8800   49.1860 N   0  0  0  0  0  0  0  0  0  0  0  0
  1  7  1  1  0  0  0
  1  6  1  0  0  0  0
  2  9  1  0  0  0  0
  2  1  1  0  0  0  0
  3  2  1  0  0  0  0
  3  4  1  0  0  0  0
  4 12  1  6  0  0  0
  4 26  1  0  0  0  0
  4  5  1  0  0  0  0
  5  6  1  0  0  0  0
  5 14  1  0  0  0  0
  6 15  1  0  0  0  0
  6 16  1  0  0  0  0
  8  2  1  0  0  0  0
 10  3  1  0  0  0  0
 11  3  1  0  0  0  0
 13  5  1  0  0  0  0
 17 18  1  0  0  0  0
 18  1  1  0  0  0  0
 18 19  2  0  0  0  0
 19 24  1  0  0  0  0
 20 19  1  0  0  0  0
 21 20  2  0  0  0  0
 22 17  2  0  0  0  0
 22 21  1  0  0  0  0
 23 17  1  0  0  0  0
 25 21  1  0  0  0  0
 26 33  1  0  0  0  0
 27 29  1  0  0  0  0
 27 26  2  0  0  0  0
 28 27  1  0  0  0  0
 29 31  2  0  0  0  0
 30 29  1  0  0  0  0
 31 32  1  0  0  0  0
 33 32  2  0  0  0  0
M  END
>  <minimizedAffinity>
-5.39003134

>  <minimizedRMSD>
1.48441815

$$$$
