REMARK  Name = 
REMARK  6 active torsions:
REMARK  status: ('A' for Active; 'I' for Inactive)
REMARK    1  A    between atoms: C_1  and  O_14
REMARK    2  A    between atoms: C_2  and  C_8
REMARK    3  A    between atoms: C_6  and  O_15
REMARK    4  A    between atoms: C_9  and  C_13
REMARK    5  A    between atoms: O_15  and  C_17
REMARK    6  A    between atoms: C_24  and  C_38
REMARK                            x       y       z     vdW  Elec       q    Type
REMARK                         _______ _______ _______ _____ _____    ______ ____
ROOT
ATOM      1  C   UNL     1      38.086  31.293  47.773  0.00  0.00    +0.000 A 
ATOM      2  C   UNL     1      37.086  31.305  48.729  0.00  0.00    +0.000 A 
ATOM      3  C   UNL     1      37.121  32.416  49.586  0.00  0.00    +0.000 A 
ATOM      4  C   UNL     1      38.094  33.411  49.464  0.00  0.00    +0.000 A 
ATOM      5  C   UNL     1      39.075  33.308  48.453  0.00  0.00    +0.000 A 
ATOM      6  C   UNL     1      39.048  32.208  47.596  0.00  0.00    +0.000 A 
ATOM      7  H   UNL     1      36.386  32.520  50.365  0.00  0.00    +0.000 HD
ATOM      8  H   UNL     1      38.103  34.257  50.133  0.00  0.00    +0.000 HD
ATOM      9  H   UNL     1      39.818  34.092  48.378  0.00  0.00    +0.000 HD
ENDROOT
BRANCH   2  11
ATOM     10  C   UNL     1      34.967  30.311  48.050  0.00  0.00    +0.000 A 
ATOM     11  C   UNL     1      36.094  30.292  48.856  0.00  0.00    +0.000 A 
ATOM     12  C   UNL     1      36.210  29.243  49.789  0.00  0.00    +0.000 A 
ATOM     13  N   UNL     1      35.226  28.317  49.852  0.00  0.00    +0.000 NA
ATOM     14  C   UNL     1      34.138  28.379  49.037  0.00  0.00    +0.000 A 
ATOM     15  N   UNL     1      34.009  29.370  48.142  0.00  0.00    +0.000 NA
ATOM     16  H   UNL     1      34.847  31.095  47.330  0.00  0.00    +0.000 HD
ATOM     17  H   UNL     1      33.429  27.575  49.194  0.00  0.00    +0.000 HD
BRANCH  12  18
ATOM     18  C   UNL     1      37.395  29.171  50.679  0.00  0.00    +0.000 C 
ATOM     19  H   UNL     1      37.166  28.463  51.500  0.00  0.00    +0.000 HD
ATOM     20  H   UNL     1      37.708  30.175  51.039  0.00  0.00    +0.000 HD
ATOM     21  H   UNL     1      38.215  28.725  50.075  0.00  0.00    +0.000 HD
ENDBRANCH  12  18
ENDBRANCH   2  11
BRANCH   1  22
ATOM     22  O   UNL     1      38.139  30.227  46.868  0.00  0.00    +0.000 OA
ATOM     23  H   UNL     1      37.617  30.183  46.016  0.00  0.00    +0.000 HD
ENDBRANCH   1  22
BRANCH   6  24
ATOM     24  O   UNL     1      40.040  32.172  46.629  0.00  0.00    +0.000 OA
BRANCH  24  26
ATOM     25  C   UNL     1      40.560  31.198  44.417  0.00  0.00    +0.000 A 
ATOM     26  C   UNL     1      39.855  31.984  45.294  0.00  0.00    +0.000 A 
ATOM     27  C   UNL     1      38.784  32.722  44.802  0.00  0.00    +0.000 A 
ATOM     28  C   UNL     1      38.428  32.665  43.442  0.00  0.00    +0.000 A 
ATOM     29  N   UNL     1      37.483  33.232  42.677  0.00  0.00    +0.000 N 
ATOM     30  C   UNL     1      37.591  32.826  41.409  0.00  0.00    +0.000 A 
ATOM     31  N   UNL     1      38.639  31.975  41.374  0.00  0.00    +0.000 NA
ATOM     32  C   UNL     1      39.176  31.855  42.612  0.00  0.00    +0.000 A 
ATOM     33  C   UNL     1      40.233  31.124  43.084  0.00  0.00    +0.000 A 
ATOM     34  H   UNL     1      41.371  30.654  44.848  0.00  0.00    +0.000 HD
ATOM     35  H   UNL     1      38.143  33.381  45.376  0.00  0.00    +0.000 HD
ATOM     36  H   UNL     1      36.764  33.900  43.033  0.00  0.00    +0.000 HD
ATOM     37  H   UNL     1      36.964  33.118  40.568  0.00  0.00    +0.000 HD
BRANCH  33  38
ATOM     38  C   UNL     1      40.981  30.290  42.155  0.00  0.00    +0.000 A 
ATOM     39  C   UNL     1      41.367  28.997  42.410  0.00  0.00    +0.000 A 
ATOM     40  H   UNL     1      41.112  28.544  43.357  0.00  0.00    +0.000 HD
ATOM     41  C   UNL     1      42.076  28.199  41.536  0.00  0.00    +0.000 A 
ATOM     42  H   UNL     1      42.365  27.181  41.770  0.00  0.00    +0.000 HD
ATOM     43  C   UNL     1      42.437  28.710  40.308  0.00  0.00    +0.000 A 
ATOM     44  C   UNL     1      42.044  30.009  40.061  0.00  0.00    +0.000 A 
ATOM     45  N   UNL     1      41.353  30.750  40.945  0.00  0.00    +0.000 NA
ENDBRANCH  33  38
ENDBRANCH  24  26
ENDBRANCH   6  24
TORSDOF 6
