
 OpenBabel03272509113D

 27 29  0  0  0  0  0  0  0  0999 V2000
   35.6720   30.7200   48.5560 C   0  0  0  0  0  0  0  0  0  0  0  0
   34.7410   29.7750   48.0750 C   0  0  0  0  0  0  0  0  0  0  0  0
   34.4260   28.6790   48.8700 C   0  0  0  0  0  0  0  0  0  0  0  0
   35.0280   28.5510   50.0920 N   0  0  0  0  0  0  0  0  0  0  0  0
   35.9230   29.4820   50.5260 C   0  0  0  0  0  0  0  0  0  0  0  0
   36.2370   30.5540   49.7620 N   0  0  0  0  0  0  0  0  0  0  0  0
   35.9740   31.5870   48.0230 H   0  0  0  0  0  0  0  0  0  0  0  0
   36.4080   29.3980   51.4900 H   0  0  0  0  0  0  0  0  0  0  0  0
   33.4830   27.6700   48.4480 C   0  0  0  0  0  0  0  0  0  0  0  0
   32.1700   27.8150   48.7940 C   0  0  0  0  0  0  0  0  0  0  0  0
   31.2090   26.8780   48.4140 C   0  0  0  0  0  0  0  0  0  0  0  0
   31.6410   25.7810   47.6680 C   0  0  0  0  0  0  0  0  0  0  0  0
   32.9710   25.5810   47.2870 C   0  0  0  0  0  0  0  0  0  0  0  0
   33.8440   26.5650   47.7100 C   0  0  0  0  0  0  0  0  0  0  0  0
   31.6880   28.5800   49.3680 H   0  0  0  0  0  0  0  0  0  0  0  0
   30.1560   26.9160   48.6440 H   0  0  0  0  0  0  0  0  0  0  0  0
   30.9530   25.0030   47.3320 H   0  0  0  0  0  0  0  0  0  0  0  0
   33.2620   24.7180   46.7090 H   0  0  0  0  0  0  0  0  0  0  0  0
   34.8940   26.4700   47.4470 H   0  0  0  0  0  0  0  0  0  0  0  0
   34.2500   30.0840   46.7710 C   0  0  0  0  0  0  0  0  0  0  0  0
   35.2000   29.8910   45.7560 C   0  0  0  0  0  0  0  0  0  0  0  0
   36.2220   29.5450   45.9370 H   0  0  0  0  0  0  0  0  0  0  0  0
   34.9280   30.1250   44.4250 C   0  0  0  0  0  0  0  0  0  0  0  0
   35.6590   29.9760   43.6440 H   0  0  0  0  0  0  0  0  0  0  0  0
   33.6830   30.5640   44.0330 C   0  0  0  0  0  0  0  0  0  0  0  0
   32.7720   30.7420   45.0680 C   0  0  0  0  0  0  0  0  0  0  0  0
   33.0260   30.5160   46.3810 N   0  0  0  0  0  0  0  0  0  0  0  0
  1  6  1  0  0  0  0
  2  1  2  0  0  0  0
  2  3  1  0  0  0  0
  3  4  2  0  0  0  0
  4  5  1  0  0  0  0
  5  8  1  0  0  0  0
  6  5  2  0  0  0  0
  7  1  1  0  0  0  0
  9 10  1  0  0  0  0
  9  3  1  0  0  0  0
 10 15  1  0  0  0  0
 11 16  1  0  0  0  0
 11 10  2  0  0  0  0
 12 11  1  0  0  0  0
 13 12  2  0  0  0  0
 13 14  1  0  0  0  0
 14  9  2  0  0  0  0
 17 12  1  0  0  0  0
 18 13  1  0  0  0  0
 19 14  1  0  0  0  0
 20  2  1  0  0  0  0
 21 22  1  0  0  0  0
 21 20  2  0  0  0  0
 23 21  1  0  0  0  0
 24 23  1  0  0  0  0
 25 23  2  0  0  0  0
 25 26  1  0  0  0  0
 26 27  2  0  0  0  0
 27 20  1  0  0  0  0
M  END
>  <minimizedAffinity>
-4.65090656

>  <minimizedRMSD>
7.4918108

$$$$
