
 OpenBabel03272506103D

 43 46  0  0  0  0  0  0  0  0999 V2000
   36.7940   26.2920   32.3940 C   0  0  0  0  0  0  0  0  0  0  0  0
   36.7110   26.1490   31.2950 H   0  0  0  0  0  0  0  0  0  0  0  0
   35.7590   26.2820   32.7890 H   0  0  0  0  0  0  0  0  0  0  0  0
   37.5860   25.1540   32.9720 C   0  0  0  0  0  0  0  0  0  0  0  0
   38.1410   24.1630   32.0650 C   0  0  0  0  0  0  0  0  0  0  0  0
   38.9550   23.0770   33.2030 S   0  0  0  0  0  0  0  0  0  0  0  0
   38.4610   24.0680   34.7370 C   0  0  0  0  0  0  0  0  0  0  0  0
   37.8430   24.9460   34.2270 N   0  0  0  0  0  0  0  0  0  0  0  0
   38.7420   23.8420   36.1370 N   0  0  0  0  0  0  0  0  0  0  0  0
   39.9530   23.1520   36.4370 C   0  0  0  0  0  0  0  0  0  0  0  0
   40.0690   22.6710   37.8320 C   0  0  0  0  0  0  0  0  0  0  0  0
   38.7800   22.6800   38.5330 N   0  0  0  0  0  0  0  0  0  0  0  0
   38.3470   24.0730   38.4910 C   0  0  0  0  0  0  0  0  0  0  0  0
   37.8000   24.3190   37.1170 C   0  0  0  0  0  0  0  0  0  0  0  0
   38.0560   24.1390   31.0240 H   0  0  0  0  0  0  0  0  0  0  0  0
   40.0050   22.2740   35.7550 H   0  0  0  0  0  0  0  0  0  0  0  0
   40.8390   23.7880   36.1450 H   0  0  0  0  0  0  0  0  0  0  0  0
   40.5500   21.6690   37.8670 H   0  0  0  0  0  0  0  0  0  0  0  0
   40.7890   23.3510   38.3620 H   0  0  0  0  0  0  0  0  0  0  0  0
   38.8840   22.2990   39.4780 H   0  0  0  0  0  0  0  0  0  0  0  0
   39.1350   24.7750   38.7960 H   0  0  0  0  0  0  0  0  0  0  0  0
   37.4950   24.1430   39.2180 H   0  0  0  0  0  0  0  0  0  0  0  0
   37.5850   25.4060   37.0240 H   0  0  0  0  0  0  0  0  0  0  0  0
   36.8600   23.7030   37.0460 H   0  0  0  0  0  0  0  0  0  0  0  0
   37.4630   27.5940   32.6600 C   0  0  0  0  0  0  0  0  0  0  0  0
   38.3120   27.7610   31.9660 H   0  0  0  0  0  0  0  0  0  0  0  0
   37.8240   27.6830   33.7190 H   0  0  0  0  0  0  0  0  0  0  0  0
   35.3100   30.2150   31.1740 C   0  0  0  0  0  0  0  0  0  0  0  0
   34.7160   30.8020   32.2940 C   0  0  0  0  0  0  0  0  0  0  0  0
   35.0610   30.2920   33.5450 C   0  0  0  0  0  0  0  0  0  0  0  0
   35.9400   29.2710   33.5830 N   0  0  0  0  0  0  0  0  0  0  0  0
   36.4920   28.7330   32.4780 C   0  0  0  0  0  0  0  0  0  0  0  0
   36.1840   29.1960   31.2820 N   0  0  0  0  0  0  0  0  0  0  0  0
   35.0400   30.6150   30.2100 H   0  0  0  0  0  0  0  0  0  0  0  0
   34.0190   31.6110   32.2560 H   0  0  0  0  0  0  0  0  0  0  0  0
   34.5340   30.7880   34.8100 C   0  0  0  0  0  0  0  0  0  0  0  0
   35.2680   31.5230   35.7010 C   0  0  0  0  0  0  0  0  0  0  0  0
   36.2960   31.7670   35.4870 H   0  0  0  0  0  0  0  0  0  0  0  0
   34.7970   31.9970   36.8890 C   0  0  0  0  0  0  0  0  0  0  0  0
   35.4080   32.5860   37.5900 H   0  0  0  0  0  0  0  0  0  0  0  0
   33.5010   31.7420   37.2570 C   0  0  0  0  0  3  0  0  0  0  0  0
   32.7750   31.0010   36.3510 C   0  0  0  0  0  3  0  0  0  0  0  0
   33.2680   30.5520   35.1950 N   0  0  0  0  0  0  0  0  0  0  0  0
  1 25  1  0  0  0  0
  1  3  1  0  0  0  0
  1  4  1  0  0  0  0
  2  1  1  0  0  0  0
  4  8  1  0  0  0  0
  5  4  2  0  0  0  0
  5  6  1  0  0  0  0
  6  7  1  0  0  0  0
  7  9  1  0  0  0  0
  8  7  2  0  0  0  0
  9 10  1  0  0  0  0
  9 14  1  0  0  0  0
 10 11  1  0  0  0  0
 11 18  1  0  0  0  0
 11 19  1  0  0  0  0
 11 12  1  0  0  0  0
 12 20  1  0  0  0  0
 13 12  1  0  0  0  0
 13 21  1  0  0  0  0
 13 22  1  0  0  0  0
 14 13  1  0  0  0  0
 15  5  1  0  0  0  0
 16 10  1  0  0  0  0
 17 10  1  0  0  0  0
 23 14  1  0  0  0  0
 24 14  1  0  0  0  0
 25 27  1  0  0  0  0
 26 25  1  0  0  0  0
 28 33  2  0  0  0  0
 28 29  1  0  0  0  0
 29 30  2  0  0  0  0
 30 31  1  0  0  0  0
 30 36  1  0  0  0  0
 32 25  1  0  0  0  0
 32 31  2  0  0  0  0
 33 32  1  0  0  0  0
 34 28  1  0  0  0  0
 35 29  1  0  0  0  0
 36 43  2  0  0  0  0
 36 37  1  0  0  0  0
 37 39  2  0  0  0  0
 38 37  1  0  0  0  0
 39 41  1  0  0  0  0
 39 40  1  0  0  0  0
 42 41  2  0  0  0  0
 43 42  1  0  0  0  0
M  END
>  <minimizedAffinity>
-6.27684975

$$$$

 OpenBabel03272506103D

 43 46  0  0  0  0  0  0  0  0999 V2000
   39.3330   26.5540   31.9760 C   0  0  0  0  0  0  0  0  0  0  0  0
   38.6820   27.3060   31.4790 H   0  0  0  0  0  0  0  0  0  0  0  0
   40.3720   26.9290   31.8820 H   0  0  0  0  0  0  0  0  0  0  0  0
   38.9410   26.4540   33.4220 C   0  0  0  0  0  0  0  0  0  0  0  0
   38.2750   27.5870   34.0420 C   0  0  0  0  0  0  0  0  0  0  0  0
   38.0340   26.9830   35.6890 S   0  0  0  0  0  0  0  0  0  0  0  0
   38.8450   25.3070   35.3550 C   0  0  0  0  0  0  0  0  0  0  0  0
   39.1320   25.4400   34.2090 N   0  0  0  0  0  0  0  0  0  0  0  0
   39.0620   24.1740   36.2260 N   0  0  0  0  0  0  0  0  0  0  0  0
   38.1240   24.0000   37.2860 C   0  0  0  0  0  0  0  0  0  0  0  0
   38.5310   23.0310   38.3280 C   0  0  0  0  0  0  0  0  0  0  0  0
   39.9610   22.7090   38.2610 N   0  0  0  0  0  0  0  0  0  0  0  0
   40.1520   22.1550   36.9240 C   0  0  0  0  0  0  0  0  0  0  0  0
   40.1890   23.3130   35.9730 C   0  0  0  0  0  0  0  0  0  0  0  0
   38.0240   28.4970   33.5930 H   0  0  0  0  0  0  0  0  0  0  0  0
   37.9840   24.9950   37.7630 H   0  0  0  0  0  0  0  0  0  0  0  0
   37.1090   23.7460   36.8620 H   0  0  0  0  0  0  0  0  0  0  0  0
   38.2380   23.3890   39.3390 H   0  0  0  0  0  0  0  0  0  0  0  0
   37.9280   22.0970   38.1710 H   0  0  0  0  0  0  0  0  0  0  0  0
   40.2220   22.0740   39.0210 H   0  0  0  0  0  0  0  0  0  0  0  0
   39.4100   21.3860   36.6710 H   0  0  0  0  0  0  0  0  0  0  0  0
   41.1720   21.6880   36.9370 H   0  0  0  0  0  0  0  0  0  0  0  0
   40.2020   22.9050   34.9380 H   0  0  0  0  0  0  0  0  0  0  0  0
   41.1350   23.8750   36.2090 H   0  0  0  0  0  0  0  0  0  0  0  0
   39.1660   25.2450   31.2880 C   0  0  0  0  0  0  0  0  0  0  0  0
   39.7310   24.4420   31.8040 H   0  0  0  0  0  0  0  0  0  0  0  0
   39.4750   25.2830   30.2090 H   0  0  0  0  0  0  0  0  0  0  0  0
   35.4730   25.3060   31.0300 C   0  0  0  0  0  0  0  0  0  0  0  0
   35.1220   23.9730   31.2620 C   0  0  0  0  0  0  0  0  0  0  0  0
   36.1560   23.0710   31.5050 C   0  0  0  0  0  0  0  0  0  0  0  0
   37.4170   23.5470   31.4970 N   0  0  0  0  0  0  0  0  0  0  0  0
   37.7130   24.8420   31.2680 C   0  0  0  0  0  0  0  0  0  0  0  0
   36.7550   25.7180   31.0370 N   0  0  0  0  0  0  0  0  0  0  0  0
   34.6680   25.9990   30.8440 H   0  0  0  0  0  0  0  0  0  0  0  0
   34.1200   23.6030   31.2670 H   0  0  0  0  0  0  0  0  0  0  0  0
   35.9650   21.6490   31.7640 C   0  0  0  0  0  0  0  0  0  0  0  0
   35.5540   21.1470   32.9690 C   0  0  0  0  0  0  0  0  0  0  0  0
   35.3510   21.8120   33.7930 H   0  0  0  0  0  0  0  0  0  0  0  0
   35.3680   19.8240   33.2350 C   0  0  0  0  0  0  0  0  0  0  0  0
   35.0370   19.4430   34.2130 H   0  0  0  0  0  0  0  0  0  0  0  0
   35.5990   18.8940   32.2530 C   0  0  0  0  0  3  0  0  0  0  0  0
   36.0120   19.4140   31.0460 C   0  0  0  0  0  3  0  0  0  0  0  0
   36.1840   20.7180   30.8200 N   0  0  0  0  0  0  0  0  0  0  0  0
  1  4  1  0  0  0  0
  2  1  1  0  0  0  0
  3  1  1  0  0  0  0
  4  5  2  0  0  0  0
  4  8  1  0  0  0  0
  5  6  1  0  0  0  0
  7  6  1  0  0  0  0
  7  9  1  0  0  0  0
  8  7  2  0  0  0  0
  9 10  1  0  0  0  0
 10 16  1  0  0  0  0
 10 11  1  0  0  0  0
 11 18  1  0  0  0  0
 12 11  1  0  0  0  0
 12 20  1  0  0  0  0
 13 22  1  0  0  0  0
 13 12  1  0  0  0  0
 14 24  1  0  0  0  0
 14  9  1  0  0  0  0
 14 13  1  0  0  0  0
 15  5  1  0  0  0  0
 17 10  1  0  0  0  0
 19 11  1  0  0  0  0
 21 13  1  0  0  0  0
 23 14  1  0  0  0  0
 25 26  1  0  0  0  0
 25  1  1  0  0  0  0
 27 25  1  0  0  0  0
 28 33  2  0  0  0  0
 28 29  1  0  0  0  0
 29 35  1  0  0  0  0
 29 30  2  0  0  0  0
 30 36  1  0  0  0  0
 31 30  1  0  0  0  0
 32 25  1  0  0  0  0
 32 31  2  0  0  0  0
 33 32  1  0  0  0  0
 34 28  1  0  0  0  0
 36 37  1  0  0  0  0
 37 39  2  0  0  0  0
 37 38  1  0  0  0  0
 39 40  1  0  0  0  0
 41 39  1  0  0  0  0
 42 41  2  0  0  0  0
 43 42  1  0  0  0  0
 43 36  2  0  0  0  0
M  END
>  <minimizedAffinity>
-6.04379511

$$$$

 OpenBabel03272506103D

 43 46  0  0  0  0  0  0  0  0999 V2000
   37.7200   25.5680   30.9450 C   0  0  0  0  0  0  0  0  0  0  0  0
   38.6050   26.0520   31.4120 H   0  0  0  0  0  0  0  0  0  0  0  0
   37.5450   26.0950   29.9860 H   0  0  0  0  0  0  0  0  0  0  0  0
   38.0330   24.1200   30.6980 C   0  0  0  0  0  0  0  0  0  0  0  0
   39.2140   23.7880   29.9200 C   0  0  0  0  0  0  0  0  0  0  0  0
   39.1360   22.0190   29.9190 S   0  0  0  0  0  0  0  0  0  0  0  0
   37.5510   21.9370   30.9480 C   0  0  0  0  0  0  0  0  0  0  0  0
   37.3500   23.0970   31.1130 N   0  0  0  0  0  0  0  0  0  0  0  0
   36.7850   20.8030   31.4120 N   0  0  0  0  0  0  0  0  0  0  0  0
   37.5120   19.5970   31.6380 C   0  0  0  0  0  0  0  0  0  0  0  0
   36.6770   18.3880   31.8160 C   0  0  0  0  0  0  0  0  0  0  0  0
   35.2930   18.5960   31.3730 N   0  0  0  0  0  0  0  0  0  0  0  0
   34.8050   19.6990   32.1960 C   0  0  0  0  0  0  0  0  0  0  0  0
   35.3670   20.9600   31.6130 C   0  0  0  0  0  0  0  0  0  0  0  0
   39.9000   24.4520   29.4940 H   0  0  0  0  0  0  0  0  0  0  0  0
   38.1700   19.4440   30.7540 H   0  0  0  0  0  0  0  0  0  0  0  0
   38.2250   19.7350   32.5010 H   0  0  0  0  0  0  0  0  0  0  0  0
   37.1400   17.5090   31.3170 H   0  0  0  0  0  0  0  0  0  0  0  0
   36.6870   18.1320   32.9090 H   0  0  0  0  0  0  0  0  0  0  0  0
   34.7530   17.7310   31.4660 H   0  0  0  0  0  0  0  0  0  0  0  0
   35.0180   19.5610   33.2640 H   0  0  0  0  0  0  0  0  0  0  0  0
   33.6940   19.7160   32.0440 H   0  0  0  0  0  0  0  0  0  0  0  0
   35.1140   21.7970   32.3000 H   0  0  0  0  0  0  0  0  0  0  0  0
   34.8710   21.0830   30.6100 H   0  0  0  0  0  0  0  0  0  0  0  0
   36.5550   25.7110   31.8610 C   0  0  0  0  0  0  0  0  0  0  0  0
   36.0520   24.7370   32.0290 H   0  0  0  0  0  0  0  0  0  0  0  0
   35.8050   26.4590   31.4890 H   0  0  0  0  0  0  0  0  0  0  0  0
   37.2380   27.9090   34.7610 C   0  0  0  0  0  0  0  0  0  0  0  0
   37.8590   27.0450   35.6670 C   0  0  0  0  0  0  0  0  0  0  0  0
   38.0360   25.7200   35.2730 C   0  0  0  0  0  0  0  0  0  0  0  0
   37.5960   25.3680   34.0480 N   0  0  0  0  0  0  0  0  0  0  0  0
   37.0010   26.2330   33.2030 C   0  0  0  0  0  0  0  0  0  0  0  0
   36.8220   27.4930   33.5500 N   0  0  0  0  0  0  0  0  0  0  0  0
   37.1060   28.9330   35.0720 H   0  0  0  0  0  0  0  0  0  0  0  0
   38.2060   27.3320   36.6370 H   0  0  0  0  0  0  0  0  0  0  0  0
   38.6630   24.6920   36.0950 C   0  0  0  0  0  0  0  0  0  0  0  0
   38.2200   24.3440   37.3420 C   0  0  0  0  0  0  0  0  0  0  0  0
   37.3630   24.8380   37.7710 H   0  0  0  0  0  0  0  0  0  0  0  0
   38.7890   23.3880   38.1280 C   0  0  0  0  0  0  0  0  0  0  0  0
   38.4150   23.1250   39.1290 H   0  0  0  0  0  0  0  0  0  0  0  0
   39.8860   22.7010   37.6760 C   0  0  0  0  0  3  0  0  0  0  0  0
   40.3210   23.0610   36.4190 C   0  0  0  0  0  3  0  0  0  0  0  0
   39.7380   24.0050   35.6750 N   0  0  0  0  0  0  0  0  0  0  0  0
  1  2  1  0  0  0  0
  1 25  1  0  0  0  0
  3  1  1  0  0  0  0
  4  1  1  0  0  0  0
  4  8  1  0  0  0  0
  5  4  2  0  0  0  0
  6  5  1  0  0  0  0
  6  7  1  0  0  0  0
  7  8  2  0  0  0  0
  7  9  1  0  0  0  0
  9 14  1  0  0  0  0
  9 10  1  0  0  0  0
 10 11  1  0  0  0  0
 10 17  1  0  0  0  0
 11 19  1  0  0  0  0
 12 20  1  0  0  0  0
 12 11  1  0  0  0  0
 12 13  1  0  0  0  0
 13 21  1  0  0  0  0
 14 13  1  0  0  0  0
 14 23  1  0  0  0  0
 15  5  1  0  0  0  0
 16 10  1  0  0  0  0
 18 11  1  0  0  0  0
 22 13  1  0  0  0  0
 24 14  1  0  0  0  0
 25 26  1  0  0  0  0
 25 32  1  0  0  0  0
 27 25  1  0  0  0  0
 28 34  1  0  0  0  0
 28 29  1  0  0  0  0
 29 35  1  0  0  0  0
 30 29  2  0  0  0  0
 30 36  1  0  0  0  0
 31 30  1  0  0  0  0
 32 33  1  0  0  0  0
 32 31  2  0  0  0  0
 33 28  2  0  0  0  0
 36 37  1  0  0  0  0
 37 38  1  0  0  0  0
 37 39  2  0  0  0  0
 39 40  1  0  0  0  0
 41 39  1  0  0  0  0
 42 41  2  0  0  0  0
 43 36  2  0  0  0  0
 43 42  1  0  0  0  0
M  END
>  <minimizedAffinity>
-5.87961531

$$$$

 OpenBabel03272506103D

 43 46  0  0  0  0  0  0  0  0999 V2000
   36.8090   26.1190   32.3940 C   0  0  0  0  0  0  0  0  0  0  0  0
   36.5560   25.8450   31.3470 H   0  0  0  0  0  0  0  0  0  0  0  0
   35.8460   26.2150   32.9340 H   0  0  0  0  0  0  0  0  0  0  0  0
   37.6400   25.0220   32.9950 C   0  0  0  0  0  0  0  0  0  0  0  0
   38.2570   24.0520   32.1070 C   0  0  0  0  0  0  0  0  0  0  0  0
   39.0960   23.0110   33.2680 S   0  0  0  0  0  0  0  0  0  0  0  0
   38.5260   23.9860   34.7850 C   0  0  0  0  0  0  0  0  0  0  0  0
   37.8800   24.8330   34.2570 N   0  0  0  0  0  0  0  0  0  0  0  0
   38.7880   23.7810   36.1910 N   0  0  0  0  0  0  0  0  0  0  0  0
   40.0230   23.1480   36.5200 C   0  0  0  0  0  0  0  0  0  0  0  0
   40.1320   22.6810   37.9210 C   0  0  0  0  0  0  0  0  0  0  0  0
   38.8300   22.6350   38.5950 N   0  0  0  0  0  0  0  0  0  0  0  0
   38.3340   24.0070   38.5360 C   0  0  0  0  0  0  0  0  0  0  0  0
   37.8050   24.2200   37.1500 C   0  0  0  0  0  0  0  0  0  0  0  0
   38.1950   24.0190   31.0640 H   0  0  0  0  0  0  0  0  0  0  0  0
   40.1280   22.2700   35.8450 H   0  0  0  0  0  0  0  0  0  0  0  0
   40.8850   23.8230   36.2430 H   0  0  0  0  0  0  0  0  0  0  0  0
   40.6570   21.7020   37.9720 H   0  0  0  0  0  0  0  0  0  0  0  0
   40.8100   23.3960   38.4610 H   0  0  0  0  0  0  0  0  0  0  0  0
   38.9310   22.2650   39.5450 H   0  0  0  0  0  0  0  0  0  0  0  0
   39.0830   24.7450   38.8520 H   0  0  0  0  0  0  0  0  0  0  0  0
   37.4650   24.0420   39.2440 H   0  0  0  0  0  0  0  0  0  0  0  0
   37.5440   25.2950   37.0450 H   0  0  0  0  0  0  0  0  0  0  0  0
   36.8960   23.5620   37.0630 H   0  0  0  0  0  0  0  0  0  0  0  0
   37.5550   27.4070   32.3860 C   0  0  0  0  0  0  0  0  0  0  0  0
   38.3700   27.3970   31.6340 H   0  0  0  0  0  0  0  0  0  0  0  0
   37.9800   27.6640   33.3930 H   0  0  0  0  0  0  0  0  0  0  0  0
   36.0860   30.4450   30.8630 C   0  0  0  0  0  0  0  0  0  0  0  0
   34.8640   30.5680   31.5290 C   0  0  0  0  0  0  0  0  0  0  0  0
   34.5580   29.6080   32.4920 C   0  0  0  0  0  0  0  0  0  0  0  0
   35.4620   28.6320   32.7100 N   0  0  0  0  0  0  0  0  0  0  0  0
   36.6310   28.5490   32.0460 C   0  0  0  0  0  0  0  0  0  0  0  0
   36.9460   29.4440   31.1300 N   0  0  0  0  0  0  0  0  0  0  0  0
   36.3160   31.1920   30.1200 H   0  0  0  0  0  0  0  0  0  0  0  0
   34.1520   31.3450   31.3500 H   0  0  0  0  0  0  0  0  0  0  0  0
   33.3290   29.5890   33.2760 C   0  0  0  0  0  0  0  0  0  0  0  0
   33.2960   29.3840   34.6290 C   0  0  0  0  0  0  0  0  0  0  0  0
   34.2110   29.2250   35.1760 H   0  0  0  0  0  0  0  0  0  0  0  0
   32.1610   29.3630   35.3820 C   0  0  0  0  0  0  0  0  0  0  0  0
   32.1590   29.1950   36.4700 H   0  0  0  0  0  0  0  0  0  0  0  0
   30.9430   29.5540   34.7820 C   0  0  0  0  0  3  0  0  0  0  0  0
   30.9920   29.7590   33.4200 C   0  0  0  0  0  3  0  0  0  0  0  0
   32.1240   29.7740   32.7120 N   0  0  0  0  0  0  0  0  0  0  0  0
  1  3  1  0  0  0  0
  1  4  1  0  0  0  0
  2  1  1  0  0  0  0
  4  8  1  0  0  0  0
  5  4  2  0  0  0  0
  5  6  1  0  0  0  0
  6  7  1  0  0  0  0
  7  9  1  0  0  0  0
  8  7  2  0  0  0  0
  9 10  1  0  0  0  0
  9 14  1  0  0  0  0
 10 11  1  0  0  0  0
 11 18  1  0  0  0  0
 11 19  1  0  0  0  0
 11 12  1  0  0  0  0
 12 20  1  0  0  0  0
 13 12  1  0  0  0  0
 13 21  1  0  0  0  0
 13 22  1  0  0  0  0
 14 13  1  0  0  0  0
 15  5  1  0  0  0  0
 16 10  1  0  0  0  0
 17 10  1  0  0  0  0
 23 14  1  0  0  0  0
 24 14  1  0  0  0  0
 25  1  1  0  0  0  0
 25 27  1  0  0  0  0
 26 25  1  0  0  0  0
 28 33  2  0  0  0  0
 28 29  1  0  0  0  0
 29 30  2  0  0  0  0
 30 31  1  0  0  0  0
 30 36  1  0  0  0  0
 32 25  1  0  0  0  0
 32 31  2  0  0  0  0
 33 32  1  0  0  0  0
 34 28  1  0  0  0  0
 35 29  1  0  0  0  0
 36 37  1  0  0  0  0
 37 38  1  0  0  0  0
 37 39  2  0  0  0  0
 39 40  1  0  0  0  0
 41 39  1  0  0  0  0
 42 41  2  0  0  0  0
 43 36  2  0  0  0  0
 43 42  1  0  0  0  0
M  END
>  <minimizedAffinity>
-5.87576962

$$$$

 OpenBabel03272506103D

 43 46  0  0  0  0  0  0  0  0999 V2000
   35.7610   23.1290   31.9240 C   0  0  0  0  0  0  0  0  0  0  0  0
   35.1260   22.3010   31.5410 H   0  0  0  0  0  0  0  0  0  0  0  0
   35.1630   23.6510   32.6970 H   0  0  0  0  0  0  0  0  0  0  0  0
   37.0050   22.5450   32.5300 C   0  0  0  0  0  0  0  0  0  0  0  0
   37.7820   21.6010   31.7450 C   0  0  0  0  0  0  0  0  0  0  0  0
   39.0980   21.2250   32.8700 S   0  0  0  0  0  0  0  0  0  0  0  0
   38.4560   22.3610   34.2390 C   0  0  0  0  0  0  0  0  0  0  0  0
   37.4820   22.7930   33.7110 N   0  0  0  0  0  0  0  0  0  0  0  0
   38.9820   22.6410   35.5560 N   0  0  0  0  0  0  0  0  0  0  0  0
   40.3950   22.5280   35.7110 C   0  0  0  0  0  0  0  0  0  0  0  0
   40.8700   22.5210   37.1130 C   0  0  0  0  0  0  0  0  0  0  0  0
   39.7850   22.2710   38.0690 N   0  0  0  0  0  0  0  0  0  0  0  0
   38.8360   23.3580   37.8400 C   0  0  0  0  0  0  0  0  0  0  0  0
   38.0640   23.0100   36.6030 C   0  0  0  0  0  0  0  0  0  0  0  0
   37.5800   21.2650   30.7770 H   0  0  0  0  0  0  0  0  0  0  0  0
   40.6990   21.5720   35.2300 H   0  0  0  0  0  0  0  0  0  0  0  0
   40.9130   23.3270   35.1050 H   0  0  0  0  0  0  0  0  0  0  0  0
   41.7070   21.8000   37.2450 H   0  0  0  0  0  0  0  0  0  0  0  0
   41.3270   23.5260   37.3180 H   0  0  0  0  0  0  0  0  0  0  0  0
   40.1510   22.2260   39.0240 H   0  0  0  0  0  0  0  0  0  0  0  0
   39.3160   24.3440   37.8100 H   0  0  0  0  0  0  0  0  0  0  0  0
   38.1270   23.3220   38.7090 H   0  0  0  0  0  0  0  0  0  0  0  0
   37.4280   23.8830   36.3390 H   0  0  0  0  0  0  0  0  0  0  0  0
   37.4420   22.1110   36.8720 H   0  0  0  0  0  0  0  0  0  0  0  0
   36.0970   24.0380   30.7950 C   0  0  0  0  0  0  0  0  0  0  0  0
   35.2530   24.1250   30.0810 H   0  0  0  0  0  0  0  0  0  0  0  0
   37.0200   23.7160   30.2430 H   0  0  0  0  0  0  0  0  0  0  0  0
   35.8310   27.6010   31.7670 C   0  0  0  0  0  0  0  0  0  0  0  0
   37.1060   27.8850   32.2640 C   0  0  0  0  0  0  0  0  0  0  0  0
   38.0400   26.8510   32.2600 C   0  0  0  0  0  0  0  0  0  0  0  0
   37.6480   25.6550   31.7790 N   0  0  0  0  0  0  0  0  0  0  0  0
   36.4070   25.4230   31.3070 C   0  0  0  0  0  0  0  0  0  0  0  0
   35.5030   26.3830   31.2980 N   0  0  0  0  0  0  0  0  0  0  0  0
   35.1140   28.4060   31.7710 H   0  0  0  0  0  0  0  0  0  0  0  0
   37.4100   28.8360   32.6450 H   0  0  0  0  0  0  0  0  0  0  0  0
   39.4100   26.9760   32.7430 C   0  0  0  0  0  0  0  0  0  0  0  0
   39.7870   26.7160   34.0320 C   0  0  0  0  0  0  0  0  0  0  0  0
   39.0550   26.3980   34.7580 H   0  0  0  0  0  0  0  0  0  0  0  0
   41.0600   26.8260   34.5060 C   0  0  0  0  0  0  0  0  0  0  0  0
   41.3390   26.6110   35.5490 H   0  0  0  0  0  0  0  0  0  0  0  0
   42.0660   27.2240   33.6640 C   0  0  0  0  0  3  0  0  0  0  0  0
   41.6730   27.4830   32.3690 C   0  0  0  0  0  3  0  0  0  0  0  0
   40.4140   27.3640   31.9390 N   0  0  0  0  0  0  0  0  0  0  0  0
  1  4  1  0  0  0  0
  1  3  1  0  0  0  0
  2  1  1  0  0  0  0
  4  8  1  0  0  0  0
  5  4  2  0  0  0  0
  5  6  1  0  0  0  0
  6  7  1  0  0  0  0
  7  9  1  0  0  0  0
  8  7  2  0  0  0  0
  9 10  1  0  0  0  0
  9 14  1  0  0  0  0
 10 11  1  0  0  0  0
 11 18  1  0  0  0  0
 11 19  1  0  0  0  0
 11 12  1  0  0  0  0
 12 20  1  0  0  0  0
 13 12  1  0  0  0  0
 13 22  1  0  0  0  0
 14 24  1  0  0  0  0
 14 13  1  0  0  0  0
 15  5  1  0  0  0  0
 16 10  1  0  0  0  0
 17 10  1  0  0  0  0
 21 13  1  0  0  0  0
 23 14  1  0  0  0  0
 25 32  1  0  0  0  0
 25  1  1  0  0  0  0
 26 25  1  0  0  0  0
 27 25  1  0  0  0  0
 28 34  1  0  0  0  0
 28 29  1  0  0  0  0
 29 35  1  0  0  0  0
 30 29  2  0  0  0  0
 30 36  1  0  0  0  0
 31 30  1  0  0  0  0
 32 31  2  0  0  0  0
 33 32  1  0  0  0  0
 33 28  2  0  0  0  0
 36 37  1  0  0  0  0
 37 39  2  0  0  0  0
 37 38  1  0  0  0  0
 39 40  1  0  0  0  0
 41 39  1  0  0  0  0
 42 41  2  0  0  0  0
 43 42  1  0  0  0  0
 43 36  2  0  0  0  0
M  END
>  <minimizedAffinity>
-5.87564707

$$$$

 OpenBabel03272506103D

 43 46  0  0  0  0  0  0  0  0999 V2000
   37.9110   27.3260   33.1840 C   0  0  0  0  0  0  0  0  0  0  0  0
   38.7670   28.0250   33.0600 H   0  0  0  0  0  0  0  0  0  0  0  0
   38.0400   26.8460   34.1740 H   0  0  0  0  0  0  0  0  0  0  0  0
   36.6330   28.1140   33.1460 C   0  0  0  0  0  0  0  0  0  0  0  0
   35.7350   27.9280   32.0190 C   0  0  0  0  0  0  0  0  0  0  0  0
   34.4250   29.0430   32.4380 S   0  0  0  0  0  0  0  0  0  0  0  0
   35.2270   29.6190   34.0510 C   0  0  0  0  0  0  0  0  0  0  0  0
   36.2230   28.9710   34.0310 N   0  0  0  0  0  0  0  0  0  0  0  0
   34.7780   30.5720   35.0410 N   0  0  0  0  0  0  0  0  0  0  0  0
   33.3660   30.7240   35.1780 C   0  0  0  0  0  0  0  0  0  0  0  0
   32.9390   31.9030   35.9660 C   0  0  0  0  0  0  0  0  0  0  0  0
   34.0230   32.8750   36.1460 N   0  0  0  0  0  0  0  0  0  0  0  0
   35.0730   32.1330   36.8380 C   0  0  0  0  0  0  0  0  0  0  0  0
   35.7630   31.2910   35.8080 C   0  0  0  0  0  0  0  0  0  0  0  0
   35.8690   27.2910   31.2010 H   0  0  0  0  0  0  0  0  0  0  0  0
   32.9470   30.8150   34.1510 H   0  0  0  0  0  0  0  0  0  0  0  0
   32.9150   29.7730   35.5850 H   0  0  0  0  0  0  0  0  0  0  0  0
   32.0360   32.3730   35.5180 H   0  0  0  0  0  0  0  0  0  0  0  0
   32.5980   31.5300   36.9680 H   0  0  0  0  0  0  0  0  0  0  0  0
   33.6860   33.6980   36.6530 H   0  0  0  0  0  0  0  0  0  0  0  0
   34.6990   31.5710   37.7030 H   0  0  0  0  0  0  0  0  0  0  0  0
   35.8020   32.9070   37.1930 H   0  0  0  0  0  0  0  0  0  0  0  0
   36.4780   30.6220   36.3350 H   0  0  0  0  0  0  0  0  0  0  0  0
   36.2950   32.0120   35.1270 H   0  0  0  0  0  0  0  0  0  0  0  0
   37.9480   26.3210   32.0870 C   0  0  0  0  0  0  0  0  0  0  0  0
   38.8820   26.4050   31.4940 H   0  0  0  0  0  0  0  0  0  0  0  0
   37.0630   26.4000   31.4010 H   0  0  0  0  0  0  0  0  0  0  0  0
   37.5520   22.6570   32.4440 C   0  0  0  0  0  0  0  0  0  0  0  0
   37.8120   22.4470   33.8000 C   0  0  0  0  0  0  0  0  0  0  0  0
   38.1200   23.5630   34.5760 C   0  0  0  0  0  0  0  0  0  0  0  0
   38.1450   24.7630   33.9620 N   0  0  0  0  0  0  0  0  0  0  0  0
   37.8880   24.9240   32.6490 C   0  0  0  0  0  0  0  0  0  0  0  0
   37.5930   23.8850   31.8920 N   0  0  0  0  0  0  0  0  0  0  0  0
   37.3140   21.7890   31.8500 H   0  0  0  0  0  0  0  0  0  0  0  0
   37.7900   21.4920   34.2800 H   0  0  0  0  0  0  0  0  0  0  0  0
   38.4160   23.5190   36.0030 C   0  0  0  0  0  0  0  0  0  0  0  0
   37.6400   24.1190   36.9570 C   0  0  0  0  0  0  0  0  0  0  0  0
   36.7530   24.6620   36.6730 H   0  0  0  0  0  0  0  0  0  0  0  0
   37.8970   24.0910   38.2950 C   0  0  0  0  0  0  0  0  0  0  0  0
   37.2580   24.5820   39.0440 H   0  0  0  0  0  0  0  0  0  0  0  0
   39.0020   23.4260   38.7620 C   0  0  0  0  0  3  0  0  0  0  0  0
   39.7730   22.8270   37.7900 C   0  0  0  0  0  3  0  0  0  0  0  0
   39.4920   22.8740   36.4850 N   0  0  0  0  0  0  0  0  0  0  0  0
  1  3  1  0  0  0  0
  2  1  1  0  0  0  0
  4  1  1  0  0  0  0
  4  8  1  0  0  0  0
  5  6  1  0  0  0  0
  5  4  2  0  0  0  0
  6  7  1  0  0  0  0
  7  9  1  0  0  0  0
  8  7  2  0  0  0  0
  9 10  1  0  0  0  0
  9 14  1  0  0  0  0
 10 17  1  0  0  0  0
 10 11  1  0  0  0  0
 11 12  1  0  0  0  0
 11 19  1  0  0  0  0
 12 20  1  0  0  0  0
 12 13  1  0  0  0  0
 13 22  1  0  0  0  0
 13 21  1  0  0  0  0
 14 23  1  0  0  0  0
 14 13  1  0  0  0  0
 15  5  1  0  0  0  0
 16 10  1  0  0  0  0
 18 11  1  0  0  0  0
 24 14  1  0  0  0  0
 25 32  1  0  0  0  0
 25  1  1  0  0  0  0
 26 25  1  0  0  0  0
 27 25  1  0  0  0  0
 28 29  1  0  0  0  0
 29 35  1  0  0  0  0
 29 30  2  0  0  0  0
 30 36  1  0  0  0  0
 31 30  1  0  0  0  0
 32 31  2  0  0  0  0
 33 28  2  0  0  0  0
 33 32  1  0  0  0  0
 34 28  1  0  0  0  0
 36 43  2  0  0  0  0
 36 37  1  0  0  0  0
 37 39  2  0  0  0  0
 38 37  1  0  0  0  0
 39 41  1  0  0  0  0
 39 40  1  0  0  0  0
 42 41  2  0  0  0  0
 43 42  1  0  0  0  0
M  END
>  <minimizedAffinity>
-5.80951643

$$$$

 OpenBabel03272506103D

 43 46  0  0  0  0  0  0  0  0999 V2000
   37.5510   25.9000   35.1860 C   0  0  0  0  0  0  0  0  0  0  0  0
   36.4890   25.5830   35.1020 H   0  0  0  0  0  0  0  0  0  0  0  0
   37.5500   26.8540   35.7480 H   0  0  0  0  0  0  0  0  0  0  0  0
   38.3110   24.8470   35.9410 C   0  0  0  0  0  0  0  0  0  0  0  0
   37.7120   24.2810   37.1380 C   0  0  0  0  0  0  0  0  0  0  0  0
   38.9620   23.1300   37.6340 S   0  0  0  0  0  0  0  0  0  0  0  0
   40.1240   23.5400   36.1990 C   0  0  0  0  0  0  0  0  0  0  0  0
   39.4790   24.3680   35.6400 N   0  0  0  0  0  0  0  0  0  0  0  0
   41.4250   23.0110   35.8580 N   0  0  0  0  0  0  0  0  0  0  0  0
   41.6900   21.6690   36.2620 C   0  0  0  0  0  0  0  0  0  0  0  0
   43.1100   21.2590   36.1750 C   0  0  0  0  0  0  0  0  0  0  0  0
   44.0130   22.4070   36.0350 N   0  0  0  0  0  0  0  0  0  0  0  0
   43.5810   23.0700   34.8080 C   0  0  0  0  0  0  0  0  0  0  0  0
   42.3510   23.8560   35.1470 C   0  0  0  0  0  0  0  0  0  0  0  0
   36.7840   24.5210   37.5550 H   0  0  0  0  0  0  0  0  0  0  0  0
   41.3600   21.5780   37.3210 H   0  0  0  0  0  0  0  0  0  0  0  0
   41.0210   20.9590   35.6950 H   0  0  0  0  0  0  0  0  0  0  0  0
   43.3910   20.6180   37.0380 H   0  0  0  0  0  0  0  0  0  0  0  0
   43.2110   20.5900   35.2780 H   0  0  0  0  0  0  0  0  0  0  0  0
   44.9890   22.0950   36.0230 H   0  0  0  0  0  0  0  0  0  0  0  0
   43.4540   22.3730   33.9680 H   0  0  0  0  0  0  0  0  0  0  0  0
   44.3960   23.7980   34.5580 H   0  0  0  0  0  0  0  0  0  0  0  0
   41.9320   24.2620   34.2010 H   0  0  0  0  0  0  0  0  0  0  0  0
   42.6920   24.6790   35.8360 H   0  0  0  0  0  0  0  0  0  0  0  0
   38.1090   26.0780   33.8180 C   0  0  0  0  0  0  0  0  0  0  0  0
   39.0360   25.4860   33.6790 H   0  0  0  0  0  0  0  0  0  0  0  0
   38.3140   27.1550   33.5740 H   0  0  0  0  0  0  0  0  0  0  0  0
   35.5470   26.0230   31.1450 C   0  0  0  0  0  0  0  0  0  0  0  0
   35.3460   24.6560   30.9330 C   0  0  0  0  0  0  0  0  0  0  0  0
   36.0920   23.7710   31.7100 C   0  0  0  0  0  0  0  0  0  0  0  0
   36.9510   24.2960   32.6060 N   0  0  0  0  0  0  0  0  0  0  0  0
   37.1150   25.6220   32.7790 C   0  0  0  0  0  0  0  0  0  0  0  0
   36.4220   26.4830   32.0590 N   0  0  0  0  0  0  0  0  0  0  0  0
   34.9660   26.7020   30.5410 H   0  0  0  0  0  0  0  0  0  0  0  0
   34.6630   24.2480   30.2200 H   0  0  0  0  0  0  0  0  0  0  0  0
   36.0050   22.3190   31.6160 C   0  0  0  0  0  0  0  0  0  0  0  0
   35.0590   21.5720   32.2660 C   0  0  0  0  0  0  0  0  0  0  0  0
   34.3230   22.0530   32.8910 H   0  0  0  0  0  0  0  0  0  0  0  0
   34.9580   20.2160   32.1940 C   0  0  0  0  0  0  0  0  0  0  0  0
   34.1890   19.6360   32.7270 H   0  0  0  0  0  0  0  0  0  0  0  0
   35.8470   19.5070   31.4270 C   0  0  0  0  0  3  0  0  0  0  0  0
   36.7930   20.2710   30.7780 C   0  0  0  0  0  3  0  0  0  0  0  0
   36.8630   21.6020   30.8720 N   0  0  0  0  0  0  0  0  0  0  0  0
  1  3  1  0  0  0  0
  1  4  1  0  0  0  0
  2  1  1  0  0  0  0
  4  5  2  0  0  0  0
  5 15  1  0  0  0  0
  5  6  1  0  0  0  0
  7  6  1  0  0  0  0
  8  4  1  0  0  0  0
  8  7  2  0  0  0  0
  9  7  1  0  0  0  0
  9 10  1  0  0  0  0
 10 16  1  0  0  0  0
 11 10  1  0  0  0  0
 11 18  1  0  0  0  0
 12 11  1  0  0  0  0
 13 14  1  0  0  0  0
 13 12  1  0  0  0  0
 14 24  1  0  0  0  0
 14  9  1  0  0  0  0
 17 10  1  0  0  0  0
 19 11  1  0  0  0  0
 20 12  1  0  0  0  0
 21 13  1  0  0  0  0
 22 13  1  0  0  0  0
 23 14  1  0  0  0  0
 25  1  1  0  0  0  0
 26 25  1  0  0  0  0
 27 25  1  0  0  0  0
 28 33  1  0  0  0  0
 29 28  2  0  0  0  0
 29 30  1  0  0  0  0
 30 31  2  0  0  0  0
 31 32  1  0  0  0  0
 32 25  1  0  0  0  0
 33 32  2  0  0  0  0
 34 28  1  0  0  0  0
 35 29  1  0  0  0  0
 36 30  1  0  0  0  0
 36 37  1  0  0  0  0
 37 38  1  0  0  0  0
 39 37  2  0  0  0  0
 39 40  1  0  0  0  0
 41 39  1  0  0  0  0
 42 43  1  0  0  0  0
 42 41  2  0  0  0  0
 43 36  2  0  0  0  0
M  END
>  <minimizedAffinity>
-5.73007727

$$$$

 OpenBabel03272506103D

 43 46  0  0  0  0  0  0  0  0999 V2000
   36.4850   24.8290   31.8650 C   0  0  0  0  0  0  0  0  0  0  0  0
   36.2040   24.3510   30.9010 H   0  0  0  0  0  0  0  0  0  0  0  0
   35.5470   24.9490   32.4400 H   0  0  0  0  0  0  0  0  0  0  0  0
   37.4360   23.9240   32.5950 C   0  0  0  0  0  0  0  0  0  0  0  0
   38.1240   22.8870   31.8440 C   0  0  0  0  0  0  0  0  0  0  0  0
   39.0900   22.1270   33.1180 S   0  0  0  0  0  0  0  0  0  0  0  0
   38.4650   23.2730   34.4860 C   0  0  0  0  0  0  0  0  0  0  0  0
   37.7250   23.9600   33.8600 N   0  0  0  0  0  0  0  0  0  0  0  0
   38.7810   23.3190   35.8960 N   0  0  0  0  0  0  0  0  0  0  0  0
   40.0810   22.8650   36.2690 C   0  0  0  0  0  0  0  0  0  0  0  0
   40.2710   22.6380   37.7190 C   0  0  0  0  0  0  0  0  0  0  0  0
   38.9970   22.5770   38.4450 N   0  0  0  0  0  0  0  0  0  0  0  0
   38.3670   23.8700   38.1930 C   0  0  0  0  0  0  0  0  0  0  0  0
   37.7850   23.8100   36.8130 C   0  0  0  0  0  0  0  0  0  0  0  0
   38.0400   22.6840   30.8220 H   0  0  0  0  0  0  0  0  0  0  0  0
   40.2560   21.9050   35.7350 H   0  0  0  0  0  0  0  0  0  0  0  0
   40.8650   23.5640   35.8560 H   0  0  0  0  0  0  0  0  0  0  0  0
   40.8910   21.7330   37.9010 H   0  0  0  0  0  0  0  0  0  0  0  0
   40.8880   23.4890   38.1140 H   0  0  0  0  0  0  0  0  0  0  0  0
   39.1580   22.3740   39.4360 H   0  0  0  0  0  0  0  0  0  0  0  0
   39.0470   24.7160   38.3600 H   0  0  0  0  0  0  0  0  0  0  0  0
   37.5170   23.9350   38.9220 H   0  0  0  0  0  0  0  0  0  0  0  0
   37.4150   24.8260   36.5530 H   0  0  0  0  0  0  0  0  0  0  0  0
   36.9430   23.0640   36.8670 H   0  0  0  0  0  0  0  0  0  0  0  0
   37.1180   26.1460   31.5810 C   0  0  0  0  0  0  0  0  0  0  0  0
   36.8450   26.5170   30.5720 H   0  0  0  0  0  0  0  0  0  0  0  0
   38.2370   26.1150   31.6760 H   0  0  0  0  0  0  0  0  0  0  0  0
   36.7900   28.2170   34.6320 C   0  0  0  0  0  0  0  0  0  0  0  0
   35.7460   29.0870   34.3080 C   0  0  0  0  0  0  0  0  0  0  0  0
   35.1670   28.9520   33.0470 C   0  0  0  0  0  0  0  0  0  0  0  0
   35.6560   27.9950   32.2330 N   0  0  0  0  0  0  0  0  0  0  0  0
   36.6660   27.1750   32.5850 C   0  0  0  0  0  0  0  0  0  0  0  0
   37.2320   27.2800   33.7720 N   0  0  0  0  0  0  0  0  0  0  0  0
   37.2320   28.3260   35.6100 H   0  0  0  0  0  0  0  0  0  0  0  0
   35.3640   29.8440   34.9590 H   0  0  0  0  0  0  0  0  0  0  0  0
   34.0720   29.7770   32.5510 C   0  0  0  0  0  0  0  0  0  0  0  0
   32.7920   29.7070   33.0320 C   0  0  0  0  0  0  0  0  0  0  0  0
   32.5460   29.0140   33.8210 H   0  0  0  0  0  0  0  0  0  0  0  0
   31.7530   30.4660   32.5850 C   0  0  0  0  0  0  0  0  0  0  0  0
   30.7310   30.3910   32.9870 H   0  0  0  0  0  0  0  0  0  0  0  0
   31.9600   31.3780   31.5820 C   0  0  0  0  0  3  0  0  0  0  0  0
   33.2520   31.4380   31.1070 C   0  0  0  0  0  3  0  0  0  0  0  0
   34.2480   30.6770   31.5700 N   0  0  0  0  0  0  0  0  0  0  0  0
  1  3  1  0  0  0  0
  1  4  1  0  0  0  0
  2  1  1  0  0  0  0
  4  8  1  0  0  0  0
  5  4  2  0  0  0  0
  5  6  1  0  0  0  0
  6  7  1  0  0  0  0
  7  9  1  0  0  0  0
  8  7  2  0  0  0  0
  9 10  1  0  0  0  0
  9 14  1  0  0  0  0
 10 11  1  0  0  0  0
 11 18  1  0  0  0  0
 11 19  1  0  0  0  0
 11 12  1  0  0  0  0
 12 20  1  0  0  0  0
 13 21  1  0  0  0  0
 13 12  1  0  0  0  0
 13 22  1  0  0  0  0
 14 24  1  0  0  0  0
 14 13  1  0  0  0  0
 15  5  1  0  0  0  0
 16 10  1  0  0  0  0
 17 10  1  0  0  0  0
 23 14  1  0  0  0  0
 25 27  1  0  0  0  0
 25  1  1  0  0  0  0
 25 32  1  0  0  0  0
 26 25  1  0  0  0  0
 28 34  1  0  0  0  0
 29 28  1  0  0  0  0
 29 35  1  0  0  0  0
 30 29  2  0  0  0  0
 31 32  2  0  0  0  0
 31 30  1  0  0  0  0
 32 33  1  0  0  0  0
 33 28  2  0  0  0  0
 36 37  1  0  0  0  0
 36 30  1  0  0  0  0
 37 38  1  0  0  0  0
 39 40  1  0  0  0  0
 39 37  2  0  0  0  0
 41 39  1  0  0  0  0
 42 43  1  0  0  0  0
 42 41  2  0  0  0  0
 43 36  2  0  0  0  0
M  END
>  <minimizedAffinity>
-5.71511221

$$$$

 OpenBabel03272506103D

 43 46  0  0  0  0  0  0  0  0999 V2000
   38.9590   26.0550   31.6520 C   0  0  0  0  0  0  0  0  0  0  0  0
   39.1160   27.0950   31.2930 H   0  0  0  0  0  0  0  0  0  0  0  0
   39.9280   25.5330   31.5290 H   0  0  0  0  0  0  0  0  0  0  0  0
   38.5650   26.0970   33.1010 C   0  0  0  0  0  0  0  0  0  0  0  0
   37.8700   27.2720   33.5980 C   0  0  0  0  0  0  0  0  0  0  0  0
   37.6400   26.8380   35.2990 S   0  0  0  0  0  0  0  0  0  0  0  0
   38.4930   25.1570   35.1430 C   0  0  0  0  0  0  0  0  0  0  0  0
   38.7800   25.1770   33.9900 N   0  0  0  0  0  0  0  0  0  0  0  0
   38.7370   24.1280   36.1280 N   0  0  0  0  0  0  0  0  0  0  0  0
   37.8000   24.0420   37.2010 C   0  0  0  0  0  0  0  0  0  0  0  0
   38.2290   23.1990   38.3390 C   0  0  0  0  0  0  0  0  0  0  0  0
   39.6670   22.9070   38.3060 N   0  0  0  0  0  0  0  0  0  0  0  0
   39.8750   22.2210   37.0340 C   0  0  0  0  0  0  0  0  0  0  0  0
   39.8860   23.2730   35.9660 C   0  0  0  0  0  0  0  0  0  0  0  0
   37.5970   28.1230   33.0560 H   0  0  0  0  0  0  0  0  0  0  0  0
   37.6350   25.0780   37.5710 H   0  0  0  0  0  0  0  0  0  0  0  0
   36.7930   23.7190   36.8060 H   0  0  0  0  0  0  0  0  0  0  0  0
   37.9240   23.6530   39.3060 H   0  0  0  0  0  0  0  0  0  0  0  0
   37.6500   22.2380   38.2810 H   0  0  0  0  0  0  0  0  0  0  0  0
   39.9420   22.3620   39.1280 H   0  0  0  0  0  0  0  0  0  0  0  0
   39.1540   21.4110   36.8630 H   0  0  0  0  0  0  0  0  0  0  0  0
   40.9070   21.7840   37.0960 H   0  0  0  0  0  0  0  0  0  0  0  0
   39.9120   22.7600   34.9810 H   0  0  0  0  0  0  0  0  0  0  0  0
   40.8160   23.8810   36.1430 H   0  0  0  0  0  0  0  0  0  0  0  0
   37.8940   25.4190   30.8300 C   0  0  0  0  0  0  0  0  0  0  0  0
   37.7300   25.9710   29.8820 H   0  0  0  0  0  0  0  0  0  0  0  0
   36.9200   25.3310   31.3820 H   0  0  0  0  0  0  0  0  0  0  0  0
   39.6270   22.4550   29.4440 C   0  0  0  0  0  0  0  0  0  0  0  0
   38.8500   21.3920   29.9120 C   0  0  0  0  0  0  0  0  0  0  0  0
   37.7410   21.7050   30.6970 C   0  0  0  0  0  0  0  0  0  0  0  0
   37.5000   23.0070   30.9480 N   0  0  0  0  0  0  0  0  0  0  0  0
   38.2750   24.0030   30.4770 C   0  0  0  0  0  0  0  0  0  0  0  0
   39.3300   23.7370   29.7310 N   0  0  0  0  0  0  0  0  0  0  0  0
   40.4830   22.2060   28.8370 H   0  0  0  0  0  0  0  0  0  0  0  0
   39.0480   20.3620   29.7090 H   0  0  0  0  0  0  0  0  0  0  0  0
   36.8290   20.7200   31.2640 C   0  0  0  0  0  0  0  0  0  0  0  0
   35.5270   20.9900   31.5880 C   0  0  0  0  0  0  0  0  0  0  0  0
   35.1210   21.9760   31.4290 H   0  0  0  0  0  0  0  0  0  0  0  0
   34.6560   20.0860   32.1190 C   0  0  0  0  0  0  0  0  0  0  0  0
   33.6120   20.3280   32.3720 H   0  0  0  0  0  0  0  0  0  0  0  0
   35.0720   18.8020   32.3610 C   0  0  0  0  0  3  0  0  0  0  0  0
   36.3850   18.5440   32.0300 C   0  0  0  0  0  3  0  0  0  0  0  0
   37.2110   19.4560   31.5110 N   0  0  0  0  0  0  0  0  0  0  0  0
  1  4  1  0  0  0  0
  2  1  1  0  0  0  0
  3  1  1  0  0  0  0
  4  5  2  0  0  0  0
  4  8  1  0  0  0  0
  5  6  1  0  0  0  0
  7  6  1  0  0  0  0
  7  9  1  0  0  0  0
  8  7  2  0  0  0  0
  9 10  1  0  0  0  0
 10 16  1  0  0  0  0
 10 11  1  0  0  0  0
 11 18  1  0  0  0  0
 12 11  1  0  0  0  0
 12 20  1  0  0  0  0
 13 22  1  0  0  0  0
 13 12  1  0  0  0  0
 14  9  1  0  0  0  0
 14 24  1  0  0  0  0
 14 13  1  0  0  0  0
 15  5  1  0  0  0  0
 17 10  1  0  0  0  0
 19 11  1  0  0  0  0
 21 13  1  0  0  0  0
 23 14  1  0  0  0  0
 25 27  1  0  0  0  0
 25  1  1  0  0  0  0
 26 25  1  0  0  0  0
 28 33  2  0  0  0  0
 28 29  1  0  0  0  0
 29 30  2  0  0  0  0
 30 31  1  0  0  0  0
 30 36  1  0  0  0  0
 32 25  1  0  0  0  0
 32 31  2  0  0  0  0
 33 32  1  0  0  0  0
 34 28  1  0  0  0  0
 35 29  1  0  0  0  0
 36 43  2  0  0  0  0
 36 37  1  0  0  0  0
 37 39  2  0  0  0  0
 38 37  1  0  0  0  0
 39 41  1  0  0  0  0
 39 40  1  0  0  0  0
 42 41  2  0  0  0  0
 43 42  1  0  0  0  0
M  END
>  <minimizedAffinity>
-5.65661049

$$$$
