
 OpenBabel03262522333D

 26 28  0  0  0  0  0  0  0  0999 V2000
   40.0140   22.9060   36.8170 C   0  0  0  0  0  0  0  0  0  0  0  0
   39.4590   22.9410   38.0670 C   0  0  0  0  0  0  0  0  0  0  0  0
   38.4270   23.7840   38.4310 C   0  0  0  0  0  0  0  0  0  0  0  0
   37.9080   24.6510   37.4980 C   0  0  0  0  0  0  0  0  0  0  0  0
   38.4750   24.6040   36.2500 C   0  0  0  0  0  0  0  0  0  0  0  0
   39.4830   23.7730   35.9120 N   0  0  0  0  0  0  0  0  0  0  0  0
   39.8670   22.2570   38.8020 H   0  0  0  0  0  0  0  0  0  0  0  0
   38.0490   23.7410   39.4510 H   0  0  0  0  0  0  0  0  0  0  0  0
   37.1060   25.3010   37.7990 H   0  0  0  0  0  0  0  0  0  0  0  0
   41.5250   21.8440   35.1000 C   0  0  0  0  0  0  0  0  0  0  0  0
   41.1020   22.0170   36.4330 C   0  0  0  0  0  0  0  0  0  0  0  0
   41.7520   21.3090   37.4280 C   0  0  0  0  0  0  0  0  0  0  0  0
   42.7770   20.4700   37.0740 N   0  0  0  0  0  0  0  0  0  0  0  0
   43.1550   20.3290   35.7950 C   0  0  0  0  0  0  0  0  0  0  0  0
   42.5450   21.0000   34.8170 N   0  0  0  0  0  0  0  0  0  0  0  0
   40.9800   22.4240   34.3710 H   0  0  0  0  0  0  0  0  0  0  0  0
   41.4670   21.4050   38.4690 H   0  0  0  0  0  0  0  0  0  0  0  0
   43.9760   19.6400   35.6400 H   0  0  0  0  0  0  0  0  0  0  0  0
   37.9580   25.5050   35.2270 C   0  0  0  0  0  0  0  0  0  0  0  0
   37.6350   26.8270   35.5170 C   0  0  0  0  0  0  0  0  0  0  0  0
   37.7780   27.1840   36.5440 H   0  0  0  0  0  0  0  0  0  0  0  0
   37.1410   27.7420   34.6100 C   0  0  0  0  0  0  0  0  0  0  0  0
   36.9200   28.7420   34.9300 H   0  0  0  0  0  0  0  0  0  0  0  0
   36.9640   27.2910   33.3310 C   0  0  0  0  0  3  0  0  0  0  0  0
   37.2800   25.9840   33.0260 C   0  0  0  0  0  3  0  0  0  0  0  0
   37.7630   25.1270   33.9620 N   0  0  0  0  0  0  0  0  0  0  0  0
  1  2  1  0  0  0  0
  2  3  2  0  0  0  0
  2  7  1  0  0  0  0
  3  8  1  0  0  0  0
  4  9  1  0  0  0  0
  4  3  1  0  0  0  0
  5  4  2  0  0  0  0
  6  5  1  0  0  0  0
  6  1  2  0  0  0  0
 10 11  1  0  0  0  0
 11  1  1  0  0  0  0
 11 12  2  0  0  0  0
 12 17  1  0  0  0  0
 13 12  1  0  0  0  0
 14 13  2  0  0  0  0
 15 10  2  0  0  0  0
 15 14  1  0  0  0  0
 16 10  1  0  0  0  0
 18 14  1  0  0  0  0
 19 20  1  0  0  0  0
 19  5  1  0  0  0  0
 20 21  1  0  0  0  0
 22 23  1  0  0  0  0
 22 20  2  0  0  0  0
 24 22  1  0  0  0  0
 25 24  2  0  0  0  0
 25 26  1  0  0  0  0
 26 19  2  0  0  0  0
M  END
>  <minimizedAffinity>
-5.1039629

$$$$

 OpenBabel03262522333D

 26 28  0  0  0  0  0  0  0  0999 V2000
   36.6970   27.8240   33.5050 C   0  0  0  0  0  0  0  0  0  0  0  0
   36.7960   28.3470   32.2440 C   0  0  0  0  0  0  0  0  0  0  0  0
   36.2930   29.5790   31.8780 C   0  0  0  0  0  0  0  0  0  0  0  0
   35.6500   30.3490   32.8180 C   0  0  0  0  0  0  0  0  0  0  0  0
   35.5580   29.8120   34.0770 C   0  0  0  0  0  0  0  0  0  0  0  0
   36.0560   28.6050   34.4170 N   0  0  0  0  0  0  0  0  0  0  0  0
   37.3030   27.7410   31.5040 H   0  0  0  0  0  0  0  0  0  0  0  0
   36.4190   29.9130   30.8490 H   0  0  0  0  0  0  0  0  0  0  0  0
   35.2640   31.3060   32.5150 H   0  0  0  0  0  0  0  0  0  0  0  0
   37.4970   25.4930   32.9710 C   0  0  0  0  0  0  0  0  0  0  0  0
   37.2270   26.5240   33.8930 C   0  0  0  0  0  0  0  0  0  0  0  0
   37.4790   26.2920   35.2330 C   0  0  0  0  0  0  0  0  0  0  0  0
   37.9780   25.0700   35.6050 N   0  0  0  0  0  0  0  0  0  0  0  0
   38.2230   24.1100   34.7020 C   0  0  0  0  0  0  0  0  0  0  0  0
   37.9900   24.3090   33.4040 N   0  0  0  0  0  0  0  0  0  0  0  0
   37.2810   25.7350   31.9410 H   0  0  0  0  0  0  0  0  0  0  0  0
   37.2890   27.0510   35.9840 H   0  0  0  0  0  0  0  0  0  0  0  0
   38.6170   23.1900   35.1160 H   0  0  0  0  0  0  0  0  0  0  0  0
   34.8850   30.5910   35.1090 C   0  0  0  0  0  0  0  0  0  0  0  0
   35.5760   31.5060   35.8970 C   0  0  0  0  0  0  0  0  0  0  0  0
   36.6520   31.6310   35.7260 H   0  0  0  0  0  0  0  0  0  0  0  0
   35.0160   32.2810   36.8920 C   0  0  0  0  0  0  0  0  0  0  0  0
   35.6320   32.9590   37.4490 H   0  0  0  0  0  0  0  0  0  0  0  0
   33.6740   32.1200   37.1010 C   0  0  0  0  0  3  0  0  0  0  0  0
   32.9730   31.2180   36.3280 C   0  0  0  0  0  3  0  0  0  0  0  0
   33.5790   30.4820   35.3610 N   0  0  0  0  0  0  0  0  0  0  0  0
  1 11  1  0  0  0  0
  1  6  1  0  0  0  0
  2  1  2  0  0  0  0
  3  2  1  0  0  0  0
  3  4  2  0  0  0  0
  4  5  1  0  0  0  0
  5  6  2  0  0  0  0
  5 19  1  0  0  0  0
  7  2  1  0  0  0  0
  8  3  1  0  0  0  0
  9  4  1  0  0  0  0
 10 15  2  0  0  0  0
 10 11  1  0  0  0  0
 11 12  2  0  0  0  0
 12 13  1  0  0  0  0
 12 17  1  0  0  0  0
 14 18  1  0  0  0  0
 14 13  2  0  0  0  0
 15 14  1  0  0  0  0
 16 10  1  0  0  0  0
 19 26  2  0  0  0  0
 19 20  1  0  0  0  0
 20 22  2  0  0  0  0
 21 20  1  0  0  0  0
 22 24  1  0  0  0  0
 22 23  1  0  0  0  0
 25 24  2  0  0  0  0
 26 25  1  0  0  0  0
M  END
>  <minimizedAffinity>
-5.0594039

$$$$

 OpenBabel03262522333D

 26 28  0  0  0  0  0  0  0  0999 V2000
   38.3250   24.7530   36.0530 C   0  0  0  0  0  0  0  0  0  0  0  0
   37.8210   24.7290   37.3260 C   0  0  0  0  0  0  0  0  0  0  0  0
   38.2860   23.8960   38.3240 C   0  0  0  0  0  0  0  0  0  0  0  0
   39.3180   23.0290   38.0500 C   0  0  0  0  0  0  0  0  0  0  0  0
   39.8120   23.0650   36.7710 C   0  0  0  0  0  0  0  0  0  0  0  0
   39.3450   23.8860   35.8070 N   0  0  0  0  0  0  0  0  0  0  0  0
   37.0100   25.4120   37.5420 H   0  0  0  0  0  0  0  0  0  0  0  0
   37.8230   23.9460   39.3090 H   0  0  0  0  0  0  0  0  0  0  0  0
   39.6670   22.3870   38.8400 H   0  0  0  0  0  0  0  0  0  0  0  0
   37.4420   26.9650   35.2250 C   0  0  0  0  0  0  0  0  0  0  0  0
   37.8350   25.6310   34.9990 C   0  0  0  0  0  0  0  0  0  0  0  0
   37.7540   25.1280   33.7130 C   0  0  0  0  0  0  0  0  0  0  0  0
   37.2950   25.9490   32.7160 N   0  0  0  0  0  0  0  0  0  0  0  0
   36.9280   27.2140   32.9650 C   0  0  0  0  0  0  0  0  0  0  0  0
   36.9970   27.7230   34.1960 N   0  0  0  0  0  0  0  0  0  0  0  0
   37.5290   27.2980   36.2480 H   0  0  0  0  0  0  0  0  0  0  0  0
   38.0440   24.1090   33.4840 H   0  0  0  0  0  0  0  0  0  0  0  0
   36.5830   27.7640   32.0970 H   0  0  0  0  0  0  0  0  0  0  0  0
   40.9070   22.1640   36.4320 C   0  0  0  0  0  0  0  0  0  0  0  0
   41.5690   21.4250   37.4080 C   0  0  0  0  0  0  0  0  0  0  0  0
   41.2480   21.5340   38.4500 H   0  0  0  0  0  0  0  0  0  0  0  0
   42.6130   20.5530   37.1730 C   0  0  0  0  0  0  0  0  0  0  0  0
   43.0610   20.0270   37.9930 H   0  0  0  0  0  0  0  0  0  0  0  0
   43.0090   20.4210   35.8700 C   0  0  0  0  0  3  0  0  0  0  0  0
   42.3640   21.1450   34.8910 C   0  0  0  0  0  3  0  0  0  0  0  0
   41.3410   21.9900   35.1820 N   0  0  0  0  0  0  0  0  0  0  0  0
  1  2  1  0  0  0  0
  2  7  1  0  0  0  0
  2  3  2  0  0  0  0
  3  8  1  0  0  0  0
  4  3  1  0  0  0  0
  4  9  1  0  0  0  0
  5  4  2  0  0  0  0
  6  1  2  0  0  0  0
  6  5  1  0  0  0  0
 10 16  1  0  0  0  0
 11 10  1  0  0  0  0
 11  1  1  0  0  0  0
 12 11  2  0  0  0  0
 13 14  2  0  0  0  0
 13 12  1  0  0  0  0
 14 15  1  0  0  0  0
 15 10  2  0  0  0  0
 17 12  1  0  0  0  0
 18 14  1  0  0  0  0
 19  5  1  0  0  0  0
 19 20  1  0  0  0  0
 20 21  1  0  0  0  0
 22 20  2  0  0  0  0
 22 23  1  0  0  0  0
 24 22  1  0  0  0  0
 25 26  1  0  0  0  0
 25 24  2  0  0  0  0
 26 19  2  0  0  0  0
M  END
>  <minimizedAffinity>
-5.03873539

$$$$

 OpenBabel03262522333D

 26 28  0  0  0  0  0  0  0  0999 V2000
   36.1210   23.0530   31.9220 C   0  0  0  0  0  0  0  0  0  0  0  0
   35.3300   23.8650   31.1550 C   0  0  0  0  0  0  0  0  0  0  0  0
   35.4820   25.2350   31.0720 C   0  0  0  0  0  0  0  0  0  0  0  0
   36.4810   25.8450   31.7920 C   0  0  0  0  0  0  0  0  0  0  0  0
   37.2650   25.0180   32.5560 C   0  0  0  0  0  0  0  0  0  0  0  0
   37.1030   23.6810   32.6250 N   0  0  0  0  0  0  0  0  0  0  0  0
   34.5430   23.3850   30.5870 H   0  0  0  0  0  0  0  0  0  0  0  0
   34.8030   25.8010   30.4350 H   0  0  0  0  0  0  0  0  0  0  0  0
   36.5840   26.9130   31.7160 H   0  0  0  0  0  0  0  0  0  0  0  0
   36.0840   20.7470   30.9010 C   0  0  0  0  0  0  0  0  0  0  0  0
   35.9620   21.6080   32.0100 C   0  0  0  0  0  0  0  0  0  0  0  0
   35.6780   21.0540   33.2470 C   0  0  0  0  0  0  0  0  0  0  0  0
   35.5270   19.6950   33.3380 N   0  0  0  0  0  0  0  0  0  0  0  0
   35.6490   18.9040   32.2620 C   0  0  0  0  0  0  0  0  0  0  0  0
   35.9230   19.4120   31.0600 N   0  0  0  0  0  0  0  0  0  0  0  0
   36.3060   21.2380   29.9670 H   0  0  0  0  0  0  0  0  0  0  0  0
   35.5740   21.6710   34.1320 H   0  0  0  0  0  0  0  0  0  0  0  0
   35.5100   17.8480   32.4590 H   0  0  0  0  0  0  0  0  0  0  0  0
   38.3390   25.6200   33.3370 C   0  0  0  0  0  0  0  0  0  0  0  0
   38.0730   26.4260   34.4400 C   0  0  0  0  0  0  0  0  0  0  0  0
   37.0260   26.6040   34.7130 H   0  0  0  0  0  0  0  0  0  0  0  0
   39.0280   27.0320   35.2310 C   0  0  0  0  0  0  0  0  0  0  0  0
   38.7240   27.6390   36.0610 H   0  0  0  0  0  0  0  0  0  0  0  0
   40.3320   26.8060   34.8840 C   0  0  0  0  0  3  0  0  0  0  0  0
   40.6140   26.0090   33.7950 C   0  0  0  0  0  3  0  0  0  0  0  0
   39.6300   25.4380   33.0530 N   0  0  0  0  0  0  0  0  0  0  0  0
  1 11  1  0  0  0  0
  1  6  1  0  0  0  0
  2  1  2  0  0  0  0
  3  2  1  0  0  0  0
  3  4  2  0  0  0  0
  4  5  1  0  0  0  0
  5  6  2  0  0  0  0
  5 19  1  0  0  0  0
  7  2  1  0  0  0  0
  8  3  1  0  0  0  0
  9  4  1  0  0  0  0
 10 15  2  0  0  0  0
 10 11  1  0  0  0  0
 11 12  2  0  0  0  0
 12 13  1  0  0  0  0
 12 17  1  0  0  0  0
 14 18  1  0  0  0  0
 14 13  2  0  0  0  0
 15 14  1  0  0  0  0
 16 10  1  0  0  0  0
 19 20  1  0  0  0  0
 20 21  1  0  0  0  0
 20 22  2  0  0  0  0
 22 23  1  0  0  0  0
 24 22  1  0  0  0  0
 25 24  2  0  0  0  0
 26 19  2  0  0  0  0
 26 25  1  0  0  0  0
M  END
>  <minimizedAffinity>
-4.93999481

$$$$

 OpenBabel03262522333D

 26 28  0  0  0  0  0  0  0  0999 V2000
   35.6640   29.6710   34.0940 C   0  0  0  0  0  0  0  0  0  0  0  0
   35.7690   29.9560   32.7600 C   0  0  0  0  0  0  0  0  0  0  0  0
   36.3740   29.1240   31.8380 C   0  0  0  0  0  0  0  0  0  0  0  0
   36.9110   27.9310   32.2610 C   0  0  0  0  0  0  0  0  0  0  0  0
   36.7980   27.6600   33.6010 C   0  0  0  0  0  0  0  0  0  0  0  0
   36.2030   28.4850   34.4880 N   0  0  0  0  0  0  0  0  0  0  0  0
   35.3450   30.8950   32.4260 H   0  0  0  0  0  0  0  0  0  0  0  0
   36.4110   29.4350   30.7950 H   0  0  0  0  0  0  0  0  0  0  0  0
   37.3790   27.2960   31.5300 H   0  0  0  0  0  0  0  0  0  0  0  0
   33.6320   30.5990   35.2640 C   0  0  0  0  0  0  0  0  0  0  0  0
   35.0260   30.5480   35.0670 C   0  0  0  0  0  0  0  0  0  0  0  0
   35.8310   31.3700   35.8360 C   0  0  0  0  0  0  0  0  0  0  0  0
   35.2380   32.1980   36.7530 N   0  0  0  0  0  0  0  0  0  0  0  0
   33.9070   32.2220   36.9160 C   0  0  0  0  0  0  0  0  0  0  0  0
   33.1090   31.4390   36.1880 N   0  0  0  0  0  0  0  0  0  0  0  0
   33.0590   29.9340   34.6360 H   0  0  0  0  0  0  0  0  0  0  0  0
   36.9100   31.3710   35.7240 H   0  0  0  0  0  0  0  0  0  0  0  0
   33.5560   32.9150   37.6710 H   0  0  0  0  0  0  0  0  0  0  0  0
   37.3530   26.4070   34.0970 C   0  0  0  0  0  0  0  0  0  0  0  0
   37.7160   26.2490   35.4310 C   0  0  0  0  0  0  0  0  0  0  0  0
   37.5760   27.0970   36.1120 H   0  0  0  0  0  0  0  0  0  0  0  0
   38.2470   25.0990   35.9800 C   0  0  0  0  0  0  0  0  0  0  0  0
   38.4970   25.0730   37.0230 H   0  0  0  0  0  0  0  0  0  0  0  0
   38.4190   24.0450   35.1260 C   0  0  0  0  0  3  0  0  0  0  0  0
   38.0640   24.1840   33.8010 C   0  0  0  0  0  3  0  0  0  0  0  0
   37.5450   25.3420   33.3160 N   0  0  0  0  0  0  0  0  0  0  0  0
  1  6  1  0  0  0  0
  1 11  1  0  0  0  0
  2  1  2  0  0  0  0
  3  4  2  0  0  0  0
  3  2  1  0  0  0  0
  4  5  1  0  0  0  0
  5 19  1  0  0  0  0
  5  6  2  0  0  0  0
  7  2  1  0  0  0  0
  8  3  1  0  0  0  0
  9  4  1  0  0  0  0
 10 15  1  0  0  0  0
 11 10  2  0  0  0  0
 11 12  1  0  0  0  0
 12 13  2  0  0  0  0
 13 14  1  0  0  0  0
 14 18  1  0  0  0  0
 15 14  2  0  0  0  0
 16 10  1  0  0  0  0
 17 12  1  0  0  0  0
 19 20  1  0  0  0  0
 20 22  2  0  0  0  0
 20 21  1  0  0  0  0
 22 23  1  0  0  0  0
 24 22  1  0  0  0  0
 25 24  2  0  0  0  0
 26 25  1  0  0  0  0
 26 19  2  0  0  0  0
M  END
>  <minimizedAffinity>
-4.92896986

$$$$

 OpenBabel03262522333D

 26 28  0  0  0  0  0  0  0  0999 V2000
   38.4400   25.7270   33.1920 C   0  0  0  0  0  0  0  0  0  0  0  0
   39.1700   26.8830   33.1330 C   0  0  0  0  0  0  0  0  0  0  0  0
   40.3080   27.1170   33.8780 C   0  0  0  0  0  0  0  0  0  0  0  0
   40.7570   26.1450   34.7410 C   0  0  0  0  0  0  0  0  0  0  0  0
   40.0150   24.9920   34.7910 C   0  0  0  0  0  0  0  0  0  0  0  0
   38.9050   24.7810   34.0540 N   0  0  0  0  0  0  0  0  0  0  0  0
   38.8170   27.6480   32.4530 H   0  0  0  0  0  0  0  0  0  0  0  0
   40.8240   28.0690   33.7650 H   0  0  0  0  0  0  0  0  0  0  0  0
   41.6450   26.3440   35.3150 H   0  0  0  0  0  0  0  0  0  0  0  0
   36.7930   24.1880   32.0610 C   0  0  0  0  0  0  0  0  0  0  0  0
   37.2390   25.4790   32.4060 C   0  0  0  0  0  0  0  0  0  0  0  0
   36.5000   26.5680   31.9780 C   0  0  0  0  0  0  0  0  0  0  0  0
   35.3680   26.3430   31.2380 N   0  0  0  0  0  0  0  0  0  0  0  0
   34.9720   25.1000   30.9270 C   0  0  0  0  0  0  0  0  0  0  0  0
   35.6660   24.0340   31.3280 N   0  0  0  0  0  0  0  0  0  0  0  0
   37.4110   23.3810   32.4250 H   0  0  0  0  0  0  0  0  0  0  0  0
   36.7980   27.5830   32.2160 H   0  0  0  0  0  0  0  0  0  0  0  0
   34.0630   25.0490   30.3400 H   0  0  0  0  0  0  0  0  0  0  0  0
   40.4520   23.9320   35.6910 C   0  0  0  0  0  0  0  0  0  0  0  0
   41.7490   23.4290   35.6470 C   0  0  0  0  0  0  0  0  0  0  0  0
   42.4450   23.8500   34.9120 H   0  0  0  0  0  0  0  0  0  0  0  0
   42.2410   22.4290   36.4610 C   0  0  0  0  0  0  0  0  0  0  0  0
   43.2580   22.1060   36.3510 H   0  0  0  0  0  0  0  0  0  0  0  0
   41.3670   21.9080   37.3750 C   0  0  0  0  0  3  0  0  0  0  0  0
   40.0790   22.3950   37.4330 C   0  0  0  0  0  3  0  0  0  0  0  0
   39.6500   23.3820   36.6050 N   0  0  0  0  0  0  0  0  0  0  0  0
  1  6  1  0  0  0  0
  2  1  2  0  0  0  0
  2  3  1  0  0  0  0
  3  4  2  0  0  0  0
  4  5  1  0  0  0  0
  4  9  1  0  0  0  0
  5 19  1  0  0  0  0
  6  5  2  0  0  0  0
  7  2  1  0  0  0  0
  8  3  1  0  0  0  0
 10 11  1  0  0  0  0
 10 16  1  0  0  0  0
 11  1  1  0  0  0  0
 12 17  1  0  0  0  0
 12 11  2  0  0  0  0
 13 12  1  0  0  0  0
 14 13  2  0  0  0  0
 14 15  1  0  0  0  0
 15 10  2  0  0  0  0
 18 14  1  0  0  0  0
 19 26  1  0  0  0  0
 20 19  2  0  0  0  0
 20 22  1  0  0  0  0
 21 20  1  0  0  0  0
 22 24  2  0  0  0  0
 23 22  1  0  0  0  0
 24 25  1  0  0  0  0
 26 25  2  0  0  0  0
M  END
>  <minimizedAffinity>
-4.9219079

$$$$

 OpenBabel03262522333D

 26 28  0  0  0  0  0  0  0  0999 V2000
   37.3140   26.2730   33.2720 C   0  0  0  0  0  0  0  0  0  0  0  0
   37.7060   25.4950   32.2170 C   0  0  0  0  0  0  0  0  0  0  0  0
   38.3570   24.2850   32.3500 C   0  0  0  0  0  0  0  0  0  0  0  0
   38.6420   23.8090   33.6090 C   0  0  0  0  0  0  0  0  0  0  0  0
   38.2440   24.6010   34.6560 C   0  0  0  0  0  0  0  0  0  0  0  0
   37.6070   25.7810   34.5070 N   0  0  0  0  0  0  0  0  0  0  0  0
   37.4810   25.8680   31.2250 H   0  0  0  0  0  0  0  0  0  0  0  0
   38.6310   23.7340   31.4510 H   0  0  0  0  0  0  0  0  0  0  0  0
   39.1500   22.8650   33.6930 H   0  0  0  0  0  0  0  0  0  0  0  0
   36.2160   28.0750   31.8920 C   0  0  0  0  0  0  0  0  0  0  0  0
   36.6270   27.5500   33.1330 C   0  0  0  0  0  0  0  0  0  0  0  0
   36.3640   28.2810   34.2780 C   0  0  0  0  0  0  0  0  0  0  0  0
   35.7180   29.4830   34.1540 N   0  0  0  0  0  0  0  0  0  0  0  0
   35.3400   29.9550   32.9570 C   0  0  0  0  0  0  0  0  0  0  0  0
   35.5810   29.2690   31.8390 N   0  0  0  0  0  0  0  0  0  0  0  0
   36.4480   27.4580   31.0370 H   0  0  0  0  0  0  0  0  0  0  0  0
   36.6600   27.9230   35.2580 H   0  0  0  0  0  0  0  0  0  0  0  0
   34.8370   30.9130   32.9870 H   0  0  0  0  0  0  0  0  0  0  0  0
   38.5230   24.1390   36.0100 C   0  0  0  0  0  0  0  0  0  0  0  0
   37.7840   24.5900   37.1000 C   0  0  0  0  0  0  0  0  0  0  0  0
   36.9780   25.3100   36.9190 H   0  0  0  0  0  0  0  0  0  0  0  0
   37.9830   24.2040   38.4100 C   0  0  0  0  0  0  0  0  0  0  0  0
   37.3620   24.6090   39.1840 H   0  0  0  0  0  0  0  0  0  0  0  0
   38.9910   23.3060   38.6290 C   0  0  0  0  0  3  0  0  0  0  0  0
   39.7330   22.8480   37.5610 C   0  0  0  0  0  3  0  0  0  0  0  0
   39.4910   23.2630   36.2910 N   0  0  0  0  0  0  0  0  0  0  0  0
  1  6  1  0  0  0  0
  2  3  1  0  0  0  0
  2  1  2  0  0  0  0
  3  4  2  0  0  0  0
  4  9  1  0  0  0  0
  4  5  1  0  0  0  0
  5 19  1  0  0  0  0
  6  5  2  0  0  0  0
  7  2  1  0  0  0  0
  8  3  1  0  0  0  0
 10 11  1  0  0  0  0
 11  1  1  0  0  0  0
 11 12  2  0  0  0  0
 12 17  1  0  0  0  0
 13 12  1  0  0  0  0
 14 18  1  0  0  0  0
 14 13  2  0  0  0  0
 15 10  2  0  0  0  0
 15 14  1  0  0  0  0
 16 10  1  0  0  0  0
 19 26  2  0  0  0  0
 19 20  1  0  0  0  0
 20 22  2  0  0  0  0
 21 20  1  0  0  0  0
 22 24  1  0  0  0  0
 22 23  1  0  0  0  0
 25 24  2  0  0  0  0
 26 25  1  0  0  0  0
M  END
>  <minimizedAffinity>
-4.92087698

$$$$

 OpenBabel03262522333D

 26 28  0  0  0  0  0  0  0  0999 V2000
   36.0790   28.0990   31.9780 C   0  0  0  0  0  0  0  0  0  0  0  0
   36.4740   28.9490   30.9810 C   0  0  0  0  0  0  0  0  0  0  0  0
   36.4040   30.3260   31.0680 C   0  0  0  0  0  0  0  0  0  0  0  0
   35.9090   30.9020   32.2140 C   0  0  0  0  0  0  0  0  0  0  0  0
   35.5160   30.0370   33.2030 C   0  0  0  0  0  0  0  0  0  0  0  0
   35.5930   28.6940   33.1020 N   0  0  0  0  0  0  0  0  0  0  0  0
   36.8650   28.4960   30.0790 H   0  0  0  0  0  0  0  0  0  0  0  0
   36.7420   30.9230   30.2230 H   0  0  0  0  0  0  0  0  0  0  0  0
   35.8610   31.9760   32.2640 H   0  0  0  0  0  0  0  0  0  0  0  0
   35.3400   25.8830   31.0260 C   0  0  0  0  0  0  0  0  0  0  0  0
   36.1530   26.6470   31.8870 C   0  0  0  0  0  0  0  0  0  0  0  0
   37.0690   25.9860   32.6870 C   0  0  0  0  0  0  0  0  0  0  0  0
   37.1440   24.6200   32.6080 N   0  0  0  0  0  0  0  0  0  0  0  0
   36.3560   23.9230   31.7770 C   0  0  0  0  0  0  0  0  0  0  0  0
   35.4660   24.5360   30.9950 N   0  0  0  0  0  0  0  0  0  0  0  0
   34.6480   26.4560   30.4280 H   0  0  0  0  0  0  0  0  0  0  0  0
   37.7180   26.5260   33.3680 H   0  0  0  0  0  0  0  0  0  0  0  0
   36.5080   22.8510   31.8010 H   0  0  0  0  0  0  0  0  0  0  0  0
   34.9860   30.6010   34.4380 C   0  0  0  0  0  0  0  0  0  0  0  0
   35.7790   31.3650   35.2890 C   0  0  0  0  0  0  0  0  0  0  0  0
   36.8250   31.5360   35.0100 H   0  0  0  0  0  0  0  0  0  0  0  0
   35.3560   31.9330   36.4740 C   0  0  0  0  0  0  0  0  0  0  0  0
   36.0440   32.5070   37.0640 H   0  0  0  0  0  0  0  0  0  0  0  0
   34.0500   31.7160   36.8160 C   0  0  0  0  0  3  0  0  0  0  0  0
   33.2500   30.9620   35.9850 C   0  0  0  0  0  3  0  0  0  0  0  0
   33.7210   30.4270   34.8290 N   0  0  0  0  0  0  0  0  0  0  0  0
  1  6  1  0  0  0  0
  2  3  1  0  0  0  0
  2  1  2  0  0  0  0
  3  4  2  0  0  0  0
  4  9  1  0  0  0  0
  4  5  1  0  0  0  0
  5 19  1  0  0  0  0
  6  5  2  0  0  0  0
  7  2  1  0  0  0  0
  8  3  1  0  0  0  0
 10 11  1  0  0  0  0
 11  1  1  0  0  0  0
 11 12  2  0  0  0  0
 12 17  1  0  0  0  0
 13 12  1  0  0  0  0
 14 18  1  0  0  0  0
 14 13  2  0  0  0  0
 15 10  2  0  0  0  0
 15 14  1  0  0  0  0
 16 10  1  0  0  0  0
 19 26  2  0  0  0  0
 19 20  1  0  0  0  0
 20 22  2  0  0  0  0
 21 20  1  0  0  0  0
 22 24  1  0  0  0  0
 22 23  1  0  0  0  0
 25 24  2  0  0  0  0
 26 25  1  0  0  0  0
M  END
>  <minimizedAffinity>
-4.91571522

$$$$

 OpenBabel03262522333D

 26 28  0  0  0  0  0  0  0  0999 V2000
   38.1890   24.6790   34.7060 C   0  0  0  0  0  0  0  0  0  0  0  0
   38.4330   23.9890   33.5500 C   0  0  0  0  0  0  0  0  0  0  0  0
   38.1510   24.4720   32.2870 C   0  0  0  0  0  0  0  0  0  0  0  0
   37.5890   25.7210   32.1560 C   0  0  0  0  0  0  0  0  0  0  0  0
   37.3500   26.4000   33.3240 C   0  0  0  0  0  0  0  0  0  0  0  0
   37.6330   25.9120   34.5490 N   0  0  0  0  0  0  0  0  0  0  0  0
   38.8760   23.0060   33.6520 H   0  0  0  0  0  0  0  0  0  0  0  0
   38.3800   23.8500   31.4230 H   0  0  0  0  0  0  0  0  0  0  0  0
   37.3760   26.0810   31.1650 H   0  0  0  0  0  0  0  0  0  0  0  0
   39.5240   23.2540   36.3010 C   0  0  0  0  0  0  0  0  0  0  0  0
   38.4860   24.1700   36.0380 C   0  0  0  0  0  0  0  0  0  0  0  0
   37.7110   24.6100   37.0960 C   0  0  0  0  0  0  0  0  0  0  0  0
   37.9850   24.1350   38.3520 N   0  0  0  0  0  0  0  0  0  0  0  0
   38.9810   23.2630   38.5680 C   0  0  0  0  0  0  0  0  0  0  0  0
   39.7430   22.8240   37.5660 N   0  0  0  0  0  0  0  0  0  0  0  0
   40.0930   22.9500   35.4360 H   0  0  0  0  0  0  0  0  0  0  0  0
   36.9000   25.3140   36.9480 H   0  0  0  0  0  0  0  0  0  0  0  0
   39.1010   22.9620   39.6020 H   0  0  0  0  0  0  0  0  0  0  0  0
   36.7560   27.7280   33.2350 C   0  0  0  0  0  0  0  0  0  0  0  0
   36.2460   28.3730   34.3580 C   0  0  0  0  0  0  0  0  0  0  0  0
   36.2990   27.8570   35.3230 H   0  0  0  0  0  0  0  0  0  0  0  0
   35.6680   29.6270   34.3610 C   0  0  0  0  0  0  0  0  0  0  0  0
   35.3020   30.0420   35.2790 H   0  0  0  0  0  0  0  0  0  0  0  0
   35.6050   30.2660   33.1530 C   0  0  0  0  0  3  0  0  0  0  0  0
   36.1060   29.6420   32.0310 C   0  0  0  0  0  3  0  0  0  0  0  0
   36.6640   28.4050   32.0890 N   0  0  0  0  0  0  0  0  0  0  0  0
  1 11  1  0  0  0  0
  2  7  1  0  0  0  0
  2  1  2  0  0  0  0
  3  2  1  0  0  0  0
  4  3  2  0  0  0  0
  4  5  1  0  0  0  0
  5  6  2  0  0  0  0
  6  1  1  0  0  0  0
  8  3  1  0  0  0  0
  9  4  1  0  0  0  0
 10 15  1  0  0  0  0
 11 10  2  0  0  0  0
 11 12  1  0  0  0  0
 12 13  2  0  0  0  0
 13 14  1  0  0  0  0
 14 18  1  0  0  0  0
 15 14  2  0  0  0  0
 16 10  1  0  0  0  0
 17 12  1  0  0  0  0
 19  5  1  0  0  0  0
 19 20  1  0  0  0  0
 20 22  2  0  0  0  0
 20 21  1  0  0  0  0
 22 23  1  0  0  0  0
 24 22  1  0  0  0  0
 25 26  1  0  0  0  0
 25 24  2  0  0  0  0
 26 19  2  0  0  0  0
M  END
>  <minimizedAffinity>
-4.84281778

$$$$
