
 OpenBabel03272506523D

 33 35  0  0  1  0  0  0  0  0999 V2000
   38.4810   26.9960   34.0750 C   0  0  1  0  0  0  0  0  0  0  0  0
   38.6570   26.9200   35.5440 C   0  0  0  0  0  0  0  0  0  0  0  0
   38.1060   25.7070   36.2300 C   0  0  0  0  0  0  0  0  0  0  0  0
   38.2690   24.4340   35.4870 C   0  0  1  0  0  0  0  0  0  0  0  0
   38.1050   24.4860   34.0060 C   0  0  0  0  0  0  0  0  0  0  0  0
   38.7460   25.7010   33.4050 C   0  0  0  0  0  0  0  0  0  0  0  0
   39.2980   27.6860   33.6870 H   0  0  0  0  0  0  0  0  0  0  0  0
   38.4840   27.8140   36.1230 H   0  0  0  0  0  0  0  0  0  0  0  0
   39.7750   26.7590   35.6850 H   0  0  0  0  0  0  0  0  0  0  0  0
   38.5920   25.6080   37.2200 H   0  0  0  0  0  0  0  0  0  0  0  0
   37.0130   25.9000   36.3730 H   0  0  0  0  0  0  0  0  0  0  0  0
   37.4600   23.7450   35.8740 H   0  0  0  0  0  0  0  0  0  0  0  0
   37.0220   24.4700   33.7630 H   0  0  0  0  0  0  0  0  0  0  0  0
   38.5600   23.6090   33.5430 H   0  0  0  0  0  0  0  0  0  0  0  0
   39.8660   25.5040   33.4880 H   0  0  0  0  0  0  0  0  0  0  0  0
   38.5700   25.7320   32.3240 H   0  0  0  0  0  0  0  0  0  0  0  0
   36.4060   28.4200   34.4710 C   0  0  0  0  0  0  0  0  0  0  0  0
   37.2460   27.6680   33.6160 C   0  0  0  0  0  0  0  0  0  0  0  0
   36.8770   27.5760   32.2870 C   0  0  0  0  0  0  0  0  0  0  0  0
   35.7430   28.1990   31.8550 N   0  0  0  0  0  0  0  0  0  0  0  0
   34.9700   28.9110   32.7190 C   0  0  0  0  0  0  0  0  0  0  0  0
   35.2980   29.0230   34.0190 N   0  0  0  0  0  0  0  0  0  0  0  0
   36.6670   28.5050   35.4880 H   0  0  0  0  0  0  0  0  0  0  0  0
   37.3740   27.0630   31.4860 H   0  0  0  0  0  0  0  0  0  0  0  0
   34.0610   29.4230   32.4260 H   0  0  0  0  0  0  0  0  0  0  0  0
   39.5420   23.8070   35.9380 C   0  0  0  0  0  0  0  0  0  0  0  0
   39.5250   22.9910   37.0740 C   0  0  0  0  0  0  0  0  0  0  0  0
   38.6090   22.7960   37.6450 H   0  0  0  0  0  0  0  0  0  0  0  0
   40.6870   22.3730   37.5490 C   0  0  0  0  0  0  0  0  0  0  0  0
   40.6320   21.7440   38.4380 H   0  0  0  0  0  0  0  0  0  0  0  0
   41.8560   22.6050   36.8430 C   0  0  0  0  0  3  0  0  0  0  0  0
   41.8520   23.4200   35.7170 C   0  0  0  0  0  3  0  0  0  0  0  0
   40.6940   24.0000   35.2930 N   0  0  0  0  0  0  0  0  0  0  0  0
  1  7  1  6  0  0  0
  1  2  1  0  0  0  0
  2  9  1  0  0  0  0
  2  8  1  0  0  0  0
  2  3  1  0  0  0  0
  3 11  1  0  0  0  0
  3 10  1  0  0  0  0
  4 12  1  1  0  0  0
  4 26  1  0  0  0  0
  4  3  1  0  0  0  0
  5  4  1  0  0  0  0
  6 15  1  0  0  0  0
  6  5  1  0  0  0  0
  6  1  1  0  0  0  0
 13  5  1  0  0  0  0
 14  5  1  0  0  0  0
 16  6  1  0  0  0  0
 17 23  1  0  0  0  0
 18  1  1  0  0  0  0
 18 17  2  0  0  0  0
 19 18  1  0  0  0  0
 20 19  2  0  0  0  0
 20 21  1  0  0  0  0
 21 22  2  0  0  0  0
 22 17  1  0  0  0  0
 24 19  1  0  0  0  0
 25 21  1  0  0  0  0
 26 27  1  0  0  0  0
 27 29  2  0  0  0  0
 27 28  1  0  0  0  0
 29 30  1  0  0  0  0
 31 29  1  0  0  0  0
 32 31  2  0  0  0  0
 33 32  1  0  0  0  0
 33 26  2  0  0  0  0
M  END
>  <minimizedAffinity>
-5.10562992

$$$$

 OpenBabel03272506523D

 33 35  0  0  1  0  0  0  0  0999 V2000
   39.8850   26.8660   34.5990 C   0  0  1  0  0  0  0  0  0  0  0  0
   39.5690   27.0560   33.1650 C   0  0  0  0  0  0  0  0  0  0  0  0
   38.2010   26.6430   32.7120 C   0  0  0  0  0  0  0  0  0  0  0  0
   37.1050   26.9380   33.6670 C   0  0  1  0  0  0  0  0  0  0  0  0
   37.4020   26.7630   35.1170 C   0  0  0  0  0  0  0  0  0  0  0  0
   38.7660   27.2650   35.4840 C   0  0  0  0  0  0  0  0  0  0  0  0
   40.7170   27.6020   34.8470 H   0  0  0  0  0  0  0  0  0  0  0  0
   40.3220   26.7910   32.4380 H   0  0  0  0  0  0  0  0  0  0  0  0
   39.5060   28.1850   33.0380 H   0  0  0  0  0  0  0  0  0  0  0  0
   37.9800   27.1420   31.7480 H   0  0  0  0  0  0  0  0  0  0  0  0
   38.2480   25.5360   32.5520 H   0  0  0  0  0  0  0  0  0  0  0  0
   36.2760   26.2110   33.4200 H   0  0  0  0  0  0  0  0  0  0  0  0
   37.3130   25.6860   35.3750 H   0  0  0  0  0  0  0  0  0  0  0  0
   36.6750   27.3080   35.7210 H   0  0  0  0  0  0  0  0  0  0  0  0
   38.6790   28.4010   35.4210 H   0  0  0  0  0  0  0  0  0  0  0  0
   38.9690   27.0820   36.5450 H   0  0  0  0  0  0  0  0  0  0  0  0
   39.7410   24.4560   35.4120 C   0  0  0  0  0  0  0  0  0  0  0  0
   40.4920   25.5630   34.9500 C   0  0  0  0  0  0  0  0  0  0  0  0
   41.8570   25.3930   34.8220 C   0  0  0  0  0  0  0  0  0  0  0  0
   42.4230   24.1920   35.1370 N   0  0  0  0  0  0  0  0  0  0  0  0
   41.6550   23.1590   35.5770 C   0  0  0  0  0  0  0  0  0  0  0  0
   40.3220   23.2870   35.7130 N   0  0  0  0  0  0  0  0  0  0  0  0
   38.6980   24.5600   35.5170 H   0  0  0  0  0  0  0  0  0  0  0  0
   42.5930   26.0990   34.4880 H   0  0  0  0  0  0  0  0  0  0  0  0
   42.0550   22.1860   35.8400 H   0  0  0  0  0  0  0  0  0  0  0  0
   36.5490   28.2740   33.3160 C   0  0  0  0  0  0  0  0  0  0  0  0
   35.8590   28.9950   34.2970 C   0  0  0  0  0  0  0  0  0  0  0  0
   35.7120   28.6120   35.3150 H   0  0  0  0  0  0  0  0  0  0  0  0
   35.3120   30.2550   34.0320 C   0  0  0  0  0  0  0  0  0  0  0  0
   34.7810   30.7840   34.8240 H   0  0  0  0  0  0  0  0  0  0  0  0
   35.4850   30.7580   32.7530 C   0  0  0  0  0  3  0  0  0  0  0  0
   36.1730   30.0270   31.7920 C   0  0  0  0  0  3  0  0  0  0  0  0
   36.6880   28.8030   32.0990 N   0  0  0  0  0  0  0  0  0  0  0  0
  1  7  1  1  0  0  0
  1 18  1  0  0  0  0
  1  6  1  0  0  0  0
  2  1  1  0  0  0  0
  3  2  1  0  0  0  0
  3  4  1  0  0  0  0
  4 12  1  6  0  0  0
  4  5  1  0  0  0  0
  5 13  1  0  0  0  0
  5  6  1  0  0  0  0
  5 14  1  0  0  0  0
  6 16  1  0  0  0  0
  8  2  1  0  0  0  0
  9  2  1  0  0  0  0
 10  3  1  0  0  0  0
 11  3  1  0  0  0  0
 15  6  1  0  0  0  0
 17 23  1  0  0  0  0
 17 22  1  0  0  0  0
 18 17  2  0  0  0  0
 19 18  1  0  0  0  0
 19 20  2  0  0  0  0
 20 21  1  0  0  0  0
 21 22  2  0  0  0  0
 21 25  1  0  0  0  0
 24 19  1  0  0  0  0
 26  4  1  0  0  0  0
 26 27  1  0  0  0  0
 27 28  1  0  0  0  0
 29 27  2  0  0  0  0
 29 30  1  0  0  0  0
 31 29  1  0  0  0  0
 32 33  1  0  0  0  0
 32 31  2  0  0  0  0
 33 26  2  0  0  0  0
M  END
>  <minimizedAffinity>
-4.94431639

$$$$

 OpenBabel03272506523D

 33 35  0  0  1  0  0  0  0  0999 V2000
   35.2830   29.2360   34.0300 C   0  0  1  0  0  0  0  0  0  0  0  0
   34.8490   28.9580   32.6420 C   0  0  0  0  0  0  0  0  0  0  0  0
   35.9130   28.5600   31.6650 C   0  0  0  0  0  0  0  0  0  0  0  0
   36.9670   27.6690   32.2100 C   0  0  1  0  0  0  0  0  0  0  0  0
   37.4150   27.9240   33.6080 C   0  0  0  0  0  0  0  0  0  0  0  0
   36.2720   28.2490   34.5220 C   0  0  0  0  0  0  0  0  0  0  0  0
   34.3720   29.0770   34.6920 H   0  0  0  0  0  0  0  0  0  0  0  0
   34.1290   29.6250   32.1910 H   0  0  0  0  0  0  0  0  0  0  0  0
   34.2550   27.9900   32.7220 H   0  0  0  0  0  0  0  0  0  0  0  0
   35.4330   28.0600   30.8010 H   0  0  0  0  0  0  0  0  0  0  0  0
   36.3920   29.5120   31.3220 H   0  0  0  0  0  0  0  0  0  0  0  0
   37.8720   27.8230   31.5500 H   0  0  0  0  0  0  0  0  0  0  0  0
   38.1470   28.7590   33.6050 H   0  0  0  0  0  0  0  0  0  0  0  0
   37.9200   27.0440   34.0100 H   0  0  0  0  0  0  0  0  0  0  0  0
   35.7210   27.2600   34.6530 H   0  0  0  0  0  0  0  0  0  0  0  0
   36.6400   28.4730   35.5300 H   0  0  0  0  0  0  0  0  0  0  0  0
   35.6840   31.6500   33.3210 C   0  0  0  0  0  0  0  0  0  0  0  0
   35.6470   30.6420   34.3140 C   0  0  0  0  0  0  0  0  0  0  0  0
   35.9630   31.0140   35.6070 C   0  0  0  0  0  0  0  0  0  0  0  0
   36.2920   32.3100   35.8770 N   0  0  0  0  0  0  0  0  0  0  0  0
   36.3130   33.2420   34.8850 C   0  0  0  0  0  0  0  0  0  0  0  0
   36.0100   32.9170   33.6150 N   0  0  0  0  0  0  0  0  0  0  0  0
   35.4460   31.3920   32.3290 H   0  0  0  0  0  0  0  0  0  0  0  0
   35.9890   30.4090   36.4920 H   0  0  0  0  0  0  0  0  0  0  0  0
   36.5670   34.2830   35.0480 H   0  0  0  0  0  0  0  0  0  0  0  0
   36.5490   26.2640   31.9500 C   0  0  0  0  0  0  0  0  0  0  0  0
   35.4600   26.0310   31.1030 C   0  0  0  0  0  0  0  0  0  0  0  0
   34.9020   26.8450   30.6240 H   0  0  0  0  0  0  0  0  0  0  0  0
   35.0170   24.7350   30.8180 C   0  0  0  0  0  0  0  0  0  0  0  0
   34.1640   24.5960   30.1530 H   0  0  0  0  0  0  0  0  0  0  0  0
   35.7060   23.6910   31.4130 C   0  0  0  0  0  3  0  0  0  0  0  0
   36.7850   23.9420   32.2520 C   0  0  0  0  0  3  0  0  0  0  0  0
   37.1790   25.2240   32.4990 N   0  0  0  0  0  0  0  0  0  0  0  0
  1 18  1  0  0  0  0
  1  6  1  0  0  0  0
  1  7  1  1  0  0  0
  2  9  1  0  0  0  0
  2  1  1  0  0  0  0
  3  4  1  0  0  0  0
  3  2  1  0  0  0  0
  4 12  1  6  0  0  0
  4  5  1  0  0  0  0
  5 14  1  0  0  0  0
  5  6  1  0  0  0  0
  6 15  1  0  0  0  0
  6 16  1  0  0  0  0
  8  2  1  0  0  0  0
 10  3  1  0  0  0  0
 11  3  1  0  0  0  0
 13  5  1  0  0  0  0
 17 22  2  0  0  0  0
 17 18  1  0  0  0  0
 18 19  2  0  0  0  0
 19 20  1  0  0  0  0
 19 24  1  0  0  0  0
 21 25  1  0  0  0  0
 21 20  2  0  0  0  0
 22 21  1  0  0  0  0
 23 17  1  0  0  0  0
 26  4  1  0  0  0  0
 26 33  1  0  0  0  0
 27 26  2  0  0  0  0
 28 27  1  0  0  0  0
 29 27  1  0  0  0  0
 29 31  2  0  0  0  0
 30 29  1  0  0  0  0
 31 32  1  0  0  0  0
 32 33  2  0  0  0  0
M  END
>  <minimizedAffinity>
-4.90347242

$$$$

 OpenBabel03272506523D

 33 35  0  0  1  0  0  0  0  0999 V2000
   36.7950   27.2480   33.0830 C   0  0  1  0  0  0  0  0  0  0  0  0
   37.9520   26.3960   32.7240 C   0  0  0  0  0  0  0  0  0  0  0  0
   39.2150   26.6040   33.5040 C   0  0  0  0  0  0  0  0  0  0  0  0
   39.0250   26.8710   34.9500 C   0  0  1  0  0  0  0  0  0  0  0  0
   37.8630   27.7190   35.3380 C   0  0  0  0  0  0  0  0  0  0  0  0
   36.6310   27.3910   34.5490 C   0  0  0  0  0  0  0  0  0  0  0  0
   35.8640   26.6860   32.7480 H   0  0  0  0  0  0  0  0  0  0  0  0
   38.1570   26.2330   31.6760 H   0  0  0  0  0  0  0  0  0  0  0  0
   37.6530   25.3540   33.0710 H   0  0  0  0  0  0  0  0  0  0  0  0
   39.8570   25.7090   33.3860 H   0  0  0  0  0  0  0  0  0  0  0  0
   39.7240   27.4870   33.0410 H   0  0  0  0  0  0  0  0  0  0  0  0
   39.9510   27.4250   35.2870 H   0  0  0  0  0  0  0  0  0  0  0  0
   38.1320   28.7860   35.1940 H   0  0  0  0  0  0  0  0  0  0  0  0
   37.6250   27.5780   36.3940 H   0  0  0  0  0  0  0  0  0  0  0  0
   36.2960   26.3770   34.9480 H   0  0  0  0  0  0  0  0  0  0  0  0
   35.8080   28.0600   34.8270 H   0  0  0  0  0  0  0  0  0  0  0  0
   37.3440   28.7620   31.1090 C   0  0  0  0  0  0  0  0  0  0  0  0
   36.6880   28.5220   32.3400 C   0  0  0  0  0  0  0  0  0  0  0  0
   35.9080   29.5430   32.8510 C   0  0  0  0  0  0  0  0  0  0  0  0
   35.7990   30.7190   32.1670 N   0  0  0  0  0  0  0  0  0  0  0  0
   36.4510   30.8970   30.9860 C   0  0  0  0  0  0  0  0  0  0  0  0
   37.2180   29.9270   30.4580 N   0  0  0  0  0  0  0  0  0  0  0  0
   37.9440   27.9990   30.6990 H   0  0  0  0  0  0  0  0  0  0  0  0
   35.3320   29.5590   33.7560 H   0  0  0  0  0  0  0  0  0  0  0  0
   36.3960   31.8110   30.4060 H   0  0  0  0  0  0  0  0  0  0  0  0
   39.0920   25.5650   35.6630 C   0  0  0  0  0  0  0  0  0  0  0  0
   38.1710   25.3080   36.6850 C   0  0  0  0  0  0  0  0  0  0  0  0
   37.4030   26.0330   36.9810 H   0  0  0  0  0  0  0  0  0  0  0  0
   38.1800   24.1020   37.3930 C   0  0  0  0  0  0  0  0  0  0  0  0
   37.4460   23.9400   38.1820 H   0  0  0  0  0  0  0  0  0  0  0  0
   39.1430   23.1700   37.0350 C   0  0  0  0  0  3  0  0  0  0  0  0
   40.0480   23.4450   36.0180 C   0  0  0  0  0  3  0  0  0  0  0  0
   39.9990   24.6360   35.3570 N   0  0  0  0  0  0  0  0  0  0  0  0
  1  7  1  6  0  0  0
  1  6  1  0  0  0  0
  2  9  1  0  0  0  0
  2  1  1  0  0  0  0
  2  3  1  0  0  0  0
  3  4  1  0  0  0  0
  4 12  1  1  0  0  0
  4  5  1  0  0  0  0
  4 26  1  0  0  0  0
  5 14  1  0  0  0  0
  6 16  1  0  0  0  0
  6 15  1  0  0  0  0
  6  5  1  0  0  0  0
  8  2  1  0  0  0  0
 10  3  1  0  0  0  0
 11  3  1  0  0  0  0
 13  5  1  0  0  0  0
 17 18  1  0  0  0  0
 18 19  2  0  0  0  0
 18  1  1  0  0  0  0
 19 24  1  0  0  0  0
 20 19  1  0  0  0  0
 21 20  2  0  0  0  0
 22 21  1  0  0  0  0
 22 17  2  0  0  0  0
 23 17  1  0  0  0  0
 25 21  1  0  0  0  0
 26 27  1  0  0  0  0
 27 28  1  0  0  0  0
 27 29  2  0  0  0  0
 29 30  1  0  0  0  0
 31 29  1  0  0  0  0
 32 31  2  0  0  0  0
 33 26  2  0  0  0  0
 33 32  1  0  0  0  0
M  END
>  <minimizedAffinity>
-4.88506126

$$$$

 OpenBabel03272506523D

 33 35  0  0  1  0  0  0  0  0999 V2000
   36.9740   27.6810   32.3540 C   0  0  1  0  0  0  0  0  0  0  0  0
   36.2880   28.7780   31.6330 C   0  0  0  0  0  0  0  0  0  0  0  0
   35.0570   29.3450   32.2740 C   0  0  0  0  0  0  0  0  0  0  0  0
   35.1170   29.4720   33.7500 C   0  0  1  0  0  0  0  0  0  0  0  0
   35.8100   28.3840   34.4980 C   0  0  0  0  0  0  0  0  0  0  0  0
   37.0630   27.9300   33.8120 C   0  0  0  0  0  0  0  0  0  0  0  0
   38.0550   27.6880   32.0000 H   0  0  0  0  0  0  0  0  0  0  0  0
   36.1700   28.6880   30.5630 H   0  0  0  0  0  0  0  0  0  0  0  0
   37.0020   29.6600   31.7180 H   0  0  0  0  0  0  0  0  0  0  0  0
   34.8570   30.3420   31.8360 H   0  0  0  0  0  0  0  0  0  0  0  0
   34.2210   28.6510   32.0080 H   0  0  0  0  0  0  0  0  0  0  0  0
   34.0440   29.4700   34.1040 H   0  0  0  0  0  0  0  0  0  0  0  0
   35.1120   27.5290   34.6170 H   0  0  0  0  0  0  0  0  0  0  0  0
   36.0850   28.7270   35.4970 H   0  0  0  0  0  0  0  0  0  0  0  0
   37.7970   28.7900   33.9590 H   0  0  0  0  0  0  0  0  0  0  0  0
   37.5240   27.1030   34.3630 H   0  0  0  0  0  0  0  0  0  0  0  0
   35.4700   26.0480   31.1040 C   0  0  0  0  0  0  0  0  0  0  0  0
   36.5280   26.3140   32.0060 C   0  0  0  0  0  0  0  0  0  0  0  0
   37.1670   25.2260   32.5710 C   0  0  0  0  0  0  0  0  0  0  0  0
   36.7660   23.9630   32.2490 N   0  0  0  0  0  0  0  0  0  0  0  0
   35.7420   23.7620   31.3760 C   0  0  0  0  0  0  0  0  0  0  0  0
   35.0980   24.7950   30.8040 N   0  0  0  0  0  0  0  0  0  0  0  0
   34.9680   26.8600   30.6590 H   0  0  0  0  0  0  0  0  0  0  0  0
   37.9840   25.2150   33.2660 H   0  0  0  0  0  0  0  0  0  0  0  0
   35.3870   22.7790   31.0870 H   0  0  0  0  0  0  0  0  0  0  0  0
   35.6130   30.8400   34.0660 C   0  0  0  0  0  0  0  0  0  0  0  0
   35.8700   31.1710   35.4010 C   0  0  0  0  0  0  0  0  0  0  0  0
   35.7190   30.4610   36.2230 H   0  0  0  0  0  0  0  0  0  0  0  0
   36.3360   32.4390   35.7640 C   0  0  0  0  0  0  0  0  0  0  0  0
   36.5250   32.6580   36.8150 H   0  0  0  0  0  0  0  0  0  0  0  0
   36.5340   33.3530   34.7410 C   0  0  0  0  0  3  0  0  0  0  0  0
   36.2730   33.0040   33.4220 C   0  0  0  0  0  3  0  0  0  0  0  0
   35.8190   31.7560   33.1180 N   0  0  0  0  0  0  0  0  0  0  0  0
  1  7  1  6  0  0  0
  1  6  1  0  0  0  0
  2  9  1  0  0  0  0
  2  3  1  0  0  0  0
  2  1  1  0  0  0  0
  3  4  1  0  0  0  0
  4 26  1  0  0  0  0
  4 12  1  1  0  0  0
  4  5  1  0  0  0  0
  5 13  1  0  0  0  0
  5 14  1  0  0  0  0
  6 15  1  0  0  0  0
  6 16  1  0  0  0  0
  6  5  1  0  0  0  0
  8  2  1  0  0  0  0
 10  3  1  0  0  0  0
 11  3  1  0  0  0  0
 17 18  1  0  0  0  0
 18  1  1  0  0  0  0
 18 19  2  0  0  0  0
 19 24  1  0  0  0  0
 20 19  1  0  0  0  0
 21 20  2  0  0  0  0
 22 17  2  0  0  0  0
 22 21  1  0  0  0  0
 23 17  1  0  0  0  0
 25 21  1  0  0  0  0
 26 27  1  0  0  0  0
 27 29  2  0  0  0  0
 27 28  1  0  0  0  0
 29 30  1  0  0  0  0
 31 29  1  0  0  0  0
 32 31  2  0  0  0  0
 33 32  1  0  0  0  0
 33 26  2  0  0  0  0
M  END
>  <minimizedAffinity>
-4.87198687

$$$$

 OpenBabel03272506523D

 33 35  0  0  1  0  0  0  0  0999 V2000
   39.9630   26.8990   34.6260 C   0  0  1  0  0  0  0  0  0  0  0  0
   39.6020   27.0990   33.2050 C   0  0  0  0  0  0  0  0  0  0  0  0
   38.2390   26.6430   32.7810 C   0  0  0  0  0  0  0  0  0  0  0  0
   37.1590   26.8830   33.7690 C   0  0  1  0  0  0  0  0  0  0  0  0
   37.5000   26.6960   35.2080 C   0  0  0  0  0  0  0  0  0  0  0  0
   38.8550   27.2430   35.5470 C   0  0  0  0  0  0  0  0  0  0  0  0
   40.7740   27.6610   34.8650 H   0  0  0  0  0  0  0  0  0  0  0  0
   40.3450   26.8730   32.4540 H   0  0  0  0  0  0  0  0  0  0  0  0
   39.4950   28.2270   33.0980 H   0  0  0  0  0  0  0  0  0  0  0  0
   37.9740   27.1480   31.8320 H   0  0  0  0  0  0  0  0  0  0  0  0
   38.3210   25.5410   32.6020 H   0  0  0  0  0  0  0  0  0  0  0  0
   36.3500   26.1290   33.5320 H   0  0  0  0  0  0  0  0  0  0  0  0
   37.4580   25.6130   35.4500 H   0  0  0  0  0  0  0  0  0  0  0  0
   36.7710   27.2040   35.8400 H   0  0  0  0  0  0  0  0  0  0  0  0
   38.7240   28.3750   35.5060 H   0  0  0  0  0  0  0  0  0  0  0  0
   39.0930   27.0510   36.5990 H   0  0  0  0  0  0  0  0  0  0  0  0
   39.9200   24.4470   35.3190 C   0  0  0  0  0  0  0  0  0  0  0  0
   40.6260   25.6140   34.9400 C   0  0  0  0  0  0  0  0  0  0  0  0
   42.0030   25.5230   34.8600 C   0  0  0  0  0  0  0  0  0  0  0  0
   42.6210   24.3390   35.1410 N   0  0  0  0  0  0  0  0  0  0  0  0
   41.8940   23.2460   35.5000 C   0  0  0  0  0  0  0  0  0  0  0  0
   40.5530   23.2970   35.5880 N   0  0  0  0  0  0  0  0  0  0  0  0
   38.8700   24.4920   35.3870 H   0  0  0  0  0  0  0  0  0  0  0  0
   42.7120   26.2820   34.5890 H   0  0  0  0  0  0  0  0  0  0  0  0
   42.3370   22.2840   35.7330 H   0  0  0  0  0  0  0  0  0  0  0  0
   36.5450   28.2030   33.4550 C   0  0  0  0  0  0  0  0  0  0  0  0
   36.5900   28.6690   32.1370 C   0  0  0  0  0  0  0  0  0  0  0  0
   37.0610   28.1000   31.3270 H   0  0  0  0  0  0  0  0  0  0  0  0
   36.0320   29.9000   31.7760 C   0  0  0  0  0  0  0  0  0  0  0  0
   36.0880   30.2290   30.7380 H   0  0  0  0  0  0  0  0  0  0  0  0
   35.4300   30.6370   32.7840 C   0  0  0  0  0  3  0  0  0  0  0  0
   35.3960   30.1560   34.0870 C   0  0  0  0  0  3  0  0  0  0  0  0
   35.9540   28.9500   34.3890 N   0  0  0  0  0  0  0  0  0  0  0  0
  1  7  1  1  0  0  0
  1 18  1  0  0  0  0
  1  6  1  0  0  0  0
  2  1  1  0  0  0  0
  3  2  1  0  0  0  0
  3  4  1  0  0  0  0
  4 12  1  6  0  0  0
  4  5  1  0  0  0  0
  5 13  1  0  0  0  0
  5  6  1  0  0  0  0
  5 14  1  0  0  0  0
  6 16  1  0  0  0  0
  8  2  1  0  0  0  0
  9  2  1  0  0  0  0
 10  3  1  0  0  0  0
 11  3  1  0  0  0  0
 15  6  1  0  0  0  0
 17 23  1  0  0  0  0
 17 22  1  0  0  0  0
 18 17  2  0  0  0  0
 19 18  1  0  0  0  0
 19 20  2  0  0  0  0
 20 21  1  0  0  0  0
 21 22  2  0  0  0  0
 21 25  1  0  0  0  0
 24 19  1  0  0  0  0
 26  4  1  0  0  0  0
 26 33  1  0  0  0  0
 27 26  2  0  0  0  0
 28 27  1  0  0  0  0
 29 27  1  0  0  0  0
 29 31  2  0  0  0  0
 30 29  1  0  0  0  0
 31 32  1  0  0  0  0
 32 33  2  0  0  0  0
M  END
>  <minimizedAffinity>
-4.86491966

$$$$

 OpenBabel03272506523D

 33 35  0  0  1  0  0  0  0  0999 V2000
   36.9730   27.1190   33.5020 C   0  0  1  0  0  0  0  0  0  0  0  0
   38.1710   26.7070   32.7350 C   0  0  0  0  0  0  0  0  0  0  0  0
   39.5050   27.0680   33.3150 C   0  0  0  0  0  0  0  0  0  0  0  0
   39.6020   26.9510   34.7900 C   0  0  1  0  0  0  0  0  0  0  0  0
   38.4070   27.3520   35.5840 C   0  0  0  0  0  0  0  0  0  0  0  0
   37.1260   26.8890   34.9570 C   0  0  0  0  0  0  0  0  0  0  0  0
   36.1330   26.4180   33.1920 H   0  0  0  0  0  0  0  0  0  0  0  0
   38.1580   26.8380   31.6630 H   0  0  0  0  0  0  0  0  0  0  0  0
   38.1910   25.5740   32.8340 H   0  0  0  0  0  0  0  0  0  0  0  0
   40.2780   26.4250   32.8520 H   0  0  0  0  0  0  0  0  0  0  0  0
   39.6900   28.1330   33.0270 H   0  0  0  0  0  0  0  0  0  0  0  0
   40.4400   27.6440   35.1000 H   0  0  0  0  0  0  0  0  0  0  0  0
   38.3990   28.4570   35.6900 H   0  0  0  0  0  0  0  0  0  0  0  0
   38.4570   26.9250   36.5870 H   0  0  0  0  0  0  0  0  0  0  0  0
   37.1190   25.7610   35.1200 H   0  0  0  0  0  0  0  0  0  0  0  0
   36.2660   27.2370   35.5410 H   0  0  0  0  0  0  0  0  0  0  0  0
   35.6840   29.2420   34.0690 C   0  0  0  0  0  0  0  0  0  0  0  0
   36.4250   28.4500   33.1600 C   0  0  0  0  0  0  0  0  0  0  0  0
   36.6390   28.9700   31.8970 C   0  0  0  0  0  0  0  0  0  0  0  0
   36.1420   30.1990   31.5770 N   0  0  0  0  0  0  0  0  0  0  0  0
   35.4360   30.9200   32.4890 C   0  0  0  0  0  0  0  0  0  0  0  0
   35.2080   30.4480   33.7280 N   0  0  0  0  0  0  0  0  0  0  0  0
   35.5070   28.8690   35.0380 H   0  0  0  0  0  0  0  0  0  0  0  0
   37.1740   28.5340   31.0740 H   0  0  0  0  0  0  0  0  0  0  0  0
   35.0210   31.9000   32.2840 H   0  0  0  0  0  0  0  0  0  0  0  0
   40.1120   25.5870   35.1020 C   0  0  0  0  0  0  0  0  0  0  0  0
   41.4320   25.2680   34.7660 C   0  0  0  0  0  0  0  0  0  0  0  0
   42.1050   25.9850   34.2800 H   0  0  0  0  0  0  0  0  0  0  0  0
   41.9710   24.0050   35.0310 C   0  0  0  0  0  0  0  0  0  0  0  0
   43.0040   23.7950   34.7540 H   0  0  0  0  0  0  0  0  0  0  0  0
   41.1370   23.0820   35.6440 C   0  0  0  0  0  3  0  0  0  0  0  0
   39.8290   23.4180   35.9700 C   0  0  0  0  0  3  0  0  0  0  0  0
   39.3500   24.6630   35.6900 N   0  0  0  0  0  0  0  0  0  0  0  0
  1  7  1  6  0  0  0
  1  6  1  0  0  0  0
  2  9  1  0  0  0  0
  2  3  1  0  0  0  0
  2  1  1  0  0  0  0
  3  4  1  0  0  0  0
  4 12  1  1  0  0  0
  4 26  1  0  0  0  0
  4  5  1  0  0  0  0
  5 13  1  0  0  0  0
  5 14  1  0  0  0  0
  6 15  1  0  0  0  0
  6 16  1  0  0  0  0
  6  5  1  0  0  0  0
  8  2  1  0  0  0  0
 10  3  1  0  0  0  0
 11  3  1  0  0  0  0
 17 23  1  0  0  0  0
 18  1  1  0  0  0  0
 18 17  2  0  0  0  0
 19 18  1  0  0  0  0
 20 19  2  0  0  0  0
 20 21  1  0  0  0  0
 21 22  2  0  0  0  0
 22 17  1  0  0  0  0
 24 19  1  0  0  0  0
 25 21  1  0  0  0  0
 26 33  1  0  0  0  0
 27 29  1  0  0  0  0
 27 26  2  0  0  0  0
 28 27  1  0  0  0  0
 29 31  2  0  0  0  0
 30 29  1  0  0  0  0
 31 32  1  0  0  0  0
 33 32  2  0  0  0  0
M  END
>  <minimizedAffinity>
-4.85730362

$$$$

 OpenBabel03272506523D

 33 35  0  0  1  0  0  0  0  0999 V2000
   38.2810   23.9500   35.3240 C   0  0  1  0  0  0  0  0  0  0  0  0
   37.8270   25.1120   36.1200 C   0  0  0  0  0  0  0  0  0  0  0  0
   38.5090   26.4210   35.8600 C   0  0  0  0  0  0  0  0  0  0  0  0
   38.8340   26.6910   34.4380 C   0  0  1  0  0  0  0  0  0  0  0  0
   39.2860   25.5350   33.6140 C   0  0  0  0  0  0  0  0  0  0  0  0
   38.5000   24.2900   33.8980 C   0  0  0  0  0  0  0  0  0  0  0  0
   37.4160   23.2100   35.3080 H   0  0  0  0  0  0  0  0  0  0  0  0
   37.6420   24.9660   37.1740 H   0  0  0  0  0  0  0  0  0  0  0  0
   36.7820   25.3320   35.7260 H   0  0  0  0  0  0  0  0  0  0  0  0
   37.8670   27.2380   36.2420 H   0  0  0  0  0  0  0  0  0  0  0  0
   39.4630   26.3960   36.4460 H   0  0  0  0  0  0  0  0  0  0  0  0
   39.6900   27.4290   34.4510 H   0  0  0  0  0  0  0  0  0  0  0  0
   40.3640   25.3540   33.8070 H   0  0  0  0  0  0  0  0  0  0  0  0
   39.1750   25.7600   32.5520 H   0  0  0  0  0  0  0  0  0  0  0  0
   37.4740   24.4890   33.4410 H   0  0  0  0  0  0  0  0  0  0  0  0
   38.8850   23.4510   33.3090 H   0  0  0  0  0  0  0  0  0  0  0  0
   40.3520   22.4750   35.1590 C   0  0  0  0  0  0  0  0  0  0  0  0
   39.3740   23.1550   35.9250 C   0  0  0  0  0  0  0  0  0  0  0  0
   39.4700   23.0620   37.3000 C   0  0  0  0  0  0  0  0  0  0  0  0
   40.4800   22.3360   37.8610 N   0  0  0  0  0  0  0  0  0  0  0  0
   41.3950   21.7010   37.0800 C   0  0  0  0  0  0  0  0  0  0  0  0
   41.3340   21.7690   35.7370 N   0  0  0  0  0  0  0  0  0  0  0  0
   40.3010   22.5300   34.1090 H   0  0  0  0  0  0  0  0  0  0  0  0
   38.8390   23.5020   38.0480 H   0  0  0  0  0  0  0  0  0  0  0  0
   42.2140   21.1130   37.4760 H   0  0  0  0  0  0  0  0  0  0  0  0
   37.6950   27.4500   33.8510 C   0  0  0  0  0  0  0  0  0  0  0  0
   36.8320   28.1400   34.7100 C   0  0  0  0  0  0  0  0  0  0  0  0
   36.9630   28.1420   35.7990 H   0  0  0  0  0  0  0  0  0  0  0  0
   35.7440   28.8710   34.2230 C   0  0  0  0  0  0  0  0  0  0  0  0
   35.0950   29.3960   34.9240 H   0  0  0  0  0  0  0  0  0  0  0  0
   35.5590   28.8830   32.8490 C   0  0  0  0  0  3  0  0  0  0  0  0
   36.4270   28.1910   32.0130 C   0  0  0  0  0  3  0  0  0  0  0  0
   37.4730   27.4920   32.5370 N   0  0  0  0  0  0  0  0  0  0  0  0
  1  7  1  6  0  0  0
  1 18  1  0  0  0  0
  1  2  1  0  0  0  0
  2  8  1  0  0  0  0
  3  2  1  0  0  0  0
  3 10  1  0  0  0  0
  3 11  1  0  0  0  0
  4 12  1  1  0  0  0
  4  3  1  0  0  0  0
  5 13  1  0  0  0  0
  5  6  1  0  0  0  0
  5  4  1  0  0  0  0
  6  1  1  0  0  0  0
  9  2  1  0  0  0  0
 14  5  1  0  0  0  0
 15  6  1  0  0  0  0
 16  6  1  0  0  0  0
 17 22  2  0  0  0  0
 17 18  1  0  0  0  0
 18 19  2  0  0  0  0
 19 20  1  0  0  0  0
 19 24  1  0  0  0  0
 21 25  1  0  0  0  0
 21 20  2  0  0  0  0
 22 21  1  0  0  0  0
 23 17  1  0  0  0  0
 26  4  1  0  0  0  0
 26 27  1  0  0  0  0
 27 28  1  0  0  0  0
 29 27  2  0  0  0  0
 29 30  1  0  0  0  0
 31 29  1  0  0  0  0
 32 33  1  0  0  0  0
 32 31  2  0  0  0  0
 33 26  2  0  0  0  0
M  END
>  <minimizedAffinity>
-4.8570323

$$$$

 OpenBabel03272506523D

 33 35  0  0  1  0  0  0  0  0999 V2000
   36.7560   27.3460   33.0340 C   0  0  1  0  0  0  0  0  0  0  0  0
   37.9310   26.5320   32.6470 C   0  0  0  0  0  0  0  0  0  0  0  0
   39.1870   26.7370   33.4390 C   0  0  0  0  0  0  0  0  0  0  0  0
   38.9880   26.9470   34.8930 C   0  0  1  0  0  0  0  0  0  0  0  0
   37.8080   27.7560   35.3080 C   0  0  0  0  0  0  0  0  0  0  0  0
   36.5850   27.4330   34.5030 C   0  0  0  0  0  0  0  0  0  0  0  0
   35.8370   26.7780   32.6760 H   0  0  0  0  0  0  0  0  0  0  0  0
   38.1420   26.4110   31.5950 H   0  0  0  0  0  0  0  0  0  0  0  0
   37.6520   25.4720   32.9550 H   0  0  0  0  0  0  0  0  0  0  0  0
   39.8470   25.8600   33.2900 H   0  0  0  0  0  0  0  0  0  0  0  0
   39.6790   27.6450   33.0100 H   0  0  0  0  0  0  0  0  0  0  0  0
   39.9020   27.5070   35.2520 H   0  0  0  0  0  0  0  0  0  0  0  0
   38.0550   28.8340   35.2030 H   0  0  0  0  0  0  0  0  0  0  0  0
   37.5710   27.5720   36.3570 H   0  0  0  0  0  0  0  0  0  0  0  0
   36.2700   26.3980   34.8640 H   0  0  0  0  0  0  0  0  0  0  0  0
   35.7480   28.0740   34.8020 H   0  0  0  0  0  0  0  0  0  0  0  0
   35.8640   29.7250   32.8450 C   0  0  0  0  0  0  0  0  0  0  0  0
   36.6240   28.6440   32.3370 C   0  0  0  0  0  0  0  0  0  0  0  0
   37.2730   28.8380   31.1320 C   0  0  0  0  0  0  0  0  0  0  0  0
   37.1610   30.0350   30.4870 N   0  0  0  0  0  0  0  0  0  0  0  0
   36.4170   31.0420   31.0190 C   0  0  0  0  0  0  0  0  0  0  0  0
   35.7720   30.8910   32.1910 N   0  0  0  0  0  0  0  0  0  0  0  0
   35.3610   29.6020   33.7620 H   0  0  0  0  0  0  0  0  0  0  0  0
   37.8950   28.1540   30.5870 H   0  0  0  0  0  0  0  0  0  0  0  0
   36.2970   32.0100   30.5470 H   0  0  0  0  0  0  0  0  0  0  0  0
   39.0790   25.6170   35.5580 C   0  0  0  0  0  0  0  0  0  0  0  0
   38.2170   25.3370   36.6230 C   0  0  0  0  0  0  0  0  0  0  0  0
   37.4770   26.0600   36.9870 H   0  0  0  0  0  0  0  0  0  0  0  0
   38.2520   24.1080   37.2900 C   0  0  0  0  0  0  0  0  0  0  0  0
   37.5630   23.9280   38.1160 H   0  0  0  0  0  0  0  0  0  0  0  0
   39.1800   23.1790   36.8470 C   0  0  0  0  0  3  0  0  0  0  0  0
   40.0280   23.4760   35.7880 C   0  0  0  0  0  3  0  0  0  0  0  0
   39.9550   24.6890   35.1700 N   0  0  0  0  0  0  0  0  0  0  0  0
  1  7  1  6  0  0  0
  1  6  1  0  0  0  0
  2  9  1  0  0  0  0
  2  1  1  0  0  0  0
  2  3  1  0  0  0  0
  3  4  1  0  0  0  0
  4 12  1  1  0  0  0
  4  5  1  0  0  0  0
  4 26  1  0  0  0  0
  5 14  1  0  0  0  0
  6 16  1  0  0  0  0
  6 15  1  0  0  0  0
  6  5  1  0  0  0  0
  8  2  1  0  0  0  0
 10  3  1  0  0  0  0
 11  3  1  0  0  0  0
 13  5  1  0  0  0  0
 17 23  1  0  0  0  0
 18 17  1  0  0  0  0
 18  1  1  0  0  0  0
 19 18  2  0  0  0  0
 20 21  2  0  0  0  0
 20 19  1  0  0  0  0
 21 22  1  0  0  0  0
 22 17  2  0  0  0  0
 24 19  1  0  0  0  0
 25 21  1  0  0  0  0
 26 27  1  0  0  0  0
 27 28  1  0  0  0  0
 27 29  2  0  0  0  0
 29 30  1  0  0  0  0
 31 29  1  0  0  0  0
 32 31  2  0  0  0  0
 33 26  2  0  0  0  0
 33 32  1  0  0  0  0
M  END
>  <minimizedAffinity>
-4.84765625

$$$$
