
 OpenBabel03272506353D

 18 19  0  0  0  0  0  0  0  0999 V2000
   39.0520   23.1290   37.8830 C   0  0  0  0  0  0  0  0  0  0  0  0
   40.2790   22.5740   37.4550 C   0  0  0  0  0  0  0  0  0  0  0  0
   40.8270   23.0550   36.2750 C   0  0  0  0  0  0  0  0  0  0  0  0
   40.1790   24.0260   35.5830 N   0  0  0  0  0  0  0  0  0  0  0  0
   38.9930   24.5480   36.0160 C   0  0  0  0  0  0  0  0  0  0  0  0
   38.4610   24.0880   37.1540 N   0  0  0  0  0  0  0  0  0  0  0  0
   40.8200   21.8010   37.9840 H   0  0  0  0  0  0  0  0  0  0  0  0
   41.7690   22.6760   35.8820 H   0  0  0  0  0  0  0  0  0  0  0  0
   38.2910   25.5940   35.2750 C   0  0  0  0  0  0  0  0  0  0  0  0
   38.1730   26.8310   35.8500 C   0  0  0  0  0  0  0  0  0  0  0  0
   38.5880   27.0360   36.8320 H   0  0  0  0  0  0  0  0  0  0  0  0
   37.5340   27.8770   35.2340 C   0  0  0  0  0  0  0  0  0  0  0  0
   37.3890   28.8750   35.5980 H   0  0  0  0  0  0  0  0  0  0  0  0
   37.0090   27.5950   33.9760 C   0  0  0  0  0  3  0  0  0  0  0  0
   37.1290   26.3490   33.3960 C   0  0  0  0  0  3  0  0  0  0  0  0
   37.7690   25.3640   34.0550 N   0  0  0  0  0  0  0  0  0  0  0  0
   38.6100   22.5710   39.0660 O   0  0  0  0  0  0  0  0  0  0  0  0
   38.7370   23.1310   39.9020 H   0  0  0  0  0  0  0  0  0  0  0  0
  1 17  1  0  0  0  0
  2  1  1  0  0  0  0
  2  7  1  0  0  0  0
  3  2  2  0  0  0  0
  4  5  2  0  0  0  0
  4  3  1  0  0  0  0
  5  6  1  0  0  0  0
  6  1  2  0  0  0  0
  8  3  1  0  0  0  0
  9 10  1  0  0  0  0
  9  5  1  0  0  0  0
 10 11  1  0  0  0  0
 12 13  1  0  0  0  0
 12 10  2  0  0  0  0
 14 12  1  0  0  0  0
 15 14  2  0  0  0  0
 15 16  1  0  0  0  0
 16  9  2  0  0  0  0
 17 18  1  0  0  0  0
M  END
>  <minimizedAffinity>
-4.69045782

$$$$

 OpenBabel03272506353D

 18 19  0  0  0  0  0  0  0  0999 V2000
   39.6920   22.8500   37.5270 C   0  0  0  0  0  0  0  0  0  0  0  0
   38.7420   23.1830   38.5180 C   0  0  0  0  0  0  0  0  0  0  0  0
   37.9130   24.2680   38.2760 C   0  0  0  0  0  0  0  0  0  0  0  0
   38.0370   24.9610   37.1160 N   0  0  0  0  0  0  0  0  0  0  0  0
   38.9640   24.6200   36.1710 C   0  0  0  0  0  0  0  0  0  0  0  0
   39.7660   23.5740   36.4000 N   0  0  0  0  0  0  0  0  0  0  0  0
   38.6170   22.6510   39.4520 H   0  0  0  0  0  0  0  0  0  0  0  0
   37.1560   24.5860   38.9930 H   0  0  0  0  0  0  0  0  0  0  0  0
   39.1020   25.3620   34.9200 C   0  0  0  0  0  0  0  0  0  0  0  0
   40.0580   26.3410   34.8470 C   0  0  0  0  0  0  0  0  0  0  0  0
   40.6980   26.5640   35.6950 H   0  0  0  0  0  0  0  0  0  0  0  0
   40.2660   27.0920   33.7190 C   0  0  0  0  0  0  0  0  0  0  0  0
   40.9810   27.8740   33.5640 H   0  0  0  0  0  0  0  0  0  0  0  0
   39.4350   26.7910   32.6440 C   0  0  0  0  0  3  0  0  0  0  0  0
   38.4730   25.8040   32.7160 C   0  0  0  0  0  3  0  0  0  0  0  0
   38.3200   25.1030   33.8550 N   0  0  0  0  0  0  0  0  0  0  0  0
   40.4560   21.7560   37.8820 O   0  0  0  0  0  0  0  0  0  0  0  0
   40.2190   20.8780   37.4330 H   0  0  0  0  0  0  0  0  0  0  0  0
  1 17  1  0  0  0  0
  1  2  1  0  0  0  0
  2  7  1  0  0  0  0
  3  2  2  0  0  0  0
  3  8  1  0  0  0  0
  4  3  1  0  0  0  0
  5  6  1  0  0  0  0
  5  4  2  0  0  0  0
  6  1  2  0  0  0  0
  9  5  1  0  0  0  0
 10  9  1  0  0  0  0
 10 11  1  0  0  0  0
 12 10  2  0  0  0  0
 13 12  1  0  0  0  0
 14 15  2  0  0  0  0
 14 12  1  0  0  0  0
 15 16  1  0  0  0  0
 16  9  2  0  0  0  0
 18 17  1  0  0  0  0
M  END
>  <minimizedAffinity>
-4.49749708

$$$$

 OpenBabel03272506353D

 18 19  0  0  0  0  0  0  0  0999 V2000
   36.5480   28.2090   30.6990 C   0  0  0  0  0  0  0  0  0  0  0  0
   35.8410   29.4020   30.9720 C   0  0  0  0  0  0  0  0  0  0  0  0
   35.6720   29.7610   32.3000 C   0  0  0  0  0  0  0  0  0  0  0  0
   36.1820   28.9700   33.2780 N   0  0  0  0  0  0  0  0  0  0  0  0
   36.8630   27.8210   32.9910 C   0  0  0  0  0  0  0  0  0  0  0  0
   37.0290   27.4710   31.7100 N   0  0  0  0  0  0  0  0  0  0  0  0
   35.4230   30.0540   30.2160 H   0  0  0  0  0  0  0  0  0  0  0  0
   35.1370   30.6660   32.5890 H   0  0  0  0  0  0  0  0  0  0  0  0
   37.4150   26.9660   34.0390 C   0  0  0  0  0  0  0  0  0  0  0  0
   37.8010   27.5480   35.2170 C   0  0  0  0  0  0  0  0  0  0  0  0
   37.7020   28.6180   35.3740 H   0  0  0  0  0  0  0  0  0  0  0  0
   38.3280   26.8320   36.2610 C   0  0  0  0  0  0  0  0  0  0  0  0
   38.6580   27.1920   37.2150 H   0  0  0  0  0  0  0  0  0  0  0  0
   38.4470   25.4630   36.0410 C   0  0  0  0  0  3  0  0  0  0  0  0
   38.0580   24.8750   34.8550 C   0  0  0  0  0  3  0  0  0  0  0  0
   37.5460   25.6360   33.8690 N   0  0  0  0  0  0  0  0  0  0  0  0
   36.6510   27.9610   29.3450 O   0  0  0  0  0  0  0  0  0  0  0  0
   37.5480   28.1610   28.9180 H   0  0  0  0  0  0  0  0  0  0  0  0
  1  2  2  0  0  0  0
  1  6  1  0  0  0  0
  2  3  1  0  0  0  0
  3  8  1  0  0  0  0
  3  4  2  0  0  0  0
  5  4  1  0  0  0  0
  5  9  1  0  0  0  0
  6  5  2  0  0  0  0
  7  2  1  0  0  0  0
  9 10  1  0  0  0  0
 10 11  1  0  0  0  0
 10 12  2  0  0  0  0
 12 13  1  0  0  0  0
 14 12  1  0  0  0  0
 15 14  2  0  0  0  0
 16  9  2  0  0  0  0
 16 15  1  0  0  0  0
 17  1  1  0  0  0  0
 18 17  1  0  0  0  0
M  END
>  <minimizedAffinity>
-4.17195892

$$$$

 OpenBabel03272506353D

 18 19  0  0  0  0  0  0  0  0999 V2000
   36.9060   27.2830   34.3620 C   0  0  0  0  0  0  0  0  0  0  0  0
   36.9120   26.8760   33.0080 C   0  0  0  0  0  0  0  0  0  0  0  0
   37.4640   25.6400   32.7100 C   0  0  0  0  0  0  0  0  0  0  0  0
   37.9700   24.8730   33.7090 N   0  0  0  0  0  0  0  0  0  0  0  0
   37.9530   25.2870   35.0120 C   0  0  0  0  0  0  0  0  0  0  0  0
   37.4220   26.4800   35.3040 N   0  0  0  0  0  0  0  0  0  0  0  0
   36.5160   27.4630   32.1900 H   0  0  0  0  0  0  0  0  0  0  0  0
   37.5050   25.2580   31.6900 H   0  0  0  0  0  0  0  0  0  0  0  0
   38.4970   24.4670   36.0910 C   0  0  0  0  0  0  0  0  0  0  0  0
   37.9220   24.5590   37.3310 C   0  0  0  0  0  0  0  0  0  0  0  0
   37.0830   25.2240   37.5130 H   0  0  0  0  0  0  0  0  0  0  0  0
   38.3590   23.8300   38.4070 C   0  0  0  0  0  0  0  0  0  0  0  0
   37.9800   23.8320   39.4090 H   0  0  0  0  0  0  0  0  0  0  0  0
   39.4350   22.9840   38.1540 C   0  0  0  0  0  3  0  0  0  0  0  0
   40.0130   22.8900   36.9050 C   0  0  0  0  0  3  0  0  0  0  0  0
   39.5360   23.6340   35.8900 N   0  0  0  0  0  0  0  0  0  0  0  0
   36.3320   28.5270   34.5300 O   0  0  0  0  0  0  0  0  0  0  0  0
   35.3880   28.5400   34.9010 H   0  0  0  0  0  0  0  0  0  0  0  0
  1 17  1  0  0  0  0
  1  6  1  0  0  0  0
  2  1  2  0  0  0  0
  3  2  1  0  0  0  0
  3  4  2  0  0  0  0
  4  5  1  0  0  0  0
  5  6  2  0  0  0  0
  5  9  1  0  0  0  0
  7  2  1  0  0  0  0
  8  3  1  0  0  0  0
  9 10  1  0  0  0  0
 10 11  1  0  0  0  0
 10 12  2  0  0  0  0
 12 13  1  0  0  0  0
 14 12  1  0  0  0  0
 15 14  2  0  0  0  0
 16  9  2  0  0  0  0
 16 15  1  0  0  0  0
 17 18  1  0  0  0  0
M  END
>  <minimizedAffinity>
-4.1675458

$$$$

 OpenBabel03272506353D

 18 19  0  0  0  0  0  0  0  0999 V2000
   39.5040   22.6030   36.8890 C   0  0  0  0  0  0  0  0  0  0  0  0
   40.7370   23.0510   36.3620 C   0  0  0  0  0  0  0  0  0  0  0  0
   40.8420   23.1710   34.9850 C   0  0  0  0  0  0  0  0  0  0  0  0
   39.7780   22.8610   34.2010 N   0  0  0  0  0  0  0  0  0  0  0  0
   38.5950   22.4300   34.7330 C   0  0  0  0  0  0  0  0  0  0  0  0
   38.4890   22.3130   36.0620 N   0  0  0  0  0  0  0  0  0  0  0  0
   41.6020   23.3060   36.9590 H   0  0  0  0  0  0  0  0  0  0  0  0
   41.7600   23.5100   34.5050 H   0  0  0  0  0  0  0  0  0  0  0  0
   37.4470   22.0960   33.8950 C   0  0  0  0  0  0  0  0  0  0  0  0
   36.6120   21.0910   34.3070 C   0  0  0  0  0  0  0  0  0  0  0  0
   36.7940   20.5530   35.2320 H   0  0  0  0  0  0  0  0  0  0  0  0
   35.5080   20.7040   33.5910 C   0  0  0  0  0  0  0  0  0  0  0  0
   34.7990   19.9360   33.8260 H   0  0  0  0  0  0  0  0  0  0  0  0
   35.2910   21.4050   32.4080 C   0  0  0  0  0  3  0  0  0  0  0  0
   36.1310   22.4170   31.9930 C   0  0  0  0  0  3  0  0  0  0  0  0
   37.1990   22.7490   32.7430 N   0  0  0  0  0  0  0  0  0  0  0  0
   39.5230   22.5250   38.2670 O   0  0  0  0  0  0  0  0  0  0  0  0
   39.0490   23.2700   38.7660 H   0  0  0  0  0  0  0  0  0  0  0  0
  1 17  1  0  0  0  0
  2  1  1  0  0  0  0
  2  7  1  0  0  0  0
  3  2  2  0  0  0  0
  4  5  2  0  0  0  0
  4  3  1  0  0  0  0
  5  6  1  0  0  0  0
  6  1  2  0  0  0  0
  8  3  1  0  0  0  0
  9 10  1  0  0  0  0
  9  5  1  0  0  0  0
 10 11  1  0  0  0  0
 12 13  1  0  0  0  0
 12 10  2  0  0  0  0
 14 12  1  0  0  0  0
 15 14  2  0  0  0  0
 15 16  1  0  0  0  0
 16  9  2  0  0  0  0
 17 18  1  0  0  0  0
M  END
>  <minimizedAffinity>
-4.05551243

$$$$

 OpenBabel03272506353D

 18 19  0  0  0  0  0  0  0  0999 V2000
   38.9100   26.9430   35.2210 C   0  0  0  0  0  0  0  0  0  0  0  0
   40.2900   26.7710   34.9670 C   0  0  0  0  0  0  0  0  0  0  0  0
   40.6530   25.9520   33.9090 C   0  0  0  0  0  0  0  0  0  0  0  0
   39.6890   25.3540   33.1630 N   0  0  0  0  0  0  0  0  0  0  0  0
   38.3610   25.5360   33.4260 C   0  0  0  0  0  0  0  0  0  0  0  0
   38.0060   26.3250   34.4470 N   0  0  0  0  0  0  0  0  0  0  0  0
   41.0810   27.2330   35.5420 H   0  0  0  0  0  0  0  0  0  0  0  0
   41.6960   25.7710   33.6520 H   0  0  0  0  0  0  0  0  0  0  0  0
   37.3190   24.8950   32.6270 C   0  0  0  0  0  0  0  0  0  0  0  0
   37.3270   23.5290   32.5230 C   0  0  0  0  0  0  0  0  0  0  0  0
   38.0870   22.9330   33.0190 H   0  0  0  0  0  0  0  0  0  0  0  0
   36.3930   22.8350   31.7970 C   0  0  0  0  0  0  0  0  0  0  0  0
   36.3150   21.7760   31.6550 H   0  0  0  0  0  0  0  0  0  0  0  0
   35.4290   23.6170   31.1680 C   0  0  0  0  0  3  0  0  0  0  0  0
   35.4190   24.9930   31.2740 C   0  0  0  0  0  3  0  0  0  0  0  0
   36.3660   25.6130   32.0030 N   0  0  0  0  0  0  0  0  0  0  0  0
   38.6770   27.7770   36.2960 O   0  0  0  0  0  0  0  0  0  0  0  0
   38.3820   28.7220   36.0760 H   0  0  0  0  0  0  0  0  0  0  0  0
  1 17  1  0  0  0  0
  2  1  1  0  0  0  0
  2  7  1  0  0  0  0
  3  2  2  0  0  0  0
  4  5  2  0  0  0  0
  4  3  1  0  0  0  0
  5  6  1  0  0  0  0
  6  1  2  0  0  0  0
  8  3  1  0  0  0  0
  9  5  1  0  0  0  0
 10  9  1  0  0  0  0
 10 11  1  0  0  0  0
 12 10  2  0  0  0  0
 13 12  1  0  0  0  0
 14 15  2  0  0  0  0
 14 12  1  0  0  0  0
 15 16  1  0  0  0  0
 16  9  2  0  0  0  0
 18 17  1  0  0  0  0
M  END
>  <minimizedAffinity>
-4.03368282

$$$$

 OpenBabel03272506353D

 18 19  0  0  0  0  0  0  0  0999 V2000
   35.9570   24.8410   31.1630 C   0  0  0  0  0  0  0  0  0  0  0  0
   36.8500   25.4340   32.0850 C   0  0  0  0  0  0  0  0  0  0  0  0
   37.5100   24.5970   32.9710 C   0  0  0  0  0  0  0  0  0  0  0  0
   37.2840   23.2600   32.9250 N   0  0  0  0  0  0  0  0  0  0  0  0
   36.4160   22.7080   32.0240 C   0  0  0  0  0  0  0  0  0  0  0  0
   35.7760   23.5120   31.1680 N   0  0  0  0  0  0  0  0  0  0  0  0
   37.0520   26.4950   32.1470 H   0  0  0  0  0  0  0  0  0  0  0  0
   38.2130   24.9800   33.7100 H   0  0  0  0  0  0  0  0  0  0  0  0
   36.1680   21.2690   31.9700 C   0  0  0  0  0  0  0  0  0  0  0  0
   35.7140   20.6450   33.1010 C   0  0  0  0  0  0  0  0  0  0  0  0
   35.5410   21.2000   34.0180 H   0  0  0  0  0  0  0  0  0  0  0  0
   35.4510   19.3000   33.1510 C   0  0  0  0  0  0  0  0  0  0  0  0
   35.0960   18.7220   33.9810 H   0  0  0  0  0  0  0  0  0  0  0  0
   35.6790   18.6060   31.9660 C   0  0  0  0  0  3  0  0  0  0  0  0
   36.1360   19.2340   30.8270 C   0  0  0  0  0  3  0  0  0  0  0  0
   36.3750   20.5590   30.8450 N   0  0  0  0  0  0  0  0  0  0  0  0
   35.3630   25.7740   30.3380 O   0  0  0  0  0  0  0  0  0  0  0  0
   35.7250   25.8330   29.3920 H   0  0  0  0  0  0  0  0  0  0  0  0
  1  6  2  0  0  0  0
  1  2  1  0  0  0  0
  2  7  1  0  0  0  0
  2  3  2  0  0  0  0
  3  8  1  0  0  0  0
  4  3  1  0  0  0  0
  5  4  2  0  0  0  0
  6  5  1  0  0  0  0
  9  5  1  0  0  0  0
  9 10  1  0  0  0  0
 10 12  2  0  0  0  0
 10 11  1  0  0  0  0
 12 13  1  0  0  0  0
 14 12  1  0  0  0  0
 15 16  1  0  0  0  0
 15 14  2  0  0  0  0
 16  9  2  0  0  0  0
 17  1  1  0  0  0  0
 18 17  1  0  0  0  0
M  END
>  <minimizedAffinity>
-4.02463388

$$$$

 OpenBabel03272506353D

 18 19  0  0  0  0  0  0  0  0999 V2000
   37.3650   25.8860   32.8860 C   0  0  0  0  0  0  0  0  0  0  0  0
   36.8860   27.1810   33.1890 C   0  0  0  0  0  0  0  0  0  0  0  0
   36.9420   27.5950   34.5110 C   0  0  0  0  0  0  0  0  0  0  0  0
   37.4480   26.7600   35.4530 N   0  0  0  0  0  0  0  0  0  0  0  0
   37.9080   25.5120   35.1370 C   0  0  0  0  0  0  0  0  0  0  0  0
   37.8540   25.1080   33.8620 N   0  0  0  0  0  0  0  0  0  0  0  0
   36.4780   27.8700   32.4610 H   0  0  0  0  0  0  0  0  0  0  0  0
   36.5910   28.5780   34.8220 H   0  0  0  0  0  0  0  0  0  0  0  0
   38.4530   24.6090   36.1470 C   0  0  0  0  0  0  0  0  0  0  0  0
   39.5840   23.8990   35.8420 C   0  0  0  0  0  0  0  0  0  0  0  0
   40.0670   24.0000   34.8750 H   0  0  0  0  0  0  0  0  0  0  0  0
   40.1730   23.0280   36.7230 C   0  0  0  0  0  0  0  0  0  0  0  0
   41.0510   22.4300   36.5800 H   0  0  0  0  0  0  0  0  0  0  0  0
   39.5390   22.9120   37.9560 C   0  0  0  0  0  3  0  0  0  0  0  0
   38.4000   23.6270   38.2650 C   0  0  0  0  0  3  0  0  0  0  0  0
   37.8730   24.4670   37.3540 N   0  0  0  0  0  0  0  0  0  0  0  0
   37.2570   25.5910   31.5420 O   0  0  0  0  0  0  0  0  0  0  0  0
   38.1130   25.6390   31.0000 H   0  0  0  0  0  0  0  0  0  0  0  0
  1  2  2  0  0  0  0
  1  6  1  0  0  0  0
  2  3  1  0  0  0  0
  3  8  1  0  0  0  0
  3  4  2  0  0  0  0
  5  4  1  0  0  0  0
  5  9  1  0  0  0  0
  6  5  2  0  0  0  0
  7  2  1  0  0  0  0
  9 16  1  0  0  0  0
 10  9  2  0  0  0  0
 10 12  1  0  0  0  0
 11 10  1  0  0  0  0
 12 14  2  0  0  0  0
 13 12  1  0  0  0  0
 14 15  1  0  0  0  0
 16 15  2  0  0  0  0
 17  1  1  0  0  0  0
 18 17  1  0  0  0  0
M  END
>  <minimizedAffinity>
-3.97518921

$$$$

 OpenBabel03272506353D

 18 19  0  0  0  0  0  0  0  0999 V2000
   36.6280   27.1680   30.8400 C   0  0  0  0  0  0  0  0  0  0  0  0
   36.9170   27.9510   31.9810 C   0  0  0  0  0  0  0  0  0  0  0  0
   37.1130   27.2890   33.1830 C   0  0  0  0  0  0  0  0  0  0  0  0
   37.0230   25.9360   33.2260 N   0  0  0  0  0  0  0  0  0  0  0  0
   36.7430   25.1990   32.1100 C   0  0  0  0  0  0  0  0  0  0  0  0
   36.5520   25.8330   30.9470 N   0  0  0  0  0  0  0  0  0  0  0  0
   36.9960   29.0300   31.9790 H   0  0  0  0  0  0  0  0  0  0  0  0
   37.3390   27.8250   34.1050 H   0  0  0  0  0  0  0  0  0  0  0  0
   36.6450   23.7410   32.1500 C   0  0  0  0  0  0  0  0  0  0  0  0
   35.7490   23.1270   31.3150 C   0  0  0  0  0  0  0  0  0  0  0  0
   35.1250   23.7030   30.6380 H   0  0  0  0  0  0  0  0  0  0  0  0
   35.5840   21.7660   31.2770 C   0  0  0  0  0  0  0  0  0  0  0  0
   34.9160   21.1940   30.6650 H   0  0  0  0  0  0  0  0  0  0  0  0
   36.3930   21.0450   32.1510 C   0  0  0  0  0  3  0  0  0  0  0  0
   37.2950   21.6640   32.9920 C   0  0  0  0  0  3  0  0  0  0  0  0
   37.4080   23.0050   32.9790 N   0  0  0  0  0  0  0  0  0  0  0  0
   36.4540   27.9380   29.7080 O   0  0  0  0  0  0  0  0  0  0  0  0
   37.2270   27.9530   29.0520 H   0  0  0  0  0  0  0  0  0  0  0  0
  1  6  2  0  0  0  0
  1  2  1  0  0  0  0
  2  3  2  0  0  0  0
  3  4  1  0  0  0  0
  3  8  1  0  0  0  0
  5  9  1  0  0  0  0
  5  4  2  0  0  0  0
  6  5  1  0  0  0  0
  7  2  1  0  0  0  0
  9 16  1  0  0  0  0
 10  9  2  0  0  0  0
 11 10  1  0  0  0  0
 12 10  1  0  0  0  0
 12 14  2  0  0  0  0
 13 12  1  0  0  0  0
 14 15  1  0  0  0  0
 16 15  2  0  0  0  0
 17  1  1  0  0  0  0
 18 17  1  0  0  0  0
M  END
>  <minimizedAffinity>
-3.9414804

$$$$
