
 OpenBabel03272510173D

 27 29  0  0  0  0  0  0  0  0999 V2000
   37.3250   29.3460   51.0480 Br  0  0  0  0  0  0  0  0  0  0  0  0
   35.9720   29.3500   49.6950 C   0  0  0  0  0  0  0  0  0  0  0  0
   35.9980   30.2790   48.6680 C   0  0  0  0  0  0  0  0  0  0  0  0
   34.9810   30.2140   47.7290 C   0  0  0  0  0  0  0  0  0  0  0  0
   33.9710   29.2840   47.7760 C   0  0  0  0  0  0  0  0  0  0  0  0
   33.9760   28.3810   48.8070 C   0  0  0  0  0  0  0  0  0  0  0  0
   34.9750   28.4230   49.7540 C   0  0  0  0  0  0  0  0  0  0  0  0
   35.0360   30.9560   46.9410 H   0  0  0  0  0  0  0  0  0  0  0  0
   33.1910   27.6410   48.8640 H   0  0  0  0  0  0  0  0  0  0  0  0
   34.9400   27.6810   50.5590 H   0  0  0  0  0  0  0  0  0  0  0  0
   38.0010   33.2100   49.4650 C   0  0  0  0  0  0  0  0  0  0  0  0
   39.0300   33.2070   48.5000 C   0  0  0  0  0  0  0  0  0  0  0  0
   39.0130   32.1690   47.5670 C   0  0  0  0  0  0  0  0  0  0  0  0
   38.0250   31.2340   47.6410 N   0  0  0  0  0  0  0  0  0  0  0  0
   37.0550   31.2760   48.5890 C   0  0  0  0  0  0  0  0  0  0  0  0
   37.0450   32.2750   49.5090 N   0  0  0  0  0  0  0  0  0  0  0  0
   38.0170   34.0280   50.1980 H   0  0  0  0  0  0  0  0  0  0  0  0
   39.7770   33.9940   48.5170 H   0  0  0  0  0  0  0  0  0  0  0  0
   39.7730   32.1360   46.8250 H   0  0  0  0  0  0  0  0  0  0  0  0
   32.9640   29.3250   46.7270 C   0  0  0  0  0  0  0  0  0  0  0  0
   33.0700   30.0970   45.5890 C   0  0  0  0  0  0  0  0  0  0  0  0
   33.9280   30.7070   45.4470 H   0  0  0  0  0  0  0  0  0  0  0  0
   32.0990   30.1210   44.6020 C   0  0  0  0  0  0  0  0  0  0  0  0
   32.2410   30.7450   43.7370 H   0  0  0  0  0  0  0  0  0  0  0  0
   30.9810   29.3230   44.7960 C   0  0  0  0  0  3  0  0  0  0  0  0
   30.8790   28.5500   45.9390 C   0  0  0  0  0  3  0  0  0  0  0  0
   31.8670   28.5790   46.8570 N   0  0  0  0  0  0  0  0  0  0  0  0
  2  7  1  0  0  0  0
  2  1  1  0  0  0  0
  3  2  2  0  0  0  0
  4  5  2  0  0  0  0
  4  3  1  0  0  0  0
  5  6  1  0  0  0  0
  6  9  1  0  0  0  0
  6  7  2  0  0  0  0
  7 10  1  0  0  0  0
  8  4  1  0  0  0  0
 11 16  1  0  0  0  0
 11 17  1  0  0  0  0
 12 18  1  0  0  0  0
 12 11  2  0  0  0  0
 13 14  2  0  0  0  0
 13 12  1  0  0  0  0
 14 15  1  0  0  0  0
 15  3  1  0  0  0  0
 15 16  2  0  0  0  0
 19 13  1  0  0  0  0
 20 27  1  0  0  0  0
 20  5  1  0  0  0  0
 21 20  2  0  0  0  0
 22 21  1  0  0  0  0
 23 25  2  0  0  0  0
 23 21  1  0  0  0  0
 24 23  1  0  0  0  0
 25 26  1  0  0  0  0
 26 27  2  0  0  0  0
M  END
>  <minimizedAffinity>
-5.87885332

>  <minimizedRMSD>
0.155584618

$$$$
