
 OpenBabel03272510173D

 27 29  0  0  0  0  0  0  0  0999 V2000
   37.4520   29.1830   50.8330 Br  0  0  0  0  0  0  0  0  0  0  0  0
   36.0290   29.2850   49.5570 C   0  0  0  0  0  0  0  0  0  0  0  0
   36.0070   30.2830   48.5980 C   0  0  0  0  0  0  0  0  0  0  0  0
   34.9400   30.2860   47.7120 C   0  0  0  0  0  0  0  0  0  0  0  0
   33.9280   29.3590   47.7480 C   0  0  0  0  0  0  0  0  0  0  0  0
   33.9820   28.3860   48.7130 C   0  0  0  0  0  0  0  0  0  0  0  0
   35.0310   28.3590   49.6050 C   0  0  0  0  0  0  0  0  0  0  0  0
   34.9590   31.0820   46.9760 H   0  0  0  0  0  0  0  0  0  0  0  0
   33.1960   27.6460   48.7600 H   0  0  0  0  0  0  0  0  0  0  0  0
   35.0340   27.5630   50.3580 H   0  0  0  0  0  0  0  0  0  0  0  0
   38.0250   33.1890   49.4460 C   0  0  0  0  0  0  0  0  0  0  0  0
   39.0420   33.2100   48.4680 C   0  0  0  0  0  0  0  0  0  0  0  0
   39.0120   32.1970   47.5090 C   0  0  0  0  0  0  0  0  0  0  0  0
   38.0230   31.2620   47.5700 N   0  0  0  0  0  0  0  0  0  0  0  0
   37.0640   31.2810   48.5320 C   0  0  0  0  0  0  0  0  0  0  0  0
   37.0670   32.2550   49.4770 N   0  0  0  0  0  0  0  0  0  0  0  0
   38.0510   33.9870   50.2000 H   0  0  0  0  0  0  0  0  0  0  0  0
   39.7900   33.9950   48.4970 H   0  0  0  0  0  0  0  0  0  0  0  0
   39.7630   32.1820   46.7570 H   0  0  0  0  0  0  0  0  0  0  0  0
   32.8680   29.4750   46.7600 C   0  0  0  0  0  0  0  0  0  0  0  0
   32.6730   30.5870   45.9670 C   0  0  0  0  0  0  0  0  0  0  0  0
   33.3250   31.4210   46.0650 H   0  0  0  0  0  0  0  0  0  0  0  0
   31.6570   30.6780   45.0330 C   0  0  0  0  0  0  0  0  0  0  0  0
   31.5590   31.5730   44.4430 H   0  0  0  0  0  0  0  0  0  0  0  0
   30.8110   29.5860   44.9110 C   0  0  0  0  0  3  0  0  0  0  0  0
   31.0090   28.4710   45.7090 C   0  0  0  0  0  3  0  0  0  0  0  0
   32.0220   28.4570   46.5980 N   0  0  0  0  0  0  0  0  0  0  0  0
  2  7  1  0  0  0  0
  2  1  1  0  0  0  0
  3  2  2  0  0  0  0
  4  5  2  0  0  0  0
  4  3  1  0  0  0  0
  5  6  1  0  0  0  0
  6  9  1  0  0  0  0
  6  7  2  0  0  0  0
  7 10  1  0  0  0  0
  8  4  1  0  0  0  0
 11 16  1  0  0  0  0
 11 17  1  0  0  0  0
 12 18  1  0  0  0  0
 12 11  2  0  0  0  0
 13 14  2  0  0  0  0
 13 12  1  0  0  0  0
 14 15  1  0  0  0  0
 15  3  1  0  0  0  0
 15 16  2  0  0  0  0
 19 13  1  0  0  0  0
 20  5  1  0  0  0  0
 21 22  1  0  0  0  0
 21 20  2  0  0  0  0
 23 21  1  0  0  0  0
 24 23  1  0  0  0  0
 25 23  2  0  0  0  0
 25 26  1  0  0  0  0
 26 27  2  0  0  0  0
 27 20  1  0  0  0  0
M  END
>  <minimizedAffinity>
-5.88838434

>  <minimizedRMSD>
0.345796138

$$$$
