
 OpenBabel03272506143D

 23 24  0  0  0  0  0  0  0  0999 V2000
   39.1970   32.7690   47.1060 C   0  0  0  0  0  0  0  0  0  0  0  0
   38.3560   31.8440   47.7540 C   0  0  0  0  0  0  0  0  0  0  0  0
   38.0550   32.0390   49.0960 C   0  0  0  0  0  0  0  0  0  0  0  0
   38.6010   33.1230   49.7010 N   0  0  0  0  0  0  0  0  0  0  0  0
   39.4060   34.0040   49.0690 C   0  0  0  0  0  0  0  0  0  0  0  0
   39.7000   33.8190   47.7680 N   0  0  0  0  0  0  0  0  0  0  0  0
   37.9920   31.0360   47.1700 H   0  0  0  0  0  0  0  0  0  0  0  0
   39.8200   34.8610   49.6040 H   0  0  0  0  0  0  0  0  0  0  0  0
   37.1840   31.0880   49.7760 C   0  0  0  0  0  0  0  0  0  0  0  0
   37.6260   30.4590   50.9230 C   0  0  0  0  0  0  0  0  0  0  0  0
   38.5970   30.6240   51.3660 H   0  0  0  0  0  0  0  0  0  0  0  0
   36.7190   29.5740   51.4870 C   0  0  0  0  0  0  0  0  0  0  0  0
   37.0080   29.0480   52.3920 H   0  0  0  0  0  0  0  0  0  0  0  0
   35.4540   29.3360   50.9400 C   0  0  0  0  0  0  0  0  0  0  0  0
   35.0820   30.0140   49.7750 C   0  0  0  0  0  0  0  0  0  0  0  0
   35.9810   30.8800   49.2280 N   0  0  0  0  0  0  0  0  0  0  0  0
   39.5780   32.6910   45.7650 O   0  0  0  0  0  0  0  0  0  0  0  0
   39.0920   30.1130   45.1490 O   0  0  0  0  0  0  0  0  0  0  0  0
   40.1360   31.2240   45.0700 P   0  0  0  0  0  0  0  0  0  0  0  0
   40.5230   31.5830   43.4640 O   0  0  0  0  0  0  0  0  0  0  0  0
   39.8910   31.0760   42.8930 H   0  0  0  0  0  0  0  0  0  0  0  0
   41.4970   30.6820   45.9110 O   0  0  0  0  0  0  0  0  0  0  0  0
   42.0700   31.4610   46.1200 H   0  0  0  0  0  0  0  0  0  0  0  0
  1  2  2  0  0  0  0
  1  6  1  0  0  0  0
  2  3  1  0  0  0  0
  3  4  2  0  0  0  0
  3  9  1  0  0  0  0
  5  8  1  0  0  0  0
  5  4  1  0  0  0  0
  6  5  2  0  0  0  0
  7  2  1  0  0  0  0
  9 10  1  0  0  0  0
 10 11  1  0  0  0  0
 10 12  2  0  0  0  0
 12 13  1  0  0  0  0
 14 12  1  0  0  0  0
 15 14  2  0  0  0  0
 16 15  1  0  0  0  0
 16  9  2  0  0  0  0
 17  1  1  0  0  0  0
 19 18  2  0  0  0  0
 19 17  1  0  0  0  0
 19 22  1  0  0  0  0
 20 19  1  0  0  0  0
 21 20  1  0  0  0  0
 22 23  1  0  0  0  0
M  END
>  <minimizedAffinity>
-6.08219624

>  <minimizedRMSD>
5.14211559

$$$$
