
 OpenBabel03272510163D

 27 29  0  0  0  0  0  0  0  0999 V2000
   37.3500   29.3660   51.0640 Br  0  0  0  0  0  0  0  0  0  0  0  0
   35.9860   29.3690   49.7210 C   0  0  0  0  0  0  0  0  0  0  0  0
   36.0060   30.2960   48.6920 C   0  0  0  0  0  0  0  0  0  0  0  0
   34.9820   30.2300   47.7610 C   0  0  0  0  0  0  0  0  0  0  0  0
   33.9710   29.3020   47.8160 C   0  0  0  0  0  0  0  0  0  0  0  0
   33.9830   28.4010   48.8490 C   0  0  0  0  0  0  0  0  0  0  0  0
   34.9890   28.4430   49.7890 C   0  0  0  0  0  0  0  0  0  0  0  0
   35.0330   30.9720   46.9720 H   0  0  0  0  0  0  0  0  0  0  0  0
   33.1980   27.6610   48.9130 H   0  0  0  0  0  0  0  0  0  0  0  0
   34.9590   27.7030   50.5950 H   0  0  0  0  0  0  0  0  0  0  0  0
   38.0140   33.2300   49.4660 C   0  0  0  0  0  0  0  0  0  0  0  0
   39.0400   33.2210   48.4970 C   0  0  0  0  0  0  0  0  0  0  0  0
   39.0190   32.1780   47.5700 C   0  0  0  0  0  0  0  0  0  0  0  0
   38.0310   31.2440   47.6530 N   0  0  0  0  0  0  0  0  0  0  0  0
   37.0630   31.2920   48.6040 C   0  0  0  0  0  0  0  0  0  0  0  0
   37.0570   32.2960   49.5180 N   0  0  0  0  0  0  0  0  0  0  0  0
   38.0330   34.0520   50.1940 H   0  0  0  0  0  0  0  0  0  0  0  0
   39.7870   34.0070   48.5080 H   0  0  0  0  0  0  0  0  0  0  0  0
   39.7770   32.1400   46.8260 H   0  0  0  0  0  0  0  0  0  0  0  0
   32.9570   29.3420   46.7750 C   0  0  0  0  0  0  0  0  0  0  0  0
   33.0060   30.1890   45.6860 C   0  0  0  0  0  0  0  0  0  0  0  0
   33.8210   30.8600   45.5800 H   0  0  0  0  0  0  0  0  0  0  0  0
   32.0290   30.2100   44.7060 C   0  0  0  0  0  0  0  0  0  0  0  0
   32.1250   30.8940   43.8800 H   0  0  0  0  0  0  0  0  0  0  0  0
   30.9670   29.3300   44.8510 C   0  0  0  0  0  3  0  0  0  0  0  0
   30.9230   28.4820   45.9450 C   0  0  0  0  0  3  0  0  0  0  0  0
   31.9120   28.5190   46.8600 N   0  0  0  0  0  0  0  0  0  0  0  0
  2  7  1  0  0  0  0
  2  1  1  0  0  0  0
  3  2  2  0  0  0  0
  4  5  2  0  0  0  0
  4  3  1  0  0  0  0
  5  6  1  0  0  0  0
  6  9  1  0  0  0  0
  6  7  2  0  0  0  0
  7 10  1  0  0  0  0
  8  4  1  0  0  0  0
 11 16  1  0  0  0  0
 11 17  1  0  0  0  0
 12 18  1  0  0  0  0
 12 11  2  0  0  0  0
 13 14  2  0  0  0  0
 13 12  1  0  0  0  0
 14 15  1  0  0  0  0
 15  3  1  0  0  0  0
 15 16  2  0  0  0  0
 19 13  1  0  0  0  0
 20 27  1  0  0  0  0
 20  5  1  0  0  0  0
 21 20  2  0  0  0  0
 22 21  1  0  0  0  0
 23 25  2  0  0  0  0
 23 21  1  0  0  0  0
 24 23  1  0  0  0  0
 25 26  1  0  0  0  0
 26 27  2  0  0  0  0
M  END
>  <minimizedAffinity>
-5.886096

>  <minimizedRMSD>
0.645725667

$$$$
