
 OpenBabel03272507193D

 29 31  0  0  1  0  0  0  0  0999 V2000
   36.9560   31.3320   49.3330 C   0  0  0  0  0  0  0  0  0  0  0  0
   37.1600   32.5040   50.0400 C   0  0  0  0  0  0  0  0  0  0  0  0
   38.0920   33.3880   49.4450 C   0  0  0  0  0  0  0  0  0  0  0  0
   38.7110   33.0690   48.2690 N   0  0  0  0  0  0  0  0  0  0  0  0
   38.4620   31.8960   47.6260 C   0  0  0  0  0  0  0  0  0  0  0  0
   37.5760   31.0190   48.1620 N   0  0  0  0  0  0  0  0  0  0  0  0
   36.6530   32.7240   50.9670 H   0  0  0  0  0  0  0  0  0  0  0  0
   38.2940   34.3240   49.9520 H   0  0  0  0  0  0  0  0  0  0  0  0
   39.1290   31.5600   46.3690 C   0  0  0  0  0  0  0  0  0  0  0  0
   40.0990   32.4370   45.8960 C   0  0  0  0  0  0  0  0  0  0  0  0
   40.3950   33.3510   46.3930 H   0  0  0  0  0  0  0  0  0  0  0  0
   40.6870   32.0400   44.6870 C   0  0  0  0  0  0  0  0  0  0  0  0
   41.4450   32.6940   44.2860 H   0  0  0  0  0  0  0  0  0  0  0  0
   40.3450   30.8850   44.0140 C   0  0  0  0  0  0  0  0  0  0  0  0
   39.3730   30.0630   44.5440 C   0  0  0  0  0  0  0  0  0  0  0  0
   38.8010   30.4340   45.7060 N   0  0  0  0  0  0  0  0  0  0  0  0
   35.9560   30.3890   49.9250 C   0  0  1  0  0  0  0  0  0  0  0  0
   34.8160   29.8900   49.1570 C   0  0  2  0  0  0  0  0  0  0  0  0
   36.0150   28.9970   49.2610 C   0  0  0  0  0  0  0  0  0  0  0  0
   35.9940   30.3460   51.0400 H   0  0  0  0  0  0  0  0  0  0  0  0
   33.9030   29.7340   49.7970 H   0  0  0  0  0  0  0  0  0  0  0  0
   35.8690   28.1400   49.9550 H   0  0  0  0  0  0  0  0  0  0  0  0
   36.6700   28.8500   48.3910 H   0  0  0  0  0  0  0  0  0  0  0  0
   34.5490   30.5130   47.9450 O   0  0  0  0  0  0  0  0  0  0  0  0
   33.8240   30.0720   46.8880 C   0  0  0  0  0  0  0  0  0  0  0  0
   34.0310   28.9630   46.3530 O   0  0  0  0  0  0  0  0  0  0  0  0
   32.8830   31.0500   46.5640 N   0  0  0  0  0  0  0  0  0  0  0  0
   31.9870   31.3460   47.0530 H   0  0  0  0  0  0  0  0  0  0  0  0
   33.0110   31.6390   45.6990 H   0  0  0  0  0  0  0  0  0  0  0  0
  1 17  1  0  0  0  0
  1  2  1  0  0  0  0
  2  7  1  0  0  0  0
  3  8  1  0  0  0  0
  3  2  2  0  0  0  0
  4  3  1  0  0  0  0
  5  6  1  0  0  0  0
  5  4  2  0  0  0  0
  6  1  2  0  0  0  0
  9  5  1  0  0  0  0
 10  9  1  0  0  0  0
 10 11  1  0  0  0  0
 12 10  2  0  0  0  0
 13 12  1  0  0  0  0
 14 15  2  0  0  0  0
 14 12  1  0  0  0  0
 15 16  1  0  0  0  0
 16  9  2  0  0  0  0
 17 20  1  1  0  0  0
 18 19  1  0  0  0  0
 18 21  1  1  0  0  0
 18 17  1  0  0  0  0
 19 17  1  0  0  0  0
 19 22  1  0  0  0  0
 23 19  1  0  0  0  0
 24 18  1  0  0  0  0
 25 24  1  0  0  0  0
 26 25  2  0  0  0  0
 27 25  1  0  0  0  0
 27 28  1  0  0  0  0
 29 27  1  0  0  0  0
M  END
>  <minimizedAffinity>
-6.08106184

>  <minimizedRMSD>
2.79938507

$$$$
