
 OpenBabel03272500493D

 38 42  0  0  1  0  0  0  0  0999 V2000
   38.3350   26.6250   34.4970 C   0  0  1  0  0  0  0  0  0  0  0  0
   38.8680   27.1980   35.8550 C   0  0  0  0  0  0  0  0  0  0  0  0
   37.9660   26.0210   35.7890 C   0  0  2  0  0  0  0  0  0  0  0  0
   39.0490   26.0850   33.8700 H   0  0  0  0  0  0  0  0  0  0  0  0
   38.4970   28.1950   36.1440 H   0  0  0  0  0  0  0  0  0  0  0  0
   39.9710   27.0380   35.9850 H   0  0  0  0  0  0  0  0  0  0  0  0
   36.9340   26.1750   36.1070 H   0  0  0  0  0  0  0  0  0  0  0  0
   35.6130   28.7620   33.4810 C   0  0  0  0  0  0  0  0  0  0  0  0
   36.2430   28.5730   32.2730 C   0  0  0  0  0  0  0  0  0  0  0  0
   37.3580   27.7410   32.4820 C   0  0  0  0  0  0  0  0  0  0  0  0
   37.3690   27.4560   33.7990 N   0  0  0  0  0  0  0  0  0  0  0  0
   36.3420   28.0680   34.3300 N   0  0  0  0  0  0  0  0  0  0  0  0
   35.9510   28.9860   31.2950 H   0  0  0  0  0  0  0  0  0  0  0  0
   38.0390   27.4230   31.7150 H   0  0  0  0  0  0  0  0  0  0  0  0
   33.2950   29.4560   32.7970 C   0  0  0  0  0  0  0  0  0  0  0  0
   34.4310   29.5600   33.6520 C   0  0  0  0  0  0  0  0  0  0  0  0
   34.3560   30.4820   34.6850 C   0  0  0  0  0  0  0  0  0  0  0  0
   33.2290   31.2240   34.8270 N   0  0  0  0  0  0  0  0  0  0  0  0
   32.1780   31.0900   33.9910 C   0  0  0  0  0  0  0  0  0  0  0  0
   32.2040   30.1980   32.9630 N   0  0  0  0  0  0  0  0  0  0  0  0
   33.3430   28.7390   31.9880 H   0  0  0  0  0  0  0  0  0  0  0  0
   35.1880   30.5910   35.3500 H   0  0  0  0  0  0  0  0  0  0  0  0
   31.2600   31.6570   34.0640 H   0  0  0  0  0  0  0  0  0  0  0  0
   38.5050   24.6650   36.1390 C   0  0  0  0  0  0  0  0  0  0  0  0
   37.7790   23.6990   36.8540 C   0  0  0  0  0  0  0  0  0  0  0  0
   38.5820   22.6090   36.9860 N   0  0  0  0  0  0  0  0  0  0  0  0
   39.7670   22.8830   36.3760 C   0  0  0  0  0  0  0  0  0  0  0  0
   39.7210   24.1330   35.8610 N   0  0  0  0  0  0  0  0  0  0  0  0
   36.7550   23.7990   37.2370 H   0  0  0  0  0  0  0  0  0  0  0  0
   38.3690   21.7060   37.4610 H   0  0  0  0  0  0  0  0  0  0  0  0
   40.9140   21.9890   36.2820 C   0  0  0  0  0  0  0  0  0  0  0  0
   41.4540   21.4150   37.4090 C   0  0  0  0  0  0  0  0  0  0  0  0
   40.9940   21.6540   38.3550 H   0  0  0  0  0  0  0  0  0  0  0  0
   42.5420   20.5560   37.4100 C   0  0  0  0  0  0  0  0  0  0  0  0
   42.9340   20.1280   38.3140 H   0  0  0  0  0  0  0  0  0  0  0  0
   43.0670   20.3090   36.1380 C   0  0  0  0  0  3  0  0  0  0  0  0
   42.5480   20.8670   35.0010 C   0  0  0  0  0  3  0  0  0  0  0  0
   41.4750   21.7040   35.0810 N   0  0  0  0  0  0  0  0  0  0  0  0
  1  4  1  6  0  0  0
  1  3  1  0  0  0  0
  1  2  1  0  0  0  0
  2  6  1  0  0  0  0
  2  5  1  0  0  0  0
  3  2  1  0  0  0  0
  3  7  1  1  0  0  0
  3 24  1  0  0  0  0
  8 16  1  0  0  0  0
  8 12  2  0  0  0  0
  9 10  2  0  0  0  0
  9  8  1  0  0  0  0
 10 11  1  0  0  0  0
 11 12  1  0  0  0  0
 11  1  1  0  0  0  0
 13  9  1  0  0  0  0
 14 10  1  0  0  0  0
 15 20  2  0  0  0  0
 15 16  1  0  0  0  0
 16 17  2  0  0  0  0
 17 18  1  0  0  0  0
 17 22  1  0  0  0  0
 19 23  1  0  0  0  0
 19 18  2  0  0  0  0
 20 19  1  0  0  0  0
 21 15  1  0  0  0  0
 24 25  2  0  0  0  0
 25 26  1  0  0  0  0
 25 29  1  0  0  0  0
 26 30  1  0  0  0  0
 27 26  1  0  0  0  0
 28 24  1  0  0  0  0
 28 27  2  0  0  0  0
 31 27  1  0  0  0  0
 31 32  1  0  0  0  0
 32 34  2  0  0  0  0
 32 33  1  0  0  0  0
 34 35  1  0  0  0  0
 36 34  1  0  0  0  0
 37 38  1  0  0  0  0
 37 36  2  0  0  0  0
 38 31  2  0  0  0  0
M  END
>  <minimizedAffinity>
-5.89570141

$$$$

 OpenBabel03272500493D

 38 42  0  0  1  0  0  0  0  0999 V2000
   37.7320   25.8890   35.8280 C   0  0  1  0  0  0  0  0  0  0  0  0
   38.5240   27.2420   35.8220 C   0  0  0  0  0  0  0  0  0  0  0  0
   38.2500   26.4770   34.5790 C   0  0  2  0  0  0  0  0  0  0  0  0
   36.6550   25.9430   36.0060 H   0  0  0  0  0  0  0  0  0  0  0  0
   39.5170   27.2280   36.3010 H   0  0  0  0  0  0  0  0  0  0  0  0
   37.8760   28.1200   36.0810 H   0  0  0  0  0  0  0  0  0  0  0  0
   39.0950   25.9580   34.1260 H   0  0  0  0  0  0  0  0  0  0  0  0
   39.8760   23.1030   36.6350 C   0  0  0  0  0  0  0  0  0  0  0  0
   39.0790   23.1340   37.7560 C   0  0  0  0  0  0  0  0  0  0  0  0
   38.1570   24.1870   37.6120 C   0  0  0  0  0  0  0  0  0  0  0  0
   38.4230   24.7570   36.4200 N   0  0  0  0  0  0  0  0  0  0  0  0
   39.4220   24.0950   35.8970 N   0  0  0  0  0  0  0  0  0  0  0  0
   39.1270   22.4660   38.6290 H   0  0  0  0  0  0  0  0  0  0  0  0
   37.4080   24.4510   38.3350 H   0  0  0  0  0  0  0  0  0  0  0  0
   41.4550   21.8380   35.1410 C   0  0  0  0  0  0  0  0  0  0  0  0
   40.9350   22.1530   36.4310 C   0  0  0  0  0  0  0  0  0  0  0  0
   41.4990   21.4970   37.5130 C   0  0  0  0  0  0  0  0  0  0  0  0
   42.4980   20.6040   37.2950 N   0  0  0  0  0  0  0  0  0  0  0  0
   42.9580   20.3380   36.0540 C   0  0  0  0  0  0  0  0  0  0  0  0
   42.4350   20.9590   34.9610 N   0  0  0  0  0  0  0  0  0  0  0  0
   41.0200   22.3460   34.2900 H   0  0  0  0  0  0  0  0  0  0  0  0
   41.1380   21.7050   38.4990 H   0  0  0  0  0  0  0  0  0  0  0  0
   43.7500   19.6370   35.8310 H   0  0  0  0  0  0  0  0  0  0  0  0
   37.2790   27.0300   33.5780 C   0  0  0  0  0  0  0  0  0  0  0  0
   37.0770   26.4800   32.3030 C   0  0  0  0  0  0  0  0  0  0  0  0
   36.1370   27.2420   31.6800 N   0  0  0  0  0  0  0  0  0  0  0  0
   35.7640   28.2330   32.5360 C   0  0  0  0  0  0  0  0  0  0  0  0
   36.4580   28.1050   33.6900 N   0  0  0  0  0  0  0  0  0  0  0  0
   37.5800   25.6000   31.8810 H   0  0  0  0  0  0  0  0  0  0  0  0
   35.7430   27.1240   30.7220 H   0  0  0  0  0  0  0  0  0  0  0  0
   34.7790   29.2740   32.2720 C   0  0  0  0  0  0  0  0  0  0  0  0
   35.0930   30.3550   31.4830 C   0  0  0  0  0  0  0  0  0  0  0  0
   36.0900   30.3960   31.0730 H   0  0  0  0  0  0  0  0  0  0  0  0
   34.2200   31.3880   31.1810 C   0  0  0  0  0  0  0  0  0  0  0  0
   34.5040   32.2170   30.5590 H   0  0  0  0  0  0  0  0  0  0  0  0
   32.9540   31.2440   31.7590 C   0  0  0  0  0  3  0  0  0  0  0  0
   32.6170   30.1780   32.5470 C   0  0  0  0  0  3  0  0  0  0  0  0
   33.5320   29.2000   32.7990 N   0  0  0  0  0  0  0  0  0  0  0  0
  1  4  1  1  0  0  0
  1 11  1  0  0  0  0
  2  1  1  0  0  0  0
  2  6  1  0  0  0  0
  2  5  1  0  0  0  0
  3  7  1  6  0  0  0
  3  2  1  0  0  0  0
  3  1  1  0  0  0  0
  8  9  1  0  0  0  0
  9 13  1  0  0  0  0
 10  9  2  0  0  0  0
 10 14  1  0  0  0  0
 11 10  1  0  0  0  0
 12 11  1  0  0  0  0
 12  8  2  0  0  0  0
 15 16  1  0  0  0  0
 16  8  1  0  0  0  0
 16 17  2  0  0  0  0
 17 22  1  0  0  0  0
 18 17  1  0  0  0  0
 19 18  2  0  0  0  0
 20 15  2  0  0  0  0
 20 19  1  0  0  0  0
 21 15  1  0  0  0  0
 23 19  1  0  0  0  0
 24 28  1  0  0  0  0
 24  3  1  0  0  0  0
 25 24  2  0  0  0  0
 26 25  1  0  0  0  0
 26 27  1  0  0  0  0
 27 28  2  0  0  0  0
 29 25  1  0  0  0  0
 30 26  1  0  0  0  0
 31 27  1  0  0  0  0
 31 38  1  0  0  0  0
 32 31  2  0  0  0  0
 33 32  1  0  0  0  0
 34 32  1  0  0  0  0
 34 36  2  0  0  0  0
 35 34  1  0  0  0  0
 36 37  1  0  0  0  0
 37 38  2  0  0  0  0
M  END
>  <minimizedAffinity>
-5.78490067

$$$$

 OpenBabel03272500493D

 38 42  0  0  1  0  0  0  0  0999 V2000
   37.7270   26.6740   33.8280 C   0  0  1  0  0  0  0  0  0  0  0  0
   39.2530   26.9870   33.6520 C   0  0  0  0  0  0  0  0  0  0  0  0
   38.6700   26.5800   34.9560 C   0  0  2  0  0  0  0  0  0  0  0  0
   37.3570   25.7410   33.3970 H   0  0  0  0  0  0  0  0  0  0  0  0
   39.5150   28.0360   33.4390 H   0  0  0  0  0  0  0  0  0  0  0  0
   39.7780   26.2220   33.0230 H   0  0  0  0  0  0  0  0  0  0  0  0
   38.5790   27.3560   35.7160 H   0  0  0  0  0  0  0  0  0  0  0  0
   35.6630   29.5800   34.3850 C   0  0  0  0  0  0  0  0  0  0  0  0
   35.4590   29.3870   33.0390 C   0  0  0  0  0  0  0  0  0  0  0  0
   36.2070   28.2650   32.6360 C   0  0  0  0  0  0  0  0  0  0  0  0
   36.8360   27.8180   33.7410 N   0  0  0  0  0  0  0  0  0  0  0  0
   36.4890   28.6110   34.7230 N   0  0  0  0  0  0  0  0  0  0  0  0
   34.8280   29.9860   32.3660 H   0  0  0  0  0  0  0  0  0  0  0  0
   36.2410   27.8770   31.6350 H   0  0  0  0  0  0  0  0  0  0  0  0
   33.6560   30.9070   35.1160 C   0  0  0  0  0  0  0  0  0  0  0  0
   35.0560   30.6390   35.1440 C   0  0  0  0  0  0  0  0  0  0  0  0
   35.8360   31.4540   35.9500 C   0  0  0  0  0  0  0  0  0  0  0  0
   35.2400   32.4460   36.6570 N   0  0  0  0  0  0  0  0  0  0  0  0
   33.9080   32.6630   36.5980 C   0  0  0  0  0  0  0  0  0  0  0  0
   33.1020   31.8880   35.8220 N   0  0  0  0  0  0  0  0  0  0  0  0
   33.0390   30.2760   34.4900 H   0  0  0  0  0  0  0  0  0  0  0  0
   36.8920   31.2850   35.9990 H   0  0  0  0  0  0  0  0  0  0  0  0
   33.3890   33.4390   37.1430 H   0  0  0  0  0  0  0  0  0  0  0  0
   39.0030   25.2290   35.5160 C   0  0  0  0  0  0  0  0  0  0  0  0
   38.1350   24.4900   36.3360 C   0  0  0  0  0  0  0  0  0  0  0  0
   38.7700   23.3290   36.6520 N   0  0  0  0  0  0  0  0  0  0  0  0
   39.9910   23.3400   36.0500 C   0  0  0  0  0  0  0  0  0  0  0  0
   40.1330   24.4950   35.3600 N   0  0  0  0  0  0  0  0  0  0  0  0
   37.1310   24.7880   36.6650 H   0  0  0  0  0  0  0  0  0  0  0  0
   38.4220   22.5450   37.2440 H   0  0  0  0  0  0  0  0  0  0  0  0
   40.9980   22.2900   36.1260 C   0  0  0  0  0  0  0  0  0  0  0  0
   41.3360   21.7240   37.3320 C   0  0  0  0  0  0  0  0  0  0  0  0
   40.8270   22.0890   38.2100 H   0  0  0  0  0  0  0  0  0  0  0  0
   42.2810   20.7230   37.4950 C   0  0  0  0  0  0  0  0  0  0  0  0
   42.5170   20.3060   38.4560 H   0  0  0  0  0  0  0  0  0  0  0  0
   42.8850   20.3180   36.2990 C   0  0  0  0  0  3  0  0  0  0  0  0
   42.5660   20.8650   35.0860 C   0  0  0  0  0  3  0  0  0  0  0  0
   41.6250   21.8480   35.0080 N   0  0  0  0  0  0  0  0  0  0  0  0
  1  4  1  6  0  0  0
  1  3  1  0  0  0  0
  2  1  1  0  0  0  0
  2  3  1  0  0  0  0
  3 24  1  0  0  0  0
  3  7  1  1  0  0  0
  5  2  1  0  0  0  0
  6  2  1  0  0  0  0
  8 12  2  0  0  0  0
  8 16  1  0  0  0  0
  9  8  1  0  0  0  0
 10  9  2  0  0  0  0
 10 11  1  0  0  0  0
 11  1  1  0  0  0  0
 11 12  1  0  0  0  0
 13  9  1  0  0  0  0
 14 10  1  0  0  0  0
 15 16  2  0  0  0  0
 15 20  1  0  0  0  0
 16 17  1  0  0  0  0
 17 22  1  0  0  0  0
 17 18  2  0  0  0  0
 19 18  1  0  0  0  0
 19 23  1  0  0  0  0
 20 19  2  0  0  0  0
 21 15  1  0  0  0  0
 24 25  2  0  0  0  0
 25 26  1  0  0  0  0
 25 29  1  0  0  0  0
 26 30  1  0  0  0  0
 27 31  1  0  0  0  0
 27 26  1  0  0  0  0
 28 24  1  0  0  0  0
 28 27  2  0  0  0  0
 31 32  1  0  0  0  0
 32 34  2  0  0  0  0
 32 33  1  0  0  0  0
 34 35  1  0  0  0  0
 36 34  1  0  0  0  0
 37 36  2  0  0  0  0
 38 37  1  0  0  0  0
 38 31  2  0  0  0  0
M  END
>  <minimizedAffinity>
-5.7155261

$$$$

 OpenBabel03272500493D

 38 42  0  0  1  0  0  0  0  0999 V2000
   36.2420   26.6760   31.9150 C   0  0  1  0  0  0  0  0  0  0  0  0
   35.5970   25.4780   31.1370 C   0  0  0  0  0  0  0  0  0  0  0  0
   37.0150   25.4670   31.5770 C   0  0  2  0  0  0  0  0  0  0  0  0
   35.9430   26.8120   32.9570 H   0  0  0  0  0  0  0  0  0  0  0  0
   35.3190   25.6690   30.0880 H   0  0  0  0  0  0  0  0  0  0  0  0
   34.8290   24.9340   31.7470 H   0  0  0  0  0  0  0  0  0  0  0  0
   37.7700   25.5900   30.8000 H   0  0  0  0  0  0  0  0  0  0  0  0
   37.2370   29.2320   29.5730 C   0  0  0  0  0  0  0  0  0  0  0  0
   36.3780   29.9500   30.3720 C   0  0  0  0  0  0  0  0  0  0  0  0
   35.8810   29.0910   31.3680 C   0  0  0  0  0  0  0  0  0  0  0  0
   36.4480   27.8890   31.1430 N   0  0  0  0  0  0  0  0  0  0  0  0
   37.2220   28.0240   30.0970 N   0  0  0  0  0  0  0  0  0  0  0  0
   36.1060   31.0120   30.2760 H   0  0  0  0  0  0  0  0  0  0  0  0
   35.1870   29.3770   32.1360 H   0  0  0  0  0  0  0  0  0  0  0  0
   37.5500   31.0080   27.8190 C   0  0  0  0  0  0  0  0  0  0  0  0
   37.9360   29.7870   28.4470 C   0  0  0  0  0  0  0  0  0  0  0  0
   39.0400   29.1330   27.9220 C   0  0  0  0  0  0  0  0  0  0  0  0
   39.6840   29.6770   26.8580 N   0  0  0  0  0  0  0  0  0  0  0  0
   39.2800   30.8370   26.2970 C   0  0  0  0  0  0  0  0  0  0  0  0
   38.2030   31.5150   26.7780 N   0  0  0  0  0  0  0  0  0  0  0  0
   36.6890   31.5250   28.2220 H   0  0  0  0  0  0  0  0  0  0  0  0
   39.3630   28.2140   28.3640 H   0  0  0  0  0  0  0  0  0  0  0  0
   39.7610   31.3080   25.4500 H   0  0  0  0  0  0  0  0  0  0  0  0
   37.4330   24.5390   32.6790 C   0  0  0  0  0  0  0  0  0  0  0  0
   37.5820   23.1530   32.5140 C   0  0  0  0  0  0  0  0  0  0  0  0
   37.9630   22.6440   33.7180 N   0  0  0  0  0  0  0  0  0  0  0  0
   38.0490   23.6750   34.6020 C   0  0  0  0  0  0  0  0  0  0  0  0
   37.7270   24.8270   33.9710 N   0  0  0  0  0  0  0  0  0  0  0  0
   37.4230   22.5810   31.5910 H   0  0  0  0  0  0  0  0  0  0  0  0
   38.1640   21.6510   33.9630 H   0  0  0  0  0  0  0  0  0  0  0  0
   38.4250   23.5760   36.0070 C   0  0  0  0  0  0  0  0  0  0  0  0
   37.6950   24.2200   36.9770 C   0  0  0  0  0  0  0  0  0  0  0  0
   36.8420   24.7950   36.6550 H   0  0  0  0  0  0  0  0  0  0  0  0
   37.9810   24.1800   38.3330 C   0  0  0  0  0  0  0  0  0  0  0  0
   37.3850   24.6990   39.0620 H   0  0  0  0  0  0  0  0  0  0  0  0
   39.1050   23.4100   38.6500 C   0  0  0  0  0  3  0  0  0  0  0  0
   39.8470   22.7590   37.7030 C   0  0  0  0  0  3  0  0  0  0  0  0
   39.5020   22.8460   36.3880 N   0  0  0  0  0  0  0  0  0  0  0  0
  1  4  1  1  0  0  0
  2  3  1  0  0  0  0
  2  6  1  0  0  0  0
  2  1  1  0  0  0  0
  3  7  1  6  0  0  0
  3  1  1  0  0  0  0
  3 24  1  0  0  0  0
  5  2  1  0  0  0  0
  8 12  2  0  0  0  0
  8  9  1  0  0  0  0
  9 10  2  0  0  0  0
 10 14  1  0  0  0  0
 11 10  1  0  0  0  0
 11  1  1  0  0  0  0
 12 11  1  0  0  0  0
 13  9  1  0  0  0  0
 15 21  1  0  0  0  0
 15 16  1  0  0  0  0
 16  8  1  0  0  0  0
 17 22  1  0  0  0  0
 17 16  2  0  0  0  0
 18 17  1  0  0  0  0
 19 20  1  0  0  0  0
 19 18  2  0  0  0  0
 20 15  2  0  0  0  0
 23 19  1  0  0  0  0
 24 28  1  0  0  0  0
 25 24  2  0  0  0  0
 25 26  1  0  0  0  0
 26 30  1  0  0  0  0
 26 27  1  0  0  0  0
 27 31  1  0  0  0  0
 28 27  2  0  0  0  0
 29 25  1  0  0  0  0
 31 38  2  0  0  0  0
 31 32  1  0  0  0  0
 32 34  2  0  0  0  0
 33 32  1  0  0  0  0
 34 36  1  0  0  0  0
 34 35  1  0  0  0  0
 37 36  2  0  0  0  0
 38 37  1  0  0  0  0
M  END
>  <minimizedAffinity>
-5.60456228

$$$$

 OpenBabel03272500493D

 38 42  0  0  1  0  0  0  0  0999 V2000
   37.2290   27.0670   32.4010 C   0  0  1  0  0  0  0  0  0  0  0  0
   38.7960   27.0840   32.4280 C   0  0  0  0  0  0  0  0  0  0  0  0
   37.9920   26.3480   33.4360 C   0  0  2  0  0  0  0  0  0  0  0  0
   36.7500   26.4740   31.6180 H   0  0  0  0  0  0  0  0  0  0  0  0
   39.2710   28.0500   32.6620 H   0  0  0  0  0  0  0  0  0  0  0  0
   39.2460   26.5220   31.5680 H   0  0  0  0  0  0  0  0  0  0  0  0
   37.9510   26.7750   34.4380 H   0  0  0  0  0  0  0  0  0  0  0  0
   35.5740   29.8650   33.9650 C   0  0  0  0  0  0  0  0  0  0  0  0
   35.6940   30.3370   32.6790 C   0  0  0  0  0  0  0  0  0  0  0  0
   36.3340   29.3510   31.9060 C   0  0  0  0  0  0  0  0  0  0  0  0
   36.5810   28.3220   32.7400 N   0  0  0  0  0  0  0  0  0  0  0  0
   36.1220   28.6690   33.9160 N   0  0  0  0  0  0  0  0  0  0  0  0
   35.3590   31.3100   32.2900 H   0  0  0  0  0  0  0  0  0  0  0  0
   36.5630   29.4430   30.8600 H   0  0  0  0  0  0  0  0  0  0  0  0
   35.7040   31.4680   35.8980 C   0  0  0  0  0  0  0  0  0  0  0  0
   34.9660   30.6040   35.0360 C   0  0  0  0  0  0  0  0  0  0  0  0
   33.6040   30.4980   35.2710 C   0  0  0  0  0  0  0  0  0  0  0  0
   33.0530   31.2070   36.2880 N   0  0  0  0  0  0  0  0  0  0  0  0
   33.7930   32.0120   37.0790 C   0  0  0  0  0  0  0  0  0  0  0  0
   35.1340   32.1500   36.8870 N   0  0  0  0  0  0  0  0  0  0  0  0
   36.7680   31.5570   35.7230 H   0  0  0  0  0  0  0  0  0  0  0  0
   33.0130   29.8610   34.6460 H   0  0  0  0  0  0  0  0  0  0  0  0
   33.3990   32.5960   37.9000 H   0  0  0  0  0  0  0  0  0  0  0  0
   37.9990   24.8470   33.4240 C   0  0  0  0  0  0  0  0  0  0  0  0
   38.9700   24.0670   34.0720 C   0  0  0  0  0  0  0  0  0  0  0  0
   38.6580   22.7630   33.8410 N   0  0  0  0  0  0  0  0  0  0  0  0
   37.5320   22.7290   33.0770 C   0  0  0  0  0  0  0  0  0  0  0  0
   37.1310   23.9950   32.8230 N   0  0  0  0  0  0  0  0  0  0  0  0
   39.8230   24.4350   34.6560 H   0  0  0  0  0  0  0  0  0  0  0  0
   39.1620   21.9120   34.1700 H   0  0  0  0  0  0  0  0  0  0  0  0
   36.8530   21.5320   32.5970 C   0  0  0  0  0  0  0  0  0  0  0  0
   35.4820   21.4920   32.5010 C   0  0  0  0  0  0  0  0  0  0  0  0
   34.9390   22.3770   32.7940 H   0  0  0  0  0  0  0  0  0  0  0  0
   34.7560   20.3980   32.0570 C   0  0  0  0  0  0  0  0  0  0  0  0
   33.6830   20.4060   31.9970 H   0  0  0  0  0  0  0  0  0  0  0  0
   35.5490   19.3020   31.7010 C   0  0  0  0  0  3  0  0  0  0  0  0
   36.9140   19.3170   31.7870 C   0  0  0  0  0  3  0  0  0  0  0  0
   37.5570   20.4320   32.2340 N   0  0  0  0  0  0  0  0  0  0  0  0
  1  4  1  6  0  0  0
  1  2  1  0  0  0  0
  1 11  1  0  0  0  0
  1  3  1  0  0  0  0
  2  5  1  0  0  0  0
  2  3  1  0  0  0  0
  3  7  1  1  0  0  0
  6  2  1  0  0  0  0
  8 16  1  0  0  0  0
  9  8  1  0  0  0  0
 10  9  2  0  0  0  0
 10 11  1  0  0  0  0
 11 12  1  0  0  0  0
 12  8  2  0  0  0  0
 13  9  1  0  0  0  0
 14 10  1  0  0  0  0
 15 20  1  0  0  0  0
 16 17  1  0  0  0  0
 16 15  2  0  0  0  0
 17 18  2  0  0  0  0
 18 19  1  0  0  0  0
 19 23  1  0  0  0  0
 20 19  2  0  0  0  0
 21 15  1  0  0  0  0
 22 17  1  0  0  0  0
 24  3  1  0  0  0  0
 24 25  2  0  0  0  0
 25 29  1  0  0  0  0
 26 25  1  0  0  0  0
 26 30  1  0  0  0  0
 27 26  1  0  0  0  0
 28 27  2  0  0  0  0
 28 24  1  0  0  0  0
 31 27  1  0  0  0  0
 32 31  1  0  0  0  0
 32 33  1  0  0  0  0
 34 32  2  0  0  0  0
 35 34  1  0  0  0  0
 36 37  2  0  0  0  0
 36 34  1  0  0  0  0
 37 38  1  0  0  0  0
 38 31  2  0  0  0  0
M  END
>  <minimizedAffinity>
-5.59041452

$$$$

 OpenBabel03272500493D

 38 42  0  0  1  0  0  0  0  0999 V2000
   36.3070   27.9390   31.6220 C   0  0  1  0  0  0  0  0  0  0  0  0
   37.7950   27.4580   31.7240 C   0  0  0  0  0  0  0  0  0  0  0  0
   36.6840   26.7550   32.4140 C   0  0  2  0  0  0  0  0  0  0  0  0
   35.7930   27.7710   30.6720 H   0  0  0  0  0  0  0  0  0  0  0  0
   38.4860   28.1210   32.2700 H   0  0  0  0  0  0  0  0  0  0  0  0
   38.1830   27.0520   30.7530 H   0  0  0  0  0  0  0  0  0  0  0  0
   36.6280   26.8720   33.4970 H   0  0  0  0  0  0  0  0  0  0  0  0
   35.2800   30.5480   33.8910 C   0  0  0  0  0  0  0  0  0  0  0  0
   35.7570   31.3040   32.8450 C   0  0  0  0  0  0  0  0  0  0  0  0
   36.2120   30.4300   31.8410 C   0  0  0  0  0  0  0  0  0  0  0  0
   35.9990   29.1830   32.3060 N   0  0  0  0  0  0  0  0  0  0  0  0
   35.4590   29.3060   33.4920 N   0  0  0  0  0  0  0  0  0  0  0  0
   35.7910   32.4010   32.7750 H   0  0  0  0  0  0  0  0  0  0  0  0
   36.6380   30.7380   30.9050 H   0  0  0  0  0  0  0  0  0  0  0  0
   33.3870   30.8790   35.5130 C   0  0  0  0  0  0  0  0  0  0  0  0
   34.7320   31.1050   35.0970 C   0  0  0  0  0  0  0  0  0  0  0  0
   35.5170   31.9000   35.9170 C   0  0  0  0  0  0  0  0  0  0  0  0
   34.9770   32.4130   37.0510 N   0  0  0  0  0  0  0  0  0  0  0  0
   33.6970   32.1720   37.4030 C   0  0  0  0  0  0  0  0  0  0  0  0
   32.8870   31.3970   36.6310 N   0  0  0  0  0  0  0  0  0  0  0  0
   32.7650   30.2600   34.8790 H   0  0  0  0  0  0  0  0  0  0  0  0
   36.5330   32.0930   35.6410 H   0  0  0  0  0  0  0  0  0  0  0  0
   33.2230   32.5580   38.2960 H   0  0  0  0  0  0  0  0  0  0  0  0
   36.2690   25.3960   31.9350 C   0  0  0  0  0  0  0  0  0  0  0  0
   35.3330   25.1840   30.9110 C   0  0  0  0  0  0  0  0  0  0  0  0
   35.2060   23.8380   30.7540 N   0  0  0  0  0  0  0  0  0  0  0  0
   36.0330   23.2300   31.6480 C   0  0  0  0  0  0  0  0  0  0  0  0
   36.6800   24.1770   32.3660 N   0  0  0  0  0  0  0  0  0  0  0  0
   34.7990   25.9540   30.3390 H   0  0  0  0  0  0  0  0  0  0  0  0
   34.5980   23.3220   30.0830 H   0  0  0  0  0  0  0  0  0  0  0  0
   36.2090   21.7940   31.8210 C   0  0  0  0  0  0  0  0  0  0  0  0
   35.1300   20.9770   32.0620 C   0  0  0  0  0  0  0  0  0  0  0  0
   34.1590   21.4430   32.1170 H   0  0  0  0  0  0  0  0  0  0  0  0
   35.2070   19.6040   32.2390 C   0  0  0  0  0  0  0  0  0  0  0  0
   34.3390   19.0000   32.4260 H   0  0  0  0  0  0  0  0  0  0  0  0
   36.5070   19.0960   32.1500 C   0  0  0  0  0  3  0  0  0  0  0  0
   37.5970   19.8880   31.9100 C   0  0  0  0  0  3  0  0  0  0  0  0
   37.4410   21.2320   31.7470 N   0  0  0  0  0  0  0  0  0  0  0  0
  1  4  1  6  0  0  0
  1  2  1  0  0  0  0
  1 11  1  0  0  0  0
  1  3  1  0  0  0  0
  2  5  1  0  0  0  0
  2  3  1  0  0  0  0
  3  7  1  1  0  0  0
  6  2  1  0  0  0  0
  8 16  1  0  0  0  0
  9  8  1  0  0  0  0
 10 11  1  0  0  0  0
 10  9  2  0  0  0  0
 11 12  1  0  0  0  0
 12  8  2  0  0  0  0
 13  9  1  0  0  0  0
 14 10  1  0  0  0  0
 15 20  1  0  0  0  0
 16 15  2  0  0  0  0
 16 17  1  0  0  0  0
 17 18  2  0  0  0  0
 18 19  1  0  0  0  0
 19 23  1  0  0  0  0
 20 19  2  0  0  0  0
 21 15  1  0  0  0  0
 22 17  1  0  0  0  0
 24 28  1  0  0  0  0
 24  3  1  0  0  0  0
 25 24  2  0  0  0  0
 26 25  1  0  0  0  0
 26 27  1  0  0  0  0
 27 31  1  0  0  0  0
 27 28  2  0  0  0  0
 29 25  1  0  0  0  0
 30 26  1  0  0  0  0
 31 32  1  0  0  0  0
 32 33  1  0  0  0  0
 32 34  2  0  0  0  0
 34 35  1  0  0  0  0
 36 34  1  0  0  0  0
 37 36  2  0  0  0  0
 38 31  2  0  0  0  0
 38 37  1  0  0  0  0
M  END
>  <minimizedAffinity>
-5.59015799

$$$$

 OpenBabel03272500493D

 38 42  0  0  1  0  0  0  0  0999 V2000
   38.0180   26.5750   33.0480 C   0  0  1  0  0  0  0  0  0  0  0  0
   38.3230   27.2500   31.6660 C   0  0  0  0  0  0  0  0  0  0  0  0
   36.9610   27.2280   32.2560 C   0  0  2  0  0  0  0  0  0  0  0  0
   38.3720   27.0910   33.9440 H   0  0  0  0  0  0  0  0  0  0  0  0
   38.6090   26.5730   30.8450 H   0  0  0  0  0  0  0  0  0  0  0  0
   38.9510   28.1740   31.7700 H   0  0  0  0  0  0  0  0  0  0  0  0
   36.2360   26.5590   31.7900 H   0  0  0  0  0  0  0  0  0  0  0  0
   37.4750   23.0160   32.8230 C   0  0  0  0  0  0  0  0  0  0  0  0
   38.7580   23.0390   33.3170 C   0  0  0  0  0  0  0  0  0  0  0  0
   39.1460   24.3830   33.4730 C   0  0  0  0  0  0  0  0  0  0  0  0
   38.0960   25.1250   33.0710 N   0  0  0  0  0  0  0  0  0  0  0  0
   37.1580   24.2890   32.7060 N   0  0  0  0  0  0  0  0  0  0  0  0
   39.3960   22.1770   33.5600 H   0  0  0  0  0  0  0  0  0  0  0  0
   40.1010   24.7070   33.8430 H   0  0  0  0  0  0  0  0  0  0  0  0
   36.5410   21.3250   31.2130 C   0  0  0  0  0  0  0  0  0  0  0  0
   36.7480   21.8110   32.5370 C   0  0  0  0  0  0  0  0  0  0  0  0
   36.2100   21.0610   33.5720 C   0  0  0  0  0  0  0  0  0  0  0  0
   35.5270   19.9250   33.2770 N   0  0  0  0  0  0  0  0  0  0  0  0
   35.3570   19.5050   32.0060 C   0  0  0  0  0  0  0  0  0  0  0  0
   35.8680   20.2080   30.9570 N   0  0  0  0  0  0  0  0  0  0  0  0
   36.9570   21.9040   30.3980 H   0  0  0  0  0  0  0  0  0  0  0  0
   36.3430   21.3900   34.5820 H   0  0  0  0  0  0  0  0  0  0  0  0
   34.8220   18.6090   31.7220 H   0  0  0  0  0  0  0  0  0  0  0  0
   36.3590   28.5070   32.7580 C   0  0  0  0  0  0  0  0  0  0  0  0
   36.2870   29.6850   31.9970 C   0  0  0  0  0  0  0  0  0  0  0  0
   35.6890   30.6290   32.7740 N   0  0  0  0  0  0  0  0  0  0  0  0
   35.3970   30.0620   33.9760 C   0  0  0  0  0  0  0  0  0  0  0  0
   35.8050   28.7720   33.9670 N   0  0  0  0  0  0  0  0  0  0  0  0
   36.6440   29.8250   30.9690 H   0  0  0  0  0  0  0  0  0  0  0  0
   35.4730   31.6200   32.5320 H   0  0  0  0  0  0  0  0  0  0  0  0
   34.7520   30.7190   35.1050 C   0  0  0  0  0  0  0  0  0  0  0  0
   35.4380   31.6260   35.8770 C   0  0  0  0  0  0  0  0  0  0  0  0
   36.4640   31.8260   35.6120 H   0  0  0  0  0  0  0  0  0  0  0  0
   34.9030   32.2960   36.9670 C   0  0  0  0  0  0  0  0  0  0  0  0
   35.4740   32.9980   37.5470 H   0  0  0  0  0  0  0  0  0  0  0  0
   33.5690   31.9690   37.2300 C   0  0  0  0  0  3  0  0  0  0  0  0
   32.8640   31.0710   36.4770 C   0  0  0  0  0  3  0  0  0  0  0  0
   33.4600   30.4520   35.4190 N   0  0  0  0  0  0  0  0  0  0  0  0
  1 11  1  0  0  0  0
  1  4  1  1  0  0  0
  2  6  1  0  0  0  0
  2  3  1  0  0  0  0
  2  1  1  0  0  0  0
  3  7  1  6  0  0  0
  3 24  1  0  0  0  0
  3  1  1  0  0  0  0
  5  2  1  0  0  0  0
  8  9  1  0  0  0  0
  9 10  2  0  0  0  0
  9 13  1  0  0  0  0
 10 14  1  0  0  0  0
 11 10  1  0  0  0  0
 12  8  2  0  0  0  0
 12 11  1  0  0  0  0
 15 16  1  0  0  0  0
 16  8  1  0  0  0  0
 16 17  2  0  0  0  0
 17 22  1  0  0  0  0
 18 17  1  0  0  0  0
 19 18  2  0  0  0  0
 20 15  2  0  0  0  0
 20 19  1  0  0  0  0
 21 15  1  0  0  0  0
 23 19  1  0  0  0  0
 24 28  1  0  0  0  0
 25 24  2  0  0  0  0
 25 26  1  0  0  0  0
 26 27  1  0  0  0  0
 27 31  1  0  0  0  0
 28 27  2  0  0  0  0
 29 25  1  0  0  0  0
 30 26  1  0  0  0  0
 31 38  2  0  0  0  0
 31 32  1  0  0  0  0
 32 34  2  0  0  0  0
 33 32  1  0  0  0  0
 34 36  1  0  0  0  0
 34 35  1  0  0  0  0
 37 36  2  0  0  0  0
 38 37  1  0  0  0  0
M  END
>  <minimizedAffinity>
-5.56274939

$$$$

 OpenBabel03272500493D

 38 42  0  0  1  0  0  0  0  0999 V2000
   38.2760   26.7150   33.8770 C   0  0  1  0  0  0  0  0  0  0  0  0
   38.5710   27.2570   32.4360 C   0  0  0  0  0  0  0  0  0  0  0  0
   37.1900   27.0670   32.9460 C   0  0  2  0  0  0  0  0  0  0  0  0
   38.4680   27.3920   34.7130 H   0  0  0  0  0  0  0  0  0  0  0  0
   39.0300   26.5450   31.7310 H   0  0  0  0  0  0  0  0  0  0  0  0
   39.0250   28.2830   32.4480 H   0  0  0  0  0  0  0  0  0  0  0  0
   36.6270   26.2290   32.5360 H   0  0  0  0  0  0  0  0  0  0  0  0
   39.6290   23.5330   34.9020 C   0  0  0  0  0  0  0  0  0  0  0  0
   38.6250   23.1140   34.0610 C   0  0  0  0  0  0  0  0  0  0  0  0
   37.9720   24.2520   33.5540 C   0  0  0  0  0  0  0  0  0  0  0  0
   38.5940   25.3160   34.1000 N   0  0  0  0  0  0  0  0  0  0  0  0
   39.5430   24.8460   34.8690 N   0  0  0  0  0  0  0  0  0  0  0  0
   38.3540   22.0780   33.8070 H   0  0  0  0  0  0  0  0  0  0  0  0
   37.1440   24.2320   32.8700 H   0  0  0  0  0  0  0  0  0  0  0  0
   40.4330   22.4210   37.0100 C   0  0  0  0  0  0  0  0  0  0  0  0
   40.5110   22.6410   35.6030 C   0  0  0  0  0  0  0  0  0  0  0  0
   41.4910   21.9450   34.9130 C   0  0  0  0  0  0  0  0  0  0  0  0
   42.3110   21.1080   35.5970 N   0  0  0  0  0  0  0  0  0  0  0  0
   42.2000   20.9330   36.9310 C   0  0  0  0  0  0  0  0  0  0  0  0
   41.2520   21.5930   37.6510 N   0  0  0  0  0  0  0  0  0  0  0  0
   39.6710   22.9600   37.5580 H   0  0  0  0  0  0  0  0  0  0  0  0
   41.5820   22.0800   33.8550 H   0  0  0  0  0  0  0  0  0  0  0  0
   42.8290   20.2780   37.5180 H   0  0  0  0  0  0  0  0  0  0  0  0
   36.3450   28.2730   33.2360 C   0  0  0  0  0  0  0  0  0  0  0  0
   35.7930   29.0950   32.2410 C   0  0  0  0  0  0  0  0  0  0  0  0
   35.1000   30.0810   32.8720 N   0  0  0  0  0  0  0  0  0  0  0  0
   35.2130   29.8820   34.2140 C   0  0  0  0  0  0  0  0  0  0  0  0
   35.9700   28.7830   34.4360 N   0  0  0  0  0  0  0  0  0  0  0  0
   35.8980   28.9710   31.1550 H   0  0  0  0  0  0  0  0  0  0  0  0
   34.5640   30.8660   32.4460 H   0  0  0  0  0  0  0  0  0  0  0  0
   34.6230   30.7070   35.2600 C   0  0  0  0  0  0  0  0  0  0  0  0
   35.3890   31.6120   35.9570 C   0  0  0  0  0  0  0  0  0  0  0  0
   36.4320   31.6830   35.6960 H   0  0  0  0  0  0  0  0  0  0  0  0
   34.9110   32.4350   36.9650 C   0  0  0  0  0  0  0  0  0  0  0  0
   35.5420   33.1310   37.4870 H   0  0  0  0  0  0  0  0  0  0  0  0
   33.5470   32.2700   37.2290 C   0  0  0  0  0  3  0  0  0  0  0  0
   32.7640   31.3760   36.5500 C   0  0  0  0  0  3  0  0  0  0  0  0
   33.3080   30.6010   35.5700 N   0  0  0  0  0  0  0  0  0  0  0  0
  1 11  1  0  0  0  0
  1  4  1  1  0  0  0
  2  6  1  0  0  0  0
  2  3  1  0  0  0  0
  2  1  1  0  0  0  0
  3  7  1  6  0  0  0
  3 24  1  0  0  0  0
  3  1  1  0  0  0  0
  5  2  1  0  0  0  0
  8 16  1  0  0  0  0
  9  8  1  0  0  0  0
 10  9  2  0  0  0  0
 10 11  1  0  0  0  0
 11 12  1  0  0  0  0
 12  8  2  0  0  0  0
 13  9  1  0  0  0  0
 14 10  1  0  0  0  0
 15 21  1  0  0  0  0
 15 20  1  0  0  0  0
 16 15  2  0  0  0  0
 17 18  2  0  0  0  0
 17 16  1  0  0  0  0
 18 19  1  0  0  0  0
 19 23  1  0  0  0  0
 19 20  2  0  0  0  0
 22 17  1  0  0  0  0
 24 28  1  0  0  0  0
 25 26  1  0  0  0  0
 25 24  2  0  0  0  0
 26 27  1  0  0  0  0
 27 28  2  0  0  0  0
 27 31  1  0  0  0  0
 29 25  1  0  0  0  0
 30 26  1  0  0  0  0
 31 38  2  0  0  0  0
 31 32  1  0  0  0  0
 32 34  2  0  0  0  0
 33 32  1  0  0  0  0
 34 36  1  0  0  0  0
 34 35  1  0  0  0  0
 37 36  2  0  0  0  0
 38 37  1  0  0  0  0
M  END
>  <minimizedAffinity>
-5.50085735

$$$$

 OpenBabel03272500493D

 38 42  0  0  1  0  0  0  0  0999 V2000
   36.6110   27.1870   32.4340 C   0  0  1  0  0  0  0  0  0  0  0  0
   37.7630   27.8740   31.6220 C   0  0  0  0  0  0  0  0  0  0  0  0
   36.3730   28.3960   31.6260 C   0  0  2  0  0  0  0  0  0  0  0  0
   36.6330   27.3000   33.5210 H   0  0  0  0  0  0  0  0  0  0  0  0
   38.1640   27.3050   30.7670 H   0  0  0  0  0  0  0  0  0  0  0  0
   38.5310   28.3510   32.2850 H   0  0  0  0  0  0  0  0  0  0  0  0
   35.7910   28.2490   30.7150 H   0  0  0  0  0  0  0  0  0  0  0  0
   36.0430   23.7020   31.7010 C   0  0  0  0  0  0  0  0  0  0  0  0
   35.1480   24.2850   30.8340 C   0  0  0  0  0  0  0  0  0  0  0  0
   35.2340   25.6810   30.9860 C   0  0  0  0  0  0  0  0  0  0  0  0
   36.1690   25.8980   31.9320 N   0  0  0  0  0  0  0  0  0  0  0  0
   36.6050   24.7240   32.3120 N   0  0  0  0  0  0  0  0  0  0  0  0
   34.4700   23.7780   30.1320 H   0  0  0  0  0  0  0  0  0  0  0  0
   34.6500   26.3960   30.4370 H   0  0  0  0  0  0  0  0  0  0  0  0
   37.3650   21.6030   31.2840 C   0  0  0  0  0  0  0  0  0  0  0  0
   36.2320   22.2820   31.8210 C   0  0  0  0  0  0  0  0  0  0  0  0
   35.2920   21.5090   32.4840 C   0  0  0  0  0  0  0  0  0  0  0  0
   35.4930   20.1700   32.5850 N   0  0  0  0  0  0  0  0  0  0  0  0
   36.5820   19.5710   32.0590 C   0  0  0  0  0  0  0  0  0  0  0  0
   37.5320   20.2890   31.4010 N   0  0  0  0  0  0  0  0  0  0  0  0
   38.1040   22.1990   30.7650 H   0  0  0  0  0  0  0  0  0  0  0  0
   34.4270   21.9800   32.9030 H   0  0  0  0  0  0  0  0  0  0  0  0
   36.7850   18.5100   32.1150 H   0  0  0  0  0  0  0  0  0  0  0  0
   36.0790   29.6920   32.3230 C   0  0  0  0  0  0  0  0  0  0  0  0
   36.2490   30.9520   31.7280 C   0  0  0  0  0  0  0  0  0  0  0  0
   35.8920   31.8840   32.6520 N   0  0  0  0  0  0  0  0  0  0  0  0
   35.5130   31.2310   33.7840 C   0  0  0  0  0  0  0  0  0  0  0  0
   35.6260   29.8980   33.5850 N   0  0  0  0  0  0  0  0  0  0  0  0
   36.6020   31.1540   30.7080 H   0  0  0  0  0  0  0  0  0  0  0  0
   35.8930   32.9220   32.5540 H   0  0  0  0  0  0  0  0  0  0  0  0
   35.0550   31.8470   35.0230 C   0  0  0  0  0  0  0  0  0  0  0  0
   34.0820   31.2510   35.7880 C   0  0  0  0  0  0  0  0  0  0  0  0
   33.6760   30.3160   35.4340 H   0  0  0  0  0  0  0  0  0  0  0  0
   33.5890   31.7670   36.9770 C   0  0  0  0  0  0  0  0  0  0  0  0
   32.8260   31.2690   37.5470 H   0  0  0  0  0  0  0  0  0  0  0  0
   34.1770   32.9800   37.3520 C   0  0  0  0  0  3  0  0  0  0  0  0
   35.1470   33.5930   36.6080 C   0  0  0  0  0  3  0  0  0  0  0  0
   35.5800   33.0230   35.4480 N   0  0  0  0  0  0  0  0  0  0  0  0
  1  4  1  1  0  0  0
  2  3  1  0  0  0  0
  2  6  1  0  0  0  0
  2  1  1  0  0  0  0
  3  7  1  6  0  0  0
  3 24  1  0  0  0  0
  3  1  1  0  0  0  0
  5  2  1  0  0  0  0
  8 16  1  0  0  0  0
  8 12  2  0  0  0  0
  9 10  2  0  0  0  0
  9  8  1  0  0  0  0
 10 11  1  0  0  0  0
 11 12  1  0  0  0  0
 11  1  1  0  0  0  0
 13  9  1  0  0  0  0
 14 10  1  0  0  0  0
 15 20  2  0  0  0  0
 15 16  1  0  0  0  0
 16 17  2  0  0  0  0
 17 18  1  0  0  0  0
 17 22  1  0  0  0  0
 19 23  1  0  0  0  0
 19 18  2  0  0  0  0
 20 19  1  0  0  0  0
 21 15  1  0  0  0  0
 24 28  1  0  0  0  0
 25 24  2  0  0  0  0
 25 26  1  0  0  0  0
 26 27  1  0  0  0  0
 27 31  1  0  0  0  0
 28 27  2  0  0  0  0
 29 25  1  0  0  0  0
 30 26  1  0  0  0  0
 31 38  2  0  0  0  0
 31 32  1  0  0  0  0
 32 34  2  0  0  0  0
 33 32  1  0  0  0  0
 34 36  1  0  0  0  0
 34 35  1  0  0  0  0
 37 36  2  0  0  0  0
 38 37  1  0  0  0  0
M  END
>  <minimizedAffinity>
-5.42692471

$$$$
