
 OpenBabel03272510183D

 27 29  0  0  0  0  0  0  0  0999 V2000
   37.2900   28.6800   29.5590 Br  0  0  0  0  0  0  0  0  0  0  0  0
   36.5370   29.3560   31.1830 C   0  0  0  0  0  0  0  0  0  0  0  0
   36.0820   28.4940   32.1670 C   0  0  0  0  0  0  0  0  0  0  0  0
   35.5490   29.0640   33.3120 C   0  0  0  0  0  0  0  0  0  0  0  0
   35.4580   30.4200   33.5060 C   0  0  0  0  0  0  0  0  0  0  0  0
   35.9170   31.2440   32.5110 C   0  0  0  0  0  0  0  0  0  0  0  0
   36.4510   30.7040   31.3620 C   0  0  0  0  0  0  0  0  0  0  0  0
   35.2050   28.3570   34.0580 H   0  0  0  0  0  0  0  0  0  0  0  0
   35.8550   32.3150   32.6410 H   0  0  0  0  0  0  0  0  0  0  0  0
   36.8070   31.3990   30.5940 H   0  0  0  0  0  0  0  0  0  0  0  0
   37.3000   25.0780   32.4600 C   0  0  0  0  0  0  0  0  0  0  0  0
   36.3860   24.3110   31.7070 C   0  0  0  0  0  0  0  0  0  0  0  0
   35.3400   25.0040   31.0950 C   0  0  0  0  0  0  0  0  0  0  0  0
   35.2610   26.3540   31.2570 N   0  0  0  0  0  0  0  0  0  0  0  0
   36.1650   27.0510   31.9930 C   0  0  0  0  0  0  0  0  0  0  0  0
   37.1930   26.4040   32.5990 N   0  0  0  0  0  0  0  0  0  0  0  0
   38.1220   24.5300   32.9400 H   0  0  0  0  0  0  0  0  0  0  0  0
   36.5270   23.2380   31.6320 H   0  0  0  0  0  0  0  0  0  0  0  0
   34.6320   24.4580   30.5200 H   0  0  0  0  0  0  0  0  0  0  0  0
   34.8790   30.8890   34.7550 C   0  0  0  0  0  0  0  0  0  0  0  0
   35.5660   31.6350   35.6890 C   0  0  0  0  0  0  0  0  0  0  0  0
   36.5800   31.8970   35.5090 H   0  0  0  0  0  0  0  0  0  0  0  0
   34.9950   32.0710   36.8720 C   0  0  0  0  0  0  0  0  0  0  0  0
   35.5850   32.6510   37.5620 H   0  0  0  0  0  0  0  0  0  0  0  0
   33.6720   31.7250   37.1010 C   0  0  0  0  0  3  0  0  0  0  0  0
   32.9860   30.9740   36.1610 C   0  0  0  0  0  3  0  0  0  0  0  0
   33.6100   30.5870   35.0310 N   0  0  0  0  0  0  0  0  0  0  0  0
  1  2  1  0  0  0  0
  2  7  2  0  0  0  0
  2  3  1  0  0  0  0
  3  4  2  0  0  0  0
  4  5  1  0  0  0  0
  4  8  1  0  0  0  0
  5 20  1  0  0  0  0
  6  9  1  0  0  0  0
  6  5  2  0  0  0  0
  7  6  1  0  0  0  0
 10  7  1  0  0  0  0
 11 16  1  0  0  0  0
 11 17  1  0  0  0  0
 12 11  2  0  0  0  0
 13 14  2  0  0  0  0
 13 12  1  0  0  0  0
 14 15  1  0  0  0  0
 15  3  1  0  0  0  0
 15 16  2  0  0  0  0
 18 12  1  0  0  0  0
 19 13  1  0  0  0  0
 20 27  2  0  0  0  0
 20 21  1  0  0  0  0
 21 23  2  0  0  0  0
 22 21  1  0  0  0  0
 23 25  1  0  0  0  0
 23 24  1  0  0  0  0
 26 25  2  0  0  0  0
 27 26  1  0  0  0  0
M  END
>  <minimizedAffinity>
-5.372962

$$$$

 OpenBabel03272510183D

 27 29  0  0  0  0  0  0  0  0999 V2000
   35.1690   31.4030   32.0180 Br  0  0  0  0  0  0  0  0  0  0  0  0
   35.8930   29.7830   32.7360 C   0  0  0  0  0  0  0  0  0  0  0  0
   35.7790   29.4920   34.0850 C   0  0  0  0  0  0  0  0  0  0  0  0
   36.3310   28.2980   34.5240 C   0  0  0  0  0  0  0  0  0  0  0  0
   36.9710   27.4130   33.6920 C   0  0  0  0  0  0  0  0  0  0  0  0
   37.0660   27.7350   32.3620 C   0  0  0  0  0  0  0  0  0  0  0  0
   36.5260   28.9140   31.8990 C   0  0  0  0  0  0  0  0  0  0  0  0
   36.2210   28.1060   35.5850 H   0  0  0  0  0  0  0  0  0  0  0  0
   37.5650   27.0530   31.6890 H   0  0  0  0  0  0  0  0  0  0  0  0
   36.6240   29.1300   30.8300 H   0  0  0  0  0  0  0  0  0  0  0  0
   35.2920   32.1470   36.5250 C   0  0  0  0  0  0  0  0  0  0  0  0
   33.8980   32.1780   36.7380 C   0  0  0  0  0  0  0  0  0  0  0  0
   33.1310   31.2590   36.0200 C   0  0  0  0  0  0  0  0  0  0  0  0
   33.7600   30.4010   35.1680 N   0  0  0  0  0  0  0  0  0  0  0  0
   35.1060   30.4080   34.9940 C   0  0  0  0  0  0  0  0  0  0  0  0
   35.8770   31.2900   35.6800 N   0  0  0  0  0  0  0  0  0  0  0  0
   35.8920   32.8710   37.0910 H   0  0  0  0  0  0  0  0  0  0  0  0
   33.4830   32.8970   37.4370 H   0  0  0  0  0  0  0  0  0  0  0  0
   32.0770   31.2540   36.1560 H   0  0  0  0  0  0  0  0  0  0  0  0
   37.5050   26.1950   34.2810 C   0  0  0  0  0  0  0  0  0  0  0  0
   37.8250   26.0630   35.6160 C   0  0  0  0  0  0  0  0  0  0  0  0
   37.6830   26.8850   36.2730 H   0  0  0  0  0  0  0  0  0  0  0  0
   38.3330   24.8950   36.1560 C   0  0  0  0  0  0  0  0  0  0  0  0
   38.5640   24.8550   37.2080 H   0  0  0  0  0  0  0  0  0  0  0  0
   38.5180   23.8270   35.2920 C   0  0  0  0  0  3  0  0  0  0  0  0
   38.1960   23.9630   33.9520 C   0  0  0  0  0  3  0  0  0  0  0  0
   37.7040   25.1340   33.4990 N   0  0  0  0  0  0  0  0  0  0  0  0
  1  2  1  0  0  0  0
  2  3  1  0  0  0  0
  3  4  2  0  0  0  0
  3 15  1  0  0  0  0
  4  8  1  0  0  0  0
  5 20  1  0  0  0  0
  5  4  1  0  0  0  0
  6  5  2  0  0  0  0
  7  6  1  0  0  0  0
  7  2  2  0  0  0  0
  9  6  1  0  0  0  0
 10  7  1  0  0  0  0
 11 12  1  0  0  0  0
 11 17  1  0  0  0  0
 12 18  1  0  0  0  0
 13 19  1  0  0  0  0
 13 12  2  0  0  0  0
 14 13  1  0  0  0  0
 15 14  2  0  0  0  0
 15 16  1  0  0  0  0
 16 11  2  0  0  0  0
 20 21  1  0  0  0  0
 21 23  2  0  0  0  0
 21 22  1  0  0  0  0
 23 24  1  0  0  0  0
 25 23  1  0  0  0  0
 26 25  2  0  0  0  0
 27 26  1  0  0  0  0
 27 20  2  0  0  0  0
M  END
>  <minimizedAffinity>
-5.20742559

$$$$

 OpenBabel03272510183D

 27 29  0  0  0  0  0  0  0  0999 V2000
   37.6250   26.6740   31.1000 Br  0  0  0  0  0  0  0  0  0  0  0  0
   36.7910   27.8460   32.3630 C   0  0  0  0  0  0  0  0  0  0  0  0
   37.0760   27.7500   33.7150 C   0  0  0  0  0  0  0  0  0  0  0  0
   36.4290   28.6350   34.5620 C   0  0  0  0  0  0  0  0  0  0  0  0
   35.5380   29.5840   34.1240 C   0  0  0  0  0  0  0  0  0  0  0  0
   35.2800   29.6500   32.7790 C   0  0  0  0  0  0  0  0  0  0  0  0
   35.9090   28.7820   31.9140 C   0  0  0  0  0  0  0  0  0  0  0  0
   36.6780   28.5290   35.6120 H   0  0  0  0  0  0  0  0  0  0  0  0
   34.5820   30.3880   32.4120 H   0  0  0  0  0  0  0  0  0  0  0  0
   35.6730   28.8710   30.8480 H   0  0  0  0  0  0  0  0  0  0  0  0
   40.2060   26.2420   34.7950 C   0  0  0  0  0  0  0  0  0  0  0  0
   39.8580   24.9210   35.1500 C   0  0  0  0  0  0  0  0  0  0  0  0
   38.5160   24.5650   35.0050 C   0  0  0  0  0  0  0  0  0  0  0  0
   37.6350   25.4950   34.5400 N   0  0  0  0  0  0  0  0  0  0  0  0
   38.0160   26.7560   34.2120 C   0  0  0  0  0  0  0  0  0  0  0  0
   39.3140   27.1310   34.3420 N   0  0  0  0  0  0  0  0  0  0  0  0
   41.2620   26.5190   34.9110 H   0  0  0  0  0  0  0  0  0  0  0  0
   40.6270   24.2480   35.5120 H   0  0  0  0  0  0  0  0  0  0  0  0
   38.2180   23.5780   35.2630 H   0  0  0  0  0  0  0  0  0  0  0  0
   34.9290   30.4520   35.1190 C   0  0  0  0  0  0  0  0  0  0  0  0
   35.6310   31.3750   35.8670 C   0  0  0  0  0  0  0  0  0  0  0  0
   36.6790   31.4770   35.7260 H   0  0  0  0  0  0  0  0  0  0  0  0
   35.0320   32.1920   36.8090 C   0  0  0  0  0  0  0  0  0  0  0  0
   35.6340   32.8940   37.3610 H   0  0  0  0  0  0  0  0  0  0  0  0
   33.6640   32.0520   36.9890 C   0  0  0  0  0  3  0  0  0  0  0  0
   32.9630   31.1240   36.2380 C   0  0  0  0  0  3  0  0  0  0  0  0
   33.6170   30.3630   35.3370 N   0  0  0  0  0  0  0  0  0  0  0  0
  1  2  1  0  0  0  0
  2  3  1  0  0  0  0
  3 15  1  0  0  0  0
  3  4  2  0  0  0  0
  4  8  1  0  0  0  0
  5  4  1  0  0  0  0
  5 20  1  0  0  0  0
  6  5  2  0  0  0  0
  7  2  2  0  0  0  0
  7  6  1  0  0  0  0
  9  6  1  0  0  0  0
 10  7  1  0  0  0  0
 11 17  1  0  0  0  0
 11 12  1  0  0  0  0
 12 18  1  0  0  0  0
 13 12  2  0  0  0  0
 13 19  1  0  0  0  0
 14 13  1  0  0  0  0
 15 16  1  0  0  0  0
 15 14  2  0  0  0  0
 16 11  2  0  0  0  0
 20 27  2  0  0  0  0
 20 21  1  0  0  0  0
 21 23  2  0  0  0  0
 22 21  1  0  0  0  0
 23 25  1  0  0  0  0
 23 24  1  0  0  0  0
 26 25  2  0  0  0  0
 27 26  1  0  0  0  0
M  END
>  <minimizedAffinity>
-5.19983244

$$$$

 OpenBabel03272510183D

 27 29  0  0  0  0  0  0  0  0999 V2000
   36.6030   27.7840   31.7840 Br  0  0  0  0  0  0  0  0  0  0  0  0
   36.4150   25.8800   31.8320 C   0  0  0  0  0  0  0  0  0  0  0  0
   37.2840   25.1000   32.5760 C   0  0  0  0  0  0  0  0  0  0  0  0
   37.0790   23.7290   32.5570 C   0  0  0  0  0  0  0  0  0  0  0  0
   36.0700   23.1280   31.8460 C   0  0  0  0  0  0  0  0  0  0  0  0
   35.2290   23.9320   31.1200 C   0  0  0  0  0  0  0  0  0  0  0  0
   35.4100   25.2970   31.1220 C   0  0  0  0  0  0  0  0  0  0  0  0
   37.7800   23.1530   33.1510 H   0  0  0  0  0  0  0  0  0  0  0  0
   34.4270   23.4800   30.5530 H   0  0  0  0  0  0  0  0  0  0  0  0
   34.7140   25.9000   30.5290 H   0  0  0  0  0  0  0  0  0  0  0  0
   40.5990   26.3390   33.4230 C   0  0  0  0  0  0  0  0  0  0  0  0
   40.4630   26.8420   34.7350 C   0  0  0  0  0  0  0  0  0  0  0  0
   39.1990   26.7410   35.3180 C   0  0  0  0  0  0  0  0  0  0  0  0
   38.1870   26.1760   34.6020 N   0  0  0  0  0  0  0  0  0  0  0  0
   38.3640   25.7050   33.3410 C   0  0  0  0  0  0  0  0  0  0  0  0
   39.5830   25.7890   32.7480 N   0  0  0  0  0  0  0  0  0  0  0  0
   41.5940   26.4200   32.9670 H   0  0  0  0  0  0  0  0  0  0  0  0
   41.3250   27.2770   35.2290 H   0  0  0  0  0  0  0  0  0  0  0  0
   39.0600   27.1100   36.3050 H   0  0  0  0  0  0  0  0  0  0  0  0
   35.9650   21.6790   31.9120 C   0  0  0  0  0  0  0  0  0  0  0  0
   35.5390   20.9890   33.0290 C   0  0  0  0  0  0  0  0  0  0  0  0
   35.2670   21.5250   33.9040 H   0  0  0  0  0  0  0  0  0  0  0  0
   35.4470   19.6090   33.0700 C   0  0  0  0  0  0  0  0  0  0  0  0
   35.1070   19.1290   33.9720 H   0  0  0  0  0  0  0  0  0  0  0  0
   35.8060   18.9160   31.9240 C   0  0  0  0  0  3  0  0  0  0  0  0
   36.2330   19.6120   30.8060 C   0  0  0  0  0  3  0  0  0  0  0  0
   36.2960   20.9590   30.8410 N   0  0  0  0  0  0  0  0  0  0  0  0
  1  2  1  0  0  0  0
  2  3  1  0  0  0  0
  3 15  1  0  0  0  0
  4  3  2  0  0  0  0
  4  8  1  0  0  0  0
  5 20  1  0  0  0  0
  5  4  1  0  0  0  0
  6  7  1  0  0  0  0
  6  5  2  0  0  0  0
  7  2  2  0  0  0  0
  9  6  1  0  0  0  0
 10  7  1  0  0  0  0
 11 12  1  0  0  0  0
 12 18  1  0  0  0  0
 12 13  2  0  0  0  0
 13 19  1  0  0  0  0
 14 13  1  0  0  0  0
 15 14  2  0  0  0  0
 16 15  1  0  0  0  0
 16 11  2  0  0  0  0
 17 11  1  0  0  0  0
 20 21  1  0  0  0  0
 21 23  2  0  0  0  0
 21 22  1  0  0  0  0
 23 24  1  0  0  0  0
 25 23  1  0  0  0  0
 26 27  1  0  0  0  0
 26 25  2  0  0  0  0
 27 20  2  0  0  0  0
M  END
>  <minimizedAffinity>
-5.19225121

$$$$

 OpenBabel03272510183D

 27 29  0  0  0  0  0  0  0  0999 V2000
   39.3490   26.5630   34.9550 Br  0  0  0  0  0  0  0  0  0  0  0  0
   38.6670   25.0600   33.9860 C   0  0  0  0  0  0  0  0  0  0  0  0
   38.3490   23.8810   34.6380 C   0  0  0  0  0  0  0  0  0  0  0  0
   37.8610   22.8400   33.8630 C   0  0  0  0  0  0  0  0  0  0  0  0
   37.6840   22.9310   32.5040 C   0  0  0  0  0  0  0  0  0  0  0  0
   38.0110   24.1140   31.8920 C   0  0  0  0  0  0  0  0  0  0  0  0
   38.4980   25.1640   32.6380 C   0  0  0  0  0  0  0  0  0  0  0  0
   37.6230   21.9350   34.4100 H   0  0  0  0  0  0  0  0  0  0  0  0
   37.8800   24.2080   30.8230 H   0  0  0  0  0  0  0  0  0  0  0  0
   38.7440   26.0900   32.1080 H   0  0  0  0  0  0  0  0  0  0  0  0
   39.8420   22.9980   37.8370 C   0  0  0  0  0  0  0  0  0  0  0  0
   38.9220   23.4690   38.7970 C   0  0  0  0  0  0  0  0  0  0  0  0
   37.7740   24.0970   38.3130 C   0  0  0  0  0  0  0  0  0  0  0  0
   37.6100   24.2190   36.9660 N   0  0  0  0  0  0  0  0  0  0  0  0
   38.5230   23.7510   36.0770 C   0  0  0  0  0  0  0  0  0  0  0  0
   39.6500   23.1350   36.5190 N   0  0  0  0  0  0  0  0  0  0  0  0
   40.7450   22.5050   38.2210 H   0  0  0  0  0  0  0  0  0  0  0  0
   39.1360   23.3270   39.8510 H   0  0  0  0  0  0  0  0  0  0  0  0
   37.0590   24.4630   39.0080 H   0  0  0  0  0  0  0  0  0  0  0  0
   37.1640   21.7650   31.8090 C   0  0  0  0  0  0  0  0  0  0  0  0
   35.9490   21.1780   32.0970 C   0  0  0  0  0  0  0  0  0  0  0  0
   35.3390   21.5820   32.8660 H   0  0  0  0  0  0  0  0  0  0  0  0
   35.4720   20.0670   31.4230 C   0  0  0  0  0  0  0  0  0  0  0  0
   34.5150   19.6540   31.6940 H   0  0  0  0  0  0  0  0  0  0  0  0
   36.2740   19.5430   30.4200 C   0  0  0  0  0  3  0  0  0  0  0  0
   37.4930   20.1350   30.1350 C   0  0  0  0  0  3  0  0  0  0  0  0
   37.8900   21.2170   30.8350 N   0  0  0  0  0  0  0  0  0  0  0  0
  2  3  1  0  0  0  0
  2  1  1  0  0  0  0
  3 15  1  0  0  0  0
  4  8  1  0  0  0  0
  4  3  2  0  0  0  0
  5  4  1  0  0  0  0
  6  5  2  0  0  0  0
  6  7  1  0  0  0  0
  7  2  2  0  0  0  0
  9  6  1  0  0  0  0
 10  7  1  0  0  0  0
 11 17  1  0  0  0  0
 11 12  1  0  0  0  0
 12 18  1  0  0  0  0
 13 12  2  0  0  0  0
 13 19  1  0  0  0  0
 14 13  1  0  0  0  0
 15 16  1  0  0  0  0
 15 14  2  0  0  0  0
 16 11  2  0  0  0  0
 20 21  1  0  0  0  0
 20  5  1  0  0  0  0
 21 22  1  0  0  0  0
 23 24  1  0  0  0  0
 23 21  2  0  0  0  0
 25 23  1  0  0  0  0
 26 25  2  0  0  0  0
 26 27  1  0  0  0  0
 27 20  2  0  0  0  0
M  END
>  <minimizedAffinity>
-4.99219608

$$$$

 OpenBabel03272510183D

 27 29  0  0  0  0  0  0  0  0999 V2000
   39.1810   27.3540   30.5940 Br  0  0  0  0  0  0  0  0  0  0  0  0
   38.3220   25.6610   30.8350 C   0  0  0  0  0  0  0  0  0  0  0  0
   37.2130   25.5390   31.6550 C   0  0  0  0  0  0  0  0  0  0  0  0
   36.6500   24.2780   31.7760 C   0  0  0  0  0  0  0  0  0  0  0  0
   37.1390   23.1700   31.1280 C   0  0  0  0  0  0  0  0  0  0  0  0
   38.2390   23.3280   30.3250 C   0  0  0  0  0  0  0  0  0  0  0  0
   38.8180   24.5700   30.1870 C   0  0  0  0  0  0  0  0  0  0  0  0
   35.7840   24.2240   32.4260 H   0  0  0  0  0  0  0  0  0  0  0  0
   38.6400   22.4700   29.8060 H   0  0  0  0  0  0  0  0  0  0  0  0
   39.6940   24.6500   29.5350 H   0  0  0  0  0  0  0  0  0  0  0  0
   35.2250   28.5140   32.3180 C   0  0  0  0  0  0  0  0  0  0  0  0
   35.5950   28.9020   33.6230 C   0  0  0  0  0  0  0  0  0  0  0  0
   36.5490   28.1120   34.2660 C   0  0  0  0  0  0  0  0  0  0  0  0
   37.0570   27.0300   33.6120 N   0  0  0  0  0  0  0  0  0  0  0  0
   36.6700   26.6940   32.3550 C   0  0  0  0  0  0  0  0  0  0  0  0
   35.7450   27.4440   31.7040 N   0  0  0  0  0  0  0  0  0  0  0  0
   34.4740   29.1370   31.8140 H   0  0  0  0  0  0  0  0  0  0  0  0
   35.1370   29.7800   34.0660 H   0  0  0  0  0  0  0  0  0  0  0  0
   36.8520   28.3750   35.2500 H   0  0  0  0  0  0  0  0  0  0  0  0
   36.4540   21.9050   31.3410 C   0  0  0  0  0  0  0  0  0  0  0  0
   35.3260   21.7630   32.1230 C   0  0  0  0  0  0  0  0  0  0  0  0
   34.9140   22.6130   32.6080 H   0  0  0  0  0  0  0  0  0  0  0  0
   34.6900   20.5490   32.3120 C   0  0  0  0  0  0  0  0  0  0  0  0
   33.8120   20.5030   32.9340 H   0  0  0  0  0  0  0  0  0  0  0  0
   35.2350   19.4430   31.6770 C   0  0  0  0  0  3  0  0  0  0  0  0
   36.3680   19.5900   30.8940 C   0  0  0  0  0  3  0  0  0  0  0  0
   36.9320   20.8060   30.7550 N   0  0  0  0  0  0  0  0  0  0  0  0
  1  2  1  0  0  0  0
  2  3  1  0  0  0  0
  3  4  2  0  0  0  0
  3 15  1  0  0  0  0
  4  8  1  0  0  0  0
  5 20  1  0  0  0  0
  5  4  1  0  0  0  0
  6  5  2  0  0  0  0
  7  6  1  0  0  0  0
  7  2  2  0  0  0  0
  9  6  1  0  0  0  0
 10  7  1  0  0  0  0
 11 12  1  0  0  0  0
 12 18  1  0  0  0  0
 12 13  2  0  0  0  0
 13 19  1  0  0  0  0
 14 13  1  0  0  0  0
 15 14  2  0  0  0  0
 16 11  2  0  0  0  0
 16 15  1  0  0  0  0
 17 11  1  0  0  0  0
 20 21  1  0  0  0  0
 21 23  2  0  0  0  0
 21 22  1  0  0  0  0
 23 24  1  0  0  0  0
 25 23  1  0  0  0  0
 26 25  2  0  0  0  0
 27 26  1  0  0  0  0
 27 20  2  0  0  0  0
M  END
>  <minimizedAffinity>
-4.93197727

$$$$

 OpenBabel03272510183D

 27 29  0  0  0  0  0  0  0  0999 V2000
   35.6110   33.2800   32.8010 Br  0  0  0  0  0  0  0  0  0  0  0  0
   35.8210   31.3870   32.6120 C   0  0  0  0  0  0  0  0  0  0  0  0
   35.3760   30.5220   33.5970 C   0  0  0  0  0  0  0  0  0  0  0  0
   35.5670   29.1660   33.3830 C   0  0  0  0  0  0  0  0  0  0  0  0
   36.1670   28.6580   32.2560 C   0  0  0  0  0  0  0  0  0  0  0  0
   36.5960   29.5440   31.3020 C   0  0  0  0  0  0  0  0  0  0  0  0
   36.4190   30.8970   31.4900 C   0  0  0  0  0  0  0  0  0  0  0  0
   35.2050   28.5210   34.1760 H   0  0  0  0  0  0  0  0  0  0  0  0
   37.0710   29.1670   30.4080 H   0  0  0  0  0  0  0  0  0  0  0  0
   36.7760   31.5680   30.7010 H   0  0  0  0  0  0  0  0  0  0  0  0
   34.9870   31.9440   36.9240 C   0  0  0  0  0  0  0  0  0  0  0  0
   33.5910   31.9990   37.1220 C   0  0  0  0  0  0  0  0  0  0  0  0
   32.7890   31.5330   36.0790 C   0  0  0  0  0  0  0  0  0  0  0  0
   33.3870   31.0610   34.9500 N   0  0  0  0  0  0  0  0  0  0  0  0
   34.7360   31.0270   34.8030 C   0  0  0  0  0  0  0  0  0  0  0  0
   35.5420   31.4730   35.8000 N   0  0  0  0  0  0  0  0  0  0  0  0
   35.6150   32.3110   37.7460 H   0  0  0  0  0  0  0  0  0  0  0  0
   33.2020   32.3920   38.0560 H   0  0  0  0  0  0  0  0  0  0  0  0
   31.7330   31.5600   36.1950 H   0  0  0  0  0  0  0  0  0  0  0  0
   36.3050   27.2140   32.1550 C   0  0  0  0  0  0  0  0  0  0  0  0
   37.1440   26.4650   32.9540 C   0  0  0  0  0  0  0  0  0  0  0  0
   37.7330   26.9470   33.6940 H   0  0  0  0  0  0  0  0  0  0  0  0
   37.2610   25.0910   32.8410 C   0  0  0  0  0  0  0  0  0  0  0  0
   37.9340   24.5610   33.4950 H   0  0  0  0  0  0  0  0  0  0  0  0
   36.4900   24.4670   31.8710 C   0  0  0  0  0  3  0  0  0  0  0  0
   35.6500   25.2230   31.0710 C   0  0  0  0  0  3  0  0  0  0  0  0
   35.5890   26.5590   31.2410 N   0  0  0  0  0  0  0  0  0  0  0  0
  2  1  1  0  0  0  0
  2  3  1  0  0  0  0
  3 15  1  0  0  0  0
  4  3  2  0  0  0  0
  4  8  1  0  0  0  0
  5  4  1  0  0  0  0
  6  7  1  0  0  0  0
  6  5  2  0  0  0  0
  7  2  2  0  0  0  0
  9  6  1  0  0  0  0
 10  7  1  0  0  0  0
 11 12  1  0  0  0  0
 11 17  1  0  0  0  0
 12 18  1  0  0  0  0
 13 19  1  0  0  0  0
 13 12  2  0  0  0  0
 14 13  1  0  0  0  0
 15 14  2  0  0  0  0
 15 16  1  0  0  0  0
 16 11  2  0  0  0  0
 20  5  1  0  0  0  0
 20 21  1  0  0  0  0
 21 22  1  0  0  0  0
 23 21  2  0  0  0  0
 23 24  1  0  0  0  0
 25 23  1  0  0  0  0
 26 27  1  0  0  0  0
 26 25  2  0  0  0  0
 27 20  2  0  0  0  0
M  END
>  <minimizedAffinity>
-4.88117313

$$$$

 OpenBabel03272510183D

 27 29  0  0  0  0  0  0  0  0999 V2000
   36.9060   28.4130   31.4800 Br  0  0  0  0  0  0  0  0  0  0  0  0
   36.6690   26.5140   31.5410 C   0  0  0  0  0  0  0  0  0  0  0  0
   37.6320   25.6970   32.1090 C   0  0  0  0  0  0  0  0  0  0  0  0
   37.3840   24.3340   32.1120 C   0  0  0  0  0  0  0  0  0  0  0  0
   36.2460   23.7740   31.5860 C   0  0  0  0  0  0  0  0  0  0  0  0
   35.3150   24.6130   31.0300 C   0  0  0  0  0  0  0  0  0  0  0  0
   35.5360   25.9720   31.0140 C   0  0  0  0  0  0  0  0  0  0  0  0
   38.1600   23.7280   32.5670 H   0  0  0  0  0  0  0  0  0  0  0  0
   34.4120   24.1940   30.6090 H   0  0  0  0  0  0  0  0  0  0  0  0
   34.7660   26.6050   30.5600 H   0  0  0  0  0  0  0  0  0  0  0  0
   40.0630   26.7910   34.5860 C   0  0  0  0  0  0  0  0  0  0  0  0
   41.1320   27.3110   33.8260 C   0  0  0  0  0  0  0  0  0  0  0  0
   40.9910   27.2750   32.4380 C   0  0  0  0  0  0  0  0  0  0  0  0
   39.8530   26.7490   31.9050 N   0  0  0  0  0  0  0  0  0  0  0  0
   38.8490   26.2590   32.6770 C   0  0  0  0  0  0  0  0  0  0  0  0
   38.9580   26.2820   34.0300 N   0  0  0  0  0  0  0  0  0  0  0  0
   40.1770   26.8210   35.6780 H   0  0  0  0  0  0  0  0  0  0  0  0
   42.0020   27.7110   34.3360 H   0  0  0  0  0  0  0  0  0  0  0  0
   41.7770   27.6580   31.8330 H   0  0  0  0  0  0  0  0  0  0  0  0
   36.1090   22.3280   31.6540 C   0  0  0  0  0  0  0  0  0  0  0  0
   37.0450   21.4430   31.1590 C   0  0  0  0  0  0  0  0  0  0  0  0
   37.9250   21.8140   30.6970 H   0  0  0  0  0  0  0  0  0  0  0  0
   36.8940   20.0690   31.2340 C   0  0  0  0  0  0  0  0  0  0  0  0
   37.6610   19.4300   30.8290 H   0  0  0  0  0  0  0  0  0  0  0  0
   35.7410   19.5910   31.8370 C   0  0  0  0  0  3  0  0  0  0  0  0
   34.8040   20.4820   32.3320 C   0  0  0  0  0  3  0  0  0  0  0  0
   35.0210   21.8080   32.2230 N   0  0  0  0  0  0  0  0  0  0  0  0
  1  2  1  0  0  0  0
  2  3  1  0  0  0  0
  3  4  2  0  0  0  0
  3 15  1  0  0  0  0
  4  8  1  0  0  0  0
  5 20  1  0  0  0  0
  5  4  1  0  0  0  0
  6  5  2  0  0  0  0
  7  6  1  0  0  0  0
  7  2  2  0  0  0  0
  9  6  1  0  0  0  0
 10  7  1  0  0  0  0
 11 17  1  0  0  0  0
 12 18  1  0  0  0  0
 12 11  2  0  0  0  0
 13 12  1  0  0  0  0
 14 13  2  0  0  0  0
 14 15  1  0  0  0  0
 15 16  2  0  0  0  0
 16 11  1  0  0  0  0
 19 13  1  0  0  0  0
 20 27  1  0  0  0  0
 21 23  1  0  0  0  0
 21 20  2  0  0  0  0
 22 21  1  0  0  0  0
 23 25  2  0  0  0  0
 24 23  1  0  0  0  0
 25 26  1  0  0  0  0
 27 26  2  0  0  0  0
M  END
>  <minimizedAffinity>
-4.85305595

$$$$

 OpenBabel03272510183D

 27 29  0  0  0  0  0  0  0  0999 V2000
   39.4180   26.7520   30.9280 Br  0  0  0  0  0  0  0  0  0  0  0  0
   38.5450   25.0830   31.2670 C   0  0  0  0  0  0  0  0  0  0  0  0
   37.9950   24.8090   32.5090 C   0  0  0  0  0  0  0  0  0  0  0  0
   37.3820   23.5780   32.6720 C   0  0  0  0  0  0  0  0  0  0  0  0
   37.2980   22.6390   31.6740 C   0  0  0  0  0  0  0  0  0  0  0  0
   37.8550   22.9430   30.4580 C   0  0  0  0  0  0  0  0  0  0  0  0
   38.4700   24.1600   30.2680 C   0  0  0  0  0  0  0  0  0  0  0  0
   36.9640   23.4010   33.6570 H   0  0  0  0  0  0  0  0  0  0  0  0
   37.8010   22.2190   29.6570 H   0  0  0  0  0  0  0  0  0  0  0  0
   38.9000   24.3610   29.2800 H   0  0  0  0  0  0  0  0  0  0  0  0
   39.2770   26.6590   35.3690 C   0  0  0  0  0  0  0  0  0  0  0  0
   38.2690   27.6020   35.6590 C   0  0  0  0  0  0  0  0  0  0  0  0
   37.1360   27.5830   34.8430 C   0  0  0  0  0  0  0  0  0  0  0  0
   37.0700   26.6730   33.8310 N   0  0  0  0  0  0  0  0  0  0  0  0
   38.0660   25.7830   33.5880 C   0  0  0  0  0  0  0  0  0  0  0  0
   39.1790   25.7770   34.3660 N   0  0  0  0  0  0  0  0  0  0  0  0
   40.1660   26.6760   36.0120 H   0  0  0  0  0  0  0  0  0  0  0  0
   38.4070   28.2910   36.4860 H   0  0  0  0  0  0  0  0  0  0  0  0
   36.3570   28.2810   35.0320 H   0  0  0  0  0  0  0  0  0  0  0  0
   36.6270   21.3850   31.9770 C   0  0  0  0  0  0  0  0  0  0  0  0
   36.1030   21.0730   33.2150 C   0  0  0  0  0  0  0  0  0  0  0  0
   36.1820   21.7730   34.0090 H   0  0  0  0  0  0  0  0  0  0  0  0
   35.4670   19.8740   33.4820 C   0  0  0  0  0  0  0  0  0  0  0  0
   35.0780   19.6900   34.4690 H   0  0  0  0  0  0  0  0  0  0  0  0
   35.3690   18.9640   32.4400 C   0  0  0  0  0  3  0  0  0  0  0  0
   35.8960   19.2800   31.1990 C   0  0  0  0  0  3  0  0  0  0  0  0
   36.5010   20.4710   31.0140 N   0  0  0  0  0  0  0  0  0  0  0  0
  1  2  1  0  0  0  0
  2  3  1  0  0  0  0
  3  4  2  0  0  0  0
  3 15  1  0  0  0  0
  4  8  1  0  0  0  0
  5 20  1  0  0  0  0
  5  4  1  0  0  0  0
  6  5  2  0  0  0  0
  7  6  1  0  0  0  0
  7  2  2  0  0  0  0
  9  6  1  0  0  0  0
 10  7  1  0  0  0  0
 11 12  1  0  0  0  0
 11 17  1  0  0  0  0
 12 18  1  0  0  0  0
 13 19  1  0  0  0  0
 13 12  2  0  0  0  0
 14 13  1  0  0  0  0
 15 14  2  0  0  0  0
 15 16  1  0  0  0  0
 16 11  2  0  0  0  0
 20 21  1  0  0  0  0
 21 23  2  0  0  0  0
 21 22  1  0  0  0  0
 23 24  1  0  0  0  0
 25 23  1  0  0  0  0
 26 25  2  0  0  0  0
 27 26  1  0  0  0  0
 27 20  2  0  0  0  0
M  END
>  <minimizedAffinity>
-4.80981255

$$$$
