
 OpenBabel03272510173D

 27 29  0  0  0  0  0  0  0  0999 V2000
   37.3490   29.3630   51.0620 Br  0  0  0  0  0  0  0  0  0  0  0  0
   35.9850   29.3670   49.7190 C   0  0  0  0  0  0  0  0  0  0  0  0
   36.0050   30.2950   48.6910 C   0  0  0  0  0  0  0  0  0  0  0  0
   34.9810   30.2300   47.7600 C   0  0  0  0  0  0  0  0  0  0  0  0
   33.9700   29.3020   47.8150 C   0  0  0  0  0  0  0  0  0  0  0  0
   33.9820   28.4000   48.8470 C   0  0  0  0  0  0  0  0  0  0  0  0
   34.9880   28.4420   49.7870 C   0  0  0  0  0  0  0  0  0  0  0  0
   35.0320   30.9720   46.9710 H   0  0  0  0  0  0  0  0  0  0  0  0
   33.1960   27.6600   48.9100 H   0  0  0  0  0  0  0  0  0  0  0  0
   34.9580   27.7010   50.5930 H   0  0  0  0  0  0  0  0  0  0  0  0
   38.0130   33.2290   49.4660 C   0  0  0  0  0  0  0  0  0  0  0  0
   39.0390   33.2200   48.4980 C   0  0  0  0  0  0  0  0  0  0  0  0
   39.0190   32.1770   47.5700 C   0  0  0  0  0  0  0  0  0  0  0  0
   38.0300   31.2430   47.6520 N   0  0  0  0  0  0  0  0  0  0  0  0
   37.0620   31.2910   48.6040 C   0  0  0  0  0  0  0  0  0  0  0  0
   37.0560   32.2950   49.5180 N   0  0  0  0  0  0  0  0  0  0  0  0
   38.0320   34.0510   50.1940 H   0  0  0  0  0  0  0  0  0  0  0  0
   39.7860   34.0060   48.5090 H   0  0  0  0  0  0  0  0  0  0  0  0
   39.7760   32.1390   46.8260 H   0  0  0  0  0  0  0  0  0  0  0  0
   32.9560   29.3430   46.7730 C   0  0  0  0  0  0  0  0  0  0  0  0
   33.0050   30.1880   45.6850 C   0  0  0  0  0  0  0  0  0  0  0  0
   33.8210   30.8600   45.5780 H   0  0  0  0  0  0  0  0  0  0  0  0
   32.0280   30.2110   44.7040 C   0  0  0  0  0  0  0  0  0  0  0  0
   32.1240   30.8950   43.8790 H   0  0  0  0  0  0  0  0  0  0  0  0
   30.9660   29.3330   44.8510 C   0  0  0  0  0  3  0  0  0  0  0  0
   30.9190   28.4850   45.9440 C   0  0  0  0  0  3  0  0  0  0  0  0
   31.9100   28.5210   46.8590 N   0  0  0  0  0  0  0  0  0  0  0  0
  2  7  1  0  0  0  0
  2  1  1  0  0  0  0
  3  2  2  0  0  0  0
  4  5  2  0  0  0  0
  4  3  1  0  0  0  0
  5  6  1  0  0  0  0
  6  9  1  0  0  0  0
  6  7  2  0  0  0  0
  7 10  1  0  0  0  0
  8  4  1  0  0  0  0
 11 16  1  0  0  0  0
 11 17  1  0  0  0  0
 12 18  1  0  0  0  0
 12 11  2  0  0  0  0
 13 14  2  0  0  0  0
 13 12  1  0  0  0  0
 14 15  1  0  0  0  0
 15  3  1  0  0  0  0
 15 16  2  0  0  0  0
 19 13  1  0  0  0  0
 20 27  1  0  0  0  0
 20  5  1  0  0  0  0
 21 20  2  0  0  0  0
 22 21  1  0  0  0  0
 23 25  2  0  0  0  0
 23 21  1  0  0  0  0
 24 23  1  0  0  0  0
 25 26  1  0  0  0  0
 26 27  2  0  0  0  0
M  END
>  <minimizedAffinity>
-5.88677168

>  <minimizedRMSD>
0.295823246

$$$$
