
 OpenBabel03272510163D

 27 29  0  0  0  0  0  0  0  0999 V2000
   37.3340   29.3110   51.0290 Br  0  0  0  0  0  0  0  0  0  0  0  0
   35.9640   29.3270   49.6930 C   0  0  0  0  0  0  0  0  0  0  0  0
   35.9820   30.2610   48.6700 C   0  0  0  0  0  0  0  0  0  0  0  0
   34.9530   30.2050   47.7440 C   0  0  0  0  0  0  0  0  0  0  0  0
   33.9390   29.2800   47.7990 C   0  0  0  0  0  0  0  0  0  0  0  0
   33.9520   28.3720   48.8260 C   0  0  0  0  0  0  0  0  0  0  0  0
   34.9640   28.4050   49.7600 C   0  0  0  0  0  0  0  0  0  0  0  0
   35.0020   30.9510   46.9590 H   0  0  0  0  0  0  0  0  0  0  0  0
   33.1640   27.6350   48.8890 H   0  0  0  0  0  0  0  0  0  0  0  0
   34.9350   27.6600   50.5630 H   0  0  0  0  0  0  0  0  0  0  0  0
   37.9960   33.1910   49.4430 C   0  0  0  0  0  0  0  0  0  0  0  0
   39.0240   33.1770   48.4770 C   0  0  0  0  0  0  0  0  0  0  0  0
   39.0030   32.1310   47.5530 C   0  0  0  0  0  0  0  0  0  0  0  0
   38.0120   31.2010   47.6340 N   0  0  0  0  0  0  0  0  0  0  0  0
   37.0420   31.2540   48.5830 C   0  0  0  0  0  0  0  0  0  0  0  0
   37.0360   32.2600   49.4950 N   0  0  0  0  0  0  0  0  0  0  0  0
   38.0150   34.0140   50.1690 H   0  0  0  0  0  0  0  0  0  0  0  0
   39.7740   33.9610   48.4880 H   0  0  0  0  0  0  0  0  0  0  0  0
   39.7630   32.0890   46.8110 H   0  0  0  0  0  0  0  0  0  0  0  0
   32.9200   29.3300   46.7630 C   0  0  0  0  0  0  0  0  0  0  0  0
   31.8820   28.4250   46.6590 C   0  0  0  0  0  0  0  0  0  0  0  0
   31.8020   27.6360   47.3670 H   0  0  0  0  0  0  0  0  0  0  0  0
   30.9230   28.4910   45.6650 C   0  0  0  0  0  0  0  0  0  0  0  0
   30.1380   27.7540   45.6390 H   0  0  0  0  0  0  0  0  0  0  0  0
   31.0340   29.5220   44.7460 C   0  0  0  0  0  3  0  0  0  0  0  0
   32.0750   30.4290   44.8530 C   0  0  0  0  0  3  0  0  0  0  0  0
   32.9740   30.3000   45.8500 N   0  0  0  0  0  0  0  0  0  0  0  0
  2  7  1  0  0  0  0
  2  1  1  0  0  0  0
  3  2  2  0  0  0  0
  4  5  2  0  0  0  0
  4  3  1  0  0  0  0
  5  6  1  0  0  0  0
  6  9  1  0  0  0  0
  6  7  2  0  0  0  0
  7 10  1  0  0  0  0
  8  4  1  0  0  0  0
 11 16  1  0  0  0  0
 11 17  1  0  0  0  0
 12 18  1  0  0  0  0
 12 11  2  0  0  0  0
 13 14  2  0  0  0  0
 13 12  1  0  0  0  0
 14 15  1  0  0  0  0
 15  3  1  0  0  0  0
 15 16  2  0  0  0  0
 19 13  1  0  0  0  0
 20  5  1  0  0  0  0
 21 20  1  0  0  0  0
 21 22  1  0  0  0  0
 23 21  2  0  0  0  0
 24 23  1  0  0  0  0
 25 26  2  0  0  0  0
 25 23  1  0  0  0  0
 26 27  1  0  0  0  0
 27 20  2  0  0  0  0
M  END
>  <minimizedAffinity>
-5.86873293

>  <minimizedRMSD>
0.606233299

$$$$
