
 OpenBabel03262520523D

 47 51  0  0  1  0  0  0  0  0999 V2000
   34.5650   31.6240   34.1930 C   0  0  0  0  0  0  0  0  0  0  0  0
   34.4620   32.5520   33.5800 H   0  0  0  0  0  0  0  0  0  0  0  0
   33.5880   31.2060   34.5090 H   0  0  0  0  0  0  0  0  0  0  0  0
   35.8850   29.5330   34.1140 C   0  0  0  0  0  0  0  0  0  0  0  0
   35.2830   30.5610   33.4160 C   0  0  0  0  0  0  0  0  0  0  0  0
   35.3500   30.5850   32.0270 C   0  0  0  0  0  0  0  0  0  0  0  0
   36.0200   29.5870   31.3360 C   0  0  0  0  0  0  0  0  0  0  0  0
   36.2340   29.4100   30.0290 N   0  0  0  0  0  0  0  0  0  0  0  0
   36.9590   28.2970   29.8960 C   0  0  0  0  0  0  0  0  0  0  0  0
   37.2270   27.7330   31.1060 C   0  0  0  0  0  0  0  0  0  0  0  0
   36.6210   28.5630   32.0390 C   0  0  0  0  0  0  0  0  0  0  0  0
   36.5540   28.5300   33.4180 C   0  0  0  0  0  0  0  0  0  0  0  0
   35.8580   29.4510   35.1890 H   0  0  0  0  0  0  0  0  0  0  0  0
   34.8870   31.3740   31.4770 H   0  0  0  0  0  0  0  0  0  0  0  0
   35.8820   30.0450   29.2890 H   0  0  0  0  0  0  0  0  0  0  0  0
   37.2770   27.9160   28.9340 H   0  0  0  0  0  0  0  0  0  0  0  0
   37.8070   26.8500   31.2380 H   0  0  0  0  0  0  0  0  0  0  0  0
   37.1720   27.5090   34.2460 C   0  0  0  0  0  0  0  0  0  0  0  0
   37.8420   27.6130   35.4320 C   0  0  0  0  0  0  0  0  0  0  0  0
   37.9590   28.5800   35.8770 H   0  0  0  0  0  0  0  0  0  0  0  0
   38.4420   26.5960   36.1220 C   0  0  0  0  0  0  0  0  0  0  0  0
   38.9520   26.7690   37.0570 H   0  0  0  0  0  0  0  0  0  0  0  0
   38.3960   25.3220   35.6110 C   0  0  0  0  0  3  0  0  0  0  0  0
   37.7300   25.2080   34.4230 C   0  0  0  0  0  3  0  0  0  0  0  0
   37.1680   26.2430   33.8090 N   0  0  0  0  0  0  0  0  0  0  0  0
   35.3780   31.8920   35.4520 C   0  0  0  0  0  0  0  0  0  0  0  0
   36.2230   31.1780   35.4450 H   0  0  0  0  0  0  0  0  0  0  0  0
   35.7670   32.9260   35.3460 H   0  0  0  0  0  0  0  0  0  0  0  0
   33.1310   31.5870   36.5650 C   0  0  1  0  0  0  0  0  0  0  0  0
   33.7010   32.8330   37.2150 C   0  0  0  0  0  0  0  0  0  0  0  0
   34.5970   31.7770   36.7110 C   0  0  2  0  0  0  0  0  0  0  0  0
   32.6940   31.7430   35.5580 H   0  0  0  0  0  0  0  0  0  0  0  0
   33.6850   33.7860   36.6420 H   0  0  0  0  0  0  0  0  0  0  0  0
   33.6360   32.9680   38.3130 H   0  0  0  0  0  0  0  0  0  0  0  0
   35.0490   31.1000   37.4850 H   0  0  0  0  0  0  0  0  0  0  0  0
   32.3510   30.6980   37.4710 C   0  0  0  0  0  0  0  0  0  0  0  0
   31.5730   31.2950   38.0040 H   0  0  0  0  0  0  0  0  0  0  0  0
   33.0420   30.3430   38.2750 H   0  0  0  0  0  0  0  0  0  0  0  0
   31.0470   28.5220   34.7230 C   0  0  0  0  0  0  0  0  0  0  0  0
   31.5910   29.6430   35.4170 C   0  0  0  0  0  0  0  0  0  0  0  0
   31.7910   29.5340   36.7710 C   0  0  0  0  0  0  0  0  0  0  0  0
   31.4650   28.3860   37.3610 N   0  0  0  0  0  0  0  0  0  0  0  0
   30.9550   27.3310   36.7150 C   0  0  0  0  0  0  0  0  0  0  0  0
   30.7520   27.4220   35.3900 N   0  0  0  0  0  0  0  0  0  0  0  0
   30.9220   28.6990   33.6510 H   0  0  0  0  0  0  0  0  0  0  0  0
   31.8400   30.5580   34.8930 H   0  0  0  0  0  0  0  0  0  0  0  0
   30.6990   26.4090   37.2210 H   0  0  0  0  0  0  0  0  0  0  0  0
  1  3  1  0  0  0  0
  1 26  1  0  0  0  0
  2  1  1  0  0  0  0
  4 13  1  0  0  0  0
  5  4  2  0  0  0  0
  5  1  1  0  0  0  0
  6  5  1  0  0  0  0
  7  6  2  0  0  0  0
  7 11  1  0  0  0  0
  8  7  1  0  0  0  0
  9  8  1  0  0  0  0
  9 10  2  0  0  0  0
 10 17  1  0  0  0  0
 10 11  1  0  0  0  0
 11 12  2  0  0  0  0
 12  4  1  0  0  0  0
 12 18  1  0  0  0  0
 14  6  1  0  0  0  0
 15  8  1  0  0  0  0
 16  9  1  0  0  0  0
 18 19  1  0  0  0  0
 19 20  1  0  0  0  0
 19 21  2  0  0  0  0
 21 22  1  0  0  0  0
 23 21  1  0  0  0  0
 24 23  2  0  0  0  0
 25 18  2  0  0  0  0
 25 24  1  0  0  0  0
 26 31  1  0  0  0  0
 27 26  1  0  0  0  0
 28 26  1  0  0  0  0
 29 32  1  6  0  0  0
 29 31  1  0  0  0  0
 29 30  1  0  0  0  0
 29 36  1  0  0  0  0
 30 34  1  0  0  0  0
 31 30  1  0  0  0  0
 31 35  1  1  0  0  0
 33 30  1  0  0  0  0
 36 37  1  0  0  0  0
 36 38  1  0  0  0  0
 39 44  2  0  0  0  0
 39 40  1  0  0  0  0
 40 41  2  0  0  0  0
 41 42  1  0  0  0  0
 41 36  1  0  0  0  0
 43 47  1  0  0  0  0
 43 42  2  0  0  0  0
 44 43  1  0  0  0  0
 45 39  1  0  0  0  0
 46 40  1  0  0  0  0
M  END
>  <minimizedAffinity>
-6.43740845

$$$$

 OpenBabel03262520523D

 47 51  0  0  1  0  0  0  0  0999 V2000
   37.4590   26.0700   34.1390 C   0  0  0  0  0  0  0  0  0  0  0  0
   36.6760   25.2800   34.0380 H   0  0  0  0  0  0  0  0  0  0  0  0
   38.4040   25.8090   33.6210 H   0  0  0  0  0  0  0  0  0  0  0  0
   36.3830   28.2800   34.4170 C   0  0  0  0  0  0  0  0  0  0  0  0
   36.9700   27.3670   33.5650 C   0  0  0  0  0  0  0  0  0  0  0  0
   37.0980   27.6660   32.2130 C   0  0  0  0  0  0  0  0  0  0  0  0
   36.6390   28.8740   31.7120 C   0  0  0  0  0  0  0  0  0  0  0  0
   36.6320   29.3690   30.4700 N   0  0  0  0  0  0  0  0  0  0  0  0
   36.0500   30.5690   30.5290 C   0  0  0  0  0  0  0  0  0  0  0  0
   35.6710   30.8750   31.8000 C   0  0  0  0  0  0  0  0  0  0  0  0
   36.0510   29.7830   32.5680 C   0  0  0  0  0  0  0  0  0  0  0  0
   35.9240   29.4940   33.9120 C   0  0  0  0  0  0  0  0  0  0  0  0
   36.2650   28.1120   35.4760 H   0  0  0  0  0  0  0  0  0  0  0  0
   37.5520   26.9680   31.5450 H   0  0  0  0  0  0  0  0  0  0  0  0
   37.0180   28.8770   29.6440 H   0  0  0  0  0  0  0  0  0  0  0  0
   35.9110   31.1960   29.6570 H   0  0  0  0  0  0  0  0  0  0  0  0
   35.1700   31.7740   32.0750 H   0  0  0  0  0  0  0  0  0  0  0  0
   35.3020   30.3730   34.8870 C   0  0  0  0  0  0  0  0  0  0  0  0
   35.8530   31.3030   35.7230 C   0  0  0  0  0  0  0  0  0  0  0  0
   36.9120   31.4580   35.6980 H   0  0  0  0  0  0  0  0  0  0  0  0
   35.1920   32.0550   36.6550 C   0  0  0  0  0  0  0  0  0  0  0  0
   35.7090   32.7700   37.2760 H   0  0  0  0  0  0  0  0  0  0  0  0
   33.8360   31.8950   36.8060 C   0  0  0  0  0  3  0  0  0  0  0  0
   33.2770   30.9650   35.9760 C   0  0  0  0  0  3  0  0  0  0  0  0
   33.9820   30.2710   35.0900 N   0  0  0  0  0  0  0  0  0  0  0  0
   37.7930   26.3190   35.6030 C   0  0  0  0  0  0  0  0  0  0  0  0
   38.4780   27.1880   35.6310 H   0  0  0  0  0  0  0  0  0  0  0  0
   36.8340   26.5900   36.0900 H   0  0  0  0  0  0  0  0  0  0  0  0
   37.4840   24.0110   36.5790 C   0  0  1  0  0  0  0  0  0  0  0  0
   38.1230   24.8050   37.7010 C   0  0  0  0  0  0  0  0  0  0  0  0
   38.3940   25.1490   36.2940 C   0  0  2  0  0  0  0  0  0  0  0  0
   36.3950   24.1820   36.4470 H   0  0  0  0  0  0  0  0  0  0  0  0
   37.4920   25.5190   38.2750 H   0  0  0  0  0  0  0  0  0  0  0  0
   38.9540   24.3670   38.2900 H   0  0  0  0  0  0  0  0  0  0  0  0
   39.3870   24.8200   35.8860 H   0  0  0  0  0  0  0  0  0  0  0  0
   37.9270   22.5930   36.4720 C   0  0  0  0  0  0  0  0  0  0  0  0
   37.7190   22.0600   37.4310 H   0  0  0  0  0  0  0  0  0  0  0  0
   39.0410   22.5910   36.3790 H   0  0  0  0  0  0  0  0  0  0  0  0
   35.6460   20.4780   34.3950 C   0  0  0  0  0  0  0  0  0  0  0  0
   36.2210   21.1490   35.5140 C   0  0  0  0  0  0  0  0  0  0  0  0
   37.3470   21.9080   35.3080 C   0  0  0  0  0  0  0  0  0  0  0  0
   37.8380   21.9760   34.0730 N   0  0  0  0  0  0  0  0  0  0  0  0
   37.3030   21.3490   33.0190 C   0  0  0  0  0  0  0  0  0  0  0  0
   36.2020   20.6010   33.2040 N   0  0  0  0  0  0  0  0  0  0  0  0
   34.7550   19.8980   34.6520 H   0  0  0  0  0  0  0  0  0  0  0  0
   35.7840   21.0630   36.5020 H   0  0  0  0  0  0  0  0  0  0  0  0
   37.7240   21.4220   32.0240 H   0  0  0  0  0  0  0  0  0  0  0  0
  1 26  1  0  0  0  0
  2  1  1  0  0  0  0
  3  1  1  0  0  0  0
  4 13  1  0  0  0  0
  5  1  1  0  0  0  0
  5  4  2  0  0  0  0
  6  5  1  0  0  0  0
  7  6  2  0  0  0  0
  7 11  1  0  0  0  0
  8  9  1  0  0  0  0
  8  7  1  0  0  0  0
  9 10  2  0  0  0  0
 10 17  1  0  0  0  0
 10 11  1  0  0  0  0
 11 12  2  0  0  0  0
 12  4  1  0  0  0  0
 12 18  1  0  0  0  0
 14  6  1  0  0  0  0
 15  8  1  0  0  0  0
 16  9  1  0  0  0  0
 18 25  2  0  0  0  0
 18 19  1  0  0  0  0
 19 21  2  0  0  0  0
 20 19  1  0  0  0  0
 21 23  1  0  0  0  0
 21 22  1  0  0  0  0
 24 23  2  0  0  0  0
 25 24  1  0  0  0  0
 26 27  1  0  0  0  0
 26 28  1  0  0  0  0
 26 31  1  0  0  0  0
 29 32  1  6  0  0  0
 29 30  1  0  0  0  0
 30 33  1  0  0  0  0
 30 34  1  0  0  0  0
 31 35  1  6  0  0  0
 31 29  1  0  0  0  0
 31 30  1  0  0  0  0
 36 29  1  0  0  0  0
 36 37  1  0  0  0  0
 38 36  1  0  0  0  0
 39 45  1  0  0  0  0
 39 40  1  0  0  0  0
 40 46  1  0  0  0  0
 41 40  2  0  0  0  0
 41 36  1  0  0  0  0
 42 41  1  0  0  0  0
 43 44  1  0  0  0  0
 43 42  2  0  0  0  0
 44 39  2  0  0  0  0
 47 43  1  0  0  0  0
M  END
>  <minimizedAffinity>
-6.29640484

$$$$

 OpenBabel03262520523D

 47 51  0  0  1  0  0  0  0  0999 V2000
   38.4880   25.4400   35.0120 C   0  0  0  0  0  0  0  0  0  0  0  0
   38.3080   24.3900   34.6780 H   0  0  0  0  0  0  0  0  0  0  0  0
   39.5660   25.6960   35.0660 H   0  0  0  0  0  0  0  0  0  0  0  0
   37.0860   27.4360   34.6010 C   0  0  0  0  0  0  0  0  0  0  0  0
   37.8390   26.4080   34.0690 C   0  0  0  0  0  0  0  0  0  0  0  0
   37.9800   26.2970   32.6900 C   0  0  0  0  0  0  0  0  0  0  0  0
   37.3690   27.2090   31.8430 C   0  0  0  0  0  0  0  0  0  0  0  0
   37.3430   27.2950   30.5090 N   0  0  0  0  0  0  0  0  0  0  0  0
   36.5880   28.3510   30.1980 C   0  0  0  0  0  0  0  0  0  0  0  0
   36.1130   28.9680   31.3150 C   0  0  0  0  0  0  0  0  0  0  0  0
   36.6170   28.2340   32.3800 C   0  0  0  0  0  0  0  0  0  0  0  0
   36.4760   28.3520   33.7490 C   0  0  0  0  0  0  0  0  0  0  0  0
   36.9480   27.5830   35.6600 H   0  0  0  0  0  0  0  0  0  0  0  0
   38.5610   25.5070   32.2680 H   0  0  0  0  0  0  0  0  0  0  0  0
   37.8340   26.6400   29.8740 H   0  0  0  0  0  0  0  0  0  0  0  0
   36.3970   28.6530   29.1760 H   0  0  0  0  0  0  0  0  0  0  0  0
   35.4740   29.8190   31.3020 H   0  0  0  0  0  0  0  0  0  0  0  0
   35.6890   29.3800   34.4080 C   0  0  0  0  0  0  0  0  0  0  0  0
   36.0810   30.4720   35.1310 C   0  0  0  0  0  0  0  0  0  0  0  0
   37.1270   30.6560   35.2630 H   0  0  0  0  0  0  0  0  0  0  0  0
   35.2630   31.3650   35.7660 C   0  0  0  0  0  0  0  0  0  0  0  0
   35.6600   32.2040   36.3170 H   0  0  0  0  0  0  0  0  0  0  0  0
   33.9030   31.1900   35.7030 C   0  0  0  0  0  3  0  0  0  0  0  0
   33.5010   30.1000   34.9850 C   0  0  0  0  0  3  0  0  0  0  0  0
   34.3530   29.2730   34.3910 N   0  0  0  0  0  0  0  0  0  0  0  0
   37.8910   25.6810   36.3920 C   0  0  0  0  0  0  0  0  0  0  0  0
   38.3370   26.6190   36.7740 H   0  0  0  0  0  0  0  0  0  0  0  0
   36.8030   25.8290   36.2290 H   0  0  0  0  0  0  0  0  0  0  0  0
   38.9870   23.4600   36.8860 C   0  0  1  0  0  0  0  0  0  0  0  0
   37.5200   23.2230   37.1820 C   0  0  0  0  0  0  0  0  0  0  0  0
   38.1080   24.5640   37.3480 C   0  0  2  0  0  0  0  0  0  0  0  0
   39.2560   23.4370   35.8100 H   0  0  0  0  0  0  0  0  0  0  0  0
   36.8190   23.0890   36.3280 H   0  0  0  0  0  0  0  0  0  0  0  0
   37.2170   22.6800   38.1000 H   0  0  0  0  0  0  0  0  0  0  0  0
   38.3250   24.8820   38.4020 H   0  0  0  0  0  0  0  0  0  0  0  0
   39.9390   22.7680   37.7990 C   0  0  0  0  0  0  0  0  0  0  0  0
   39.3720   22.1420   38.5290 H   0  0  0  0  0  0  0  0  0  0  0  0
   40.4420   23.5490   38.4210 H   0  0  0  0  0  0  0  0  0  0  0  0
   42.0250   21.4440   34.9910 C   0  0  0  0  0  0  0  0  0  0  0  0
   41.0400   22.1800   35.7120 C   0  0  0  0  0  0  0  0  0  0  0  0
   40.9610   22.0020   37.0710 C   0  0  0  0  0  0  0  0  0  0  0  0
   41.8110   21.1510   37.6410 N   0  0  0  0  0  0  0  0  0  0  0  0
   42.7370   20.4570   36.9690 C   0  0  0  0  0  0  0  0  0  0  0  0
   42.8270   20.6200   35.6390 N   0  0  0  0  0  0  0  0  0  0  0  0
   42.0150   21.6490   33.9160 H   0  0  0  0  0  0  0  0  0  0  0  0
   40.3680   22.8630   35.2040 H   0  0  0  0  0  0  0  0  0  0  0  0
   43.4170   19.7710   37.4590 H   0  0  0  0  0  0  0  0  0  0  0  0
  1  3  1  0  0  0  0
  1 26  1  0  0  0  0
  2  1  1  0  0  0  0
  4 13  1  0  0  0  0
  5  4  1  0  0  0  0
  5  1  1  0  0  0  0
  6  5  2  0  0  0  0
  7 11  2  0  0  0  0
  7  6  1  0  0  0  0
  8  7  1  0  0  0  0
  9  8  1  0  0  0  0
  9 10  2  0  0  0  0
 10 11  1  0  0  0  0
 11 12  1  0  0  0  0
 12 18  1  0  0  0  0
 12  4  2  0  0  0  0
 14  6  1  0  0  0  0
 15  8  1  0  0  0  0
 16  9  1  0  0  0  0
 17 10  1  0  0  0  0
 18 19  1  0  0  0  0
 19 20  1  0  0  0  0
 19 21  2  0  0  0  0
 21 22  1  0  0  0  0
 23 21  1  0  0  0  0
 24 23  2  0  0  0  0
 25 18  2  0  0  0  0
 25 24  1  0  0  0  0
 26 27  1  0  0  0  0
 26 31  1  0  0  0  0
 28 26  1  0  0  0  0
 29 32  1  6  0  0  0
 29 30  1  0  0  0  0
 29 31  1  0  0  0  0
 29 36  1  0  0  0  0
 30 31  1  0  0  0  0
 30 34  1  0  0  0  0
 31 35  1  1  0  0  0
 33 30  1  0  0  0  0
 36 38  1  0  0  0  0
 36 37  1  0  0  0  0
 39 44  2  0  0  0  0
 39 40  1  0  0  0  0
 40 41  2  0  0  0  0
 41 42  1  0  0  0  0
 41 36  1  0  0  0  0
 43 47  1  0  0  0  0
 43 42  2  0  0  0  0
 44 43  1  0  0  0  0
 45 39  1  0  0  0  0
 46 40  1  0  0  0  0
M  END
>  <minimizedAffinity>
-6.25606871

$$$$

 OpenBabel03262520523D

 47 51  0  0  1  0  0  0  0  0999 V2000
   37.1310   26.9110   33.0970 C   0  0  0  0  0  0  0  0  0  0  0  0
   36.6080   26.3970   33.9390 H   0  0  0  0  0  0  0  0  0  0  0  0
   37.0750   26.3460   32.1450 H   0  0  0  0  0  0  0  0  0  0  0  0
   35.9770   28.9350   33.9280 C   0  0  0  0  0  0  0  0  0  0  0  0
   36.5310   28.2650   32.8560 C   0  0  0  0  0  0  0  0  0  0  0  0
   36.5250   28.8510   31.5960 C   0  0  0  0  0  0  0  0  0  0  0  0
   35.9640   30.1050   31.4050 C   0  0  0  0  0  0  0  0  0  0  0  0
   35.8240   30.8500   30.3040 N   0  0  0  0  0  0  0  0  0  0  0  0
   35.1910   31.9690   30.6660 C   0  0  0  0  0  0  0  0  0  0  0  0
   34.9110   31.9730   31.9980 C   0  0  0  0  0  0  0  0  0  0  0  0
   35.4100   30.7700   32.4800 C   0  0  0  0  0  0  0  0  0  0  0  0
   35.4160   30.1950   33.7350 C   0  0  0  0  0  0  0  0  0  0  0  0
   35.9610   28.5390   34.9310 H   0  0  0  0  0  0  0  0  0  0  0  0
   36.9520   28.3430   30.7610 H   0  0  0  0  0  0  0  0  0  0  0  0
   36.1600   30.5720   29.3650 H   0  0  0  0  0  0  0  0  0  0  0  0
   34.9450   32.7560   29.9630 H   0  0  0  0  0  0  0  0  0  0  0  0
   34.3930   32.7570   32.4980 H   0  0  0  0  0  0  0  0  0  0  0  0
   34.8400   30.8040   34.9210 C   0  0  0  0  0  0  0  0  0  0  0  0
   35.4010   31.6210   35.8610 C   0  0  0  0  0  0  0  0  0  0  0  0
   36.4300   31.8980   35.7580 H   0  0  0  0  0  0  0  0  0  0  0  0
   34.7930   32.1090   36.9850 C   0  0  0  0  0  0  0  0  0  0  0  0
   35.3140   32.7530   37.6770 H   0  0  0  0  0  0  0  0  0  0  0  0
   33.4860   31.7710   37.2400 C   0  0  0  0  0  3  0  0  0  0  0  0
   32.9170   30.9520   36.3060 C   0  0  0  0  0  3  0  0  0  0  0  0
   33.5690   30.5160   35.2350 N   0  0  0  0  0  0  0  0  0  0  0  0
   38.6050   27.1190   33.4190 C   0  0  0  0  0  0  0  0  0  0  0  0
   39.1810   26.5790   32.6440 H   0  0  0  0  0  0  0  0  0  0  0  0
   38.7850   28.2100   33.3200 H   0  0  0  0  0  0  0  0  0  0  0  0
   37.9380   26.0050   35.5860 C   0  0  1  0  0  0  0  0  0  0  0  0
   38.5420   27.3260   36.0190 C   0  0  0  0  0  0  0  0  0  0  0  0
   38.9960   26.6680   34.7800 C   0  0  2  0  0  0  0  0  0  0  0  0
   36.8960   26.0680   35.2110 H   0  0  0  0  0  0  0  0  0  0  0  0
   37.9390   28.2530   35.8970 H   0  0  0  0  0  0  0  0  0  0  0  0
   39.2530   27.3620   36.8690 H   0  0  0  0  0  0  0  0  0  0  0  0
   39.9820   26.1360   34.8350 H   0  0  0  0  0  0  0  0  0  0  0  0
   38.2290   24.8500   36.4810 C   0  0  0  0  0  0  0  0  0  0  0  0
   37.2790   24.4770   36.9330 H   0  0  0  0  0  0  0  0  0  0  0  0
   38.8280   25.2320   37.3430 H   0  0  0  0  0  0  0  0  0  0  0  0
   39.0670   22.0530   34.1440 C   0  0  0  0  0  0  0  0  0  0  0  0
   38.3460   23.0850   34.8120 C   0  0  0  0  0  0  0  0  0  0  0  0
   38.9870   23.7890   35.8020 C   0  0  0  0  0  0  0  0  0  0  0  0
   40.2470   23.4680   36.0830 N   0  0  0  0  0  0  0  0  0  0  0  0
   40.9290   22.4990   35.4600 C   0  0  0  0  0  0  0  0  0  0  0  0
   40.3170   21.8010   34.4890 N   0  0  0  0  0  0  0  0  0  0  0  0
   38.4800   21.5470   33.3720 H   0  0  0  0  0  0  0  0  0  0  0  0
   37.3190   23.3110   34.5480 H   0  0  0  0  0  0  0  0  0  0  0  0
   41.9550   22.2590   35.7090 H   0  0  0  0  0  0  0  0  0  0  0  0
  1 26  1  0  0  0  0
  1  2  1  0  0  0  0
  3  1  1  0  0  0  0
  4 13  1  0  0  0  0
  5  1  1  0  0  0  0
  5  4  2  0  0  0  0
  6  5  1  0  0  0  0
  7  6  2  0  0  0  0
  7 11  1  0  0  0  0
  8  9  1  0  0  0  0
  8  7  1  0  0  0  0
  9 10  2  0  0  0  0
 10 11  1  0  0  0  0
 10 17  1  0  0  0  0
 11 12  2  0  0  0  0
 12  4  1  0  0  0  0
 12 18  1  0  0  0  0
 14  6  1  0  0  0  0
 15  8  1  0  0  0  0
 16  9  1  0  0  0  0
 18 25  2  0  0  0  0
 18 19  1  0  0  0  0
 19 21  2  0  0  0  0
 20 19  1  0  0  0  0
 21 23  1  0  0  0  0
 21 22  1  0  0  0  0
 24 23  2  0  0  0  0
 25 24  1  0  0  0  0
 26 31  1  0  0  0  0
 27 26  1  0  0  0  0
 28 26  1  0  0  0  0
 29 32  1  6  0  0  0
 29 30  1  0  0  0  0
 29 36  1  0  0  0  0
 30 34  1  0  0  0  0
 31 35  1  1  0  0  0
 31 29  1  0  0  0  0
 31 30  1  0  0  0  0
 33 30  1  0  0  0  0
 36 37  1  0  0  0  0
 36 38  1  0  0  0  0
 39 44  2  0  0  0  0
 39 40  1  0  0  0  0
 40 41  2  0  0  0  0
 41 42  1  0  0  0  0
 41 36  1  0  0  0  0
 43 47  1  0  0  0  0
 43 42  2  0  0  0  0
 44 43  1  0  0  0  0
 45 39  1  0  0  0  0
 46 40  1  0  0  0  0
M  END
>  <minimizedAffinity>
-6.22967863

$$$$

 OpenBabel03262520523D

 47 51  0  0  1  0  0  0  0  0999 V2000
   42.4280   24.7830   33.3790 C   0  0  0  0  0  0  0  0  0  0  0  0
   42.3850   23.8450   32.7750 H   0  0  0  0  0  0  0  0  0  0  0  0
   42.9350   25.6140   32.8470 H   0  0  0  0  0  0  0  0  0  0  0  0
   39.9770   24.6740   33.0660 C   0  0  0  0  0  0  0  0  0  0  0  0
   41.0450   25.2450   33.7280 C   0  0  0  0  0  0  0  0  0  0  0  0
   40.8180   26.2200   34.6930 C   0  0  0  0  0  0  0  0  0  0  0  0
   39.5270   26.6260   34.9960 C   0  0  0  0  0  0  0  0  0  0  0  0
   39.0680   27.5420   35.8540 N   0  0  0  0  0  0  0  0  0  0  0  0
   37.7380   27.5570   35.7390 C   0  0  0  0  0  0  0  0  0  0  0  0
   37.3100   26.6570   34.8110 C   0  0  0  0  0  0  0  0  0  0  0  0
   38.4630   26.0520   34.3300 C   0  0  0  0  0  0  0  0  0  0  0  0
   38.6810   25.0810   33.3730 C   0  0  0  0  0  0  0  0  0  0  0  0
   40.0860   23.9060   32.3160 H   0  0  0  0  0  0  0  0  0  0  0  0
   41.6360   26.6670   35.2120 H   0  0  0  0  0  0  0  0  0  0  0  0
   39.6710   28.1120   36.4750 H   0  0  0  0  0  0  0  0  0  0  0  0
   37.1070   28.2140   36.3240 H   0  0  0  0  0  0  0  0  0  0  0  0
   36.2900   26.5140   34.5430 H   0  0  0  0  0  0  0  0  0  0  0  0
   37.6320   24.4340   32.6040 C   0  0  0  0  0  0  0  0  0  0  0  0
   36.6700   24.9660   31.7920 C   0  0  0  0  0  0  0  0  0  0  0  0
   36.6370   26.0270   31.6550 H   0  0  0  0  0  0  0  0  0  0  0  0
   35.6790   24.2800   31.1440 C   0  0  0  0  0  0  0  0  0  0  0  0
   34.9590   24.7830   30.5180 H   0  0  0  0  0  0  0  0  0  0  0  0
   35.5990   22.9180   31.2940 C   0  0  0  0  0  3  0  0  0  0  0  0
   36.5550   22.3770   32.1070 C   0  0  0  0  0  3  0  0  0  0  0  0
   37.4910   23.1060   32.7050 N   0  0  0  0  0  0  0  0  0  0  0  0
   43.1740   24.5540   34.6860 C   0  0  0  0  0  0  0  0  0  0  0  0
   44.2430   24.7570   34.4840 H   0  0  0  0  0  0  0  0  0  0  0  0
   42.7820   25.3140   35.3940 H   0  0  0  0  0  0  0  0  0  0  0  0
   42.3560   23.1220   36.5980 C   0  0  1  0  0  0  0  0  0  0  0  0
   43.7870   22.6690   36.3810 C   0  0  0  0  0  0  0  0  0  0  0  0
   42.9910   23.1950   35.2570 C   0  0  2  0  0  0  0  0  0  0  0  0
   42.2470   24.0690   37.1640 H   0  0  0  0  0  0  0  0  0  0  0  0
   44.6120   23.3160   36.7520 H   0  0  0  0  0  0  0  0  0  0  0  0
   44.0340   21.5880   36.3710 H   0  0  0  0  0  0  0  0  0  0  0  0
   42.5830   22.4340   34.5400 H   0  0  0  0  0  0  0  0  0  0  0  0
   41.3970   22.0420   36.9650 C   0  0  0  0  0  0  0  0  0  0  0  0
   41.7770   21.4890   37.8560 H   0  0  0  0  0  0  0  0  0  0  0  0
   41.3990   21.2910   36.1380 H   0  0  0  0  0  0  0  0  0  0  0  0
   37.8420   22.9560   36.2470 C   0  0  0  0  0  0  0  0  0  0  0  0
   39.1720   22.4720   36.0810 C   0  0  0  0  0  0  0  0  0  0  0  0
   40.0290   22.5460   37.1530 C   0  0  0  0  0  0  0  0  0  0  0  0
   39.5680   23.0660   38.2880 N   0  0  0  0  0  0  0  0  0  0  0  0
   38.3200   23.5220   38.4490 C   0  0  0  0  0  0  0  0  0  0  0  0
   37.4700   23.4580   37.4110 N   0  0  0  0  0  0  0  0  0  0  0  0
   37.2320   22.8580   35.3440 H   0  0  0  0  0  0  0  0  0  0  0  0
   39.5030   22.0560   35.1360 H   0  0  0  0  0  0  0  0  0  0  0  0
   37.9720   23.9400   39.3850 H   0  0  0  0  0  0  0  0  0  0  0  0
  1  5  1  0  0  0  0
  1 26  1  0  0  0  0
  2  1  1  0  0  0  0
  3  1  1  0  0  0  0
  4 12  2  0  0  0  0
  4  5  1  0  0  0  0
  5  6  2  0  0  0  0
  6  7  1  0  0  0  0
  6 14  1  0  0  0  0
  7  8  1  0  0  0  0
  8 15  1  0  0  0  0
  9  8  1  0  0  0  0
  9 16  1  0  0  0  0
 10  9  2  0  0  0  0
 11 10  1  0  0  0  0
 11  7  2  0  0  0  0
 12 11  1  0  0  0  0
 13  4  1  0  0  0  0
 17 10  1  0  0  0  0
 18 25  1  0  0  0  0
 18 12  1  0  0  0  0
 19 18  2  0  0  0  0
 20 19  1  0  0  0  0
 21 23  2  0  0  0  0
 21 19  1  0  0  0  0
 22 21  1  0  0  0  0
 23 24  1  0  0  0  0
 24 25  2  0  0  0  0
 26 31  1  0  0  0  0
 26 28  1  0  0  0  0
 27 26  1  0  0  0  0
 29 36  1  0  0  0  0
 29 32  1  1  0  0  0
 30 29  1  0  0  0  0
 30 33  1  0  0  0  0
 31 35  1  6  0  0  0
 31 30  1  0  0  0  0
 31 29  1  0  0  0  0
 34 30  1  0  0  0  0
 36 41  1  0  0  0  0
 36 37  1  0  0  0  0
 38 36  1  0  0  0  0
 39 44  1  0  0  0  0
 40 39  2  0  0  0  0
 40 41  1  0  0  0  0
 41 42  2  0  0  0  0
 42 43  1  0  0  0  0
 43 47  1  0  0  0  0
 44 43  2  0  0  0  0
 45 39  1  0  0  0  0
 46 40  1  0  0  0  0
M  END
>  <minimizedAffinity>
-6.1800108

$$$$

 OpenBabel03262520523D

 47 51  0  0  1  0  0  0  0  0999 V2000
   36.8500   26.7130   32.7460 C   0  0  0  0  0  0  0  0  0  0  0  0
   37.1760   26.5400   33.8000 H   0  0  0  0  0  0  0  0  0  0  0  0
   36.0020   26.0630   32.4460 H   0  0  0  0  0  0  0  0  0  0  0  0
   35.9370   28.8240   33.6550 C   0  0  0  0  0  0  0  0  0  0  0  0
   36.4170   28.1370   32.5590 C   0  0  0  0  0  0  0  0  0  0  0  0
   36.4930   28.7710   31.3240 C   0  0  0  0  0  0  0  0  0  0  0  0
   36.0870   30.0890   31.1820 C   0  0  0  0  0  0  0  0  0  0  0  0
   36.0460   30.8900   30.1130 N   0  0  0  0  0  0  0  0  0  0  0  0
   35.5480   32.0610   30.5180 C   0  0  0  0  0  0  0  0  0  0  0  0
   35.2580   32.0430   31.8470 C   0  0  0  0  0  0  0  0  0  0  0  0
   35.6060   30.7720   32.2820 C   0  0  0  0  0  0  0  0  0  0  0  0
   35.5320   30.1490   33.5120 C   0  0  0  0  0  0  0  0  0  0  0  0
   35.8650   28.3930   34.6410 H   0  0  0  0  0  0  0  0  0  0  0  0
   36.8640   28.2490   30.4700 H   0  0  0  0  0  0  0  0  0  0  0  0
   36.3560   30.6110   29.1640 H   0  0  0  0  0  0  0  0  0  0  0  0
   35.4050   32.8990   29.8480 H   0  0  0  0  0  0  0  0  0  0  0  0
   34.8330   32.8630   32.3770 H   0  0  0  0  0  0  0  0  0  0  0  0
   35.0220   30.7740   34.7190 C   0  0  0  0  0  0  0  0  0  0  0  0
   35.6540   31.5410   35.6580 C   0  0  0  0  0  0  0  0  0  0  0  0
   36.6950   31.7560   35.5340 H   0  0  0  0  0  0  0  0  0  0  0  0
   35.1030   32.0480   36.8020 C   0  0  0  0  0  0  0  0  0  0  0  0
   35.6780   32.6480   37.4900 H   0  0  0  0  0  0  0  0  0  0  0  0
   33.7840   31.7870   37.0830 C   0  0  0  0  0  3  0  0  0  0  0  0
   33.1440   31.0180   36.1520 C   0  0  0  0  0  3  0  0  0  0  0  0
   33.7440   30.5600   35.0590 N   0  0  0  0  0  0  0  0  0  0  0  0
   37.9920   26.4540   31.7730 C   0  0  0  0  0  0  0  0  0  0  0  0
   37.6980   25.5810   31.1600 H   0  0  0  0  0  0  0  0  0  0  0  0
   38.0500   27.3550   31.1280 H   0  0  0  0  0  0  0  0  0  0  0  0
   39.6090   27.0650   33.6150 C   0  0  1  0  0  0  0  0  0  0  0  0
   40.4350   27.1640   32.3470 C   0  0  0  0  0  0  0  0  0  0  0  0
   39.3040   26.2220   32.4300 C   0  0  2  0  0  0  0  0  0  0  0  0
   38.9450   27.9330   33.8080 H   0  0  0  0  0  0  0  0  0  0  0  0
   40.2970   28.0500   31.6890 H   0  0  0  0  0  0  0  0  0  0  0  0
   41.4570   26.7350   32.3130 H   0  0  0  0  0  0  0  0  0  0  0  0
   39.5700   25.1430   32.5840 H   0  0  0  0  0  0  0  0  0  0  0  0
   40.3310   26.5330   34.8040 C   0  0  0  0  0  0  0  0  0  0  0  0
   40.5180   27.3590   35.5310 H   0  0  0  0  0  0  0  0  0  0  0  0
   41.3470   26.2110   34.4680 H   0  0  0  0  0  0  0  0  0  0  0  0
   37.7430   24.5200   36.6040 C   0  0  0  0  0  0  0  0  0  0  0  0
   38.4250   25.6200   36.0070 C   0  0  0  0  0  0  0  0  0  0  0  0
   39.6420   25.3870   35.4140 C   0  0  0  0  0  0  0  0  0  0  0  0
   40.1170   24.1440   35.4300 N   0  0  0  0  0  0  0  0  0  0  0  0
   39.4820   23.1080   35.9890 C   0  0  0  0  0  0  0  0  0  0  0  0
   38.2910   23.3190   36.5730 N   0  0  0  0  0  0  0  0  0  0  0  0
   36.7850   24.7980   37.0510 H   0  0  0  0  0  0  0  0  0  0  0  0
   37.9970   26.6170   36.0190 H   0  0  0  0  0  0  0  0  0  0  0  0
   39.8930   22.1060   35.9870 H   0  0  0  0  0  0  0  0  0  0  0  0
  1  2  1  0  0  0  0
  3  1  1  0  0  0  0
  4 13  1  0  0  0  0
  5  1  1  0  0  0  0
  5  4  2  0  0  0  0
  6  5  1  0  0  0  0
  7  6  2  0  0  0  0
  7 11  1  0  0  0  0
  8  9  1  0  0  0  0
  8  7  1  0  0  0  0
  9 10  2  0  0  0  0
 10 11  1  0  0  0  0
 10 17  1  0  0  0  0
 11 12  2  0  0  0  0
 12  4  1  0  0  0  0
 12 18  1  0  0  0  0
 14  6  1  0  0  0  0
 15  8  1  0  0  0  0
 16  9  1  0  0  0  0
 18 25  2  0  0  0  0
 18 19  1  0  0  0  0
 19 21  2  0  0  0  0
 20 19  1  0  0  0  0
 21 23  1  0  0  0  0
 21 22  1  0  0  0  0
 24 23  2  0  0  0  0
 25 24  1  0  0  0  0
 26 31  1  0  0  0  0
 26  1  1  0  0  0  0
 27 26  1  0  0  0  0
 28 26  1  0  0  0  0
 29 32  1  1  0  0  0
 29 36  1  0  0  0  0
 30 31  1  0  0  0  0
 30 29  1  0  0  0  0
 31 35  1  1  0  0  0
 31 29  1  0  0  0  0
 33 30  1  0  0  0  0
 34 30  1  0  0  0  0
 36 41  1  0  0  0  0
 36 37  1  0  0  0  0
 38 36  1  0  0  0  0
 39 45  1  0  0  0  0
 40 46  1  0  0  0  0
 40 39  2  0  0  0  0
 41 42  2  0  0  0  0
 41 40  1  0  0  0  0
 42 43  1  0  0  0  0
 43 44  2  0  0  0  0
 44 39  1  0  0  0  0
 47 43  1  0  0  0  0
M  END
>  <minimizedAffinity>
-6.04983139

$$$$

 OpenBabel03262520523D

 47 51  0  0  1  0  0  0  0  0999 V2000
   37.4030   26.6550   34.2420 C   0  0  0  0  0  0  0  0  0  0  0  0
   38.1880   26.8870   35.0020 H   0  0  0  0  0  0  0  0  0  0  0  0
   36.5850   26.0240   34.6460 H   0  0  0  0  0  0  0  0  0  0  0  0
   36.1640   28.7610   34.6240 C   0  0  0  0  0  0  0  0  0  0  0  0
   36.7870   27.9200   33.7240 C   0  0  0  0  0  0  0  0  0  0  0  0
   36.8310   28.2600   32.3770 C   0  0  0  0  0  0  0  0  0  0  0  0
   36.2540   29.4380   31.9280 C   0  0  0  0  0  0  0  0  0  0  0  0
   36.1520   29.9600   30.7010 N   0  0  0  0  0  0  0  0  0  0  0  0
   35.4780   31.1060   30.8160 C   0  0  0  0  0  0  0  0  0  0  0  0
   35.1300   31.3500   32.1100 C   0  0  0  0  0  0  0  0  0  0  0  0
   35.6310   30.2750   32.8320 C   0  0  0  0  0  0  0  0  0  0  0  0
   35.5860   29.9440   34.1720 C   0  0  0  0  0  0  0  0  0  0  0  0
   36.1060   28.5590   35.6820 H   0  0  0  0  0  0  0  0  0  0  0  0
   37.3120   27.6180   31.6720 H   0  0  0  0  0  0  0  0  0  0  0  0
   36.5420   29.5210   29.8470 H   0  0  0  0  0  0  0  0  0  0  0  0
   35.2510   31.7400   29.9680 H   0  0  0  0  0  0  0  0  0  0  0  0
   34.5700   32.1970   32.4290 H   0  0  0  0  0  0  0  0  0  0  0  0
   34.9370   30.7460   35.1940 C   0  0  0  0  0  0  0  0  0  0  0  0
   35.4550   31.6630   36.0660 C   0  0  0  0  0  0  0  0  0  0  0  0
   36.5040   31.8710   36.0340 H   0  0  0  0  0  0  0  0  0  0  0  0
   34.7730   32.3370   37.0400 C   0  0  0  0  0  0  0  0  0  0  0  0
   35.2640   33.0480   37.6870 H   0  0  0  0  0  0  0  0  0  0  0  0
   33.4290   32.1040   37.2010 C   0  0  0  0  0  3  0  0  0  0  0  0
   32.9020   31.1870   36.3360 C   0  0  0  0  0  3  0  0  0  0  0  0
   33.6270   30.5690   35.4100 N   0  0  0  0  0  0  0  0  0  0  0  0
   38.0020   25.9200   33.0500 C   0  0  0  0  0  0  0  0  0  0  0  0
   37.5770   24.8980   33.0590 H   0  0  0  0  0  0  0  0  0  0  0  0
   37.6420   26.4620   32.1500 H   0  0  0  0  0  0  0  0  0  0  0  0
   40.1450   25.7620   34.3760 C   0  0  1  0  0  0  0  0  0  0  0  0
   40.3350   26.9910   33.5100 C   0  0  0  0  0  0  0  0  0  0  0  0
   39.4870   25.8770   33.0500 C   0  0  2  0  0  0  0  0  0  0  0  0
   39.5130   25.9170   35.2750 H   0  0  0  0  0  0  0  0  0  0  0  0
   39.8110   27.9300   33.7950 H   0  0  0  0  0  0  0  0  0  0  0  0
   41.2950   27.1560   32.9790 H   0  0  0  0  0  0  0  0  0  0  0  0
   39.9380   25.1970   32.2790 H   0  0  0  0  0  0  0  0  0  0  0  0
   41.3680   24.9380   34.5870 C   0  0  0  0  0  0  0  0  0  0  0  0
   42.2230   25.5990   34.8660 H   0  0  0  0  0  0  0  0  0  0  0  0
   41.6550   24.4980   33.6010 H   0  0  0  0  0  0  0  0  0  0  0  0
   42.0590   22.0540   36.8660 C   0  0  0  0  0  0  0  0  0  0  0  0
   42.2490   23.1110   35.9290 C   0  0  0  0  0  0  0  0  0  0  0  0
   41.1550   23.8520   35.5540 C   0  0  0  0  0  0  0  0  0  0  0  0
   39.9760   23.5390   36.0870 N   0  0  0  0  0  0  0  0  0  0  0  0
   39.7910   22.5480   36.9660 C   0  0  0  0  0  0  0  0  0  0  0  0
   40.8510   21.8140   37.3430 N   0  0  0  0  0  0  0  0  0  0  0  0
   42.9830   21.5200   37.1060 H   0  0  0  0  0  0  0  0  0  0  0  0
   43.2300   23.3280   35.5220 H   0  0  0  0  0  0  0  0  0  0  0  0
   38.8200   22.3160   37.3840 H   0  0  0  0  0  0  0  0  0  0  0  0
  1  3  1  0  0  0  0
  1  2  1  0  0  0  0
  4 13  1  0  0  0  0
  5  1  1  0  0  0  0
  5  4  2  0  0  0  0
  6  5  1  0  0  0  0
  7  6  2  0  0  0  0
  7 11  1  0  0  0  0
  8  9  1  0  0  0  0
  8  7  1  0  0  0  0
  9 10  2  0  0  0  0
 10 17  1  0  0  0  0
 10 11  1  0  0  0  0
 11 12  2  0  0  0  0
 12  4  1  0  0  0  0
 12 18  1  0  0  0  0
 14  6  1  0  0  0  0
 15  8  1  0  0  0  0
 16  9  1  0  0  0  0
 18 25  2  0  0  0  0
 18 19  1  0  0  0  0
 19 21  2  0  0  0  0
 20 19  1  0  0  0  0
 21 23  1  0  0  0  0
 21 22  1  0  0  0  0
 24 23  2  0  0  0  0
 25 24  1  0  0  0  0
 26 31  1  0  0  0  0
 26 27  1  0  0  0  0
 26  1  1  0  0  0  0
 28 26  1  0  0  0  0
 29 36  1  0  0  0  0
 29 32  1  1  0  0  0
 30 33  1  0  0  0  0
 30 29  1  0  0  0  0
 31 35  1  6  0  0  0
 31 30  1  0  0  0  0
 31 29  1  0  0  0  0
 34 30  1  0  0  0  0
 36 37  1  0  0  0  0
 36 41  1  0  0  0  0
 38 36  1  0  0  0  0
 39 45  1  0  0  0  0
 39 44  1  0  0  0  0
 40 39  2  0  0  0  0
 41 40  1  0  0  0  0
 41 42  2  0  0  0  0
 42 43  1  0  0  0  0
 43 44  2  0  0  0  0
 43 47  1  0  0  0  0
 46 40  1  0  0  0  0
M  END
>  <minimizedAffinity>
-5.95574331

$$$$

 OpenBabel03262520523D

 47 51  0  0  1  0  0  0  0  0999 V2000
   33.6410   30.5610   33.1160 C   0  0  0  0  0  0  0  0  0  0  0  0
   33.8380   31.0450   34.1030 H   0  0  0  0  0  0  0  0  0  0  0  0
   33.3740   31.2900   32.3240 H   0  0  0  0  0  0  0  0  0  0  0  0
   35.4860   28.9710   33.5440 C   0  0  0  0  0  0  0  0  0  0  0  0
   34.8520   29.8090   32.6500 C   0  0  0  0  0  0  0  0  0  0  0  0
   35.3390   29.9340   31.3540 C   0  0  0  0  0  0  0  0  0  0  0  0
   36.4610   29.2240   30.9520 C   0  0  0  0  0  0  0  0  0  0  0  0
   37.1160   29.1960   29.7870 N   0  0  0  0  0  0  0  0  0  0  0  0
   38.1470   28.3610   29.9370 C   0  0  0  0  0  0  0  0  0  0  0  0
   38.1810   27.8340   31.1920 C   0  0  0  0  0  0  0  0  0  0  0  0
   37.0920   28.3880   31.8500 C   0  0  0  0  0  0  0  0  0  0  0  0
   36.6110   28.2570   33.1380 C   0  0  0  0  0  0  0  0  0  0  0  0
   35.1510   28.8220   34.5590 H   0  0  0  0  0  0  0  0  0  0  0  0
   34.8560   30.5780   30.6540 H   0  0  0  0  0  0  0  0  0  0  0  0
   36.8390   29.7380   28.9490 H   0  0  0  0  0  0  0  0  0  0  0  0
   38.8500   28.1500   29.1410 H   0  0  0  0  0  0  0  0  0  0  0  0
   38.9290   27.1600   31.5370 H   0  0  0  0  0  0  0  0  0  0  0  0
   37.2160   27.4220   34.1600 C   0  0  0  0  0  0  0  0  0  0  0  0
   37.8280   27.7590   35.3350 C   0  0  0  0  0  0  0  0  0  0  0  0
   37.8980   28.7930   35.6040 H   0  0  0  0  0  0  0  0  0  0  0  0
   38.4230   26.9020   36.2200 C   0  0  0  0  0  0  0  0  0  0  0  0
   38.8840   27.2570   37.1290 H   0  0  0  0  0  0  0  0  0  0  0  0
   38.4350   25.5570   35.9440 C   0  0  0  0  0  3  0  0  0  0  0  0
   37.8280   25.2100   34.7700 C   0  0  0  0  0  3  0  0  0  0  0  0
   37.2670   26.0990   33.9580 N   0  0  0  0  0  0  0  0  0  0  0  0
   32.4970   29.5610   33.2200 C   0  0  0  0  0  0  0  0  0  0  0  0
   31.8520   29.7190   32.3350 H   0  0  0  0  0  0  0  0  0  0  0  0
   32.9680   28.5570   33.1590 H   0  0  0  0  0  0  0  0  0  0  0  0
   32.4800   29.6110   35.7450 C   0  0  1  0  0  0  0  0  0  0  0  0
   31.4700   28.5380   35.3890 C   0  0  0  0  0  0  0  0  0  0  0  0
   31.7110   29.6700   34.4760 C   0  0  2  0  0  0  0  0  0  0  0  0
   33.5400   29.2920   35.6850 H   0  0  0  0  0  0  0  0  0  0  0  0
   31.8430   27.5440   35.0570 H   0  0  0  0  0  0  0  0  0  0  0  0
   30.4910   28.4990   35.9080 H   0  0  0  0  0  0  0  0  0  0  0  0
   30.9330   30.4800   34.4750 H   0  0  0  0  0  0  0  0  0  0  0  0
   32.1280   30.4470   36.9270 C   0  0  0  0  0  0  0  0  0  0  0  0
   32.2500   29.8480   37.8610 H   0  0  0  0  0  0  0  0  0  0  0  0
   31.0350   30.6720   36.8700 H   0  0  0  0  0  0  0  0  0  0  0  0
   34.9690   32.8740   36.7600 C   0  0  0  0  0  0  0  0  0  0  0  0
   34.2280   31.6570   36.7270 C   0  0  0  0  0  0  0  0  0  0  0  0
   32.8760   31.7110   36.9640 C   0  0  0  0  0  0  0  0  0  0  0  0
   32.3320   32.9010   37.2110 N   0  0  0  0  0  0  0  0  0  0  0  0
   33.0220   34.0470   37.2430 C   0  0  0  0  0  0  0  0  0  0  0  0
   34.3450   34.0100   37.0140 N   0  0  0  0  0  0  0  0  0  0  0  0
   36.0350   32.7350   36.5600 H   0  0  0  0  0  0  0  0  0  0  0  0
   34.7160   30.7100   36.5220 H   0  0  0  0  0  0  0  0  0  0  0  0
   32.5530   35.0010   37.4470 H   0  0  0  0  0  0  0  0  0  0  0  0
  1 26  1  0  0  0  0
  1  2  1  0  0  0  0
  3  1  1  0  0  0  0
  4 13  1  0  0  0  0
  5  1  1  0  0  0  0
  5  4  2  0  0  0  0
  6  5  1  0  0  0  0
  7  6  2  0  0  0  0
  7 11  1  0  0  0  0
  8  9  1  0  0  0  0
  8  7  1  0  0  0  0
  9 10  2  0  0  0  0
 10 17  1  0  0  0  0
 10 11  1  0  0  0  0
 11 12  2  0  0  0  0
 12  4  1  0  0  0  0
 12 18  1  0  0  0  0
 14  6  1  0  0  0  0
 15  8  1  0  0  0  0
 16  9  1  0  0  0  0
 18 19  1  0  0  0  0
 19 20  1  0  0  0  0
 19 21  2  0  0  0  0
 21 22  1  0  0  0  0
 23 21  1  0  0  0  0
 24 23  2  0  0  0  0
 25 18  2  0  0  0  0
 25 24  1  0  0  0  0
 26 31  1  0  0  0  0
 27 26  1  0  0  0  0
 28 26  1  0  0  0  0
 29 32  1  6  0  0  0
 29 36  1  0  0  0  0
 30 29  1  0  0  0  0
 30 34  1  0  0  0  0
 31 35  1  6  0  0  0
 31 30  1  0  0  0  0
 31 29  1  0  0  0  0
 33 30  1  0  0  0  0
 36 41  1  0  0  0  0
 36 37  1  0  0  0  0
 38 36  1  0  0  0  0
 39 44  1  0  0  0  0
 40 39  2  0  0  0  0
 40 41  1  0  0  0  0
 41 42  2  0  0  0  0
 42 43  1  0  0  0  0
 43 47  1  0  0  0  0
 44 43  2  0  0  0  0
 45 39  1  0  0  0  0
 46 40  1  0  0  0  0
M  END
>  <minimizedAffinity>
-5.91907358

$$$$

 OpenBabel03262520523D

 47 51  0  0  1  0  0  0  0  0999 V2000
   36.6030   28.9590   34.9710 C   0  0  0  0  0  0  0  0  0  0  0  0
   36.3490   28.9100   36.0580 H   0  0  0  0  0  0  0  0  0  0  0  0
   37.4550   29.6370   34.7590 H   0  0  0  0  0  0  0  0  0  0  0  0
   37.4980   26.6830   35.3430 C   0  0  0  0  0  0  0  0  0  0  0  0
   36.9670   27.5980   34.4560 C   0  0  0  0  0  0  0  0  0  0  0  0
   36.7800   27.2430   33.1250 C   0  0  0  0  0  0  0  0  0  0  0  0
   37.1240   25.9770   32.6790 C   0  0  0  0  0  0  0  0  0  0  0  0
   37.0580   25.4200   31.4650 N   0  0  0  0  0  0  0  0  0  0  0  0
   37.5400   24.1800   31.5740 C   0  0  0  0  0  0  0  0  0  0  0  0
   37.9240   23.9080   32.8520 C   0  0  0  0  0  0  0  0  0  0  0  0
   37.6560   25.0660   33.5690 C   0  0  0  0  0  0  0  0  0  0  0  0
   37.8420   25.4110   34.8930 C   0  0  0  0  0  0  0  0  0  0  0  0
   37.6570   26.8940   36.3880 H   0  0  0  0  0  0  0  0  0  0  0  0
   36.3690   27.9420   32.4320 H   0  0  0  0  0  0  0  0  0  0  0  0
   36.6930   25.9010   30.6230 H   0  0  0  0  0  0  0  0  0  0  0  0
   37.6030   23.5000   30.7340 H   0  0  0  0  0  0  0  0  0  0  0  0
   38.3550   22.9850   33.1630 H   0  0  0  0  0  0  0  0  0  0  0  0
   38.4130   24.5330   35.8990 C   0  0  0  0  0  0  0  0  0  0  0  0
   37.9460   24.1720   37.1320 C   0  0  0  0  0  0  0  0  0  0  0  0
   37.0070   24.5640   37.4640 H   0  0  0  0  0  0  0  0  0  0  0  0
   38.5810   23.3740   38.0430 C   0  0  0  0  0  0  0  0  0  0  0  0
   38.1360   23.1390   38.9970 H   0  0  0  0  0  0  0  0  0  0  0  0
   39.8170   22.8610   37.7360 C   0  0  0  0  0  3  0  0  0  0  0  0
   40.2940   23.2180   36.5070 C   0  0  0  0  0  3  0  0  0  0  0  0
   39.6200   23.9980   35.6700 N   0  0  0  0  0  0  0  0  0  0  0  0
   35.4140   29.4500   34.1570 C   0  0  0  0  0  0  0  0  0  0  0  0
   35.8240   29.9120   33.2390 H   0  0  0  0  0  0  0  0  0  0  0  0
   34.8370   28.5410   33.8870 H   0  0  0  0  0  0  0  0  0  0  0  0
   33.1970   30.6520   34.2900 C   0  0  1  0  0  0  0  0  0  0  0  0
   34.2270   31.7600   34.3960 C   0  0  0  0  0  0  0  0  0  0  0  0
   34.5360   30.4030   34.8830 C   0  0  2  0  0  0  0  0  0  0  0  0
   33.0170   30.2790   33.2610 H   0  0  0  0  0  0  0  0  0  0  0  0
   34.7520   32.0880   33.4720 H   0  0  0  0  0  0  0  0  0  0  0  0
   34.1080   32.5610   35.1530 H   0  0  0  0  0  0  0  0  0  0  0  0
   34.4990   30.2570   35.9950 H   0  0  0  0  0  0  0  0  0  0  0  0
   31.9790   30.8350   35.1280 C   0  0  0  0  0  0  0  0  0  0  0  0
   31.1640   31.2850   34.5130 H   0  0  0  0  0  0  0  0  0  0  0  0
   32.2130   31.6060   35.9030 H   0  0  0  0  0  0  0  0  0  0  0  0
   30.6700   27.3690   35.6390 C   0  0  0  0  0  0  0  0  0  0  0  0
   31.0770   28.5800   35.0070 C   0  0  0  0  0  0  0  0  0  0  0  0
   31.5640   29.5930   35.7960 C   0  0  0  0  0  0  0  0  0  0  0  0
   31.6290   29.3870   37.1090 N   0  0  0  0  0  0  0  0  0  0  0  0
   31.2480   28.2530   37.7080 C   0  0  0  0  0  0  0  0  0  0  0  0
   30.7690   27.2520   36.9510 N   0  0  0  0  0  0  0  0  0  0  0  0
   30.2960   26.6200   34.9350 H   0  0  0  0  0  0  0  0  0  0  0  0
   31.0050   28.7020   33.9320 H   0  0  0  0  0  0  0  0  0  0  0  0
   31.3120   28.1130   38.7800 H   0  0  0  0  0  0  0  0  0  0  0  0
  1  2  1  0  0  0  0
  3  1  1  0  0  0  0
  4 13  1  0  0  0  0
  5  1  1  0  0  0  0
  5  4  2  0  0  0  0
  6  5  1  0  0  0  0
  7  6  2  0  0  0  0
  7 11  1  0  0  0  0
  8  9  1  0  0  0  0
  8  7  1  0  0  0  0
  9 10  2  0  0  0  0
 10 17  1  0  0  0  0
 10 11  1  0  0  0  0
 11 12  2  0  0  0  0
 12  4  1  0  0  0  0
 12 18  1  0  0  0  0
 14  6  1  0  0  0  0
 15  8  1  0  0  0  0
 16  9  1  0  0  0  0
 18 19  1  0  0  0  0
 19 20  1  0  0  0  0
 19 21  2  0  0  0  0
 21 22  1  0  0  0  0
 23 21  1  0  0  0  0
 24 23  2  0  0  0  0
 25 18  2  0  0  0  0
 25 24  1  0  0  0  0
 26 31  1  0  0  0  0
 26  1  1  0  0  0  0
 27 26  1  0  0  0  0
 28 26  1  0  0  0  0
 29 32  1  6  0  0  0
 29 30  1  0  0  0  0
 29 31  1  0  0  0  0
 29 36  1  0  0  0  0
 30 31  1  0  0  0  0
 30 34  1  0  0  0  0
 31 35  1  1  0  0  0
 33 30  1  0  0  0  0
 36 41  1  0  0  0  0
 36 38  1  0  0  0  0
 37 36  1  0  0  0  0
 39 44  1  0  0  0  0
 40 39  2  0  0  0  0
 40 41  1  0  0  0  0
 41 42  2  0  0  0  0
 42 43  1  0  0  0  0
 43 47  1  0  0  0  0
 44 43  2  0  0  0  0
 45 39  1  0  0  0  0
 46 40  1  0  0  0  0
M  END
>  <minimizedAffinity>
-5.88369179

$$$$
