
 OpenBabel03272505113D

 38 41  0  0  0  0  0  0  0  0999 V2000
   36.4140   30.9070   45.7240 Cl  0  0  0  0  0  0  0  0  0  0  0  0
   36.7000   30.7940   47.4390 C   0  0  0  0  0  0  0  0  0  0  0  0
   37.9640   31.1310   47.8910 C   0  0  0  0  0  0  0  0  0  0  0  0
   38.2060   31.0460   49.2480 C   0  0  0  0  0  0  0  0  0  0  0  0
   37.2060   30.6360   50.0950 C   0  0  0  0  0  0  0  0  0  0  0  0
   35.9560   30.3120   49.5690 C   0  0  0  0  0  0  0  0  0  0  0  0
   35.6480   30.3730   48.2390 C   0  0  0  0  0  0  0  0  0  0  0  0
   39.1960   31.3120   49.5880 H   0  0  0  0  0  0  0  0  0  0  0  0
   37.3860   30.5650   51.1680 H   0  0  0  0  0  0  0  0  0  0  0  0
   35.1890   29.9920   50.2710 H   0  0  0  0  0  0  0  0  0  0  0  0
   40.2320   33.3300   46.0760 C   0  0  0  0  0  0  0  0  0  0  0  0
   40.9370   32.4700   45.2120 C   0  0  0  0  0  0  0  0  0  0  0  0
   40.6120   31.1030   45.2680 C   0  0  0  0  0  0  0  0  0  0  0  0
   39.6480   30.6930   46.1420 N   0  0  0  0  0  0  0  0  0  0  0  0
   39.0070   31.5650   46.9440 C   0  0  0  0  0  0  0  0  0  0  0  0
   39.2960   32.8630   46.9100 N   0  0  0  0  0  0  0  0  0  0  0  0
   40.5000   34.3620   46.0110 H   0  0  0  0  0  0  0  0  0  0  0  0
   41.7000   32.7660   44.5160 H   0  0  0  0  0  0  0  0  0  0  0  0
   41.0710   30.3300   44.6660 H   0  0  0  0  0  0  0  0  0  0  0  0
   34.0790   29.9690   47.5520 S   0  0  0  0  0  0  0  0  0  0  0  0
   33.9010   29.2000   44.5110 Cl  0  0  0  0  0  0  0  0  0  0  0  0
   33.8830   27.9610   45.7600 C   0  0  0  0  0  0  0  0  0  0  0  0
   33.9570   28.2290   47.1270 C   0  0  0  0  0  0  0  0  0  0  0  0
   33.9330   27.1790   48.0270 C   0  0  0  0  0  0  0  0  0  0  0  0
   33.8370   25.8960   47.5880 C   0  0  0  0  0  0  0  0  0  0  0  0
   33.7620   25.5920   46.2410 C   0  0  0  0  0  0  0  0  0  0  0  0
   33.7860   26.6340   45.3590 C   0  0  0  0  0  0  0  0  0  0  0  0
   33.9980   27.5320   49.0540 H   0  0  0  0  0  0  0  0  0  0  0  0
   33.8250   25.1380   48.3610 H   0  0  0  0  0  0  0  0  0  0  0  0
   33.6900   24.5550   46.0140 H   0  0  0  0  0  0  0  0  0  0  0  0
   33.7090   26.3600   43.9290 C   0  0  0  0  0  0  0  0  0  0  0  0
   34.8100   26.1260   43.1400 C   0  0  0  0  0  0  0  0  0  0  0  0
   35.8040   26.1350   43.5610 H   0  0  0  0  0  0  0  0  0  0  0  0
   34.7720   25.8640   41.7870 C   0  0  0  0  0  0  0  0  0  0  0  0
   35.6580   25.6860   41.2010 H   0  0  0  0  0  0  0  0  0  0  0  0
   33.5440   25.8300   41.1560 C   0  0  0  0  0  3  0  0  0  0  0  0
   32.4640   26.0690   41.9790 C   0  0  0  0  0  3  0  0  0  0  0  0
   32.5490   26.3170   43.2820 N   0  0  0  0  0  0  0  0  0  0  0  0
  1  2  1  0  0  0  0
  2  3  2  0  0  0  0
  2  7  1  0  0  0  0
  3  4  1  0  0  0  0
  4  8  1  0  0  0  0
  4  5  2  0  0  0  0
  5  9  1  0  0  0  0
  6  5  1  0  0  0  0
  6 10  1  0  0  0  0
  7  6  2  0  0  0  0
 11 16  1  0  0  0  0
 12 13  1  0  0  0  0
 12 11  2  0  0  0  0
 13 14  2  0  0  0  0
 14 15  1  0  0  0  0
 15  3  1  0  0  0  0
 16 15  2  0  0  0  0
 17 11  1  0  0  0  0
 18 12  1  0  0  0  0
 19 13  1  0  0  0  0
 20  7  1  0  0  0  0
 21 22  1  0  0  0  0
 22 23  1  0  0  0  0
 23 20  1  0  0  0  0
 23 24  2  0  0  0  0
 24 28  1  0  0  0  0
 25 24  1  0  0  0  0
 25 29  1  0  0  0  0
 26 25  2  0  0  0  0
 27 22  2  0  0  0  0
 27 26  1  0  0  0  0
 30 26  1  0  0  0  0
 31 27  1  0  0  0  0
 32 33  1  0  0  0  0
 32 31  2  0  0  0  0
 34 32  1  0  0  0  0
 35 34  1  0  0  0  0
 36 34  2  0  0  0  0
 36 37  1  0  0  0  0
 37 38  2  0  0  0  0
 38 31  1  0  0  0  0
M  END
>  <minimizedAffinity>
-5.66921902

>  <minimizedRMSD>
0.473239571

$$$$
