
 OpenBabel03272505113D

 38 41  0  0  0  0  0  0  0  0999 V2000
   36.3900   30.8560   45.6520 Cl  0  0  0  0  0  0  0  0  0  0  0  0
   36.6570   30.7130   47.3670 C   0  0  0  0  0  0  0  0  0  0  0  0
   37.9120   31.0520   47.8410 C   0  0  0  0  0  0  0  0  0  0  0  0
   38.1390   30.9440   49.2000 C   0  0  0  0  0  0  0  0  0  0  0  0
   37.1310   30.5100   50.0260 C   0  0  0  0  0  0  0  0  0  0  0  0
   35.8910   30.1850   49.4790 C   0  0  0  0  0  0  0  0  0  0  0  0
   35.5980   30.2690   48.1470 C   0  0  0  0  0  0  0  0  0  0  0  0
   39.1220   31.2120   49.5560 H   0  0  0  0  0  0  0  0  0  0  0  0
   37.2990   30.4200   51.1000 H   0  0  0  0  0  0  0  0  0  0  0  0
   35.1180   29.8460   50.1660 H   0  0  0  0  0  0  0  0  0  0  0  0
   40.1850   33.3040   46.0980 C   0  0  0  0  0  0  0  0  0  0  0  0
   40.9050   32.4660   45.2240 C   0  0  0  0  0  0  0  0  0  0  0  0
   40.5880   31.0960   45.2470 C   0  0  0  0  0  0  0  0  0  0  0  0
   39.6170   30.6620   46.1020 N   0  0  0  0  0  0  0  0  0  0  0  0
   38.9620   31.5130   46.9150 C   0  0  0  0  0  0  0  0  0  0  0  0
   39.2440   32.8130   46.9120 N   0  0  0  0  0  0  0  0  0  0  0  0
   40.4470   34.3380   46.0580 H   0  0  0  0  0  0  0  0  0  0  0  0
   41.6730   32.7820   44.5430 H   0  0  0  0  0  0  0  0  0  0  0  0
   41.0580   30.3390   44.6340 H   0  0  0  0  0  0  0  0  0  0  0  0
   34.0420   29.8650   47.4330 S   0  0  0  0  0  0  0  0  0  0  0  0
   33.8590   29.0490   44.4050 Cl  0  0  0  0  0  0  0  0  0  0  0  0
   33.8390   27.8290   45.6730 C   0  0  0  0  0  0  0  0  0  0  0  0
   33.9150   28.1180   47.0350 C   0  0  0  0  0  0  0  0  0  0  0  0
   33.8890   27.0820   47.9520 C   0  0  0  0  0  0  0  0  0  0  0  0
   33.7900   25.7920   47.5320 C   0  0  0  0  0  0  0  0  0  0  0  0
   33.7130   25.4680   46.1910 C   0  0  0  0  0  0  0  0  0  0  0  0
   33.7390   26.4960   45.2920 C   0  0  0  0  0  0  0  0  0  0  0  0
   33.9560   27.4510   48.9730 H   0  0  0  0  0  0  0  0  0  0  0  0
   33.7760   25.0460   48.3170 H   0  0  0  0  0  0  0  0  0  0  0  0
   33.6390   24.4280   45.9800 H   0  0  0  0  0  0  0  0  0  0  0  0
   33.6600   26.2000   43.8670 C   0  0  0  0  0  0  0  0  0  0  0  0
   32.4740   26.0660   43.1850 C   0  0  0  0  0  0  0  0  0  0  0  0
   31.5280   26.1770   43.6920 H   0  0  0  0  0  0  0  0  0  0  0  0
   32.3650   25.7870   41.8380 C   0  0  0  0  0  0  0  0  0  0  0  0
   31.4160   25.6890   41.3380 H   0  0  0  0  0  0  0  0  0  0  0  0
   33.5210   25.6260   41.1020 C   0  0  0  0  0  3  0  0  0  0  0  0
   34.6890   25.7680   41.8190 C   0  0  0  0  0  3  0  0  0  0  0  0
   34.7480   26.0380   43.1210 N   0  0  0  0  0  0  0  0  0  0  0  0
  1  2  1  0  0  0  0
  2  3  2  0  0  0  0
  2  7  1  0  0  0  0
  3  4  1  0  0  0  0
  4  8  1  0  0  0  0
  4  5  2  0  0  0  0
  5  9  1  0  0  0  0
  6  5  1  0  0  0  0
  6 10  1  0  0  0  0
  7  6  2  0  0  0  0
 11 16  1  0  0  0  0
 12 13  1  0  0  0  0
 12 11  2  0  0  0  0
 13 14  2  0  0  0  0
 14 15  1  0  0  0  0
 15  3  1  0  0  0  0
 16 15  2  0  0  0  0
 17 11  1  0  0  0  0
 18 12  1  0  0  0  0
 19 13  1  0  0  0  0
 20  7  1  0  0  0  0
 21 22  1  0  0  0  0
 22 23  1  0  0  0  0
 23 20  1  0  0  0  0
 23 24  2  0  0  0  0
 24 28  1  0  0  0  0
 25 24  1  0  0  0  0
 25 29  1  0  0  0  0
 26 25  2  0  0  0  0
 27 22  2  0  0  0  0
 27 26  1  0  0  0  0
 30 26  1  0  0  0  0
 31 27  1  0  0  0  0
 32 33  1  0  0  0  0
 32 31  1  0  0  0  0
 34 32  2  0  0  0  0
 35 34  1  0  0  0  0
 36 37  2  0  0  0  0
 36 34  1  0  0  0  0
 37 38  1  0  0  0  0
 38 31  2  0  0  0  0
M  END
>  <minimizedAffinity>
-5.60809851

>  <minimizedRMSD>
0.353934318

$$$$
