REMARK  Name = 
REMARK  4 active torsions:
REMARK  status: ('A' for Active; 'I' for Inactive)
REMARK    1  A    between atoms: C_3  and  C_12
REMARK    2  A    between atoms: C_7  and  S_14
REMARK    3  A    between atoms: S_14  and  C_17
REMARK    4  A    between atoms: C_21  and  C_31
REMARK                            x       y       z     vdW  Elec       q    Type
REMARK                         _______ _______ _______ _____ _____    ______ ____
ROOT
ATOM      1 CL   UNL     1      36.388  30.905  45.698  0.00  0.00    +0.000 Cl
ATOM      2  C   UNL     1      36.674  30.758  47.410  0.00  0.00    +0.000 A 
ATOM      3  C   UNL     1      37.939  31.082  47.868  0.00  0.00    +0.000 A 
ATOM      4  C   UNL     1      38.181  30.970  49.224  0.00  0.00    +0.000 A 
ATOM      5  C   UNL     1      37.179  30.548  50.063  0.00  0.00    +0.000 A 
ATOM      6  C   UNL     1      35.928  30.238  49.531  0.00  0.00    +0.000 A 
ATOM      7  C   UNL     1      35.620  30.326  48.203  0.00  0.00    +0.000 A 
ATOM      8  H   UNL     1      39.172  31.226  49.568  0.00  0.00    +0.000 HD
ATOM      9  H   UNL     1      37.359  30.456  51.134  0.00  0.00    +0.000 HD
ATOM     10  H   UNL     1      35.160  29.908  50.227  0.00  0.00    +0.000 HD
ENDROOT
BRANCH   3  15
ATOM     11  C   UNL     1      40.202  33.310  46.083  0.00  0.00    +0.000 A 
ATOM     12  C   UNL     1      40.915  32.461  45.214  0.00  0.00    +0.000 A 
ATOM     13  C   UNL     1      40.597  31.092  45.256  0.00  0.00    +0.000 A 
ATOM     14  N   UNL     1      39.632  30.669  46.122  0.00  0.00    +0.000 NA
ATOM     15  C   UNL     1      38.983  31.530  46.930  0.00  0.00    +0.000 A 
ATOM     16  N   UNL     1      39.266  32.830  46.909  0.00  0.00    +0.000 NA
ATOM     17  H   UNL     1      40.465  34.343  46.029  0.00  0.00    +0.000 HD
ATOM     18  H   UNL     1      41.679  32.768  44.524  0.00  0.00    +0.000 HD
ATOM     19  H   UNL     1      41.062  30.327  44.648  0.00  0.00    +0.000 HD
ENDBRANCH   3  15
BRANCH   7  20
ATOM     20  S   UNL     1      34.050  29.941  47.508  0.00  0.00    +0.000 S 
BRANCH  20  23
ATOM     21 CL   UNL     1      33.747  29.188  44.473  0.00  0.00    +0.000 Cl
ATOM     22  C   UNL     1      33.780  27.942  45.715  0.00  0.00    +0.000 A 
ATOM     23  C   UNL     1      33.910  28.203  47.079  0.00  0.00    +0.000 A 
ATOM     24  C   UNL     1      33.923  27.148  47.974  0.00  0.00    +0.000 A 
ATOM     25  C   UNL     1      33.809  25.867  47.532  0.00  0.00    +0.000 A 
ATOM     26  C   UNL     1      33.678  25.571  46.188  0.00  0.00    +0.000 A 
ATOM     27  C   UNL     1      33.666  26.617  45.311  0.00  0.00    +0.000 A 
ATOM     28  H   UNL     1      34.030  27.496  48.999  0.00  0.00    +0.000 HD
ATOM     29  H   UNL     1      33.828  25.105  48.301  0.00  0.00    +0.000 HD
ATOM     30  H   UNL     1      33.597  24.535  45.959  0.00  0.00    +0.000 HD
BRANCH  27  31
ATOM     31  C   UNL     1      33.530  26.351  43.884  0.00  0.00    +0.000 A 
ATOM     32  C   UNL     1      33.212  27.317  42.959  0.00  0.00    +0.000 A 
ATOM     33  H   UNL     1      33.045  28.340  43.261  0.00  0.00    +0.000 HD
ATOM     34  C   UNL     1      33.076  27.099  41.604  0.00  0.00    +0.000 A 
ATOM     35  H   UNL     1      32.825  27.882  40.909  0.00  0.00    +0.000 HD
ATOM     36  C   UNL     1      33.270  25.821  41.118  0.00  0.00    +0.000 A 
ATOM     37  C   UNL     1      33.587  24.881  42.075  0.00  0.00    +0.000 A 
ATOM     38  N   UNL     1      33.709  25.137  43.375  0.00  0.00    +0.000 NA
ENDBRANCH  27  31
ENDBRANCH  20  23
ENDBRANCH   7  20
TORSDOF 4
