
 OpenBabel03272508563D

 39 42  0  0  1  0  0  0  0  0999 V2000
   38.3830   31.8870   44.5260 C   0  0  0  0  0  0  0  0  0  0  0  0
   37.2590   32.4370   44.4170 O   0  0  0  0  0  0  0  0  0  0  0  0
   38.9570   31.6260   45.8360 N   0  0  0  0  0  0  0  0  0  0  0  0
   39.9430   31.3780   45.9710 H   0  0  0  0  0  0  0  0  0  0  0  0
   39.1560   31.4880   43.3390 C   0  0  0  0  0  0  0  0  0  0  0  0
   40.1350   30.5460   43.4760 C   0  0  0  0  0  0  0  0  0  0  0  0
   40.8530   30.1790   42.3510 C   0  0  0  0  0  0  0  0  0  0  0  0
   40.5320   30.7930   41.1560 C   0  0  0  0  0  0  0  0  0  0  0  0
   39.5370   31.7520   41.0150 C   0  0  0  0  0  0  0  0  0  0  0  0
   38.8810   32.0600   42.1450 N   0  0  0  0  0  0  0  0  0  0  0  0
   40.3830   30.0640   44.4270 H   0  0  0  0  0  0  0  0  0  0  0  0
   41.6250   29.4400   42.4450 H   0  0  0  0  0  0  0  0  0  0  0  0
   41.1240   30.4670   40.3200 H   0  0  0  0  0  0  0  0  0  0  0  0
   39.2510   32.3590   39.7220 C   0  0  0  0  0  0  0  0  0  0  0  0
   38.6280   33.4420   39.6800 O   0  0  0  0  0  0  0  0  0  0  0  0
   39.6640   31.7540   38.4610 C   0  0  0  0  0  0  0  0  0  0  0  0
   38.8400   30.7930   37.9120 C   0  0  0  0  0  0  0  0  0  0  0  0
   37.9220   30.4910   38.3860 H   0  0  0  0  0  0  0  0  0  0  0  0
   39.1710   30.1770   36.7150 C   0  0  0  0  0  0  0  0  0  0  0  0
   38.5470   29.4130   36.2470 H   0  0  0  0  0  0  0  0  0  0  0  0
   40.3510   30.5770   36.1200 C   0  0  0  0  0  3  0  0  0  0  0  0
   41.1910   31.5350   36.6500 C   0  0  0  0  0  3  0  0  0  0  0  0
   40.8000   32.0960   37.8280 N   0  0  0  0  0  0  0  0  0  0  0  0
   38.4370   31.1120   48.2090 C   0  0  2  0  0  0  0  0  0  0  0  0
   38.6740   32.5780   48.1260 C   0  0  0  0  0  0  0  0  0  0  0  0
   38.0780   31.7270   46.9740 C   0  0  1  0  0  0  0  0  0  0  0  0
   39.3570   30.4980   48.3010 H   0  0  0  0  0  0  0  0  0  0  0  0
   37.9980   33.2670   48.6610 H   0  0  0  0  0  0  0  0  0  0  0  0
   39.7010   32.9320   48.0220 H   0  0  0  0  0  0  0  0  0  0  0  0
   37.0080   31.9760   46.7770 H   0  0  0  0  0  0  0  0  0  0  0  0
   35.0630   30.2350   49.5080 C   0  0  0  0  0  0  0  0  0  0  0  0
   35.3930   29.5490   50.7180 C   0  0  0  0  0  0  0  0  0  0  0  0
   36.7910   29.4110   51.0730 C   0  0  0  0  0  0  0  0  0  0  0  0
   37.7530   29.9380   50.2440 N   0  0  0  0  0  0  0  0  0  0  0  0
   37.3460   30.5740   49.1090 C   0  0  0  0  0  0  0  0  0  0  0  0
   36.0250   30.7430   48.7090 N   0  0  0  0  0  0  0  0  0  0  0  0
   34.0400   30.3370   49.2470 H   0  0  0  0  0  0  0  0  0  0  0  0
   34.6450   29.1420   51.3600 H   0  0  0  0  0  0  0  0  0  0  0  0
   37.0300   28.8960   51.9840 H   0  0  0  0  0  0  0  0  0  0  0  0
  1  3  1  0  0  0  0
  2  1  2  0  0  0  0
  3  4  1  0  0  0  0
  3 26  1  0  0  0  0
  5  6  1  0  0  0  0
  5  1  1  0  0  0  0
  6 11  1  0  0  0  0
  7 12  1  0  0  0  0
  7  6  2  0  0  0  0
  8  7  1  0  0  0  0
  9  8  2  0  0  0  0
  9 10  1  0  0  0  0
 10  5  2  0  0  0  0
 13  8  1  0  0  0  0
 14  9  1  0  0  0  0
 15 14  2  0  0  0  0
 16 14  1  0  0  0  0
 17 18  1  0  0  0  0
 17 16  1  0  0  0  0
 19 17  2  0  0  0  0
 20 19  1  0  0  0  0
 21 22  2  0  0  0  0
 21 19  1  0  0  0  0
 22 23  1  0  0  0  0
 23 16  2  0  0  0  0
 24 27  1  6  0  0  0
 24 35  1  0  0  0  0
 25 24  1  0  0  0  0
 25 28  1  0  0  0  0
 26 30  1  6  0  0  0
 26 25  1  0  0  0  0
 26 24  1  0  0  0  0
 29 25  1  0  0  0  0
 31 32  1  0  0  0  0
 32 33  2  0  0  0  0
 32 38  1  0  0  0  0
 33 39  1  0  0  0  0
 34 33  1  0  0  0  0
 35 34  2  0  0  0  0
 36 35  1  0  0  0  0
 36 31  2  0  0  0  0
 37 31  1  0  0  0  0
M  END
>  <minimizedAffinity>
-4.95556927

>  <minimizedRMSD>
0.590248287

$$$$
