
 OpenBabel03272508563D

 39 42  0  0  1  0  0  0  0  0999 V2000
   38.3730   31.8890   44.5290 C   0  0  0  0  0  0  0  0  0  0  0  0
   37.2400   32.4180   44.4190 O   0  0  0  0  0  0  0  0  0  0  0  0
   38.9560   31.6500   45.8390 N   0  0  0  0  0  0  0  0  0  0  0  0
   39.9470   31.4210   45.9730 H   0  0  0  0  0  0  0  0  0  0  0  0
   39.1490   31.4920   43.3420 C   0  0  0  0  0  0  0  0  0  0  0  0
   40.1360   30.5590   43.4830 C   0  0  0  0  0  0  0  0  0  0  0  0
   40.8570   30.1950   42.3580 C   0  0  0  0  0  0  0  0  0  0  0  0
   40.5300   30.8000   41.1610 C   0  0  0  0  0  0  0  0  0  0  0  0
   39.5250   31.7510   41.0170 C   0  0  0  0  0  0  0  0  0  0  0  0
   38.8680   32.0570   42.1460 N   0  0  0  0  0  0  0  0  0  0  0  0
   40.3900   30.0830   44.4340 H   0  0  0  0  0  0  0  0  0  0  0  0
   41.6350   29.4620   42.4540 H   0  0  0  0  0  0  0  0  0  0  0  0
   41.1240   30.4770   40.3260 H   0  0  0  0  0  0  0  0  0  0  0  0
   39.2330   32.3500   39.7220 C   0  0  0  0  0  0  0  0  0  0  0  0
   38.6840   33.4730   39.6790 O   0  0  0  0  0  0  0  0  0  0  0  0
   39.5550   31.6930   38.4610 C   0  0  0  0  0  0  0  0  0  0  0  0
   38.6860   30.7250   38.0020 C   0  0  0  0  0  0  0  0  0  0  0  0
   37.7970   30.4550   38.5450 H   0  0  0  0  0  0  0  0  0  0  0  0
   38.9310   30.0610   36.8120 C   0  0  0  0  0  0  0  0  0  0  0  0
   38.2670   29.2890   36.4150 H   0  0  0  0  0  0  0  0  0  0  0  0
   40.0740   30.4200   36.1270 C   0  0  0  0  0  3  0  0  0  0  0  0
   40.9580   31.3840   36.5650 C   0  0  0  0  0  3  0  0  0  0  0  0
   40.6530   31.9940   37.7430 N   0  0  0  0  0  0  0  0  0  0  0  0
   38.4400   31.1230   48.2090 C   0  0  2  0  0  0  0  0  0  0  0  0
   38.6810   32.5880   48.1350 C   0  0  0  0  0  0  0  0  0  0  0  0
   38.0790   31.7470   46.9790 C   0  0  1  0  0  0  0  0  0  0  0  0
   39.3580   30.5060   48.2960 H   0  0  0  0  0  0  0  0  0  0  0  0
   38.0070   33.2760   48.6760 H   0  0  0  0  0  0  0  0  0  0  0  0
   39.7090   32.9400   48.0310 H   0  0  0  0  0  0  0  0  0  0  0  0
   37.0100   32.0000   46.7860 H   0  0  0  0  0  0  0  0  0  0  0  0
   35.0650   30.2370   49.5040 C   0  0  0  0  0  0  0  0  0  0  0  0
   35.3960   29.5530   50.7150 C   0  0  0  0  0  0  0  0  0  0  0  0
   36.7930   29.4190   51.0710 C   0  0  0  0  0  0  0  0  0  0  0  0
   37.7560   29.9470   50.2440 N   0  0  0  0  0  0  0  0  0  0  0  0
   37.3490   30.5830   49.1080 C   0  0  0  0  0  0  0  0  0  0  0  0
   36.0280   30.7480   48.7060 N   0  0  0  0  0  0  0  0  0  0  0  0
   34.0420   30.3370   49.2420 H   0  0  0  0  0  0  0  0  0  0  0  0
   34.6480   29.1450   51.3560 H   0  0  0  0  0  0  0  0  0  0  0  0
   37.0330   28.9040   51.9830 H   0  0  0  0  0  0  0  0  0  0  0  0
  1  3  1  0  0  0  0
  2  1  2  0  0  0  0
  3  4  1  0  0  0  0
  3 26  1  0  0  0  0
  5  6  1  0  0  0  0
  5  1  1  0  0  0  0
  6 11  1  0  0  0  0
  7 12  1  0  0  0  0
  7  6  2  0  0  0  0
  8  7  1  0  0  0  0
  9  8  2  0  0  0  0
  9 10  1  0  0  0  0
 10  5  2  0  0  0  0
 13  8  1  0  0  0  0
 14  9  1  0  0  0  0
 15 14  2  0  0  0  0
 16 14  1  0  0  0  0
 17 16  1  0  0  0  0
 17 18  1  0  0  0  0
 19 17  2  0  0  0  0
 20 19  1  0  0  0  0
 21 22  2  0  0  0  0
 21 19  1  0  0  0  0
 22 23  1  0  0  0  0
 23 16  2  0  0  0  0
 24 27  1  6  0  0  0
 24 35  1  0  0  0  0
 25 24  1  0  0  0  0
 25 28  1  0  0  0  0
 26 30  1  6  0  0  0
 26 25  1  0  0  0  0
 26 24  1  0  0  0  0
 29 25  1  0  0  0  0
 31 32  1  0  0  0  0
 32 33  2  0  0  0  0
 32 38  1  0  0  0  0
 33 39  1  0  0  0  0
 34 33  1  0  0  0  0
 35 34  2  0  0  0  0
 36 35  1  0  0  0  0
 36 31  2  0  0  0  0
 37 31  1  0  0  0  0
M  END
>  <minimizedAffinity>
-4.95224333

>  <minimizedRMSD>
0.359108001

$$$$
