REMARK  Name = 
REMARK  3 active torsions:
REMARK  status: ('A' for Active; 'I' for Inactive)
REMARK    1  A    between atoms: C_1  and  C_7
REMARK    2  A    between atoms: C_6  and  N_15
REMARK    3  A    between atoms: C_13  and  C_30
REMARK                            x       y       z     vdW  Elec       q    Type
REMARK                         _______ _______ _______ _____ _____    ______ ____
ROOT
ATOM      1  C   UNL     1      36.074  30.689  49.065  0.00  0.00    +0.000 C 
ATOM      2  C   UNL     1      37.011  31.642  49.744  0.00  0.00    +0.000 C 
ATOM      3  C   UNL     1      38.045  30.942  50.601  0.00  0.00    +0.000 C 
ATOM      4  C   UNL     1      37.355  30.073  51.650  0.00  0.00    +0.000 C 
ATOM      5  C   UNL     1      36.126  29.366  51.145  0.00  0.00    +0.000 C 
ATOM      6  C   UNL     1      36.193  29.301  49.608  0.00  0.00    +0.000 C 
ATOM      7  H   UNL     1      34.983  30.961  49.188  0.00  0.00    +0.000 HD
ATOM      8  H   UNL     1      36.357  32.177  50.512  0.00  0.00    +0.000 HD
ATOM      9  H   UNL     1      37.429  32.431  49.149  0.00  0.00    +0.000 HD
ATOM     10  H   UNL     1      38.579  31.730  51.137  0.00  0.00    +0.000 HD
ATOM     11  H   UNL     1      38.723  30.287  50.042  0.00  0.00    +0.000 HD
ATOM     12  H   UNL     1      38.098  29.333  51.989  0.00  0.00    +0.000 HD
ATOM     13  H   UNL     1      37.107  30.710  52.516  0.00  0.00    +0.000 HD
ATOM     14  H   UNL     1      35.231  29.959  51.403  0.00  0.00    +0.000 HD
ATOM     15  H   UNL     1      36.065  28.336  51.554  0.00  0.00    +0.000 HD
ATOM     16  H   UNL     1      37.182  28.931  49.475  0.00  0.00    +0.000 HD
ENDROOT
BRANCH   1  17
ATOM     17  C   UNL     1      36.316  30.647  47.601  0.00  0.00    +0.000 A 
ATOM     18  C   UNL     1      37.575  31.120  47.181  0.00  0.00    +0.000 A 
ATOM     19  C   UNL     1      37.828  31.087  45.805  0.00  0.00    +0.000 A 
ATOM     20  N   UNL     1      36.855  30.605  44.959  0.00  0.00    +0.000 NA
ATOM     21  C   UNL     1      35.644  30.155  45.424  0.00  0.00    +0.000 A 
ATOM     22  N   UNL     1      35.398  30.186  46.745  0.00  0.00    +0.000 NA
ATOM     23  H   UNL     1      38.410  31.507  47.729  0.00  0.00    +0.000 HD
ATOM     24  H   UNL     1      38.743  31.416  45.347  0.00  0.00    +0.000 HD
ATOM     25  H   UNL     1      34.916  29.786  44.713  0.00  0.00    +0.000 HD
ENDBRANCH   1  17
BRANCH   6  28
ATOM     26  C   UNL     1      33.938  28.192  49.245  0.00  0.00    +0.000 C 
ATOM     27  O   UNL     1      33.120  28.886  49.943  0.00  0.00    +0.000 OA
ATOM     28  N   UNL     1      35.331  28.347  49.014  0.00  0.00    +0.000 N 
ATOM     29  H   UNL     1      35.730  27.649  48.306  0.00  0.00    +0.000 HD
BRANCH  26  30
ATOM     30  C   UNL     1      33.239  27.050  48.601  0.00  0.00    +0.000 A 
ATOM     31  C   UNL     1      32.343  26.230  49.244  0.00  0.00    +0.000 A 
ATOM     32  H   UNL     1      32.129  26.428  50.295  0.00  0.00    +0.000 HD
ATOM     33  C   UNL     1      31.698  25.177  48.655  0.00  0.00    +0.000 A 
ATOM     34  H   UNL     1      31.002  24.567  49.218  0.00  0.00    +0.000 HD
ATOM     35  C   UNL     1      31.943  24.900  47.340  0.00  0.00    +0.000 A 
ATOM     36  C   UNL     1      32.838  25.709  46.672  0.00  0.00    +0.000 A 
ATOM     37  N   UNL     1      33.440  26.729  47.310  0.00  0.00    +0.000 NA
ENDBRANCH  26  30
ENDBRANCH   6  28
TORSDOF 3
