
 OpenBabel03272509293D

 37 39  0  0  1  0  0  0  0  0999 V2000
   36.4080   30.7580   48.9980 C   0  0  2  0  0  0  0  0  0  0  0  0
   37.4250   31.5920   49.7180 C   0  0  0  0  0  0  0  0  0  0  0  0
   38.2960   30.7810   50.6540 C   0  0  0  0  0  0  0  0  0  0  0  0
   37.4290   30.0440   51.6730 C   0  0  0  0  0  0  0  0  0  0  0  0
   36.1470   29.4990   51.1020 C   0  0  0  0  0  0  0  0  0  0  0  0
   36.2990   29.3820   49.5740 C   0  0  1  0  0  0  0  0  0  0  0  0
   35.3600   31.1800   49.0440 H   0  0  0  0  0  0  0  0  0  0  0  0
   36.8050   32.2330   50.4320 H   0  0  0  0  0  0  0  0  0  0  0  0
   37.9840   32.2990   49.1370 H   0  0  0  0  0  0  0  0  0  0  0  0
   38.9000   31.5020   51.2090 H   0  0  0  0  0  0  0  0  0  0  0  0
   38.9100   30.0230   50.1530 H   0  0  0  0  0  0  0  0  0  0  0  0
   38.0390   29.2190   52.0730 H   0  0  0  0  0  0  0  0  0  0  0  0
   37.2180   30.7330   52.5080 H   0  0  0  0  0  0  0  0  0  0  0  0
   35.3290   30.2160   51.2900 H   0  0  0  0  0  0  0  0  0  0  0  0
   35.9190   28.4990   51.5260 H   0  0  0  0  0  0  0  0  0  0  0  0
   37.2340   28.8760   49.5130 H   0  0  0  0  0  0  0  0  0  0  0  0
   36.7320   30.6420   47.5540 C   0  0  0  0  0  0  0  0  0  0  0  0
   38.0900   30.8170   47.2220 C   0  0  0  0  0  0  0  0  0  0  0  0
   38.4210   30.7080   45.8660 C   0  0  0  0  0  0  0  0  0  0  0  0
   37.4240   30.4430   44.9550 N   0  0  0  0  0  0  0  0  0  0  0  0
   36.1150   30.2800   45.3360 C   0  0  0  0  0  0  0  0  0  0  0  0
   35.7940   30.3840   46.6370 N   0  0  0  0  0  0  0  0  0  0  0  0
   38.9520   31.0160   47.8260 H   0  0  0  0  0  0  0  0  0  0  0  0
   39.4150   30.8190   45.4720 H   0  0  0  0  0  0  0  0  0  0  0  0
   35.3720   30.0720   44.5760 H   0  0  0  0  0  0  0  0  0  0  0  0
   33.9550   28.4850   49.1950 C   0  0  0  0  0  0  0  0  0  0  0  0
   33.2080   29.2010   49.9490 O   0  0  0  0  0  0  0  0  0  0  0  0
   35.3520   28.5390   48.9440 N   0  0  0  0  0  0  0  0  0  0  0  0
   35.6800   27.8550   48.1880 H   0  0  0  0  0  0  0  0  0  0  0  0
   33.1530   27.4450   48.5000 C   0  0  0  0  0  0  0  0  0  0  0  0
   33.6870   26.4760   47.6840 C   0  0  0  0  0  0  0  0  0  0  0  0
   34.7670   26.4660   47.5370 H   0  0  0  0  0  0  0  0  0  0  0  0
   32.9520   25.5170   47.0420 C   0  0  0  0  0  0  0  0  0  0  0  0
   33.4350   24.7790   46.4110 H   0  0  0  0  0  0  0  0  0  0  0  0
   31.5960   25.4990   47.2040 C   0  0  0  0  0  3  0  0  0  0  0  0
   31.0360   26.4620   48.0170 C   0  0  0  0  0  3  0  0  0  0  0  0
   31.8150   27.3770   48.6210 N   0  0  0  0  0  0  0  0  0  0  0  0
  1  7  1  1  0  0  0
  1  6  1  0  0  0  0
  1  2  1  0  0  0  0
  2  8  1  0  0  0  0
  2  3  1  0  0  0  0
  3 10  1  0  0  0  0
  3  4  1  0  0  0  0
  4 12  1  0  0  0  0
  4 13  1  0  0  0  0
  5 14  1  0  0  0  0
  5 15  1  0  0  0  0
  5  4  1  0  0  0  0
  6 16  1  6  0  0  0
  6  5  1  0  0  0  0
  9  2  1  0  0  0  0
 11  3  1  0  0  0  0
 17  1  1  0  0  0  0
 18 17  1  0  0  0  0
 18 23  1  0  0  0  0
 19 18  2  0  0  0  0
 20 21  2  0  0  0  0
 20 19  1  0  0  0  0
 21 22  1  0  0  0  0
 22 17  2  0  0  0  0
 24 19  1  0  0  0  0
 25 21  1  0  0  0  0
 26 27  2  0  0  0  0
 28 26  1  0  0  0  0
 28  6  1  0  0  0  0
 29 28  1  0  0  0  0
 30 37  1  0  0  0  0
 30 26  1  0  0  0  0
 31 30  2  0  0  0  0
 32 31  1  0  0  0  0
 33 35  2  0  0  0  0
 33 31  1  0  0  0  0
 34 33  1  0  0  0  0
 35 36  1  0  0  0  0
 36 37  2  0  0  0  0
M  END
>  <minimizedAffinity>
-6.07975912

>  <minimizedRMSD>
0.510507226

$$$$
