
 OpenBabel03272509303D

 37 39  0  0  1  0  0  0  0  0999 V2000
   36.4140   30.7600   49.0010 C   0  0  2  0  0  0  0  0  0  0  0  0
   37.4360   31.5880   49.7200 C   0  0  0  0  0  0  0  0  0  0  0  0
   38.3050   30.7720   50.6550 C   0  0  0  0  0  0  0  0  0  0  0  0
   37.4340   30.0400   51.6740 C   0  0  0  0  0  0  0  0  0  0  0  0
   36.1490   29.5030   51.1060 C   0  0  0  0  0  0  0  0  0  0  0  0
   36.2980   29.3850   49.5770 C   0  0  1  0  0  0  0  0  0  0  0  0
   35.3690   31.1890   49.0490 H   0  0  0  0  0  0  0  0  0  0  0  0
   36.8220   32.2330   50.4340 H   0  0  0  0  0  0  0  0  0  0  0  0
   37.9990   32.2920   49.1380 H   0  0  0  0  0  0  0  0  0  0  0  0
   38.9140   31.4900   51.2080 H   0  0  0  0  0  0  0  0  0  0  0  0
   38.9130   30.0110   50.1530 H   0  0  0  0  0  0  0  0  0  0  0  0
   38.0410   29.2120   52.0740 H   0  0  0  0  0  0  0  0  0  0  0  0
   37.2290   30.7310   52.5100 H   0  0  0  0  0  0  0  0  0  0  0  0
   35.3350   30.2250   51.2940 H   0  0  0  0  0  0  0  0  0  0  0  0
   35.9150   28.5040   51.5300 H   0  0  0  0  0  0  0  0  0  0  0  0
   37.2290   28.8740   49.5150 H   0  0  0  0  0  0  0  0  0  0  0  0
   36.7350   30.6420   47.5570 C   0  0  0  0  0  0  0  0  0  0  0  0
   38.0930   30.8150   47.2220 C   0  0  0  0  0  0  0  0  0  0  0  0
   38.4210   30.7050   45.8660 C   0  0  0  0  0  0  0  0  0  0  0  0
   37.4220   30.4400   44.9570 N   0  0  0  0  0  0  0  0  0  0  0  0
   36.1130   30.2800   45.3400 C   0  0  0  0  0  0  0  0  0  0  0  0
   35.7950   30.3850   46.6410 N   0  0  0  0  0  0  0  0  0  0  0  0
   38.9560   31.0140   47.8240 H   0  0  0  0  0  0  0  0  0  0  0  0
   39.4150   30.8140   45.4700 H   0  0  0  0  0  0  0  0  0  0  0  0
   35.3690   30.0720   44.5820 H   0  0  0  0  0  0  0  0  0  0  0  0
   33.9480   28.5000   49.2030 C   0  0  0  0  0  0  0  0  0  0  0  0
   33.2080   29.2170   49.9620 O   0  0  0  0  0  0  0  0  0  0  0  0
   35.3450   28.5480   48.9480 N   0  0  0  0  0  0  0  0  0  0  0  0
   35.6670   27.8640   48.1900 H   0  0  0  0  0  0  0  0  0  0  0  0
   33.1390   27.4650   48.5090 C   0  0  0  0  0  0  0  0  0  0  0  0
   31.7680   27.3960   48.5550 C   0  0  0  0  0  0  0  0  0  0  0  0
   31.2350   28.1480   49.1370 H   0  0  0  0  0  0  0  0  0  0  0  0
   31.0200   26.4440   47.9190 C   0  0  0  0  0  0  0  0  0  0  0  0
   29.9390   26.4450   47.9940 H   0  0  0  0  0  0  0  0  0  0  0  0
   31.6540   25.4850   47.1800 C   0  0  0  0  0  3  0  0  0  0  0  0
   33.0310   25.5320   47.1170 C   0  0  0  0  0  3  0  0  0  0  0  0
   33.7080   26.4960   47.7680 N   0  0  0  0  0  0  0  0  0  0  0  0
  1  7  1  1  0  0  0
  1  6  1  0  0  0  0
  1  2  1  0  0  0  0
  2  8  1  0  0  0  0
  2  3  1  0  0  0  0
  3 10  1  0  0  0  0
  3  4  1  0  0  0  0
  4 12  1  0  0  0  0
  4 13  1  0  0  0  0
  5 14  1  0  0  0  0
  5 15  1  0  0  0  0
  5  4  1  0  0  0  0
  6 16  1  6  0  0  0
  6  5  1  0  0  0  0
  9  2  1  0  0  0  0
 11  3  1  0  0  0  0
 17  1  1  0  0  0  0
 18 17  1  0  0  0  0
 18 23  1  0  0  0  0
 19 18  2  0  0  0  0
 20 21  2  0  0  0  0
 20 19  1  0  0  0  0
 21 22  1  0  0  0  0
 22 17  2  0  0  0  0
 24 19  1  0  0  0  0
 25 21  1  0  0  0  0
 26 27  2  0  0  0  0
 28 26  1  0  0  0  0
 28  6  1  0  0  0  0
 29 28  1  0  0  0  0
 30 31  1  0  0  0  0
 30 26  1  0  0  0  0
 31 32  1  0  0  0  0
 33 34  1  0  0  0  0
 33 31  2  0  0  0  0
 35 33  1  0  0  0  0
 36 35  2  0  0  0  0
 36 37  1  0  0  0  0
 37 30  2  0  0  0  0
M  END
>  <minimizedAffinity>
-5.99939442

>  <minimizedRMSD>
0.72185725

$$$$
