
 OpenBabel03272508503D

 28 30  0  0  1  0  0  0  0  0999 V2000
   38.4250   31.1200   48.2190 C   0  0  2  0  0  0  0  0  0  0  0  0
   38.6940   32.5470   48.1040 C   0  0  0  0  0  0  0  0  0  0  0  0
   38.0440   31.7470   46.9580 C   0  0  1  0  0  0  0  0  0  0  0  0
   39.2770   30.3740   48.1030 H   0  0  0  0  0  0  0  0  0  0  0  0
   38.0520   33.2820   48.6540 H   0  0  0  0  0  0  0  0  0  0  0  0
   39.6940   32.9090   47.8710 H   0  0  0  0  0  0  0  0  0  0  0  0
   37.0710   32.1830   46.6680 H   0  0  0  0  0  0  0  0  0  0  0  0
   35.0950   30.2100   49.5570 C   0  0  0  0  0  0  0  0  0  0  0  0
   35.4220   29.5470   50.7720 C   0  0  0  0  0  0  0  0  0  0  0  0
   36.8150   29.4310   51.1010 C   0  0  0  0  0  0  0  0  0  0  0  0
   37.7400   29.9490   50.2560 N   0  0  0  0  0  0  0  0  0  0  0  0
   37.3570   30.5700   49.1090 C   0  0  0  0  0  0  0  0  0  0  0  0
   36.0460   30.7130   48.7380 N   0  0  0  0  0  0  0  0  0  0  0  0
   34.0320   30.2600   49.3750 H   0  0  0  0  0  0  0  0  0  0  0  0
   34.6460   29.1510   51.4120 H   0  0  0  0  0  0  0  0  0  0  0  0
   37.0770   28.9330   52.0150 H   0  0  0  0  0  0  0  0  0  0  0  0
   38.3970   31.8460   44.5190 C   0  0  0  0  0  0  0  0  0  0  0  0
   37.3000   32.4460   44.4020 O   0  0  0  0  0  0  0  0  0  0  0  0
   38.9340   31.5290   45.8160 N   0  0  0  0  0  0  0  0  0  0  0  0
   39.9030   31.1720   45.8590 H   0  0  0  0  0  0  0  0  0  0  0  0
   39.1770   31.4440   43.3270 C   0  0  0  0  0  0  0  0  0  0  0  0
   40.1510   30.4800   43.4840 C   0  0  0  0  0  0  0  0  0  0  0  0
   40.3550   30.0200   44.4380 H   0  0  0  0  0  0  0  0  0  0  0  0
   40.8780   30.1090   42.3630 C   0  0  0  0  0  0  0  0  0  0  0  0
   41.6610   29.3530   42.4180 H   0  0  0  0  0  0  0  0  0  0  0  0
   40.5880   30.7160   41.1700 C   0  0  0  0  0  0  0  0  0  0  0  0
   39.6050   31.6910   41.0080 C   0  0  0  0  0  0  0  0  0  0  0  0
   38.9380   32.0050   42.1320 N   0  0  0  0  0  0  0  0  0  0  0  0
  1  4  1  6  0  0  0
  1 12  1  0  0  0  0
  2  1  1  0  0  0  0
  2  5  1  0  0  0  0
  3  7  1  6  0  0  0
  3  2  1  0  0  0  0
  3  1  1  0  0  0  0
  6  2  1  0  0  0  0
  8  9  1  0  0  0  0
  9 10  2  0  0  0  0
  9 15  1  0  0  0  0
 10 16  1  0  0  0  0
 11 10  1  0  0  0  0
 12 11  2  0  0  0  0
 13 12  1  0  0  0  0
 13  8  2  0  0  0  0
 14  8  1  0  0  0  0
 17 19  1  0  0  0  0
 18 17  2  0  0  0  0
 19 20  1  0  0  0  0
 19  3  1  0  0  0  0
 21 22  1  0  0  0  0
 21 17  1  0  0  0  0
 22 23  1  0  0  0  0
 24 25  1  0  0  0  0
 24 22  2  0  0  0  0
 26 24  1  0  0  0  0
 27 26  2  0  0  0  0
 27 28  1  0  0  0  0
 28 21  2  0  0  0  0
M  END
>  <minimizedAffinity>
-5.03376913

>  <minimizedRMSD>
7.974051

$$$$
