
 OpenBabel03272501313D

 19 20  0  0  0  0  0  0  0  0999 V2000
   38.8130   22.8390   36.0440 C   0  0  0  0  0  0  0  0  0  0  0  0
   39.6630   22.3160   36.8210 O   0  0  0  0  0  0  0  0  0  0  0  0
   36.6300   21.2210   33.4940 C   0  0  0  0  0  0  0  0  0  0  0  0
   37.6960   21.9340   34.0630 C   0  0  0  0  0  0  0  0  0  0  0  0
   37.7250   22.1080   35.4390 C   0  0  0  0  0  0  0  0  0  0  0  0
   36.7040   21.5690   36.1750 N   0  0  0  0  0  0  0  0  0  0  0  0
   35.7000   20.8900   35.5960 C   0  0  0  0  0  0  0  0  0  0  0  0
   35.6570   20.7160   34.2740 N   0  0  0  0  0  0  0  0  0  0  0  0
   36.6420   21.1060   32.4180 H   0  0  0  0  0  0  0  0  0  0  0  0
   38.5070   22.3640   33.4910 H   0  0  0  0  0  0  0  0  0  0  0  0
   34.9830   20.5360   36.3240 H   0  0  0  0  0  0  0  0  0  0  0  0
   39.0000   24.2640   35.7860 C   0  0  0  0  0  0  0  0  0  0  0  0
   38.1270   25.1870   36.3260 C   0  0  0  0  0  0  0  0  0  0  0  0
   37.3080   24.8800   36.9370 H   0  0  0  0  0  0  0  0  0  0  0  0
   38.2450   26.5600   36.1230 C   0  0  0  0  0  0  0  0  0  0  0  0
   37.5430   27.2630   36.5600 H   0  0  0  0  0  0  0  0  0  0  0  0
   39.2950   27.0380   35.3330 C   0  0  0  0  0  3  0  0  0  0  0  0
   40.1520   26.0770   34.8080 C   0  0  0  0  0  3  0  0  0  0  0  0
   40.0080   24.7440   35.0270 N   0  0  0  0  0  0  0  0  0  0  0  0
  1  2  2  0  0  0  0
  3  4  2  0  0  0  0
  3  8  1  0  0  0  0
  4  5  1  0  0  0  0
  5  1  1  0  0  0  0
  5  6  2  0  0  0  0
  7  6  1  0  0  0  0
  7 11  1  0  0  0  0
  8  7  2  0  0  0  0
  9  3  1  0  0  0  0
 10  4  1  0  0  0  0
 12  1  1  0  0  0  0
 12 13  1  0  0  0  0
 13 14  1  0  0  0  0
 15 13  2  0  0  0  0
 15 16  1  0  0  0  0
 17 15  1  0  0  0  0
 18 19  1  0  0  0  0
 18 17  2  0  0  0  0
 19 12  2  0  0  0  0
M  END
>  <minimizedAffinity>
-4.23540545

$$$$

 OpenBabel03272501313D

 19 20  0  0  0  0  0  0  0  0999 V2000
   38.8730   22.9240   36.0040 C   0  0  0  0  0  0  0  0  0  0  0  0
   39.6340   22.2420   36.7500 O   0  0  0  0  0  0  0  0  0  0  0  0
   38.2810   26.6010   36.1460 C   0  0  0  0  0  0  0  0  0  0  0  0
   38.1180   25.2240   36.3660 C   0  0  0  0  0  0  0  0  0  0  0  0
   39.0230   24.3440   35.7910 C   0  0  0  0  0  0  0  0  0  0  0  0
   40.0350   24.8690   35.0330 N   0  0  0  0  0  0  0  0  0  0  0  0
   40.1610   26.1930   34.8450 C   0  0  0  0  0  0  0  0  0  0  0  0
   39.2980   27.0520   35.3910 N   0  0  0  0  0  0  0  0  0  0  0  0
   37.5560   27.2550   36.6120 H   0  0  0  0  0  0  0  0  0  0  0  0
   37.3220   24.7990   36.9620 H   0  0  0  0  0  0  0  0  0  0  0  0
   41.0130   26.4310   34.2220 H   0  0  0  0  0  0  0  0  0  0  0  0
   37.8040   22.1720   35.3540 C   0  0  0  0  0  0  0  0  0  0  0  0
   36.7910   21.6140   36.1080 C   0  0  0  0  0  0  0  0  0  0  0  0
   36.7700   21.7230   37.1690 H   0  0  0  0  0  0  0  0  0  0  0  0
   35.7400   20.8850   35.5570 C   0  0  0  0  0  0  0  0  0  0  0  0
   34.9560   20.4580   36.1750 H   0  0  0  0  0  0  0  0  0  0  0  0
   35.7000   20.7010   34.1710 C   0  0  0  0  0  3  0  0  0  0  0  0
   36.7370   21.2780   33.4470 C   0  0  0  0  0  3  0  0  0  0  0  0
   37.7480   21.9840   34.0180 N   0  0  0  0  0  0  0  0  0  0  0  0
  1  2  2  0  0  0  0
  3  4  1  0  0  0  0
  3  9  1  0  0  0  0
  4 10  1  0  0  0  0
  5  1  1  0  0  0  0
  5  4  2  0  0  0  0
  6  5  1  0  0  0  0
  7  6  2  0  0  0  0
  7  8  1  0  0  0  0
  8  3  2  0  0  0  0
 11  7  1  0  0  0  0
 12  1  1  0  0  0  0
 12 13  1  0  0  0  0
 13 14  1  0  0  0  0
 15 13  2  0  0  0  0
 15 16  1  0  0  0  0
 17 15  1  0  0  0  0
 18 19  1  0  0  0  0
 18 17  2  0  0  0  0
 19 12  2  0  0  0  0
M  END
>  <minimizedAffinity>
-4.16439915

$$$$

 OpenBabel03272501313D

 19 20  0  0  0  0  0  0  0  0999 V2000
   38.5320   23.0020   34.2470 C   0  0  0  0  0  0  0  0  0  0  0  0
   39.3510   23.4850   33.4130 O   0  0  0  0  0  0  0  0  0  0  0  0
   39.9670   22.6490   37.6690 C   0  0  0  0  0  0  0  0  0  0  0  0
   39.8250   22.5480   36.2760 C   0  0  0  0  0  0  0  0  0  0  0  0
   38.6980   23.0950   35.6780 C   0  0  0  0  0  0  0  0  0  0  0  0
   37.7790   23.7100   36.4860 N   0  0  0  0  0  0  0  0  0  0  0  0
   37.9490   23.7880   37.8150 C   0  0  0  0  0  0  0  0  0  0  0  0
   39.0270   23.2660   38.4050 N   0  0  0  0  0  0  0  0  0  0  0  0
   40.8590   22.2110   38.0970 H   0  0  0  0  0  0  0  0  0  0  0  0
   40.5440   22.0640   35.6300 H   0  0  0  0  0  0  0  0  0  0  0  0
   37.1290   24.3050   38.2960 H   0  0  0  0  0  0  0  0  0  0  0  0
   37.3770   22.3250   33.6640 C   0  0  0  0  0  0  0  0  0  0  0  0
   36.8790   22.7310   32.4420 C   0  0  0  0  0  0  0  0  0  0  0  0
   37.3250   23.5380   31.9060 H   0  0  0  0  0  0  0  0  0  0  0  0
   35.7830   22.1320   31.8270 C   0  0  0  0  0  0  0  0  0  0  0  0
   35.4130   22.4730   30.8640 H   0  0  0  0  0  0  0  0  0  0  0  0
   35.1460   21.0660   32.4690 C   0  0  0  0  0  3  0  0  0  0  0  0
   35.6770   20.6870   33.6980 C   0  0  0  0  0  3  0  0  0  0  0  0
   36.7500   21.2940   34.2700 N   0  0  0  0  0  0  0  0  0  0  0  0
  1  5  1  0  0  0  0
  2  1  2  0  0  0  0
  3  9  1  0  0  0  0
  3  8  1  0  0  0  0
  4  3  2  0  0  0  0
  5  4  1  0  0  0  0
  5  6  2  0  0  0  0
  6  7  1  0  0  0  0
  7 11  1  0  0  0  0
  7  8  2  0  0  0  0
 10  4  1  0  0  0  0
 12  1  1  0  0  0  0
 12 19  1  0  0  0  0
 13 12  2  0  0  0  0
 14 13  1  0  0  0  0
 15 13  1  0  0  0  0
 15 17  2  0  0  0  0
 16 15  1  0  0  0  0
 17 18  1  0  0  0  0
 18 19  2  0  0  0  0
M  END
>  <minimizedAffinity>
-4.05887604

$$$$

 OpenBabel03272501313D

 19 20  0  0  0  0  0  0  0  0999 V2000
   38.6970   22.4900   34.2240 C   0  0  0  0  0  0  0  0  0  0  0  0
   39.8090   22.5500   33.6240 O   0  0  0  0  0  0  0  0  0  0  0  0
   35.8200   22.5160   31.8540 C   0  0  0  0  0  0  0  0  0  0  0  0
   37.0310   22.8690   32.4700 C   0  0  0  0  0  0  0  0  0  0  0  0
   37.4550   22.1440   33.5750 C   0  0  0  0  0  0  0  0  0  0  0  0
   36.6630   21.1140   34.0080 N   0  0  0  0  0  0  0  0  0  0  0  0
   35.5100   20.8040   33.3910 C   0  0  0  0  0  0  0  0  0  0  0  0
   35.0890   21.4930   32.3290 N   0  0  0  0  0  0  0  0  0  0  0  0
   35.5240   23.1050   30.9960 H   0  0  0  0  0  0  0  0  0  0  0  0
   37.6630   23.6810   32.1370 H   0  0  0  0  0  0  0  0  0  0  0  0
   35.0150   19.9670   33.8640 H   0  0  0  0  0  0  0  0  0  0  0  0
   38.7420   22.8030   35.6490 C   0  0  0  0  0  0  0  0  0  0  0  0
   39.8370   22.4340   36.4060 C   0  0  0  0  0  0  0  0  0  0  0  0
   40.6630   21.9210   35.9660 H   0  0  0  0  0  0  0  0  0  0  0  0
   39.9490   22.6990   37.7690 C   0  0  0  0  0  0  0  0  0  0  0  0
   40.8220   22.3980   38.3380 H   0  0  0  0  0  0  0  0  0  0  0  0
   38.9050   23.3700   38.4140 C   0  0  0  0  0  3  0  0  0  0  0  0
   37.8200   23.7230   37.6180 C   0  0  0  0  0  3  0  0  0  0  0  0
   37.7440   23.4490   36.2890 N   0  0  0  0  0  0  0  0  0  0  0  0
  1 12  1  0  0  0  0
  2  1  2  0  0  0  0
  3  8  2  0  0  0  0
  3  4  1  0  0  0  0
  4  5  2  0  0  0  0
  5  6  1  0  0  0  0
  5  1  1  0  0  0  0
  7 11  1  0  0  0  0
  7  6  2  0  0  0  0
  8  7  1  0  0  0  0
  9  3  1  0  0  0  0
 10  4  1  0  0  0  0
 12 19  2  0  0  0  0
 12 13  1  0  0  0  0
 13 15  2  0  0  0  0
 14 13  1  0  0  0  0
 15 16  1  0  0  0  0
 15 17  1  0  0  0  0
 18 17  2  0  0  0  0
 19 18  1  0  0  0  0
M  END
>  <minimizedAffinity>
-4.02532673

$$$$

 OpenBabel03272501313D

 19 20  0  0  0  0  0  0  0  0999 V2000
   38.4530   23.9680   36.4240 C   0  0  0  0  0  0  0  0  0  0  0  0
   37.5920   23.3520   37.1170 O   0  0  0  0  0  0  0  0  0  0  0  0
   37.9860   27.5430   35.4780 C   0  0  0  0  0  0  0  0  0  0  0  0
   38.2750   26.4030   36.2440 C   0  0  0  0  0  0  0  0  0  0  0  0
   38.1610   25.1530   35.6530 C   0  0  0  0  0  0  0  0  0  0  0  0
   37.7690   25.0980   34.3420 N   0  0  0  0  0  0  0  0  0  0  0  0
   37.5020   26.2100   33.6390 C   0  0  0  0  0  0  0  0  0  0  0  0
   37.6060   27.4190   34.1940 N   0  0  0  0  0  0  0  0  0  0  0  0
   38.0870   28.4990   35.9740 H   0  0  0  0  0  0  0  0  0  0  0  0
   38.5840   26.4360   37.2800 H   0  0  0  0  0  0  0  0  0  0  0  0
   37.2070   25.9820   32.6230 H   0  0  0  0  0  0  0  0  0  0  0  0
   39.7950   23.3950   36.4480 C   0  0  0  0  0  0  0  0  0  0  0  0
   40.0930   22.3620   37.3140 C   0  0  0  0  0  0  0  0  0  0  0  0
   39.3540   21.9660   37.9750 H   0  0  0  0  0  0  0  0  0  0  0  0
   41.3500   21.7670   37.3920 C   0  0  0  0  0  0  0  0  0  0  0  0
   41.5550   20.9550   38.0830 H   0  0  0  0  0  0  0  0  0  0  0  0
   42.3690   22.2320   36.5550 C   0  0  0  0  0  3  0  0  0  0  0  0
   42.0300   23.2730   35.6980 C   0  0  0  0  0  3  0  0  0  0  0  0
   40.7920   23.8310   35.6490 N   0  0  0  0  0  0  0  0  0  0  0  0
  1 12  1  0  0  0  0
  1  2  2  0  0  0  0
  3  9  1  0  0  0  0
  3  4  1  0  0  0  0
  4 10  1  0  0  0  0
  5  4  2  0  0  0  0
  5  1  1  0  0  0  0
  6  5  1  0  0  0  0
  7  8  1  0  0  0  0
  7  6  2  0  0  0  0
  8  3  2  0  0  0  0
 11  7  1  0  0  0  0
 12 13  1  0  0  0  0
 13 15  2  0  0  0  0
 13 14  1  0  0  0  0
 15 16  1  0  0  0  0
 17 15  1  0  0  0  0
 18 17  2  0  0  0  0
 19 18  1  0  0  0  0
 19 12  2  0  0  0  0
M  END
>  <minimizedAffinity>
-4.01284027

$$$$

 OpenBabel03272501313D

 19 20  0  0  0  0  0  0  0  0999 V2000
   38.5140   23.8740   36.4230 C   0  0  0  0  0  0  0  0  0  0  0  0
   37.5450   23.3790   37.0690 O   0  0  0  0  0  0  0  0  0  0  0  0
   41.4590   21.7660   37.3030 C   0  0  0  0  0  0  0  0  0  0  0  0
   40.1550   22.2850   37.3040 C   0  0  0  0  0  0  0  0  0  0  0  0
   39.8490   23.3250   36.4370 C   0  0  0  0  0  0  0  0  0  0  0  0
   40.8440   23.7910   35.6200 N   0  0  0  0  0  0  0  0  0  0  0  0
   42.0800   23.2680   35.6450 C   0  0  0  0  0  0  0  0  0  0  0  0
   42.3900   22.2690   36.4730 N   0  0  0  0  0  0  0  0  0  0  0  0
   41.6590   20.9560   37.9920 H   0  0  0  0  0  0  0  0  0  0  0  0
   39.3630   21.9250   37.9460 H   0  0  0  0  0  0  0  0  0  0  0  0
   42.7370   23.7550   34.9360 H   0  0  0  0  0  0  0  0  0  0  0  0
   38.1970   25.0670   35.6430 C   0  0  0  0  0  0  0  0  0  0  0  0
   38.2930   26.3180   36.2190 C   0  0  0  0  0  0  0  0  0  0  0  0
   38.5990   26.4350   37.2350 H   0  0  0  0  0  0  0  0  0  0  0  0
   38.0060   27.4970   35.5370 C   0  0  0  0  0  0  0  0  0  0  0  0
   38.0910   28.4680   36.0150 H   0  0  0  0  0  0  0  0  0  0  0  0
   37.5990   27.4230   34.2010 C   0  0  0  0  0  3  0  0  0  0  0  0
   37.5140   26.1460   33.6580 C   0  0  0  0  0  3  0  0  0  0  0  0
   37.8020   25.0140   34.3530 N   0  0  0  0  0  0  0  0  0  0  0  0
  1  5  1  0  0  0  0
  1  2  2  0  0  0  0
  3  4  1  0  0  0  0
  3  9  1  0  0  0  0
  4 10  1  0  0  0  0
  5  4  2  0  0  0  0
  6  7  2  0  0  0  0
  6  5  1  0  0  0  0
  7  8  1  0  0  0  0
  8  3  2  0  0  0  0
 11  7  1  0  0  0  0
 12 13  1  0  0  0  0
 12  1  1  0  0  0  0
 13 14  1  0  0  0  0
 15 16  1  0  0  0  0
 15 13  2  0  0  0  0
 17 15  1  0  0  0  0
 18 17  2  0  0  0  0
 18 19  1  0  0  0  0
 19 12  2  0  0  0  0
M  END
>  <minimizedAffinity>
-4.01054287

$$$$

 OpenBabel03272501313D

 19 20  0  0  0  0  0  0  0  0999 V2000
   38.8690   24.5810   34.2350 C   0  0  0  0  0  0  0  0  0  0  0  0
   39.8100   25.3610   33.9060 O   0  0  0  0  0  0  0  0  0  0  0  0
   36.5630   22.3820   32.3020 C   0  0  0  0  0  0  0  0  0  0  0  0
   37.5700   22.7880   33.1920 C   0  0  0  0  0  0  0  0  0  0  0  0
   37.8370   24.1430   33.3260 C   0  0  0  0  0  0  0  0  0  0  0  0
   37.0980   25.0190   32.5770 N   0  0  0  0  0  0  0  0  0  0  0  0
   36.1410   24.5950   31.7360 C   0  0  0  0  0  0  0  0  0  0  0  0
   35.8730   23.2950   31.5960 N   0  0  0  0  0  0  0  0  0  0  0  0
   36.3830   21.3180   32.2250 H   0  0  0  0  0  0  0  0  0  0  0  0
   38.1590   22.1040   33.7860 H   0  0  0  0  0  0  0  0  0  0  0  0
   35.6590   25.4190   31.2270 H   0  0  0  0  0  0  0  0  0  0  0  0
   38.8880   24.1380   35.6260 C   0  0  0  0  0  0  0  0  0  0  0  0
   37.9850   24.6600   36.5320 C   0  0  0  0  0  0  0  0  0  0  0  0
   37.2640   25.3880   36.2340 H   0  0  0  0  0  0  0  0  0  0  0  0
   37.9450   24.2850   37.8720 C   0  0  0  0  0  0  0  0  0  0  0  0
   37.2230   24.7120   38.5620 H   0  0  0  0  0  0  0  0  0  0  0  0
   38.8590   23.3340   38.3360 C   0  0  0  0  0  3  0  0  0  0  0  0
   39.7510   22.8330   37.3940 C   0  0  0  0  0  3  0  0  0  0  0  0
   39.7630   23.2220   36.0920 N   0  0  0  0  0  0  0  0  0  0  0  0
  1 12  1  0  0  0  0
  2  1  2  0  0  0  0
  3  4  1  0  0  0  0
  4  5  2  0  0  0  0
  4 10  1  0  0  0  0
  5  1  1  0  0  0  0
  6  5  1  0  0  0  0
  7  6  2  0  0  0  0
  8  7  1  0  0  0  0
  8  3  2  0  0  0  0
  9  3  1  0  0  0  0
 11  7  1  0  0  0  0
 12 19  2  0  0  0  0
 12 13  1  0  0  0  0
 13 15  2  0  0  0  0
 14 13  1  0  0  0  0
 15 17  1  0  0  0  0
 15 16  1  0  0  0  0
 18 17  2  0  0  0  0
 19 18  1  0  0  0  0
M  END
>  <minimizedAffinity>
-3.97236657

$$$$

 OpenBabel03272501313D

 19 20  0  0  0  0  0  0  0  0999 V2000
   38.7720   26.3700   34.9950 C   0  0  0  0  0  0  0  0  0  0  0  0
   39.8310   26.9370   35.3910 O   0  0  0  0  0  0  0  0  0  0  0  0
   37.6280   23.4760   37.0470 C   0  0  0  0  0  0  0  0  0  0  0  0
   37.9980   24.7830   36.6910 C   0  0  0  0  0  0  0  0  0  0  0  0
   38.3870   25.0330   35.3820 C   0  0  0  0  0  0  0  0  0  0  0  0
   38.3890   23.9850   34.5020 N   0  0  0  0  0  0  0  0  0  0  0  0
   38.0270   22.7470   34.8790 C   0  0  0  0  0  0  0  0  0  0  0  0
   37.6510   22.4900   36.1330 N   0  0  0  0  0  0  0  0  0  0  0  0
   37.3310   23.3200   38.0760 H   0  0  0  0  0  0  0  0  0  0  0  0
   38.0010   25.6170   37.3790 H   0  0  0  0  0  0  0  0  0  0  0  0
   38.0870   22.0440   34.0590 H   0  0  0  0  0  0  0  0  0  0  0  0
   37.9390   27.1650   34.0980 C   0  0  0  0  0  0  0  0  0  0  0  0
   36.8510   27.8570   34.5920 C   0  0  0  0  0  0  0  0  0  0  0  0
   36.6020   27.8230   35.6290 H   0  0  0  0  0  0  0  0  0  0  0  0
   36.0140   28.6340   33.7960 C   0  0  0  0  0  0  0  0  0  0  0  0
   35.1650   29.1680   34.2120 H   0  0  0  0  0  0  0  0  0  0  0  0
   36.2790   28.7260   32.4260 C   0  0  0  0  0  3  0  0  0  0  0  0
   37.3820   28.0150   31.9670 C   0  0  0  0  0  3  0  0  0  0  0  0
   38.1790   27.2650   32.7730 N   0  0  0  0  0  0  0  0  0  0  0  0
  1  5  1  0  0  0  0
  1  2  2  0  0  0  0
  3  9  1  0  0  0  0
  4  3  1  0  0  0  0
  4 10  1  0  0  0  0
  5  4  2  0  0  0  0
  6  7  2  0  0  0  0
  6  5  1  0  0  0  0
  7  8  1  0  0  0  0
  8  3  2  0  0  0  0
 11  7  1  0  0  0  0
 12 13  1  0  0  0  0
 12  1  1  0  0  0  0
 13 14  1  0  0  0  0
 15 16  1  0  0  0  0
 15 13  2  0  0  0  0
 17 15  1  0  0  0  0
 18 17  2  0  0  0  0
 18 19  1  0  0  0  0
 19 12  2  0  0  0  0
M  END
>  <minimizedAffinity>
-3.95730305

$$$$

 OpenBabel03272501313D

 19 20  0  0  0  0  0  0  0  0999 V2000
   37.3240   22.8690   32.4760 C   0  0  0  0  0  0  0  0  0  0  0  0
   38.4780   22.8290   32.9920 O   0  0  0  0  0  0  0  0  0  0  0  0
   34.9160   25.2280   30.8860 C   0  0  0  0  0  0  0  0  0  0  0  0
   35.5340   24.0290   31.2740 C   0  0  0  0  0  0  0  0  0  0  0  0
   36.6720   24.0900   32.0660 C   0  0  0  0  0  0  0  0  0  0  0  0
   37.1350   25.3270   32.4290 N   0  0  0  0  0  0  0  0  0  0  0  0
   36.5160   26.4530   32.0390 C   0  0  0  0  0  0  0  0  0  0  0  0
   35.4220   26.4100   31.2770 N   0  0  0  0  0  0  0  0  0  0  0  0
   34.0310   25.1390   30.2690 H   0  0  0  0  0  0  0  0  0  0  0  0
   35.1770   23.0480   30.9920 H   0  0  0  0  0  0  0  0  0  0  0  0
   37.0150   27.3360   32.4150 H   0  0  0  0  0  0  0  0  0  0  0  0
   36.6690   21.5740   32.3170 C   0  0  0  0  0  0  0  0  0  0  0  0
   36.0110   20.9930   33.3830 C   0  0  0  0  0  0  0  0  0  0  0  0
   35.9680   21.4760   34.3330 H   0  0  0  0  0  0  0  0  0  0  0  0
   35.3660   19.7620   33.3040 C   0  0  0  0  0  0  0  0  0  0  0  0
   34.8550   19.3290   34.1590 H   0  0  0  0  0  0  0  0  0  0  0  0
   35.3790   19.0690   32.0890 C   0  0  0  0  0  3  0  0  0  0  0  0
   36.0520   19.6860   31.0400 C   0  0  0  0  0  3  0  0  0  0  0  0
   36.6720   20.8900   31.1530 N   0  0  0  0  0  0  0  0  0  0  0  0
  1  2  2  0  0  0  0
  3  4  2  0  0  0  0
  3  8  1  0  0  0  0
  4  5  1  0  0  0  0
  5  6  2  0  0  0  0
  5  1  1  0  0  0  0
  7 11  1  0  0  0  0
  7  6  1  0  0  0  0
  8  7  2  0  0  0  0
  9  3  1  0  0  0  0
 10  4  1  0  0  0  0
 12  1  1  0  0  0  0
 12 13  1  0  0  0  0
 13 14  1  0  0  0  0
 15 13  2  0  0  0  0
 15 16  1  0  0  0  0
 17 15  1  0  0  0  0
 18 19  1  0  0  0  0
 18 17  2  0  0  0  0
 19 12  2  0  0  0  0
M  END
>  <minimizedAffinity>
-3.94744635

$$$$
