
     RDKit          3D

 39 41  0  0  0  0  0  0  0  0999 V2000
   36.0735   30.6891   49.0652 C   0  0  2  0  0  0  0  0  0  0  0  0
   37.0114   31.6417   49.7438 C   0  0  0  0  0  0  0  0  0  0  0  0
   38.0449   30.9423   50.6007 C   0  0  0  0  0  0  0  0  0  0  0  0
   37.3553   30.0728   51.6500 C   0  0  0  0  0  0  0  0  0  0  0  0
   36.1257   29.3659   51.1446 C   0  0  0  0  0  0  0  0  0  0  0  0
   36.1926   29.3011   49.6078 C   0  0  1  0  0  0  0  0  0  0  0  0
   36.3164   30.6472   47.6011 C   0  0  0  0  0  0  0  0  0  0  0  0
   37.5753   31.1198   47.1807 C   0  0  0  0  0  0  0  0  0  0  0  0
   37.8283   31.0871   45.8047 C   0  0  0  0  0  0  0  0  0  0  0  0
   36.8548   30.6045   44.9586 N   0  0  0  0  0  0  0  0  0  0  0  0
   35.6440   30.1550   45.4237 C   0  0  0  0  0  0  0  0  0  0  0  0
   35.3976   30.1859   46.7451 N   0  0  0  0  0  0  0  0  0  0  0  0
   33.9375   28.1918   49.2454 C   0  0  0  0  0  0  0  0  0  0  0  0
   33.1199   28.8859   49.9426 O   0  0  0  0  0  0  0  0  0  0  0  0
   35.3307   28.3468   49.0139 N   0  0  0  0  0  0  0  0  0  0  0  0
   34.9829   30.9613   49.1881 H   0  0  0  0  0  0  0  0  0  0  0  0
   36.3572   32.1774   50.5123 H   0  0  0  0  0  0  0  0  0  0  0  0
   37.4288   32.4315   49.1486 H   0  0  0  0  0  0  0  0  0  0  0  0
   38.5787   31.7304   51.1374 H   0  0  0  0  0  0  0  0  0  0  0  0
   38.7231   30.2873   50.0424 H   0  0  0  0  0  0  0  0  0  0  0  0
   38.0984   29.3330   51.9888 H   0  0  0  0  0  0  0  0  0  0  0  0
   37.1067   30.7102   52.5161 H   0  0  0  0  0  0  0  0  0  0  0  0
   35.2311   29.9591   51.4026 H   0  0  0  0  0  0  0  0  0  0  0  0
   36.0649   28.3364   51.5538 H   0  0  0  0  0  0  0  0  0  0  0  0
   37.1823   28.9315   49.4755 H   0  0  0  0  0  0  0  0  0  0  0  0
   38.4105   31.5067   47.7294 H   0  0  0  0  0  0  0  0  0  0  0  0
   38.7433   31.4164   45.3474 H   0  0  0  0  0  0  0  0  0  0  0  0
   34.9165   29.7861   44.7132 H   0  0  0  0  0  0  0  0  0  0  0  0
   35.7303   27.6495   48.3057 H   0  0  0  0  0  0  0  0  0  0  0  0
   33.2392   27.0502   48.6009 C   0  0  0  0  0  0  0  0  0  0  0  0
   33.1708   26.8544   47.2421 C   0  0  0  0  0  0  0  0  0  0  0  0
   33.6596   27.5810   46.5931 H   0  0  0  0  0  0  0  0  0  0  0  0
   32.5279   25.8045   46.6442 C   0  0  0  0  0  0  0  0  0  0  0  0
   32.5102   25.7067   45.5647 H   0  0  0  0  0  0  0  0  0  0  0  0
   31.9044   24.8748   47.4269 C   0  0  0  0  0  0  0  0  0  0  0  0
   31.9587   25.0489   48.7936 C   0  0  0  0  0  0  0  0  0  0  0  0
   32.6078   26.1039   49.3190 N   0  0  0  0  0  0  0  0  0  0  0  0
   31.3742   24.0165   47.0500 H   0  0  0  0  0  0  0  0  0  0  0  0
   31.5144   24.3984   49.5374 H   0  0  0  0  0  0  0  0  0  0  0  0
  1  6  1  0
  1  2  1  0
  2  3  1  0
  3  4  1  0
  5  4  1  0
  6  5  1  0
  7  1  1  0
  8  7  2  0
  9  8  1  0
 10 11  1  0
 10  9  2  0
 11 12  2  0
 12  7  1  0
 13 14  2  0
 15 13  1  0
 15  6  1  0
  1 16  1  6
  2 17  1  0
  2 18  1  0
  3 19  1  0
  3 20  1  0
  4 21  1  0
  4 22  1  0
  5 23  1  0
  5 24  1  0
  6 25  1  1
  8 26  1  0
  9 27  1  0
 11 28  1  0
 15 29  1  0
 30 31  2  0
 31 32  1  0
 31 33  1  0
 33 34  1  0
 33 35  2  0
 35 36  1  0
 36 37  2  0
 37 30  1  0
 35 38  1  0
 36 39  1  0
 13 30  1  0
M  ISO  8  16  13  17  13  18  13  19  13  20  13  21  13  22  13  23  13
M  ISO  7  24  13  25  13  26  14  27  14  28  14  32  15  34  16
M  END
>  <DihAtoms>  (1) 
13,12,29,30

>  <DihDeg>  (1) 
-0.09011431948560639

$$$$
