
 OpenBabel03272507403D

 40 43  0  0  0  0  0  0  0  0999 V2000
   36.7690   32.2210   49.2400 O   0  0  0  0  0  0  0  0  0  0  0  0
   38.2340   32.2210   47.2580 C   0  0  0  0  0  0  0  0  0  0  0  0
   37.8650   32.6480   48.5270 C   0  0  0  0  0  0  0  0  0  0  0  0
   38.6290   33.5900   49.1880 C   0  0  0  0  0  0  0  0  0  0  0  0
   39.7660   34.1100   48.5860 C   0  0  0  0  0  0  0  0  0  0  0  0
   40.1290   33.6800   47.3190 C   0  0  0  0  0  0  0  0  0  0  0  0
   39.3480   32.7410   46.6880 C   0  0  0  0  0  0  0  0  0  0  0  0
   38.4000   33.9680   50.1760 H   0  0  0  0  0  0  0  0  0  0  0  0
   40.3880   34.8510   49.0760 H   0  0  0  0  0  0  0  0  0  0  0  0
   41.0170   34.0930   46.8620 H   0  0  0  0  0  0  0  0  0  0  0  0
   39.7470   32.2910   45.3380 C   0  0  0  0  0  0  0  0  0  0  0  0
   40.5770   31.2530   44.9710 C   0  0  0  0  0  0  0  0  0  0  0  0
   40.6390   31.2320   43.5800 C   0  0  0  0  0  0  0  0  0  0  0  0
   39.8220   32.2840   43.1850 C   0  0  0  0  0  0  0  0  0  0  0  0
   39.3070   32.8920   44.2410 O   0  0  0  0  0  0  0  0  0  0  0  0
   41.0720   30.5960   45.6840 H   0  0  0  0  0  0  0  0  0  0  0  0
   41.2070   30.5360   42.9790 H   0  0  0  0  0  0  0  0  0  0  0  0
   39.6420   32.5550   42.1370 H   0  0  0  0  0  0  0  0  0  0  0  0
   36.7250   30.4770   46.1250 N   0  0  0  0  0  0  0  0  0  0  0  0
   37.3970   31.2480   46.6390 C   0  0  0  0  0  0  0  0  0  0  0  0
   36.7670   31.1900   50.1120 C   0  0  0  0  0  0  0  0  0  0  0  0
   35.7310   30.2850   49.8760 C   0  0  0  0  0  0  0  0  0  0  0  0
   35.5600   29.1640   50.6630 C   0  0  0  0  0  0  0  0  0  0  0  0
   36.4430   28.9740   51.6820 N   0  0  0  0  0  0  0  0  0  0  0  0
   37.4540   29.8690   51.9030 C   0  0  0  0  0  0  0  0  0  0  0  0
   37.5900   30.9330   51.1320 N   0  0  0  0  0  0  0  0  0  0  0  0
   34.8040   28.4300   50.5520 H   0  0  0  0  0  0  0  0  0  0  0  0
   38.1470   29.7030   52.7170 H   0  0  0  0  0  0  0  0  0  0  0  0
   34.3180   29.2260   48.1640 C   0  0  0  0  0  0  0  0  0  0  0  0
   34.7270   27.9890   48.1840 O   0  0  0  0  0  0  0  0  0  0  0  0
   34.7740   30.3780   48.8540 N   0  0  0  0  0  0  0  0  0  0  0  0
   34.3920   31.3110   48.5960 H   0  0  0  0  0  0  0  0  0  0  0  0
   33.1710   29.4350   47.2490 C   0  0  0  0  0  0  0  0  0  0  0  0
   33.0690   30.5200   46.4050 C   0  0  0  0  0  0  0  0  0  0  0  0
   33.8760   31.2670   46.4110 H   0  0  0  0  0  0  0  0  0  0  0  0
   32.0100   30.7260   45.5520 C   0  0  0  0  0  0  0  0  0  0  0  0
   31.9920   31.5940   44.9190 H   0  0  0  0  0  0  0  0  0  0  0  0
   30.9870   29.8130   45.5220 C   0  0  0  0  0  0  0  0  0  0  0  0
   31.0800   28.7240   46.3620 C   0  0  0  0  0  0  0  0  0  0  0  0
   32.1460   28.5900   47.1690 N   0  0  0  0  0  0  0  0  0  0  0  0
  1 21  1  0  0  0  0
  2  3  1  0  0  0  0
  3  4  2  0  0  0  0
  3  1  1  0  0  0  0
  4  8  1  0  0  0  0
  5  9  1  0  0  0  0
  5  4  1  0  0  0  0
  6  5  2  0  0  0  0
  7  2  2  0  0  0  0
  7  6  1  0  0  0  0
 10  6  1  0  0  0  0
 11  7  1  0  0  0  0
 12 11  2  0  0  0  0
 12 16  1  0  0  0  0
 13 12  1  0  0  0  0
 14 13  2  0  0  0  0
 14 15  1  0  0  0  0
 15 11  1  0  0  0  0
 17 13  1  0  0  0  0
 18 14  1  0  0  0  0
 19 20  3  0  0  0  0
 20  2  1  0  0  0  0
 21 26  1  0  0  0  0
 22 21  2  0  0  0  0
 22 23  1  0  0  0  0
 23 24  2  0  0  0  0
 24 25  1  0  0  0  0
 25 28  1  0  0  0  0
 26 25  2  0  0  0  0
 27 23  1  0  0  0  0
 29 30  2  0  0  0  0
 29 31  1  0  0  0  0
 31 22  1  0  0  0  0
 32 31  1  0  0  0  0
 33 29  1  0  0  0  0
 34 35  1  0  0  0  0
 34 33  2  0  0  0  0
 36 34  1  0  0  0  0
 37 36  1  0  0  0  0
 38 36  2  0  0  0  0
 38 39  1  0  0  0  0
 39 40  2  0  0  0  0
 40 33  1  0  0  0  0
M  END
>  <minimizedAffinity>
-6.10587454

>  <minimizedRMSD>
0.498827755

$$$$
