
 OpenBabel03262522003D

 19 20  0  0  0  0  0  0  0  0999 V2000
   36.8730   31.3290   48.9690 C   0  0  0  0  0  0  0  0  0  0  0  0
   36.8410   32.0190   50.0130 O   0  0  0  0  0  0  0  0  0  0  0  0
   37.9020   31.5150   47.9620 C   0  0  0  0  0  0  0  0  0  0  0  0
   38.6330   32.7120   47.9700 C   0  0  0  0  0  0  0  0  0  0  0  0
   39.6300   32.8990   47.0000 C   0  0  0  0  0  0  0  0  0  0  0  0
   39.8200   31.8870   46.1020 N   0  0  0  0  0  0  0  0  0  0  0  0
   39.1040   30.7600   46.1260 C   0  0  0  0  0  0  0  0  0  0  0  0
   38.1470   30.5610   47.0430 N   0  0  0  0  0  0  0  0  0  0  0  0
   38.4490   33.5000   48.7090 H   0  0  0  0  0  0  0  0  0  0  0  0
   40.2180   33.8070   46.9700 H   0  0  0  0  0  0  0  0  0  0  0  0
   39.3460   30.0270   45.3600 H   0  0  0  0  0  0  0  0  0  0  0  0
   35.8350   30.3200   48.7860 C   0  0  0  0  0  0  0  0  0  0  0  0
   35.7750   29.2300   49.6310 C   0  0  0  0  0  0  0  0  0  0  0  0
   36.5010   29.1070   50.4480 H   0  0  0  0  0  0  0  0  0  0  0  0
   34.8210   28.2220   49.5290 C   0  0  0  0  0  0  0  0  0  0  0  0
   34.7860   27.3870   50.1890 H   0  0  0  0  0  0  0  0  0  0  0  0
   33.9140   28.4030   48.4880 C   0  0  0  0  0  0  0  0  0  0  0  0
   33.9440   29.4820   47.6210 C   0  0  0  0  0  0  0  0  0  0  0  0
   34.9100   30.3940   47.8150 N   0  0  0  0  0  0  0  0  0  0  0  0
  1  2  2  0  0  0  0
  3  4  1  0  0  0  0
  3  1  1  0  0  0  0
  4  9  1  0  0  0  0
  5  4  2  0  0  0  0
  6  7  2  0  0  0  0
  6  5  1  0  0  0  0
  7  8  1  0  0  0  0
  8  3  2  0  0  0  0
 10  5  1  0  0  0  0
 11  7  1  0  0  0  0
 12  1  1  0  0  0  0
 12 13  1  0  0  0  0
 13 14  1  0  0  0  0
 15 13  2  0  0  0  0
 15 16  1  0  0  0  0
 17 15  1  0  0  0  0
 18 19  1  0  0  0  0
 18 17  2  0  0  0  0
 19 12  2  0  0  0  0
M  END
>  <minimizedAffinity>
-4.71041632

>  <minimizedRMSD>
3.08200121

$$$$
