
 OpenBabel03272505083D

 28 30  0  0  0  0  0  0  0  0999 V2000
   36.3390   30.8610   45.7640 Cl  0  0  0  0  0  0  0  0  0  0  0  0
   36.6760   30.7080   47.4800 C   0  0  0  0  0  0  0  0  0  0  0  0
   37.9390   31.0360   47.8770 C   0  0  0  0  0  0  0  0  0  0  0  0
   38.2340   30.9230   49.2430 C   0  0  0  0  0  0  0  0  0  0  0  0
   37.2760   30.4990   50.1150 C   0  0  0  0  0  0  0  0  0  0  0  0
   36.0190   30.1870   49.6320 C   0  0  0  0  0  0  0  0  0  0  0  0
   35.6600   30.2750   48.3020 C   0  0  0  0  0  0  0  0  0  0  0  0
   39.2360   31.1790   49.5760 H   0  0  0  0  0  0  0  0  0  0  0  0
   37.5200   30.4170   51.1670 H   0  0  0  0  0  0  0  0  0  0  0  0
   35.2630   29.8490   50.3460 H   0  0  0  0  0  0  0  0  0  0  0  0
   40.1670   33.2570   46.0210 C   0  0  0  0  0  0  0  0  0  0  0  0
   40.8450   32.3990   45.1370 C   0  0  0  0  0  0  0  0  0  0  0  0
   40.5210   31.0520   45.1950 C   0  0  0  0  0  0  0  0  0  0  0  0
   39.5800   30.6420   46.0880 N   0  0  0  0  0  0  0  0  0  0  0  0
   38.9510   31.4880   46.9190 C   0  0  0  0  0  0  0  0  0  0  0  0
   39.2500   32.7990   46.8790 N   0  0  0  0  0  0  0  0  0  0  0  0
   40.4450   34.2990   45.9480 H   0  0  0  0  0  0  0  0  0  0  0  0
   41.5860   32.6510   44.4200 H   0  0  0  0  0  0  0  0  0  0  0  0
   40.9230   30.2350   44.6060 H   0  0  0  0  0  0  0  0  0  0  0  0
   34.0570   29.8790   47.6700 S   0  0  0  0  0  0  0  0  0  0  0  0
   33.9740   28.2220   47.0230 C   0  0  0  0  0  0  0  0  0  0  0  0
   34.0010   27.9860   45.6690 C   0  0  0  0  0  0  0  0  0  0  0  0
   34.0730   28.8050   44.9660 H   0  0  0  0  0  0  0  0  0  0  0  0
   33.9370   26.6940   45.1470 C   0  0  0  0  0  0  0  0  0  0  0  0
   33.9570   26.5010   44.0990 H   0  0  0  0  0  0  0  0  0  0  0  0
   33.8470   25.6950   46.1000 C   0  0  0  0  0  3  0  0  0  0  0  0
   33.8210   25.9490   47.4570 C   0  0  0  0  0  3  0  0  0  0  0  0
   33.8850   27.2190   47.9140 N   0  0  0  0  0  0  0  0  0  0  0  0
  1  2  1  0  0  0  0
  2  3  2  0  0  0  0
  2  7  1  0  0  0  0
  3  4  1  0  0  0  0
  4  8  1  0  0  0  0
  4  5  2  0  0  0  0
  5  9  1  0  0  0  0
  6  5  1  0  0  0  0
  6 10  1  0  0  0  0
  7  6  2  0  0  0  0
 11 16  1  0  0  0  0
 12 13  1  0  0  0  0
 12 11  2  0  0  0  0
 13 14  2  0  0  0  0
 14 15  1  0  0  0  0
 15  3  1  0  0  0  0
 16 15  2  0  0  0  0
 17 11  1  0  0  0  0
 18 12  1  0  0  0  0
 19 13  1  0  0  0  0
 20  7  1  0  0  0  0
 21 20  1  0  0  0  0
 21 28  1  0  0  0  0
 22 21  2  0  0  0  0
 23 22  1  0  0  0  0
 24 22  1  0  0  0  0
 24 26  2  0  0  0  0
 25 24  1  0  0  0  0
 26 27  1  0  0  0  0
 27 28  2  0  0  0  0
M  END
>  <minimizedAffinity>
-5.51368237

>  <minimizedRMSD>
1.05814266

$$$$
