
 OpenBabel03272505083D

 28 30  0  0  0  0  0  0  0  0999 V2000
   36.3390   30.8760   45.8170 Cl  0  0  0  0  0  0  0  0  0  0  0  0
   36.7010   30.7340   47.5290 C   0  0  0  0  0  0  0  0  0  0  0  0
   37.9710   31.0590   47.9050 C   0  0  0  0  0  0  0  0  0  0  0  0
   38.2850   30.9550   49.2670 C   0  0  0  0  0  0  0  0  0  0  0  0
   37.3390   30.5410   50.1570 C   0  0  0  0  0  0  0  0  0  0  0  0
   36.0730   30.2310   49.6940 C   0  0  0  0  0  0  0  0  0  0  0  0
   35.6950   30.3110   48.3690 C   0  0  0  0  0  0  0  0  0  0  0  0
   39.2930   31.2100   49.5840 H   0  0  0  0  0  0  0  0  0  0  0  0
   37.5970   30.4650   51.2060 H   0  0  0  0  0  0  0  0  0  0  0  0
   35.3270   29.9000   50.4210 H   0  0  0  0  0  0  0  0  0  0  0  0
   40.1730   33.2610   45.9960 C   0  0  0  0  0  0  0  0  0  0  0  0
   40.8410   32.3940   45.1130 C   0  0  0  0  0  0  0  0  0  0  0  0
   40.5190   31.0460   45.1910 C   0  0  0  0  0  0  0  0  0  0  0  0
   39.5900   30.6470   46.1000 N   0  0  0  0  0  0  0  0  0  0  0  0
   38.9700   31.5020   46.9290 C   0  0  0  0  0  0  0  0  0  0  0  0
   39.2680   32.8120   46.8700 N   0  0  0  0  0  0  0  0  0  0  0  0
   40.4490   34.3020   45.9070 H   0  0  0  0  0  0  0  0  0  0  0  0
   41.5720   32.6370   44.3840 H   0  0  0  0  0  0  0  0  0  0  0  0
   40.9140   30.2230   44.6070 H   0  0  0  0  0  0  0  0  0  0  0  0
   34.0820   29.9170   47.7630 S   0  0  0  0  0  0  0  0  0  0  0  0
   33.9950   28.2710   47.0850 C   0  0  0  0  0  0  0  0  0  0  0  0
   33.9930   28.0620   45.7280 C   0  0  0  0  0  0  0  0  0  0  0  0
   34.0440   28.8940   45.0390 H   0  0  0  0  0  0  0  0  0  0  0  0
   33.9270   26.7810   45.1820 C   0  0  0  0  0  0  0  0  0  0  0  0
   33.9250   26.6060   44.1300 H   0  0  0  0  0  0  0  0  0  0  0  0
   33.8640   25.7630   46.1180 C   0  0  0  0  0  3  0  0  0  0  0  0
   33.8670   25.9900   47.4790 C   0  0  0  0  0  3  0  0  0  0  0  0
   33.9330   27.2510   47.9590 N   0  0  0  0  0  0  0  0  0  0  0  0
  1  2  1  0  0  0  0
  2  3  2  0  0  0  0
  2  7  1  0  0  0  0
  3  4  1  0  0  0  0
  4  8  1  0  0  0  0
  4  5  2  0  0  0  0
  5  9  1  0  0  0  0
  6  5  1  0  0  0  0
  6 10  1  0  0  0  0
  7  6  2  0  0  0  0
 11 16  1  0  0  0  0
 12 13  1  0  0  0  0
 12 11  2  0  0  0  0
 13 14  2  0  0  0  0
 14 15  1  0  0  0  0
 15  3  1  0  0  0  0
 16 15  2  0  0  0  0
 17 11  1  0  0  0  0
 18 12  1  0  0  0  0
 19 13  1  0  0  0  0
 20  7  1  0  0  0  0
 21 20  1  0  0  0  0
 21 28  1  0  0  0  0
 22 21  2  0  0  0  0
 23 22  1  0  0  0  0
 24 22  1  0  0  0  0
 24 26  2  0  0  0  0
 25 24  1  0  0  0  0
 26 27  1  0  0  0  0
 27 28  2  0  0  0  0
M  END
>  <minimizedAffinity>
-5.5016036

>  <minimizedRMSD>
1.12632871

$$$$
