
 OpenBabel03272505083D

 28 30  0  0  0  0  0  0  0  0999 V2000
   36.3190   30.9030   45.9110 Cl  0  0  0  0  0  0  0  0  0  0  0  0
   36.6800   30.7560   47.6220 C   0  0  0  0  0  0  0  0  0  0  0  0
   37.9500   31.0800   48.0000 C   0  0  0  0  0  0  0  0  0  0  0  0
   38.2620   30.9710   49.3620 C   0  0  0  0  0  0  0  0  0  0  0  0
   37.3160   30.5540   50.2500 C   0  0  0  0  0  0  0  0  0  0  0  0
   36.0510   30.2440   49.7850 C   0  0  0  0  0  0  0  0  0  0  0  0
   35.6740   30.3290   48.4600 C   0  0  0  0  0  0  0  0  0  0  0  0
   39.2700   31.2250   49.6800 H   0  0  0  0  0  0  0  0  0  0  0  0
   37.5740   30.4740   51.2980 H   0  0  0  0  0  0  0  0  0  0  0  0
   35.3030   29.9110   50.5100 H   0  0  0  0  0  0  0  0  0  0  0  0
   40.1400   33.2910   46.0890 C   0  0  0  0  0  0  0  0  0  0  0  0
   40.8210   32.4240   45.2150 C   0  0  0  0  0  0  0  0  0  0  0  0
   40.5110   31.0750   45.2980 C   0  0  0  0  0  0  0  0  0  0  0  0
   39.5810   30.6720   46.2060 N   0  0  0  0  0  0  0  0  0  0  0  0
   38.9490   31.5260   47.0270 C   0  0  0  0  0  0  0  0  0  0  0  0
   39.2350   32.8380   46.9610 N   0  0  0  0  0  0  0  0  0  0  0  0
   40.4080   34.3330   45.9950 H   0  0  0  0  0  0  0  0  0  0  0  0
   41.5530   32.6710   44.4880 H   0  0  0  0  0  0  0  0  0  0  0  0
   40.9170   30.2520   44.7210 H   0  0  0  0  0  0  0  0  0  0  0  0
   34.0610   29.9360   47.8510 S   0  0  0  0  0  0  0  0  0  0  0  0
   33.9890   28.3130   47.1210 C   0  0  0  0  0  0  0  0  0  0  0  0
   33.9740   28.1480   45.7570 C   0  0  0  0  0  0  0  0  0  0  0  0
   34.0080   29.0030   45.0960 H   0  0  0  0  0  0  0  0  0  0  0  0
   33.9190   26.8840   45.1700 C   0  0  0  0  0  0  0  0  0  0  0  0
   33.9080   26.7440   44.1130 H   0  0  0  0  0  0  0  0  0  0  0  0
   33.8790   25.8360   46.0730 C   0  0  0  0  0  3  0  0  0  0  0  0
   33.8940   26.0170   47.4400 C   0  0  0  0  0  3  0  0  0  0  0  0
   33.9490   27.2630   47.9610 N   0  0  0  0  0  0  0  0  0  0  0  0
  1  2  1  0  0  0  0
  2  3  2  0  0  0  0
  2  7  1  0  0  0  0
  3  4  1  0  0  0  0
  4  8  1  0  0  0  0
  4  5  2  0  0  0  0
  5  9  1  0  0  0  0
  6  5  1  0  0  0  0
  6 10  1  0  0  0  0
  7  6  2  0  0  0  0
 11 16  1  0  0  0  0
 12 13  1  0  0  0  0
 12 11  2  0  0  0  0
 13 14  2  0  0  0  0
 14 15  1  0  0  0  0
 15  3  1  0  0  0  0
 16 15  2  0  0  0  0
 17 11  1  0  0  0  0
 18 12  1  0  0  0  0
 19 13  1  0  0  0  0
 20  7  1  0  0  0  0
 21 20  1  0  0  0  0
 21 28  1  0  0  0  0
 22 21  2  0  0  0  0
 23 22  1  0  0  0  0
 24 22  1  0  0  0  0
 24 26  2  0  0  0  0
 25 24  1  0  0  0  0
 26 27  1  0  0  0  0
 27 28  2  0  0  0  0
M  END
>  <minimizedAffinity>
-5.49006653

>  <minimizedRMSD>
1.02894998

$$$$
