
 OpenBabel03272509423D

 37 39  0  0  1  0  0  0  0  0999 V2000
   37.0290   30.9180   49.0370 C   0  0  0  0  0  0  0  0  0  0  0  0
   36.7410   31.8060   50.0770 C   0  0  0  0  0  0  0  0  0  0  0  0
   37.3300   33.0570   50.1550 C   0  0  0  0  0  0  0  0  0  0  0  0
   38.2410   33.4500   49.1640 C   0  0  0  0  0  0  0  0  0  0  0  0
   38.5100   32.5730   48.1590 C   0  0  0  0  0  0  0  0  0  0  0  0
   37.9030   31.3250   48.1090 C   0  0  0  0  0  0  0  0  0  0  0  0
   36.0210   31.4490   50.8250 H   0  0  0  0  0  0  0  0  0  0  0  0
   37.0100   33.6290   51.0140 H   0  0  0  0  0  0  0  0  0  0  0  0
   38.6440   34.4290   49.3040 H   0  0  0  0  0  0  0  0  0  0  0  0
   39.2350   33.0150   47.4690 H   0  0  0  0  0  0  0  0  0  0  0  0
   36.4400   29.5980   48.9770 C   0  0  2  0  0  0  0  0  0  0  0  0
   36.9650   29.0730   48.0910 H   0  0  0  0  0  0  0  0  0  0  0  0
   33.5770   30.0870   46.7930 C   0  0  0  0  0  0  0  0  0  0  0  0
   32.8830   28.8930   46.8790 C   0  0  0  0  0  0  0  0  0  0  0  0
   33.3600   27.9230   47.7420 C   0  0  0  0  0  0  0  0  0  0  0  0
   34.4970   28.1750   48.4760 N   0  0  0  0  0  0  0  0  0  0  0  0
   35.1150   29.3310   48.3490 C   0  0  0  0  0  0  0  0  0  0  0  0
   34.6620   30.2930   47.5120 N   0  0  0  0  0  0  0  0  0  0  0  0
   33.2010   30.8560   46.1120 H   0  0  0  0  0  0  0  0  0  0  0  0
   31.9990   28.6940   46.3070 H   0  0  0  0  0  0  0  0  0  0  0  0
   32.8870   26.9620   47.8800 H   0  0  0  0  0  0  0  0  0  0  0  0
   36.8820   28.8180   49.9000 O   0  0  0  0  0  0  0  0  0  0  0  0
   36.3440   28.0950   50.2960 H   0  0  0  0  0  0  0  0  0  0  0  0
   38.3030   30.4860   47.0040 C   0  0  0  0  0  3  0  0  0  0  0  0
   38.9650   30.9350   45.9320 C   0  0  0  0  0  3  0  0  0  0  0  0
   39.4640   30.1640   44.7720 C   0  0  0  0  0  0  0  0  0  0  0  0
   40.5060   29.8590   45.0000 H   0  0  0  0  0  0  0  0  0  0  0  0
   38.7860   29.3090   44.6000 H   0  0  0  0  0  0  0  0  0  0  0  0
   39.5190   31.2250   43.3200 S   0  0  0  0  0  0  0  0  0  0  0  0
   37.8820   31.4320   42.6080 C   0  0  0  0  0  0  0  0  0  0  0  0
   37.2520   32.5700   43.1220 C   0  0  0  0  0  0  0  0  0  0  0  0
   37.6450   33.2570   43.8460 H   0  0  0  0  0  0  0  0  0  0  0  0
   35.9720   32.8710   42.6610 C   0  0  0  0  0  0  0  0  0  0  0  0
   35.4320   33.7390   43.0210 H   0  0  0  0  0  0  0  0  0  0  0  0
   35.3900   32.0300   41.7200 C   0  0  0  0  0  3  0  0  0  0  0  0
   36.0740   30.9280   41.2620 C   0  0  0  0  0  3  0  0  0  0  0  0
   37.3030   30.6360   41.7020 N   0  0  0  0  0  0  0  0  0  0  0  0
  1  2  1  0  0  0  0
  2  3  2  0  0  0  0
  2  7  1  0  0  0  0
  3  8  1  0  0  0  0
  4  9  1  0  0  0  0
  4  3  1  0  0  0  0
  5  4  2  0  0  0  0
  6  5  1  0  0  0  0
  6  1  2  0  0  0  0
 10  5  1  0  0  0  0
 11 12  1  6  0  0  0
 11  1  1  0  0  0  0
 11 22  1  0  0  0  0
 13 14  2  0  0  0  0
 13 18  1  0  0  0  0
 14 15  1  0  0  0  0
 15 21  1  0  0  0  0
 15 16  2  0  0  0  0
 17 16  1  0  0  0  0
 17 11  1  0  0  0  0
 18 17  2  0  0  0  0
 19 13  1  0  0  0  0
 20 14  1  0  0  0  0
 22 23  1  0  0  0  0
 24  6  1  0  0  0  0
 25 24  2  0  0  0  0
 26 27  1  0  0  0  0
 26 25  1  0  0  0  0
 28 26  1  0  0  0  0
 29 26  1  0  0  0  0
 30 31  1  0  0  0  0
 30 29  1  0  0  0  0
 31 32  1  0  0  0  0
 33 34  1  0  0  0  0
 33 31  2  0  0  0  0
 35 33  1  0  0  0  0
 36 37  1  0  0  0  0
 36 35  2  0  0  0  0
 37 30  2  0  0  0  0
M  END
>  <minimizedAffinity>
-5.55966091

>  <minimizedRMSD>
0.362298578

$$$$
