REMARK  Name = 
REMARK  7 active torsions:
REMARK  status: ('A' for Active; 'I' for Inactive)
REMARK    1  A    between atoms: C_1  and  C_7
REMARK    2  A    between atoms: C_6  and  C_15
REMARK    3  A    between atoms: C_7  and  O_8
REMARK    4  A    between atoms: C_7  and  C_13
REMARK    5  A    between atoms: C_16  and  C_17
REMARK    6  A    between atoms: C_17  and  S_18
REMARK    7  A    between atoms: S_18  and  C_32
REMARK                            x       y       z     vdW  Elec       q    Type
REMARK                         _______ _______ _______ _____ _____    ______ ____
ROOT
ATOM      1  C   UNL     1      37.080  30.949  49.027  0.00  0.00    +0.000 A 
ATOM      2  C   UNL     1      36.809  31.880  50.033  0.00  0.00    +0.000 A 
ATOM      3  C   UNL     1      37.422  33.122  50.064  0.00  0.00    +0.000 A 
ATOM      4  C   UNL     1      38.340  33.460  49.059  0.00  0.00    +0.000 A 
ATOM      5  C   UNL     1      38.591  32.541  48.088  0.00  0.00    +0.000 A 
ATOM      6  C   UNL     1      37.961  31.304  48.085  0.00  0.00    +0.000 A 
ATOM      7  H   UNL     1      36.083  31.565  50.794  0.00  0.00    +0.000 HD
ATOM      8  H   UNL     1      37.113  33.732  50.901  0.00  0.00    +0.000 HD
ATOM      9  H   UNL     1      38.761  34.436  49.163  0.00  0.00    +0.000 HD
ATOM     10  H   UNL     1      39.324  32.943  47.382  0.00  0.00    +0.000 HD
ENDROOT
BRANCH   1  11
ATOM     11  C   UNL     1      36.466  29.639  49.017  0.00  0.00    +0.000 C 
ATOM     12  H   UNL     1      37.007  29.058  48.176  0.00  0.00    +0.000 HD
BRANCH  11  17
ATOM     13  C   UNL     1      33.614  30.148  46.823  0.00  0.00    +0.000 A 
ATOM     14  C   UNL     1      32.953  28.933  46.846  0.00  0.00    +0.000 A 
ATOM     15  C   UNL     1      33.448  27.938  47.669  0.00  0.00    +0.000 A 
ATOM     16  N   UNL     1      34.569  28.187  48.428  0.00  0.00    +0.000 NA
ATOM     17  C   UNL     1      35.156  29.364  48.361  0.00  0.00    +0.000 A 
ATOM     18  N   UNL     1      34.685  30.351  47.564  0.00  0.00    +0.000 NA
ATOM     19  H   UNL     1      33.224  30.937  46.173  0.00  0.00    +0.000 HD
ATOM     20  H   UNL     1      32.081  28.736  46.255  0.00  0.00    +0.000 HD
ATOM     21  H   UNL     1      33.001  26.959  47.757  0.00  0.00    +0.000 HD
ENDBRANCH  11  17
BRANCH  11  22
ATOM     22  O   UNL     1      36.863  28.900  49.992  0.00  0.00    +0.000 OA
ATOM     23  H   UNL     1      36.298  28.209  50.408  0.00  0.00    +0.000 HD
ENDBRANCH  11  22
ENDBRANCH   1  11
BRANCH   6  24
ATOM     24  C   UNL     1      38.344  30.417  47.012  0.00  0.00    +0.000 C 
ATOM     25  C   UNL     1      38.821  30.837  45.835  0.00  0.00    +0.000 C 
BRANCH  25  26
ATOM     26  C   UNL     1      39.287  30.023  44.690  0.00  0.00    +0.000 C 
ATOM     27  H   UNL     1      40.358  29.791  44.863  0.00  0.00    +0.000 HD
ATOM     28  H   UNL     1      38.651  29.123  44.616  0.00  0.00    +0.000 HD
BRANCH  26  29
ATOM     29  S   UNL     1      39.184  30.993  43.179  0.00  0.00    +0.000 S 
BRANCH  29  30
ATOM     30  C   UNL     1      37.475  31.356  42.758  0.00  0.00    +0.000 A 
ATOM     31  C   UNL     1      36.940  30.360  41.933  0.00  0.00    +0.000 A 
ATOM     32  H   UNL     1      37.439  29.482  41.570  0.00  0.00    +0.000 HD
ATOM     33  C   UNL     1      35.616  30.495  41.522  0.00  0.00    +0.000 A 
ATOM     34  H   UNL     1      35.146  29.757  40.883  0.00  0.00    +0.000 HD
ATOM     35  C   UNL     1      34.898  31.607  41.950  0.00  0.00    +0.000 A 
ATOM     36  C   UNL     1      35.495  32.544  42.761  0.00  0.00    +0.000 A 
ATOM     37  N   UNL     1      36.766  32.417  43.157  0.00  0.00    +0.000 NA
ENDBRANCH  29  30
ENDBRANCH  26  29
ENDBRANCH  25  26
ENDBRANCH   6  24
TORSDOF 7
