
 OpenBabel03272509423D

 37 39  0  0  1  0  0  0  0  0999 V2000
   37.0400   30.9370   49.0270 C   0  0  0  0  0  0  0  0  0  0  0  0
   36.7580   31.8340   50.0610 C   0  0  0  0  0  0  0  0  0  0  0  0
   37.3600   33.0800   50.1310 C   0  0  0  0  0  0  0  0  0  0  0  0
   38.2760   33.4580   49.1390 C   0  0  0  0  0  0  0  0  0  0  0  0
   38.5370   32.5710   48.1400 C   0  0  0  0  0  0  0  0  0  0  0  0
   37.9190   31.3290   48.0980 C   0  0  0  0  0  0  0  0  0  0  0  0
   36.0340   31.4890   50.8110 H   0  0  0  0  0  0  0  0  0  0  0  0
   37.0440   33.6610   50.9860 H   0  0  0  0  0  0  0  0  0  0  0  0
   38.6880   34.4340   49.2730 H   0  0  0  0  0  0  0  0  0  0  0  0
   39.2670   33.0020   47.4480 H   0  0  0  0  0  0  0  0  0  0  0  0
   36.4380   29.6220   48.9760 C   0  0  2  0  0  0  0  0  0  0  0  0
   36.9460   29.0920   48.0830 H   0  0  0  0  0  0  0  0  0  0  0  0
   33.6280   30.0260   46.7080 C   0  0  0  0  0  0  0  0  0  0  0  0
   32.8560   28.8990   46.9270 C   0  0  0  0  0  0  0  0  0  0  0  0
   33.2630   28.0120   47.9060 C   0  0  0  0  0  0  0  0  0  0  0  0
   34.4090   28.2770   48.6220 N   0  0  0  0  0  0  0  0  0  0  0  0
   35.1020   29.3670   48.3650 C   0  0  0  0  0  0  0  0  0  0  0  0
   34.7190   30.2480   47.4130 N   0  0  0  0  0  0  0  0  0  0  0  0
   33.3080   30.7300   45.9330 H   0  0  0  0  0  0  0  0  0  0  0  0
   31.9650   28.6900   46.3700 H   0  0  0  0  0  0  0  0  0  0  0  0
   32.7270   27.1070   48.1520 H   0  0  0  0  0  0  0  0  0  0  0  0
   36.8850   28.8380   49.8930 O   0  0  0  0  0  0  0  0  0  0  0  0
   36.3460   28.1200   50.2970 H   0  0  0  0  0  0  0  0  0  0  0  0
   38.3110   30.4790   46.9990 C   0  0  0  0  0  3  0  0  0  0  0  0
   38.9450   30.9210   45.9070 C   0  0  0  0  0  3  0  0  0  0  0  0
   39.4350   30.1390   44.7500 C   0  0  0  0  0  0  0  0  0  0  0  0
   40.5350   30.0460   44.8560 H   0  0  0  0  0  0  0  0  0  0  0  0
   38.9120   29.1660   44.7360 H   0  0  0  0  0  0  0  0  0  0  0  0
   39.1160   31.0470   43.2300 S   0  0  0  0  0  0  0  0  0  0  0  0
   37.3780   31.4820   43.0890 C   0  0  0  0  0  0  0  0  0  0  0  0
   36.5620   30.3770   43.3580 C   0  0  0  0  0  0  0  0  0  0  0  0
   36.8770   29.3840   43.6140 H   0  0  0  0  0  0  0  0  0  0  0  0
   35.1810   30.5560   43.2920 C   0  0  0  0  0  0  0  0  0  0  0  0
   34.4980   29.7390   43.4900 H   0  0  0  0  0  0  0  0  0  0  0  0
   34.6890   31.8150   42.9660 C   0  0  0  0  0  3  0  0  0  0  0  0
   35.5560   32.8520   42.7150 C   0  0  0  0  0  3  0  0  0  0  0  0
   36.8820   32.6840   42.7760 N   0  0  0  0  0  0  0  0  0  0  0  0
  1  2  1  0  0  0  0
  2  3  2  0  0  0  0
  2  7  1  0  0  0  0
  3  8  1  0  0  0  0
  4  9  1  0  0  0  0
  4  3  1  0  0  0  0
  5  4  2  0  0  0  0
  6  5  1  0  0  0  0
  6  1  2  0  0  0  0
 10  5  1  0  0  0  0
 11 12  1  6  0  0  0
 11  1  1  0  0  0  0
 11 22  1  0  0  0  0
 13 14  2  0  0  0  0
 13 18  1  0  0  0  0
 14 15  1  0  0  0  0
 15 21  1  0  0  0  0
 15 16  2  0  0  0  0
 17 16  1  0  0  0  0
 17 11  1  0  0  0  0
 18 17  2  0  0  0  0
 19 13  1  0  0  0  0
 20 14  1  0  0  0  0
 22 23  1  0  0  0  0
 24  6  1  0  0  0  0
 25 24  2  0  0  0  0
 26 27  1  0  0  0  0
 26 25  1  0  0  0  0
 28 26  1  0  0  0  0
 29 26  1  0  0  0  0
 30 29  1  0  0  0  0
 30 31  1  0  0  0  0
 31 32  1  0  0  0  0
 33 31  2  0  0  0  0
 33 34  1  0  0  0  0
 35 33  1  0  0  0  0
 36 37  1  0  0  0  0
 36 35  2  0  0  0  0
 37 30  2  0  0  0  0
M  END
>  <minimizedAffinity>
-5.57171059

>  <minimizedRMSD>
0.44488126

$$$$
