
 OpenBabel03272509423D

 37 39  0  0  1  0  0  0  0  0999 V2000
   36.9240   30.9200   48.9630 C   0  0  0  0  0  0  0  0  0  0  0  0
   36.6440   31.7910   50.0190 C   0  0  0  0  0  0  0  0  0  0  0  0
   37.2770   33.0170   50.1420 C   0  0  0  0  0  0  0  0  0  0  0  0
   38.2250   33.4010   49.1830 C   0  0  0  0  0  0  0  0  0  0  0  0
   38.4850   32.5390   48.1620 C   0  0  0  0  0  0  0  0  0  0  0  0
   37.8340   31.3170   48.0660 C   0  0  0  0  0  0  0  0  0  0  0  0
   35.8940   31.4430   50.7410 H   0  0  0  0  0  0  0  0  0  0  0  0
   36.9570   33.5800   51.0090 H   0  0  0  0  0  0  0  0  0  0  0  0
   38.6600   34.3600   49.3580 H   0  0  0  0  0  0  0  0  0  0  0  0
   39.2420   32.9710   47.5010 H   0  0  0  0  0  0  0  0  0  0  0  0
   36.2880   29.6250   48.8560 C   0  0  2  0  0  0  0  0  0  0  0  0
   36.7900   29.1160   47.9470 H   0  0  0  0  0  0  0  0  0  0  0  0
   33.5380   30.1460   46.5380 C   0  0  0  0  0  0  0  0  0  0  0  0
   32.7090   29.0590   46.7520 C   0  0  0  0  0  0  0  0  0  0  0  0
   33.0570   28.1610   47.7450 C   0  0  0  0  0  0  0  0  0  0  0  0
   34.2020   28.3760   48.4780 N   0  0  0  0  0  0  0  0  0  0  0  0
   34.9520   29.4290   48.2250 C   0  0  0  0  0  0  0  0  0  0  0  0
   34.6270   30.3200   47.2590 N   0  0  0  0  0  0  0  0  0  0  0  0
   33.2650   30.8580   45.7540 H   0  0  0  0  0  0  0  0  0  0  0  0
   31.8180   28.8880   46.1830 H   0  0  0  0  0  0  0  0  0  0  0  0
   32.4740   27.2850   47.9880 H   0  0  0  0  0  0  0  0  0  0  0  0
   36.7060   28.7950   49.7450 O   0  0  0  0  0  0  0  0  0  0  0  0
   36.1440   28.0760   50.1160 H   0  0  0  0  0  0  0  0  0  0  0  0
   38.2290   30.4920   46.9490 C   0  0  0  0  0  3  0  0  0  0  0  0
   38.9900   30.9250   45.9380 C   0  0  0  0  0  3  0  0  0  0  0  0
   39.4920   30.1600   44.7740 C   0  0  0  0  0  0  0  0  0  0  0  0
   40.5920   30.0730   44.8850 H   0  0  0  0  0  0  0  0  0  0  0  0
   38.9770   29.1830   44.7460 H   0  0  0  0  0  0  0  0  0  0  0  0
   39.1750   31.0830   43.2640 S   0  0  0  0  0  0  0  0  0  0  0  0
   37.4310   31.4850   43.1040 C   0  0  0  0  0  0  0  0  0  0  0  0
   36.6360   30.3490   43.2990 C   0  0  0  0  0  0  0  0  0  0  0  0
   36.9700   29.3530   43.5130 H   0  0  0  0  0  0  0  0  0  0  0  0
   35.2530   30.4990   43.2120 C   0  0  0  0  0  0  0  0  0  0  0  0
   34.5860   29.6580   43.3530 H   0  0  0  0  0  0  0  0  0  0  0  0
   34.7370   31.7610   42.9370 C   0  0  0  0  0  3  0  0  0  0  0  0
   35.5860   32.8290   42.7580 C   0  0  0  0  0  3  0  0  0  0  0  0
   36.9140   32.6890   42.8420 N   0  0  0  0  0  0  0  0  0  0  0  0
  1  2  1  0  0  0  0
  2  3  2  0  0  0  0
  2  7  1  0  0  0  0
  3  8  1  0  0  0  0
  4  9  1  0  0  0  0
  4  3  1  0  0  0  0
  5  4  2  0  0  0  0
  6  5  1  0  0  0  0
  6  1  2  0  0  0  0
 10  5  1  0  0  0  0
 11 12  1  6  0  0  0
 11  1  1  0  0  0  0
 11 22  1  0  0  0  0
 13 14  2  0  0  0  0
 13 18  1  0  0  0  0
 14 15  1  0  0  0  0
 15 21  1  0  0  0  0
 15 16  2  0  0  0  0
 17 16  1  0  0  0  0
 17 11  1  0  0  0  0
 18 17  2  0  0  0  0
 19 13  1  0  0  0  0
 20 14  1  0  0  0  0
 22 23  1  0  0  0  0
 24  6  1  0  0  0  0
 25 24  2  0  0  0  0
 26 27  1  0  0  0  0
 26 25  1  0  0  0  0
 28 26  1  0  0  0  0
 29 26  1  0  0  0  0
 30 29  1  0  0  0  0
 30 31  1  0  0  0  0
 31 32  1  0  0  0  0
 33 31  2  0  0  0  0
 33 34  1  0  0  0  0
 35 33  1  0  0  0  0
 36 37  1  0  0  0  0
 36 35  2  0  0  0  0
 37 30  2  0  0  0  0
M  END
>  <minimizedAffinity>
-5.51563549

>  <minimizedRMSD>
0.475940287

$$$$
