
     RDKit          3D

 27 29  0  0  0  0  0  0  0  0999 V2000
   37.5204   31.4037   49.3304 C   0  0  0  0  0  0  0  0  0  0  0  0
   38.1539   32.6436   49.4111 C   0  0  0  0  0  0  0  0  0  0  0  0
   38.9478   32.9768   48.3046 C   0  0  0  0  0  0  0  0  0  0  0  0
   39.0685   32.1155   47.2339 N   0  0  0  0  0  0  0  0  0  0  0  0
   38.4235   30.9211   47.2196 C   0  0  0  0  0  0  0  0  0  0  0  0
   37.6440   30.5677   48.2808 N   0  0  0  0  0  0  0  0  0  0  0  0
   36.6349   31.0345   50.4916 C   0  0  1  0  0  0  0  0  0  0  0  0
   36.1393   29.6877   50.6605 C   0  0  2  0  0  0  0  0  0  0  0  0
   37.3410   30.1053   51.4814 C   0  0  0  0  0  0  0  0  0  0  0  0
   36.4028   28.7321   49.6652 O   0  0  0  0  0  0  0  0  0  0  0  0
   38.0525   33.3102   50.2542 H   0  0  0  0  0  0  0  0  0  0  0  0
   39.4759   33.9360   48.2986 H   0  0  0  0  0  0  0  0  0  0  0  0
   38.5643   30.2979   46.3481 H   0  0  0  0  0  0  0  0  0  0  0  0
   36.0778   31.8908   50.9529 H   0  0  0  0  0  0  0  0  0  0  0  0
   35.1665   29.5256   51.1688 H   0  0  0  0  0  0  0  0  0  0  0  0
   37.0876   30.3143   52.5360 H   0  0  0  0  0  0  0  0  0  0  0  0
   38.3302   29.7240   51.2398 H   0  0  0  0  0  0  0  0  0  0  0  0
   35.5398   27.6949   49.3497 C   0  0  0  0  0  0  0  0  0  0  0  0
   34.5649   27.5006   50.3234 C   0  0  0  0  0  0  0  0  0  0  0  0
   34.4657   28.0849   51.2448 H   0  0  0  0  0  0  0  0  0  0  0  0
   33.6271   26.4860   50.1338 C   0  0  0  0  0  0  0  0  0  0  0  0
   32.8191   26.2469   50.8347 H   0  0  0  0  0  0  0  0  0  0  0  0
   33.6597   25.6992   49.0213 C   0  0  0  0  0  0  0  0  0  0  0  0
   34.6473   25.9386   48.0926 C   0  0  0  0  0  0  0  0  0  0  0  0
   35.5642   26.9120   48.2530 N   0  0  0  0  0  0  0  0  0  0  0  0
   32.9536   24.9012   48.8319 H   0  0  0  0  0  0  0  0  0  0  0  0
   34.6949   25.3317   47.2061 H   0  0  0  0  0  0  0  0  0  0  0  0
  1  2  2  0
  1  7  1  0
  3  2  1  0
  4  3  2  0
  5  4  1  0
  5  6  2  0
  6  1  1  0
  7  8  1  0
  7  9  1  0
  8  9  1  0
 10  8  1  0
  2 11  1  0
  3 12  1  0
  5 13  1  0
  7 14  1  1
  8 15  1  1
  9 16  1  0
  9 17  1  0
 18 19  2  0
 19 20  1  0
 19 21  1  0
 21 22  1  0
 21 23  2  0
 23 24  1  0
 24 25  2  0
 25 18  1  0
 23 26  1  0
 24 27  1  0
 10 18  1  0
M  ISO  8  11  14  12  14  13  14  14  13  15  13  16  13  17  13  20  15
M  ISO  1  22  16
M  END
>  <DihAtoms>  (1) 
7,9,17,18

>  <DihDeg>  (1) 
179.9984789313233

$$$$
