
 OpenBabel03272510113D

 34 37  0  0  0  0  0  0  0  0999 V2000
   32.9340   28.2740   49.1190 C   0  0  0  0  0  0  0  0  0  0  0  0
   33.1890   29.1000   50.1560 C   0  0  0  0  0  0  0  0  0  0  0  0
   34.4380   29.5890   50.4790 C   0  0  0  0  0  0  0  0  0  0  0  0
   35.5210   29.2430   49.7280 C   0  0  0  0  0  0  0  0  0  0  0  0
   35.2680   28.3870   48.6500 C   0  0  0  0  0  0  0  0  0  0  0  0
   34.0310   27.9360   48.3750 N   0  0  0  0  0  0  0  0  0  0  0  0
   32.3890   29.4260   50.8050 H   0  0  0  0  0  0  0  0  0  0  0  0
   34.6330   30.2520   51.3140 H   0  0  0  0  0  0  0  0  0  0  0  0
   36.0940   28.0790   48.0200 H   0  0  0  0  0  0  0  0  0  0  0  0
   30.5210   27.8610   49.6090 C   0  0  0  0  0  0  0  0  0  0  0  0
   31.6430   27.7610   48.7750 C   0  0  0  0  0  0  0  0  0  0  0  0
   31.4450   27.1230   47.5640 C   0  0  0  0  0  0  0  0  0  0  0  0
   30.2090   26.6360   47.2440 N   0  0  0  0  0  0  0  0  0  0  0  0
   29.1660   26.7700   48.1040 C   0  0  0  0  0  0  0  0  0  0  0  0
   29.3090   27.3840   49.2960 N   0  0  0  0  0  0  0  0  0  0  0  0
   30.6230   28.3510   50.5680 H   0  0  0  0  0  0  0  0  0  0  0  0
   32.2990   27.0360   46.9080 H   0  0  0  0  0  0  0  0  0  0  0  0
   28.2570   26.3380   47.7130 H   0  0  0  0  0  0  0  0  0  0  0  0
   36.8480   29.6480   49.9180 O   0  0  0  0  0  0  0  0  0  0  0  0
   37.4560   30.5430   49.0540 C   0  0  0  0  0  0  0  0  0  0  0  0
   38.0520   31.6350   49.6900 C   0  0  0  0  0  0  0  0  0  0  0  0
   38.6230   32.4480   48.7010 C   0  0  0  0  0  0  0  0  0  0  0  0
   38.3500   31.8210   47.5390 N   0  0  0  0  0  0  0  0  0  0  0  0
   37.6750   30.7160   47.7350 N   0  0  0  0  0  0  0  0  0  0  0  0
   38.1600   31.9670   50.7160 H   0  0  0  0  0  0  0  0  0  0  0  0
   39.1720   33.3770   48.7560 H   0  0  0  0  0  0  0  0  0  0  0  0
   38.7370   32.2820   46.2440 C   0  0  0  0  0  0  0  0  0  0  0  0
   39.9850   32.8570   46.1070 C   0  0  0  0  0  0  0  0  0  0  0  0
   40.6850   32.9830   46.8960 H   0  0  0  0  0  0  0  0  0  0  0  0
   40.3570   33.3020   44.8560 C   0  0  0  0  0  0  0  0  0  0  0  0
   41.3290   33.7680   44.6650 H   0  0  0  0  0  0  0  0  0  0  0  0
   39.5450   33.2040   43.7240 C   0  0  0  0  0  3  0  0  0  0  0  0
   38.3040   32.6120   43.9490 C   0  0  0  0  0  3  0  0  0  0  0  0
   37.9250   32.1700   45.1730 N   0  0  0  0  0  0  0  0  0  0  0  0
  1  2  1  0  0  0  0
  2  3  2  0  0  0  0
  2  7  1  0  0  0  0
  3  8  1  0  0  0  0
  4 19  1  0  0  0  0
  4  3  1  0  0  0  0
  5  4  2  0  0  0  0
  6  5  1  0  0  0  0
  6  1  2  0  0  0  0
  9  5  1  0  0  0  0
 10 16  1  0  0  0  0
 11  1  1  0  0  0  0
 11 10  2  0  0  0  0
 12 11  1  0  0  0  0
 13 12  2  0  0  0  0
 13 14  1  0  0  0  0
 14 15  2  0  0  0  0
 15 10  1  0  0  0  0
 17 12  1  0  0  0  0
 18 14  1  0  0  0  0
 20 21  1  0  0  0  0
 20 19  1  0  0  0  0
 21 25  1  0  0  0  0
 22 26  1  0  0  0  0
 22 21  2  0  0  0  0
 23 24  1  0  0  0  0
 23 22  1  0  0  0  0
 24 20  2  0  0  0  0
 27 23  1  0  0  0  0
 28 27  1  0  0  0  0
 28 29  1  0  0  0  0
 30 28  2  0  0  0  0
 31 30  1  0  0  0  0
 32 33  2  0  0  0  0
 32 30  1  0  0  0  0
 33 34  1  0  0  0  0
 34 27  2  0  0  0  0
M  END
>  <minimizedAffinity>
-5.94102335

>  <minimizedRMSD>
1.94287026

$$$$
