
 OpenBabel03272508023D

 27 29  0  0  0  0  0  0  0  0999 V2000
   39.1260   29.4340   42.1840 C   0  0  0  0  0  0  0  0  0  0  0  0
   39.3110   28.2080   42.7770 C   0  0  0  0  0  0  0  0  0  0  0  0
   40.0950   27.4050   41.9300 C   0  0  0  0  0  0  0  0  0  0  0  0
   40.3510   28.1970   40.8520 N   0  0  0  0  0  0  0  0  0  0  0  0
   39.7810   29.3630   41.0200 N   0  0  0  0  0  0  0  0  0  0  0  0
   38.8780   27.9850   43.7510 H   0  0  0  0  0  0  0  0  0  0  0  0
   40.3190   26.4230   42.2650 H   0  0  0  0  0  0  0  0  0  0  0  0
   38.3770   30.5740   42.7060 C   0  0  0  0  0  0  0  0  0  0  0  0
   37.9180   31.5450   41.7880 C   0  0  0  0  0  0  0  0  0  0  0  0
   37.2010   32.6390   42.2830 C   0  0  0  0  0  0  0  0  0  0  0  0
   36.9910   32.6950   43.6240 N   0  0  0  0  0  0  0  0  0  0  0  0
   37.4350   31.7630   44.4850 C   0  0  0  0  0  0  0  0  0  0  0  0
   38.1280   30.7080   44.0020 N   0  0  0  0  0  0  0  0  0  0  0  0
   38.0980   31.4730   40.7390 H   0  0  0  0  0  0  0  0  0  0  0  0
   37.2270   31.8810   45.5400 H   0  0  0  0  0  0  0  0  0  0  0  0
   36.7130   33.6660   41.3220 C   0  0  0  0  0  0  0  0  0  0  0  0
   36.2480   32.9770   40.2320 F   0  0  0  0  0  0  0  0  0  0  0  0
   35.6680   34.4140   41.8450 F   0  0  0  0  0  0  0  0  0  0  0  0
   37.7270   34.5140   40.9040 F   0  0  0  0  0  0  0  0  0  0  0  0
   41.1400   27.6530   39.7990 C   0  0  0  0  0  0  0  0  0  0  0  0
   40.9450   26.4590   39.1410 C   0  0  0  0  0  0  0  0  0  0  0  0
   40.0890   25.8900   39.4820 H   0  0  0  0  0  0  0  0  0  0  0  0
   41.7990   26.0780   38.1450 C   0  0  0  0  0  0  0  0  0  0  0  0
   41.6190   25.1230   37.6390 H   0  0  0  0  0  0  0  0  0  0  0  0
   42.8730   26.8440   37.7540 C   0  0  0  0  0  3  0  0  0  0  0  0
   43.0290   28.0470   38.4510 C   0  0  0  0  0  3  0  0  0  0  0  0
   42.1890   28.4490   39.4490 N   0  0  0  0  0  0  0  0  0  0  0  0
  1  8  1  0  0  0  0
  1  2  1  0  0  0  0
  2  6  1  0  0  0  0
  3  7  1  0  0  0  0
  3  2  2  0  0  0  0
  4  5  1  0  0  0  0
  4  3  1  0  0  0  0
  5  1  2  0  0  0  0
  8 13  1  0  0  0  0
  9 10  1  0  0  0  0
  9  8  2  0  0  0  0
 10 11  2  0  0  0  0
 11 12  1  0  0  0  0
 12 15  1  0  0  0  0
 13 12  2  0  0  0  0
 14  9  1  0  0  0  0
 16 18  1  0  0  0  0
 16 10  1  0  0  0  0
 17 16  1  0  0  0  0
 19 16  1  0  0  0  0
 20  4  1  0  0  0  0
 21 22  1  0  0  0  0
 21 20  2  0  0  0  0
 23 21  1  0  0  0  0
 24 23  1  0  0  0  0
 25 23  2  0  0  0  0
 25 26  1  0  0  0  0
 26 27  2  0  0  0  0
 27 20  1  0  0  0  0
M  END
>  <minimizedAffinity>
-3.29069757

>  <minimizedRMSD>
6.18585491

$$$$
