
 OpenBabel03272508023D

 27 29  0  0  0  0  0  0  0  0999 V2000
   38.9320   29.8570   44.1270 C   0  0  0  0  0  0  0  0  0  0  0  0
   37.5720   30.0570   44.1550 C   0  0  0  0  0  0  0  0  0  0  0  0
   37.2190   30.6130   45.3970 C   0  0  0  0  0  0  0  0  0  0  0  0
   38.3980   30.7240   46.0690 N   0  0  0  0  0  0  0  0  0  0  0  0
   39.3740   30.2810   45.3160 N   0  0  0  0  0  0  0  0  0  0  0  0
   36.9490   29.7950   43.3020 H   0  0  0  0  0  0  0  0  0  0  0  0
   36.1900   30.8220   45.5590 H   0  0  0  0  0  0  0  0  0  0  0  0
   39.7310   29.3010   43.0370 C   0  0  0  0  0  0  0  0  0  0  0  0
   39.3010   28.0910   42.4490 C   0  0  0  0  0  0  0  0  0  0  0  0
   40.0620   27.5540   41.4060 C   0  0  0  0  0  0  0  0  0  0  0  0
   41.1720   28.2390   41.0240 N   0  0  0  0  0  0  0  0  0  0  0  0
   41.5670   29.3900   41.5940 C   0  0  0  0  0  0  0  0  0  0  0  0
   40.8290   29.9040   42.6020 N   0  0  0  0  0  0  0  0  0  0  0  0
   38.4240   27.5760   42.7710 H   0  0  0  0  0  0  0  0  0  0  0  0
   42.4640   29.8750   41.2320 H   0  0  0  0  0  0  0  0  0  0  0  0
   39.6160   26.2800   40.7800 C   0  0  0  0  0  0  0  0  0  0  0  0
   38.5310   26.5950   40.0050 F   0  0  0  0  0  0  0  0  0  0  0  0
   40.5930   25.7310   39.9600 F   0  0  0  0  0  0  0  0  0  0  0  0
   39.2240   25.3430   41.7240 F   0  0  0  0  0  0  0  0  0  0  0  0
   38.3670   31.2660   47.3840 C   0  0  0  0  0  0  0  0  0  0  0  0
   37.9220   30.6470   48.5310 C   0  0  0  0  0  0  0  0  0  0  0  0
   37.5610   29.6360   48.3880 H   0  0  0  0  0  0  0  0  0  0  0  0
   37.9590   31.3100   49.7270 C   0  0  0  0  0  0  0  0  0  0  0  0
   37.5980   30.7910   50.6220 H   0  0  0  0  0  0  0  0  0  0  0  0
   38.4290   32.5960   49.8480 C   0  0  0  0  0  3  0  0  0  0  0  0
   38.8700   33.1820   48.6550 C   0  0  0  0  0  3  0  0  0  0  0  0
   38.8430   32.5400   47.4510 N   0  0  0  0  0  0  0  0  0  0  0  0
  1  2  1  0  0  0  0
  1  5  2  0  0  0  0
  2  3  2  0  0  0  0
  3  7  1  0  0  0  0
  3  4  1  0  0  0  0
  4 20  1  0  0  0  0
  5  4  1  0  0  0  0
  6  2  1  0  0  0  0
  8  1  1  0  0  0  0
  9 14  1  0  0  0  0
  9  8  2  0  0  0  0
 10  9  1  0  0  0  0
 11 10  2  0  0  0  0
 11 12  1  0  0  0  0
 12 13  2  0  0  0  0
 13  8  1  0  0  0  0
 15 12  1  0  0  0  0
 16 10  1  0  0  0  0
 16 19  1  0  0  0  0
 17 16  1  0  0  0  0
 18 16  1  0  0  0  0
 20 27  2  0  0  0  0
 20 21  1  0  0  0  0
 21 23  2  0  0  0  0
 22 21  1  0  0  0  0
 23 25  1  0  0  0  0
 23 24  1  0  0  0  0
 26 25  2  0  0  0  0
 27 26  1  0  0  0  0
M  END
>  <minimizedAffinity>
-5.26932907

>  <minimizedRMSD>
7.85555553

$$$$
