
 OpenBabel03272504413D

 44 46  0  0  0  0  0  0  0  0999 V2000
   34.3830   29.1230   48.8170 C   0  0  0  0  0  0  0  0  0  0  0  0
   35.2630   29.0230   49.4930 H   0  0  0  0  0  0  0  0  0  0  0  0
   33.8030   29.9740   49.2840 H   0  0  0  0  0  0  0  0  0  0  0  0
   37.1390   30.2400   48.7380 Cl  0  0  0  0  0  0  0  0  0  0  0  0
   36.0850   30.1160   47.3290 C   0  0  0  0  0  0  0  0  0  0  0  0
   36.5350   30.5480   46.1320 C   0  0  0  0  0  0  0  0  0  0  0  0
   35.7240   30.4570   45.0200 C   0  0  0  0  0  0  0  0  0  0  0  0
   34.4490   29.9180   45.1590 C   0  0  0  0  0  0  0  0  0  0  0  0
   34.0550   29.4910   46.4420 C   0  0  0  0  0  0  0  0  0  0  0  0
   34.8370   29.5730   47.5340 C   0  0  0  0  0  0  0  0  0  0  0  0
   36.1120   30.8150   44.0590 H   0  0  0  0  0  0  0  0  0  0  0  0
   33.9020   29.8910   44.2430 H   0  0  0  0  0  0  0  0  0  0  0  0
   33.0960   29.1320   46.3400 H   0  0  0  0  0  0  0  0  0  0  0  0
   39.5050   32.6960   46.5190 C   0  0  0  0  0  0  0  0  0  0  0  0
   40.4100   32.0690   45.6080 C   0  0  0  0  0  0  0  0  0  0  0  0
   39.9610   30.9460   44.9100 C   0  0  0  0  0  0  0  0  0  0  0  0
   38.6950   30.4910   45.1160 N   0  0  0  0  0  0  0  0  0  0  0  0
   37.8650   31.1140   45.9880 C   0  0  0  0  0  0  0  0  0  0  0  0
   38.2770   32.1880   46.6650 N   0  0  0  0  0  0  0  0  0  0  0  0
   39.8430   33.5670   47.0660 H   0  0  0  0  0  0  0  0  0  0  0  0
   41.3840   32.5200   45.5310 H   0  0  0  0  0  0  0  0  0  0  0  0
   40.8740   30.3490   44.0160 N   0  0  0  0  0  0  0  0  0  0  0  0
   41.0500   30.9960   43.2010 H   0  0  0  0  0  0  0  0  0  0  0  0
   41.3440   29.4170   44.0800 H   0  0  0  0  0  0  0  0  0  0  0  0
   33.5940   27.8940   48.9330 C   0  0  0  0  0  0  0  0  0  0  0  0
   33.6690   27.3280   47.9610 H   0  0  0  0  0  0  0  0  0  0  0  0
   33.9810   27.1810   49.6990 H   0  0  0  0  0  0  0  0  0  0  0  0
   32.2920   28.1610   49.2680 O   0  0  0  0  0  0  0  0  0  0  0  0
   31.9800   26.4810   47.2730 O   0  0  0  0  0  0  0  0  0  0  0  0
   31.2460   27.3890   48.2280 P   0  0  2  0  0  0  0  0  0  0  0  0
   30.4490   28.6400   47.3330 O   0  0  0  0  0  0  0  0  0  0  0  0
   29.2290   28.4900   46.7330 C   0  0  0  0  0  0  0  0  0  0  0  0
   28.7450   27.4600   45.9610 C   0  0  0  0  0  0  0  0  0  0  0  0
   29.4360   26.6660   45.8170 H   0  0  0  0  0  0  0  0  0  0  0  0
   27.4720   27.4840   45.4340 C   0  0  0  0  0  0  0  0  0  0  0  0
   27.1420   26.6550   44.8380 H   0  0  0  0  0  0  0  0  0  0  0  0
   26.6540   28.5640   45.6810 C   0  0  0  0  0  0  0  0  0  0  0  0
   27.1540   29.5890   46.4570 C   0  0  0  0  0  0  0  0  0  0  0  0
   28.4130   29.5580   46.9740 N   0  0  0  0  0  0  0  0  0  0  0  0
   30.0570   26.5430   49.0030 O   0  0  0  0  0  0  0  0  0  0  0  0
   29.4690   27.3100   49.9870 C   0  0  0  0  0  0  0  0  0  0  0  0
   29.3060   26.6070   51.1790 F   0  0  0  0  0  0  0  0  0  0  0  0
   30.2560   28.3950   50.3100 F   0  0  0  0  0  0  0  0  0  0  0  0
   28.2180   27.7510   49.5690 F   0  0  0  0  0  0  0  0  0  0  0  0
  1 25  1  0  0  0  0
  1  3  1  0  0  0  0
  1  2  1  0  0  0  0
  5 10  1  0  0  0  0
  5  4  1  0  0  0  0
  6  5  2  0  0  0  0
  7  8  2  0  0  0  0
  7  6  1  0  0  0  0
  8  9  1  0  0  0  0
  9 10  2  0  0  0  0
 10  1  1  0  0  0  0
 11  7  1  0  0  0  0
 12  8  1  0  0  0  0
 13  9  1  0  0  0  0
 14 19  1  0  0  0  0
 14 20  1  0  0  0  0
 15 14  2  0  0  0  0
 16 17  2  0  0  0  0
 16 15  1  0  0  0  0
 17 18  1  0  0  0  0
 18  6  1  0  0  0  0
 18 19  2  0  0  0  0
 21 15  1  0  0  0  0
 22 24  1  0  0  0  0
 22 16  1  0  0  0  0
 23 22  1  0  0  0  0
 25 28  1  0  0  0  0
 25 27  1  0  0  0  0
 26 25  1  0  0  0  0
 30 29  2  6  0  0  0
 30 40  1  0  0  0  0
 30 28  1  0  0  0  0
 31 30  1  0  0  0  0
 32 39  1  0  0  0  0
 32 31  1  0  0  0  0
 33 32  2  0  0  0  0
 34 33  1  0  0  0  0
 35 37  2  0  0  0  0
 35 33  1  0  0  0  0
 36 35  1  0  0  0  0
 37 38  1  0  0  0  0
 38 39  2  0  0  0  0
 40 41  1  0  0  0  0
 41 43  1  0  0  0  0
 41 42  1  0  0  0  0
 44 41  1  0  0  0  0
M  END
>  <minimizedAffinity>
-6.06070328

>  <minimizedRMSD>
1.10481811

$$$$
