
     RDKit          3D

 46 48  0  0  0  0  0  0  0  0999 V2000
   37.6029   30.4597   48.5169 Cl  0  0  0  0  0  0  0  0  0  0  0  0
   36.4485   30.3153   47.1908 C   0  0  0  0  0  0  0  0  0  0  0  0
   36.8204   30.6986   45.9507 C   0  0  0  0  0  0  0  0  0  0  0  0
   35.9299   30.5910   44.9031 C   0  0  0  0  0  0  0  0  0  0  0  0
   34.6581   30.0860   45.1500 C   0  0  0  0  0  0  0  0  0  0  0  0
   34.3481   29.7087   46.4714 C   0  0  0  0  0  0  0  0  0  0  0  0
   35.2066   29.8081   47.5019 C   0  0  0  0  0  0  0  0  0  0  0  0
   39.8252   32.8327   45.9951 C   0  0  0  0  0  0  0  0  0  0  0  0
   40.6831   32.1058   45.1121 C   0  0  0  0  0  0  0  0  0  0  0  0
   40.1924   30.9266   44.5487 C   0  0  0  0  0  0  0  0  0  0  0  0
   38.9323   30.5119   44.8528 N   0  0  0  0  0  0  0  0  0  0  0  0
   38.1484   31.2287   45.6948 C   0  0  0  0  0  0  0  0  0  0  0  0
   38.5996   32.3588   46.2434 N   0  0  0  0  0  0  0  0  0  0  0  0
   41.0586   30.2316   43.6791 N   0  0  0  0  0  0  0  0  0  0  0  0
   34.8365   29.4098   48.8278 C   0  0  0  0  0  0  0  0  0  0  0  0
   34.1745   28.1234   49.0565 C   0  0  0  0  0  0  0  0  0  0  0  0
   32.8576   28.2870   49.3962 O   0  0  0  0  0  0  0  0  0  0  0  0
   32.6579   26.6934   47.3176 O   0  0  0  0  0  0  0  0  0  0  0  0
   31.8674   27.5223   48.2990 P   0  0  2  0  0  0  0  0  0  0  0  0
   31.0330   28.7801   47.4474 O   0  0  0  0  0  0  0  0  0  0  0  0
   30.7010   26.5902   49.0077 O   0  0  0  0  0  0  0  0  0  0  0  0
   29.8430   27.3638   49.7607 C   0  0  0  0  0  0  0  0  0  0  0  0
   29.3100   26.6637   50.8419 F   0  0  0  0  0  0  0  0  0  0  0  0
   30.5002   28.4424   50.3136 F   0  0  0  0  0  0  0  0  0  0  0  0
   28.7878   27.8146   48.9741 F   0  0  0  0  0  0  0  0  0  0  0  0
   36.2559   30.9087   43.9064 H   0  0  0  0  0  0  0  0  0  0  0  0
   34.0464   30.0428   44.2774 H   0  0  0  0  0  0  0  0  0  0  0  0
   33.3769   29.3688   46.4501 H   0  0  0  0  0  0  0  0  0  0  0  0
   40.1962   33.7491   46.4376 H   0  0  0  0  0  0  0  0  0  0  0  0
   41.6573   32.5339   44.9491 H   0  0  0  0  0  0  0  0  0  0  0  0
   41.2045   30.7933   42.7984 H   0  0  0  0  0  0  0  0  0  0  0  0
   41.5224   29.3039   43.8146 H   0  0  0  0  0  0  0  0  0  0  0  0
   35.7423   29.4423   49.4767 H   0  0  0  0  0  0  0  0  0  0  0  0
   34.1914   30.2334   49.2573 H   0  0  0  0  0  0  0  0  0  0  0  0
   34.2939   27.4911   48.1295 H   0  0  0  0  0  0  0  0  0  0  0  0
   34.6405   27.5143   49.8672 H   0  0  0  0  0  0  0  0  0  0  0  0
   30.4484   28.6126   46.2220 C   0  0  0  0  0  0  0  0  0  0  0  0
   29.1217   28.4939   45.8842 C   0  0  0  0  0  0  0  0  0  0  0  0
   28.4590   28.5414   46.7125 H   0  0  0  0  0  0  0  0  0  0  0  0
   28.7160   28.3288   44.5766 C   0  0  0  0  0  0  0  0  0  0  0  0
   27.6672   28.2410   44.3664 H   0  0  0  0  0  0  0  0  0  0  0  0
   29.6591   28.2802   43.5744 C   0  0  0  0  0  0  0  0  0  0  0  0
   30.9863   28.4006   43.9288 C   0  0  0  0  0  0  0  0  0  0  0  0
   31.3782   28.5636   45.2233 N   0  0  0  0  0  0  0  0  0  0  0  0
   29.3699   28.1514   42.5385 H   0  0  0  0  0  0  0  0  0  0  0  0
   31.6982   28.3581   43.1181 H   0  0  0  0  0  0  0  0  0  0  0  0
  2  7  2  0
  2  1  1  0
  3  2  1  0
  4  5  1  0
  4  3  2  0
  5  6  2  0
  6  7  1  0
  7 15  1  0
  8 13  2  0
  9  8  1  0
 10 11  1  0
 10  9  2  0
 11 12  2  0
 12  3  1  0
 12 13  1  0
 14 10  1  0
 15 16  1  0
 16 17  1  0
 19 18  2  0
 19 21  1  1
 19 17  1  0
 20 19  1  0
 21 22  1  0
 22 24  1  0
 22 23  1  0
 25 22  1  0
  4 26  1  0
  5 27  1  0
  6 28  1  0
  8 29  1  0
  9 30  1  0
 14 31  1  0
 14 32  1  0
 15 33  1  0
 15 34  1  0
 16 35  1  0
 16 36  1  0
 37 38  2  0
 38 39  1  0
 38 40  1  0
 40 41  1  0
 40 42  2  0
 42 43  1  0
 43 44  2  0
 44 37  1  0
 42 45  1  0
 43 46  1  0
 20 37  1  0
M  ISO  8  26  14  27  14  28  14  29  14  30  14  33   8  34   8  35   8
M  ISO  3  36   8  39  15  41  16
M  END
>  <DihAtoms>  (1) 
18,19,36,37

>  <DihDeg>  (1) 
0.00032246808302762597

$$$$
