REMARK  Name = 
REMARK  10 active torsions:
REMARK  status: ('A' for Active; 'I' for Inactive)
REMARK    1  A    between atoms: C_3  and  C_12
REMARK    2  A    between atoms: C_7  and  C_15
REMARK    3  A    between atoms: C_10  and  N_14
REMARK    4  A    between atoms: C_15  and  C_16
REMARK    5  A    between atoms: C_16  and  O_17
REMARK    6  A    between atoms: O_17  and  P_19
REMARK    7  A    between atoms: P_19  and  O_20
REMARK    8  A    between atoms: P_19  and  O_21
REMARK    9  A    between atoms: O_20  and  C_37
REMARK   10  A    between atoms: O_21  and  C_22
REMARK                            x       y       z     vdW  Elec       q    Type
REMARK                         _______ _______ _______ _____ _____    ______ ____
ROOT
ATOM      1  C   UNL     1      34.837  29.410  48.828  0.00  0.00    +0.000 C 
ATOM      2  H   UNL     1      35.742  29.442  49.477  0.00  0.00    +0.000 HD
ATOM      3  H   UNL     1      34.191  30.233  49.257  0.00  0.00    +0.000 HD
ENDROOT
BRANCH   1  10
ATOM      4 CL   UNL     1      37.603  30.460  48.517  0.00  0.00    +0.000 Cl
ATOM      5  C   UNL     1      36.449  30.315  47.191  0.00  0.00    +0.000 A 
ATOM      6  C   UNL     1      36.820  30.699  45.951  0.00  0.00    +0.000 A 
ATOM      7  C   UNL     1      35.930  30.591  44.903  0.00  0.00    +0.000 A 
ATOM      8  C   UNL     1      34.658  30.086  45.150  0.00  0.00    +0.000 A 
ATOM      9  C   UNL     1      34.348  29.709  46.471  0.00  0.00    +0.000 A 
ATOM     10  C   UNL     1      35.207  29.808  47.502  0.00  0.00    +0.000 A 
ATOM     11  H   UNL     1      36.256  30.909  43.906  0.00  0.00    +0.000 HD
ATOM     12  H   UNL     1      34.046  30.043  44.277  0.00  0.00    +0.000 HD
ATOM     13  H   UNL     1      33.377  29.369  46.450  0.00  0.00    +0.000 HD
BRANCH   6  18
ATOM     14  C   UNL     1      39.825  32.833  45.995  0.00  0.00    +0.000 A 
ATOM     15  C   UNL     1      40.683  32.106  45.112  0.00  0.00    +0.000 A 
ATOM     16  C   UNL     1      40.192  30.927  44.549  0.00  0.00    +0.000 A 
ATOM     17  N   UNL     1      38.932  30.512  44.853  0.00  0.00    +0.000 NA
ATOM     18  C   UNL     1      38.148  31.229  45.695  0.00  0.00    +0.000 A 
ATOM     19  N   UNL     1      38.600  32.359  46.243  0.00  0.00    +0.000 NA
ATOM     20  H   UNL     1      40.196  33.749  46.438  0.00  0.00    +0.000 HD
ATOM     21  H   UNL     1      41.657  32.534  44.949  0.00  0.00    +0.000 HD
BRANCH  16  22
ATOM     22  N   UNL     1      41.059  30.232  43.679  0.00  0.00    +0.000 N 
ATOM     23  H   UNL     1      41.205  30.793  42.798  0.00  0.00    +0.000 HD
ATOM     24  H   UNL     1      41.522  29.304  43.815  0.00  0.00    +0.000 HD
ENDBRANCH  16  22
ENDBRANCH   6  18
ENDBRANCH   1  10
BRANCH   1  25
ATOM     25  C   UNL     1      34.175  28.123  49.056  0.00  0.00    +0.000 C 
ATOM     26  H   UNL     1      34.294  27.491  48.130  0.00  0.00    +0.000 HD
ATOM     27  H   UNL     1      34.641  27.514  49.867  0.00  0.00    +0.000 HD
BRANCH  25  28
ATOM     28  O   UNL     1      32.858  28.287  49.396  0.00  0.00    +0.000 OA
BRANCH  28  30
ATOM     29  O   UNL     1      32.658  26.693  47.318  0.00  0.00    +0.000 OA
ATOM     30  P   UNL     1      31.867  27.522  48.299  0.00  0.00    +0.000 P 
BRANCH  30  31
ATOM     31  O   UNL     1      31.033  28.780  47.447  0.00  0.00    +0.000 OA
BRANCH  31  32
ATOM     32  C   UNL     1      30.448  28.613  46.222  0.00  0.00    +0.000 A 
ATOM     33  C   UNL     1      29.122  28.494  45.884  0.00  0.00    +0.000 A 
ATOM     34  H   UNL     1      28.459  28.541  46.712  0.00  0.00    +0.000 HD
ATOM     35  C   UNL     1      28.716  28.329  44.577  0.00  0.00    +0.000 A 
ATOM     36  H   UNL     1      27.667  28.241  44.366  0.00  0.00    +0.000 HD
ATOM     37  C   UNL     1      29.659  28.280  43.574  0.00  0.00    +0.000 A 
ATOM     38  C   UNL     1      30.986  28.401  43.929  0.00  0.00    +0.000 A 
ATOM     39  N   UNL     1      31.378  28.564  45.223  0.00  0.00    +0.000 NA
ENDBRANCH  31  32
ENDBRANCH  30  31
BRANCH  30  40
ATOM     40  O   UNL     1      30.701  26.590  49.008  0.00  0.00    +0.000 OA
BRANCH  40  41
ATOM     41  C   UNL     1      29.843  27.364  49.761  0.00  0.00    +0.000 C 
ATOM     42  F   UNL     1      29.310  26.664  50.842  0.00  0.00    +0.000 F 
ATOM     43  F   UNL     1      30.500  28.442  50.314  0.00  0.00    +0.000 F 
ATOM     44  F   UNL     1      28.788  27.815  48.974  0.00  0.00    +0.000 F 
ENDBRANCH  40  41
ENDBRANCH  30  40
ENDBRANCH  28  30
ENDBRANCH  25  28
ENDBRANCH   1  25
TORSDOF 10
