
     RDKit          3D

 29 31  0  0  0  0  0  0  0  0999 V2000
   37.9218   30.8750   46.7372 C   0  0  0  0  0  0  0  0  0  0  0  0
   38.0495   31.0402   48.1337 C   0  0  0  0  0  0  0  0  0  0  0  0
   36.9245   30.8175   48.9343 C   0  0  0  0  0  0  0  0  0  0  0  0
   35.7744   30.4541   48.3085 N   0  0  0  0  0  0  0  0  0  0  0  0
   35.6691   30.3010   46.9781 C   0  0  0  0  0  0  0  0  0  0  0  0
   36.7590   30.5174   46.2093 N   0  0  0  0  0  0  0  0  0  0  0  0
   39.1009   31.1092   45.9064 C   0  0  0  0  0  0  0  0  0  0  0  0
   39.9208   32.2117   45.9042 C   0  0  0  0  0  0  0  0  0  0  0  0
   40.9356   32.0231   44.9503 C   0  0  0  0  0  0  0  0  0  0  0  0
   40.6765   30.7981   44.4142 N   0  0  0  0  0  0  0  0  0  0  0  0
   39.6124   30.2892   44.9817 N   0  0  0  0  0  0  0  0  0  0  0  0
   37.0511   30.9896   50.4069 C   0  0  0  0  0  0  0  0  0  0  0  0
   36.5537   32.2363   50.6881 F   0  0  0  0  0  0  0  0  0  0  0  0
   36.3040   30.0528   51.1084 F   0  0  0  0  0  0  0  0  0  0  0  0
   38.3707   30.9389   50.8276 F   0  0  0  0  0  0  0  0  0  0  0  0
   38.9677   31.3269   48.5965 H   0  0  0  0  0  0  0  0  0  0  0  0
   34.7156   30.0088   46.5558 H   0  0  0  0  0  0  0  0  0  0  0  0
   39.7350   33.0508   46.5716 H   0  0  0  0  0  0  0  0  0  0  0  0
   41.6483   32.8033   44.8392 H   0  0  0  0  0  0  0  0  0  0  0  0
   41.5492   30.3168   43.3984 C   0  0  0  0  0  0  0  0  0  0  0  0
   41.8195   29.0043   43.0830 C   0  0  0  0  0  0  0  0  0  0  0  0
   41.2969   28.2768   43.6908 H   0  0  0  0  0  0  0  0  0  0  0  0
   42.6892   28.7066   42.0709 C   0  0  0  0  0  0  0  0  0  0  0  0
   42.8842   27.6526   41.8432 H   0  0  0  0  0  0  0  0  0  0  0  0
   43.3255   29.6751   41.3308 C   0  0  0  0  0  0  0  0  0  0  0  0
   43.0191   30.9931   41.6881 C   0  0  0  0  0  0  0  0  0  0  0  0
   42.1544   31.3145   42.6947 N   0  0  0  0  0  0  0  0  0  0  0  0
   44.0125   29.4814   40.5313 H   0  0  0  0  0  0  0  0  0  0  0  0
   43.5150   31.7707   41.1116 H   0  0  0  0  0  0  0  0  0  0  0  0
  1  2  2  0
  2  3  1  0
  3 12  1  0
  4  3  2  0
  5  4  1  0
  6  1  1  0
  6  5  2  0
  7  1  1  0
  8  7  1  0
  9  8  2  0
 10  9  1  0
 10 11  1  0
 11  7  2  0
 12 13  1  0
 12 15  1  0
 12 14  1  0
  2 16  1  0
  5 17  1  0
  8 18  1  0
  9 19  1  0
 20 21  2  0
 21 22  1  0
 21 23  1  0
 23 24  1  0
 23 25  2  0
 25 26  1  0
 26 27  2  0
 27 20  1  0
 25 28  1  0
 26 29  1  0
 10 20  1  0
M  ISO  6  16  14  17  14  18  14  19  14  22  15  24  16
M  END
>  <DihAtoms>  (1) 
8,9,19,20

>  <DihDeg>  (1) 
78.04877585601281

$$$$
