
 OpenBabel03272504413D

 44 46  0  0  0  0  0  0  0  0999 V2000
   34.7500   29.3830   48.7960 C   0  0  0  0  0  0  0  0  0  0  0  0
   35.6500   29.4090   49.4530 H   0  0  0  0  0  0  0  0  0  0  0  0
   34.1060   30.2100   49.2190 H   0  0  0  0  0  0  0  0  0  0  0  0
   37.5130   30.4500   48.5160 Cl  0  0  0  0  0  0  0  0  0  0  0  0
   36.3770   30.2910   47.1760 C   0  0  0  0  0  0  0  0  0  0  0  0
   36.7610   30.6720   45.9390 C   0  0  0  0  0  0  0  0  0  0  0  0
   35.8850   30.5530   44.8800 C   0  0  0  0  0  0  0  0  0  0  0  0
   34.6140   30.0410   45.1130 C   0  0  0  0  0  0  0  0  0  0  0  0
   34.2890   29.6680   46.4320 C   0  0  0  0  0  0  0  0  0  0  0  0
   35.1340   29.7770   47.4730 C   0  0  0  0  0  0  0  0  0  0  0  0
   36.2220   30.8690   43.8860 H   0  0  0  0  0  0  0  0  0  0  0  0
   34.0130   29.9900   44.2330 H   0  0  0  0  0  0  0  0  0  0  0  0
   33.3210   29.3210   46.4000 H   0  0  0  0  0  0  0  0  0  0  0  0
   39.7530   32.8230   46.0170 C   0  0  0  0  0  0  0  0  0  0  0  0
   40.6250   32.1020   45.1420 C   0  0  0  0  0  0  0  0  0  0  0  0
   40.1460   30.9200   44.5730 C   0  0  0  0  0  0  0  0  0  0  0  0
   38.8860   30.4980   44.8630 N   0  0  0  0  0  0  0  0  0  0  0  0
   38.0890   31.2100   45.6980 C   0  0  0  0  0  0  0  0  0  0  0  0
   38.5290   32.3420   46.2510 N   0  0  0  0  0  0  0  0  0  0  0  0
   40.1140   33.7400   46.4650 H   0  0  0  0  0  0  0  0  0  0  0  0
   41.5980   32.5350   44.9900 H   0  0  0  0  0  0  0  0  0  0  0  0
   41.0260   30.2310   43.7110 N   0  0  0  0  0  0  0  0  0  0  0  0
   41.1790   30.7940   42.8320 H   0  0  0  0  0  0  0  0  0  0  0  0
   41.4930   29.3060   43.8510 H   0  0  0  0  0  0  0  0  0  0  0  0
   34.0770   28.1000   49.0190 C   0  0  0  0  0  0  0  0  0  0  0  0
   34.2310   27.4530   48.1090 H   0  0  0  0  0  0  0  0  0  0  0  0
   34.5100   27.5040   49.8580 H   0  0  0  0  0  0  0  0  0  0  0  0
   32.7480   28.2720   49.3040 O   0  0  0  0  0  0  0  0  0  0  0  0
   32.6330   26.4980   47.3700 O   0  0  0  0  0  0  0  0  0  0  0  0
   31.8020   27.4050   48.2440 P   0  0  2  0  0  0  0  0  0  0  0  0
   30.9940   28.5760   47.2540 O   0  0  0  0  0  0  0  0  0  0  0  0
   30.3680   28.2760   46.0750 C   0  0  0  0  0  0  0  0  0  0  0  0
   29.1470   27.6900   45.8470 C   0  0  0  0  0  0  0  0  0  0  0  0
   28.6170   27.4370   46.7310 H   0  0  0  0  0  0  0  0  0  0  0  0
   28.6750   27.4640   44.5720 C   0  0  0  0  0  0  0  0  0  0  0  0
   27.7130   27.0030   44.4470 H   0  0  0  0  0  0  0  0  0  0  0  0
   29.4430   27.8310   43.4880 C   0  0  0  0  0  3  0  0  0  0  0  0
   30.6670   28.4170   43.7340 C   0  0  0  0  0  3  0  0  0  0  0  0
   31.1250   28.6370   44.9970 N   0  0  0  0  0  0  0  0  0  0  0  0
   30.6150   26.5300   48.9900 O   0  0  0  0  0  0  0  0  0  0  0  0
   29.8280   27.3420   49.7800 C   0  0  0  0  0  0  0  0  0  0  0  0
   29.3270   26.6710   50.8940 F   0  0  0  0  0  0  0  0  0  0  0  0
   30.5540   28.3980   50.2870 F   0  0  0  0  0  0  0  0  0  0  0  0
   28.7510   27.8270   49.0450 F   0  0  0  0  0  0  0  0  0  0  0  0
  1 25  1  0  0  0  0
  1  3  1  0  0  0  0
  1  2  1  0  0  0  0
  5 10  1  0  0  0  0
  5  4  1  0  0  0  0
  6  5  2  0  0  0  0
  7  8  2  0  0  0  0
  7  6  1  0  0  0  0
  8  9  1  0  0  0  0
  9 10  2  0  0  0  0
 10  1  1  0  0  0  0
 11  7  1  0  0  0  0
 12  8  1  0  0  0  0
 13  9  1  0  0  0  0
 14 19  1  0  0  0  0
 14 20  1  0  0  0  0
 15 14  2  0  0  0  0
 16 17  2  0  0  0  0
 16 15  1  0  0  0  0
 17 18  1  0  0  0  0
 18  6  1  0  0  0  0
 18 19  2  0  0  0  0
 21 15  1  0  0  0  0
 22 24  1  0  0  0  0
 22 16  1  0  0  0  0
 23 22  1  0  0  0  0
 25 28  1  0  0  0  0
 25 27  1  0  0  0  0
 26 25  1  0  0  0  0
 30 29  2  6  0  0  0
 30 40  1  0  0  0  0
 30 28  1  0  0  0  0
 31 30  1  0  0  0  0
 32 31  1  0  0  0  0
 33 32  1  0  0  0  0
 33 34  1  0  0  0  0
 35 33  2  0  0  0  0
 36 35  1  0  0  0  0
 37 38  2  0  0  0  0
 37 35  1  0  0  0  0
 38 39  1  0  0  0  0
 39 32  2  0  0  0  0
 40 41  1  0  0  0  0
 41 43  1  0  0  0  0
 41 42  1  0  0  0  0
 44 41  1  0  0  0  0
M  END
>  <minimizedAffinity>
-5.69392204

>  <minimizedRMSD>
0.274491161

$$$$
