
 OpenBabel03272510113D

 34 37  0  0  0  0  0  0  0  0999 V2000
   33.4660   28.4650   48.3670 C   0  0  0  0  0  0  0  0  0  0  0  0
   34.3510   28.0260   49.2880 C   0  0  0  0  0  0  0  0  0  0  0  0
   35.5410   28.6550   49.5930 C   0  0  0  0  0  0  0  0  0  0  0  0
   35.8910   29.8010   48.9450 C   0  0  0  0  0  0  0  0  0  0  0  0
   34.9820   30.2650   47.9890 C   0  0  0  0  0  0  0  0  0  0  0  0
   33.8320   29.6160   47.7260 N   0  0  0  0  0  0  0  0  0  0  0  0
   34.1540   27.1240   49.8490 H   0  0  0  0  0  0  0  0  0  0  0  0
   36.2440   28.2950   50.3330 H   0  0  0  0  0  0  0  0  0  0  0  0
   35.2110   31.1720   47.4430 H   0  0  0  0  0  0  0  0  0  0  0  0
   31.1880   27.6360   48.9640 C   0  0  0  0  0  0  0  0  0  0  0  0
   32.2290   27.8220   48.0430 C   0  0  0  0  0  0  0  0  0  0  0  0
   32.0040   27.3400   46.7670 C   0  0  0  0  0  0  0  0  0  0  0  0
   30.8200   26.7280   46.4680 N   0  0  0  0  0  0  0  0  0  0  0  0
   29.8560   26.5830   47.4130 C   0  0  0  0  0  0  0  0  0  0  0  0
   30.0270   27.0350   48.6720 N   0  0  0  0  0  0  0  0  0  0  0  0
   31.3140   27.9930   49.9760 H   0  0  0  0  0  0  0  0  0  0  0  0
   32.7960   27.4750   46.0440 H   0  0  0  0  0  0  0  0  0  0  0  0
   28.9800   26.0820   47.0280 H   0  0  0  0  0  0  0  0  0  0  0  0
   37.0550   30.5580   49.1330 O   0  0  0  0  0  0  0  0  0  0  0  0
   37.7730   31.0500   48.0550 C   0  0  0  0  0  0  0  0  0  0  0  0
   38.5260   32.1900   48.3450 C   0  0  0  0  0  0  0  0  0  0  0  0
   39.1930   32.5710   47.1730 C   0  0  0  0  0  0  0  0  0  0  0  0
   38.8200   31.6610   46.2510 N   0  0  0  0  0  0  0  0  0  0  0  0
   37.9980   30.7760   46.7540 N   0  0  0  0  0  0  0  0  0  0  0  0
   38.6930   32.8040   49.2230 H   0  0  0  0  0  0  0  0  0  0  0  0
   39.8690   33.3870   46.9580 H   0  0  0  0  0  0  0  0  0  0  0  0
   39.2530   31.6430   44.8900 C   0  0  0  0  0  0  0  0  0  0  0  0
   38.9710   32.7440   44.1050 C   0  0  0  0  0  0  0  0  0  0  0  0
   38.4540   33.6100   44.4380 H   0  0  0  0  0  0  0  0  0  0  0  0
   39.3900   32.7230   42.7920 C   0  0  0  0  0  0  0  0  0  0  0  0
   39.2060   33.5560   42.1050 H   0  0  0  0  0  0  0  0  0  0  0  0
   40.0810   31.6570   42.2120 C   0  0  0  0  0  3  0  0  0  0  0  0
   40.3240   30.5880   43.0720 C   0  0  0  0  0  3  0  0  0  0  0  0
   39.9180   30.5940   44.3670 N   0  0  0  0  0  0  0  0  0  0  0  0
  1  2  1  0  0  0  0
  2  3  2  0  0  0  0
  2  7  1  0  0  0  0
  3  8  1  0  0  0  0
  4 19  1  0  0  0  0
  4  3  1  0  0  0  0
  5  4  2  0  0  0  0
  6  5  1  0  0  0  0
  6  1  2  0  0  0  0
  9  5  1  0  0  0  0
 10 16  1  0  0  0  0
 11  1  1  0  0  0  0
 11 10  2  0  0  0  0
 12 11  1  0  0  0  0
 13 12  2  0  0  0  0
 13 14  1  0  0  0  0
 14 15  2  0  0  0  0
 15 10  1  0  0  0  0
 17 12  1  0  0  0  0
 18 14  1  0  0  0  0
 20 21  1  0  0  0  0
 20 19  1  0  0  0  0
 21 25  1  0  0  0  0
 22 21  2  0  0  0  0
 23 24  1  0  0  0  0
 23 22  1  0  0  0  0
 24 20  2  0  0  0  0
 26 22  1  0  0  0  0
 27 23  1  0  0  0  0
 28 29  1  0  0  0  0
 28 27  2  0  0  0  0
 30 28  1  0  0  0  0
 31 30  1  0  0  0  0
 32 30  2  0  0  0  0
 32 33  1  0  0  0  0
 33 34  2  0  0  0  0
 34 27  1  0  0  0  0
M  END
>  <minimizedAffinity>
-5.91898155

>  <minimizedRMSD>
2.38375401

$$$$
