
     RDKit          3D

 32 34  0  0  0  0  0  0  0  0999 V2000
   37.1464   31.2231   48.5935 C   0  0  0  0  0  0  0  0  0  0  0  0
   38.0713   32.2607   48.4071 C   0  0  0  0  0  0  0  0  0  0  0  0
   38.4253   32.4314   47.0931 C   0  0  0  0  0  0  0  0  0  0  0  0
   37.9250   31.6677   46.0828 N   0  0  0  0  0  0  0  0  0  0  0  0
   37.0424   30.6849   46.3064 C   0  0  0  0  0  0  0  0  0  0  0  0
   36.6495   30.4575   47.5611 N   0  0  0  0  0  0  0  0  0  0  0  0
   36.6323   31.0368   50.0163 C   0  0  0  0  0  0  0  0  0  0  0  0
   35.8928   29.9008   50.4065 C   0  0  0  0  0  0  0  0  0  0  0  0
   37.3853   29.8201   50.6561 C   0  0  0  0  0  0  0  0  0  0  0  0
   38.6199   33.0423   49.4972 C   0  0  0  0  0  0  0  0  0  0  0  0
   39.5629   34.1466   49.1389 C   0  0  0  0  0  0  0  0  0  0  0  0
   39.1337   33.1872   46.7850 H   0  0  0  0  0  0  0  0  0  0  0  0
   36.5888   30.0274   45.5836 H   0  0  0  0  0  0  0  0  0  0  0  0
   36.7902   31.9413   50.6732 H   0  0  0  0  0  0  0  0  0  0  0  0
   35.2642   29.9050   51.3020 H   0  0  0  0  0  0  0  0  0  0  0  0
   35.5495   29.1807   49.6106 H   0  0  0  0  0  0  0  0  0  0  0  0
   37.7740   30.0232   51.6610 H   0  0  0  0  0  0  0  0  0  0  0  0
   37.9979   29.1899   50.0254 H   0  0  0  0  0  0  0  0  0  0  0  0
   39.0956   32.3783   50.2355 H   0  0  0  0  0  0  0  0  0  0  0  0
   37.7684   33.5577   50.0379 H   0  0  0  0  0  0  0  0  0  0  0  0
   39.8872   34.6507   50.0721 H   0  0  0  0  0  0  0  0  0  0  0  0
   40.4856   33.7954   48.6380 H   0  0  0  0  0  0  0  0  0  0  0  0
   38.9625   35.1956   48.2801 C   0  0  0  0  0  0  0  0  0  0  0  0
   39.8257   35.5297   47.2300 C   0  0  0  0  0  0  0  0  0  0  0  0
   40.8177   35.0952   47.0382 H   0  0  0  0  0  0  0  0  0  0  0  0
   39.4877   36.4876   46.2911 C   0  0  0  0  0  0  0  0  0  0  0  0
   40.1300   36.7717   45.4657 H   0  0  0  0  0  0  0  0  0  0  0  0
   38.2784   37.1464   46.3650 C   0  0  0  0  0  0  0  0  0  0  0  0
   37.4571   36.7890   47.4130 C   0  0  0  0  0  0  0  0  0  0  0  0
   37.7711   35.8609   48.3326 N   0  0  0  0  0  0  0  0  0  0  0  0
   37.9170   37.9153   45.6776 H   0  0  0  0  0  0  0  0  0  0  0  0
   36.4798   37.2199   47.5985 H   0  0  0  0  0  0  0  0  0  0  0  0
  1  7  1  0
  2  1  1  0
  2 10  1  0
  3  2  2  0
  4  5  2  0
  4  3  1  0
  5  6  1  0
  6  1  2  0
  7  8  1  0
  7  9  1  0
  8  9  1  0
 11 10  1  0
  3 12  1  0
  5 13  1  0
  7 14  1  0
  8 15  1  0
  8 16  1  0
  9 17  1  0
  9 18  1  0
 10 19  1  0
 10 20  1  0
 11 21  1  0
 11 22  1  0
 23 24  2  0
 24 25  1  0
 24 26  1  0
 26 27  1  0
 26 28  2  0
 28 29  1  0
 29 30  2  0
 30 23  1  0
 28 31  1  0
 29 32  1  0
 11 23  1  0
M  ISO  8  12  14  13  14  14  13  15  13  16  13  17  13  18  13  19   8
M  ISO  5  20   8  21   8  22   8  25  15  27  16
M  END
>  <DihAtoms>  (1) 
9,10,22,23

>  <DihDeg>  (1) 
-179.68780950341562

$$$$
