
 OpenBabel03272508193D

 30 32  0  0  0  0  0  0  0  0999 V2000
   37.4110   31.3780   49.4510 C   0  0  0  0  0  0  0  0  0  0  0  0
   36.7430   30.5180   48.5660 C   0  0  0  0  0  0  0  0  0  0  0  0
   36.4600   29.2960   49.1210 C   0  0  0  0  0  0  0  0  0  0  0  0
   36.7940   28.9640   50.3980 N   0  0  0  0  0  0  0  0  0  0  0  0
   37.4330   29.8170   51.2100 C   0  0  0  0  0  0  0  0  0  0  0  0
   37.7450   31.0260   50.7400 N   0  0  0  0  0  0  0  0  0  0  0  0
   35.9530   28.5190   48.5660 H   0  0  0  0  0  0  0  0  0  0  0  0
   37.7420   29.6550   52.2280 H   0  0  0  0  0  0  0  0  0  0  0  0
   37.6740   32.7880   48.9360 C   0  0  0  0  0  0  0  0  0  0  0  0
   38.4960   33.7010   49.6290 C   0  0  0  0  0  0  0  0  0  0  0  0
   39.1900   32.8960   48.5500 C   0  0  0  0  0  0  0  0  0  0  0  0
   37.0550   33.0600   48.0320 H   0  0  0  0  0  0  0  0  0  0  0  0
   38.4360   34.7790   49.4500 H   0  0  0  0  0  0  0  0  0  0  0  0
   38.8500   33.4300   50.6640 H   0  0  0  0  0  0  0  0  0  0  0  0
   39.3620   33.3500   47.5670 H   0  0  0  0  0  0  0  0  0  0  0  0
   39.8620   32.0960   48.8310 H   0  0  0  0  0  0  0  0  0  0  0  0
   36.4240   30.8750   47.1980 C   0  0  0  0  0  0  0  0  0  0  0  0
   36.3860   31.9710   47.0920 H   0  0  0  0  0  0  0  0  0  0  0  0
   35.3830   30.4970   46.9590 H   0  0  0  0  0  0  0  0  0  0  0  0
   37.2900   30.3000   46.1220 C   0  0  0  0  0  0  0  0  0  0  0  0
   37.8240   29.4190   46.5320 H   0  0  0  0  0  0  0  0  0  0  0  0
   36.7210   29.9390   45.2430 H   0  0  0  0  0  0  0  0  0  0  0  0
   38.3320   31.2310   45.6260 C   0  0  0  0  0  0  0  0  0  0  0  0
   39.6080   30.6810   45.7930 C   0  0  0  0  0  0  0  0  0  0  0  0
   39.8420   29.6980   46.2270 H   0  0  0  0  0  0  0  0  0  0  0  0
   40.7470   31.3630   45.4050 C   0  0  0  0  0  0  0  0  0  0  0  0
   41.7500   30.9690   45.5170 H   0  0  0  0  0  0  0  0  0  0  0  0
   40.6540   32.6160   44.8360 C   0  0  0  0  0  0  0  0  0  0  0  0
   39.3810   33.1230   44.6890 C   0  0  0  0  0  0  0  0  0  0  0  0
   38.2650   32.4730   45.0620 N   0  0  0  0  0  0  0  0  0  0  0  0
  1  6  1  0  0  0  0
  2  3  1  0  0  0  0
  2  1  2  0  0  0  0
  3  4  2  0  0  0  0
  4  5  1  0  0  0  0
  5  8  1  0  0  0  0
  6  5  2  0  0  0  0
  7  3  1  0  0  0  0
  9  1  1  0  0  0  0
  9 10  1  0  0  0  0
 10 14  1  0  0  0  0
 11 16  1  0  0  0  0
 11  9  1  0  0  0  0
 11 10  1  0  0  0  0
 12  9  1  0  0  0  0
 13 10  1  0  0  0  0
 15 11  1  0  0  0  0
 17  2  1  0  0  0  0
 18 17  1  0  0  0  0
 19 17  1  0  0  0  0
 20 21  1  0  0  0  0
 20 17  1  0  0  0  0
 22 20  1  0  0  0  0
 23 24  1  0  0  0  0
 23 20  1  0  0  0  0
 24 25  1  0  0  0  0
 26 27  1  0  0  0  0
 26 24  2  0  0  0  0
 28 26  1  0  0  0  0
 29 28  2  0  0  0  0
 29 30  1  0  0  0  0
 30 23  2  0  0  0  0
M  END
>  <minimizedAffinity>
-5.12447357

>  <minimizedRMSD>
4.53595734

$$$$
