
 OpenBabel03272508193D

 30 32  0  0  0  0  0  0  0  0999 V2000
   37.1370   31.1220   49.7810 C   0  0  0  0  0  0  0  0  0  0  0  0
   35.9820   30.3970   49.4520 C   0  0  0  0  0  0  0  0  0  0  0  0
   35.6550   29.4570   50.3960 C   0  0  0  0  0  0  0  0  0  0  0  0
   36.3820   29.2560   51.5290 N   0  0  0  0  0  0  0  0  0  0  0  0
   37.4810   29.9720   51.8040 C   0  0  0  0  0  0  0  0  0  0  0  0
   37.8640   30.9060   50.9310 N   0  0  0  0  0  0  0  0  0  0  0  0
   34.7950   28.8110   50.2860 H   0  0  0  0  0  0  0  0  0  0  0  0
   38.1230   29.8930   52.6640 H   0  0  0  0  0  0  0  0  0  0  0  0
   37.5080   32.2510   48.8270 C   0  0  0  0  0  0  0  0  0  0  0  0
   38.6920   33.0040   48.9750 C   0  0  0  0  0  0  0  0  0  0  0  0
   38.7900   31.8220   48.0320 C   0  0  0  0  0  0  0  0  0  0  0  0
   36.6940   32.4990   48.0860 H   0  0  0  0  0  0  0  0  0  0  0  0
   38.8080   33.9880   48.5130 H   0  0  0  0  0  0  0  0  0  0  0  0
   39.3070   32.8610   49.9080 H   0  0  0  0  0  0  0  0  0  0  0  0
   38.7130   31.9900   46.9510 H   0  0  0  0  0  0  0  0  0  0  0  0
   39.3280   30.9360   48.3410 H   0  0  0  0  0  0  0  0  0  0  0  0
   35.2380   30.5990   48.2250 C   0  0  0  0  0  0  0  0  0  0  0  0
   35.6940   31.4110   47.6360 H   0  0  0  0  0  0  0  0  0  0  0  0
   34.1920   30.9480   48.4880 H   0  0  0  0  0  0  0  0  0  0  0  0
   35.0280   29.4050   47.3490 C   0  0  0  0  0  0  0  0  0  0  0  0
   35.3080   29.6750   46.3100 H   0  0  0  0  0  0  0  0  0  0  0  0
   35.6590   28.5370   47.6260 H   0  0  0  0  0  0  0  0  0  0  0  0
   33.6220   28.9360   47.2980 C   0  0  0  0  0  0  0  0  0  0  0  0
   33.4050   27.9210   48.2370 C   0  0  0  0  0  0  0  0  0  0  0  0
   34.1500   27.5050   48.9320 H   0  0  0  0  0  0  0  0  0  0  0  0
   32.1680   27.3200   48.3810 C   0  0  0  0  0  0  0  0  0  0  0  0
   31.9630   26.5320   49.0960 H   0  0  0  0  0  0  0  0  0  0  0  0
   31.1040   27.7090   47.5950 C   0  0  0  0  0  3  0  0  0  0  0  0
   31.3580   28.7110   46.6830 C   0  0  0  0  0  3  0  0  0  0  0  0
   32.5540   29.3040   46.5310 N   0  0  0  0  0  0  0  0  0  0  0  0
  1  6  1  0  0  0  0
  2  1  2  0  0  0  0
  2  3  1  0  0  0  0
  3  4  2  0  0  0  0
  4  5  1  0  0  0  0
  5  8  1  0  0  0  0
  6  5  2  0  0  0  0
  7  3  1  0  0  0  0
  9 10  1  0  0  0  0
  9  1  1  0  0  0  0
 10 14  1  0  0  0  0
 11 16  1  0  0  0  0
 11  9  1  0  0  0  0
 11 10  1  0  0  0  0
 12  9  1  0  0  0  0
 13 10  1  0  0  0  0
 15 11  1  0  0  0  0
 17 19  1  0  0  0  0
 17  2  1  0  0  0  0
 18 17  1  0  0  0  0
 20 22  1  0  0  0  0
 20 17  1  0  0  0  0
 21 20  1  0  0  0  0
 23 20  1  0  0  0  0
 23 24  1  0  0  0  0
 24 26  2  0  0  0  0
 24 25  1  0  0  0  0
 26 27  1  0  0  0  0
 28 26  1  0  0  0  0
 29 28  2  0  0  0  0
 30 29  1  0  0  0  0
 30 23  2  0  0  0  0
M  END
>  <minimizedAffinity>
-4.93495798

>  <minimizedRMSD>
7.07188845

$$$$
