
 OpenBabel03262521383D

 28 30  0  0  0  0  0  0  0  0999 V2000
   34.2480   30.1820   48.6190 F   0  0  0  0  0  0  0  0  0  0  0  0
   34.8380   30.1660   47.3620 C   0  0  0  0  0  0  0  0  0  0  0  0
   34.1260   29.8020   46.2370 C   0  0  0  0  0  0  0  0  0  0  0  0
   34.7720   29.8050   45.0120 C   0  0  0  0  0  0  0  0  0  0  0  0
   36.1150   30.1700   44.9110 C   0  0  0  0  0  0  0  0  0  0  0  0
   36.7660   30.5250   46.0900 C   0  0  0  0  0  0  0  0  0  0  0  0
   36.1600   30.5350   47.3310 C   0  0  0  0  0  0  0  0  0  0  0  0
   34.2300   29.5240   44.1340 H   0  0  0  0  0  0  0  0  0  0  0  0
   36.6550   30.1880   43.9810 H   0  0  0  0  0  0  0  0  0  0  0  0
   37.8110   30.8160   46.0530 H   0  0  0  0  0  0  0  0  0  0  0  0
   32.5540   28.2820   47.1410 C   0  0  0  0  0  0  0  0  0  0  0  0
   32.7650   29.4430   46.4270 C   0  0  0  0  0  0  0  0  0  0  0  0
   31.6270   30.1470   45.9640 C   0  0  0  0  0  0  0  0  0  0  0  0
   30.3930   29.6350   46.2520 N   0  0  0  0  0  0  0  0  0  0  0  0
   30.2410   28.4990   46.9530 C   0  0  0  0  0  0  0  0  0  0  0  0
   31.3120   27.8000   47.4100 N   0  0  0  0  0  0  0  0  0  0  0  0
   33.3210   27.6390   47.5580 H   0  0  0  0  0  0  0  0  0  0  0  0
   31.8360   31.0360   45.4190 H   0  0  0  0  0  0  0  0  0  0  0  0
   29.2130   28.1920   47.1180 H   0  0  0  0  0  0  0  0  0  0  0  0
   37.0530   31.0000   48.7970 S   0  0  0  0  0  0  0  0  0  0  0  0
   38.2780   32.2240   48.3450 C   0  0  0  0  0  0  0  0  0  0  0  0
   38.4730   33.1470   49.3710 C   0  0  0  0  0  0  0  0  0  0  0  0
   37.9780   33.1740   50.3360 H   0  0  0  0  0  0  0  0  0  0  0  0
   39.3850   34.1910   49.2350 C   0  0  0  0  0  0  0  0  0  0  0  0
   39.5770   34.9340   49.9940 H   0  0  0  0  0  0  0  0  0  0  0  0
   40.1170   34.3260   48.0670 C   0  0  0  0  0  0  0  0  0  0  0  0
   39.8560   33.3540   47.0940 C   0  0  0  0  0  0  0  0  0  0  0  0
   38.9810   32.3390   47.2030 N   0  0  0  0  0  0  0  0  0  0  0  0
  2  1  1  0  0  0  0
  3 12  1  0  0  0  0
  3  2  2  0  0  0  0
  4  3  1  0  0  0  0
  5  4  2  0  0  0  0
  5  6  1  0  0  0  0
  6  7  2  0  0  0  0
  7  2  1  0  0  0  0
  7 20  1  0  0  0  0
  8  4  1  0  0  0  0
  9  5  1  0  0  0  0
 10  6  1  0  0  0  0
 11 16  1  0  0  0  0
 11 17  1  0  0  0  0
 12 11  2  0  0  0  0
 13 14  2  0  0  0  0
 13 12  1  0  0  0  0
 14 15  1  0  0  0  0
 15 19  1  0  0  0  0
 15 16  2  0  0  0  0
 18 13  1  0  0  0  0
 21 20  1  0  0  0  0
 21 22  1  0  0  0  0
 22 23  1  0  0  0  0
 24 22  2  0  0  0  0
 24 25  1  0  0  0  0
 26 24  1  0  0  0  0
 27 28  1  0  0  0  0
 27 26  2  0  0  0  0
 28 21  2  0  0  0  0
M  END
>  <minimizedAffinity>
-5.13754129

>  <minimizedRMSD>
3.8010118

$$$$
