
 OpenBabel03272503433D

 40 43  0  0  1  0  0  0  0  0999 V2000
   37.7470   26.2110   33.1840 C   0  0  0  0  0  0  0  0  0  0  0  0
   38.7960   26.8280   32.5600 C   0  0  0  0  0  0  0  0  0  0  0  0
   38.2010   27.8460   31.8110 C   0  0  0  0  0  0  0  0  0  0  0  0
   36.8780   27.8210   31.9910 N   0  0  0  0  0  0  0  0  0  0  0  0
   36.5850   26.8250   32.8300 N   0  0  0  0  0  0  0  0  0  0  0  0
   39.8670   26.6000   32.6140 H   0  0  0  0  0  0  0  0  0  0  0  0
   38.8070   28.5140   31.1990 H   0  0  0  0  0  0  0  0  0  0  0  0
   35.0040   29.3480   32.3480 C   0  0  2  0  0  0  0  0  0  0  0  0
   35.9880   28.7560   31.3450 C   0  0  1  0  0  0  0  0  0  0  0  0
   36.6910   30.0350   30.9470 C   0  0  0  0  0  0  0  0  0  0  0  0
   35.7490   31.0360   30.9380 O   0  0  0  0  0  0  0  0  0  0  0  0
   34.6120   30.6070   31.5520 C   0  0  0  0  0  0  0  0  0  0  0  0
   34.1290   28.7130   32.5320 H   0  0  0  0  0  0  0  0  0  0  0  0
   35.5000   28.3160   30.4760 H   0  0  0  0  0  0  0  0  0  0  0  0
   37.2070   29.9560   29.9770 H   0  0  0  0  0  0  0  0  0  0  0  0
   37.4310   30.2710   31.7400 H   0  0  0  0  0  0  0  0  0  0  0  0
   33.9100   30.2270   30.7630 H   0  0  0  0  0  0  0  0  0  0  0  0
   34.1270   31.3420   32.2110 H   0  0  0  0  0  0  0  0  0  0  0  0
   35.7390   29.7360   33.4600 O   0  0  0  0  0  0  0  0  0  0  0  0
   35.2440   30.4170   34.5610 C   0  0  0  0  0  0  0  0  0  0  0  0
   35.9260   31.3060   35.3690 C   0  0  0  0  0  0  0  0  0  0  0  0
   36.9450   31.4810   35.1110 H   0  0  0  0  0  0  0  0  0  0  0  0
   35.3070   31.9180   36.4400 C   0  0  0  0  0  0  0  0  0  0  0  0
   35.8900   32.6140   37.0500 H   0  0  0  0  0  0  0  0  0  0  0  0
   33.9730   31.6050   36.6730 C   0  0  0  0  0  3  0  0  0  0  0  0
   33.2930   30.7150   35.8650 C   0  0  0  0  0  3  0  0  0  0  0  0
   33.9320   30.1260   34.8130 N   0  0  0  0  0  0  0  0  0  0  0  0
   38.0790   24.0760   36.2450 C   0  0  0  0  0  0  0  0  0  0  0  0
   37.9830   25.2050   35.4440 C   0  0  0  0  0  0  0  0  0  0  0  0
   37.8520   25.0840   34.0810 C   0  0  0  0  0  0  0  0  0  0  0  0
   37.8230   23.8270   33.5720 N   0  0  0  0  0  0  0  0  0  0  0  0
   37.9200   22.7270   34.3790 C   0  0  0  0  0  0  0  0  0  0  0  0
   38.0450   22.8430   35.6890 N   0  0  0  0  0  0  0  0  0  0  0  0
   38.0020   26.2280   35.7980 H   0  0  0  0  0  0  0  0  0  0  0  0
   37.8970   21.7190   33.9870 H   0  0  0  0  0  0  0  0  0  0  0  0
   38.2060   24.3980   37.6010 O   0  0  0  0  0  0  0  0  0  0  0  0
   38.5780   23.4600   38.5880 C   0  0  0  0  0  0  0  0  0  0  0  0
   37.5280   22.6250   38.9160 F   0  0  0  0  0  0  0  0  0  0  0  0
   39.0290   24.1560   39.6840 F   0  0  0  0  0  0  0  0  0  0  0  0
   39.6210   22.7110   38.0920 F   0  0  0  0  0  0  0  0  0  0  0  0
  1 30  1  0  0  0  0
  2  6  1  0  0  0  0
  2  1  1  0  0  0  0
  3  4  1  0  0  0  0
  3  2  2  0  0  0  0
  4  5  1  0  0  0  0
  5  1  2  0  0  0  0
  7  3  1  0  0  0  0
  8 13  1  1  0  0  0
  8 19  1  0  0  0  0
  9 14  1  6  0  0  0
  9  4  1  0  0  0  0
  9  8  1  0  0  0  0
 10  9  1  0  0  0  0
 10 16  1  0  0  0  0
 11 10  1  0  0  0  0
 11 12  1  0  0  0  0
 12 18  1  0  0  0  0
 12  8  1  0  0  0  0
 15 10  1  0  0  0  0
 17 12  1  0  0  0  0
 19 20  1  0  0  0  0
 20 27  2  0  0  0  0
 20 21  1  0  0  0  0
 21 23  2  0  0  0  0
 22 21  1  0  0  0  0
 23 25  1  0  0  0  0
 23 24  1  0  0  0  0
 26 25  2  0  0  0  0
 27 26  1  0  0  0  0
 28 36  1  0  0  0  0
 29 34  1  0  0  0  0
 29 28  2  0  0  0  0
 30 29  1  0  0  0  0
 31 30  2  0  0  0  0
 31 32  1  0  0  0  0
 32 33  2  0  0  0  0
 33 28  1  0  0  0  0
 35 32  1  0  0  0  0
 36 37  1  0  0  0  0
 37 38  1  0  0  0  0
 37 39  1  0  0  0  0
 40 37  1  0  0  0  0
M  END
>  <minimizedAffinity>
-6.25367069

$$$$

 OpenBabel03272503433D

 40 43  0  0  1  0  0  0  0  0999 V2000
   37.2820   27.1070   33.0640 C   0  0  0  0  0  0  0  0  0  0  0  0
   38.5870   27.1290   33.4750 C   0  0  0  0  0  0  0  0  0  0  0  0
   39.0310   25.8180   33.2820 C   0  0  0  0  0  0  0  0  0  0  0  0
   38.0380   25.0760   32.7850 N   0  0  0  0  0  0  0  0  0  0  0  0
   36.9610   25.8520   32.6460 N   0  0  0  0  0  0  0  0  0  0  0  0
   39.1760   27.9640   33.8690 H   0  0  0  0  0  0  0  0  0  0  0  0
   40.0550   25.5350   33.5280 H   0  0  0  0  0  0  0  0  0  0  0  0
   38.6310   22.8950   33.7150 C   0  0  2  0  0  0  0  0  0  0  0  0
   38.1940   23.6740   32.4780 C   0  0  1  0  0  0  0  0  0  0  0  0
   36.8670   22.9870   32.2440 C   0  0  0  0  0  0  0  0  0  0  0  0
   37.0250   21.6620   32.5740 O   0  0  0  0  0  0  0  0  0  0  0  0
   38.1930   21.4920   33.2520 C   0  0  0  0  0  0  0  0  0  0  0  0
   39.7120   22.9280   33.8960 H   0  0  0  0  0  0  0  0  0  0  0  0
   38.8490   23.5180   31.6220 H   0  0  0  0  0  0  0  0  0  0  0  0
   36.5000   23.1060   31.2120 H   0  0  0  0  0  0  0  0  0  0  0  0
   36.1320   23.4290   32.9490 H   0  0  0  0  0  0  0  0  0  0  0  0
   38.9850   21.1850   32.5170 H   0  0  0  0  0  0  0  0  0  0  0  0
   38.1440   20.8040   34.1090 H   0  0  0  0  0  0  0  0  0  0  0  0
   37.8080   23.2940   34.7600 O   0  0  0  0  0  0  0  0  0  0  0  0
   38.1830   23.3990   36.0910 C   0  0  0  0  0  0  0  0  0  0  0  0
   37.5230   24.0850   37.0910 C   0  0  0  0  0  0  0  0  0  0  0  0
   36.6290   24.5870   36.8000 H   0  0  0  0  0  0  0  0  0  0  0  0
   38.0090   24.1070   38.3830 C   0  0  0  0  0  0  0  0  0  0  0  0
   37.4500   24.6650   39.1400 H   0  0  0  0  0  0  0  0  0  0  0  0
   39.1850   23.4120   38.6350 C   0  0  0  0  0  3  0  0  0  0  0  0
   39.8440   22.7270   37.6340 C   0  0  0  0  0  3  0  0  0  0  0  0
   39.3380   22.7240   36.3660 N   0  0  0  0  0  0  0  0  0  0  0  0
   35.0880   29.9430   34.1470 C   0  0  0  0  0  0  0  0  0  0  0  0
   35.9540   28.8610   34.2170 C   0  0  0  0  0  0  0  0  0  0  0  0
   36.3840   28.2370   33.0700 C   0  0  0  0  0  0  0  0  0  0  0  0
   35.9260   28.7260   31.8910 N   0  0  0  0  0  0  0  0  0  0  0  0
   35.0740   29.7940   31.8440 C   0  0  0  0  0  0  0  0  0  0  0  0
   34.6600   30.3950   32.9460 N   0  0  0  0  0  0  0  0  0  0  0  0
   36.3470   28.4310   35.1300 H   0  0  0  0  0  0  0  0  0  0  0  0
   34.7010   30.1960   30.9110 H   0  0  0  0  0  0  0  0  0  0  0  0
   34.7630   30.4430   35.4130 O   0  0  0  0  0  0  0  0  0  0  0  0
   35.3490   31.6060   35.9600 C   0  0  0  0  0  0  0  0  0  0  0  0
   35.0460   32.7260   35.2120 F   0  0  0  0  0  0  0  0  0  0  0  0
   36.7060   31.4000   36.0340 F   0  0  0  0  0  0  0  0  0  0  0  0
   34.8640   31.7640   37.2390 F   0  0  0  0  0  0  0  0  0  0  0  0
  1 30  1  0  0  0  0
  1  2  1  0  0  0  0
  2  6  1  0  0  0  0
  3  2  2  0  0  0  0
  3  7  1  0  0  0  0
  4  3  1  0  0  0  0
  5  4  1  0  0  0  0
  5  1  2  0  0  0  0
  8 13  1  1  0  0  0
  8 19  1  0  0  0  0
  9 14  1  6  0  0  0
  9  4  1  0  0  0  0
  9  8  1  0  0  0  0
 10  9  1  0  0  0  0
 10 11  1  0  0  0  0
 10 16  1  0  0  0  0
 11 12  1  0  0  0  0
 12  8  1  0  0  0  0
 12 18  1  0  0  0  0
 15 10  1  0  0  0  0
 17 12  1  0  0  0  0
 19 20  1  0  0  0  0
 20 27  2  0  0  0  0
 20 21  1  0  0  0  0
 21 23  2  0  0  0  0
 22 21  1  0  0  0  0
 23 25  1  0  0  0  0
 23 24  1  0  0  0  0
 26 25  2  0  0  0  0
 27 26  1  0  0  0  0
 28 29  1  0  0  0  0
 28 36  1  0  0  0  0
 29 34  1  0  0  0  0
 30 29  2  0  0  0  0
 31 30  1  0  0  0  0
 32 31  2  0  0  0  0
 32 33  1  0  0  0  0
 33 28  2  0  0  0  0
 35 32  1  0  0  0  0
 36 37  1  0  0  0  0
 37 39  1  0  0  0  0
 37 40  1  0  0  0  0
 38 37  1  0  0  0  0
M  END
>  <minimizedAffinity>
-6.13324499

$$$$

 OpenBabel03272503433D

 40 43  0  0  1  0  0  0  0  0999 V2000
   37.8290   25.7430   33.0320 C   0  0  0  0  0  0  0  0  0  0  0  0
   38.8940   26.5120   32.6500 C   0  0  0  0  0  0  0  0  0  0  0  0
   38.3170   27.5940   31.9810 C   0  0  0  0  0  0  0  0  0  0  0  0
   36.9880   27.4600   31.9740 N   0  0  0  0  0  0  0  0  0  0  0  0
   36.6740   26.3320   32.6150 N   0  0  0  0  0  0  0  0  0  0  0  0
   39.9640   26.3450   32.8160 H   0  0  0  0  0  0  0  0  0  0  0  0
   38.9390   28.3840   31.5590 H   0  0  0  0  0  0  0  0  0  0  0  0
   35.0750   28.9330   32.3500 C   0  0  2  0  0  0  0  0  0  0  0  0
   36.1130   28.4270   31.3550 C   0  0  1  0  0  0  0  0  0  0  0  0
   36.8120   29.7400   31.0800 C   0  0  0  0  0  0  0  0  0  0  0  0
   35.8550   30.7270   31.0970 O   0  0  0  0  0  0  0  0  0  0  0  0
   34.6990   30.2400   31.6260 C   0  0  0  0  0  0  0  0  0  0  0  0
   34.2030   28.2750   32.4490 H   0  0  0  0  0  0  0  0  0  0  0  0
   35.6720   28.0420   30.4350 H   0  0  0  0  0  0  0  0  0  0  0  0
   37.3730   29.7360   30.1320 H   0  0  0  0  0  0  0  0  0  0  0  0
   37.5110   29.9290   31.9210 H   0  0  0  0  0  0  0  0  0  0  0  0
   34.0390   29.9070   30.7810 H   0  0  0  0  0  0  0  0  0  0  0  0
   34.1720   30.9200   32.3110 H   0  0  0  0  0  0  0  0  0  0  0  0
   35.7520   29.2520   33.5200 O   0  0  0  0  0  0  0  0  0  0  0  0
   35.2710   30.0560   34.5410 C   0  0  0  0  0  0  0  0  0  0  0  0
   35.9860   30.9680   35.2920 C   0  0  0  0  0  0  0  0  0  0  0  0
   37.0210   31.0570   35.0550 H   0  0  0  0  0  0  0  0  0  0  0  0
   35.3780   31.7080   36.2860 C   0  0  0  0  0  0  0  0  0  0  0  0
   35.9870   32.4180   36.8540 H   0  0  0  0  0  0  0  0  0  0  0  0
   34.0210   31.5010   36.4990 C   0  0  0  0  0  3  0  0  0  0  0  0
   33.3070   30.5880   35.7470 C   0  0  0  0  0  3  0  0  0  0  0  0
   33.9370   29.8710   34.7710 N   0  0  0  0  0  0  0  0  0  0  0  0
   37.5430   22.1490   34.0490 C   0  0  0  0  0  0  0  0  0  0  0  0
   37.4280   23.3050   33.2900 C   0  0  0  0  0  0  0  0  0  0  0  0
   37.9120   24.5010   33.7630 C   0  0  0  0  0  0  0  0  0  0  0  0
   38.4950   24.4910   34.9880 N   0  0  0  0  0  0  0  0  0  0  0  0
   38.5980   23.3410   35.7200 C   0  0  0  0  0  0  0  0  0  0  0  0
   38.1330   22.1910   35.2650 N   0  0  0  0  0  0  0  0  0  0  0  0
   36.9720   23.3680   32.3100 H   0  0  0  0  0  0  0  0  0  0  0  0
   39.0610   23.3170   36.6980 H   0  0  0  0  0  0  0  0  0  0  0  0
   36.9940   21.0350   33.4030 O   0  0  0  0  0  0  0  0  0  0  0  0
   35.6910   20.5560   33.6590 C   0  0  0  0  0  0  0  0  0  0  0  0
   35.3140   20.7840   34.9680 F   0  0  0  0  0  0  0  0  0  0  0  0
   35.6670   19.2160   33.3540 F   0  0  0  0  0  0  0  0  0  0  0  0
   34.8240   21.2090   32.8120 F   0  0  0  0  0  0  0  0  0  0  0  0
  1 30  1  0  0  0  0
  2  6  1  0  0  0  0
  2  1  1  0  0  0  0
  3  2  2  0  0  0  0
  4  3  1  0  0  0  0
  4  5  1  0  0  0  0
  5  1  2  0  0  0  0
  7  3  1  0  0  0  0
  8 13  1  1  0  0  0
  8 19  1  0  0  0  0
  9 14  1  6  0  0  0
  9  4  1  0  0  0  0
  9  8  1  0  0  0  0
 10 11  1  0  0  0  0
 10  9  1  0  0  0  0
 10 16  1  0  0  0  0
 11 12  1  0  0  0  0
 12 18  1  0  0  0  0
 12  8  1  0  0  0  0
 15 10  1  0  0  0  0
 17 12  1  0  0  0  0
 19 20  1  0  0  0  0
 20 27  2  0  0  0  0
 20 21  1  0  0  0  0
 21 23  2  0  0  0  0
 22 21  1  0  0  0  0
 23 25  1  0  0  0  0
 23 24  1  0  0  0  0
 26 25  2  0  0  0  0
 27 26  1  0  0  0  0
 28 33  1  0  0  0  0
 29 30  1  0  0  0  0
 29 28  2  0  0  0  0
 30 31  2  0  0  0  0
 31 32  1  0  0  0  0
 32 35  1  0  0  0  0
 33 32  2  0  0  0  0
 34 29  1  0  0  0  0
 36 37  1  0  0  0  0
 36 28  1  0  0  0  0
 37 38  1  0  0  0  0
 39 37  1  0  0  0  0
 40 37  1  0  0  0  0
M  END
>  <minimizedAffinity>
-5.94774342

$$$$

 OpenBabel03272503433D

 40 43  0  0  1  0  0  0  0  0999 V2000
   36.3950   28.0410   33.7380 C   0  0  0  0  0  0  0  0  0  0  0  0
   35.7650   28.3960   32.5770 C   0  0  0  0  0  0  0  0  0  0  0  0
   35.3270   29.7030   32.8080 C   0  0  0  0  0  0  0  0  0  0  0  0
   35.6840   30.0850   34.0370 N   0  0  0  0  0  0  0  0  0  0  0  0
   36.3390   29.0780   34.6180 N   0  0  0  0  0  0  0  0  0  0  0  0
   35.6200   27.8130   31.6600 H   0  0  0  0  0  0  0  0  0  0  0  0
   34.7820   30.2520   32.0400 H   0  0  0  0  0  0  0  0  0  0  0  0
   33.9000   31.4810   34.9520 C   0  0  2  0  0  0  0  0  0  0  0  0
   35.3720   31.3920   34.5650 C   0  0  1  0  0  0  0  0  0  0  0  0
   35.9720   31.6140   35.9360 C   0  0  0  0  0  0  0  0  0  0  0  0
   35.1740   32.5200   36.5920 O   0  0  0  0  0  0  0  0  0  0  0  0
   34.0020   32.6760   35.9190 C   0  0  0  0  0  0  0  0  0  0  0  0
   33.2370   31.7140   34.1100 H   0  0  0  0  0  0  0  0  0  0  0  0
   35.6850   32.1870   33.8890 H   0  0  0  0  0  0  0  0  0  0  0  0
   37.0200   31.9520   35.8940 H   0  0  0  0  0  0  0  0  0  0  0  0
   35.9180   30.6510   36.4850 H   0  0  0  0  0  0  0  0  0  0  0  0
   34.0990   33.5680   35.2450 H   0  0  0  0  0  0  0  0  0  0  0  0
   33.1020   32.7370   36.5490 H   0  0  0  0  0  0  0  0  0  0  0  0
   33.6000   30.3400   35.6860 O   0  0  0  0  0  0  0  0  0  0  0  0
   32.3640   29.7170   35.7450 C   0  0  0  0  0  0  0  0  0  0  0  0
   31.4780   29.7200   36.8040 C   0  0  0  0  0  0  0  0  0  0  0  0
   31.7870   30.2630   37.6680 H   0  0  0  0  0  0  0  0  0  0  0  0
   30.2720   29.0530   36.7290 C   0  0  0  0  0  0  0  0  0  0  0  0
   29.6040   29.0850   37.5950 H   0  0  0  0  0  0  0  0  0  0  0  0
   29.9850   28.3810   35.5470 C   0  0  0  0  0  3  0  0  0  0  0  0
   30.8720   28.3780   34.4890 C   0  0  0  0  0  3  0  0  0  0  0  0
   32.0570   29.0470   34.5940 N   0  0  0  0  0  0  0  0  0  0  0  0
   38.1690   25.1760   35.3740 C   0  0  0  0  0  0  0  0  0  0  0  0
   37.5820   26.4210   35.2010 C   0  0  0  0  0  0  0  0  0  0  0  0
   37.0220   26.7660   33.9930 C   0  0  0  0  0  0  0  0  0  0  0  0
   37.0760   25.8430   33.0010 N   0  0  0  0  0  0  0  0  0  0  0  0
   37.6600   24.6220   33.1930 C   0  0  0  0  0  0  0  0  0  0  0  0
   38.1970   24.2890   34.3540 N   0  0  0  0  0  0  0  0  0  0  0  0
   37.5130   27.1930   35.9580 H   0  0  0  0  0  0  0  0  0  0  0  0
   37.7090   23.8750   32.4120 H   0  0  0  0  0  0  0  0  0  0  0  0
   38.6820   25.0080   36.6660 O   0  0  0  0  0  0  0  0  0  0  0  0
   38.1110   24.1360   37.6180 C   0  0  0  0  0  0  0  0  0  0  0  0
   36.9500   23.5580   37.1450 F   0  0  0  0  0  0  0  0  0  0  0  0
   37.8850   24.8550   38.7670 F   0  0  0  0  0  0  0  0  0  0  0  0
   39.0320   23.1510   37.8980 F   0  0  0  0  0  0  0  0  0  0  0  0
  1 30  1  0  0  0  0
  1  5  2  0  0  0  0
  2  3  2  0  0  0  0
  2  1  1  0  0  0  0
  3  4  1  0  0  0  0
  4  9  1  0  0  0  0
  4  5  1  0  0  0  0
  6  2  1  0  0  0  0
  7  3  1  0  0  0  0
  8 13  1  6  0  0  0
  8 19  1  0  0  0  0
  8 12  1  0  0  0  0
  9 14  1  6  0  0  0
  9  8  1  0  0  0  0
  9 10  1  0  0  0  0
 10 16  1  0  0  0  0
 10 11  1  0  0  0  0
 12 18  1  0  0  0  0
 12 11  1  0  0  0  0
 15 10  1  0  0  0  0
 17 12  1  0  0  0  0
 19 20  1  0  0  0  0
 20 21  1  0  0  0  0
 21 22  1  0  0  0  0
 23 21  2  0  0  0  0
 23 24  1  0  0  0  0
 25 23  1  0  0  0  0
 26 27  1  0  0  0  0
 26 25  2  0  0  0  0
 27 20  2  0  0  0  0
 28 36  1  0  0  0  0
 29 28  1  0  0  0  0
 29 34  1  0  0  0  0
 30 29  2  0  0  0  0
 31 32  2  0  0  0  0
 31 30  1  0  0  0  0
 32 33  1  0  0  0  0
 33 28  2  0  0  0  0
 35 32  1  0  0  0  0
 36 37  1  0  0  0  0
 37 40  1  0  0  0  0
 37 39  1  0  0  0  0
 38 37  1  0  0  0  0
M  END
>  <minimizedAffinity>
-5.8522706

$$$$

 OpenBabel03272503433D

 40 43  0  0  1  0  0  0  0  0999 V2000
   38.1250   25.8070   35.0280 C   0  0  0  0  0  0  0  0  0  0  0  0
   37.1030   26.7150   35.0380 C   0  0  0  0  0  0  0  0  0  0  0  0
   37.2370   27.3980   33.8260 C   0  0  0  0  0  0  0  0  0  0  0  0
   38.2800   26.9110   33.1500 N   0  0  0  0  0  0  0  0  0  0  0  0
   38.8340   25.9360   33.8730 N   0  0  0  0  0  0  0  0  0  0  0  0
   36.3390   26.8920   35.8040 H   0  0  0  0  0  0  0  0  0  0  0  0
   36.5440   28.1960   33.5570 H   0  0  0  0  0  0  0  0  0  0  0  0
   38.5190   26.3400   30.7860 C   0  0  2  0  0  0  0  0  0  0  0  0
   38.6710   27.4170   31.8550 C   0  0  1  0  0  0  0  0  0  0  0  0
   37.6770   28.4150   31.3050 C   0  0  0  0  0  0  0  0  0  0  0  0
   37.7580   28.3630   29.9340 O   0  0  0  0  0  0  0  0  0  0  0  0
   38.4660   27.2640   29.5540 C   0  0  0  0  0  0  0  0  0  0  0  0
   39.3740   25.6560   30.7260 H   0  0  0  0  0  0  0  0  0  0  0  0
   39.6670   27.8590   31.8780 H   0  0  0  0  0  0  0  0  0  0  0  0
   37.8430   29.4360   31.6820 H   0  0  0  0  0  0  0  0  0  0  0  0
   36.6630   28.0740   31.5990 H   0  0  0  0  0  0  0  0  0  0  0  0
   39.5340   27.5720   29.3950 H   0  0  0  0  0  0  0  0  0  0  0  0
   38.0650   26.7220   28.6850 H   0  0  0  0  0  0  0  0  0  0  0  0
   37.2680   25.7640   30.9620 O   0  0  0  0  0  0  0  0  0  0  0  0
   37.0050   24.4050   31.0380 C   0  0  0  0  0  0  0  0  0  0  0  0
   35.8150   23.8050   31.3990 C   0  0  0  0  0  0  0  0  0  0  0  0
   35.0160   24.4650   31.6440 H   0  0  0  0  0  0  0  0  0  0  0  0
   35.6900   22.4310   31.4320 C   0  0  0  0  0  0  0  0  0  0  0  0
   34.7260   22.0020   31.7250 H   0  0  0  0  0  0  0  0  0  0  0  0
   36.8060   21.6780   31.0890 C   0  0  0  0  0  3  0  0  0  0  0  0
   37.9960   22.2800   30.7290 C   0  0  0  0  0  3  0  0  0  0  0  0
   38.0880   23.6410   30.7060 N   0  0  0  0  0  0  0  0  0  0  0  0
   39.4340   22.8760   36.9600 C   0  0  0  0  0  0  0  0  0  0  0  0
   39.2040   23.7480   35.9050 C   0  0  0  0  0  0  0  0  0  0  0  0
   38.4100   24.8570   36.0770 C   0  0  0  0  0  0  0  0  0  0  0  0
   37.8750   25.0480   37.3080 N   0  0  0  0  0  0  0  0  0  0  0  0
   38.1140   24.1770   38.3350 C   0  0  0  0  0  0  0  0  0  0  0  0
   38.8780   23.1110   38.1700 N   0  0  0  0  0  0  0  0  0  0  0  0
   39.6050   23.6410   34.9050 H   0  0  0  0  0  0  0  0  0  0  0  0
   37.6950   24.3170   39.3220 H   0  0  0  0  0  0  0  0  0  0  0  0
   40.2640   21.8100   36.5940 O   0  0  0  0  0  0  0  0  0  0  0  0
   41.6150   21.7080   36.9920 C   0  0  0  0  0  0  0  0  0  0  0  0
   41.7470   20.9830   38.1590 F   0  0  0  0  0  0  0  0  0  0  0  0
   42.1110   22.9830   37.1310 F   0  0  0  0  0  0  0  0  0  0  0  0
   42.3090   21.0820   35.9820 F   0  0  0  0  0  0  0  0  0  0  0  0
  1  2  1  0  0  0  0
  1 30  1  0  0  0  0
  2  6  1  0  0  0  0
  3  2  2  0  0  0  0
  4  3  1  0  0  0  0
  4  5  1  0  0  0  0
  5  1  2  0  0  0  0
  7  3  1  0  0  0  0
  8 13  1  6  0  0  0
  8 19  1  0  0  0  0
  8  9  1  0  0  0  0
  9 14  1  1  0  0  0
  9  4  1  0  0  0  0
 10 16  1  0  0  0  0
 10 15  1  0  0  0  0
 10  9  1  0  0  0  0
 11 10  1  0  0  0  0
 12 11  1  0  0  0  0
 12  8  1  0  0  0  0
 17 12  1  0  0  0  0
 18 12  1  0  0  0  0
 19 20  1  0  0  0  0
 20 21  1  0  0  0  0
 21 23  2  0  0  0  0
 21 22  1  0  0  0  0
 23 24  1  0  0  0  0
 25 23  1  0  0  0  0
 26 25  2  0  0  0  0
 27 26  1  0  0  0  0
 27 20  2  0  0  0  0
 28 33  1  0  0  0  0
 29 30  1  0  0  0  0
 29 28  2  0  0  0  0
 30 31  2  0  0  0  0
 31 32  1  0  0  0  0
 32 35  1  0  0  0  0
 33 32  2  0  0  0  0
 34 29  1  0  0  0  0
 36 28  1  0  0  0  0
 36 37  1  0  0  0  0
 37 39  1  0  0  0  0
 37 38  1  0  0  0  0
 40 37  1  0  0  0  0
M  END
>  <minimizedAffinity>
-5.8445034

$$$$

 OpenBabel03272503433D

 40 43  0  0  1  0  0  0  0  0999 V2000
   37.6140   27.1100   33.7630 C   0  0  0  0  0  0  0  0  0  0  0  0
   38.6380   26.7920   32.9140 C   0  0  0  0  0  0  0  0  0  0  0  0
   39.3180   25.7590   33.5650 C   0  0  0  0  0  0  0  0  0  0  0  0
   38.7210   25.4930   34.7290 N   0  0  0  0  0  0  0  0  0  0  0  0
   37.6750   26.3120   34.8650 N   0  0  0  0  0  0  0  0  0  0  0  0
   38.8920   27.2270   31.9410 H   0  0  0  0  0  0  0  0  0  0  0  0
   40.1960   25.2990   33.1120 H   0  0  0  0  0  0  0  0  0  0  0  0
   38.4280   23.1680   35.4230 C   0  0  2  0  0  0  0  0  0  0  0  0
   39.1960   24.4690   35.6300 C   0  0  1  0  0  0  0  0  0  0  0  0
   40.5750   23.9720   35.2570 C   0  0  0  0  0  0  0  0  0  0  0  0
   40.6810   22.6780   35.7060 O   0  0  0  0  0  0  0  0  0  0  0  0
   39.4530   22.2090   36.0580 C   0  0  0  0  0  0  0  0  0  0  0  0
   37.4720   23.1320   35.9590 H   0  0  0  0  0  0  0  0  0  0  0  0
   39.1910   24.8080   36.6650 H   0  0  0  0  0  0  0  0  0  0  0  0
   41.3810   24.6070   35.6560 H   0  0  0  0  0  0  0  0  0  0  0  0
   40.6360   23.9540   34.1480 H   0  0  0  0  0  0  0  0  0  0  0  0
   39.3220   22.3590   37.1630 H   0  0  0  0  0  0  0  0  0  0  0  0
   39.2420   21.1710   35.7600 H   0  0  0  0  0  0  0  0  0  0  0  0
   38.3870   22.9320   34.0550 O   0  0  0  0  0  0  0  0  0  0  0  0
   37.2910   22.4680   33.3460 C   0  0  0  0  0  0  0  0  0  0  0  0
   36.7730   22.9880   32.1750 C   0  0  0  0  0  0  0  0  0  0  0  0
   37.2780   23.8400   31.7820 H   0  0  0  0  0  0  0  0  0  0  0  0
   35.6690   22.4240   31.5700 C   0  0  0  0  0  0  0  0  0  0  0  0
   35.2960   22.8730   30.6440 H   0  0  0  0  0  0  0  0  0  0  0  0
   35.1000   21.3140   32.1830 C   0  0  0  0  0  3  0  0  0  0  0  0
   35.6180   20.7960   33.3530 C   0  0  0  0  0  3  0  0  0  0  0  0
   36.7120   21.3760   33.9280 N   0  0  0  0  0  0  0  0  0  0  0  0
   35.1010   29.8470   34.2360 C   0  0  0  0  0  0  0  0  0  0  0  0
   36.0510   28.8810   34.5340 C   0  0  0  0  0  0  0  0  0  0  0  0
   36.6210   28.1320   33.5320 C   0  0  0  0  0  0  0  0  0  0  0  0
   36.2120   28.3830   32.2630 N   0  0  0  0  0  0  0  0  0  0  0  0
   35.2740   29.3400   31.9920 C   0  0  0  0  0  0  0  0  0  0  0  0
   34.7260   30.0610   32.9550 N   0  0  0  0  0  0  0  0  0  0  0  0
   36.4110   28.6410   35.5260 H   0  0  0  0  0  0  0  0  0  0  0  0
   34.9380   29.5530   30.9850 H   0  0  0  0  0  0  0  0  0  0  0  0
   34.6380   30.5040   35.3820 O   0  0  0  0  0  0  0  0  0  0  0  0
   35.2920   31.6180   35.9540 C   0  0  0  0  0  0  0  0  0  0  0  0
   34.7870   31.9150   37.2040 F   0  0  0  0  0  0  0  0  0  0  0  0
   35.1540   32.6770   35.0900 F   0  0  0  0  0  0  0  0  0  0  0  0
   36.6310   31.3160   36.0590 F   0  0  0  0  0  0  0  0  0  0  0  0
  1  5  2  0  0  0  0
  2  3  2  0  0  0  0
  2  1  1  0  0  0  0
  3  4  1  0  0  0  0
  4  5  1  0  0  0  0
  4  9  1  0  0  0  0
  6  2  1  0  0  0  0
  7  3  1  0  0  0  0
  8  9  1  0  0  0  0
  8 13  1  1  0  0  0
  8 12  1  0  0  0  0
  9 14  1  1  0  0  0
 10  9  1  0  0  0  0
 10 15  1  0  0  0  0
 10 11  1  0  0  0  0
 11 12  1  0  0  0  0
 12 17  1  0  0  0  0
 16 10  1  0  0  0  0
 18 12  1  0  0  0  0
 19  8  1  0  0  0  0
 20 27  1  0  0  0  0
 20 19  1  0  0  0  0
 21 20  2  0  0  0  0
 22 21  1  0  0  0  0
 23 21  1  0  0  0  0
 23 25  2  0  0  0  0
 24 23  1  0  0  0  0
 25 26  1  0  0  0  0
 26 27  2  0  0  0  0
 28 29  1  0  0  0  0
 28 36  1  0  0  0  0
 29 34  1  0  0  0  0
 30  1  1  0  0  0  0
 30 29  2  0  0  0  0
 31 30  1  0  0  0  0
 32 31  2  0  0  0  0
 32 33  1  0  0  0  0
 33 28  2  0  0  0  0
 35 32  1  0  0  0  0
 36 37  1  0  0  0  0
 37 40  1  0  0  0  0
 37 38  1  0  0  0  0
 39 37  1  0  0  0  0
M  END
>  <minimizedAffinity>
-5.81051826

$$$$

 OpenBabel03272503433D

 40 43  0  0  1  0  0  0  0  0999 V2000
   37.0960   26.8420   33.3480 C   0  0  0  0  0  0  0  0  0  0  0  0
   37.4310   26.0330   32.2980 C   0  0  0  0  0  0  0  0  0  0  0  0
   37.9120   24.8670   32.9010 C   0  0  0  0  0  0  0  0  0  0  0  0
   37.8590   24.9950   34.2290 N   0  0  0  0  0  0  0  0  0  0  0  0
   37.3610   26.1990   34.5180 N   0  0  0  0  0  0  0  0  0  0  0  0
   37.3520   26.2240   31.2220 H   0  0  0  0  0  0  0  0  0  0  0  0
   38.2580   24.0290   32.2950 H   0  0  0  0  0  0  0  0  0  0  0  0
   39.8100   23.9330   35.2490 C   0  0  2  0  0  0  0  0  0  0  0  0
   38.2900   23.9500   35.1270 C   0  0  1  0  0  0  0  0  0  0  0  0
   37.9580   24.2600   36.5700 C   0  0  0  0  0  0  0  0  0  0  0  0
   38.8810   23.6110   37.3540 O   0  0  0  0  0  0  0  0  0  0  0  0
   39.9120   23.1690   36.5830 C   0  0  0  0  0  0  0  0  0  0  0  0
   40.3090   23.3830   34.4430 H   0  0  0  0  0  0  0  0  0  0  0  0
   37.8730   22.9810   34.8510 H   0  0  0  0  0  0  0  0  0  0  0  0
   36.9280   23.9810   36.8420 H   0  0  0  0  0  0  0  0  0  0  0  0
   38.0930   25.3530   36.7170 H   0  0  0  0  0  0  0  0  0  0  0  0
   39.7100   22.1010   36.3040 H   0  0  0  0  0  0  0  0  0  0  0  0
   40.9140   23.2940   37.0200 H   0  0  0  0  0  0  0  0  0  0  0  0
   40.2170   25.2450   35.4560 O   0  0  0  0  0  0  0  0  0  0  0  0
   41.1520   25.9320   34.6990 C   0  0  0  0  0  0  0  0  0  0  0  0
   40.9240   27.0130   33.8710 C   0  0  0  0  0  0  0  0  0  0  0  0
   39.9140   27.3500   33.8130 H   0  0  0  0  0  0  0  0  0  0  0  0
   41.9540   27.6060   33.1700 C   0  0  0  0  0  0  0  0  0  0  0  0
   41.7220   28.4610   32.5260 H   0  0  0  0  0  0  0  0  0  0  0  0
   43.2270   27.0740   33.3300 C   0  0  0  0  0  3  0  0  0  0  0  0
   43.4540   25.9920   34.1580 C   0  0  0  0  0  3  0  0  0  0  0  0
   42.4150   25.4270   34.8390 N   0  0  0  0  0  0  0  0  0  0  0  0
   35.4310   30.1140   34.0980 C   0  0  0  0  0  0  0  0  0  0  0  0
   35.9380   28.8350   34.2780 C   0  0  0  0  0  0  0  0  0  0  0  0
   36.5460   28.1730   33.2370 C   0  0  0  0  0  0  0  0  0  0  0  0
   36.6210   28.8240   32.0510 N   0  0  0  0  0  0  0  0  0  0  0  0
   36.1150   30.0850   31.8940 C   0  0  0  0  0  0  0  0  0  0  0  0
   35.5320   30.7220   32.8940 N   0  0  0  0  0  0  0  0  0  0  0  0
   35.9030   28.2710   35.2020 H   0  0  0  0  0  0  0  0  0  0  0  0
   36.1690   30.6170   30.9540 H   0  0  0  0  0  0  0  0  0  0  0  0
   34.8520   30.6220   35.2660 O   0  0  0  0  0  0  0  0  0  0  0  0
   35.4010   31.6980   35.9980 C   0  0  0  0  0  0  0  0  0  0  0  0
   34.8670   31.7720   37.2680 F   0  0  0  0  0  0  0  0  0  0  0  0
   35.1720   32.8520   35.2860 F   0  0  0  0  0  0  0  0  0  0  0  0
   36.7610   31.5040   36.0820 F   0  0  0  0  0  0  0  0  0  0  0  0
  1  5  2  0  0  0  0
  2  3  2  0  0  0  0
  2  1  1  0  0  0  0
  3  4  1  0  0  0  0
  4  5  1  0  0  0  0
  4  9  1  0  0  0  0
  6  2  1  0  0  0  0
  7  3  1  0  0  0  0
  8 13  1  6  0  0  0
  8 19  1  0  0  0  0
  8 12  1  0  0  0  0
  9 14  1  6  0  0  0
  9  8  1  0  0  0  0
  9 10  1  0  0  0  0
 10 16  1  0  0  0  0
 10 15  1  0  0  0  0
 10 11  1  0  0  0  0
 12 18  1  0  0  0  0
 12 11  1  0  0  0  0
 17 12  1  0  0  0  0
 20 27  1  0  0  0  0
 20 19  1  0  0  0  0
 21 20  2  0  0  0  0
 22 21  1  0  0  0  0
 23 25  2  0  0  0  0
 23 21  1  0  0  0  0
 24 23  1  0  0  0  0
 25 26  1  0  0  0  0
 26 27  2  0  0  0  0
 28 29  1  0  0  0  0
 28 36  1  0  0  0  0
 29 34  1  0  0  0  0
 30  1  1  0  0  0  0
 30 29  2  0  0  0  0
 31 30  1  0  0  0  0
 32 31  2  0  0  0  0
 32 33  1  0  0  0  0
 33 28  2  0  0  0  0
 35 32  1  0  0  0  0
 36 37  1  0  0  0  0
 37 40  1  0  0  0  0
 37 38  1  0  0  0  0
 39 37  1  0  0  0  0
M  END
>  <minimizedAffinity>
-5.79308844

$$$$

 OpenBabel03272503433D

 40 43  0  0  1  0  0  0  0  0999 V2000
   35.7480   28.6440   31.9960 C   0  0  0  0  0  0  0  0  0  0  0  0
   36.8690   28.8960   31.2540 C   0  0  0  0  0  0  0  0  0  0  0  0
   37.2090   27.6540   30.7100 C   0  0  0  0  0  0  0  0  0  0  0  0
   36.3310   26.7320   31.1140 N   0  0  0  0  0  0  0  0  0  0  0  0
   35.4310   27.3230   31.9020 N   0  0  0  0  0  0  0  0  0  0  0  0
   37.4030   29.8410   31.1020 H   0  0  0  0  0  0  0  0  0  0  0  0
   38.0780   27.5500   30.0610 H   0  0  0  0  0  0  0  0  0  0  0  0
   37.4220   24.5960   31.5820 C   0  0  2  0  0  0  0  0  0  0  0  0
   36.4190   25.3480   30.7130 C   0  0  1  0  0  0  0  0  0  0  0  0
   35.1790   24.5640   31.0820 C   0  0  0  0  0  0  0  0  0  0  0  0
   35.5550   23.2530   31.2500 O   0  0  0  0  0  0  0  0  0  0  0  0
   36.9120   23.1670   31.3140 C   0  0  0  0  0  0  0  0  0  0  0  0
   38.4610   24.7100   31.2520 H   0  0  0  0  0  0  0  0  0  0  0  0
   36.6180   25.2470   29.6460 H   0  0  0  0  0  0  0  0  0  0  0  0
   34.3740   24.6620   30.3370 H   0  0  0  0  0  0  0  0  0  0  0  0
   34.8210   24.9450   32.0610 H   0  0  0  0  0  0  0  0  0  0  0  0
   37.2970   22.9250   30.2870 H   0  0  0  0  0  0  0  0  0  0  0  0
   37.3050   22.4720   32.0700 H   0  0  0  0  0  0  0  0  0  0  0  0
   37.1450   24.9250   32.9030 O   0  0  0  0  0  0  0  0  0  0  0  0
   37.9560   25.6800   33.7360 C   0  0  0  0  0  0  0  0  0  0  0  0
   39.3010   25.9480   33.5720 C   0  0  0  0  0  0  0  0  0  0  0  0
   39.7580   25.5240   32.7080 H   0  0  0  0  0  0  0  0  0  0  0  0
   39.9910   26.7200   34.4840 C   0  0  0  0  0  0  0  0  0  0  0  0
   41.0560   26.9030   34.3110 H   0  0  0  0  0  0  0  0  0  0  0  0
   39.2820   27.2150   35.5710 C   0  0  0  0  0  3  0  0  0  0  0  0
   37.9370   26.9460   35.7340 C   0  0  0  0  0  3  0  0  0  0  0  0
   37.2810   26.1790   34.8140 N   0  0  0  0  0  0  0  0  0  0  0  0
   34.8070   31.6670   33.9980 C   0  0  0  0  0  0  0  0  0  0  0  0
   35.5760   30.7690   33.2710 C   0  0  0  0  0  0  0  0  0  0  0  0
   35.0130   29.6230   32.7610 C   0  0  0  0  0  0  0  0  0  0  0  0
   33.6940   29.4220   33.0010 N   0  0  0  0  0  0  0  0  0  0  0  0
   32.9540   30.3200   33.7200 C   0  0  0  0  0  0  0  0  0  0  0  0
   33.4950   31.4220   34.2110 N   0  0  0  0  0  0  0  0  0  0  0  0
   36.6300   30.8810   33.0520 H   0  0  0  0  0  0  0  0  0  0  0  0
   31.9010   30.1740   33.9200 H   0  0  0  0  0  0  0  0  0  0  0  0
   35.5520   32.7690   34.4340 O   0  0  0  0  0  0  0  0  0  0  0  0
   36.1600   32.8380   35.7070 C   0  0  0  0  0  0  0  0  0  0  0  0
   35.4160   33.6010   36.5840 F   0  0  0  0  0  0  0  0  0  0  0  0
   37.4260   33.3480   35.5430 F   0  0  0  0  0  0  0  0  0  0  0  0
   36.2710   31.5550   36.1950 F   0  0  0  0  0  0  0  0  0  0  0  0
  1 30  1  0  0  0  0
  2  1  1  0  0  0  0
  3  4  1  0  0  0  0
  3  2  2  0  0  0  0
  4  5  1  0  0  0  0
  5  1  2  0  0  0  0
  6  2  1  0  0  0  0
  7  3  1  0  0  0  0
  8 13  1  6  0  0  0
  8 19  1  0  0  0  0
  9 14  1  6  0  0  0
  9 10  1  0  0  0  0
  9  4  1  0  0  0  0
  9  8  1  0  0  0  0
 10 11  1  0  0  0  0
 10 16  1  0  0  0  0
 11 12  1  0  0  0  0
 12  8  1  0  0  0  0
 12 18  1  0  0  0  0
 15 10  1  0  0  0  0
 17 12  1  0  0  0  0
 19 20  1  0  0  0  0
 20 27  1  0  0  0  0
 21 20  2  0  0  0  0
 21 23  1  0  0  0  0
 22 21  1  0  0  0  0
 23 25  2  0  0  0  0
 24 23  1  0  0  0  0
 25 26  1  0  0  0  0
 27 26  2  0  0  0  0
 28 33  1  0  0  0  0
 28 36  1  0  0  0  0
 29 28  2  0  0  0  0
 30 31  2  0  0  0  0
 30 29  1  0  0  0  0
 31 32  1  0  0  0  0
 32 35  1  0  0  0  0
 32 33  2  0  0  0  0
 34 29  1  0  0  0  0
 36 37  1  0  0  0  0
 37 40  1  0  0  0  0
 37 38  1  0  0  0  0
 39 37  1  0  0  0  0
M  END
>  <minimizedAffinity>
-5.66437244

$$$$

 OpenBabel03272503433D

 40 43  0  0  1  0  0  0  0  0999 V2000
   36.6540   26.2970   32.1950 C   0  0  0  0  0  0  0  0  0  0  0  0
   37.2070   27.0140   33.2210 C   0  0  0  0  0  0  0  0  0  0  0  0
   36.6270   28.2810   33.1070 C   0  0  0  0  0  0  0  0  0  0  0  0
   35.7840   28.2970   32.0720 N   0  0  0  0  0  0  0  0  0  0  0  0
   35.7900   27.0890   31.5040 N   0  0  0  0  0  0  0  0  0  0  0  0
   37.9370   26.6970   33.9740 H   0  0  0  0  0  0  0  0  0  0  0  0
   36.8860   29.0760   33.8070 H   0  0  0  0  0  0  0  0  0  0  0  0
   33.8120   29.6390   32.6020 C   0  0  2  0  0  0  0  0  0  0  0  0
   35.0320   29.4720   31.7020 C   0  0  1  0  0  0  0  0  0  0  0  0
   35.7500   30.7520   32.0670 C   0  0  0  0  0  0  0  0  0  0  0  0
   34.7930   31.7180   32.2680 O   0  0  0  0  0  0  0  0  0  0  0  0
   33.5640   31.1390   32.3550 C   0  0  0  0  0  0  0  0  0  0  0  0
   32.9480   29.0420   32.2860 H   0  0  0  0  0  0  0  0  0  0  0  0
   34.7840   29.4760   30.6410 H   0  0  0  0  0  0  0  0  0  0  0  0
   36.4850   31.0620   31.3070 H   0  0  0  0  0  0  0  0  0  0  0  0
   36.2700   30.5810   33.0330 H   0  0  0  0  0  0  0  0  0  0  0  0
   33.0860   31.1760   31.3400 H   0  0  0  0  0  0  0  0  0  0  0  0
   32.9040   31.5510   33.1320 H   0  0  0  0  0  0  0  0  0  0  0  0
   34.2440   29.4700   33.9110 O   0  0  0  0  0  0  0  0  0  0  0  0
   33.6140   29.9630   35.0420 C   0  0  0  0  0  0  0  0  0  0  0  0
   32.4210   29.5310   35.5880 C   0  0  0  0  0  0  0  0  0  0  0  0
   31.9380   28.7310   35.0760 H   0  0  0  0  0  0  0  0  0  0  0  0
   31.9040   30.1150   36.7260 C   0  0  0  0  0  0  0  0  0  0  0  0
   30.9550   29.7380   37.1200 H   0  0  0  0  0  0  0  0  0  0  0  0
   32.6290   31.1520   37.3000 C   0  0  0  0  0  3  0  0  0  0  0  0
   33.8220   31.5830   36.7530 C   0  0  0  0  0  3  0  0  0  0  0  0
   34.3080   30.9850   35.6260 N   0  0  0  0  0  0  0  0  0  0  0  0
   36.3190   22.6490   31.4110 C   0  0  0  0  0  0  0  0  0  0  0  0
   35.9700   23.9610   31.7000 C   0  0  0  0  0  0  0  0  0  0  0  0
   36.9410   24.9150   31.8910 C   0  0  0  0  0  0  0  0  0  0  0  0
   38.2310   24.5140   31.7840 N   0  0  0  0  0  0  0  0  0  0  0  0
   38.5550   23.2160   31.4980 C   0  0  0  0  0  0  0  0  0  0  0  0
   37.6220   22.2990   31.3130 N   0  0  0  0  0  0  0  0  0  0  0  0
   34.9570   24.3330   31.7970 H   0  0  0  0  0  0  0  0  0  0  0  0
   39.5790   22.8810   31.4090 H   0  0  0  0  0  0  0  0  0  0  0  0
   35.1990   21.8260   31.2500 O   0  0  0  0  0  0  0  0  0  0  0  0
   34.9420   20.7010   32.0640 C   0  0  0  0  0  0  0  0  0  0  0  0
   33.6490   20.2450   31.9040 F   0  0  0  0  0  0  0  0  0  0  0  0
   35.1940   21.0570   33.3670 F   0  0  0  0  0  0  0  0  0  0  0  0
   35.8260   19.7080   31.7070 F   0  0  0  0  0  0  0  0  0  0  0  0
  1  2  1  0  0  0  0
  2  6  1  0  0  0  0
  3  2  2  0  0  0  0
  3  7  1  0  0  0  0
  4  3  1  0  0  0  0
  5  4  1  0  0  0  0
  5  1  2  0  0  0  0
  8 13  1  6  0  0  0
  8 19  1  0  0  0  0
  9 14  1  6  0  0  0
  9 10  1  0  0  0  0
  9  4  1  0  0  0  0
  9  8  1  0  0  0  0
 10 11  1  0  0  0  0
 10 16  1  0  0  0  0
 11 12  1  0  0  0  0
 12  8  1  0  0  0  0
 12 18  1  0  0  0  0
 15 10  1  0  0  0  0
 17 12  1  0  0  0  0
 19 20  1  0  0  0  0
 20 21  2  0  0  0  0
 20 27  1  0  0  0  0
 21 23  1  0  0  0  0
 22 21  1  0  0  0  0
 23 24  1  0  0  0  0
 23 25  2  0  0  0  0
 26 25  1  0  0  0  0
 27 26  2  0  0  0  0
 28 29  1  0  0  0  0
 29 34  1  0  0  0  0
 29 30  2  0  0  0  0
 30  1  1  0  0  0  0
 31 30  1  0  0  0  0
 32 31  2  0  0  0  0
 33 28  2  0  0  0  0
 33 32  1  0  0  0  0
 35 32  1  0  0  0  0
 36 28  1  0  0  0  0
 36 37  1  0  0  0  0
 37 39  1  0  0  0  0
 38 37  1  0  0  0  0
 40 37  1  0  0  0  0
M  END
>  <minimizedAffinity>
-5.59356499

$$$$
