
 OpenBabel03272500423D

 47 50  0  0  1  0  0  0  0  0999 V2000
   37.0910   24.4190   31.6850 C   0  0  0  0  0  0  0  0  0  0  0  0
   35.9400   24.7620   30.9950 C   0  0  0  0  0  0  0  0  0  0  0  0
   35.4390   26.0260   31.2200 C   0  0  0  0  0  0  0  0  0  0  0  0
   36.0880   26.8580   32.0890 N   0  0  0  0  0  0  0  0  0  0  0  0
   37.2240   26.5040   32.7620 C   0  0  0  0  0  0  0  0  0  0  0  0
   37.7140   25.2650   32.5420 N   0  0  0  0  0  0  0  0  0  0  0  0
   37.8630   27.4090   33.6540 N   0  0  0  0  0  0  0  0  0  0  0  0
   35.5010   24.0430   30.3340 H   0  0  0  0  0  0  0  0  0  0  0  0
   34.5500   26.3460   30.7140 H   0  0  0  0  0  0  0  0  0  0  0  0
   37.9010   28.3730   33.2370 H   0  0  0  0  0  0  0  0  0  0  0  0
   37.6680   23.0340   31.4350 C   0  0  1  0  0  0  0  0  0  0  0  0
   38.7010   22.5070   32.2510 C   0  0  0  0  0  0  0  0  0  0  0  0
   37.2970   22.0590   32.5030 C   0  0  2  0  0  0  0  0  0  0  0  0
   37.4660   22.6620   30.3960 H   0  0  0  0  0  0  0  0  0  0  0  0
   39.0560   23.2300   33.0540 H   0  0  0  0  0  0  0  0  0  0  0  0
   39.5350   21.8740   31.9990 H   0  0  0  0  0  0  0  0  0  0  0  0
   36.7390   22.4080   33.3960 H   0  0  0  0  0  0  0  0  0  0  0  0
   36.1780   19.9710   33.1890 C   0  0  2  0  0  0  0  0  0  0  0  0
   36.9390   20.6440   32.1430 C   0  0  1  0  0  0  0  0  0  0  0  0
   36.0850   20.6020   30.9660 C   0  0  0  0  0  0  0  0  0  0  0  0
   34.7480   20.4760   31.3860 O   0  0  0  0  0  0  0  0  0  0  0  0
   34.8800   19.5100   32.3160 C   0  0  0  0  0  0  0  0  0  0  0  0
   36.5540   19.0520   33.6370 H   0  0  0  0  0  0  0  0  0  0  0  0
   37.9050   20.1200   31.9140 H   0  0  0  0  0  0  0  0  0  0  0  0
   36.0660   21.3730   30.2270 H   0  0  0  0  0  0  0  0  0  0  0  0
   36.2810   19.6370   30.4110 H   0  0  0  0  0  0  0  0  0  0  0  0
   34.0660   19.3480   33.0200 H   0  0  0  0  0  0  0  0  0  0  0  0
   35.2640   18.5490   31.8740 H   0  0  0  0  0  0  0  0  0  0  0  0
   35.5540   20.8590   34.0450 O   0  0  0  0  0  0  0  0  0  0  0  0
   35.6340   20.6880   35.3170 C   0  0  0  0  0  0  0  0  0  0  0  0
   36.6540   20.6900   35.8000 H   0  0  0  0  0  0  0  0  0  0  0  0
   35.0600   21.4770   35.8470 H   0  0  0  0  0  0  0  0  0  0  0  0
   35.1950   19.7210   35.6500 H   0  0  0  0  0  0  0  0  0  0  0  0
   38.4560   26.8990   35.1700 S   0  0  0  0  0  0  0  0  0  0  0  0
   38.4720   27.9930   36.1860 O   0  0  0  0  0  0  0  0  0  0  0  0
   39.1600   28.6690   36.3320 H   0  0  0  0  0  0  0  0  0  0  0  0
   39.8650   26.4220   34.9930 O   0  0  0  0  0  0  0  0  0  0  0  0
   40.6970   26.9040   35.2090 H   0  0  0  0  0  0  0  0  0  0  0  0
   37.5730   25.5940   35.7610 O   0  0  0  0  0  0  0  0  0  0  0  0
   38.3120   24.6040   36.3900 C   0  0  0  0  0  0  0  0  0  0  0  0
   38.0590   24.4440   37.7160 C   0  0  0  0  0  0  0  0  0  0  0  0
   37.3220   25.0510   38.2580 H   0  0  0  0  0  0  0  0  0  0  0  0
   38.6880   23.5140   38.5140 C   0  0  0  0  0  0  0  0  0  0  0  0
   38.5630   23.3070   39.5640 H   0  0  0  0  0  0  0  0  0  0  0  0
   39.6310   22.7120   37.8960 C   0  0  0  0  0  3  0  0  0  0  0  0
   39.8920   22.8640   36.5670 C   0  0  0  0  0  3  0  0  0  0  0  0
   39.2500   23.7850   35.8380 N   0  0  0  0  0  0  0  0  0  0  0  0
  1  6  1  0  0  0  0
  2  3  1  0  0  0  0
  2  1  2  0  0  0  0
  3  4  2  0  0  0  0
  4  5  1  0  0  0  0
  5  7  1  0  0  0  0
  6  5  2  0  0  0  0
  7 34  1  0  0  0  0
  8  2  1  0  0  0  0
  9  3  1  0  0  0  0
 10  7  1  0  0  0  0
 11 14  1  6  0  0  0
 11  1  1  0  0  0  0
 11 12  1  0  0  0  0
 11 13  1  0  0  0  0
 12 13  1  0  0  0  0
 12 15  1  0  0  0  0
 13 17  1  1  0  0  0
 16 12  1  0  0  0  0
 18 23  1  1  0  0  0
 18 29  1  0  0  0  0
 19 24  1  6  0  0  0
 19 13  1  0  0  0  0
 19 18  1  0  0  0  0
 20 21  1  0  0  0  0
 20 19  1  0  0  0  0
 21 22  1  0  0  0  0
 22 27  1  0  0  0  0
 22 18  1  0  0  0  0
 25 20  1  0  0  0  0
 26 20  1  0  0  0  0
 28 22  1  0  0  0  0
 29 30  1  0  0  0  0
 30 33  1  0  0  0  0
 30 31  1  0  0  0  0
 30 32  1  0  0  0  0
 34 39  1  0  0  0  0
 34 35  1  0  0  0  0
 35 36  1  0  0  0  0
 37 34  1  0  0  0  0
 37 38  1  0  0  0  0
 39 40  1  0  0  0  0
 40 41  1  0  0  0  0
 41 42  1  0  0  0  0
 41 43  2  0  0  0  0
 43 44  1  0  0  0  0
 45 43  1  0  0  0  0
 46 45  2  0  0  0  0
 47 40  2  0  0  0  0
 47 46  1  0  0  0  0
M  END
>  <minimizedAffinity>
-6.18453121

$$$$

 OpenBabel03272500423D

 47 50  0  0  1  0  0  0  0  0999 V2000
   35.8160   30.0050   34.6940 C   0  0  0  0  0  0  0  0  0  0  0  0
   35.0640   30.2660   33.5600 C   0  0  0  0  0  0  0  0  0  0  0  0
   35.0820   29.3040   32.5740 C   0  0  0  0  0  0  0  0  0  0  0  0
   35.8200   28.1690   32.7590 N   0  0  0  0  0  0  0  0  0  0  0  0
   36.5570   27.9260   33.8850 C   0  0  0  0  0  0  0  0  0  0  0  0
   36.5400   28.8700   34.8510 N   0  0  0  0  0  0  0  0  0  0  0  0
   37.3070   26.7270   34.0300 N   0  0  0  0  0  0  0  0  0  0  0  0
   34.5160   31.1840   33.5030 H   0  0  0  0  0  0  0  0  0  0  0  0
   34.5190   29.4510   31.6740 H   0  0  0  0  0  0  0  0  0  0  0  0
   36.7450   25.8990   33.7060 H   0  0  0  0  0  0  0  0  0  0  0  0
   35.7940   31.0480   35.8000 C   0  0  1  0  0  0  0  0  0  0  0  0
   36.2740   32.3650   35.5830 C   0  0  0  0  0  0  0  0  0  0  0  0
   34.7980   32.1310   35.5460 C   0  0  2  0  0  0  0  0  0  0  0  0
   35.7120   30.5930   36.8220 H   0  0  0  0  0  0  0  0  0  0  0  0
   36.6950   32.5250   34.5390 H   0  0  0  0  0  0  0  0  0  0  0  0
   36.7960   33.0350   36.2450 H   0  0  0  0  0  0  0  0  0  0  0  0
   34.2420   32.1530   34.5870 H   0  0  0  0  0  0  0  0  0  0  0  0
   32.9830   33.6550   36.2330 C   0  0  2  0  0  0  0  0  0  0  0  0
   33.9740   32.6820   36.6770 C   0  0  1  0  0  0  0  0  0  0  0  0
   33.2070   31.6290   37.3270 C   0  0  0  0  0  0  0  0  0  0  0  0
   31.8970   31.6460   36.8130 O   0  0  0  0  0  0  0  0  0  0  0  0
   31.6410   32.9680   36.8540 C   0  0  0  0  0  0  0  0  0  0  0  0
   32.9910   34.6670   36.6330 H   0  0  0  0  0  0  0  0  0  0  0  0
   34.6990   33.1170   37.4150 H   0  0  0  0  0  0  0  0  0  0  0  0
   33.4920   30.6010   37.3120 H   0  0  0  0  0  0  0  0  0  0  0  0
   33.0680   31.9030   38.4150 H   0  0  0  0  0  0  0  0  0  0  0  0
   30.7970   33.3540   36.2880 H   0  0  0  0  0  0  0  0  0  0  0  0
   31.6750   33.3720   37.9040 H   0  0  0  0  0  0  0  0  0  0  0  0
   32.6840   33.5300   34.8890 O   0  0  0  0  0  0  0  0  0  0  0  0
   31.7590   34.2550   34.3670 C   0  0  0  0  0  0  0  0  0  0  0  0
   31.8680   35.3780   34.4030 H   0  0  0  0  0  0  0  0  0  0  0  0
   31.6400   34.0090   33.2910 H   0  0  0  0  0  0  0  0  0  0  0  0
   30.7620   34.0800   34.8290 H   0  0  0  0  0  0  0  0  0  0  0  0
   38.8920   26.7350   34.6590 S   0  0  0  0  0  0  0  0  0  0  0  0
   39.0100   27.5100   35.9300 O   0  0  0  0  0  0  0  0  0  0  0  0
   39.1420   28.4710   36.0390 H   0  0  0  0  0  0  0  0  0  0  0  0
   39.7990   27.3720   33.6520 O   0  0  0  0  0  0  0  0  0  0  0  0
   40.1560   28.2900   33.6560 H   0  0  0  0  0  0  0  0  0  0  0  0
   39.4600   25.1690   34.9000 O   0  0  0  0  0  0  0  0  0  0  0  0
   39.1130   24.5830   36.1080 C   0  0  0  0  0  0  0  0  0  0  0  0
   39.9040   23.5500   36.5000 C   0  0  0  0  0  0  0  0  0  0  0  0
   40.7600   23.1980   35.9090 H   0  0  0  0  0  0  0  0  0  0  0  0
   39.7230   22.8410   37.6670 C   0  0  0  0  0  0  0  0  0  0  0  0
   40.2870   22.0140   38.0670 H   0  0  0  0  0  0  0  0  0  0  0  0
   38.6620   23.2300   38.4640 C   0  0  0  0  0  3  0  0  0  0  0  0
   37.8620   24.2640   38.0790 C   0  0  0  0  0  3  0  0  0  0  0  0
   38.0840   24.9200   36.9330 N   0  0  0  0  0  0  0  0  0  0  0  0
  1  6  1  0  0  0  0
  1 11  1  0  0  0  0
  2  1  2  0  0  0  0
  3  4  2  0  0  0  0
  3  2  1  0  0  0  0
  4  5  1  0  0  0  0
  5  7  1  0  0  0  0
  5  6  2  0  0  0  0
  7 34  1  0  0  0  0
  8  2  1  0  0  0  0
  9  3  1  0  0  0  0
 10  7  1  0  0  0  0
 11 14  1  1  0  0  0
 12 11  1  0  0  0  0
 12 16  1  0  0  0  0
 13 17  1  6  0  0  0
 13 12  1  0  0  0  0
 13 11  1  0  0  0  0
 13 19  1  0  0  0  0
 15 12  1  0  0  0  0
 18 23  1  1  0  0  0
 18 19  1  0  0  0  0
 18 22  1  0  0  0  0
 19 20  1  0  0  0  0
 19 24  1  1  0  0  0
 20 26  1  0  0  0  0
 21 22  1  0  0  0  0
 21 20  1  0  0  0  0
 22 28  1  0  0  0  0
 25 20  1  0  0  0  0
 27 22  1  0  0  0  0
 29 18  1  0  0  0  0
 30 31  1  0  0  0  0
 30 33  1  0  0  0  0
 30 29  1  0  0  0  0
 32 30  1  0  0  0  0
 34 39  1  0  0  0  0
 34 35  1  0  0  0  0
 35 36  1  0  0  0  0
 37 38  1  0  0  0  0
 37 34  1  0  0  0  0
 39 40  1  0  0  0  0
 40 41  2  0  0  0  0
 40 47  1  0  0  0  0
 41 43  1  0  0  0  0
 42 41  1  0  0  0  0
 43 44  1  0  0  0  0
 43 45  2  0  0  0  0
 46 45  1  0  0  0  0
 47 46  2  0  0  0  0
M  END
>  <minimizedAffinity>
-5.93194532

$$$$

 OpenBabel03272500423D

 47 50  0  0  1  0  0  0  0  0999 V2000
   37.0460   21.5220   33.4860 C   0  0  0  0  0  0  0  0  0  0  0  0
   35.9380   20.7100   33.6690 C   0  0  0  0  0  0  0  0  0  0  0  0
   35.5260   20.5130   34.9680 C   0  0  0  0  0  0  0  0  0  0  0  0
   36.2130   21.1120   35.9870 N   0  0  0  0  0  0  0  0  0  0  0  0
   37.3050   21.9110   35.7900 C   0  0  0  0  0  0  0  0  0  0  0  0
   37.7090   22.1040   34.5150 N   0  0  0  0  0  0  0  0  0  0  0  0
   37.9840   22.5130   36.8840 N   0  0  0  0  0  0  0  0  0  0  0  0
   35.4630   20.2830   32.8090 H   0  0  0  0  0  0  0  0  0  0  0  0
   34.6750   19.8940   35.1700 H   0  0  0  0  0  0  0  0  0  0  0  0
   37.2950   22.9020   37.5760 H   0  0  0  0  0  0  0  0  0  0  0  0
   37.5040   21.7660   32.0570 C   0  0  1  0  0  0  0  0  0  0  0  0
   36.6220   21.5900   30.9590 C   0  0  0  0  0  0  0  0  0  0  0  0
   36.8750   22.9780   31.4530 C   0  0  2  0  0  0  0  0  0  0  0  0
   38.6200   21.7370   31.9490 H   0  0  0  0  0  0  0  0  0  0  0  0
   35.5900   21.2230   31.2630 H   0  0  0  0  0  0  0  0  0  0  0  0
   36.8120   21.2250   29.9640 H   0  0  0  0  0  0  0  0  0  0  0  0
   36.0970   23.5330   32.0170 H   0  0  0  0  0  0  0  0  0  0  0  0
   37.4360   25.3050   30.8550 C   0  0  2  0  0  0  0  0  0  0  0  0
   37.6860   23.8950   30.5800 C   0  0  1  0  0  0  0  0  0  0  0  0
   39.1110   23.7110   30.8070 C   0  0  0  0  0  0  0  0  0  0  0  0
   39.5570   24.7120   31.6910 O   0  0  0  0  0  0  0  0  0  0  0  0
   38.9630   25.7930   31.1470 C   0  0  0  0  0  0  0  0  0  0  0  0
   37.0780   25.9630   30.0650 H   0  0  0  0  0  0  0  0  0  0  0  0
   37.4450   23.6180   29.5190 H   0  0  0  0  0  0  0  0  0  0  0  0
   39.5330   22.8070   31.1860 H   0  0  0  0  0  0  0  0  0  0  0  0
   39.6630   23.9410   29.8470 H   0  0  0  0  0  0  0  0  0  0  0  0
   38.8980   26.7040   31.7360 H   0  0  0  0  0  0  0  0  0  0  0  0
   39.3190   25.9840   30.0960 H   0  0  0  0  0  0  0  0  0  0  0  0
   36.9020   25.5120   32.1130 O   0  0  0  0  0  0  0  0  0  0  0  0
   36.6340   26.7060   32.5080 C   0  0  0  0  0  0  0  0  0  0  0  0
   35.8920   27.3180   31.9170 H   0  0  0  0  0  0  0  0  0  0  0  0
   36.2350   26.6880   33.5440 H   0  0  0  0  0  0  0  0  0  0  0  0
   37.5340   27.3610   32.5440 H   0  0  0  0  0  0  0  0  0  0  0  0
   39.6870   22.5520   36.9680 S   0  0  0  0  0  0  0  0  0  0  0  0
   40.3060   21.1990   36.8430 O   0  0  0  0  0  0  0  0  0  0  0  0
   40.4540   20.5370   37.5450 H   0  0  0  0  0  0  0  0  0  0  0  0
   40.0840   23.1130   38.2980 O   0  0  0  0  0  0  0  0  0  0  0  0
   40.3950   22.6200   39.0930 H   0  0  0  0  0  0  0  0  0  0  0  0
   40.3310   23.5760   35.7980 O   0  0  0  0  0  0  0  0  0  0  0  0
   39.7500   24.8320   35.7120 C   0  0  0  0  0  0  0  0  0  0  0  0
   40.3710   25.7020   34.8740 C   0  0  0  0  0  0  0  0  0  0  0  0
   41.2690   25.4380   34.3000 H   0  0  0  0  0  0  0  0  0  0  0  0
   39.9470   26.9940   34.6530 C   0  0  0  0  0  0  0  0  0  0  0  0
   40.3620   27.7580   34.0150 H   0  0  0  0  0  0  0  0  0  0  0  0
   38.8170   27.3960   35.3430 C   0  0  0  0  0  3  0  0  0  0  0  0
   38.1880   26.5310   36.1870 C   0  0  0  0  0  3  0  0  0  0  0  0
   38.6440   25.2850   36.3640 N   0  0  0  0  0  0  0  0  0  0  0  0
  1  2  2  0  0  0  0
  1  6  1  0  0  0  0
  2  3  1  0  0  0  0
  3  9  1  0  0  0  0
  3  4  2  0  0  0  0
  5  4  1  0  0  0  0
  5  7  1  0  0  0  0
  6  5  2  0  0  0  0
  7 34  1  0  0  0  0
  7 10  1  0  0  0  0
  8  2  1  0  0  0  0
 11 14  1  6  0  0  0
 11  1  1  0  0  0  0
 12 15  1  0  0  0  0
 12 13  1  0  0  0  0
 12 11  1  0  0  0  0
 13 17  1  1  0  0  0
 13 11  1  0  0  0  0
 16 12  1  0  0  0  0
 18 23  1  6  0  0  0
 18 22  1  0  0  0  0
 18 29  1  0  0  0  0
 19 24  1  6  0  0  0
 19 20  1  0  0  0  0
 19 18  1  0  0  0  0
 19 13  1  0  0  0  0
 20 25  1  0  0  0  0
 20 21  1  0  0  0  0
 22 21  1  0  0  0  0
 22 27  1  0  0  0  0
 26 20  1  0  0  0  0
 28 22  1  0  0  0  0
 29 30  1  0  0  0  0
 30 33  1  0  0  0  0
 30 32  1  0  0  0  0
 31 30  1  0  0  0  0
 34 37  1  0  0  0  0
 35 34  1  0  0  0  0
 35 36  1  0  0  0  0
 37 38  1  0  0  0  0
 39 34  1  0  0  0  0
 40 39  1  0  0  0  0
 40 47  1  0  0  0  0
 41 40  2  0  0  0  0
 42 41  1  0  0  0  0
 43 41  1  0  0  0  0
 43 45  2  0  0  0  0
 44 43  1  0  0  0  0
 45 46  1  0  0  0  0
 46 47  2  0  0  0  0
M  END
>  <minimizedAffinity>
-5.86568928

$$$$

 OpenBabel03272500423D

 47 50  0  0  1  0  0  0  0  0999 V2000
   36.8820   27.6780   33.4900 C   0  0  0  0  0  0  0  0  0  0  0  0
   36.8900   27.4630   34.8580 C   0  0  0  0  0  0  0  0  0  0  0  0
   37.4840   26.2990   35.2960 C   0  0  0  0  0  0  0  0  0  0  0  0
   38.0210   25.4370   34.3810 N   0  0  0  0  0  0  0  0  0  0  0  0
   38.0040   25.6640   33.0330 C   0  0  0  0  0  0  0  0  0  0  0  0
   37.4220   26.8050   32.6040 N   0  0  0  0  0  0  0  0  0  0  0  0
   38.5800   24.7350   32.1230 N   0  0  0  0  0  0  0  0  0  0  0  0
   36.4450   28.1960   35.4990 H   0  0  0  0  0  0  0  0  0  0  0  0
   37.5200   26.0790   36.3440 H   0  0  0  0  0  0  0  0  0  0  0  0
   39.5060   24.3920   32.4820 H   0  0  0  0  0  0  0  0  0  0  0  0
   36.2470   28.9660   32.9900 C   0  0  1  0  0  0  0  0  0  0  0  0
   34.9660   28.9700   32.3800 C   0  0  0  0  0  0  0  0  0  0  0  0
   35.0730   29.3830   33.8130 C   0  0  2  0  0  0  0  0  0  0  0  0
   36.9970   29.7850   32.8310 H   0  0  0  0  0  0  0  0  0  0  0  0
   34.5110   27.9330   32.2800 H   0  0  0  0  0  0  0  0  0  0  0  0
   34.5800   29.5690   31.5730 H   0  0  0  0  0  0  0  0  0  0  0  0
   34.7080   28.7210   34.6250 H   0  0  0  0  0  0  0  0  0  0  0  0
   33.6310   31.0650   34.8980 C   0  0  2  0  0  0  0  0  0  0  0  0
   34.8560   30.8340   34.1420 C   0  0  1  0  0  0  0  0  0  0  0  0
   35.9250   31.3450   34.9860 C   0  0  0  0  0  0  0  0  0  0  0  0
   35.4880   31.3260   36.3230 O   0  0  0  0  0  0  0  0  0  0  0  0
   34.2560   31.8540   36.1800 C   0  0  0  0  0  0  0  0  0  0  0  0
   32.8620   31.7300   34.5080 H   0  0  0  0  0  0  0  0  0  0  0  0
   34.8640   31.3850   33.1640 H   0  0  0  0  0  0  0  0  0  0  0  0
   36.9040   30.9220   35.0140 H   0  0  0  0  0  0  0  0  0  0  0  0
   36.0620   32.4460   34.7680 H   0  0  0  0  0  0  0  0  0  0  0  0
   33.5450   31.7470   36.9960 H   0  0  0  0  0  0  0  0  0  0  0  0
   34.2920   32.9030   35.7740 H   0  0  0  0  0  0  0  0  0  0  0  0
   33.1850   29.9270   35.5450 O   0  0  0  0  0  0  0  0  0  0  0  0
   32.1530   29.9850   36.3090 C   0  0  0  0  0  0  0  0  0  0  0  0
   31.1690   30.3120   35.8640 H   0  0  0  0  0  0  0  0  0  0  0  0
   31.9520   28.9910   36.7600 H   0  0  0  0  0  0  0  0  0  0  0  0
   32.2900   30.6830   37.1660 H   0  0  0  0  0  0  0  0  0  0  0  0
   37.7960   24.3060   30.6700 S   0  0  0  0  0  0  0  0  0  0  0  0
   38.5020   24.8130   29.4560 O   0  0  0  0  0  0  0  0  0  0  0  0
   38.4270   25.6920   29.0390 H   0  0  0  0  0  0  0  0  0  0  0  0
   36.4210   24.9000   30.6780 O   0  0  0  0  0  0  0  0  0  0  0  0
   36.1100   25.7090   30.2100 H   0  0  0  0  0  0  0  0  0  0  0  0
   37.6020   22.6380   30.5530 O   0  0  0  0  0  0  0  0  0  0  0  0
   36.9900   22.0260   31.6360 C   0  0  0  0  0  0  0  0  0  0  0  0
   35.8190   21.3950   31.3610 C   0  0  0  0  0  0  0  0  0  0  0  0
   35.3810   21.3660   30.3550 H   0  0  0  0  0  0  0  0  0  0  0  0
   35.0630   20.7300   32.3010 C   0  0  0  0  0  0  0  0  0  0  0  0
   34.1300   20.2020   32.1890 H   0  0  0  0  0  0  0  0  0  0  0  0
   35.5550   20.7250   33.5940 C   0  0  0  0  0  3  0  0  0  0  0  0
   36.7290   21.3550   33.8800 C   0  0  0  0  0  3  0  0  0  0  0  0
   37.4240   21.9870   32.9260 N   0  0  0  0  0  0  0  0  0  0  0  0
  1  2  1  0  0  0  0
  2  3  2  0  0  0  0
  2  8  1  0  0  0  0
  3  9  1  0  0  0  0
  4  3  1  0  0  0  0
  5  4  2  0  0  0  0
  6  5  1  0  0  0  0
  6  1  2  0  0  0  0
  7 10  1  0  0  0  0
  7  5  1  0  0  0  0
 11 14  1  6  0  0  0
 11  1  1  0  0  0  0
 11 13  1  0  0  0  0
 12 11  1  0  0  0  0
 12 13  1  0  0  0  0
 13 19  1  0  0  0  0
 13 17  1  1  0  0  0
 15 12  1  0  0  0  0
 16 12  1  0  0  0  0
 18 23  1  6  0  0  0
 18 29  1  0  0  0  0
 18 22  1  0  0  0  0
 19 24  1  6  0  0  0
 19 18  1  0  0  0  0
 19 20  1  0  0  0  0
 20 25  1  0  0  0  0
 20 21  1  0  0  0  0
 22 21  1  0  0  0  0
 22 27  1  0  0  0  0
 26 20  1  0  0  0  0
 28 22  1  0  0  0  0
 29 30  1  0  0  0  0
 30 32  1  0  0  0  0
 30 33  1  0  0  0  0
 31 30  1  0  0  0  0
 34 37  1  0  0  0  0
 34  7  1  0  0  0  0
 35 34  1  0  0  0  0
 36 35  1  0  0  0  0
 38 37  1  0  0  0  0
 39 34  1  0  0  0  0
 39 40  1  0  0  0  0
 40 47  1  0  0  0  0
 41 40  2  0  0  0  0
 41 43  1  0  0  0  0
 42 41  1  0  0  0  0
 43 45  2  0  0  0  0
 44 43  1  0  0  0  0
 45 46  1  0  0  0  0
 47 46  2  0  0  0  0
M  END
>  <minimizedAffinity>
-5.75166559

$$$$

 OpenBabel03272500423D

 47 50  0  0  1  0  0  0  0  0999 V2000
   41.0840   25.6110   34.7950 C   0  0  0  0  0  0  0  0  0  0  0  0
   42.4590   25.4680   34.8880 C   0  0  0  0  0  0  0  0  0  0  0  0
   42.9200   24.3430   35.5360 C   0  0  0  0  0  0  0  0  0  0  0  0
   42.0210   23.4460   36.0410 N   0  0  0  0  0  0  0  0  0  0  0  0
   40.6650   23.6010   35.9400 C   0  0  0  0  0  0  0  0  0  0  0  0
   40.2140   24.7050   35.3060 N   0  0  0  0  0  0  0  0  0  0  0  0
   39.7720   22.6370   36.4810 N   0  0  0  0  0  0  0  0  0  0  0  0
   43.0870   26.2230   34.4610 H   0  0  0  0  0  0  0  0  0  0  0  0
   43.9740   24.1790   35.6380 H   0  0  0  0  0  0  0  0  0  0  0  0
   40.1030   21.6640   36.2630 H   0  0  0  0  0  0  0  0  0  0  0  0
   40.5580   26.8380   34.0670 C   0  0  1  0  0  0  0  0  0  0  0  0
   41.2300   27.3710   32.9380 C   0  0  0  0  0  0  0  0  0  0  0  0
   40.0260   26.5150   32.7100 C   0  0  2  0  0  0  0  0  0  0  0  0
   39.8520   27.4430   34.6940 H   0  0  0  0  0  0  0  0  0  0  0  0
   42.1880   26.8160   32.6790 H   0  0  0  0  0  0  0  0  0  0  0  0
   41.3550   28.3920   32.6180 H   0  0  0  0  0  0  0  0  0  0  0  0
   40.1270   25.4850   32.3110 H   0  0  0  0  0  0  0  0  0  0  0  0
   38.1130   26.4250   31.1560 C   0  0  2  0  0  0  0  0  0  0  0  0
   38.7770   27.1840   32.2080 C   0  0  1  0  0  0  0  0  0  0  0  0
   37.7870   27.3080   33.2680 C   0  0  0  0  0  0  0  0  0  0  0  0
   36.8650   26.2520   33.1470 O   0  0  0  0  0  0  0  0  0  0  0  0
   36.6300   26.2910   31.8200 C   0  0  0  0  0  0  0  0  0  0  0  0
   37.9420   26.8740   30.1790 H   0  0  0  0  0  0  0  0  0  0  0  0
   39.0800   28.2100   31.8680 H   0  0  0  0  0  0  0  0  0  0  0  0
   38.0380   27.3310   34.3060 H   0  0  0  0  0  0  0  0  0  0  0  0
   37.1620   28.2290   33.0730 H   0  0  0  0  0  0  0  0  0  0  0  0
   36.1470   25.4380   31.3500 H   0  0  0  0  0  0  0  0  0  0  0  0
   36.1770   27.2710   31.5020 H   0  0  0  0  0  0  0  0  0  0  0  0
   38.4690   25.0890   31.1610 O   0  0  0  0  0  0  0  0  0  0  0  0
   37.8060   24.2440   30.4550 C   0  0  0  0  0  0  0  0  0  0  0  0
   37.7600   24.3930   29.3360 H   0  0  0  0  0  0  0  0  0  0  0  0
   38.2140   23.2210   30.5950 H   0  0  0  0  0  0  0  0  0  0  0  0
   36.7340   24.1840   30.7480 H   0  0  0  0  0  0  0  0  0  0  0  0
   38.3770   23.0990   37.3480 S   0  0  0  0  0  0  0  0  0  0  0  0
   37.9920   24.5230   37.1160 O   0  0  0  0  0  0  0  0  0  0  0  0
   38.3310   25.3190   37.5660 H   0  0  0  0  0  0  0  0  0  0  0  0
   38.6510   22.9340   38.8110 O   0  0  0  0  0  0  0  0  0  0  0  0
   38.8770   23.6350   39.4660 H   0  0  0  0  0  0  0  0  0  0  0  0
   37.0750   22.0970   36.9840 O   0  0  0  0  0  0  0  0  0  0  0  0
   36.9050   21.7940   35.6410 C   0  0  0  0  0  0  0  0  0  0  0  0
   35.9180   20.9010   35.3680 C   0  0  0  0  0  0  0  0  0  0  0  0
   35.2940   20.4470   36.1480 H   0  0  0  0  0  0  0  0  0  0  0  0
   35.5960   20.4740   34.0990 C   0  0  0  0  0  0  0  0  0  0  0  0
   34.8400   19.7770   33.7750 H   0  0  0  0  0  0  0  0  0  0  0  0
   36.3440   21.0070   33.0630 C   0  0  0  0  0  3  0  0  0  0  0  0
   37.3360   21.9030   33.3270 C   0  0  0  0  0  3  0  0  0  0  0  0
   37.6060   22.2830   34.5820 N   0  0  0  0  0  0  0  0  0  0  0  0
  1  2  2  0  0  0  0
  1  6  1  0  0  0  0
  2  3  1  0  0  0  0
  3  9  1  0  0  0  0
  3  4  2  0  0  0  0
  5  4  1  0  0  0  0
  5  7  1  0  0  0  0
  6  5  2  0  0  0  0
  7 34  1  0  0  0  0
  8  2  1  0  0  0  0
 10  7  1  0  0  0  0
 11 14  1  1  0  0  0
 11  1  1  0  0  0  0
 12 11  1  0  0  0  0
 13 17  1  6  0  0  0
 13 12  1  0  0  0  0
 13 11  1  0  0  0  0
 15 12  1  0  0  0  0
 16 12  1  0  0  0  0
 18 23  1  6  0  0  0
 18 29  1  0  0  0  0
 18 22  1  0  0  0  0
 18 19  1  0  0  0  0
 19 24  1  6  0  0  0
 19 13  1  0  0  0  0
 19 20  1  0  0  0  0
 20 25  1  0  0  0  0
 21 20  1  0  0  0  0
 22 21  1  0  0  0  0
 26 20  1  0  0  0  0
 27 22  1  0  0  0  0
 28 22  1  0  0  0  0
 30 32  1  0  0  0  0
 30 33  1  0  0  0  0
 30 29  1  0  0  0  0
 31 30  1  0  0  0  0
 34 37  1  0  0  0  0
 35 34  1  0  0  0  0
 35 36  1  0  0  0  0
 37 38  1  0  0  0  0
 39 34  1  0  0  0  0
 40 39  1  0  0  0  0
 41 40  1  0  0  0  0
 41 42  1  0  0  0  0
 43 41  2  0  0  0  0
 44 43  1  0  0  0  0
 45 46  2  0  0  0  0
 45 43  1  0  0  0  0
 46 47  1  0  0  0  0
 47 40  2  0  0  0  0
M  END
>  <minimizedAffinity>
-5.75045824

$$$$

 OpenBabel03272500423D

 47 50  0  0  1  0  0  0  0  0999 V2000
   35.6910   29.5590   32.9110 C   0  0  0  0  0  0  0  0  0  0  0  0
   35.9200   30.7480   32.2400 C   0  0  0  0  0  0  0  0  0  0  0  0
   36.2780   30.6480   30.9130 C   0  0  0  0  0  0  0  0  0  0  0  0
   36.3860   29.4120   30.3400 N   0  0  0  0  0  0  0  0  0  0  0  0
   36.1570   28.2470   31.0170 C   0  0  0  0  0  0  0  0  0  0  0  0
   35.8060   28.3450   32.3180 N   0  0  0  0  0  0  0  0  0  0  0  0
   36.2810   26.9850   30.3740 N   0  0  0  0  0  0  0  0  0  0  0  0
   35.8100   31.6710   32.7710 H   0  0  0  0  0  0  0  0  0  0  0  0
   36.4680   31.5360   30.3430 H   0  0  0  0  0  0  0  0  0  0  0  0
   35.8410   27.0130   29.4190 H   0  0  0  0  0  0  0  0  0  0  0  0
   35.2770   29.6510   34.3720 C   0  0  1  0  0  0  0  0  0  0  0  0
   35.6930   30.7320   35.1900 C   0  0  0  0  0  0  0  0  0  0  0  0
   34.3090   30.7590   34.6240 C   0  0  2  0  0  0  0  0  0  0  0  0
   34.9490   28.6640   34.7910 H   0  0  0  0  0  0  0  0  0  0  0  0
   36.3740   31.4670   34.6540 H   0  0  0  0  0  0  0  0  0  0  0  0
   35.9530   30.7560   36.2340 H   0  0  0  0  0  0  0  0  0  0  0  0
   34.0440   31.4550   33.8010 H   0  0  0  0  0  0  0  0  0  0  0  0
   32.0990   31.5420   35.3900 C   0  0  2  0  0  0  0  0  0  0  0  0
   33.1600   30.5600   35.5730 C   0  0  1  0  0  0  0  0  0  0  0  0
   32.5230   29.2690   35.3600 C   0  0  0  0  0  0  0  0  0  0  0  0
   31.3840   29.4580   34.5550 O   0  0  0  0  0  0  0  0  0  0  0  0
   30.8400   30.5320   35.1610 C   0  0  0  0  0  0  0  0  0  0  0  0
   31.7960   32.1830   36.2160 H   0  0  0  0  0  0  0  0  0  0  0  0
   33.5950   30.5880   36.6070 H   0  0  0  0  0  0  0  0  0  0  0  0
   33.0250   28.4310   34.9280 H   0  0  0  0  0  0  0  0  0  0  0  0
   32.0960   28.9100   36.3430 H   0  0  0  0  0  0  0  0  0  0  0  0
   30.0730   31.0950   34.6340 H   0  0  0  0  0  0  0  0  0  0  0  0
   30.5570   30.3150   36.2290 H   0  0  0  0  0  0  0  0  0  0  0  0
   32.1310   32.1290   34.1390 O   0  0  0  0  0  0  0  0  0  0  0  0
   31.1970   32.9390   33.7860 C   0  0  0  0  0  0  0  0  0  0  0  0
   31.0320   33.8740   34.3970 H   0  0  0  0  0  0  0  0  0  0  0  0
   31.3700   33.2980   32.7490 H   0  0  0  0  0  0  0  0  0  0  0  0
   30.1920   32.4610   33.7750 H   0  0  0  0  0  0  0  0  0  0  0  0
   37.0510   25.6660   31.1340 S   0  0  0  0  0  0  0  0  0  0  0  0
   37.4210   24.5790   30.1790 O   0  0  0  0  0  0  0  0  0  0  0  0
   36.8630   23.8490   29.8530 H   0  0  0  0  0  0  0  0  0  0  0  0
   36.1100   25.0840   32.1440 O   0  0  0  0  0  0  0  0  0  0  0  0
   35.5570   24.2730   32.0560 H   0  0  0  0  0  0  0  0  0  0  0  0
   38.4190   26.1650   31.9780 O   0  0  0  0  0  0  0  0  0  0  0  0
   38.3590   26.0280   33.3560 C   0  0  0  0  0  0  0  0  0  0  0  0
   38.5440   27.1750   34.0610 C   0  0  0  0  0  0  0  0  0  0  0  0
   38.7290   28.1450   33.5820 H   0  0  0  0  0  0  0  0  0  0  0  0
   38.5210   27.2460   35.4370 C   0  0  0  0  0  0  0  0  0  0  0  0
   38.6540   28.0950   36.0870 H   0  0  0  0  0  0  0  0  0  0  0  0
   38.2920   26.0590   36.1090 C   0  0  0  0  0  3  0  0  0  0  0  0
   38.1060   24.9030   35.4110 C   0  0  0  0  0  3  0  0  0  0  0  0
   38.1390   24.8920   34.0730 N   0  0  0  0  0  0  0  0  0  0  0  0
  1 11  1  0  0  0  0
  2  8  1  0  0  0  0
  2  1  2  0  0  0  0
  3  2  1  0  0  0  0
  4  3  2  0  0  0  0
  4  5  1  0  0  0  0
  5  6  2  0  0  0  0
  6  1  1  0  0  0  0
  7  5  1  0  0  0  0
  7 34  1  0  0  0  0
  9  3  1  0  0  0  0
 10  7  1  0  0  0  0
 11 13  1  0  0  0  0
 11 14  1  1  0  0  0
 11 12  1  0  0  0  0
 12 16  1  0  0  0  0
 13 17  1  6  0  0  0
 13 12  1  0  0  0  0
 13 19  1  0  0  0  0
 15 12  1  0  0  0  0
 18 19  1  0  0  0  0
 18 23  1  1  0  0  0
 19 24  1  1  0  0  0
 20 19  1  0  0  0  0
 20 26  1  0  0  0  0
 21 22  1  0  0  0  0
 21 20  1  0  0  0  0
 22 18  1  0  0  0  0
 22 28  1  0  0  0  0
 25 20  1  0  0  0  0
 27 22  1  0  0  0  0
 29 18  1  0  0  0  0
 30 29  1  0  0  0  0
 30 31  1  0  0  0  0
 32 30  1  0  0  0  0
 33 30  1  0  0  0  0
 34 39  1  0  0  0  0
 34 37  1  0  0  0  0
 35 34  1  0  0  0  0
 36 35  1  0  0  0  0
 38 37  1  0  0  0  0
 39 40  1  0  0  0  0
 40 41  2  0  0  0  0
 40 47  1  0  0  0  0
 41 43  1  0  0  0  0
 42 41  1  0  0  0  0
 43 44  1  0  0  0  0
 43 45  2  0  0  0  0
 46 45  1  0  0  0  0
 47 46  2  0  0  0  0
M  END
>  <minimizedAffinity>
-5.67250824

$$$$

 OpenBabel03272500423D

 47 50  0  0  1  0  0  0  0  0999 V2000
   36.5670   25.4660   31.9820 C   0  0  0  0  0  0  0  0  0  0  0  0
   35.8360   26.4620   31.3550 C   0  0  0  0  0  0  0  0  0  0  0  0
   36.4000   27.7190   31.3330 C   0  0  0  0  0  0  0  0  0  0  0  0
   37.6200   27.9160   31.9160 N   0  0  0  0  0  0  0  0  0  0  0  0
   38.3290   26.9220   32.5310 C   0  0  0  0  0  0  0  0  0  0  0  0
   37.7760   25.6890   32.5530 N   0  0  0  0  0  0  0  0  0  0  0  0
   39.5970   27.1780   33.1210 N   0  0  0  0  0  0  0  0  0  0  0  0
   34.8870   26.2140   30.9250 H   0  0  0  0  0  0  0  0  0  0  0  0
   35.8800   28.5290   30.8620 H   0  0  0  0  0  0  0  0  0  0  0  0
   40.1800   27.7860   32.4920 H   0  0  0  0  0  0  0  0  0  0  0  0
   35.9690   24.0680   31.9990 C   0  0  1  0  0  0  0  0  0  0  0  0
   35.3630   23.5100   30.8440 C   0  0  0  0  0  0  0  0  0  0  0  0
   36.7580   23.0970   31.1870 C   0  0  2  0  0  0  0  0  0  0  0  0
   35.7430   23.7070   33.0370 H   0  0  0  0  0  0  0  0  0  0  0  0
   35.3470   24.2190   29.9560 H   0  0  0  0  0  0  0  0  0  0  0  0
   34.5120   22.8570   30.7500 H   0  0  0  0  0  0  0  0  0  0  0  0
   37.6220   23.4550   30.5880 H   0  0  0  0  0  0  0  0  0  0  0  0
   37.9960   20.9780   30.9300 C   0  0  2  0  0  0  0  0  0  0  0  0
   36.9720   21.6930   31.6810 C   0  0  1  0  0  0  0  0  0  0  0  0
   37.4400   21.6890   33.0590 C   0  0  0  0  0  0  0  0  0  0  0  0
   38.8390   21.5400   33.0570 O   0  0  0  0  0  0  0  0  0  0  0  0
   38.9720   20.5410   32.1610 C   0  0  0  0  0  0  0  0  0  0  0  0
   37.7540   20.0470   30.4210 H   0  0  0  0  0  0  0  0  0  0  0  0
   35.9730   21.1840   31.6320 H   0  0  0  0  0  0  0  0  0  0  0  0
   37.2530   22.4850   33.7450 H   0  0  0  0  0  0  0  0  0  0  0  0
   37.0740   20.7450   33.5630 H   0  0  0  0  0  0  0  0  0  0  0  0
   39.9540   20.3490   31.7350 H   0  0  0  0  0  0  0  0  0  0  0  0
   38.4580   19.5990   32.5010 H   0  0  0  0  0  0  0  0  0  0  0  0
   38.8590   21.8320   30.2670 O   0  0  0  0  0  0  0  0  0  0  0  0
   39.6550   21.3700   29.3700 C   0  0  0  0  0  0  0  0  0  0  0  0
   39.2130   20.8570   28.4670 H   0  0  0  0  0  0  0  0  0  0  0  0
   40.2870   22.1860   28.9600 H   0  0  0  0  0  0  0  0  0  0  0  0
   40.3650   20.6120   29.7710 H   0  0  0  0  0  0  0  0  0  0  0  0
   40.0200   26.5370   34.6440 S   0  0  0  0  0  0  0  0  0  0  0  0
   39.3550   27.2440   35.7780 O   0  0  0  0  0  0  0  0  0  0  0  0
   39.6400   28.0600   36.2300 H   0  0  0  0  0  0  0  0  0  0  0  0
   41.5010   26.6800   34.8240 O   0  0  0  0  0  0  0  0  0  0  0  0
   41.9810   27.3570   35.3540 H   0  0  0  0  0  0  0  0  0  0  0  0
   39.6790   24.8910   34.7280 O   0  0  0  0  0  0  0  0  0  0  0  0
   39.2700   24.4240   35.9680 C   0  0  0  0  0  0  0  0  0  0  0  0
   40.0420   23.4410   36.5010 C   0  0  0  0  0  0  0  0  0  0  0  0
   40.9290   23.0400   35.9940 H   0  0  0  0  0  0  0  0  0  0  0  0
   39.8010   22.8490   37.7210 C   0  0  0  0  0  0  0  0  0  0  0  0
   40.3450   22.0710   38.2310 H   0  0  0  0  0  0  0  0  0  0  0  0
   38.6970   23.3070   38.4180 C   0  0  0  0  0  3  0  0  0  0  0  0
   37.9160   24.2910   37.8920 C   0  0  0  0  0  3  0  0  0  0  0  0
   38.1970   24.8320   36.7000 N   0  0  0  0  0  0  0  0  0  0  0  0
  1 11  1  0  0  0  0
  1  6  1  0  0  0  0
  2  1  2  0  0  0  0
  3  2  1  0  0  0  0
  3  4  2  0  0  0  0
  4  5  1  0  0  0  0
  5  6  2  0  0  0  0
  5  7  1  0  0  0  0
  7 34  1  0  0  0  0
  8  2  1  0  0  0  0
  9  3  1  0  0  0  0
 10  7  1  0  0  0  0
 11 14  1  1  0  0  0
 12 13  1  0  0  0  0
 12 11  1  0  0  0  0
 13 17  1  6  0  0  0
 13 19  1  0  0  0  0
 13 11  1  0  0  0  0
 15 12  1  0  0  0  0
 16 12  1  0  0  0  0
 18 23  1  6  0  0  0
 18 19  1  0  0  0  0
 18 22  1  0  0  0  0
 19 24  1  6  0  0  0
 19 20  1  0  0  0  0
 20 26  1  0  0  0  0
 20 25  1  0  0  0  0
 21 20  1  0  0  0  0
 22 28  1  0  0  0  0
 22 21  1  0  0  0  0
 27 22  1  0  0  0  0
 29 18  1  0  0  0  0
 30 33  1  0  0  0  0
 30 29  1  0  0  0  0
 31 30  1  0  0  0  0
 32 30  1  0  0  0  0
 34 39  1  0  0  0  0
 34 37  1  0  0  0  0
 34 35  1  0  0  0  0
 35 36  1  0  0  0  0
 37 38  1  0  0  0  0
 39 40  1  0  0  0  0
 40 41  2  0  0  0  0
 40 47  1  0  0  0  0
 41 43  1  0  0  0  0
 42 41  1  0  0  0  0
 43 44  1  0  0  0  0
 43 45  2  0  0  0  0
 46 45  1  0  0  0  0
 47 46  2  0  0  0  0
M  END
>  <minimizedAffinity>
-5.65480995

$$$$

 OpenBabel03272500423D

 47 50  0  0  1  0  0  0  0  0999 V2000
   37.3860   27.0630   32.8930 C   0  0  0  0  0  0  0  0  0  0  0  0
   36.8630   25.8150   32.5970 C   0  0  0  0  0  0  0  0  0  0  0  0
   36.0470   25.7350   31.4890 C   0  0  0  0  0  0  0  0  0  0  0  0
   35.8000   26.8620   30.7570 N   0  0  0  0  0  0  0  0  0  0  0  0
   36.3240   28.0880   31.0630 C   0  0  0  0  0  0  0  0  0  0  0  0
   37.1240   28.1660   32.1480 N   0  0  0  0  0  0  0  0  0  0  0  0
   36.0390   29.2300   30.2660 N   0  0  0  0  0  0  0  0  0  0  0  0
   37.1120   24.9880   33.2290 H   0  0  0  0  0  0  0  0  0  0  0  0
   35.6140   24.7950   31.2120 H   0  0  0  0  0  0  0  0  0  0  0  0
   36.0930   28.9900   29.2440 H   0  0  0  0  0  0  0  0  0  0  0  0
   38.3030   27.1670   34.1010 C   0  0  1  0  0  0  0  0  0  0  0  0
   37.7950   27.4660   35.3910 C   0  0  0  0  0  0  0  0  0  0  0  0
   38.1110   26.0420   35.0630 C   0  0  2  0  0  0  0  0  0  0  0  0
   39.3750   27.3370   33.8170 H   0  0  0  0  0  0  0  0  0  0  0  0
   36.6730   27.6490   35.4020 H   0  0  0  0  0  0  0  0  0  0  0  0
   38.2220   28.0450   36.1920 H   0  0  0  0  0  0  0  0  0  0  0  0
   37.3010   25.3030   34.8920 H   0  0  0  0  0  0  0  0  0  0  0  0
   39.0380   24.0520   36.1900 C   0  0  2  0  0  0  0  0  0  0  0  0
   39.2970   25.4150   35.7410 C   0  0  1  0  0  0  0  0  0  0  0  0
   40.4250   25.3050   34.8280 C   0  0  0  0  0  0  0  0  0  0  0  0
   40.4570   23.9970   34.3100 O   0  0  0  0  0  0  0  0  0  0  0  0
   40.2670   23.2880   35.4410 C   0  0  0  0  0  0  0  0  0  0  0  0
   39.1440   23.7910   37.2410 H   0  0  0  0  0  0  0  0  0  0  0  0
   39.5760   26.0970   36.5880 H   0  0  0  0  0  0  0  0  0  0  0  0
   40.5550   25.9370   33.9780 H   0  0  0  0  0  0  0  0  0  0  0  0
   41.3820   25.3770   35.4260 H   0  0  0  0  0  0  0  0  0  0  0  0
   39.9860   22.2400   35.3590 H   0  0  0  0  0  0  0  0  0  0  0  0
   41.0940   23.4550   36.1870 H   0  0  0  0  0  0  0  0  0  0  0  0
   37.9810   23.4660   35.5170 O   0  0  0  0  0  0  0  0  0  0  0  0
   37.7350   22.2150   35.6760 C   0  0  0  0  0  0  0  0  0  0  0  0
   37.4920   21.8380   36.7130 H   0  0  0  0  0  0  0  0  0  0  0  0
   36.8710   21.9100   35.0480 H   0  0  0  0  0  0  0  0  0  0  0  0
   38.5810   21.5640   35.3600 H   0  0  0  0  0  0  0  0  0  0  0  0
   35.6730   30.7410   30.9690 S   0  0  0  0  0  0  0  0  0  0  0  0
   34.9740   31.6660   30.0280 O   0  0  0  0  0  0  0  0  0  0  0  0
   35.3690   32.2600   29.3630 H   0  0  0  0  0  0  0  0  0  0  0  0
   36.9560   31.3950   31.3810 O   0  0  0  0  0  0  0  0  0  0  0  0
   37.4450   32.1120   30.9150 H   0  0  0  0  0  0  0  0  0  0  0  0
   34.7530   30.5560   32.3650 O   0  0  0  0  0  0  0  0  0  0  0  0
   35.2000   31.2520   33.4780 C   0  0  0  0  0  0  0  0  0  0  0  0
   35.5440   30.4830   34.5440 C   0  0  0  0  0  0  0  0  0  0  0  0
   35.4750   29.3870   34.5340 H   0  0  0  0  0  0  0  0  0  0  0  0
   36.0100   30.9860   35.7380 C   0  0  0  0  0  0  0  0  0  0  0  0
   36.3080   30.4690   36.6360 H   0  0  0  0  0  0  0  0  0  0  0  0
   36.1230   32.3620   35.8230 C   0  0  0  0  0  3  0  0  0  0  0  0
   35.7810   33.1420   34.7590 C   0  0  0  0  0  3  0  0  0  0  0  0
   35.3330   32.6000   33.6200 N   0  0  0  0  0  0  0  0  0  0  0  0
  1 11  1  0  0  0  0
  2  1  1  0  0  0  0
  2  8  1  0  0  0  0
  3  2  2  0  0  0  0
  4  5  2  0  0  0  0
  4  3  1  0  0  0  0
  5  6  1  0  0  0  0
  6  1  2  0  0  0  0
  7 34  1  0  0  0  0
  7  5  1  0  0  0  0
  9  3  1  0  0  0  0
 10  7  1  0  0  0  0
 11 14  1  6  0  0  0
 11 13  1  0  0  0  0
 11 12  1  0  0  0  0
 12 15  1  0  0  0  0
 12 16  1  0  0  0  0
 13 17  1  6  0  0  0
 13 12  1  0  0  0  0
 13 19  1  0  0  0  0
 18 23  1  1  0  0  0
 19 18  1  0  0  0  0
 19 24  1  1  0  0  0
 20 26  1  0  0  0  0
 20 19  1  0  0  0  0
 21 20  1  0  0  0  0
 21 22  1  0  0  0  0
 22 28  1  0  0  0  0
 22 18  1  0  0  0  0
 25 20  1  0  0  0  0
 27 22  1  0  0  0  0
 29 30  1  0  0  0  0
 29 18  1  0  0  0  0
 30 31  1  0  0  0  0
 32 30  1  0  0  0  0
 33 30  1  0  0  0  0
 34 37  1  0  0  0  0
 34 39  1  0  0  0  0
 35 34  1  0  0  0  0
 36 35  1  0  0  0  0
 38 37  1  0  0  0  0
 39 40  1  0  0  0  0
 40 47  2  0  0  0  0
 40 41  1  0  0  0  0
 41 43  2  0  0  0  0
 42 41  1  0  0  0  0
 43 45  1  0  0  0  0
 43 44  1  0  0  0  0
 46 45  2  0  0  0  0
 47 46  1  0  0  0  0
M  END
>  <minimizedAffinity>
-5.61331224

$$$$

 OpenBabel03272500423D

 47 50  0  0  1  0  0  0  0  0999 V2000
   36.2570   29.2570   31.9370 C   0  0  0  0  0  0  0  0  0  0  0  0
   36.6820   29.0550   30.6340 C   0  0  0  0  0  0  0  0  0  0  0  0
   37.4430   27.9300   30.4010 C   0  0  0  0  0  0  0  0  0  0  0  0
   37.7340   27.0910   31.4410 N   0  0  0  0  0  0  0  0  0  0  0  0
   37.3060   27.3060   32.7220 C   0  0  0  0  0  0  0  0  0  0  0  0
   36.5600   28.4080   32.9500 N   0  0  0  0  0  0  0  0  0  0  0  0
   37.6340   26.4000   33.7680 N   0  0  0  0  0  0  0  0  0  0  0  0
   36.4040   29.7670   29.8840 H   0  0  0  0  0  0  0  0  0  0  0  0
   37.8000   27.7220   29.4120 H   0  0  0  0  0  0  0  0  0  0  0  0
   37.5210   25.4060   33.4450 H   0  0  0  0  0  0  0  0  0  0  0  0
   35.4000   30.4840   32.2090 C   0  0  1  0  0  0  0  0  0  0  0  0
   33.9850   30.4000   32.2590 C   0  0  0  0  0  0  0  0  0  0  0  0
   34.7410   30.4370   33.5480 C   0  0  2  0  0  0  0  0  0  0  0  0
   35.9440   31.4440   32.0090 H   0  0  0  0  0  0  0  0  0  0  0  0
   33.5870   29.3570   32.0420 H   0  0  0  0  0  0  0  0  0  0  0  0
   33.2330   31.1020   31.9420 H   0  0  0  0  0  0  0  0  0  0  0  0
   34.8390   29.5280   34.1770 H   0  0  0  0  0  0  0  0  0  0  0  0
   33.6440   31.5700   35.4450 C   0  0  2  0  0  0  0  0  0  0  0  0
   34.6380   31.6820   34.3840 C   0  0  1  0  0  0  0  0  0  0  0  0
   35.8920   31.9590   35.0680 C   0  0  0  0  0  0  0  0  0  0  0  0
   35.8010   31.4730   36.3860 O   0  0  0  0  0  0  0  0  0  0  0  0
   34.5810   31.9340   36.7270 C   0  0  0  0  0  0  0  0  0  0  0  0
   32.8140   32.2730   35.4950 H   0  0  0  0  0  0  0  0  0  0  0  0
   34.4130   32.5230   33.6760 H   0  0  0  0  0  0  0  0  0  0  0  0
   36.8400   31.6160   34.7180 H   0  0  0  0  0  0  0  0  0  0  0  0
   35.9900   33.0770   35.2050 H   0  0  0  0  0  0  0  0  0  0  0  0
   34.0930   31.5190   37.6050 H   0  0  0  0  0  0  0  0  0  0  0  0
   34.5340   33.0590   36.6990 H   0  0  0  0  0  0  0  0  0  0  0  0
   33.3530   30.2560   35.7610 O   0  0  0  0  0  0  0  0  0  0  0  0
   32.1400   29.9080   36.0080 C   0  0  0  0  0  0  0  0  0  0  0  0
   31.3600   30.0560   35.2050 H   0  0  0  0  0  0  0  0  0  0  0  0
   32.0930   28.8290   36.2620 H   0  0  0  0  0  0  0  0  0  0  0  0
   31.7080   30.4430   36.8840 H   0  0  0  0  0  0  0  0  0  0  0  0
   38.1300   26.9520   35.3050 S   0  0  0  0  0  0  0  0  0  0  0  0
   37.5690   28.2920   35.6500 O   0  0  0  0  0  0  0  0  0  0  0  0
   37.9170   29.1700   35.4080 H   0  0  0  0  0  0  0  0  0  0  0  0
   39.6230   27.0680   35.3080 O   0  0  0  0  0  0  0  0  0  0  0  0
   40.1650   27.8860   35.2150 H   0  0  0  0  0  0  0  0  0  0  0  0
   37.7280   25.8460   36.5070 O   0  0  0  0  0  0  0  0  0  0  0  0
   38.5240   24.7130   36.5740 C   0  0  0  0  0  0  0  0  0  0  0  0
   38.5450   24.0880   37.7800 C   0  0  0  0  0  0  0  0  0  0  0  0
   37.9730   24.4470   38.6460 H   0  0  0  0  0  0  0  0  0  0  0  0
   39.2740   22.9500   38.0460 C   0  0  0  0  0  0  0  0  0  0  0  0
   39.3580   22.3810   38.9570 H   0  0  0  0  0  0  0  0  0  0  0  0
   40.0190   22.4390   36.9980 C   0  0  0  0  0  3  0  0  0  0  0  0
   40.0060   23.0590   35.7850 C   0  0  0  0  0  3  0  0  0  0  0  0
   39.2780   24.1640   35.5820 N   0  0  0  0  0  0  0  0  0  0  0  0
  1 11  1  0  0  0  0
  1  6  1  0  0  0  0
  2  1  2  0  0  0  0
  3  2  1  0  0  0  0
  3  4  2  0  0  0  0
  4  5  1  0  0  0  0
  5  6  2  0  0  0  0
  5  7  1  0  0  0  0
  7 34  1  0  0  0  0
  8  2  1  0  0  0  0
  9  3  1  0  0  0  0
 10  7  1  0  0  0  0
 11 14  1  6  0  0  0
 11 12  1  0  0  0  0
 11 13  1  0  0  0  0
 12 13  1  0  0  0  0
 13 17  1  1  0  0  0
 13 19  1  0  0  0  0
 15 12  1  0  0  0  0
 16 12  1  0  0  0  0
 18 23  1  6  0  0  0
 18 29  1  0  0  0  0
 18 22  1  0  0  0  0
 19 24  1  6  0  0  0
 19 20  1  0  0  0  0
 19 18  1  0  0  0  0
 20 26  1  0  0  0  0
 20 21  1  0  0  0  0
 21 22  1  0  0  0  0
 22 27  1  0  0  0  0
 25 20  1  0  0  0  0
 28 22  1  0  0  0  0
 29 30  1  0  0  0  0
 30 32  1  0  0  0  0
 30 33  1  0  0  0  0
 31 30  1  0  0  0  0
 34 37  1  0  0  0  0
 34 35  1  0  0  0  0
 34 39  1  0  0  0  0
 36 35  1  0  0  0  0
 38 37  1  0  0  0  0
 39 40  1  0  0  0  0
 40 41  1  0  0  0  0
 41 43  2  0  0  0  0
 41 42  1  0  0  0  0
 43 44  1  0  0  0  0
 45 43  1  0  0  0  0
 46 45  2  0  0  0  0
 47 46  1  0  0  0  0
 47 40  2  0  0  0  0
M  END
>  <minimizedAffinity>
-5.58014488

$$$$
