
 OpenBabel03272507283D

 40 42  0  0  1  0  0  0  0  0999 V2000
   38.0870   30.6340   48.5410 C   0  0  0  0  0  0  0  0  0  0  0  0
   38.0340   30.9730   47.1750 C   0  0  0  0  0  0  0  0  0  0  0  0
   36.8270   30.7370   46.5130 C   0  0  0  0  0  0  0  0  0  0  0  0
   35.7970   30.2090   47.1970 N   0  0  0  0  0  0  0  0  0  0  0  0
   35.8880   29.8960   48.5060 C   0  0  0  0  0  0  0  0  0  0  0  0
   37.0200   30.1080   49.1680 N   0  0  0  0  0  0  0  0  0  0  0  0
   36.6900   31.0350   45.1620 N   0  0  0  0  0  0  0  0  0  0  0  0
   37.3810   32.1400   44.4430 C   0  0  0  0  0  0  0  0  0  0  0  0
   36.7500   32.2800   43.1110 C   0  0  0  0  0  0  0  0  0  0  0  0
   35.4910   31.5580   43.2440 C   0  0  0  0  0  0  0  0  0  0  0  0
   35.8980   30.4440   44.1330 C   0  0  2  0  0  0  0  0  0  0  0  0
   39.0760   30.8620   48.9520 H   0  0  0  0  0  0  0  0  0  0  0  0
   38.8520   31.3980   46.6120 H   0  0  0  0  0  0  0  0  0  0  0  0
   35.1000   29.4760   49.0900 H   0  0  0  0  0  0  0  0  0  0  0  0
   37.0530   33.0200   45.1260 H   0  0  0  0  0  0  0  0  0  0  0  0
   38.4430   32.1750   44.5400 H   0  0  0  0  0  0  0  0  0  0  0  0
   36.3650   33.4060   43.1440 H   0  0  0  0  0  0  0  0  0  0  0  0
   37.3070   32.3470   42.2160 H   0  0  0  0  0  0  0  0  0  0  0  0
   34.6180   32.1280   43.6170 H   0  0  0  0  0  0  0  0  0  0  0  0
   35.1720   31.1330   42.2660 H   0  0  0  0  0  0  0  0  0  0  0  0
   34.6570   29.7010   44.6370 C   0  0  0  0  0  0  0  0  0  0  0  0
   34.0820   30.4550   45.6370 F   0  0  0  0  0  0  0  0  0  0  0  0
   34.8890   28.4640   45.1610 F   0  0  0  0  0  0  0  0  0  0  0  0
   33.7590   29.6820   43.5930 F   0  0  0  0  0  0  0  0  0  0  0  0
   36.7040   29.4580   43.4700 C   0  0  2  0  0  0  0  0  0  0  0  0
   36.9590   28.6400   44.1070 H   0  0  0  0  0  0  0  0  0  0  0  0
   38.1960   29.8400   43.0850 C   0  0  0  0  0  0  0  0  0  0  0  0
   38.4770   30.2930   41.7750 C   0  0  0  0  0  0  0  0  0  0  0  0
   37.6170   30.2580   41.0870 H   0  0  0  0  0  0  0  0  0  0  0  0
   39.6620   30.7490   41.3060 C   0  0  0  0  0  0  0  0  0  0  0  0
   39.7610   31.0710   40.2800 H   0  0  0  0  0  0  0  0  0  0  0  0
   40.6730   30.7540   42.2380 C   0  0  0  0  0  3  0  0  0  0  0  0
   40.4270   30.3190   43.5170 C   0  0  0  0  0  3  0  0  0  0  0  0
   39.2390   29.8790   43.9340 N   0  0  0  0  0  0  0  0  0  0  0  0
   36.2190   29.2630   42.3250 O   0  0  0  0  0  0  0  0  0  0  0  0
   35.8460   28.2510   41.5260 C   0  0  0  0  0  0  0  0  0  0  0  0
   34.8650   28.5440   40.8390 O   0  0  0  0  0  0  0  0  0  0  0  0
   36.0650   26.9250   41.0690 N   0  0  0  0  0  0  0  0  0  0  0  0
   35.6060   26.0860   41.4850 H   0  0  0  0  0  0  0  0  0  0  0  0
   36.7290   26.8190   40.2670 H   0  0  0  0  0  0  0  0  0  0  0  0
  1 12  1  0  0  0  0
  1  6  1  0  0  0  0
  2  1  2  0  0  0  0
  3  2  1  0  0  0  0
  3  4  2  0  0  0  0
  4  5  1  0  0  0  0
  5 14  1  0  0  0  0
  5  6  2  0  0  0  0
  7  3  1  0  0  0  0
  8 16  1  0  0  0  0
  8 15  1  0  0  0  0
  8  7  1  0  0  0  0
  9 17  1  0  0  0  0
  9 10  1  0  0  0  0
  9  8  1  0  0  0  0
 10 19  1  0  0  0  0
 10 11  1  0  0  0  0
 11 21  1  1  0  0  0
 11  7  1  0  0  0  0
 13  2  1  0  0  0  0
 18  9  1  0  0  0  0
 20 10  1  0  0  0  0
 21 23  1  0  0  0  0
 21 22  1  0  0  0  0
 24 21  1  0  0  0  0
 25 26  1  1  0  0  0
 25 11  1  0  0  0  0
 27 25  1  0  0  0  0
 27 34  1  0  0  0  0
 28 27  2  0  0  0  0
 29 28  1  0  0  0  0
 30 28  1  0  0  0  0
 30 32  2  0  0  0  0
 31 30  1  0  0  0  0
 32 33  1  0  0  0  0
 33 34  2  0  0  0  0
 35 25  1  0  0  0  0
 36 35  1  0  0  0  0
 37 36  2  0  0  0  0
 38 39  1  0  0  0  0
 38 36  1  0  0  0  0
 40 38  1  0  0  0  0
M  END
>  <minimizedAffinity>
-3.86412048

>  <minimizedRMSD>
3.93683338

$$$$
