
     RDKit          3D

 40 42  0  0  0  0  0  0  0  0999 V2000
   36.0398   29.9421   46.9704 O   0  0  0  0  0  0  0  0  0  0  0  0
   36.0371   30.2243   48.4487 P   0  0  2  0  0  0  0  0  0  0  0  0
   36.8000   28.9118   49.2398 O   0  0  0  0  0  0  0  0  0  0  0  0
   34.4417   30.3687   49.0220 O   0  0  0  0  0  0  0  0  0  0  0  0
   34.1759   29.2377   49.7685 C   0  0  0  0  0  0  0  0  0  0  0  0
   33.3145   28.2592   49.0677 C   0  0  0  0  0  0  0  0  0  0  0  0
   33.9416   27.3795   48.2181 C   0  0  0  0  0  0  0  0  0  0  0  0
   33.1848   26.4300   47.5262 C   0  0  0  0  0  0  0  0  0  0  0  0
   31.8383   26.4374   47.7437 N   0  0  0  0  0  0  0  0  0  0  0  0
   31.2413   27.3117   48.5840 C   0  0  0  0  0  0  0  0  0  0  0  0
   31.9832   28.2248   49.2473 N   0  0  0  0  0  0  0  0  0  0  0  0
   36.8907   31.6408   48.7438 O   0  0  0  0  0  0  0  0  0  0  0  0
   38.8494   32.4770   47.8171 C   0  0  2  0  0  0  0  0  0  0  0  0
   38.2589   31.4526   48.7533 C   0  0  1  0  0  0  0  0  0  0  0  0
   38.8281   32.0178   50.0635 C   0  0  0  0  0  0  0  0  0  0  0  0
   38.4756   33.3499   49.9622 O   0  0  0  0  0  0  0  0  0  0  0  0
   38.6605   33.7494   48.6617 C   0  0  0  0  0  0  0  0  0  0  0  0
   38.0836   32.4943   46.6570 O   0  0  0  0  0  0  0  0  0  0  0  0
   37.1124   29.3024   50.1013 H   0  0  0  0  0  0  0  0  0  0  0  0
   33.6057   29.5983   50.6725 H   0  0  0  0  0  0  0  0  0  0  0  0
   35.0940   28.7209   50.1123 H   0  0  0  0  0  0  0  0  0  0  0  0
   34.9886   27.2961   47.9824 H   0  0  0  0  0  0  0  0  0  0  0  0
   33.5941   25.6991   46.8377 H   0  0  0  0  0  0  0  0  0  0  0  0
   30.1785   27.3145   48.7532 H   0  0  0  0  0  0  0  0  0  0  0  0
   39.9231   32.3227   47.6148 H   0  0  0  0  0  0  0  0  0  0  0  0
   38.5823   30.4288   48.5710 H   0  0  0  0  0  0  0  0  0  0  0  0
   39.9091   31.8578   50.0979 H   0  0  0  0  0  0  0  0  0  0  0  0
   38.3834   31.5502   50.9482 H   0  0  0  0  0  0  0  0  0  0  0  0
   37.8128   34.3520   48.2736 H   0  0  0  0  0  0  0  0  0  0  0  0
   39.5520   34.4014   48.6136 H   0  0  0  0  0  0  0  0  0  0  0  0
   38.6008   32.3355   45.3704 C   0  0  0  0  0  0  0  0  0  0  0  0
   38.3848   33.3951   44.5129 C   0  0  0  0  0  0  0  0  0  0  0  0
   37.8480   34.2943   44.8170 H   0  0  0  0  0  0  0  0  0  0  0  0
   38.8652   33.3155   43.2224 C   0  0  0  0  0  0  0  0  0  0  0  0
   38.7419   34.1012   42.4784 H   0  0  0  0  0  0  0  0  0  0  0  0
   39.5422   32.1783   42.8429 C   0  0  0  0  0  0  0  0  0  0  0  0
   39.7593   31.1058   43.7150 C   0  0  0  0  0  0  0  0  0  0  0  0
   39.2728   31.2225   44.9716 N   0  0  0  0  0  0  0  0  0  0  0  0
   39.9597   32.0132   41.8559 H   0  0  0  0  0  0  0  0  0  0  0  0
   40.2980   30.2061   43.4059 H   0  0  0  0  0  0  0  0  0  0  0  0
  2  1  2  0
  2 12  1  6
  2  4  1  0
  2  3  1  0
  4  5  1  0
  6 11  1  0
  6  5  1  0
  7  6  2  0
  8  9  2  0
  8  7  1  0
  9 10  1  0
 10 11  2  0
 13 18  1  0
 13 17  1  0
 13 14  1  0
 14 12  1  0
 14 15  1  0
 16 15  1  0
 17 16  1  0
  3 19  1  0
  5 20  1  0
  5 21  1  0
  7 22  1  0
  8 23  1  0
 10 24  1  0
 13 25  1  6
 14 26  1  6
 15 27  1  0
 15 28  1  0
 17 29  1  0
 17 30  1  0
 31 32  2  0
 32 33  1  0
 32 34  1  0
 34 35  1  0
 34 36  2  0
 36 37  1  0
 37 38  2  0
 38 31  1  0
 36 39  1  0
 37 40  1  0
 18 31  1  0
M  ISO  8  19   3  20   8  21   8  22  14  23  14  24  14  25  13  26  13
M  ISO  6  27  13  28  13  29  13  30  13  33  15  35  16
M  END
>  <DihAtoms>  (1) 
12,17,30,31

>  <DihDeg>  (1) 
-179.99960957890892

$$$$
