REMARK  Name = 
REMARK  2 active torsions:
REMARK  status: ('A' for Active; 'I' for Inactive)
REMARK    1  A    between atoms: C_5  and  S_7
REMARK    2  A    between atoms: S_7  and  C_11
REMARK                            x       y       z     vdW  Elec       q    Type
REMARK                         _______ _______ _______ _____ _____    ______ ____
ROOT
ATOM      1  C   UNL     1      37.264  30.178  51.414  0.00  0.00    +0.000 A 
ATOM      2  C   UNL     1      38.116  30.758  50.477  0.00  0.00    +0.000 A 
ATOM      3  C   UNL     1      37.845  30.548  49.114  0.00  0.00    +0.000 A 
ATOM      4  N   UNL     1      36.759  29.785  48.786  0.00  0.00    +0.000 NA
ATOM      5  C   UNL     1      35.968  29.248  49.719  0.00  0.00    +0.000 A 
ATOM      6  N   UNL     1      36.207  29.435  51.026  0.00  0.00    +0.000 NA
ATOM      7  H   UNL     1      37.505  30.362  52.452  0.00  0.00    +0.000 HD
ATOM      8  H   UNL     1      38.974  31.360  50.664  0.00  0.00    +0.000 HD
ATOM      9  H   UNL     1      38.384  30.911  48.257  0.00  0.00    +0.000 HD
ENDROOT
BRANCH   5  10
ATOM     10  S   UNL     1      34.544  28.248  49.297  0.00  0.00    +0.000 S 
BRANCH  10  11
ATOM     11  C   UNL     1      35.042  26.522  49.167  0.00  0.00    +0.000 A 
ATOM     12  C   UNL     1      35.752  26.036  48.089  0.00  0.00    +0.000 A 
ATOM     13  H   UNL     1      36.026  26.699  47.287  0.00  0.00    +0.000 HD
ATOM     14  C   UNL     1      36.069  24.679  48.121  0.00  0.00    +0.000 A 
ATOM     15  H   UNL     1      36.627  24.277  47.284  0.00  0.00    +0.000 HD
ATOM     16  C   UNL     1      35.659  23.914  49.217  0.00  0.00    +0.000 A 
ATOM     17  C   UNL     1      34.951  24.445  50.272  0.00  0.00    +0.000 A 
ATOM     18  N   UNL     1      34.644  25.773  50.232  0.00  0.00    +0.000 NA
ENDBRANCH  10  11
ENDBRANCH   5  10
TORSDOF 2
