
 OpenBabel03272504213D

 38 40  0  0  1  0  0  0  0  0999 V2000
   38.8980   32.3870   47.8760 C   0  0  2  0  0  0  0  0  0  0  0  0
   38.1990   31.3820   48.7560 C   0  0  1  0  0  0  0  0  0  0  0  0
   38.6410   31.9520   50.1120 C   0  0  0  0  0  0  0  0  0  0  0  0
   38.3230   33.2880   49.9640 O   0  0  0  0  0  0  0  0  0  0  0  0
   38.6450   33.6710   48.6860 C   0  0  0  0  0  0  0  0  0  0  0  0
   39.9840   32.2140   47.7860 H   0  0  0  0  0  0  0  0  0  0  0  0
   38.5210   30.3510   48.6170 H   0  0  0  0  0  0  0  0  0  0  0  0
   39.7100   31.7760   50.2590 H   0  0  0  0  0  0  0  0  0  0  0  0
   38.1000   31.5010   50.9520 H   0  0  0  0  0  0  0  0  0  0  0  0
   37.8520   34.2830   48.2080 H   0  0  0  0  0  0  0  0  0  0  0  0
   39.5480   34.3080   48.7230 H   0  0  0  0  0  0  0  0  0  0  0  0
   36.8420   31.5920   48.6060 O   0  0  0  0  0  0  0  0  0  0  0  0
   35.9450   29.8270   46.9210 O   0  0  0  0  0  0  0  0  0  0  0  0
   35.9800   30.1660   48.3880 P   0  0  1  0  0  0  0  0  0  0  0  0
   36.7610   28.8840   49.2090 O   0  0  0  0  0  0  0  0  0  0  0  0
   37.0940   29.3060   50.0470 H   0  0  0  0  0  0  0  0  0  0  0  0
   34.3990   30.3360   48.9940 O   0  0  0  0  0  0  0  0  0  0  0  0
   34.1340   29.2130   49.7520 C   0  0  0  0  0  0  0  0  0  0  0  0
   33.5640   29.5820   50.6520 H   0  0  0  0  0  0  0  0  0  0  0  0
   35.0520   28.6990   50.1000 H   0  0  0  0  0  0  0  0  0  0  0  0
   33.2730   28.2260   49.0620 C   0  0  0  0  0  0  0  0  0  0  0  0
   33.9010   27.3310   48.2300 C   0  0  0  0  0  0  0  0  0  0  0  0
   33.1440   26.3740   47.5480 C   0  0  0  0  0  0  0  0  0  0  0  0
   31.7960   26.3900   47.7580 N   0  0  0  0  0  0  0  0  0  0  0  0
   31.1970   27.2810   48.5800 C   0  0  0  0  0  0  0  0  0  0  0  0
   31.9400   28.2010   49.2330 N   0  0  0  0  0  0  0  0  0  0  0  0
   34.9490   27.2390   48.0020 H   0  0  0  0  0  0  0  0  0  0  0  0
   33.5540   25.6300   46.8750 H   0  0  0  0  0  0  0  0  0  0  0  0
   30.1330   27.2910   48.7420 H   0  0  0  0  0  0  0  0  0  0  0  0
   38.2550   32.4040   46.6440 O   0  0  0  0  0  0  0  0  0  0  0  0
   38.8080   31.9100   45.4610 C   0  0  0  0  0  0  0  0  0  0  0  0
   39.1950   32.8670   44.5460 C   0  0  0  0  0  0  0  0  0  0  0  0
   39.0780   33.9350   44.7320 H   0  0  0  0  0  0  0  0  0  0  0  0
   39.7500   32.4600   43.3500 C   0  0  0  0  0  0  0  0  0  0  0  0
   40.0830   33.1430   42.5710 H   0  0  0  0  0  0  0  0  0  0  0  0
   39.8940   31.1100   43.1210 C   0  0  0  0  0  3  0  0  0  0  0  0
   39.5000   30.1420   44.0510 C   0  0  0  0  0  3  0  0  0  0  0  0
   38.9610   30.5820   45.2110 N   0  0  0  0  0  0  0  0  0  0  0  0
  1  6  1  6  0  0  0
  1  5  1  0  0  0  0
  1  2  1  0  0  0  0
  2  7  1  6  0  0  0
  2  3  1  0  0  0  0
  3  8  1  0  0  0  0
  3  9  1  0  0  0  0
  4  3  1  0  0  0  0
  5 11  1  0  0  0  0
  5  4  1  0  0  0  0
 10  5  1  0  0  0  0
 12  2  1  0  0  0  0
 14 13  2  6  0  0  0
 14 12  1  0  0  0  0
 14 17  1  0  0  0  0
 14 15  1  0  0  0  0
 15 16  1  0  0  0  0
 17 18  1  0  0  0  0
 18 20  1  0  0  0  0
 18 19  1  0  0  0  0
 21 26  1  0  0  0  0
 21 18  1  0  0  0  0
 22 21  2  0  0  0  0
 23 24  2  0  0  0  0
 23 22  1  0  0  0  0
 24 25  1  0  0  0  0
 25 29  1  0  0  0  0
 25 26  2  0  0  0  0
 27 22  1  0  0  0  0
 28 23  1  0  0  0  0
 30  1  1  0  0  0  0
 31 30  1  0  0  0  0
 32 33  1  0  0  0  0
 32 31  2  0  0  0  0
 34 32  1  0  0  0  0
 35 34  1  0  0  0  0
 36 34  2  0  0  0  0
 36 37  1  0  0  0  0
 37 38  2  0  0  0  0
 38 31  1  0  0  0  0
M  END
>  <minimizedAffinity>
-4.7300415

>  <minimizedRMSD>
0.497522831

$$$$
