
 OpenBabel03272502313D

 26 27  0  0  1  0  0  0  0  0999 V2000
   37.7250   30.6890   48.6190 C   0  0  2  0  0  0  0  0  0  0  0  0
   38.3910   29.8150   48.8180 H   0  0  0  0  0  0  0  0  0  0  0  0
   38.5060   31.9090   48.3170 C   0  0  0  0  0  0  0  0  0  0  0  0
   38.5820   32.8130   49.3950 C   0  0  0  0  0  0  0  0  0  0  0  0
   38.0830   32.6420   50.3610 H   0  0  0  0  0  0  0  0  0  0  0  0
   39.2710   34.0060   49.3630 C   0  0  0  0  0  0  0  0  0  0  0  0
   39.3060   34.6860   50.2220 H   0  0  0  0  0  0  0  0  0  0  0  0
   39.9600   34.3890   48.2100 C   0  0  0  0  0  0  0  0  0  0  0  0
   39.8390   33.4560   47.2050 C   0  0  0  0  0  0  0  0  0  0  0  0
   39.1720   32.2920   47.2150 N   0  0  0  0  0  0  0  0  0  0  0  0
   35.5720   29.9670   47.8890 C   0  0  0  0  0  0  0  0  0  0  0  0
   36.7320   30.4520   47.5370 C   0  0  0  0  0  0  0  0  0  0  0  0
   33.7610   29.7950   44.6250 C   0  0  0  0  0  0  0  0  0  0  0  0
   34.7360   29.9840   45.5920 C   0  0  0  0  0  0  0  0  0  0  0  0
   34.5180   29.7180   46.9300 C   0  0  0  0  0  0  0  0  0  0  0  0
   33.2950   29.2570   47.2610 N   0  0  0  0  0  0  0  0  0  0  0  0
   32.3510   29.0700   46.3330 C   0  0  0  0  0  0  0  0  0  0  0  0
   32.5680   29.3330   45.0250 N   0  0  0  0  0  0  0  0  0  0  0  0
   33.9280   30.0050   43.5780 H   0  0  0  0  0  0  0  0  0  0  0  0
   35.6810   30.3620   45.1710 H   0  0  0  0  0  0  0  0  0  0  0  0
   31.4020   28.7030   46.7010 H   0  0  0  0  0  0  0  0  0  0  0  0
   36.7990   31.0950   50.1580 S   0  0  0  0  0  0  0  0  0  0  0  0
   36.8710   29.7230   51.3120 C   0  0  0  0  0  0  0  0  0  0  0  0
   37.5740   30.0100   52.4670 F   0  0  0  0  0  0  0  0  0  0  0  0
   35.6160   29.2240   51.5940 F   0  0  0  0  0  0  0  0  0  0  0  0
   37.5580   28.6780   50.6510 F   0  0  0  0  0  0  0  0  0  0  0  0
  1  2  1  1  0  0  0
  1 22  1  0  0  0  0
  3  1  1  0  0  0  0
  3  4  1  0  0  0  0
  4  5  1  0  0  0  0
  6  4  2  0  0  0  0
  6  7  1  0  0  0  0
  8  6  1  0  0  0  0
  9 10  1  0  0  0  0
  9  8  2  0  0  0  0
 10  3  2  0  0  0  0
 12 11  2  0  0  0  0
 12  1  1  0  0  0  0
 13 18  2  0  0  0  0
 13 14  1  0  0  0  0
 14 15  2  0  0  0  0
 15 16  1  0  0  0  0
 15 11  1  0  0  0  0
 17 21  1  0  0  0  0
 17 16  2  0  0  0  0
 18 17  1  0  0  0  0
 19 13  1  0  0  0  0
 20 14  1  0  0  0  0
 22 23  1  0  0  0  0
 23 25  1  0  0  0  0
 23 24  1  0  0  0  0
 26 23  1  0  0  0  0
M  END
>  <minimizedAffinity>
-5.85866213

>  <minimizedRMSD>
4.66585016

$$$$
