
 OpenBabel03272504213D

 38 40  0  0  1  0  0  0  0  0999 V2000
   38.8000   32.3990   47.8410 C   0  0  2  0  0  0  0  0  0  0  0  0
   38.1850   31.3680   48.7520 C   0  0  1  0  0  0  0  0  0  0  0  0
   38.7490   31.9010   50.0780 C   0  0  0  0  0  0  0  0  0  0  0  0
   38.4180   33.2400   49.9970 O   0  0  0  0  0  0  0  0  0  0  0  0
   38.6220   33.6590   48.7060 C   0  0  0  0  0  0  0  0  0  0  0  0
   39.8740   32.2320   47.6470 H   0  0  0  0  0  0  0  0  0  0  0  0
   38.4940   30.3430   48.5560 H   0  0  0  0  0  0  0  0  0  0  0  0
   39.8270   31.7240   50.1210 H   0  0  0  0  0  0  0  0  0  0  0  0
   38.2870   31.4250   50.9500 H   0  0  0  0  0  0  0  0  0  0  0  0
   37.7880   34.2820   48.3200 H   0  0  0  0  0  0  0  0  0  0  0  0
   39.5240   34.2980   48.6790 H   0  0  0  0  0  0  0  0  0  0  0  0
   36.8200   31.5770   48.7330 O   0  0  0  0  0  0  0  0  0  0  0  0
   35.8760   29.8630   47.0210 O   0  0  0  0  0  0  0  0  0  0  0  0
   35.9440   30.1630   48.4950 P   0  0  1  0  0  0  0  0  0  0  0  0
   36.7340   28.8550   49.2660 O   0  0  0  0  0  0  0  0  0  0  0  0
   37.0890   29.2530   50.1070 H   0  0  0  0  0  0  0  0  0  0  0  0
   34.3780   30.3260   49.1400 O   0  0  0  0  0  0  0  0  0  0  0  0
   34.1090   29.1710   49.8470 C   0  0  0  0  0  0  0  0  0  0  0  0
   33.5390   29.5000   50.7610 H   0  0  0  0  0  0  0  0  0  0  0  0
   35.0260   28.6400   50.1730 H   0  0  0  0  0  0  0  0  0  0  0  0
   33.2480   28.2180   49.1110 C   0  0  0  0  0  0  0  0  0  0  0  0
   33.8800   27.3340   48.2710 C   0  0  0  0  0  0  0  0  0  0  0  0
   33.1220   26.4080   47.5470 C   0  0  0  0  0  0  0  0  0  0  0  0
   31.7700   26.4430   47.7260 N   0  0  0  0  0  0  0  0  0  0  0  0
   31.1680   27.3230   48.5570 C   0  0  0  0  0  0  0  0  0  0  0  0
   31.9110   28.2120   49.2510 N   0  0  0  0  0  0  0  0  0  0  0  0
   34.9310   27.2280   48.0640 H   0  0  0  0  0  0  0  0  0  0  0  0
   33.5350   25.6740   46.8640 H   0  0  0  0  0  0  0  0  0  0  0  0
   30.1010   27.3470   48.6950 H   0  0  0  0  0  0  0  0  0  0  0  0
   38.0480   32.4480   46.6730 O   0  0  0  0  0  0  0  0  0  0  0  0
   38.5510   32.1770   45.4000 C   0  0  0  0  0  0  0  0  0  0  0  0
   39.6000   32.9760   44.9980 C   0  0  0  0  0  0  0  0  0  0  0  0
   40.0100   33.7660   45.6280 H   0  0  0  0  0  0  0  0  0  0  0  0
   40.1540   32.7700   43.7520 C   0  0  0  0  0  0  0  0  0  0  0  0
   40.9830   33.3530   43.3510 H   0  0  0  0  0  0  0  0  0  0  0  0
   39.6350   31.7720   42.9590 C   0  0  0  0  0  3  0  0  0  0  0  0
   38.5700   30.9620   43.3710 C   0  0  0  0  0  3  0  0  0  0  0  0
   38.0540   31.1960   44.5990 N   0  0  0  0  0  0  0  0  0  0  0  0
  1  6  1  6  0  0  0
  1  5  1  0  0  0  0
  1  2  1  0  0  0  0
  2  7  1  6  0  0  0
  2  3  1  0  0  0  0
  3  8  1  0  0  0  0
  3  9  1  0  0  0  0
  4  3  1  0  0  0  0
  5  4  1  0  0  0  0
 10  5  1  0  0  0  0
 11  5  1  0  0  0  0
 12  2  1  0  0  0  0
 14 13  2  6  0  0  0
 14 12  1  0  0  0  0
 14 17  1  0  0  0  0
 14 15  1  0  0  0  0
 15 16  1  0  0  0  0
 17 18  1  0  0  0  0
 18 20  1  0  0  0  0
 18 19  1  0  0  0  0
 21 26  1  0  0  0  0
 21 18  1  0  0  0  0
 22 21  2  0  0  0  0
 23 24  2  0  0  0  0
 23 22  1  0  0  0  0
 24 25  1  0  0  0  0
 25 29  1  0  0  0  0
 25 26  2  0  0  0  0
 27 22  1  0  0  0  0
 28 23  1  0  0  0  0
 30  1  1  0  0  0  0
 31 30  1  0  0  0  0
 32 31  1  0  0  0  0
 32 33  1  0  0  0  0
 34 32  2  0  0  0  0
 35 34  1  0  0  0  0
 36 37  2  0  0  0  0
 36 34  1  0  0  0  0
 37 38  1  0  0  0  0
 38 31  2  0  0  0  0
M  END
>  <minimizedAffinity>
-4.68985653

>  <minimizedRMSD>
0.185942024

$$$$
