
 OpenBabel03272507283D

 40 42  0  0  1  0  0  0  0  0999 V2000
   36.9470   30.5520   48.3410 C   0  0  0  0  0  0  0  0  0  0  0  0
   36.9730   30.8060   46.9550 C   0  0  0  0  0  0  0  0  0  0  0  0
   35.9220   30.2810   46.1990 C   0  0  0  0  0  0  0  0  0  0  0  0
   34.9590   29.5750   46.8160 N   0  0  0  0  0  0  0  0  0  0  0  0
   34.9710   29.3530   48.1470 C   0  0  0  0  0  0  0  0  0  0  0  0
   35.9540   29.8370   48.8970 N   0  0  0  0  0  0  0  0  0  0  0  0
   35.8730   30.4780   44.8230 N   0  0  0  0  0  0  0  0  0  0  0  0
   36.3890   31.6710   44.0980 C   0  0  0  0  0  0  0  0  0  0  0  0
   35.8910   31.6070   42.7060 C   0  0  0  0  0  0  0  0  0  0  0  0
   34.8060   30.6360   42.7670 C   0  0  0  0  0  0  0  0  0  0  0  0
   35.3400   29.6810   43.7660 C   0  0  2  0  0  0  0  0  0  0  0  0
   37.8150   31.0090   48.8280 H   0  0  0  0  0  0  0  0  0  0  0  0
   37.7390   31.3710   46.4450 H   0  0  0  0  0  0  0  0  0  0  0  0
   34.2310   28.8000   48.6800 H   0  0  0  0  0  0  0  0  0  0  0  0
   35.8100   32.4900   44.6830 H   0  0  0  0  0  0  0  0  0  0  0  0
   37.4020   31.9410   44.2940 H   0  0  0  0  0  0  0  0  0  0  0  0
   35.2760   32.6230   42.6220 H   0  0  0  0  0  0  0  0  0  0  0  0
   36.5160   31.7510   41.8650 H   0  0  0  0  0  0  0  0  0  0  0  0
   33.7970   31.0190   43.0140 H   0  0  0  0  0  0  0  0  0  0  0  0
   34.6930   30.1060   41.7960 H   0  0  0  0  0  0  0  0  0  0  0  0
   34.2370   28.7100   44.2010 C   0  0  0  0  0  0  0  0  0  0  0  0
   33.3750   29.3870   45.0360 F   0  0  0  0  0  0  0  0  0  0  0  0
   34.6620   27.6090   44.8810 F   0  0  0  0  0  0  0  0  0  0  0  0
   33.5200   28.3980   43.0660 F   0  0  0  0  0  0  0  0  0  0  0  0
   36.4030   28.8630   43.2550 C   0  0  2  0  0  0  0  0  0  0  0  0
   36.7700   28.1670   43.9760 H   0  0  0  0  0  0  0  0  0  0  0  0
   37.8050   29.5490   42.9580 C   0  0  0  0  0  0  0  0  0  0  0  0
   38.7900   29.5710   43.9720 C   0  0  0  0  0  0  0  0  0  0  0  0
   38.4540   29.1710   44.9430 H   0  0  0  0  0  0  0  0  0  0  0  0
   40.0610   30.0230   43.8630 C   0  0  0  0  0  0  0  0  0  0  0  0
   40.7310   29.9920   44.7110 H   0  0  0  0  0  0  0  0  0  0  0  0
   40.3860   30.5030   42.6170 C   0  0  0  0  0  3  0  0  0  0  0  0
   39.4460   30.4920   41.6140 C   0  0  0  0  0  3  0  0  0  0  0  0
   38.2030   30.0350   41.7690 N   0  0  0  0  0  0  0  0  0  0  0  0
   36.0850   28.4900   42.0950 O   0  0  0  0  0  0  0  0  0  0  0  0
   36.1340   27.3970   41.3180 C   0  0  0  0  0  0  0  0  0  0  0  0
   35.1310   27.2910   40.6100 O   0  0  0  0  0  0  0  0  0  0  0  0
   36.8410   26.2390   40.8990 N   0  0  0  0  0  0  0  0  0  0  0  0
   36.7170   25.2980   41.3310 H   0  0  0  0  0  0  0  0  0  0  0  0
   37.5160   26.3720   40.1110 H   0  0  0  0  0  0  0  0  0  0  0  0
  1 12  1  0  0  0  0
  1  6  1  0  0  0  0
  2  1  2  0  0  0  0
  3  4  2  0  0  0  0
  3  2  1  0  0  0  0
  4  5  1  0  0  0  0
  5 14  1  0  0  0  0
  5  6  2  0  0  0  0
  7  3  1  0  0  0  0
  8 16  1  0  0  0  0
  8 15  1  0  0  0  0
  8  7  1  0  0  0  0
  9 10  1  0  0  0  0
  9  8  1  0  0  0  0
 10 19  1  0  0  0  0
 10 11  1  0  0  0  0
 11 21  1  1  0  0  0
 11  7  1  0  0  0  0
 13  2  1  0  0  0  0
 17  9  1  0  0  0  0
 18  9  1  0  0  0  0
 20 10  1  0  0  0  0
 21 23  1  0  0  0  0
 21 22  1  0  0  0  0
 24 21  1  0  0  0  0
 25 11  1  0  0  0  0
 25 26  1  1  0  0  0
 27 25  1  0  0  0  0
 27 28  1  0  0  0  0
 28 29  1  0  0  0  0
 30 28  2  0  0  0  0
 30 31  1  0  0  0  0
 32 30  1  0  0  0  0
 33 34  1  0  0  0  0
 33 32  2  0  0  0  0
 34 27  2  0  0  0  0
 35 25  1  0  0  0  0
 36 35  1  0  0  0  0
 37 36  2  0  0  0  0
 38 36  1  0  0  0  0
 38 39  1  0  0  0  0
 40 38  1  0  0  0  0
M  END
>  <minimizedAffinity>
-3.18185806

>  <minimizedRMSD>
4.31500149

$$$$
