
 OpenBabel03272507293D

 40 42  0  0  1  0  0  0  0  0999 V2000
   38.8790   22.3470   36.3750 C   0  0  0  0  0  0  0  0  0  0  0  0
   39.1820   23.1040   35.2260 C   0  0  0  0  0  0  0  0  0  0  0  0
   38.8860   24.4680   35.2740 C   0  0  0  0  0  0  0  0  0  0  0  0
   38.3390   24.9810   36.3900 N   0  0  0  0  0  0  0  0  0  0  0  0
   38.0620   24.2220   37.4700 C   0  0  0  0  0  0  0  0  0  0  0  0
   38.3300   22.9210   37.4600 N   0  0  0  0  0  0  0  0  0  0  0  0
   39.1460   25.2880   34.1810 N   0  0  0  0  0  0  0  0  0  0  0  0
   40.2570   25.1080   33.2070 C   0  0  0  0  0  0  0  0  0  0  0  0
   40.3410   26.3360   32.3840 C   0  0  0  0  0  0  0  0  0  0  0  0
   39.5790   27.3190   33.1430 C   0  0  0  0  0  0  0  0  0  0  0  0
   38.5020   26.4680   33.7030 C   0  0  2  0  0  0  0  0  0  0  0  0
   39.1520   21.2970   36.2230 H   0  0  0  0  0  0  0  0  0  0  0  0
   39.6220   22.7060   34.3240 H   0  0  0  0  0  0  0  0  0  0  0  0
   37.6290   24.5830   38.3750 H   0  0  0  0  0  0  0  0  0  0  0  0
   41.1410   25.0800   33.9600 H   0  0  0  0  0  0  0  0  0  0  0  0
   40.3320   24.1480   32.7490 H   0  0  0  0  0  0  0  0  0  0  0  0
   41.4530   26.6980   32.6050 H   0  0  0  0  0  0  0  0  0  0  0  0
   40.4060   26.3170   31.3290 H   0  0  0  0  0  0  0  0  0  0  0  0
   40.1250   27.9030   33.9070 H   0  0  0  0  0  0  0  0  0  0  0  0
   39.1180   28.0720   32.4660 H   0  0  0  0  0  0  0  0  0  0  0  0
   37.7270   27.2440   34.7720 C   0  0  0  0  0  0  0  0  0  0  0  0
   37.2670   28.4130   34.2060 F   0  0  0  0  0  0  0  0  0  0  0  0
   38.4470   27.5980   35.8740 F   0  0  0  0  0  0  0  0  0  0  0  0
   36.6150   26.4890   35.0760 F   0  0  0  0  0  0  0  0  0  0  0  0
   37.5300   26.0710   32.7240 C   0  0  2  0  0  0  0  0  0  0  0  0
   36.5810   25.8410   33.1570 H   0  0  0  0  0  0  0  0  0  0  0  0
   37.7220   24.6730   31.9950 C   0  0  0  0  0  0  0  0  0  0  0  0
   37.0060   23.5460   32.4620 C   0  0  0  0  0  0  0  0  0  0  0  0
   36.4210   23.7250   33.3790 H   0  0  0  0  0  0  0  0  0  0  0  0
   36.9750   22.3120   31.9070 C   0  0  0  0  0  0  0  0  0  0  0  0
   36.3900   21.5220   32.3540 H   0  0  0  0  0  0  0  0  0  0  0  0
   37.7360   22.1870   30.7680 C   0  0  0  0  0  3  0  0  0  0  0  0
   38.4410   23.2660   30.2940 C   0  0  0  0  0  3  0  0  0  0  0  0
   38.4400   24.4650   30.8760 N   0  0  0  0  0  0  0  0  0  0  0  0
   37.6230   26.8520   31.7420 O   0  0  0  0  0  0  0  0  0  0  0  0
   36.8390   27.4900   30.8590 C   0  0  0  0  0  0  0  0  0  0  0  0
   35.8690   28.0210   31.4050 O   0  0  0  0  0  0  0  0  0  0  0  0
   36.5870   27.8690   29.5140 N   0  0  0  0  0  0  0  0  0  0  0  0
   35.9980   27.3130   28.8570 H   0  0  0  0  0  0  0  0  0  0  0  0
   37.0330   28.7600   29.1960 H   0  0  0  0  0  0  0  0  0  0  0  0
  1  6  1  0  0  0  0
  2  3  1  0  0  0  0
  2  1  2  0  0  0  0
  3  4  2  0  0  0  0
  4  5  1  0  0  0  0
  5 14  1  0  0  0  0
  6  5  2  0  0  0  0
  7  3  1  0  0  0  0
  8 15  1  0  0  0  0
  8  7  1  0  0  0  0
  9 17  1  0  0  0  0
  9 10  1  0  0  0  0
  9  8  1  0  0  0  0
 10 11  1  0  0  0  0
 10 19  1  0  0  0  0
 11  7  1  0  0  0  0
 11 21  1  1  0  0  0
 12  1  1  0  0  0  0
 13  2  1  0  0  0  0
 16  8  1  0  0  0  0
 18  9  1  0  0  0  0
 20 10  1  0  0  0  0
 21 24  1  0  0  0  0
 21 23  1  0  0  0  0
 22 21  1  0  0  0  0
 25 26  1  1  0  0  0
 25 11  1  0  0  0  0
 27 28  1  0  0  0  0
 27 25  1  0  0  0  0
 28 29  1  0  0  0  0
 30 31  1  0  0  0  0
 30 28  2  0  0  0  0
 32 30  1  0  0  0  0
 33 32  2  0  0  0  0
 33 34  1  0  0  0  0
 34 27  2  0  0  0  0
 35 25  1  0  0  0  0
 36 37  2  0  0  0  0
 36 35  1  0  0  0  0
 38 36  1  0  0  0  0
 39 38  1  0  0  0  0
 40 38  1  0  0  0  0
M  END
>  <minimizedAffinity>
-5.22983313

$$$$

 OpenBabel03272507293D

 40 42  0  0  1  0  0  0  0  0999 V2000
   40.9900   26.1670   33.0320 C   0  0  0  0  0  0  0  0  0  0  0  0
   39.9680   25.6690   33.8640 C   0  0  0  0  0  0  0  0  0  0  0  0
   40.3600   24.8260   34.9070 C   0  0  0  0  0  0  0  0  0  0  0  0
   41.6630   24.5370   35.0620 N   0  0  0  0  0  0  0  0  0  0  0  0
   42.6120   25.0340   34.2420 C   0  0  0  0  0  0  0  0  0  0  0  0
   42.2770   25.8390   33.2400 N   0  0  0  0  0  0  0  0  0  0  0  0
   39.4150   24.2840   35.7720 N   0  0  0  0  0  0  0  0  0  0  0  0
   38.1400   24.9340   36.1810 C   0  0  0  0  0  0  0  0  0  0  0  0
   37.5770   24.1580   37.3090 C   0  0  0  0  0  0  0  0  0  0  0  0
   38.7000   23.3540   37.7760 C   0  0  0  0  0  0  0  0  0  0  0  0
   39.3820   23.0540   36.4940 C   0  0  2  0  0  0  0  0  0  0  0  0
   40.5680   26.8130   32.2550 H   0  0  0  0  0  0  0  0  0  0  0  0
   38.9180   25.8930   33.7530 H   0  0  0  0  0  0  0  0  0  0  0  0
   43.6570   24.8330   34.3250 H   0  0  0  0  0  0  0  0  0  0  0  0
   38.5770   25.9350   36.5740 H   0  0  0  0  0  0  0  0  0  0  0  0
   37.5060   25.2690   35.3910 H   0  0  0  0  0  0  0  0  0  0  0  0
   37.5230   24.9830   38.1660 H   0  0  0  0  0  0  0  0  0  0  0  0
   36.5670   23.8490   37.3470 H   0  0  0  0  0  0  0  0  0  0  0  0
   39.3640   23.8060   38.5360 H   0  0  0  0  0  0  0  0  0  0  0  0
   38.3460   22.3980   38.2210 H   0  0  0  0  0  0  0  0  0  0  0  0
   40.7600   22.4430   36.7680 C   0  0  0  0  0  0  0  0  0  0  0  0
   40.6180   21.4860   37.7490 F   0  0  0  0  0  0  0  0  0  0  0  0
   41.7100   23.3170   37.2050 F   0  0  0  0  0  0  0  0  0  0  0  0
   41.1290   21.7770   35.6190 F   0  0  0  0  0  0  0  0  0  0  0  0
   38.6790   22.0930   35.6920 C   0  0  2  0  0  0  0  0  0  0  0  0
   39.2360   21.1940   35.5460 H   0  0  0  0  0  0  0  0  0  0  0  0
   38.4670   22.4100   34.1500 C   0  0  0  0  0  0  0  0  0  0  0  0
   39.3670   21.8680   33.2040 C   0  0  0  0  0  0  0  0  0  0  0  0
   40.2180   21.3230   33.6440 H   0  0  0  0  0  0  0  0  0  0  0  0
   39.2820   21.9540   31.8560 C   0  0  0  0  0  0  0  0  0  0  0  0
   40.0330   21.4980   31.2270 H   0  0  0  0  0  0  0  0  0  0  0  0
   38.1880   22.6520   31.4030 C   0  0  0  0  0  3  0  0  0  0  0  0
   37.2990   23.1880   32.3010 C   0  0  0  0  0  3  0  0  0  0  0  0
   37.4240   23.0770   33.6240 N   0  0  0  0  0  0  0  0  0  0  0  0
   37.4820   22.0600   36.0810 O   0  0  0  0  0  0  0  0  0  0  0  0
   36.3650   21.3370   35.9060 C   0  0  0  0  0  0  0  0  0  0  0  0
   35.6980   21.2630   36.9410 O   0  0  0  0  0  0  0  0  0  0  0  0
   35.5380   20.5770   35.0380 N   0  0  0  0  0  0  0  0  0  0  0  0
   35.6080   19.5420   34.9310 H   0  0  0  0  0  0  0  0  0  0  0  0
   34.8270   21.1160   34.4910 H   0  0  0  0  0  0  0  0  0  0  0  0
  1  6  2  0  0  0  0
  1  2  1  0  0  0  0
  2  3  2  0  0  0  0
  3  4  1  0  0  0  0
  3  7  1  0  0  0  0
  5 14  1  0  0  0  0
  5  4  2  0  0  0  0
  6  5  1  0  0  0  0
  7  8  1  0  0  0  0
  7 11  1  0  0  0  0
  8 15  1  0  0  0  0
  8  9  1  0  0  0  0
  9 18  1  0  0  0  0
  9 10  1  0  0  0  0
  9 17  1  0  0  0  0
 10 20  1  0  0  0  0
 10 19  1  0  0  0  0
 11 21  1  1  0  0  0
 11 10  1  0  0  0  0
 12  1  1  0  0  0  0
 13  2  1  0  0  0  0
 16  8  1  0  0  0  0
 21 23  1  0  0  0  0
 21 22  1  0  0  0  0
 24 21  1  0  0  0  0
 25 26  1  1  0  0  0
 25 35  1  0  0  0  0
 25 11  1  0  0  0  0
 27 25  1  0  0  0  0
 28 29  1  0  0  0  0
 28 27  2  0  0  0  0
 30 28  1  0  0  0  0
 31 30  1  0  0  0  0
 32 30  2  0  0  0  0
 32 33  1  0  0  0  0
 33 34  2  0  0  0  0
 34 27  1  0  0  0  0
 36 35  1  0  0  0  0
 36 37  2  0  0  0  0
 38 36  1  0  0  0  0
 39 38  1  0  0  0  0
 40 38  1  0  0  0  0
M  END
>  <minimizedAffinity>
-5.18834352

$$$$

 OpenBabel03272507293D

 40 42  0  0  1  0  0  0  0  0999 V2000
   42.3820   22.0570   36.4180 C   0  0  0  0  0  0  0  0  0  0  0  0
   42.1250   23.1890   35.6180 C   0  0  0  0  0  0  0  0  0  0  0  0
   40.8990   23.8290   35.8090 C   0  0  0  0  0  0  0  0  0  0  0  0
   40.0420   23.3470   36.7260 N   0  0  0  0  0  0  0  0  0  0  0  0
   40.3260   22.2590   37.4720 C   0  0  0  0  0  0  0  0  0  0  0  0
   41.4820   21.6240   37.3180 N   0  0  0  0  0  0  0  0  0  0  0  0
   40.5600   24.9490   35.0570 N   0  0  0  0  0  0  0  0  0  0  0  0
   41.5160   25.9640   34.5340 C   0  0  0  0  0  0  0  0  0  0  0  0
   40.7280   27.1160   34.0410 C   0  0  0  0  0  0  0  0  0  0  0  0
   39.4140   26.9250   34.6420 C   0  0  0  0  0  0  0  0  0  0  0  0
   39.3010   25.4480   34.6060 C   0  0  2  0  0  0  0  0  0  0  0  0
   43.3670   21.6400   36.1820 H   0  0  0  0  0  0  0  0  0  0  0  0
   42.8030   23.5880   34.8790 H   0  0  0  0  0  0  0  0  0  0  0  0
   39.6790   21.8400   38.2100 H   0  0  0  0  0  0  0  0  0  0  0  0
   42.0330   26.2440   35.5360 H   0  0  0  0  0  0  0  0  0  0  0  0
   42.3360   25.5910   33.9640 H   0  0  0  0  0  0  0  0  0  0  0  0
   41.1520   28.0030   34.7120 H   0  0  0  0  0  0  0  0  0  0  0  0
   40.8920   27.5620   33.0970 H   0  0  0  0  0  0  0  0  0  0  0  0
   39.2490   27.3590   35.6460 H   0  0  0  0  0  0  0  0  0  0  0  0
   38.6170   27.3570   33.9970 H   0  0  0  0  0  0  0  0  0  0  0  0
   38.1040   24.9960   35.4480 C   0  0  0  0  0  0  0  0  0  0  0  0
   38.4040   25.2190   36.7750 F   0  0  0  0  0  0  0  0  0  0  0  0
   37.7740   23.6790   35.3360 F   0  0  0  0  0  0  0  0  0  0  0  0
   37.0620   25.8410   35.1340 F   0  0  0  0  0  0  0  0  0  0  0  0
   39.0710   24.9300   33.2870 C   0  0  2  0  0  0  0  0  0  0  0  0
   39.7160   25.3670   32.5560 H   0  0  0  0  0  0  0  0  0  0  0  0
   37.7130   25.3070   32.5570 C   0  0  0  0  0  0  0  0  0  0  0  0
   37.5360   26.6200   32.0610 C   0  0  0  0  0  0  0  0  0  0  0  0
   38.3530   27.3160   32.3110 H   0  0  0  0  0  0  0  0  0  0  0  0
   36.4920   27.0840   31.3350 C   0  0  0  0  0  0  0  0  0  0  0  0
   36.4630   28.1130   31.0090 H   0  0  0  0  0  0  0  0  0  0  0  0
   35.5240   26.1440   31.0750 C   0  0  0  0  0  3  0  0  0  0  0  0
   35.6710   24.8610   31.5450 C   0  0  0  0  0  3  0  0  0  0  0  0
   36.7200   24.4490   32.2580 N   0  0  0  0  0  0  0  0  0  0  0  0
   38.9410   23.6810   33.3750 O   0  0  0  0  0  0  0  0  0  0  0  0
   39.3320   22.5610   32.7480 C   0  0  0  0  0  0  0  0  0  0  0  0
   39.4250   21.6080   33.5240 O   0  0  0  0  0  0  0  0  0  0  0  0
   39.7070   21.9170   31.5390 N   0  0  0  0  0  0  0  0  0  0  0  0
   40.6920   21.8320   31.2100 H   0  0  0  0  0  0  0  0  0  0  0  0
   38.9250   21.5160   30.9700 H   0  0  0  0  0  0  0  0  0  0  0  0
  1  6  1  0  0  0  0
  2  3  1  0  0  0  0
  2  1  2  0  0  0  0
  3  4  2  0  0  0  0
  4  5  1  0  0  0  0
  5 14  1  0  0  0  0
  6  5  2  0  0  0  0
  7  3  1  0  0  0  0
  8  7  1  0  0  0  0
  8 15  1  0  0  0  0
  9  8  1  0  0  0  0
  9 10  1  0  0  0  0
  9 17  1  0  0  0  0
 10 19  1  0  0  0  0
 11 10  1  0  0  0  0
 11  7  1  0  0  0  0
 11 21  1  1  0  0  0
 12  1  1  0  0  0  0
 13  2  1  0  0  0  0
 16  8  1  0  0  0  0
 18  9  1  0  0  0  0
 20 10  1  0  0  0  0
 21 22  1  0  0  0  0
 23 21  1  0  0  0  0
 24 21  1  0  0  0  0
 25 26  1  6  0  0  0
 25 35  1  0  0  0  0
 25 11  1  0  0  0  0
 27 25  1  0  0  0  0
 28 29  1  0  0  0  0
 28 27  2  0  0  0  0
 30 28  1  0  0  0  0
 31 30  1  0  0  0  0
 32 30  2  0  0  0  0
 32 33  1  0  0  0  0
 33 34  2  0  0  0  0
 34 27  1  0  0  0  0
 36 35  1  0  0  0  0
 36 37  2  0  0  0  0
 38 36  1  0  0  0  0
 39 38  1  0  0  0  0
 40 38  1  0  0  0  0
M  END
>  <minimizedAffinity>
-5.18094063

$$$$

 OpenBabel03272507293D

 40 42  0  0  1  0  0  0  0  0999 V2000
   34.8430   19.5700   31.9840 C   0  0  0  0  0  0  0  0  0  0  0  0
   34.9950   20.9690   32.0530 C   0  0  0  0  0  0  0  0  0  0  0  0
   36.2080   21.4950   31.6030 C   0  0  0  0  0  0  0  0  0  0  0  0
   37.1510   20.6590   31.1350 N   0  0  0  0  0  0  0  0  0  0  0  0
   36.9680   19.3240   31.0850 C   0  0  0  0  0  0  0  0  0  0  0  0
   35.8270   18.7890   31.5050 N   0  0  0  0  0  0  0  0  0  0  0  0
   36.4440   22.8650   31.6420 N   0  0  0  0  0  0  0  0  0  0  0  0
   35.4140   23.9280   31.4860 C   0  0  0  0  0  0  0  0  0  0  0  0
   36.1170   25.2190   31.3120 C   0  0  0  0  0  0  0  0  0  0  0  0
   37.4800   24.8320   30.9720 C   0  0  0  0  0  0  0  0  0  0  0  0
   37.6440   23.6190   31.8080 C   0  0  2  0  0  0  0  0  0  0  0  0
   33.8590   19.2740   32.3620 H   0  0  0  0  0  0  0  0  0  0  0  0
   34.2460   21.6530   32.4260 H   0  0  0  0  0  0  0  0  0  0  0  0
   37.6860   18.6220   30.7240 H   0  0  0  0  0  0  0  0  0  0  0  0
   34.9680   23.5850   30.4700 H   0  0  0  0  0  0  0  0  0  0  0  0
   34.5650   23.8610   32.1280 H   0  0  0  0  0  0  0  0  0  0  0  0
   35.7140   25.5710   30.2480 H   0  0  0  0  0  0  0  0  0  0  0  0
   35.8620   26.0900   31.8540 H   0  0  0  0  0  0  0  0  0  0  0  0
   37.7080   24.6670   29.9020 H   0  0  0  0  0  0  0  0  0  0  0  0
   38.2080   25.6000   31.3160 H   0  0  0  0  0  0  0  0  0  0  0  0
   38.9200   22.8750   31.4020 C   0  0  0  0  0  0  0  0  0  0  0  0
   38.7300   22.3530   30.1410 F   0  0  0  0  0  0  0  0  0  0  0  0
   39.2720   21.8350   32.2090 F   0  0  0  0  0  0  0  0  0  0  0  0
   39.9100   23.8270   31.2890 F   0  0  0  0  0  0  0  0  0  0  0  0
   37.7880   23.9120   33.2060 C   0  0  2  0  0  0  0  0  0  0  0  0
   37.0540   24.6020   33.5590 H   0  0  0  0  0  0  0  0  0  0  0  0
   39.0490   24.7570   33.6730 C   0  0  0  0  0  0  0  0  0  0  0  0
   39.0320   26.1630   33.5220 C   0  0  0  0  0  0  0  0  0  0  0  0
   38.1460   26.5550   32.9960 H   0  0  0  0  0  0  0  0  0  0  0  0
   39.9700   27.0410   33.9490 C   0  0  0  0  0  0  0  0  0  0  0  0
   39.8510   28.1000   33.7770 H   0  0  0  0  0  0  0  0  0  0  0  0
   41.0360   26.4580   34.5930 C   0  0  0  0  0  3  0  0  0  0  0  0
   41.0770   25.0950   34.7520 C   0  0  0  0  0  3  0  0  0  0  0  0
   40.1270   24.2680   34.3130 N   0  0  0  0  0  0  0  0  0  0  0  0
   38.0070   22.8300   33.8120 O   0  0  0  0  0  0  0  0  0  0  0  0
   37.8610   22.2880   35.0310 C   0  0  0  0  0  0  0  0  0  0  0  0
   36.8970   21.5220   35.0810 O   0  0  0  0  0  0  0  0  0  0  0  0
   38.3250   22.1700   36.3680 N   0  0  0  0  0  0  0  0  0  0  0  0
   37.9810   22.7620   37.1540 H   0  0  0  0  0  0  0  0  0  0  0  0
   39.0530   21.4380   36.5380 H   0  0  0  0  0  0  0  0  0  0  0  0
  1  2  1  0  0  0  0
  1 12  1  0  0  0  0
  2 13  1  0  0  0  0
  3  7  1  0  0  0  0
  3  2  2  0  0  0  0
  4  3  1  0  0  0  0
  5  4  2  0  0  0  0
  5  6  1  0  0  0  0
  6  1  2  0  0  0  0
  7 11  1  0  0  0  0
  8  7  1  0  0  0  0
  8 16  1  0  0  0  0
  9  8  1  0  0  0  0
  9 18  1  0  0  0  0
 10  9  1  0  0  0  0
 10 20  1  0  0  0  0
 10 11  1  0  0  0  0
 11 21  1  6  0  0  0
 11 25  1  0  0  0  0
 14  5  1  0  0  0  0
 15  8  1  0  0  0  0
 17  9  1  0  0  0  0
 19 10  1  0  0  0  0
 21 23  1  0  0  0  0
 22 21  1  0  0  0  0
 24 21  1  0  0  0  0
 25 26  1  1  0  0  0
 25 27  1  0  0  0  0
 25 35  1  0  0  0  0
 27 34  1  0  0  0  0
 28 27  2  0  0  0  0
 28 30  1  0  0  0  0
 29 28  1  0  0  0  0
 30 32  2  0  0  0  0
 31 30  1  0  0  0  0
 32 33  1  0  0  0  0
 34 33  2  0  0  0  0
 35 36  1  0  0  0  0
 36 37  2  0  0  0  0
 36 38  1  0  0  0  0
 38 40  1  0  0  0  0
 38 39  1  0  0  0  0
M  END
>  <minimizedAffinity>
-5.12761545

$$$$

 OpenBabel03272507293D

 40 42  0  0  1  0  0  0  0  0999 V2000
   38.8350   27.1640   29.3460 C   0  0  0  0  0  0  0  0  0  0  0  0
   38.1730   27.1330   30.5890 C   0  0  0  0  0  0  0  0  0  0  0  0
   38.9740   27.1920   31.7310 C   0  0  0  0  0  0  0  0  0  0  0  0
   40.3090   27.2730   31.5930 N   0  0  0  0  0  0  0  0  0  0  0  0
   40.9060   27.2990   30.3840 C   0  0  0  0  0  0  0  0  0  0  0  0
   40.1760   27.2450   29.2750 N   0  0  0  0  0  0  0  0  0  0  0  0
   38.4030   27.1600   33.0000 N   0  0  0  0  0  0  0  0  0  0  0  0
   37.0690   27.7090   33.3640 C   0  0  0  0  0  0  0  0  0  0  0  0
   36.9710   27.7210   34.8410 C   0  0  0  0  0  0  0  0  0  0  0  0
   38.3510   27.5700   35.2840 C   0  0  0  0  0  0  0  0  0  0  0  0
   38.8810   26.6550   34.2450 C   0  0  2  0  0  0  0  0  0  0  0  0
   38.1110   27.1130   28.5270 H   0  0  0  0  0  0  0  0  0  0  0  0
   37.1030   27.0690   30.7160 H   0  0  0  0  0  0  0  0  0  0  0  0
   41.9590   27.3630   30.2240 H   0  0  0  0  0  0  0  0  0  0  0  0
   37.2180   28.7930   32.9730 H   0  0  0  0  0  0  0  0  0  0  0  0
   36.2450   27.3780   32.7740 H   0  0  0  0  0  0  0  0  0  0  0  0
   36.7920   28.8770   35.0620 H   0  0  0  0  0  0  0  0  0  0  0  0
   36.1330   27.3450   35.3640 H   0  0  0  0  0  0  0  0  0  0  0  0
   38.9470   28.4950   35.4070 H   0  0  0  0  0  0  0  0  0  0  0  0
   38.3980   27.0540   36.2680 H   0  0  0  0  0  0  0  0  0  0  0  0
   40.4070   26.5740   34.3520 C   0  0  0  0  0  0  0  0  0  0  0  0
   40.9310   27.7780   33.9320 F   0  0  0  0  0  0  0  0  0  0  0  0
   40.9950   25.6050   33.5970 F   0  0  0  0  0  0  0  0  0  0  0  0
   40.7010   26.4640   35.6930 F   0  0  0  0  0  0  0  0  0  0  0  0
   38.4060   25.3080   34.3840 C   0  0  2  0  0  0  0  0  0  0  0  0
   37.3470   25.2560   34.5050 H   0  0  0  0  0  0  0  0  0  0  0  0
   38.7630   24.5160   35.7140 C   0  0  0  0  0  0  0  0  0  0  0  0
   37.9910   24.7370   36.8780 C   0  0  0  0  0  0  0  0  0  0  0  0
   37.2350   25.5330   36.7790 H   0  0  0  0  0  0  0  0  0  0  0  0
   38.0930   24.0850   38.0590 C   0  0  0  0  0  0  0  0  0  0  0  0
   37.4460   24.3400   38.8860 H   0  0  0  0  0  0  0  0  0  0  0  0
   39.0630   23.1120   38.0860 C   0  0  0  0  0  3  0  0  0  0  0  0
   39.8270   22.8770   36.9680 C   0  0  0  0  0  3  0  0  0  0  0  0
   39.6900   23.5470   35.8230 N   0  0  0  0  0  0  0  0  0  0  0  0
   38.9980   24.5950   33.5320 O   0  0  0  0  0  0  0  0  0  0  0  0
   38.7360   23.6170   32.6500 C   0  0  0  0  0  0  0  0  0  0  0  0
   39.3260   23.7920   31.5820 O   0  0  0  0  0  0  0  0  0  0  0  0
   38.0640   22.4030   32.3520 N   0  0  0  0  0  0  0  0  0  0  0  0
   37.1250   22.3570   31.9030 H   0  0  0  0  0  0  0  0  0  0  0  0
   38.5690   21.5230   32.6110 H   0  0  0  0  0  0  0  0  0  0  0  0
  1  2  1  0  0  0  0
  2 13  1  0  0  0  0
  2  3  2  0  0  0  0
  3  7  1  0  0  0  0
  4  3  1  0  0  0  0
  5  4  2  0  0  0  0
  6  1  2  0  0  0  0
  6  5  1  0  0  0  0
  7  8  1  0  0  0  0
  7 11  1  0  0  0  0
  8  9  1  0  0  0  0
  9 17  1  0  0  0  0
  9 10  1  0  0  0  0
  9 18  1  0  0  0  0
 10 19  1  0  0  0  0
 10 20  1  0  0  0  0
 11 21  1  1  0  0  0
 11 25  1  0  0  0  0
 11 10  1  0  0  0  0
 12  1  1  0  0  0  0
 14  5  1  0  0  0  0
 15  8  1  0  0  0  0
 16  8  1  0  0  0  0
 21 24  1  0  0  0  0
 22 21  1  0  0  0  0
 23 21  1  0  0  0  0
 25 26  1  6  0  0  0
 25 27  1  0  0  0  0
 27 34  2  0  0  0  0
 27 28  1  0  0  0  0
 28 30  2  0  0  0  0
 29 28  1  0  0  0  0
 30 32  1  0  0  0  0
 30 31  1  0  0  0  0
 33 32  2  0  0  0  0
 34 33  1  0  0  0  0
 35 25  1  0  0  0  0
 36 35  1  0  0  0  0
 37 36  2  0  0  0  0
 38 40  1  0  0  0  0
 38 36  1  0  0  0  0
 39 38  1  0  0  0  0
M  END
>  <minimizedAffinity>
-5.10641909

$$$$

 OpenBabel03272507293D

 40 42  0  0  1  0  0  0  0  0999 V2000
   37.8600   23.5660   38.0550 C   0  0  0  0  0  0  0  0  0  0  0  0
   37.6540   23.4130   36.6690 C   0  0  0  0  0  0  0  0  0  0  0  0
   38.7280   22.9250   35.9230 C   0  0  0  0  0  0  0  0  0  0  0  0
   39.8820   22.6310   36.5470 N   0  0  0  0  0  0  0  0  0  0  0  0
   40.0400   22.7930   37.8770 C   0  0  0  0  0  0  0  0  0  0  0  0
   39.0400   23.2550   38.6190 N   0  0  0  0  0  0  0  0  0  0  0  0
   38.6130   22.7500   34.5470 N   0  0  0  0  0  0  0  0  0  0  0  0
   37.3660   22.3890   33.8200 C   0  0  0  0  0  0  0  0  0  0  0  0
   37.7370   22.0320   32.4330 C   0  0  0  0  0  0  0  0  0  0  0  0
   39.1750   21.8060   32.5020 C   0  0  0  0  0  0  0  0  0  0  0  0
   39.5730   22.8330   33.4940 C   0  0  2  0  0  0  0  0  0  0  0  0
   36.9550   23.9530   38.5350 H   0  0  0  0  0  0  0  0  0  0  0  0
   36.7330   23.6440   36.1540 H   0  0  0  0  0  0  0  0  0  0  0  0
   40.9340   22.5740   38.4160 H   0  0  0  0  0  0  0  0  0  0  0  0
   37.0950   21.4270   34.4130 H   0  0  0  0  0  0  0  0  0  0  0  0
   36.5150   23.0040   34.0070 H   0  0  0  0  0  0  0  0  0  0  0  0
   37.3400   20.9120   32.3570 H   0  0  0  0  0  0  0  0  0  0  0  0
   37.2340   22.4170   31.5860 H   0  0  0  0  0  0  0  0  0  0  0  0
   39.5160   20.7850   32.7590 H   0  0  0  0  0  0  0  0  0  0  0  0
   39.6620   22.0460   31.5310 H   0  0  0  0  0  0  0  0  0  0  0  0
   41.0200   22.5970   33.9370 C   0  0  0  0  0  0  0  0  0  0  0  0
   41.8090   22.5300   32.8090 F   0  0  0  0  0  0  0  0  0  0  0  0
   41.2370   21.4480   34.6370 F   0  0  0  0  0  0  0  0  0  0  0  0
   41.4100   23.7270   34.6230 F   0  0  0  0  0  0  0  0  0  0  0  0
   39.5350   24.1690   32.9710 C   0  0  2  0  0  0  0  0  0  0  0  0
   40.4920   24.6420   32.9830 H   0  0  0  0  0  0  0  0  0  0  0  0
   38.7870   25.2880   33.8140 C   0  0  0  0  0  0  0  0  0  0  0  0
   39.5300   26.0880   34.7130 C   0  0  0  0  0  0  0  0  0  0  0  0
   40.5880   25.7960   34.8160 H   0  0  0  0  0  0  0  0  0  0  0  0
   39.0780   27.1410   35.4330 C   0  0  0  0  0  0  0  0  0  0  0  0
   39.7400   27.6810   36.0930 H   0  0  0  0  0  0  0  0  0  0  0  0
   37.7470   27.4280   35.2380 C   0  0  0  0  0  3  0  0  0  0  0  0
   37.0040   26.6660   34.3700 C   0  0  0  0  0  3  0  0  0  0  0  0
   37.4940   25.6360   33.6810 N   0  0  0  0  0  0  0  0  0  0  0  0
   38.8270   24.1610   31.9300 O   0  0  0  0  0  0  0  0  0  0  0  0
   38.5660   24.9270   30.8600 C   0  0  0  0  0  0  0  0  0  0  0  0
   38.7450   24.3180   29.8030 O   0  0  0  0  0  0  0  0  0  0  0  0
   38.1520   26.1820   30.3400 N   0  0  0  0  0  0  0  0  0  0  0  0
   38.8110   26.9490   30.0860 H   0  0  0  0  0  0  0  0  0  0  0  0
   37.1210   26.3100   30.2170 H   0  0  0  0  0  0  0  0  0  0  0  0
  1 12  1  0  0  0  0
  1  6  1  0  0  0  0
  2  1  2  0  0  0  0
  3  4  2  0  0  0  0
  3  2  1  0  0  0  0
  4  5  1  0  0  0  0
  5 14  1  0  0  0  0
  5  6  2  0  0  0  0
  7  3  1  0  0  0  0
  8 16  1  0  0  0  0
  8 15  1  0  0  0  0
  8  7  1  0  0  0  0
  9 10  1  0  0  0  0
  9  8  1  0  0  0  0
 10 19  1  0  0  0  0
 10 11  1  0  0  0  0
 11 21  1  1  0  0  0
 11  7  1  0  0  0  0
 13  2  1  0  0  0  0
 17  9  1  0  0  0  0
 18  9  1  0  0  0  0
 20 10  1  0  0  0  0
 21 24  1  0  0  0  0
 21 23  1  0  0  0  0
 22 21  1  0  0  0  0
 25 26  1  6  0  0  0
 25 11  1  0  0  0  0
 25 27  1  0  0  0  0
 27 28  1  0  0  0  0
 28 29  1  0  0  0  0
 28 30  2  0  0  0  0
 30 31  1  0  0  0  0
 32 30  1  0  0  0  0
 33 32  2  0  0  0  0
 34 27  2  0  0  0  0
 34 33  1  0  0  0  0
 35 25  1  0  0  0  0
 36 35  1  0  0  0  0
 37 36  2  0  0  0  0
 38 36  1  0  0  0  0
 39 38  1  0  0  0  0
 40 38  1  0  0  0  0
M  END
>  <minimizedAffinity>
-5.08610916

$$$$

 OpenBabel03272507293D

 40 42  0  0  1  0  0  0  0  0999 V2000
   36.9980   28.1690   31.1480 C   0  0  0  0  0  0  0  0  0  0  0  0
   38.2500   27.6670   31.5550 C   0  0  0  0  0  0  0  0  0  0  0  0
   38.3310   26.2930   31.7930 C   0  0  0  0  0  0  0  0  0  0  0  0
   37.2350   25.5330   31.6250 N   0  0  0  0  0  0  0  0  0  0  0  0
   36.0530   26.0530   31.2340 C   0  0  0  0  0  0  0  0  0  0  0  0
   35.9390   27.3550   30.9990 N   0  0  0  0  0  0  0  0  0  0  0  0
   39.5270   25.7150   32.2050 N   0  0  0  0  0  0  0  0  0  0  0  0
   40.8900   26.1830   31.8330 C   0  0  0  0  0  0  0  0  0  0  0  0
   41.8560   25.1390   32.2450 C   0  0  0  0  0  0  0  0  0  0  0  0
   41.0260   23.9610   32.4630 C   0  0  0  0  0  0  0  0  0  0  0  0
   39.8020   24.5800   33.0250 C   0  0  2  0  0  0  0  0  0  0  0  0
   37.0540   29.2520   30.9920 H   0  0  0  0  0  0  0  0  0  0  0  0
   39.1390   28.2650   31.6940 H   0  0  0  0  0  0  0  0  0  0  0  0
   35.1580   25.4910   31.0880 H   0  0  0  0  0  0  0  0  0  0  0  0
   40.7660   26.1680   30.6780 H   0  0  0  0  0  0  0  0  0  0  0  0
   41.1020   27.2120   32.0140 H   0  0  0  0  0  0  0  0  0  0  0  0
   42.3680   24.8610   31.2070 H   0  0  0  0  0  0  0  0  0  0  0  0
   42.7390   25.3540   32.7850 H   0  0  0  0  0  0  0  0  0  0  0  0
   40.8330   23.3100   31.5890 H   0  0  0  0  0  0  0  0  0  0  0  0
   41.4740   23.2970   33.2350 H   0  0  0  0  0  0  0  0  0  0  0  0
   38.6720   23.5470   33.0740 C   0  0  0  0  0  0  0  0  0  0  0  0
   38.2930   23.2630   31.7800 F   0  0  0  0  0  0  0  0  0  0  0  0
   37.5480   23.9420   33.7350 F   0  0  0  0  0  0  0  0  0  0  0  0
   39.2190   22.3910   33.5870 F   0  0  0  0  0  0  0  0  0  0  0  0
   39.9710   25.0420   34.3730 C   0  0  2  0  0  0  0  0  0  0  0  0
   40.8850   25.5750   34.5130 H   0  0  0  0  0  0  0  0  0  0  0  0
   40.2300   23.9660   35.5120 C   0  0  0  0  0  0  0  0  0  0  0  0
   41.5320   23.4440   35.6860 C   0  0  0  0  0  0  0  0  0  0  0  0
   42.2630   23.7800   34.9310 H   0  0  0  0  0  0  0  0  0  0  0  0
   41.9500   22.6000   36.6580 C   0  0  0  0  0  0  0  0  0  0  0  0
   42.9760   22.2640   36.6910 H   0  0  0  0  0  0  0  0  0  0  0  0
   40.9690   22.2380   37.5500 C   0  0  0  0  0  3  0  0  0  0  0  0
   39.6950   22.7310   37.4030 C   0  0  0  0  0  3  0  0  0  0  0  0
   39.3300   23.5620   36.4270 N   0  0  0  0  0  0  0  0  0  0  0  0
   38.8740   25.5210   34.7620 O   0  0  0  0  0  0  0  0  0  0  0  0
   38.3910   26.6090   35.3820 C   0  0  0  0  0  0  0  0  0  0  0  0
   37.2330   26.8580   35.0380 O   0  0  0  0  0  0  0  0  0  0  0  0
   38.5940   27.6680   36.3050 N   0  0  0  0  0  0  0  0  0  0  0  0
   38.9480   28.6110   36.0350 H   0  0  0  0  0  0  0  0  0  0  0  0
   38.3660   27.4570   37.3050 H   0  0  0  0  0  0  0  0  0  0  0  0
  1  2  1  0  0  0  0
  2 13  1  0  0  0  0
  2  3  2  0  0  0  0
  3  7  1  0  0  0  0
  4  3  1  0  0  0  0
  5  4  2  0  0  0  0
  6  1  2  0  0  0  0
  6  5  1  0  0  0  0
  7 11  1  0  0  0  0
  8 16  1  0  0  0  0
  8  7  1  0  0  0  0
  8  9  1  0  0  0  0
  9 10  1  0  0  0  0
  9 18  1  0  0  0  0
 10 11  1  0  0  0  0
 10 20  1  0  0  0  0
 11 21  1  6  0  0  0
 11 25  1  0  0  0  0
 12  1  1  0  0  0  0
 14  5  1  0  0  0  0
 15  8  1  0  0  0  0
 17  9  1  0  0  0  0
 19 10  1  0  0  0  0
 21 24  1  0  0  0  0
 21 23  1  0  0  0  0
 22 21  1  0  0  0  0
 25 26  1  1  0  0  0
 25 35  1  0  0  0  0
 25 27  1  0  0  0  0
 27 28  2  0  0  0  0
 27 34  1  0  0  0  0
 28 30  1  0  0  0  0
 29 28  1  0  0  0  0
 30 31  1  0  0  0  0
 30 32  2  0  0  0  0
 33 32  1  0  0  0  0
 34 33  2  0  0  0  0
 35 36  1  0  0  0  0
 36 38  1  0  0  0  0
 37 36  2  0  0  0  0
 38 40  1  0  0  0  0
 39 38  1  0  0  0  0
M  END
>  <minimizedAffinity>
-5.05894232

$$$$

 OpenBabel03272507293D

 40 42  0  0  1  0  0  0  0  0999 V2000
   40.8950   22.2560   37.3690 C   0  0  0  0  0  0  0  0  0  0  0  0
   39.7740   22.3200   36.5170 C   0  0  0  0  0  0  0  0  0  0  0  0
   39.9960   22.7780   35.2170 C   0  0  0  0  0  0  0  0  0  0  0  0
   41.2400   23.1290   34.8490 N   0  0  0  0  0  0  0  0  0  0  0  0
   42.2880   23.0540   35.6950 C   0  0  0  0  0  0  0  0  0  0  0  0
   42.1150   22.6230   36.9390 N   0  0  0  0  0  0  0  0  0  0  0  0
   38.9440   22.8800   34.3130 N   0  0  0  0  0  0  0  0  0  0  0  0
   37.7450   21.9990   34.2750 C   0  0  0  0  0  0  0  0  0  0  0  0
   37.0270   22.2650   33.0080 C   0  0  0  0  0  0  0  0  0  0  0  0
   38.0080   22.9660   32.1900 C   0  0  0  0  0  0  0  0  0  0  0  0
   38.7120   23.7670   33.2200 C   0  0  2  0  0  0  0  0  0  0  0  0
   40.6020   21.8840   38.3570 H   0  0  0  0  0  0  0  0  0  0  0  0
   38.7690   22.0410   36.7980 H   0  0  0  0  0  0  0  0  0  0  0  0
   43.2920   23.3210   35.4500 H   0  0  0  0  0  0  0  0  0  0  0  0
   38.2880   20.9740   34.2080 H   0  0  0  0  0  0  0  0  0  0  0  0
   37.2040   21.8980   35.1880 H   0  0  0  0  0  0  0  0  0  0  0  0
   37.0370   21.1910   32.4950 H   0  0  0  0  0  0  0  0  0  0  0  0
   35.9840   22.4340   32.9630 H   0  0  0  0  0  0  0  0  0  0  0  0
   38.6850   22.3470   31.5700 H   0  0  0  0  0  0  0  0  0  0  0  0
   37.5090   23.6620   31.4800 H   0  0  0  0  0  0  0  0  0  0  0  0
   39.9810   24.3830   32.6240 C   0  0  0  0  0  0  0  0  0  0  0  0
   40.8740   23.3640   32.3680 F   0  0  0  0  0  0  0  0  0  0  0  0
   40.6260   25.2790   33.4220 F   0  0  0  0  0  0  0  0  0  0  0  0
   39.6250   24.9090   31.4010 F   0  0  0  0  0  0  0  0  0  0  0  0
   37.9320   24.8690   33.7070 C   0  0  2  0  0  0  0  0  0  0  0  0
   36.9410   24.5830   33.9800 H   0  0  0  0  0  0  0  0  0  0  0  0
   37.5010   26.0010   32.6790 C   0  0  0  0  0  0  0  0  0  0  0  0
   36.3660   25.7950   31.8610 C   0  0  0  0  0  0  0  0  0  0  0  0
   35.9140   24.7930   31.9530 H   0  0  0  0  0  0  0  0  0  0  0  0
   35.8050   26.6810   31.0070 C   0  0  0  0  0  0  0  0  0  0  0  0
   34.9330   26.4120   30.4290 H   0  0  0  0  0  0  0  0  0  0  0  0
   36.4390   27.9000   30.9620 C   0  0  0  0  0  3  0  0  0  0  0  0
   37.5430   28.1260   31.7460 C   0  0  0  0  0  3  0  0  0  0  0  0
   38.0620   27.2200   32.5750 N   0  0  0  0  0  0  0  0  0  0  0  0
   38.6530   25.5410   34.4910 O   0  0  0  0  0  0  0  0  0  0  0  0
   38.5490   26.2580   35.6210 C   0  0  0  0  0  0  0  0  0  0  0  0
   38.1990   25.5630   36.5770 O   0  0  0  0  0  0  0  0  0  0  0  0
   38.6660   27.5140   36.2740 N   0  0  0  0  0  0  0  0  0  0  0  0
   37.8740   28.1830   36.3850 H   0  0  0  0  0  0  0  0  0  0  0  0
   39.6120   27.7490   36.6540 H   0  0  0  0  0  0  0  0  0  0  0  0
  1 12  1  0  0  0  0
  2 13  1  0  0  0  0
  2  1  2  0  0  0  0
  3  2  1  0  0  0  0
  4  3  2  0  0  0  0
  4  5  1  0  0  0  0
  5  6  2  0  0  0  0
  6  1  1  0  0  0  0
  7  3  1  0  0  0  0
  8  7  1  0  0  0  0
  8 16  1  0  0  0  0
  9  8  1  0  0  0  0
 10  9  1  0  0  0  0
 10 11  1  0  0  0  0
 11 21  1  6  0  0  0
 11 25  1  0  0  0  0
 11  7  1  0  0  0  0
 14  5  1  0  0  0  0
 15  8  1  0  0  0  0
 17  9  1  0  0  0  0
 18  9  1  0  0  0  0
 19 10  1  0  0  0  0
 20 10  1  0  0  0  0
 21 23  1  0  0  0  0
 22 21  1  0  0  0  0
 24 21  1  0  0  0  0
 25 26  1  1  0  0  0
 25 35  1  0  0  0  0
 27 25  1  0  0  0  0
 28 29  1  0  0  0  0
 28 27  2  0  0  0  0
 30 28  1  0  0  0  0
 31 30  1  0  0  0  0
 32 30  2  0  0  0  0
 32 33  1  0  0  0  0
 33 34  2  0  0  0  0
 34 27  1  0  0  0  0
 35 36  1  0  0  0  0
 36 38  1  0  0  0  0
 36 37  2  0  0  0  0
 38 39  1  0  0  0  0
 38 40  1  0  0  0  0
M  END
>  <minimizedAffinity>
-4.97541714

$$$$

 OpenBabel03272507293D

 40 42  0  0  1  0  0  0  0  0999 V2000
   38.1750   21.1490   32.2070 C   0  0  0  0  0  0  0  0  0  0  0  0
   39.1600   21.5580   33.1290 C   0  0  0  0  0  0  0  0  0  0  0  0
   38.7170   21.9310   34.4000 C   0  0  0  0  0  0  0  0  0  0  0  0
   37.4030   21.8840   34.6760 N   0  0  0  0  0  0  0  0  0  0  0  0
   36.4900   21.4880   33.7650 C   0  0  0  0  0  0  0  0  0  0  0  0
   36.8740   21.1260   32.5470 N   0  0  0  0  0  0  0  0  0  0  0  0
   39.6220   22.3550   35.3680 N   0  0  0  0  0  0  0  0  0  0  0  0
   41.0270   21.8840   35.5070 C   0  0  0  0  0  0  0  0  0  0  0  0
   41.5390   22.3630   36.8110 C   0  0  0  0  0  0  0  0  0  0  0  0
   40.3350   22.7320   37.5450 C   0  0  0  0  0  0  0  0  0  0  0  0
   39.4940   23.2750   36.4510 C   0  0  2  0  0  0  0  0  0  0  0  0
   38.6360   20.8820   31.2510 H   0  0  0  0  0  0  0  0  0  0  0  0
   40.2190   21.6000   32.9210 H   0  0  0  0  0  0  0  0  0  0  0  0
   35.4390   21.4350   33.9380 H   0  0  0  0  0  0  0  0  0  0  0  0
   40.8200   20.7430   35.5630 H   0  0  0  0  0  0  0  0  0  0  0  0
   41.6360   21.9510   34.6340 H   0  0  0  0  0  0  0  0  0  0  0  0
   41.8220   21.3400   37.3490 H   0  0  0  0  0  0  0  0  0  0  0  0
   42.4740   22.8440   36.9200 H   0  0  0  0  0  0  0  0  0  0  0  0
   39.8380   21.9380   38.1340 H   0  0  0  0  0  0  0  0  0  0  0  0
   40.5460   23.5510   38.2680 H   0  0  0  0  0  0  0  0  0  0  0  0
   38.0590   23.4730   36.9470 C   0  0  0  0  0  0  0  0  0  0  0  0
   37.5960   22.2630   37.4180 F   0  0  0  0  0  0  0  0  0  0  0  0
   37.1680   23.8950   36.0060 F   0  0  0  0  0  0  0  0  0  0  0  0
   38.1320   24.3160   38.0340 F   0  0  0  0  0  0  0  0  0  0  0  0
   39.9310   24.5610   35.9880 C   0  0  2  0  0  0  0  0  0  0  0  0
   40.1360   25.2380   36.7880 H   0  0  0  0  0  0  0  0  0  0  0  0
   38.8790   25.4920   35.2480 C   0  0  0  0  0  0  0  0  0  0  0  0
   38.5240   26.7310   35.8290 C   0  0  0  0  0  0  0  0  0  0  0  0
   38.9610   26.9090   36.8260 H   0  0  0  0  0  0  0  0  0  0  0  0
   37.7250   27.6840   35.2950 C   0  0  0  0  0  0  0  0  0  0  0  0
   37.5220   28.5980   35.8340 H   0  0  0  0  0  0  0  0  0  0  0  0
   37.2280   27.3720   34.0520 C   0  0  0  0  0  3  0  0  0  0  0  0
   37.5580   26.1740   33.4650 C   0  0  0  0  0  3  0  0  0  0  0  0
   38.3510   25.2650   34.0310 N   0  0  0  0  0  0  0  0  0  0  0  0
   40.7630   24.3810   35.0610 O   0  0  0  0  0  0  0  0  0  0  0  0
   41.6900   25.0590   34.3660 C   0  0  0  0  0  0  0  0  0  0  0  0
   42.6670   25.3460   35.0620 O   0  0  0  0  0  0  0  0  0  0  0  0
   42.1020   25.6310   33.1340 N   0  0  0  0  0  0  0  0  0  0  0  0
   41.9190   26.6210   32.8660 H   0  0  0  0  0  0  0  0  0  0  0  0
   42.6180   24.9950   32.4820 H   0  0  0  0  0  0  0  0  0  0  0  0
  1  6  2  0  0  0  0
  1  2  1  0  0  0  0
  2  3  2  0  0  0  0
  3  4  1  0  0  0  0
  3  7  1  0  0  0  0
  5 14  1  0  0  0  0
  5  4  2  0  0  0  0
  6  5  1  0  0  0  0
  7  8  1  0  0  0  0
  7 11  1  0  0  0  0
  8 15  1  0  0  0  0
  8  9  1  0  0  0  0
  9 18  1  0  0  0  0
  9 17  1  0  0  0  0
  9 10  1  0  0  0  0
 10 19  1  0  0  0  0
 10 20  1  0  0  0  0
 11 21  1  1  0  0  0
 11 10  1  0  0  0  0
 12  1  1  0  0  0  0
 13  2  1  0  0  0  0
 16  8  1  0  0  0  0
 21 22  1  0  0  0  0
 21 24  1  0  0  0  0
 23 21  1  0  0  0  0
 25 11  1  0  0  0  0
 25 26  1  1  0  0  0
 27 28  1  0  0  0  0
 27 25  1  0  0  0  0
 28 29  1  0  0  0  0
 30 28  2  0  0  0  0
 30 31  1  0  0  0  0
 32 30  1  0  0  0  0
 33 34  1  0  0  0  0
 33 32  2  0  0  0  0
 34 27  2  0  0  0  0
 35 25  1  0  0  0  0
 36 35  1  0  0  0  0
 36 37  2  0  0  0  0
 38 36  1  0  0  0  0
 39 38  1  0  0  0  0
 40 38  1  0  0  0  0
M  END
>  <minimizedAffinity>
-4.96224022

$$$$
