
 OpenBabel03272504213D

 38 40  0  0  1  0  0  0  0  0999 V2000
   38.8630   32.3930   47.8600 C   0  0  2  0  0  0  0  0  0  0  0  0
   38.2000   31.3760   48.7530 C   0  0  1  0  0  0  0  0  0  0  0  0
   38.6990   31.9250   50.0980 C   0  0  0  0  0  0  0  0  0  0  0  0
   38.3780   33.2640   49.9830 O   0  0  0  0  0  0  0  0  0  0  0  0
   38.6470   33.6650   48.6980 C   0  0  0  0  0  0  0  0  0  0  0  0
   39.9450   32.2200   47.7220 H   0  0  0  0  0  0  0  0  0  0  0  0
   38.5150   30.3470   48.5860 H   0  0  0  0  0  0  0  0  0  0  0  0
   39.7730   31.7460   50.1970 H   0  0  0  0  0  0  0  0  0  0  0  0
   38.1940   31.4620   50.9520 H   0  0  0  0  0  0  0  0  0  0  0  0
   37.8350   34.2840   48.2630 H   0  0  0  0  0  0  0  0  0  0  0  0
   39.5510   34.3010   48.7070 H   0  0  0  0  0  0  0  0  0  0  0  0
   36.8390   31.5890   48.6630 O   0  0  0  0  0  0  0  0  0  0  0  0
   35.9170   29.8540   46.9610 O   0  0  0  0  0  0  0  0  0  0  0  0
   35.9680   30.1700   48.4320 P   0  0  1  0  0  0  0  0  0  0  0  0
   36.7520   28.8720   49.2260 O   0  0  0  0  0  0  0  0  0  0  0  0
   37.0970   29.2800   50.0660 H   0  0  0  0  0  0  0  0  0  0  0  0
   34.3950   30.3370   49.0580 O   0  0  0  0  0  0  0  0  0  0  0  0
   34.1290   29.1990   49.7930 C   0  0  0  0  0  0  0  0  0  0  0  0
   33.5590   29.5490   50.6990 H   0  0  0  0  0  0  0  0  0  0  0  0
   35.0470   28.6780   50.1310 H   0  0  0  0  0  0  0  0  0  0  0  0
   33.2680   28.2270   49.0820 C   0  0  0  0  0  0  0  0  0  0  0  0
   33.8990   27.3370   48.2460 C   0  0  0  0  0  0  0  0  0  0  0  0
   33.1420   26.3930   47.5460 C   0  0  0  0  0  0  0  0  0  0  0  0
   31.7920   26.4170   47.7410 N   0  0  0  0  0  0  0  0  0  0  0  0
   31.1910   27.3020   48.5670 C   0  0  0  0  0  0  0  0  0  0  0  0
   31.9330   28.2090   49.2390 N   0  0  0  0  0  0  0  0  0  0  0  0
   34.9480   27.2390   48.0280 H   0  0  0  0  0  0  0  0  0  0  0  0
   33.5540   25.6540   46.8680 H   0  0  0  0  0  0  0  0  0  0  0  0
   30.1260   27.3180   48.7180 H   0  0  0  0  0  0  0  0  0  0  0  0
   38.1700   32.4290   46.6560 O   0  0  0  0  0  0  0  0  0  0  0  0
   38.7450   32.1850   45.4080 C   0  0  0  0  0  0  0  0  0  0  0  0
   37.9530   32.4950   44.3220 C   0  0  0  0  0  0  0  0  0  0  0  0
   36.9470   32.9040   44.4280 H   0  0  0  0  0  0  0  0  0  0  0  0
   38.4480   32.2820   43.0530 C   0  0  0  0  0  0  0  0  0  0  0  0
   37.8960   32.4980   42.1400 H   0  0  0  0  0  0  0  0  0  0  0  0
   39.7190   31.7670   42.9240 C   0  0  0  0  0  3  0  0  0  0  0  0
   40.5200   31.4520   44.0270 C   0  0  0  0  0  3  0  0  0  0  0  0
   39.9970   31.6760   45.2530 N   0  0  0  0  0  0  0  0  0  0  0  0
  1  6  1  6  0  0  0
  1  5  1  0  0  0  0
  1  2  1  0  0  0  0
  2  7  1  6  0  0  0
  2  3  1  0  0  0  0
  3  8  1  0  0  0  0
  3  9  1  0  0  0  0
  4  3  1  0  0  0  0
  5 11  1  0  0  0  0
  5  4  1  0  0  0  0
 10  5  1  0  0  0  0
 12  2  1  0  0  0  0
 14 13  2  6  0  0  0
 14 12  1  0  0  0  0
 14 17  1  0  0  0  0
 14 15  1  0  0  0  0
 15 16  1  0  0  0  0
 17 18  1  0  0  0  0
 18 20  1  0  0  0  0
 18 19  1  0  0  0  0
 21 26  1  0  0  0  0
 21 18  1  0  0  0  0
 22 21  2  0  0  0  0
 23 24  2  0  0  0  0
 23 22  1  0  0  0  0
 24 25  1  0  0  0  0
 25 29  1  0  0  0  0
 25 26  2  0  0  0  0
 27 22  1  0  0  0  0
 28 23  1  0  0  0  0
 30  1  1  0  0  0  0
 31 30  1  0  0  0  0
 32 33  1  0  0  0  0
 32 31  2  0  0  0  0
 34 32  1  0  0  0  0
 35 34  1  0  0  0  0
 36 34  2  0  0  0  0
 36 37  1  0  0  0  0
 37 38  2  0  0  0  0
 38 31  1  0  0  0  0
M  END
>  <minimizedAffinity>
-4.77033472

>  <minimizedRMSD>
0.22005637

$$$$
