
 OpenBabel03262520103D

 35 37  0  0  0  0  0  0  0  0999 V2000
   37.1080   31.5780   47.8960 Br  0  0  0  0  0  0  0  0  0  0  0  0
   36.5020   30.6990   46.3130 C   0  0  0  0  0  0  0  0  0  0  0  0
   37.2770   30.6890   45.1780 C   0  0  0  0  0  0  0  0  0  0  0  0
   36.7890   30.0430   44.0690 C   0  0  0  0  0  0  0  0  0  0  0  0
   35.5510   29.4080   44.0580 C   0  0  0  0  0  0  0  0  0  0  0  0
   34.8060   29.4420   45.2180 C   0  0  0  0  0  0  0  0  0  0  0  0
   35.2870   30.0870   46.3360 C   0  0  0  0  0  0  0  0  0  0  0  0
   37.4270   30.0520   43.1880 H   0  0  0  0  0  0  0  0  0  0  0  0
   35.2620   28.9310   43.1340 H   0  0  0  0  0  0  0  0  0  0  0  0
   33.8690   28.9210   45.0840 H   0  0  0  0  0  0  0  0  0  0  0  0
   39.8410   33.2540   44.7390 C   0  0  0  0  0  0  0  0  0  0  0  0
   41.0500   32.5900   45.0770 C   0  0  0  0  0  0  0  0  0  0  0  0
   40.9540   31.2610   45.4530 C   0  0  0  0  0  0  0  0  0  0  0  0
   39.7270   30.6560   45.4820 N   0  0  0  0  0  0  0  0  0  0  0  0
   38.5850   31.3450   45.1450 C   0  0  0  0  0  0  0  0  0  0  0  0
   38.6620   32.6330   44.7790 N   0  0  0  0  0  0  0  0  0  0  0  0
   39.9420   34.2820   44.4530 H   0  0  0  0  0  0  0  0  0  0  0  0
   42.0190   33.0550   45.0580 H   0  0  0  0  0  0  0  0  0  0  0  0
   41.8030   30.6500   45.7320 H   0  0  0  0  0  0  0  0  0  0  0  0
   34.3790   30.0470   47.5240 C   0  0  0  0  0  0  0  0  0  0  0  0
   34.8140   30.5170   48.3950 H   0  0  0  0  0  0  0  0  0  0  0  0
   33.4940   30.6830   47.2370 H   0  0  0  0  0  0  0  0  0  0  0  0
   33.8760   28.6760   47.8480 C   0  0  0  0  0  0  0  0  0  0  0  0
   33.6580   28.0220   47.0130 H   0  0  0  0  0  0  0  0  0  0  0  0
   32.8580   28.8610   48.3320 H   0  0  0  0  0  0  0  0  0  0  0  0
   34.6610   28.0850   48.8940 N   0  0  0  0  0  0  0  0  0  0  0  0
   34.5280   27.0360   48.9350 H   0  0  0  0  0  0  0  0  0  0  0  0
   35.5320   28.6760   49.8210 C   0  0  0  0  0  0  0  0  0  0  0  0
   36.8850   28.8040   49.6700 C   0  0  0  0  0  0  0  0  0  0  0  0
   37.3660   28.4500   48.7720 H   0  0  0  0  0  0  0  0  0  0  0  0
   37.7630   29.3700   50.5680 C   0  0  0  0  0  0  0  0  0  0  0  0
   38.8200   29.4470   50.3990 H   0  0  0  0  0  0  0  0  0  0  0  0
   37.2180   29.8610   51.7530 C   0  0  0  0  0  0  0  0  0  0  0  0
   35.8570   29.7310   51.9050 C   0  0  0  0  0  0  0  0  0  0  0  0
   35.0710   29.1640   50.9730 N   0  0  0  0  0  0  0  0  0  0  0  0
  2  7  1  0  0  0  0
  2  1  1  0  0  0  0
  3  2  2  0  0  0  0
  4  3  1  0  0  0  0
  5  4  2  0  0  0  0
  5  6  1  0  0  0  0
  6  7  2  0  0  0  0
  7 20  1  0  0  0  0
  8  4  1  0  0  0  0
  9  5  1  0  0  0  0
 10  6  1  0  0  0  0
 11 16  2  0  0  0  0
 11 12  1  0  0  0  0
 12 13  2  0  0  0  0
 13 14  1  0  0  0  0
 13 19  1  0  0  0  0
 15  3  1  0  0  0  0
 15 14  2  0  0  0  0
 16 15  1  0  0  0  0
 17 11  1  0  0  0  0
 18 12  1  0  0  0  0
 20 23  1  0  0  0  0
 20 21  1  0  0  0  0
 22 20  1  0  0  0  0
 23 25  1  0  0  0  0
 23 26  1  0  0  0  0
 24 23  1  0  0  0  0
 26 27  1  0  0  0  0
 26 28  1  0  0  0  0
 28 35  1  0  0  0  0
 29 28  2  0  0  0  0
 29 31  1  0  0  0  0
 30 29  1  0  0  0  0
 31 33  2  0  0  0  0
 32 31  1  0  0  0  0
 33 34  1  0  0  0  0
 35 34  2  0  0  0  0
M  END
>  <minimizedAffinity>
-4.59419537

>  <minimizedRMSD>
1.7579205

$$$$
