
 OpenBabel03272507283D

 40 42  0  0  1  0  0  0  0  0999 V2000
   34.3720   29.6000   46.8540 C   0  0  0  0  0  0  0  0  0  0  0  0
   35.3270   30.2540   46.0500 C   0  0  0  0  0  0  0  0  0  0  0  0
   35.5870   29.6910   44.7990 C   0  0  0  0  0  0  0  0  0  0  0  0
   34.9300   28.5780   44.4300 N   0  0  0  0  0  0  0  0  0  0  0  0
   34.0230   27.9810   45.2300 C   0  0  0  0  0  0  0  0  0  0  0  0
   33.7500   28.4870   46.4270 N   0  0  0  0  0  0  0  0  0  0  0  0
   36.5210   30.2680   43.9440 N   0  0  0  0  0  0  0  0  0  0  0  0
   36.8300   31.7210   43.8510 C   0  0  0  0  0  0  0  0  0  0  0  0
   37.6590   31.9320   42.6430 C   0  0  0  0  0  0  0  0  0  0  0  0
   37.4720   30.7100   41.8720 C   0  0  0  0  0  0  0  0  0  0  0  0
   37.3840   29.7040   42.9580 C   0  0  2  0  0  0  0  0  0  0  0  0
   34.2510   30.1270   47.8060 H   0  0  0  0  0  0  0  0  0  0  0  0
   35.8620   31.1490   46.3320 H   0  0  0  0  0  0  0  0  0  0  0  0
   33.4780   27.0980   44.9820 H   0  0  0  0  0  0  0  0  0  0  0  0
   35.7540   32.1130   43.6610 H   0  0  0  0  0  0  0  0  0  0  0  0
   37.0800   32.2100   44.7660 H   0  0  0  0  0  0  0  0  0  0  0  0
   36.9880   32.6930   42.0200 H   0  0  0  0  0  0  0  0  0  0  0  0
   38.5490   32.5020   42.6490 H   0  0  0  0  0  0  0  0  0  0  0  0
   36.6160   30.6800   41.1700 H   0  0  0  0  0  0  0  0  0  0  0  0
   38.3700   30.4870   41.2550 H   0  0  0  0  0  0  0  0  0  0  0  0
   36.9050   28.3650   42.3890 C   0  0  0  0  0  0  0  0  0  0  0  0
   35.5510   28.4590   42.1500 F   0  0  0  0  0  0  0  0  0  0  0  0
   37.0860   27.2860   43.2020 F   0  0  0  0  0  0  0  0  0  0  0  0
   37.5120   28.2200   41.1610 F   0  0  0  0  0  0  0  0  0  0  0  0
   38.6480   29.4360   43.5820 C   0  0  2  0  0  0  0  0  0  0  0  0
   38.6020   28.6200   44.2690 H   0  0  0  0  0  0  0  0  0  0  0  0
   39.2140   30.4950   44.6220 C   0  0  0  0  0  0  0  0  0  0  0  0
   40.1170   31.4880   44.1750 C   0  0  0  0  0  0  0  0  0  0  0  0
   40.4250   31.3820   43.1220 H   0  0  0  0  0  0  0  0  0  0  0  0
   40.6180   32.5170   44.8940 C   0  0  0  0  0  0  0  0  0  0  0  0
   41.3070   33.2200   44.4460 H   0  0  0  0  0  0  0  0  0  0  0  0
   40.1760   32.5650   46.1960 C   0  0  0  0  0  3  0  0  0  0  0  0
   39.3000   31.6130   46.6550 C   0  0  0  0  0  3  0  0  0  0  0  0
   38.8310   30.6140   45.9070 N   0  0  0  0  0  0  0  0  0  0  0  0
   39.5410   29.4910   42.6970 O   0  0  0  0  0  0  0  0  0  0  0  0
   40.6470   28.8350   42.3110 C   0  0  0  0  0  0  0  0  0  0  0  0
   40.3960   27.6830   41.9500 O   0  0  0  0  0  0  0  0  0  0  0  0
   42.0520   28.8450   42.1060 N   0  0  0  0  0  0  0  0  0  0  0  0
   42.7430   28.5400   42.8240 H   0  0  0  0  0  0  0  0  0  0  0  0
   42.3770   29.1820   41.1700 H   0  0  0  0  0  0  0  0  0  0  0  0
  1 12  1  0  0  0  0
  2 13  1  0  0  0  0
  2  1  2  0  0  0  0
  3  2  1  0  0  0  0
  4  3  2  0  0  0  0
  4  5  1  0  0  0  0
  5  6  2  0  0  0  0
  6  1  1  0  0  0  0
  7  3  1  0  0  0  0
  8  7  1  0  0  0  0
  8 16  1  0  0  0  0
  9 18  1  0  0  0  0
  9  8  1  0  0  0  0
 10  9  1  0  0  0  0
 10 11  1  0  0  0  0
 11 21  1  6  0  0  0
 11 25  1  0  0  0  0
 11  7  1  0  0  0  0
 14  5  1  0  0  0  0
 15  8  1  0  0  0  0
 17  9  1  0  0  0  0
 19 10  1  0  0  0  0
 20 10  1  0  0  0  0
 21 23  1  0  0  0  0
 22 21  1  0  0  0  0
 24 21  1  0  0  0  0
 25 26  1  1  0  0  0
 25 27  1  0  0  0  0
 27 34  1  0  0  0  0
 28 27  2  0  0  0  0
 28 30  1  0  0  0  0
 29 28  1  0  0  0  0
 30 32  2  0  0  0  0
 31 30  1  0  0  0  0
 32 33  1  0  0  0  0
 34 33  2  0  0  0  0
 35 25  1  0  0  0  0
 36 35  1  0  0  0  0
 37 36  2  0  0  0  0
 38 36  1  0  0  0  0
 38 39  1  0  0  0  0
 40 38  1  0  0  0  0
M  END
>  <minimizedAffinity>
-4.8163085

>  <minimizedRMSD>
3.0153048

$$$$
