
 OpenBabel03272506413D

 18 19  0  0  0  0  0  0  0  0999 V2000
   37.7510   30.2730   51.1540 C   0  0  0  0  0  0  0  0  0  0  0  0
   38.2500   31.1960   50.2380 C   0  0  0  0  0  0  0  0  0  0  0  0
   37.4350   31.5590   49.1510 C   0  0  0  0  0  0  0  0  0  0  0  0
   36.1990   30.9840   49.0560 N   0  0  0  0  0  0  0  0  0  0  0  0
   35.7600   30.1030   49.9590 C   0  0  0  0  0  0  0  0  0  0  0  0
   36.5200   29.7410   51.0050 N   0  0  0  0  0  0  0  0  0  0  0  0
   38.4060   30.0180   51.9760 H   0  0  0  0  0  0  0  0  0  0  0  0
   39.1990   31.6780   50.2530 H   0  0  0  0  0  0  0  0  0  0  0  0
   37.6470   32.2470   48.3520 H   0  0  0  0  0  0  0  0  0  0  0  0
   34.1420   29.3470   49.8420 S   0  0  0  0  0  0  0  0  0  0  0  0
   33.9570   28.5780   48.2230 C   0  0  0  0  0  0  0  0  0  0  0  0
   33.8280   29.3150   47.0650 C   0  0  0  0  0  0  0  0  0  0  0  0
   33.8360   30.3900   47.1110 H   0  0  0  0  0  0  0  0  0  0  0  0
   33.6910   28.5870   45.8840 C   0  0  0  0  0  0  0  0  0  0  0  0
   33.5900   29.1470   44.9620 H   0  0  0  0  0  0  0  0  0  0  0  0
   33.6940   27.1900   45.9450 C   0  0  0  0  0  3  0  0  0  0  0  0
   33.8260   26.4980   47.1280 C   0  0  0  0  0  3  0  0  0  0  0  0
   33.9580   27.2170   48.2790 N   0  0  0  0  0  0  0  0  0  0  0  0
  1  7  1  0  0  0  0
  2  8  1  0  0  0  0
  2  1  2  0  0  0  0
  3  2  1  0  0  0  0
  4  3  2  0  0  0  0
  4  5  1  0  0  0  0
  5  6  2  0  0  0  0
  6  1  1  0  0  0  0
  9  3  1  0  0  0  0
 10  5  1  0  0  0  0
 11 18  1  0  0  0  0
 11 10  1  0  0  0  0
 12 13  1  0  0  0  0
 12 11  2  0  0  0  0
 14 16  2  0  0  0  0
 14 12  1  0  0  0  0
 15 14  1  0  0  0  0
 16 17  1  0  0  0  0
 17 18  2  0  0  0  0
M  END
>  <minimizedAffinity>
-3.77069116

>  <minimizedRMSD>
2.78798532

$$$$
