
 OpenBabel03272507283D

 40 42  0  0  1  0  0  0  0  0999 V2000
   34.3970   29.6210   46.8270 C   0  0  0  0  0  0  0  0  0  0  0  0
   35.3100   30.2490   45.9560 C   0  0  0  0  0  0  0  0  0  0  0  0
   35.5100   29.6480   44.7120 C   0  0  0  0  0  0  0  0  0  0  0  0
   34.8370   28.5240   44.4110 N   0  0  0  0  0  0  0  0  0  0  0  0
   33.9710   27.9520   45.2730 C   0  0  0  0  0  0  0  0  0  0  0  0
   33.7560   28.4960   46.4650 N   0  0  0  0  0  0  0  0  0  0  0  0
   36.3990   30.1970   43.7940 N   0  0  0  0  0  0  0  0  0  0  0  0
   36.7020   31.6460   43.6420 C   0  0  0  0  0  0  0  0  0  0  0  0
   37.4700   31.8200   42.3880 C   0  0  0  0  0  0  0  0  0  0  0  0
   37.2460   30.5740   41.6660 C   0  0  0  0  0  0  0  0  0  0  0  0
   37.2130   29.6020   42.7850 C   0  0  2  0  0  0  0  0  0  0  0  0
   34.3220   30.1770   47.7670 H   0  0  0  0  0  0  0  0  0  0  0  0
   35.8580   31.1520   46.1840 H   0  0  0  0  0  0  0  0  0  0  0  0
   33.4150   27.0620   45.0790 H   0  0  0  0  0  0  0  0  0  0  0  0
   35.6180   32.0330   43.4930 H   0  0  0  0  0  0  0  0  0  0  0  0
   36.9970   32.1630   44.5270 H   0  0  0  0  0  0  0  0  0  0  0  0
   36.7680   32.5610   41.7760 H   0  0  0  0  0  0  0  0  0  0  0  0
   38.3590   32.3890   42.3330 H   0  0  0  0  0  0  0  0  0  0  0  0
   36.3580   30.5230   41.0080 H   0  0  0  0  0  0  0  0  0  0  0  0
   38.1140   30.3320   41.0130 H   0  0  0  0  0  0  0  0  0  0  0  0
   36.7090   28.2460   42.2830 C   0  0  0  0  0  0  0  0  0  0  0  0
   35.3640   28.3650   42.0030 F   0  0  0  0  0  0  0  0  0  0  0  0
   36.8380   27.2130   43.1610 F   0  0  0  0  0  0  0  0  0  0  0  0
   37.3410   28.0130   41.0810 F   0  0  0  0  0  0  0  0  0  0  0  0
   38.5070   29.3530   43.3550 C   0  0  2  0  0  0  0  0  0  0  0  0
   38.4800   28.6220   44.1320 H   0  0  0  0  0  0  0  0  0  0  0  0
   39.1790   30.4980   44.2270 C   0  0  0  0  0  0  0  0  0  0  0  0
   38.9420   30.5340   45.6200 C   0  0  0  0  0  0  0  0  0  0  0  0
   38.2140   29.7860   45.9780 H   0  0  0  0  0  0  0  0  0  0  0  0
   39.5030   31.3710   46.5220 C   0  0  0  0  0  0  0  0  0  0  0  0
   39.2440   31.3070   47.5690 H   0  0  0  0  0  0  0  0  0  0  0  0
   40.3940   32.2670   45.9810 C   0  0  0  0  0  3  0  0  0  0  0  0
   40.6430   32.2530   44.6310 C   0  0  0  0  0  3  0  0  0  0  0  0
   40.0650   31.4070   43.7790 N   0  0  0  0  0  0  0  0  0  0  0  0
   39.3390   29.2700   42.4140 O   0  0  0  0  0  0  0  0  0  0  0  0
   40.5600   28.7720   42.1630 C   0  0  0  0  0  0  0  0  0  0  0  0
   40.5040   27.7220   41.5190 O   0  0  0  0  0  0  0  0  0  0  0  0
   41.9680   28.8940   42.2930 N   0  0  0  0  0  0  0  0  0  0  0  0
   42.5170   28.4660   43.0700 H   0  0  0  0  0  0  0  0  0  0  0  0
   42.4520   29.4500   41.5510 H   0  0  0  0  0  0  0  0  0  0  0  0
  1 12  1  0  0  0  0
  2 13  1  0  0  0  0
  2  1  2  0  0  0  0
  3  2  1  0  0  0  0
  4  3  2  0  0  0  0
  4  5  1  0  0  0  0
  5  6  2  0  0  0  0
  6  1  1  0  0  0  0
  7  3  1  0  0  0  0
  8  7  1  0  0  0  0
  8 16  1  0  0  0  0
  9  8  1  0  0  0  0
 10  9  1  0  0  0  0
 10 11  1  0  0  0  0
 11 21  1  6  0  0  0
 11 25  1  0  0  0  0
 11  7  1  0  0  0  0
 14  5  1  0  0  0  0
 15  8  1  0  0  0  0
 17  9  1  0  0  0  0
 18  9  1  0  0  0  0
 19 10  1  0  0  0  0
 20 10  1  0  0  0  0
 21 23  1  0  0  0  0
 22 21  1  0  0  0  0
 24 21  1  0  0  0  0
 25 26  1  1  0  0  0
 25 27  1  0  0  0  0
 27 28  1  0  0  0  0
 28 29  1  0  0  0  0
 28 30  2  0  0  0  0
 30 31  1  0  0  0  0
 32 30  1  0  0  0  0
 33 32  2  0  0  0  0
 34 27  2  0  0  0  0
 34 33  1  0  0  0  0
 35 25  1  0  0  0  0
 36 38  1  0  0  0  0
 36 35  1  0  0  0  0
 37 36  2  0  0  0  0
 38 39  1  0  0  0  0
 40 38  1  0  0  0  0
M  END
>  <minimizedAffinity>
-4.69293499

>  <minimizedRMSD>
3.18993425

$$$$
