
 OpenBabel03262522203D

 18 19  0  0  0  0  0  0  0  0999 V2000
   37.4710   23.9140   32.7170 C   0  0  0  0  0  0  0  0  0  0  0  0
   37.9920   23.1650   33.7860 C   0  0  0  0  0  0  0  0  0  0  0  0
   37.4900   21.8870   33.9780 C   0  0  0  0  0  0  0  0  0  0  0  0
   36.5340   21.4320   33.1330 N   0  0  0  0  0  0  0  0  0  0  0  0
   36.0590   22.1690   32.1250 C   0  0  0  0  0  0  0  0  0  0  0  0
   36.5180   23.4280   31.8960 N   0  0  0  0  0  0  0  0  0  0  0  0
   37.7570   24.9270   32.4360 H   0  0  0  0  0  0  0  0  0  0  0  0
   37.9240   21.3550   34.8130 H   0  0  0  0  0  0  0  0  0  0  0  0
   35.2990   21.6800   31.5320 H   0  0  0  0  0  0  0  0  0  0  0  0
   38.9550   23.8190   34.5190 O   0  0  0  0  0  0  0  0  0  0  0  0
   38.8140   23.7750   35.9190 C   0  0  0  0  0  0  0  0  0  0  0  0
   37.8790   24.3920   36.7050 C   0  0  0  0  0  0  0  0  0  0  0  0
   37.1670   24.9870   36.1320 H   0  0  0  0  0  0  0  0  0  0  0  0
   37.9110   24.2220   38.0570 C   0  0  0  0  0  0  0  0  0  0  0  0
   37.1610   24.7230   38.6360 H   0  0  0  0  0  0  0  0  0  0  0  0
   38.8960   23.4250   38.5990 C   0  0  0  0  0  3  0  0  0  0  0  0
   39.8370   22.8060   37.7990 C   0  0  0  0  0  3  0  0  0  0  0  0
   39.7580   23.0080   36.4640 N   0  0  0  0  0  0  0  0  0  0  0  0
  1  2  1  0  0  0  0
  2  3  2  0  0  0  0
  2 10  1  0  0  0  0
  3  8  1  0  0  0  0
  4  3  1  0  0  0  0
  5  4  2  0  0  0  0
  6  5  1  0  0  0  0
  6  1  2  0  0  0  0
  7  1  1  0  0  0  0
  9  5  1  0  0  0  0
 10 11  1  0  0  0  0
 11 18  2  0  0  0  0
 11 12  1  0  0  0  0
 12 14  2  0  0  0  0
 13 12  1  0  0  0  0
 14 16  1  0  0  0  0
 14 15  1  0  0  0  0
 17 16  2  0  0  0  0
 18 17  1  0  0  0  0
M  END
>  <minimizedAffinity>
-3.81042767

$$$$

 OpenBabel03262522203D

 18 19  0  0  0  0  0  0  0  0999 V2000
   37.9610   23.6850   33.1820 C   0  0  0  0  0  0  0  0  0  0  0  0
   38.3280   24.9220   33.7400 C   0  0  0  0  0  0  0  0  0  0  0  0
   37.6150   26.0410   33.3430 C   0  0  0  0  0  0  0  0  0  0  0  0
   36.6110   25.8880   32.4460 N   0  0  0  0  0  0  0  0  0  0  0  0
   36.2850   24.6980   31.9330 C   0  0  0  0  0  0  0  0  0  0  0  0
   36.9550   23.5700   32.2910 N   0  0  0  0  0  0  0  0  0  0  0  0
   38.4190   22.7190   33.3880 H   0  0  0  0  0  0  0  0  0  0  0  0
   37.9390   26.9650   33.8010 H   0  0  0  0  0  0  0  0  0  0  0  0
   35.4660   24.7230   31.2300 H   0  0  0  0  0  0  0  0  0  0  0  0
   39.3760   24.8510   34.6300 O   0  0  0  0  0  0  0  0  0  0  0  0
   39.0620   24.4140   35.9310 C   0  0  0  0  0  0  0  0  0  0  0  0
   38.0750   24.8560   36.7680 C   0  0  0  0  0  0  0  0  0  0  0  0
   37.4730   25.6550   36.3320 H   0  0  0  0  0  0  0  0  0  0  0  0
   37.9320   24.2980   38.0030 C   0  0  0  0  0  0  0  0  0  0  0  0
   37.1460   24.6750   38.6280 H   0  0  0  0  0  0  0  0  0  0  0  0
   38.7960   23.2920   38.3770 C   0  0  0  0  0  3  0  0  0  0  0  0
   39.7910   22.8500   37.5260 C   0  0  0  0  0  3  0  0  0  0  0  0
   39.8880   23.4390   36.3120 N   0  0  0  0  0  0  0  0  0  0  0  0
  1  7  1  0  0  0  0
  1  2  1  0  0  0  0
  2 10  1  0  0  0  0
  3  2  2  0  0  0  0
  3  8  1  0  0  0  0
  4  3  1  0  0  0  0
  5  6  1  0  0  0  0
  5  4  2  0  0  0  0
  6  1  2  0  0  0  0
  9  5  1  0  0  0  0
 10 11  1  0  0  0  0
 11 18  2  0  0  0  0
 11 12  1  0  0  0  0
 12 14  2  0  0  0  0
 13 12  1  0  0  0  0
 14 16  1  0  0  0  0
 14 15  1  0  0  0  0
 17 16  2  0  0  0  0
 18 17  1  0  0  0  0
M  END
>  <minimizedAffinity>
-3.79476047

$$$$

 OpenBabel03262522203D

 18 19  0  0  0  0  0  0  0  0999 V2000
   37.7030   25.1440   30.9790 C   0  0  0  0  0  0  0  0  0  0  0  0
   36.6480   24.2170   30.9270 C   0  0  0  0  0  0  0  0  0  0  0  0
   35.3560   24.7120   31.0060 C   0  0  0  0  0  0  0  0  0  0  0  0
   35.1790   26.0490   31.1290 N   0  0  0  0  0  0  0  0  0  0  0  0
   36.2030   26.9060   31.1750 C   0  0  0  0  0  0  0  0  0  0  0  0
   37.4890   26.4700   31.1020 N   0  0  0  0  0  0  0  0  0  0  0  0
   38.7670   24.9180   30.9300 H   0  0  0  0  0  0  0  0  0  0  0  0
   34.5830   23.9580   30.9620 H   0  0  0  0  0  0  0  0  0  0  0  0
   35.9170   27.9420   31.2750 H   0  0  0  0  0  0  0  0  0  0  0  0
   37.0520   22.9080   30.8010 O   0  0  0  0  0  0  0  0  0  0  0  0
   36.4390   21.9790   31.6640 C   0  0  0  0  0  0  0  0  0  0  0  0
   35.4290   21.0970   31.3950 C   0  0  0  0  0  0  0  0  0  0  0  0
   35.0790   21.1520   30.3630 H   0  0  0  0  0  0  0  0  0  0  0  0
   34.9700   20.2710   32.3770 C   0  0  0  0  0  0  0  0  0  0  0  0
   34.1770   19.5950   32.1240 H   0  0  0  0  0  0  0  0  0  0  0  0
   35.5440   20.3500   33.6280 C   0  0  0  0  0  3  0  0  0  0  0  0
   36.5640   21.2430   33.8920 C   0  0  0  0  0  3  0  0  0  0  0  0
   36.9810   22.0390   32.8810 N   0  0  0  0  0  0  0  0  0  0  0  0
  1  6  1  0  0  0  0
  2  1  2  0  0  0  0
  2  3  1  0  0  0  0
  3  4  2  0  0  0  0
  4  5  1  0  0  0  0
  5  9  1  0  0  0  0
  6  5  2  0  0  0  0
  7  1  1  0  0  0  0
  8  3  1  0  0  0  0
 10  2  1  0  0  0  0
 10 11  1  0  0  0  0
 11 18  1  0  0  0  0
 12 11  2  0  0  0  0
 12 14  1  0  0  0  0
 13 12  1  0  0  0  0
 14 16  2  0  0  0  0
 15 14  1  0  0  0  0
 16 17  1  0  0  0  0
 18 17  2  0  0  0  0
M  END
>  <minimizedAffinity>
-3.73078489

$$$$

 OpenBabel03262522203D

 18 19  0  0  0  0  0  0  0  0999 V2000
   38.0070   25.1190   35.4990 C   0  0  0  0  0  0  0  0  0  0  0  0
   38.2190   24.1960   34.4600 C   0  0  0  0  0  0  0  0  0  0  0  0
   38.2410   22.8520   34.7920 C   0  0  0  0  0  0  0  0  0  0  0  0
   38.0610   22.5000   36.0880 N   0  0  0  0  0  0  0  0  0  0  0  0
   37.8620   23.4010   37.0540 C   0  0  0  0  0  0  0  0  0  0  0  0
   37.8320   24.7320   36.7790 N   0  0  0  0  0  0  0  0  0  0  0  0
   37.9630   26.2030   35.4040 H   0  0  0  0  0  0  0  0  0  0  0  0
   38.4080   22.1860   33.9570 H   0  0  0  0  0  0  0  0  0  0  0  0
   37.7340   22.9800   38.0400 H   0  0  0  0  0  0  0  0  0  0  0  0
   38.3790   24.7700   33.2190 O   0  0  0  0  0  0  0  0  0  0  0  0
   37.2250   24.8530   32.4160 C   0  0  0  0  0  0  0  0  0  0  0  0
   36.4770   23.8390   31.8830 C   0  0  0  0  0  0  0  0  0  0  0  0
   36.8590   22.8500   32.1380 H   0  0  0  0  0  0  0  0  0  0  0  0
   35.3830   24.1300   31.1240 C   0  0  0  0  0  0  0  0  0  0  0  0
   34.8250   23.3060   30.7260 H   0  0  0  0  0  0  0  0  0  0  0  0
   35.0580   25.4520   30.9130 C   0  0  0  0  0  3  0  0  0  0  0  0
   35.8190   26.4710   31.4550 C   0  0  0  0  0  3  0  0  0  0  0  0
   36.8930   26.1260   32.2000 N   0  0  0  0  0  0  0  0  0  0  0  0
  1  6  1  0  0  0  0
  2  3  1  0  0  0  0
  2  1  2  0  0  0  0
  3  4  2  0  0  0  0
  4  5  1  0  0  0  0
  5  9  1  0  0  0  0
  6  5  2  0  0  0  0
  7  1  1  0  0  0  0
  8  3  1  0  0  0  0
 10  2  1  0  0  0  0
 11 10  1  0  0  0  0
 12 13  1  0  0  0  0
 12 11  2  0  0  0  0
 14 12  1  0  0  0  0
 15 14  1  0  0  0  0
 16 14  2  0  0  0  0
 16 17  1  0  0  0  0
 17 18  2  0  0  0  0
 18 11  1  0  0  0  0
M  END
>  <minimizedAffinity>
-3.7186501

$$$$

 OpenBabel03262522203D

 18 19  0  0  0  0  0  0  0  0999 V2000
   37.6420   25.5680   33.2160 C   0  0  0  0  0  0  0  0  0  0  0  0
   38.3590   24.5020   33.7880 C   0  0  0  0  0  0  0  0  0  0  0  0
   38.0400   23.2190   33.3730 C   0  0  0  0  0  0  0  0  0  0  0  0
   37.0640   23.0600   32.4470 N   0  0  0  0  0  0  0  0  0  0  0  0
   36.4010   24.0930   31.9210 C   0  0  0  0  0  0  0  0  0  0  0  0
   36.6760   25.3700   32.2960 N   0  0  0  0  0  0  0  0  0  0  0  0
   37.7710   26.6270   33.4340 H   0  0  0  0  0  0  0  0  0  0  0  0
   38.6200   22.4380   33.8450 H   0  0  0  0  0  0  0  0  0  0  0  0
   35.6500   23.8200   31.1940 H   0  0  0  0  0  0  0  0  0  0  0  0
   39.3050   24.8890   34.7090 O   0  0  0  0  0  0  0  0  0  0  0  0
   39.2490   24.2570   35.9670 C   0  0  0  0  0  0  0  0  0  0  0  0
   40.0720   23.2910   36.4770 C   0  0  0  0  0  0  0  0  0  0  0  0
   40.8640   22.9990   35.7870 H   0  0  0  0  0  0  0  0  0  0  0  0
   39.8480   22.8020   37.7300 C   0  0  0  0  0  0  0  0  0  0  0  0
   40.5160   22.0460   38.0920 H   0  0  0  0  0  0  0  0  0  0  0  0
   38.7880   23.3020   38.4540 C   0  0  0  0  0  3  0  0  0  0  0  0
   37.9610   24.2780   37.9310 C   0  0  0  0  0  3  0  0  0  0  0  0
   38.2280   24.7270   36.6840 N   0  0  0  0  0  0  0  0  0  0  0  0
  1  7  1  0  0  0  0
  1  2  1  0  0  0  0
  2 10  1  0  0  0  0
  3  2  2  0  0  0  0
  3  8  1  0  0  0  0
  4  3  1  0  0  0  0
  5  6  1  0  0  0  0
  5  4  2  0  0  0  0
  6  1  2  0  0  0  0
  9  5  1  0  0  0  0
 10 11  1  0  0  0  0
 11 12  2  0  0  0  0
 11 18  1  0  0  0  0
 12 14  1  0  0  0  0
 13 12  1  0  0  0  0
 14 15  1  0  0  0  0
 14 16  2  0  0  0  0
 17 16  1  0  0  0  0
 18 17  2  0  0  0  0
M  END
>  <minimizedAffinity>
-3.68303776

$$$$

 OpenBabel03262522203D

 18 19  0  0  0  0  0  0  0  0999 V2000
   39.6620   22.6930   36.4760 C   0  0  0  0  0  0  0  0  0  0  0  0
   38.6980   23.4050   35.7410 C   0  0  0  0  0  0  0  0  0  0  0  0
   37.7720   24.1500   36.4520 C   0  0  0  0  0  0  0  0  0  0  0  0
   37.8430   24.1540   37.8050 N   0  0  0  0  0  0  0  0  0  0  0  0
   38.7720   23.4680   38.4760 C   0  0  0  0  0  0  0  0  0  0  0  0
   39.7020   22.7210   37.8230 N   0  0  0  0  0  0  0  0  0  0  0  0
   40.4540   22.0650   36.0690 H   0  0  0  0  0  0  0  0  0  0  0  0
   37.0530   24.6760   35.8400 H   0  0  0  0  0  0  0  0  0  0  0  0
   38.7100   23.5610   39.5500 H   0  0  0  0  0  0  0  0  0  0  0  0
   38.8080   23.2600   34.3770 O   0  0  0  0  0  0  0  0  0  0  0  0
   37.7170   22.6570   33.7230 C   0  0  0  0  0  0  0  0  0  0  0  0
   37.0640   21.4970   34.0390 C   0  0  0  0  0  0  0  0  0  0  0  0
   37.4740   21.0050   34.9210 H   0  0  0  0  0  0  0  0  0  0  0  0
   36.0180   21.0770   33.2720 C   0  0  0  0  0  0  0  0  0  0  0  0
   35.5340   20.1620   33.5540 H   0  0  0  0  0  0  0  0  0  0  0  0
   35.6450   21.8420   32.1880 C   0  0  0  0  0  3  0  0  0  0  0  0
   36.3090   23.0120   31.8750 C   0  0  0  0  0  3  0  0  0  0  0  0
   37.3400   23.3820   32.6690 N   0  0  0  0  0  0  0  0  0  0  0  0
  1  6  1  0  0  0  0
  2  3  1  0  0  0  0
  2  1  2  0  0  0  0
  3  4  2  0  0  0  0
  4  5  1  0  0  0  0
  5  9  1  0  0  0  0
  6  5  2  0  0  0  0
  7  1  1  0  0  0  0
  8  3  1  0  0  0  0
 10  2  1  0  0  0  0
 11 12  1  0  0  0  0
 11 10  1  0  0  0  0
 12 13  1  0  0  0  0
 14 15  1  0  0  0  0
 14 12  2  0  0  0  0
 16 14  1  0  0  0  0
 17 16  2  0  0  0  0
 17 18  1  0  0  0  0
 18 11  2  0  0  0  0
M  END
>  <minimizedAffinity>
-3.68160653

$$$$

 OpenBabel03262522203D

 18 19  0  0  0  0  0  0  0  0999 V2000
   37.7350   21.8790   33.9760 C   0  0  0  0  0  0  0  0  0  0  0  0
   37.7230   22.0010   35.3760 C   0  0  0  0  0  0  0  0  0  0  0  0
   36.6400   21.4680   36.0570 C   0  0  0  0  0  0  0  0  0  0  0  0
   35.6590   20.8630   35.3440 N   0  0  0  0  0  0  0  0  0  0  0  0
   35.6990   20.7620   34.0130 C   0  0  0  0  0  0  0  0  0  0  0  0
   36.7400   21.2690   33.3000 N   0  0  0  0  0  0  0  0  0  0  0  0
   38.5080   22.2420   33.3000 H   0  0  0  0  0  0  0  0  0  0  0  0
   36.6800   21.5910   37.1300 H   0  0  0  0  0  0  0  0  0  0  0  0
   34.8510   20.2550   33.5760 H   0  0  0  0  0  0  0  0  0  0  0  0
   38.8180   22.6530   35.8960 O   0  0  0  0  0  0  0  0  0  0  0  0
   38.8290   24.0550   35.7700 C   0  0  0  0  0  0  0  0  0  0  0  0
   37.9180   24.9640   36.2340 C   0  0  0  0  0  0  0  0  0  0  0  0
   37.0870   24.4990   36.7670 H   0  0  0  0  0  0  0  0  0  0  0  0
   38.1100   26.2940   36.0070 C   0  0  0  0  0  0  0  0  0  0  0  0
   37.3720   26.9720   36.3880 H   0  0  0  0  0  0  0  0  0  0  0  0
   39.2310   26.6890   35.3090 C   0  0  0  0  0  3  0  0  0  0  0  0
   40.1470   25.7650   34.8430 C   0  0  0  0  0  3  0  0  0  0  0  0
   39.9060   24.4590   35.0960 N   0  0  0  0  0  0  0  0  0  0  0  0
  1  2  1  0  0  0  0
  2 10  1  0  0  0  0
  2  3  2  0  0  0  0
  3  8  1  0  0  0  0
  4  3  1  0  0  0  0
  5  4  2  0  0  0  0
  6  1  2  0  0  0  0
  6  5  1  0  0  0  0
  7  1  1  0  0  0  0
  9  5  1  0  0  0  0
 11 10  1  0  0  0  0
 11 12  1  0  0  0  0
 12 13  1  0  0  0  0
 14 12  2  0  0  0  0
 14 15  1  0  0  0  0
 16 14  1  0  0  0  0
 17 18  1  0  0  0  0
 17 16  2  0  0  0  0
 18 11  2  0  0  0  0
M  END
>  <minimizedAffinity>
-3.67095447

$$$$

 OpenBabel03262522203D

 18 19  0  0  0  0  0  0  0  0999 V2000
   38.7370   24.0620   36.0150 C   0  0  0  0  0  0  0  0  0  0  0  0
   39.8010   23.2750   36.4880 C   0  0  0  0  0  0  0  0  0  0  0  0
   39.7570   22.8650   37.8110 C   0  0  0  0  0  0  0  0  0  0  0  0
   38.7010   23.2400   38.5720 N   0  0  0  0  0  0  0  0  0  0  0  0
   37.7030   23.9890   38.0940 C   0  0  0  0  0  0  0  0  0  0  0  0
   37.7010   24.4160   36.8030 N   0  0  0  0  0  0  0  0  0  0  0  0
   38.6230   24.4620   35.0090 H   0  0  0  0  0  0  0  0  0  0  0  0
   40.5990   22.2640   38.1230 H   0  0  0  0  0  0  0  0  0  0  0  0
   36.9270   24.2120   38.8110 H   0  0  0  0  0  0  0  0  0  0  0  0
   40.7700   23.0120   35.5470 O   0  0  0  0  0  0  0  0  0  0  0  0
   41.9840   23.7130   35.6860 C   0  0  0  0  0  0  0  0  0  0  0  0
   43.0510   23.4250   36.4920 C   0  0  0  0  0  0  0  0  0  0  0  0
   42.9030   22.5250   37.0900 H   0  0  0  0  0  0  0  0  0  0  0  0
   44.1470   24.2360   36.4820 C   0  0  0  0  0  0  0  0  0  0  0  0
   44.9610   23.9750   37.1280 H   0  0  0  0  0  0  0  0  0  0  0  0
   44.1460   25.3360   35.6510 C   0  0  0  0  0  3  0  0  0  0  0  0
   43.0640   25.6200   34.8410 C   0  0  0  0  0  3  0  0  0  0  0  0
   42.0040   24.7820   34.8900 N   0  0  0  0  0  0  0  0  0  0  0  0
  1  2  2  0  0  0  0
  1  6  1  0  0  0  0
  2  3  1  0  0  0  0
  3  8  1  0  0  0  0
  3  4  2  0  0  0  0
  5  4  1  0  0  0  0
  5  9  1  0  0  0  0
  6  5  2  0  0  0  0
  7  1  1  0  0  0  0
 10 11  1  0  0  0  0
 10  2  1  0  0  0  0
 11 12  1  0  0  0  0
 12 13  1  0  0  0  0
 14 12  2  0  0  0  0
 14 15  1  0  0  0  0
 16 14  1  0  0  0  0
 17 18  1  0  0  0  0
 17 16  2  0  0  0  0
 18 11  2  0  0  0  0
M  END
>  <minimizedAffinity>
-3.65499353

$$$$

 OpenBabel03262522203D

 18 19  0  0  0  0  0  0  0  0999 V2000
   35.7460   26.2630   31.1330 C   0  0  0  0  0  0  0  0  0  0  0  0
   37.0500   25.9530   31.5550 C   0  0  0  0  0  0  0  0  0  0  0  0
   37.4100   24.6160   31.5960 C   0  0  0  0  0  0  0  0  0  0  0  0
   36.4950   23.6860   31.2310 N   0  0  0  0  0  0  0  0  0  0  0  0
   35.2620   24.0110   30.8330 C   0  0  0  0  0  0  0  0  0  0  0  0
   34.8620   25.3090   30.7760 N   0  0  0  0  0  0  0  0  0  0  0  0
   35.3120   27.2570   31.0470 H   0  0  0  0  0  0  0  0  0  0  0  0
   38.4220   24.4330   31.9280 H   0  0  0  0  0  0  0  0  0  0  0  0
   34.6390   23.1690   30.5720 H   0  0  0  0  0  0  0  0  0  0  0  0
   37.8140   27.0500   31.8810 O   0  0  0  0  0  0  0  0  0  0  0  0
   38.3420   27.0800   33.1860 C   0  0  0  0  0  0  0  0  0  0  0  0
   39.6230   26.8360   33.5970 C   0  0  0  0  0  0  0  0  0  0  0  0
   40.2940   26.5880   32.7740 H   0  0  0  0  0  0  0  0  0  0  0  0
   39.9380   26.9170   34.9210 C   0  0  0  0  0  0  0  0  0  0  0  0
   40.9530   26.7170   35.2010 H   0  0  0  0  0  0  0  0  0  0  0  0
   38.9440   27.2470   35.8170 C   0  0  0  0  0  3  0  0  0  0  0  0
   37.6510   27.4930   35.3930 C   0  0  0  0  0  3  0  0  0  0  0  0
   37.3950   27.3980   34.0690 N   0  0  0  0  0  0  0  0  0  0  0  0
  1  2  1  0  0  0  0
  2  3  2  0  0  0  0
  2 10  1  0  0  0  0
  3  8  1  0  0  0  0
  4  3  1  0  0  0  0
  5  4  2  0  0  0  0
  6  5  1  0  0  0  0
  6  1  2  0  0  0  0
  7  1  1  0  0  0  0
  9  5  1  0  0  0  0
 10 11  1  0  0  0  0
 11 12  2  0  0  0  0
 11 18  1  0  0  0  0
 12 14  1  0  0  0  0
 13 12  1  0  0  0  0
 14 15  1  0  0  0  0
 14 16  2  0  0  0  0
 17 16  1  0  0  0  0
 18 17  2  0  0  0  0
M  END
>  <minimizedAffinity>
-3.64879513

$$$$
