REMARK  Name = 
REMARK  4 active torsions:
REMARK  status: ('A' for Active; 'I' for Inactive)
REMARK    1  A    between atoms: C_1  and  C_8
REMARK    2  A    between atoms: N_4  and  C_12
REMARK    3  A    between atoms: C_12  and  C_13
REMARK    4  A    between atoms: C_13  and  C_23
REMARK                            x       y       z     vdW  Elec       q    Type
REMARK                         _______ _______ _______ _____ _____    ______ ____
ROOT
ATOM      1  C   UNL     1      39.958  33.345  44.503  0.00  0.00    +0.000 C 
ATOM      2  H   UNL     1      38.942  33.761  44.253  0.00  0.00    +0.000 HD
ATOM      3  H   UNL     1      40.012  32.337  44.072  0.00  0.00    +0.000 HD
ENDROOT
BRANCH   1   4
ATOM      4  C   UNL     1      40.931  34.269  43.902  0.00  0.00    +0.000 A 
ATOM      5  C   UNL     1      42.221  34.294  44.389  0.00  0.00    +0.000 A 
ATOM      6  H   UNL     1      42.490  33.633  45.202  0.00  0.00    +0.000 HD
ATOM      7  C   UNL     1      43.145  35.156  43.835  0.00  0.00    +0.000 A 
ATOM      8  H   UNL     1      44.149  35.108  44.286  0.00  0.00    +0.000 HD
ATOM      9  C   UNL     1      42.873  36.024  42.800  0.00  0.00    +0.000 A 
ATOM     10  C   UNL     1      41.583  35.982  42.332  0.00  0.00    +0.000 A 
ATOM     11  C   UNL     1      40.672  35.143  42.866  0.00  0.00    +0.000 A 
ATOM     12  H   UNL     1      39.644  35.131  42.469  0.00  0.00    +0.000 HD
ATOM     13  S   UNL     1      41.131  37.066  40.994  0.00  0.00    +0.000 S 
ATOM     14  C   UNL     1      42.592  37.988  40.589  0.00  0.00    +0.000 A 
ATOM     15  C   UNL     1      42.552  38.915  39.583  0.00  0.00    +0.000 A 
ATOM     16  H   UNL     1      41.615  39.085  39.029  0.00  0.00    +0.000 HD
ATOM     17  C   UNL     1      43.634  39.676  39.200  0.00  0.00    +0.000 A 
ATOM     18  H   UNL     1      43.662  40.419  38.419  0.00  0.00    +0.000 HD
ATOM     19  C   UNL     1      44.808  39.465  39.894  0.00  0.00    +0.000 A 
ATOM     20  H   UNL     1      45.693  40.032  39.639  0.00  0.00    +0.000 HD
ATOM     21  C   UNL     1      44.827  38.525  40.904  0.00  0.00    +0.000 A 
ATOM     22  H   UNL     1      45.798  38.415  41.408  0.00  0.00    +0.000 HD
ATOM     23  C   UNL     1      43.747  37.762  41.291  0.00  0.00    +0.000 A 
ATOM     24  N   UNL     1      43.930  36.846  42.342  0.00  0.00    +0.000 N 
ATOM     25  H   UNL     1      44.864  36.770  42.794  0.00  0.00    +0.000 HD
ENDBRANCH   1   4
BRANCH   1  26
ATOM     26  C   UNL     1      40.046  33.386  46.006  0.00  0.00    +0.000 C 
ATOM     27  H   UNL     1      41.078  33.125  46.322  0.00  0.00    +0.000 HD
ATOM     28  H   UNL     1      39.766  34.389  46.349  0.00  0.00    +0.000 HD
BRANCH  26  32
ATOM     29  C   UNL     1      37.909  31.263  47.992  0.00  0.00    +0.000 A 
ATOM     30  C   UNL     1      37.436  31.013  46.734  0.00  0.00    +0.000 A 
ATOM     31  C   UNL     1      38.176  31.775  45.833  0.00  0.00    +0.000 A 
ATOM     32  N   UNL     1      39.072  32.461  46.584  0.00  0.00    +0.000 N 
ATOM     33  N   UNL     1      38.911  32.155  47.870  0.00  0.00    +0.000 NA
ATOM     34  H   UNL     1      36.633  30.357  46.380  0.00  0.00    +0.000 HD
ATOM     35  H   UNL     1      38.078  31.828  44.753  0.00  0.00    +0.000 HD
BRANCH  29  38
ATOM     36  C   UNL     1      37.354  30.042  51.497  0.00  0.00    +0.000 A 
ATOM     37  C   UNL     1      37.977  30.688  50.439  0.00  0.00    +0.000 A 
ATOM     38  C   UNL     1      37.359  30.631  49.176  0.00  0.00    +0.000 A 
ATOM     39  N   UNL     1      36.185  29.941  49.081  0.00  0.00    +0.000 NA
ATOM     40  C   UNL     1      35.607  29.324  50.139  0.00  0.00    +0.000 A 
ATOM     41  N   UNL     1      36.194  29.377  51.340  0.00  0.00    +0.000 NA
ATOM     42  H   UNL     1      37.886  30.128  52.438  0.00  0.00    +0.000 HD
ATOM     43  H   UNL     1      38.904  31.228  50.531  0.00  0.00    +0.000 HD
ATOM     44  H   UNL     1      34.679  28.807  49.950  0.00  0.00    +0.000 HD
ENDBRANCH  29  38
ENDBRANCH  26  32
ENDBRANCH   1  26
TORSDOF 4
