
 OpenBabel03272508343D

 44 48  0  0  0  0  0  0  0  0999 V2000
   40.9750   36.9000   42.2030 C   0  0  0  0  0  0  0  0  0  0  0  0
   40.3790   37.7470   42.6430 H   0  0  0  0  0  0  0  0  0  0  0  0
   40.4660   36.5890   41.2810 H   0  0  0  0  0  0  0  0  0  0  0  0
   42.3190   37.4390   41.9510 C   0  0  0  0  0  0  0  0  0  0  0  0
   43.1290   37.7450   43.0240 C   0  0  0  0  0  0  0  0  0  0  0  0
   42.7610   37.5820   44.0270 H   0  0  0  0  0  0  0  0  0  0  0  0
   44.3940   38.2530   42.8040 C   0  0  0  0  0  0  0  0  0  0  0  0
   44.9700   38.4680   43.7170 H   0  0  0  0  0  0  0  0  0  0  0  0
   44.9290   38.4880   41.5550 C   0  0  0  0  0  0  0  0  0  0  0  0
   44.1040   38.1760   40.5040 C   0  0  0  0  0  0  0  0  0  0  0  0
   42.8670   37.6780   40.7070 C   0  0  0  0  0  0  0  0  0  0  0  0
   42.2270   37.4380   39.8430 H   0  0  0  0  0  0  0  0  0  0  0  0
   44.7030   38.4420   38.8490 S   0  0  0  0  0  0  0  0  0  0  0  0
   46.3450   39.0950   39.0160 C   0  0  0  0  0  0  0  0  0  0  0  0
   47.0710   39.4020   37.8970 C   0  0  0  0  0  0  0  0  0  0  0  0
   46.6340   39.2450   36.8990 H   0  0  0  0  0  0  0  0  0  0  0  0
   48.3490   39.9120   37.9300 C   0  0  0  0  0  0  0  0  0  0  0  0
   48.9660   40.1720   37.0850 H   0  0  0  0  0  0  0  0  0  0  0  0
   48.8980   40.1100   39.1800 C   0  0  0  0  0  0  0  0  0  0  0  0
   49.9000   40.5080   39.2710 H   0  0  0  0  0  0  0  0  0  0  0  0
   48.1500   39.7930   40.2950 C   0  0  0  0  0  0  0  0  0  0  0  0
   48.6560   39.9790   41.2540 H   0  0  0  0  0  0  0  0  0  0  0  0
   46.8700   39.2830   40.2670 C   0  0  0  0  0  0  0  0  0  0  0  0
   46.2420   39.0120   41.4960 N   0  0  0  0  0  0  0  0  0  0  0  0
   46.7540   39.2020   42.3820 H   0  0  0  0  0  0  0  0  0  0  0  0
   41.0190   35.8440   43.2760 C   0  0  0  0  0  0  0  0  0  0  0  0
   42.0710   35.5270   43.4380 H   0  0  0  0  0  0  0  0  0  0  0  0
   40.5820   36.2550   44.1940 H   0  0  0  0  0  0  0  0  0  0  0  0
   39.2150   32.7520   42.8290 C   0  0  0  0  0  0  0  0  0  0  0  0
   38.7470   33.4870   41.7750 C   0  0  0  0  0  0  0  0  0  0  0  0
   39.3640   34.7350   41.8090 C   0  0  0  0  0  0  0  0  0  0  0  0
   40.1840   34.7080   42.8880 N   0  0  0  0  0  0  0  0  0  0  0  0
   40.0930   33.5260   43.4950 N   0  0  0  0  0  0  0  0  0  0  0  0
   38.0250   33.2440   40.9870 H   0  0  0  0  0  0  0  0  0  0  0  0
   39.2340   35.5720   41.1290 H   0  0  0  0  0  0  0  0  0  0  0  0
   38.9990   29.2070   44.0420 C   0  0  0  0  0  0  0  0  0  0  0  0
   39.5220   30.4790   43.8600 C   0  0  0  0  0  0  0  0  0  0  0  0
   38.7770   31.3950   43.0930 C   0  0  0  0  0  0  0  0  0  0  0  0
   37.5870   30.9640   42.5810 N   0  0  0  0  0  0  0  0  0  0  0  0
   37.1090   29.7130   42.7830 C   0  0  0  0  0  0  0  0  0  0  0  0
   37.8170   28.8420   43.5110 N   0  0  0  0  0  0  0  0  0  0  0  0
   39.6250   28.5570   44.6420 H   0  0  0  0  0  0  0  0  0  0  0  0
   40.4630   30.8020   44.2700 H   0  0  0  0  0  0  0  0  0  0  0  0
   36.1580   29.4800   42.3310 H   0  0  0  0  0  0  0  0  0  0  0  0
  1  2  1  0  0  0  0
  1 26  1  0  0  0  0
  3  1  1  0  0  0  0
  4  1  1  0  0  0  0
  4  5  1  0  0  0  0
  5  6  1  0  0  0  0
  7  5  2  0  0  0  0
  7  8  1  0  0  0  0
  9  7  1  0  0  0  0
 10 11  1  0  0  0  0
 10  9  2  0  0  0  0
 11  4  2  0  0  0  0
 12 11  1  0  0  0  0
 13 14  1  0  0  0  0
 13 10  1  0  0  0  0
 14 23  1  0  0  0  0
 15 17  1  0  0  0  0
 15 14  2  0  0  0  0
 16 15  1  0  0  0  0
 17 19  2  0  0  0  0
 18 17  1  0  0  0  0
 19 20  1  0  0  0  0
 19 21  1  0  0  0  0
 21 22  1  0  0  0  0
 23 21  2  0  0  0  0
 23 24  1  0  0  0  0
 24  9  1  0  0  0  0
 24 25  1  0  0  0  0
 26 27  1  0  0  0  0
 26 28  1  0  0  0  0
 29 38  1  0  0  0  0
 29 33  2  0  0  0  0
 30 31  2  0  0  0  0
 30 29  1  0  0  0  0
 31 32  1  0  0  0  0
 32 26  1  0  0  0  0
 32 33  1  0  0  0  0
 34 30  1  0  0  0  0
 35 31  1  0  0  0  0
 36 42  1  0  0  0  0
 37 36  1  0  0  0  0
 37 43  1  0  0  0  0
 38 37  2  0  0  0  0
 39 40  2  0  0  0  0
 39 38  1  0  0  0  0
 40 41  1  0  0  0  0
 41 36  2  0  0  0  0
 44 40  1  0  0  0  0
M  END
>  <minimizedAffinity>
-0.620007694

>  <minimizedRMSD>
5.04781675

$$$$
