
 OpenBabel03272508343D

 44 48  0  0  0  0  0  0  0  0999 V2000
   40.6670   33.7510   44.2850 C   0  0  0  0  0  0  0  0  0  0  0  0
   39.7080   33.5120   43.7460 H   0  0  0  0  0  0  0  0  0  0  0  0
   41.3150   32.8700   44.2020 H   0  0  0  0  0  0  0  0  0  0  0  0
   41.2270   34.9300   43.6080 C   0  0  0  0  0  0  0  0  0  0  0  0
   40.3680   35.8260   43.0050 C   0  0  0  0  0  0  0  0  0  0  0  0
   39.3040   35.6440   43.0430 H   0  0  0  0  0  0  0  0  0  0  0  0
   40.8790   36.9380   42.3660 C   0  0  0  0  0  0  0  0  0  0  0  0
   40.1210   37.5980   41.9140 H   0  0  0  0  0  0  0  0  0  0  0  0
   42.2220   37.2340   42.2780 C   0  0  0  0  0  0  0  0  0  0  0  0
   43.0560   36.3280   42.8860 C   0  0  0  0  0  0  0  0  0  0  0  0
   42.5680   35.2380   43.5130 C   0  0  0  0  0  0  0  0  0  0  0  0
   43.2620   34.5290   43.9920 H   0  0  0  0  0  0  0  0  0  0  0  0
   44.8110   36.6200   42.8290 S   0  0  0  0  0  0  0  0  0  0  0  0
   45.0310   38.1340   41.9270 C   0  0  0  0  0  0  0  0  0  0  0  0
   46.2920   38.6220   41.7170 C   0  0  0  0  0  0  0  0  0  0  0  0
   47.1640   38.0750   42.1090 H   0  0  0  0  0  0  0  0  0  0  0  0
   46.5590   39.7840   41.0300 C   0  0  0  0  0  0  0  0  0  0  0  0
   47.5280   40.2160   40.8350 H   0  0  0  0  0  0  0  0  0  0  0  0
   45.4670   40.4700   40.5380 C   0  0  0  0  0  0  0  0  0  0  0  0
   45.6130   41.3910   39.9900 H   0  0  0  0  0  0  0  0  0  0  0  0
   44.2040   39.9610   40.7610 C   0  0  0  0  0  0  0  0  0  0  0  0
   43.3880   40.5640   40.3390 H   0  0  0  0  0  0  0  0  0  0  0  0
   43.9320   38.7980   41.4480 C   0  0  0  0  0  0  0  0  0  0  0  0
   42.5870   38.4140   41.5880 N   0  0  0  0  0  0  0  0  0  0  0  0
   41.8420   39.0110   41.1750 H   0  0  0  0  0  0  0  0  0  0  0  0
   40.2570   34.0930   45.6940 C   0  0  0  0  0  0  0  0  0  0  0  0
   41.1640   34.2070   46.3240 H   0  0  0  0  0  0  0  0  0  0  0  0
   39.6670   35.0170   45.6750 H   0  0  0  0  0  0  0  0  0  0  0  0
   38.3360   31.6800   47.5660 C   0  0  0  0  0  0  0  0  0  0  0  0
   37.9060   31.4310   46.2920 C   0  0  0  0  0  0  0  0  0  0  0  0
   38.5710   32.3020   45.4320 C   0  0  0  0  0  0  0  0  0  0  0  0
   39.3810   33.0490   46.2220 N   0  0  0  0  0  0  0  0  0  0  0  0
   39.2390   32.6770   47.4930 N   0  0  0  0  0  0  0  0  0  0  0  0
   37.1810   30.7090   45.9020 H   0  0  0  0  0  0  0  0  0  0  0  0
   38.4790   32.3870   44.3530 H   0  0  0  0  0  0  0  0  0  0  0  0
   37.7070   30.4490   51.0550 C   0  0  0  0  0  0  0  0  0  0  0  0
   38.2490   31.2200   50.0360 C   0  0  0  0  0  0  0  0  0  0  0  0
   37.8440   30.9480   48.7170 C   0  0  0  0  0  0  0  0  0  0  0  0
   36.9420   29.9390   48.5310 N   0  0  0  0  0  0  0  0  0  0  0  0
   36.4350   29.2090   49.5530 C   0  0  0  0  0  0  0  0  0  0  0  0
   36.8200   29.4670   50.8080 N   0  0  0  0  0  0  0  0  0  0  0  0
   38.0650   30.7150   52.0430 H   0  0  0  0  0  0  0  0  0  0  0  0
   38.9600   32.0120   50.2000 H   0  0  0  0  0  0  0  0  0  0  0  0
   35.7290   28.4360   49.2920 H   0  0  0  0  0  0  0  0  0  0  0  0
  1 26  1  0  0  0  0
  2  1  1  0  0  0  0
  3  1  1  0  0  0  0
  4  1  1  0  0  0  0
  5  6  1  0  0  0  0
  5  4  2  0  0  0  0
  7  5  1  0  0  0  0
  8  7  1  0  0  0  0
  9  7  2  0  0  0  0
  9 10  1  0  0  0  0
 10 11  2  0  0  0  0
 11  4  1  0  0  0  0
 11 12  1  0  0  0  0
 13 10  1  0  0  0  0
 14 13  1  0  0  0  0
 15 14  1  0  0  0  0
 15 16  1  0  0  0  0
 17 15  2  0  0  0  0
 18 17  1  0  0  0  0
 19 21  2  0  0  0  0
 19 17  1  0  0  0  0
 20 19  1  0  0  0  0
 21 23  1  0  0  0  0
 22 21  1  0  0  0  0
 23 24  1  0  0  0  0
 23 14  2  0  0  0  0
 24  9  1  0  0  0  0
 25 24  1  0  0  0  0
 26 32  1  0  0  0  0
 26 27  1  0  0  0  0
 28 26  1  0  0  0  0
 29 38  1  0  0  0  0
 30 29  1  0  0  0  0
 31 32  1  0  0  0  0
 31 30  2  0  0  0  0
 32 33  1  0  0  0  0
 33 29  2  0  0  0  0
 34 30  1  0  0  0  0
 35 31  1  0  0  0  0
 36 42  1  0  0  0  0
 37 43  1  0  0  0  0
 37 36  2  0  0  0  0
 38 37  1  0  0  0  0
 39 38  2  0  0  0  0
 39 40  1  0  0  0  0
 40 41  2  0  0  0  0
 41 36  1  0  0  0  0
 44 40  1  0  0  0  0
M  END
>  <minimizedAffinity>
4.99278784

>  <minimizedRMSD>
1.49071646

$$$$
