REMARK  Name = 
REMARK  4 active torsions:
REMARK  status: ('A' for Active; 'I' for Inactive)
REMARK    1  A    between atoms: C_1  and  C_8
REMARK    2  A    between atoms: N_4  and  C_12
REMARK    3  A    between atoms: C_12  and  C_13
REMARK    4  A    between atoms: C_13  and  C_23
REMARK                            x       y       z     vdW  Elec       q    Type
REMARK                         _______ _______ _______ _____ _____    ______ ____
ROOT
ATOM      1  C   UNL     1      39.958  33.345  44.503  0.00  0.00    +0.000 C 
ATOM      2  H   UNL     1      38.942  33.761  44.253  0.00  0.00    +0.000 HD
ATOM      3  H   UNL     1      40.012  32.337  44.072  0.00  0.00    +0.000 HD
ENDROOT
BRANCH   1   4
ATOM      4  C   UNL     1      40.931  34.269  43.902  0.00  0.00    +0.000 A 
ATOM      5  C   UNL     1      41.949  34.772  44.685  0.00  0.00    +0.000 A 
ATOM      6  H   UNL     1      42.011  34.476  45.722  0.00  0.00    +0.000 HD
ATOM      7  C   UNL     1      42.870  35.640  44.135  0.00  0.00    +0.000 A 
ATOM      8  H   UNL     1      43.647  35.990  44.832  0.00  0.00    +0.000 HD
ATOM      9  C   UNL     1      42.852  36.060  42.822  0.00  0.00    +0.000 A 
ATOM     10  C   UNL     1      41.830  35.547  42.063  0.00  0.00    +0.000 A 
ATOM     11  C   UNL     1      40.925  34.698  42.590  0.00  0.00    +0.000 A 
ATOM     12  H   UNL     1      40.115  34.302  41.956  0.00  0.00    +0.000 HD
ATOM     13  S   UNL     1      41.719  36.029  40.353  0.00  0.00    +0.000 S 
ATOM     14  C   UNL     1      43.075  37.137  40.063  0.00  0.00    +0.000 A 
ATOM     15  C   UNL     1      43.254  37.681  38.819  0.00  0.00    +0.000 A 
ATOM     16  H   UNL     1      42.557  37.429  38.005  0.00  0.00    +0.000 HD
ATOM     17  C   UNL     1      44.275  38.548  38.502  0.00  0.00    +0.000 A 
ATOM     18  H   UNL     1      44.465  39.005  37.544  0.00  0.00    +0.000 HD
ATOM     19  C   UNL     1      45.149  38.864  39.522  0.00  0.00    +0.000 A 
ATOM     20  H   UNL     1      45.972  39.540  39.334  0.00  0.00    +0.000 HD
ATOM     21  C   UNL     1      44.952  38.305  40.768  0.00  0.00    +0.000 A 
ATOM     22  H   UNL     1      45.690  38.606  41.526  0.00  0.00    +0.000 HD
ATOM     23  C   UNL     1      43.931  37.437  41.090  0.00  0.00    +0.000 A 
ATOM     24  N   UNL     1      43.868  36.955  42.409  0.00  0.00    +0.000 N 
ATOM     25  H   UNL     1      44.584  37.262  43.098  0.00  0.00    +0.000 HD
ENDBRANCH   1   4
BRANCH   1  26
ATOM     26  C   UNL     1      40.046  33.386  46.006  0.00  0.00    +0.000 C 
ATOM     27  H   UNL     1      41.078  33.125  46.322  0.00  0.00    +0.000 HD
ATOM     28  H   UNL     1      39.766  34.389  46.349  0.00  0.00    +0.000 HD
BRANCH  26  32
ATOM     29  C   UNL     1      37.909  31.263  47.992  0.00  0.00    +0.000 A 
ATOM     30  C   UNL     1      37.436  31.013  46.734  0.00  0.00    +0.000 A 
ATOM     31  C   UNL     1      38.176  31.775  45.833  0.00  0.00    +0.000 A 
ATOM     32  N   UNL     1      39.072  32.461  46.584  0.00  0.00    +0.000 N 
ATOM     33  N   UNL     1      38.911  32.155  47.870  0.00  0.00    +0.000 NA
ATOM     34  H   UNL     1      36.633  30.357  46.380  0.00  0.00    +0.000 HD
ATOM     35  H   UNL     1      38.078  31.828  44.753  0.00  0.00    +0.000 HD
BRANCH  29  38
ATOM     36  C   UNL     1      37.354  30.042  51.497  0.00  0.00    +0.000 A 
ATOM     37  C   UNL     1      37.977  30.688  50.439  0.00  0.00    +0.000 A 
ATOM     38  C   UNL     1      37.359  30.631  49.176  0.00  0.00    +0.000 A 
ATOM     39  N   UNL     1      36.185  29.941  49.081  0.00  0.00    +0.000 NA
ATOM     40  C   UNL     1      35.607  29.324  50.139  0.00  0.00    +0.000 A 
ATOM     41  N   UNL     1      36.194  29.377  51.340  0.00  0.00    +0.000 NA
ATOM     42  H   UNL     1      37.886  30.128  52.438  0.00  0.00    +0.000 HD
ATOM     43  H   UNL     1      38.904  31.228  50.531  0.00  0.00    +0.000 HD
ATOM     44  H   UNL     1      34.679  28.807  49.950  0.00  0.00    +0.000 HD
ENDBRANCH  29  38
ENDBRANCH  26  32
ENDBRANCH   1  26
TORSDOF 4
