
     RDKit          3D

 44 48  0  0  0  0  0  0  0  0999 V2000
   37.9087   31.2634   47.9923 C   0  0  0  0  0  0  0  0  0  0  0  0
   37.4360   31.0127   46.7342 C   0  0  0  0  0  0  0  0  0  0  0  0
   38.1760   31.7749   45.8330 C   0  0  0  0  0  0  0  0  0  0  0  0
   39.0721   32.4609   46.5842 N   0  0  0  0  0  0  0  0  0  0  0  0
   38.9111   32.1546   47.8705 N   0  0  0  0  0  0  0  0  0  0  0  0
   37.3539   30.0422   51.4971 C   0  0  0  0  0  0  0  0  0  0  0  0
   37.9773   30.6880   50.4388 C   0  0  0  0  0  0  0  0  0  0  0  0
   37.3589   30.6309   49.1756 C   0  0  0  0  0  0  0  0  0  0  0  0
   36.1849   29.9413   49.0814 N   0  0  0  0  0  0  0  0  0  0  0  0
   35.6073   29.3237   50.1385 C   0  0  0  0  0  0  0  0  0  0  0  0
   36.1941   29.3770   51.3403 N   0  0  0  0  0  0  0  0  0  0  0  0
   40.0457   33.3856   46.0063 C   0  0  0  0  0  0  0  0  0  0  0  0
   39.9580   33.3450   44.5028 C   0  0  0  0  0  0  0  0  0  0  0  0
   36.6329   30.3568   46.3802 H   0  0  0  0  0  0  0  0  0  0  0  0
   38.0778   31.8283   44.7534 H   0  0  0  0  0  0  0  0  0  0  0  0
   37.8855   30.1277   52.4384 H   0  0  0  0  0  0  0  0  0  0  0  0
   38.9041   31.2280   50.5305 H   0  0  0  0  0  0  0  0  0  0  0  0
   34.6791   28.8071   49.9505 H   0  0  0  0  0  0  0  0  0  0  0  0
   41.0783   33.1252   46.3221 H   0  0  0  0  0  0  0  0  0  0  0  0
   39.7657   34.3886   46.3485 H   0  0  0  0  0  0  0  0  0  0  0  0
   38.9421   33.7608   44.2534 H   0  0  0  0  0  0  0  0  0  0  0  0
   40.0121   32.3369   44.0725 H   0  0  0  0  0  0  0  0  0  0  0  0
   40.9305   34.2692   43.9021 C   0  0  0  0  0  0  0  0  0  0  0  0
   41.9494   34.7718   44.6846 C   0  0  0  0  0  0  0  0  0  0  0  0
   42.0114   34.4756   45.7224 H   0  0  0  0  0  0  0  0  0  0  0  0
   42.8697   35.6402   44.1345 C   0  0  0  0  0  0  0  0  0  0  0  0
   43.6471   35.9904   44.8321 H   0  0  0  0  0  0  0  0  0  0  0  0
   42.8523   36.0604   42.8220 C   0  0  0  0  0  0  0  0  0  0  0  0
   41.8299   35.5474   42.0634 C   0  0  0  0  0  0  0  0  0  0  0  0
   40.9247   34.6976   42.5905 C   0  0  0  0  0  0  0  0  0  0  0  0
   40.1147   34.3021   41.9565 H   0  0  0  0  0  0  0  0  0  0  0  0
   41.7195   36.0293   40.3530 S   0  0  0  0  0  0  0  0  0  0  0  0
   43.0753   37.1373   40.0626 C   0  0  0  0  0  0  0  0  0  0  0  0
   43.2535   37.6806   38.8190 C   0  0  0  0  0  0  0  0  0  0  0  0
   42.5566   37.4289   38.0047 H   0  0  0  0  0  0  0  0  0  0  0  0
   44.2753   38.5479   38.5024 C   0  0  0  0  0  0  0  0  0  0  0  0
   44.4648   39.0054   37.5443 H   0  0  0  0  0  0  0  0  0  0  0  0
   45.1494   38.8641   39.5219 C   0  0  0  0  0  0  0  0  0  0  0  0
   45.9723   39.5404   39.3343 H   0  0  0  0  0  0  0  0  0  0  0  0
   44.9515   38.3052   40.7679 C   0  0  0  0  0  0  0  0  0  0  0  0
   45.6896   38.6061   41.5261 H   0  0  0  0  0  0  0  0  0  0  0  0
   43.9311   37.4372   41.0897 C   0  0  0  0  0  0  0  0  0  0  0  0
   43.8681   36.9549   42.4091 N   0  0  0  0  0  0  0  0  0  0  0  0
   44.5843   37.2623   43.0981 H   0  0  0  0  0  0  0  0  0  0  0  0
  1  8  1  0
  2  1  1  0
  3  4  1  0
  3  2  2  0
  4  5  1  0
  5  1  2  0
  7  6  2  0
  8  7  1  0
  9  8  2  0
  9 10  1  0
 10 11  2  0
 11  6  1  0
 12  4  1  0
 13 12  1  0
  2 14  1  0
  3 15  1  0
  6 16  1  0
  7 17  1  0
 10 18  1  0
 12 19  1  0
 12 20  1  0
 13 21  1  0
 13 22  1  0
 23 24  2  0
 24 25  1  0
 24 26  1  0
 26 27  1  0
 26 28  2  0
 28 29  1  0
 29 30  2  0
 30 31  1  0
 29 32  1  0
 32 33  1  0
 33 34  2  0
 34 35  1  0
 34 36  1  0
 36 37  1  0
 36 38  2  0
 38 39  1  0
 38 40  1  0
 40 41  1  0
 40 42  2  0
 42 43  1  0
 43 44  1  0
 30 23  1  0
 42 33  1  0
 43 28  1  0
 13 23  1  0
M  ISO  8  14  14  15  14  16  14  17  14  18  14  19   8  20   8  21   8
M  ISO  8  22   8  25  16  27  16  31  16  35  16  37  16  39  16  41  16
M  ISO  1  44   5
M  END
>  <DihAtoms>  (1) 
11,12,22,23

>  <DihDeg>  (1) 
90.00021404811794

$$$$
