
 OpenBabel03272501583D

 44 48  0  0  0  0  0  0  0  0999 V2000
   32.8910   27.6560   47.9870 C   0  0  0  0  0  0  0  0  0  0  0  0
   32.1310   26.5150   47.9550 C   0  0  0  0  0  0  0  0  0  0  0  0
   30.8430   26.8220   47.5360 C   0  0  0  0  0  0  0  0  0  0  0  0
   30.8640   28.1570   47.3230 N   0  0  0  0  0  0  0  0  0  0  0  0
   32.0650   28.6450   47.5880 N   0  0  0  0  0  0  0  0  0  0  0  0
   32.4350   25.4980   48.2090 H   0  0  0  0  0  0  0  0  0  0  0  0
   29.9810   26.1610   47.3960 H   0  0  0  0  0  0  0  0  0  0  0  0
   29.8040   28.9960   46.8820 C   0  0  0  0  0  0  0  0  0  0  0  0
   28.6310   29.0780   47.5890 C   0  0  0  0  0  0  0  0  0  0  0  0
   28.5250   28.4940   48.4900 H   0  0  0  0  0  0  0  0  0  0  0  0
   27.6190   29.8990   47.1370 C   0  0  0  0  0  0  0  0  0  0  0  0
   26.7200   29.9000   47.7670 H   0  0  0  0  0  0  0  0  0  0  0  0
   27.6960   30.6670   45.9960 C   0  0  0  0  0  0  0  0  0  0  0  0
   28.8770   30.5700   45.3050 C   0  0  0  0  0  0  0  0  0  0  0  0
   29.8860   29.7600   45.7420 C   0  0  0  0  0  0  0  0  0  0  0  0
   30.8140   29.7020   45.1720 H   0  0  0  0  0  0  0  0  0  0  0  0
   29.0550   31.5320   43.8180 S   0  0  0  0  0  0  0  0  0  0  0  0
   27.5330   32.4350   43.6090 C   0  0  0  0  0  0  0  0  0  0  0  0
   27.4120   33.2610   42.5250 C   0  0  0  0  0  0  0  0  0  0  0  0
   28.2210   33.3670   41.8070 H   0  0  0  0  0  0  0  0  0  0  0  0
   26.2680   33.9830   42.3060 C   0  0  0  0  0  0  0  0  0  0  0  0
   26.1260   34.6470   41.4670 H   0  0  0  0  0  0  0  0  0  0  0  0
   25.2380   33.8550   43.2100 C   0  0  0  0  0  0  0  0  0  0  0  0
   24.3430   34.4080   43.0570 H   0  0  0  0  0  0  0  0  0  0  0  0
   25.4140   33.0100   44.2830 C   0  0  0  0  0  0  0  0  0  0  0  0
   24.5520   32.9600   44.9590 H   0  0  0  0  0  0  0  0  0  0  0  0
   26.5440   32.2640   44.5440 C   0  0  0  0  0  0  0  0  0  0  0  0
   26.5660   31.4460   45.6880 N   0  0  0  0  0  0  0  0  0  0  0  0
   25.7240   31.4330   46.2980 H   0  0  0  0  0  0  0  0  0  0  0  0
   34.3410   27.7560   48.3870 C   0  0  0  0  0  0  0  0  0  0  0  0
   34.7070   26.7000   48.4160 H   0  0  0  0  0  0  0  0  0  0  0  0
   34.8880   28.3300   47.6020 H   0  0  0  0  0  0  0  0  0  0  0  0
   34.3490   28.4310   49.7250 C   0  0  0  0  0  0  0  0  0  0  0  0
   33.4660   29.0390   49.9510 H   0  0  0  0  0  0  0  0  0  0  0  0
   34.3750   27.6030   50.4890 H   0  0  0  0  0  0  0  0  0  0  0  0
   37.2650   30.1020   51.2740 C   0  0  0  0  0  0  0  0  0  0  0  0
   38.0060   30.5300   50.1660 C   0  0  0  0  0  0  0  0  0  0  0  0
   37.4880   30.2360   48.8830 C   0  0  0  0  0  0  0  0  0  0  0  0
   36.3130   29.5620   48.7960 N   0  0  0  0  0  0  0  0  0  0  0  0
   35.6410   29.1720   49.9050 C   0  0  0  0  0  0  0  0  0  0  0  0
   36.1170   29.4420   51.1220 N   0  0  0  0  0  0  0  0  0  0  0  0
   37.6920   30.3440   52.2450 H   0  0  0  0  0  0  0  0  0  0  0  0
   38.9440   31.0690   50.1890 H   0  0  0  0  0  0  0  0  0  0  0  0
   37.9430   30.5010   47.9490 H   0  0  0  0  0  0  0  0  0  0  0  0
  1 30  1  0  0  0  0
  2  1  1  0  0  0  0
  2  6  1  0  0  0  0
  3  2  2  0  0  0  0
  4  3  1  0  0  0  0
  4  5  1  0  0  0  0
  5  1  2  0  0  0  0
  7  3  1  0  0  0  0
  8  4  1  0  0  0  0
  8  9  1  0  0  0  0
  9 10  1  0  0  0  0
 11  9  2  0  0  0  0
 11 12  1  0  0  0  0
 13 11  1  0  0  0  0
 14 15  1  0  0  0  0
 14 13  2  0  0  0  0
 15  8  2  0  0  0  0
 16 15  1  0  0  0  0
 17 14  1  0  0  0  0
 18 17  1  0  0  0  0
 18 27  1  0  0  0  0
 19 18  2  0  0  0  0
 20 19  1  0  0  0  0
 21 19  1  0  0  0  0
 21 23  2  0  0  0  0
 22 21  1  0  0  0  0
 23 25  1  0  0  0  0
 24 23  1  0  0  0  0
 25 27  2  0  0  0  0
 25 26  1  0  0  0  0
 27 28  1  0  0  0  0
 28 13  1  0  0  0  0
 28 29  1  0  0  0  0
 30 31  1  0  0  0  0
 30 33  1  0  0  0  0
 32 30  1  0  0  0  0
 33 40  1  0  0  0  0
 33 34  1  0  0  0  0
 33 35  1  0  0  0  0
 36 42  1  0  0  0  0
 37 43  1  0  0  0  0
 37 36  2  0  0  0  0
 38 37  1  0  0  0  0
 39 38  2  0  0  0  0
 39 40  1  0  0  0  0
 40 41  2  0  0  0  0
 41 36  1  0  0  0  0
 44 38  1  0  0  0  0
M  END
>  <minimizedAffinity>
-6.38051653

>  <minimizedRMSD>
1.66922176

$$$$
