REMARK  Name = 
REMARK  3 active torsions:
REMARK  status: ('A' for Active; 'I' for Inactive)
REMARK    1  A    between atoms: C_1  and  C_7
REMARK    2  A    between atoms: C_8  and  O_10
REMARK    3  A    between atoms: O_10  and  C_18
REMARK                            x       y       z     vdW  Elec       q    Type
REMARK                         _______ _______ _______ _____ _____    ______ ____
ROOT
ATOM      1  C   UNL     1      35.551  27.716  49.278  0.00  0.00    +0.000 A 
ATOM      2  C   UNL     1      36.071  26.420  49.381  0.00  0.00    +0.000 A 
ATOM      3  H   UNL     1      37.094  26.268  49.751  0.00  0.00    +0.000 HD
ATOM      4  C   UNL     1      35.293  25.342  49.015  0.00  0.00    +0.000 A 
ATOM      5  H   UNL     1      35.761  24.368  49.120  0.00  0.00    +0.000 HD
ATOM      6  C   UNL     1      34.005  25.443  48.542  0.00  0.00    +0.000 A 
ATOM      7  C   UNL     1      33.523  26.720  48.453  0.00  0.00    +0.000 A 
ATOM      8  C   UNL     1      34.255  27.795  48.801  0.00  0.00    +0.000 A 
ATOM      9  H   UNL     1      33.849  28.801  48.721  0.00  0.00    +0.000 HD
ATOM     10  S   UNL     1      31.866  26.980  47.854  0.00  0.00    +0.000 S 
ATOM     11  C   UNL     1      31.225  25.356  47.500  0.00  0.00    +0.000 A 
ATOM     12  C   UNL     1      29.959  25.265  47.022  0.00  0.00    +0.000 A 
ATOM     13  H   UNL     1      29.357  26.163  46.861  0.00  0.00    +0.000 HD
ATOM     14  C   UNL     1      29.376  24.051  46.719  0.00  0.00    +0.000 A 
ATOM     15  H   UNL     1      28.369  23.977  46.339  0.00  0.00    +0.000 HD
ATOM     16  C   UNL     1      30.124  22.910  46.918  0.00  0.00    +0.000 A 
ATOM     17  H   UNL     1      29.715  21.932  46.696  0.00  0.00    +0.000 HD
ATOM     18  C   UNL     1      31.407  23.062  47.406  0.00  0.00    +0.000 A 
ATOM     19  H   UNL     1      31.956  22.122  47.545  0.00  0.00    +0.000 HD
ATOM     20  C   UNL     1      32.017  24.258  47.718  0.00  0.00    +0.000 A 
ATOM     21  N   UNL     1      33.323  24.267  48.205  0.00  0.00    +0.000 N 
ATOM     22  H   UNL     1      33.804  23.350  48.320  0.00  0.00    +0.000 HD
ENDROOT
BRANCH   1  23
ATOM     23  O   UNL     1      36.367  28.748  49.655  0.00  0.00    +0.000 OA
BRANCH  23  25
ATOM     24  C   UNL     1      36.646  31.035  50.507  0.00  0.00    +0.000 C 
ATOM     25  C   UNL     1      36.139  29.690  50.665  0.00  0.00    +0.000 C 
ATOM     26  C   UNL     1      37.355  30.085  51.480  0.00  0.00    +0.000 C 
ATOM     27  H   UNL     1      36.268  31.931  51.056  0.00  0.00    +0.000 HD
ATOM     28  H   UNL     1      35.182  29.553  51.195  0.00  0.00    +0.000 HD
ATOM     29  H   UNL     1      37.163  30.175  52.560  0.00  0.00    +0.000 HD
ATOM     30  H   UNL     1      38.344  29.672  51.193  0.00  0.00    +0.000 HD
BRANCH  24  31
ATOM     31  C   UNL     1      37.524  31.405  49.328  0.00  0.00    +0.000 A 
ATOM     32  C   UNL     1      38.144  32.658  49.390  0.00  0.00    +0.000 A 
ATOM     33  C   UNL     1      38.926  32.984  48.299  0.00  0.00    +0.000 A 
ATOM     34  N   UNL     1      39.069  32.125  47.242  0.00  0.00    +0.000 NA
ATOM     35  C   UNL     1      38.442  30.911  47.230  0.00  0.00    +0.000 A 
ATOM     36  N   UNL     1      37.662  30.547  48.282  0.00  0.00    +0.000 NA
ATOM     37  H   UNL     1      38.001  33.300  50.246  0.00  0.00    +0.000 HD
ATOM     38  H   UNL     1      39.431  33.944  48.295  0.00  0.00    +0.000 HD
ATOM     39  H   UNL     1      38.561  30.242  46.391  0.00  0.00    +0.000 HD
ENDBRANCH  24  31
ENDBRANCH  23  25
ENDBRANCH   1  23
TORSDOF 3
