
     RDKit          3D

 38 42  0  0  0  0  0  0  0  0999 V2000
   38.0790   33.1952   49.3877 C   0  0  0  0  0  0  0  0  0  0  0  0
   38.9201   32.9293   48.2807 C   0  0  0  0  0  0  0  0  0  0  0  0
   38.6798   31.7746   47.5367 C   0  0  0  0  0  0  0  0  0  0  0  0
   37.6559   30.9639   47.9068 N   0  0  0  0  0  0  0  0  0  0  0  0
   36.8692   31.2497   48.9741 C   0  0  0  0  0  0  0  0  0  0  0  0
   37.0793   32.3569   49.7088 N   0  0  0  0  0  0  0  0  0  0  0  0
   35.7864   30.3341   49.3153 C   0  0  0  0  0  0  0  0  0  0  0  0
   35.8639   28.9491   49.3592 C   0  0  0  0  0  0  0  0  0  0  0  0
   34.6458   28.4423   49.7184 C   0  0  0  0  0  0  0  0  0  0  0  0
   33.8368   29.5134   49.8906 N   0  0  0  0  0  0  0  0  0  0  0  0
   34.5336   30.6194   49.6467 N   0  0  0  0  0  0  0  0  0  0  0  0
   38.2600   34.0999   49.9782 H   0  0  0  0  0  0  0  0  0  0  0  0
   39.7201   33.6184   48.0396 H   0  0  0  0  0  0  0  0  0  0  0  0
   39.3059   31.5463   46.6865 H   0  0  0  0  0  0  0  0  0  0  0  0
   36.7777   28.4116   49.1331 H   0  0  0  0  0  0  0  0  0  0  0  0
   34.4090   27.4061   49.8324 H   0  0  0  0  0  0  0  0  0  0  0  0
   32.4672   29.4612   50.2701 C   0  0  0  0  0  0  0  0  0  0  0  0
   31.8551   30.5785   50.7971 C   0  0  0  0  0  0  0  0  0  0  0  0
   32.3950   31.5047   50.9313 H   0  0  0  0  0  0  0  0  0  0  0  0
   30.5262   30.4665   51.1461 C   0  0  0  0  0  0  0  0  0  0  0  0
   30.0828   31.3849   51.5620 H   0  0  0  0  0  0  0  0  0  0  0  0
   29.7417   29.3395   51.0197 C   0  0  0  0  0  0  0  0  0  0  0  0
   30.4294   28.2760   50.4877 C   0  0  0  0  0  0  0  0  0  0  0  0
   31.7478   28.3000   50.1141 C   0  0  0  0  0  0  0  0  0  0  0  0
   32.2436   27.4325   49.6989 H   0  0  0  0  0  0  0  0  0  0  0  0
   29.5706   26.7308   50.2517 S   0  0  0  0  0  0  0  0  0  0  0  0
   27.9082   26.9880   50.8128 C   0  0  0  0  0  0  0  0  0  0  0  0
   26.9948   25.9971   50.7662 C   0  0  0  0  0  0  0  0  0  0  0  0
   27.3007   25.0201   50.3717 H   0  0  0  0  0  0  0  0  0  0  0  0
   25.6656   26.1174   51.1881 C   0  0  0  0  0  0  0  0  0  0  0  0
   25.0243   25.2714   51.1084 H   0  0  0  0  0  0  0  0  0  0  0  0
   25.3358   27.3688   51.6755 C   0  0  0  0  0  0  0  0  0  0  0  0
   24.3171   27.5118   52.0148 H   0  0  0  0  0  0  0  0  0  0  0  0
   26.2762   28.3778   51.7199 C   0  0  0  0  0  0  0  0  0  0  0  0
   25.9044   29.3219   52.1233 H   0  0  0  0  0  0  0  0  0  0  0  0
   27.5795   28.2231   51.2947 C   0  0  0  0  0  0  0  0  0  0  0  0
   28.3932   29.3686   51.4186 N   0  0  0  0  0  0  0  0  0  0  0  0
   28.0431   30.2506   51.7961 H   0  0  0  0  0  0  0  0  0  0  0  0
  1  6  2  0
  2  1  1  0
  3  4  1  0
  3  2  2  0
  4  5  2  0
  5  7  1  0
  5  6  1  0
  7  8  1  0
  7 11  2  0
  8  9  2  0
  9 10  1  0
 11 10  1  0
  1 12  1  0
  2 13  1  0
  3 14  1  0
  8 15  1  0
  9 16  1  0
 17 18  2  0
 18 19  1  0
 18 20  1  0
 20 21  1  0
 20 22  2  0
 22 23  1  0
 23 24  2  0
 24 25  1  0
 23 26  1  0
 26 27  1  0
 27 28  2  0
 28 29  1  0
 28 30  1  0
 30 31  1  0
 30 32  2  0
 32 33  1  0
 32 34  1  0
 34 35  1  0
 34 36  2  0
 36 37  1  0
 37 38  1  0
 24 17  1  0
 36 27  1  0
 37 22  1  0
 10 17  1  0
M  ISO  8  12  14  13  14  14  14  15  14  16  14  19  16  21  16  25  16
M  ISO  5  29  16  31  16  33  16  35  16  38   5
M  END
>  <DihAtoms>  (1) 
8,9,16,17

>  <DihDeg>  (1) 
175.63040318465153

$$$$
