
 OpenBabel03262522573D

 38 42  0  0  0  0  0  0  0  0999 V2000
   34.6730   29.3570   49.2210 C   0  0  0  0  0  0  0  0  0  0  0  0
   33.8010   29.4370   50.2860 C   0  0  0  0  0  0  0  0  0  0  0  0
   34.0930   29.8980   51.2180 H   0  0  0  0  0  0  0  0  0  0  0  0
   32.5420   28.9040   50.1130 C   0  0  0  0  0  0  0  0  0  0  0  0
   31.8830   28.9920   50.9920 H   0  0  0  0  0  0  0  0  0  0  0  0
   32.0630   28.2940   48.9730 C   0  0  0  0  0  0  0  0  0  0  0  0
   32.9950   28.2580   47.9650 C   0  0  0  0  0  0  0  0  0  0  0  0
   34.2660   28.7620   48.0500 C   0  0  0  0  0  0  0  0  0  0  0  0
   34.9640   28.7080   47.2250 H   0  0  0  0  0  0  0  0  0  0  0  0
   32.5490   27.5040   46.4110 S   0  0  0  0  0  0  0  0  0  0  0  0
   30.8740   26.9480   46.5840 C   0  0  0  0  0  0  0  0  0  0  0  0
   30.2360   26.3260   45.5710 C   0  0  0  0  0  0  0  0  0  0  0  0
   30.7770   26.1710   44.6290 H   0  0  0  0  0  0  0  0  0  0  0  0
   28.9180   25.8580   45.6260 C   0  0  0  0  0  0  0  0  0  0  0  0
   28.5080   25.3810   44.7670 H   0  0  0  0  0  0  0  0  0  0  0  0
   28.2860   26.0820   46.8350 C   0  0  0  0  0  0  0  0  0  0  0  0
   27.2640   25.7370   46.9270 H   0  0  0  0  0  0  0  0  0  0  0  0
   28.9450   26.7170   47.8670 C   0  0  0  0  0  0  0  0  0  0  0  0
   28.3500   26.8400   48.7740 H   0  0  0  0  0  0  0  0  0  0  0  0
   30.2460   27.1670   47.7780 C   0  0  0  0  0  0  0  0  0  0  0  0
   30.7490   27.7930   48.9380 N   0  0  0  0  0  0  0  0  0  0  0  0
   30.1900   27.9050   49.7850 H   0  0  0  0  0  0  0  0  0  0  0  0
   37.7050   31.2190   49.0480 C   0  0  0  0  0  0  0  0  0  0  0  0
   38.0640   30.1810   49.8970 C   0  0  0  0  0  0  0  0  0  0  0  0
   36.9890   29.3540   50.0740 C   0  0  0  0  0  0  0  0  0  0  0  0
   35.9870   29.8880   49.3370 N   0  0  0  0  0  0  0  0  0  0  0  0
   36.4360   30.9890   48.7410 N   0  0  0  0  0  0  0  0  0  0  0  0
   39.0570   30.0960   50.3220 H   0  0  0  0  0  0  0  0  0  0  0  0
   36.9710   28.4720   50.6770 H   0  0  0  0  0  0  0  0  0  0  0  0
   39.6320   34.3390   49.0240 C   0  0  0  0  0  0  0  0  0  0  0  0
   40.1890   34.3330   47.7230 C   0  0  0  0  0  0  0  0  0  0  0  0
   39.8900   33.2600   46.8860 C   0  0  0  0  0  0  0  0  0  0  0  0
   39.0830   32.2740   47.3550 N   0  0  0  0  0  0  0  0  0  0  0  0
   38.5660   32.3120   48.6090 C   0  0  0  0  0  0  0  0  0  0  0  0
   38.8380   33.3360   49.4370 N   0  0  0  0  0  0  0  0  0  0  0  0
   39.8610   35.1790   49.6890 H   0  0  0  0  0  0  0  0  0  0  0  0
   40.8260   35.1520   47.4110 H   0  0  0  0  0  0  0  0  0  0  0  0
   40.3010   33.2280   45.8870 H   0  0  0  0  0  0  0  0  0  0  0  0
  1 26  1  0  0  0  0
  1  2  1  0  0  0  0
  2  3  1  0  0  0  0
  4  2  2  0  0  0  0
  4  5  1  0  0  0  0
  6  4  1  0  0  0  0
  7  8  1  0  0  0  0
  7  6  2  0  0  0  0
  8  1  2  0  0  0  0
  9  8  1  0  0  0  0
 10 11  1  0  0  0  0
 10  7  1  0  0  0  0
 11 20  1  0  0  0  0
 12 14  1  0  0  0  0
 12 11  2  0  0  0  0
 13 12  1  0  0  0  0
 14 16  2  0  0  0  0
 15 14  1  0  0  0  0
 16 17  1  0  0  0  0
 16 18  1  0  0  0  0
 18 19  1  0  0  0  0
 20 18  2  0  0  0  0
 20 21  1  0  0  0  0
 21  6  1  0  0  0  0
 21 22  1  0  0  0  0
 23 24  1  0  0  0  0
 24 25  2  0  0  0  0
 24 28  1  0  0  0  0
 25 29  1  0  0  0  0
 26 25  1  0  0  0  0
 27 23  2  0  0  0  0
 27 26  1  0  0  0  0
 30 35  1  0  0  0  0
 30 36  1  0  0  0  0
 31 30  2  0  0  0  0
 32 33  2  0  0  0  0
 32 31  1  0  0  0  0
 33 34  1  0  0  0  0
 34 23  1  0  0  0  0
 34 35  2  0  0  0  0
 37 31  1  0  0  0  0
 38 32  1  0  0  0  0
M  END
>  <minimizedAffinity>
-5.43390036

>  <minimizedRMSD>
3.39520192

$$$$
