REMARK  Name = 
REMARK  3 active torsions:
REMARK  status: ('A' for Active; 'I' for Inactive)
REMARK    1  A    between atoms: C_5  and  C_7
REMARK    2  A    between atoms: C_9  and  S_10
REMARK    3  A    between atoms: S_10  and  C_18
REMARK                            x       y       z     vdW  Elec       q    Type
REMARK                         _______ _______ _______ _____ _____    ______ ____
ROOT
ATOM      1  C   UNL     1      37.356  27.862  51.954  0.00  0.00    +0.000 A 
ATOM      2  C   UNL     1      36.135  27.504  52.490  0.00  0.00    +0.000 A 
ATOM      3  H   UNL     1      35.273  28.072  52.221  0.00  0.00    +0.000 HD
ATOM      4  C   UNL     1      36.085  26.426  53.349  0.00  0.00    +0.000 A 
ATOM      5  H   UNL     1      35.072  26.212  53.728  0.00  0.00    +0.000 HD
ATOM      6  C   UNL     1      37.175  25.668  53.720  0.00  0.00    +0.000 A 
ATOM      7  C   UNL     1      38.373  26.049  53.171  0.00  0.00    +0.000 A 
ATOM      8  C   UNL     1      38.445  27.099  52.329  0.00  0.00    +0.000 A 
ATOM      9  H   UNL     1      39.419  27.376  51.908  0.00  0.00    +0.000 HD
ATOM     10  S   UNL     1      39.820  25.110  53.611  0.00  0.00    +0.000 S 
ATOM     11  C   UNL     1      39.277  23.835  54.728  0.00  0.00    +0.000 A 
ATOM     12  C   UNL     1      40.235  22.979  55.204  0.00  0.00    +0.000 A 
ATOM     13  H   UNL     1      41.267  23.069  54.918  0.00  0.00    +0.000 HD
ATOM     14  C   UNL     1      39.887  21.968  56.073  0.00  0.00    +0.000 A 
ATOM     15  H   UNL     1      40.625  21.281  56.461  0.00  0.00    +0.000 HD
ATOM     16  C   UNL     1      38.567  21.842  56.446  0.00  0.00    +0.000 A 
ATOM     17  H   UNL     1      38.264  21.058  57.127  0.00  0.00    +0.000 HD
ATOM     18  C   UNL     1      37.654  22.737  55.931  0.00  0.00    +0.000 A 
ATOM     19  H   UNL     1      36.627  22.585  56.263  0.00  0.00    +0.000 HD
ATOM     20  C   UNL     1      37.946  23.766  55.059  0.00  0.00    +0.000 A 
ATOM     21  N   UNL     1      36.914  24.618  54.602  0.00  0.00    +0.000 N 
ATOM     22  H   UNL     1      35.957  24.417  54.959  0.00  0.00    +0.000 HD
ENDROOT
BRANCH   1  23
ATOM     23  S   UNL     1      37.455  29.255  50.835  0.00  0.00    +0.000 S 
BRANCH  23  26
ATOM     24  C   UNL     1      35.933  30.130  48.627  0.00  0.00    +0.000 C 
ATOM     25  C   UNL     1      34.953  30.080  49.711  0.00  0.00    +0.000 C 
ATOM     26  C   UNL     1      36.071  29.080  49.671  0.00  0.00    +0.000 C 
ATOM     27  H   UNL     1      35.727  29.723  47.616  0.00  0.00    +0.000 HD
ATOM     28  H   UNL     1      33.911  29.778  49.536  0.00  0.00    +0.000 HD
ATOM     29  H   UNL     1      35.031  30.892  50.492  0.00  0.00    +0.000 HD
ATOM     30  H   UNL     1      35.719  28.056  49.425  0.00  0.00    +0.000 HD
BRANCH  24  35
ATOM     31  C   UNL     1      38.007  33.144  49.418  0.00  0.00    +0.000 A 
ATOM     32  C   UNL     1      38.982  33.059  48.419  0.00  0.00    +0.000 A 
ATOM     33  C   UNL     1      38.938  31.987  47.488  0.00  0.00    +0.000 A 
ATOM     34  N   UNL     1      37.930  31.073  47.610  0.00  0.00    +0.000 NA
ATOM     35  C   UNL     1      37.007  31.194  48.593  0.00  0.00    +0.000 A 
ATOM     36  N   UNL     1      37.023  32.208  49.498  0.00  0.00    +0.000 NA
ATOM     37  H   UNL     1      38.056  33.962  50.114  0.00  0.00    +0.000 HD
ATOM     38  H   UNL     1      39.779  33.789  48.329  0.00  0.00    +0.000 HD
ATOM     39  H   UNL     1      39.673  31.891  46.705  0.00  0.00    +0.000 HD
ENDBRANCH  24  35
ENDBRANCH  23  26
ENDBRANCH   1  23
TORSDOF 3
