
 OpenBabel03272507163D

 39 43  0  0  1  0  0  0  0  0999 V2000
   34.8110   28.9550   48.4390 C   0  0  0  0  0  0  0  0  0  0  0  0
   34.6860   29.8350   47.3570 C   0  0  0  0  0  0  0  0  0  0  0  0
   35.5080   30.5200   47.1110 H   0  0  0  0  0  0  0  0  0  0  0  0
   33.5290   29.8310   46.6060 C   0  0  0  0  0  0  0  0  0  0  0  0
   33.5020   30.5380   45.7830 H   0  0  0  0  0  0  0  0  0  0  0  0
   32.4540   29.0060   46.8450 C   0  0  0  0  0  0  0  0  0  0  0  0
   32.6040   28.1590   47.9080 C   0  0  0  0  0  0  0  0  0  0  0  0
   33.7190   28.1360   48.6610 C   0  0  0  0  0  0  0  0  0  0  0  0
   33.8130   27.4510   49.5020 H   0  0  0  0  0  0  0  0  0  0  0  0
   31.2780   27.0410   48.3170 S   0  0  0  0  0  0  0  0  0  0  0  0
   29.9980   27.3600   47.1200 C   0  0  0  0  0  0  0  0  0  0  0  0
   28.8570   26.6320   47.2040 C   0  0  0  0  0  0  0  0  0  0  0  0
   28.7340   25.8760   47.9850 H   0  0  0  0  0  0  0  0  0  0  0  0
   27.8090   26.8060   46.3220 C   0  0  0  0  0  0  0  0  0  0  0  0
   26.9010   26.2280   46.3890 H   0  0  0  0  0  0  0  0  0  0  0  0
   27.9510   27.7560   45.3340 C   0  0  0  0  0  0  0  0  0  0  0  0
   27.1610   27.9340   44.6150 H   0  0  0  0  0  0  0  0  0  0  0  0
   29.1350   28.4680   45.2940 C   0  0  0  0  0  0  0  0  0  0  0  0
   29.1950   29.2090   44.4880 H   0  0  0  0  0  0  0  0  0  0  0  0
   30.1990   28.3170   46.1590 C   0  0  0  0  0  0  0  0  0  0  0  0
   31.3380   29.1050   46.0040 N   0  0  0  0  0  0  0  0  0  0  0  0
   31.3480   29.7950   45.2250 H   0  0  0  0  0  0  0  0  0  0  0  0
   35.9800   29.0000   49.1500 O   0  0  0  0  0  0  0  0  0  0  0  0
   37.0200   30.7120   50.5720 C   0  0  1  0  0  0  0  0  0  0  0  0
   36.1820   29.5430   50.4240 C   0  0  2  0  0  0  0  0  0  0  0  0
   37.5680   29.3470   51.0070 C   0  0  0  0  0  0  0  0  0  0  0  0
   36.9990   31.4100   51.4430 H   0  0  0  0  0  0  0  0  0  0  0  0
   35.3160   29.4340   51.0980 H   0  0  0  0  0  0  0  0  0  0  0  0
   37.5730   29.0820   52.0760 H   0  0  0  0  0  0  0  0  0  0  0  0
   38.3450   28.8620   50.3810 H   0  0  0  0  0  0  0  0  0  0  0  0
   37.7800   31.2820   49.3910 C   0  0  0  0  0  0  0  0  0  0  0  0
   38.2020   32.6110   49.5120 C   0  0  0  0  0  0  0  0  0  0  0  0
   38.8770   33.1170   48.4190 C   0  0  0  0  0  0  0  0  0  0  0  0
   39.1070   32.3530   47.3050 N   0  0  0  0  0  0  0  0  0  0  0  0
   38.6750   31.0590   47.2370 C   0  0  0  0  0  0  0  0  0  0  0  0
   38.0050   30.5170   48.2890 N   0  0  0  0  0  0  0  0  0  0  0  0
   37.9970   33.1720   50.4110 H   0  0  0  0  0  0  0  0  0  0  0  0
   39.2270   34.1430   48.4590 H   0  0  0  0  0  0  0  0  0  0  0  0
   38.8600   30.4660   46.3540 H   0  0  0  0  0  0  0  0  0  0  0  0
  1  8  1  0  0  0  0
  1 23  1  0  0  0  0
  2  1  2  0  0  0  0
  3  2  1  0  0  0  0
  4  6  2  0  0  0  0
  4  2  1  0  0  0  0
  5  4  1  0  0  0  0
  6  7  1  0  0  0  0
  7 10  1  0  0  0  0
  7  8  2  0  0  0  0
  8  9  1  0  0  0  0
 11 12  1  0  0  0  0
 11 10  1  0  0  0  0
 12 13  1  0  0  0  0
 14 15  1  0  0  0  0
 14 12  2  0  0  0  0
 16 14  1  0  0  0  0
 17 16  1  0  0  0  0
 18 16  2  0  0  0  0
 18 20  1  0  0  0  0
 19 18  1  0  0  0  0
 20 11  2  0  0  0  0
 21 20  1  0  0  0  0
 21  6  1  0  0  0  0
 22 21  1  0  0  0  0
 23 25  1  0  0  0  0
 24 26  1  0  0  0  0
 24 27  1  1  0  0  0
 25 24  1  0  0  0  0
 25 26  1  0  0  0  0
 25 28  1  1  0  0  0
 26 29  1  0  0  0  0
 30 26  1  0  0  0  0
 31 32  1  0  0  0  0
 31 24  1  0  0  0  0
 32 37  1  0  0  0  0
 33 38  1  0  0  0  0
 33 32  2  0  0  0  0
 34 33  1  0  0  0  0
 35 34  2  0  0  0  0
 35 36  1  0  0  0  0
 36 31  2  0  0  0  0
 39 35  1  0  0  0  0
M  END
>  <minimizedAffinity>
-6.5405798

>  <minimizedRMSD>
4.11780787

$$$$
