
     RDKit          3D

 50 54  0  0  0  0  0  0  0  0999 V2000
   38.0212   30.3271   47.8883 F   0  0  0  0  0  0  0  0  0  0  0  0
   37.0397   30.2652   46.9393 C   0  0  0  0  0  0  0  0  0  0  0  0
   37.1895   30.7609   45.6659 C   0  0  0  0  0  0  0  0  0  0  0  0
   36.1602   30.6573   44.7836 C   0  0  0  0  0  0  0  0  0  0  0  0
   34.9442   30.0665   45.1074 C   0  0  0  0  0  0  0  0  0  0  0  0
   34.8048   29.5688   46.3987 C   0  0  0  0  0  0  0  0  0  0  0  0
   35.8460   29.6646   47.3172 C   0  0  0  0  0  0  0  0  0  0  0  0
   39.5817   33.3411   44.6565 C   0  0  0  0  0  0  0  0  0  0  0  0
   40.8091   32.6702   44.6078 C   0  0  0  0  0  0  0  0  0  0  0  0
   40.8043   31.3122   44.9281 C   0  0  0  0  0  0  0  0  0  0  0  0
   39.6348   30.6943   45.2702 N   0  0  0  0  0  0  0  0  0  0  0  0
   38.4621   31.3869   45.3045 C   0  0  0  0  0  0  0  0  0  0  0  0
   38.4527   32.7064   44.9957 N   0  0  0  0  0  0  0  0  0  0  0  0
   35.6829   29.1724   48.5652 O   0  0  0  0  0  0  0  0  0  0  0  0
   35.1206   28.9416   51.0803 O   0  0  0  0  0  0  0  0  0  0  0  0
   35.2778   29.9905   49.9846 P   0  0  2  0  0  0  0  0  0  0  0  0
   33.8539   30.8637   49.9239 O   0  0  0  0  0  0  0  0  0  0  0  0
   36.5552   31.0179   50.4766 O   0  0  0  0  0  0  0  0  0  0  0  0
   37.6126   30.3372   51.0083 C   0  0  0  0  0  0  0  0  0  0  0  0
   37.7915   29.0990   50.4429 F   0  0  0  0  0  0  0  0  0  0  0  0
   38.7373   31.0815   50.7744 F   0  0  0  0  0  0  0  0  0  0  0  0
   37.4518   30.1867   52.3835 F   0  0  0  0  0  0  0  0  0  0  0  0
   36.2450   31.0371   43.7734 H   0  0  0  0  0  0  0  0  0  0  0  0
   34.1503   30.0057   44.3709 H   0  0  0  0  0  0  0  0  0  0  0  0
   33.8490   29.1113   46.6331 H   0  0  0  0  0  0  0  0  0  0  0  0
   39.5524   34.3982   44.4127 H   0  0  0  0  0  0  0  0  0  0  0  0
   41.7313   33.1715   44.3348 H   0  0  0  0  0  0  0  0  0  0  0  0
   41.7380   30.7680   44.8991 H   0  0  0  0  0  0  0  0  0  0  0  0
   32.6616   30.3819   50.4459 C   0  0  0  0  0  0  0  0  0  0  0  0
   32.0198   31.0424   51.4727 C   0  0  0  0  0  0  0  0  0  0  0  0
   32.4292   31.9486   51.8940 H   0  0  0  0  0  0  0  0  0  0  0  0
   30.8372   30.5047   51.9419 C   0  0  0  0  0  0  0  0  0  0  0  0
   30.3699   31.0739   52.7612 H   0  0  0  0  0  0  0  0  0  0  0  0
   30.2306   29.3554   51.4744 C   0  0  0  0  0  0  0  0  0  0  0  0
   30.9211   28.7476   50.4529 C   0  0  0  0  0  0  0  0  0  0  0  0
   32.0989   29.2279   49.9409 C   0  0  0  0  0  0  0  0  0  0  0  0
   32.6138   28.7082   49.1253 H   0  0  0  0  0  0  0  0  0  0  0  0
   30.2754   27.2629   49.7433 S   0  0  0  0  0  0  0  0  0  0  0  0
   28.7752   26.8977   50.5953 C   0  0  0  0  0  0  0  0  0  0  0  0
   28.0222   25.8202   50.2977 C   0  0  0  0  0  0  0  0  0  0  0  0
   28.3860   25.1701   49.4920 H   0  0  0  0  0  0  0  0  0  0  0  0
   26.8385   25.4769   50.9252 C   0  0  0  0  0  0  0  0  0  0  0  0
   26.3099   24.5862   50.6074 H   0  0  0  0  0  0  0  0  0  0  0  0
   26.4332   26.3323   51.9292 C   0  0  0  0  0  0  0  0  0  0  0  0
   25.5197   26.1069   52.4455 H   0  0  0  0  0  0  0  0  0  0  0  0
   27.1992   27.4381   52.2396 C   0  0  0  0  0  0  0  0  0  0  0  0
   26.7888   28.0554   53.0543 H   0  0  0  0  0  0  0  0  0  0  0  0
   28.3770   27.7532   51.5938 C   0  0  0  0  0  0  0  0  0  0  0  0
   29.0134   28.9130   52.0472 N   0  0  0  0  0  0  0  0  0  0  0  0
   28.6308   29.5015   52.8173 H   0  0  0  0  0  0  0  0  0  0  0  0
  2  7  2  0
  2  1  1  0
  3  2  1  0
  4  5  1  0
  4  3  2  0
  5  6  2  0
  6  7  1  0
  7 14  1  0
  8 13  2  0
  9  8  1  0
  9 10  2  0
 10 11  1  0
 11 12  2  0
 12  3  1  0
 13 12  1  0
 16 14  1  6
 16 18  1  0
 16 15  2  0
 17 16  1  0
 18 19  1  0
 19 22  1  0
 20 19  1  0
 21 19  1  0
  4 23  1  0
  5 24  1  0
  6 25  1  0
  8 26  1  0
  9 27  1  0
 10 28  1  0
 29 30  2  0
 30 31  1  0
 30 32  1  0
 32 33  1  0
 32 34  2  0
 34 35  1  0
 35 36  2  0
 36 37  1  0
 35 38  1  0
 38 39  1  0
 39 40  2  0
 40 41  1  0
 40 42  1  0
 42 43  1  0
 42 44  2  0
 44 45  1  0
 44 46  1  0
 46 47  1  0
 46 48  2  0
 48 49  1  0
 49 50  1  0
 36 29  1  0
 48 39  1  0
 49 34  1  0
 17 29  1  0
M  ISO  8  23  14  24  14  25  14  26  14  27  14  28  14  31  16  33  16
M  ISO  6  37  16  41  16  43  16  45  16  47  16  50   5
M  END
>  <DihAtoms>  (1) 
15,16,28,29

>  <DihDeg>  (1) 
-106.63941610915256

$$$$
