
 OpenBabel03272501583D

 44 48  0  0  0  0  0  0  0  0999 V2000
   32.9200   27.5680   48.0160 C   0  0  0  0  0  0  0  0  0  0  0  0
   32.1870   26.4190   47.8710 C   0  0  0  0  0  0  0  0  0  0  0  0
   30.9050   26.7310   47.4390 C   0  0  0  0  0  0  0  0  0  0  0  0
   30.9020   28.0800   47.3340 N   0  0  0  0  0  0  0  0  0  0  0  0
   32.0840   28.5690   47.6720 N   0  0  0  0  0  0  0  0  0  0  0  0
   32.5060   25.3910   48.0520 H   0  0  0  0  0  0  0  0  0  0  0  0
   30.0620   26.0670   47.2220 H   0  0  0  0  0  0  0  0  0  0  0  0
   29.8360   28.9290   46.9290 C   0  0  0  0  0  0  0  0  0  0  0  0
   28.6930   29.0330   47.6820 C   0  0  0  0  0  0  0  0  0  0  0  0
   28.6170   28.4570   48.5910 H   0  0  0  0  0  0  0  0  0  0  0  0
   27.6760   29.8650   47.2660 C   0  0  0  0  0  0  0  0  0  0  0  0
   26.8030   29.8830   47.9310 H   0  0  0  0  0  0  0  0  0  0  0  0
   27.7150   30.6230   46.1170 C   0  0  0  0  0  0  0  0  0  0  0  0
   28.8660   30.5030   45.3780 C   0  0  0  0  0  0  0  0  0  0  0  0
   29.8810   29.6850   45.7800 C   0  0  0  0  0  0  0  0  0  0  0  0
   30.7850   29.6090   45.1740 H   0  0  0  0  0  0  0  0  0  0  0  0
   28.9960   31.4530   43.8780 S   0  0  0  0  0  0  0  0  0  0  0  0
   27.4800   32.3740   43.7230 C   0  0  0  0  0  0  0  0  0  0  0  0
   27.3260   33.1940   42.6390 C   0  0  0  0  0  0  0  0  0  0  0  0
   28.1060   33.2830   41.8870 H   0  0  0  0  0  0  0  0  0  0  0  0
   26.1840   33.9300   42.4600 C   0  0  0  0  0  0  0  0  0  0  0  0
   26.0150   34.5890   41.6220 H   0  0  0  0  0  0  0  0  0  0  0  0
   25.1900   33.8230   43.4060 C   0  0  0  0  0  0  0  0  0  0  0  0
   24.2970   34.3860   43.2850 H   0  0  0  0  0  0  0  0  0  0  0  0
   25.3990   32.9840   44.4780 C   0  0  0  0  0  0  0  0  0  0  0  0
   24.5630   32.9510   45.1890 H   0  0  0  0  0  0  0  0  0  0  0  0
   26.5280   32.2250   44.6990 C   0  0  0  0  0  0  0  0  0  0  0  0
   26.5840   31.4140   45.8480 N   0  0  0  0  0  0  0  0  0  0  0  0
   25.7690   31.4180   46.4920 H   0  0  0  0  0  0  0  0  0  0  0  0
   34.3560   27.6650   48.4650 C   0  0  0  0  0  0  0  0  0  0  0  0
   34.6930   26.6070   48.5900 H   0  0  0  0  0  0  0  0  0  0  0  0
   34.9470   28.1640   47.6620 H   0  0  0  0  0  0  0  0  0  0  0  0
   34.3300   28.4420   49.7480 C   0  0  0  0  0  0  0  0  0  0  0  0
   33.4500   29.0790   49.8950 H   0  0  0  0  0  0  0  0  0  0  0  0
   34.3130   27.6740   50.5730 H   0  0  0  0  0  0  0  0  0  0  0  0
   37.2670   30.0950   51.2730 C   0  0  0  0  0  0  0  0  0  0  0  0
   38.0040   30.5150   50.1590 C   0  0  0  0  0  0  0  0  0  0  0  0
   37.4760   30.2200   48.8800 C   0  0  0  0  0  0  0  0  0  0  0  0
   36.2960   29.5550   48.8030 N   0  0  0  0  0  0  0  0  0  0  0  0
   35.6280   29.1740   49.9170 C   0  0  0  0  0  0  0  0  0  0  0  0
   36.1130   29.4440   51.1300 N   0  0  0  0  0  0  0  0  0  0  0  0
   37.7020   30.3380   52.2410 H   0  0  0  0  0  0  0  0  0  0  0  0
   38.9470   31.0470   50.1740 H   0  0  0  0  0  0  0  0  0  0  0  0
   37.9270   30.4780   47.9420 H   0  0  0  0  0  0  0  0  0  0  0  0
  1 30  1  0  0  0  0
  2  1  1  0  0  0  0
  2  6  1  0  0  0  0
  3  2  2  0  0  0  0
  4  3  1  0  0  0  0
  4  5  1  0  0  0  0
  5  1  2  0  0  0  0
  7  3  1  0  0  0  0
  8  4  1  0  0  0  0
  8  9  1  0  0  0  0
  9 10  1  0  0  0  0
 11  9  2  0  0  0  0
 11 12  1  0  0  0  0
 13 11  1  0  0  0  0
 14 15  1  0  0  0  0
 14 13  2  0  0  0  0
 15  8  2  0  0  0  0
 16 15  1  0  0  0  0
 17 14  1  0  0  0  0
 18 17  1  0  0  0  0
 18 27  1  0  0  0  0
 19 18  2  0  0  0  0
 20 19  1  0  0  0  0
 21 19  1  0  0  0  0
 21 23  2  0  0  0  0
 22 21  1  0  0  0  0
 23 25  1  0  0  0  0
 24 23  1  0  0  0  0
 25 27  2  0  0  0  0
 25 26  1  0  0  0  0
 27 28  1  0  0  0  0
 28 13  1  0  0  0  0
 28 29  1  0  0  0  0
 30 31  1  0  0  0  0
 30 33  1  0  0  0  0
 32 30  1  0  0  0  0
 33 34  1  0  0  0  0
 33 40  1  0  0  0  0
 33 35  1  0  0  0  0
 36 42  1  0  0  0  0
 37 43  1  0  0  0  0
 37 36  2  0  0  0  0
 38 37  1  0  0  0  0
 39 38  2  0  0  0  0
 39 40  1  0  0  0  0
 40 41  2  0  0  0  0
 41 36  1  0  0  0  0
 44 38  1  0  0  0  0
M  END
>  <minimizedAffinity>
-6.37976265

>  <minimizedRMSD>
1.61252594

$$$$
