
 OpenBabel03272507163D

 39 43  0  0  1  0  0  0  0  0999 V2000
   34.8900   28.8510   48.6060 C   0  0  0  0  0  0  0  0  0  0  0  0
   34.1490   27.6970   48.8870 C   0  0  0  0  0  0  0  0  0  0  0  0
   34.5240   26.9700   49.6200 H   0  0  0  0  0  0  0  0  0  0  0  0
   32.9510   27.4820   48.2380 C   0  0  0  0  0  0  0  0  0  0  0  0
   32.4310   26.5670   48.5050 H   0  0  0  0  0  0  0  0  0  0  0  0
   32.4100   28.3390   47.3070 C   0  0  0  0  0  0  0  0  0  0  0  0
   33.1560   29.4580   47.0540 C   0  0  0  0  0  0  0  0  0  0  0  0
   34.3280   29.6990   47.6690 C   0  0  0  0  0  0  0  0  0  0  0  0
   34.9020   30.5970   47.4490 H   0  0  0  0  0  0  0  0  0  0  0  0
   32.5590   30.6450   45.8670 S   0  0  0  0  0  0  0  0  0  0  0  0
   31.0090   29.9940   45.2770 C   0  0  0  0  0  0  0  0  0  0  0  0
   30.3320   30.7140   44.3490 C   0  0  0  0  0  0  0  0  0  0  0  0
   30.7300   31.6620   43.9790 H   0  0  0  0  0  0  0  0  0  0  0  0
   29.1240   30.2910   43.8320 C   0  0  0  0  0  0  0  0  0  0  0  0
   28.5840   30.8630   43.0930 H   0  0  0  0  0  0  0  0  0  0  0  0
   28.6100   29.0960   44.2900 C   0  0  0  0  0  0  0  0  0  0  0  0
   27.6660   28.7170   43.9180 H   0  0  0  0  0  0  0  0  0  0  0  0
   29.3420   28.4040   45.2360 C   0  0  0  0  0  0  0  0  0  0  0  0
   28.8880   27.4620   45.5640 H   0  0  0  0  0  0  0  0  0  0  0  0
   30.5500   28.7990   45.7710 C   0  0  0  0  0  0  0  0  0  0  0  0
   31.1840   28.0010   46.7230 N   0  0  0  0  0  0  0  0  0  0  0  0
   30.7130   27.1150   47.0030 H   0  0  0  0  0  0  0  0  0  0  0  0
   36.0710   29.0140   49.2790 O   0  0  0  0  0  0  0  0  0  0  0  0
   37.0700   30.8230   50.6070 C   0  0  1  0  0  0  0  0  0  0  0  0
   36.2660   29.6240   50.5240 C   0  0  2  0  0  0  0  0  0  0  0  0
   37.6610   29.4980   51.1040 C   0  0  0  0  0  0  0  0  0  0  0  0
   37.0330   31.5620   51.4440 H   0  0  0  0  0  0  0  0  0  0  0  0
   35.4090   29.5220   51.2090 H   0  0  0  0  0  0  0  0  0  0  0  0
   37.6820   29.2860   52.1840 H   0  0  0  0  0  0  0  0  0  0  0  0
   38.4480   29.0060   50.4950 H   0  0  0  0  0  0  0  0  0  0  0  0
   37.8040   31.3570   49.3930 C   0  0  0  0  0  0  0  0  0  0  0  0
   38.2900   32.6650   49.4930 C   0  0  0  0  0  0  0  0  0  0  0  0
   38.9410   33.1400   48.3710 C   0  0  0  0  0  0  0  0  0  0  0  0
   39.0880   32.3660   47.2500 N   0  0  0  0  0  0  0  0  0  0  0  0
   38.5940   31.0920   47.2040 C   0  0  0  0  0  0  0  0  0  0  0  0
   37.9460   30.5820   48.2840 N   0  0  0  0  0  0  0  0  0  0  0  0
   38.1500   33.2360   50.3980 H   0  0  0  0  0  0  0  0  0  0  0  0
   39.3390   34.1490   48.3930 H   0  0  0  0  0  0  0  0  0  0  0  0
   38.7150   30.4910   46.3150 H   0  0  0  0  0  0  0  0  0  0  0  0
  1  2  1  0  0  0  0
  1 23  1  0  0  0  0
  2  3  1  0  0  0  0
  4  5  1  0  0  0  0
  4  2  2  0  0  0  0
  6  4  1  0  0  0  0
  7  6  2  0  0  0  0
  7  8  1  0  0  0  0
  8  1  2  0  0  0  0
  9  8  1  0  0  0  0
 10  7  1  0  0  0  0
 11 20  1  0  0  0  0
 11 10  1  0  0  0  0
 12 11  2  0  0  0  0
 13 12  1  0  0  0  0
 14 16  2  0  0  0  0
 14 12  1  0  0  0  0
 15 14  1  0  0  0  0
 16 18  1  0  0  0  0
 17 16  1  0  0  0  0
 18 19  1  0  0  0  0
 18 20  2  0  0  0  0
 20 21  1  0  0  0  0
 21 22  1  0  0  0  0
 21  6  1  0  0  0  0
 23 25  1  0  0  0  0
 24 26  1  0  0  0  0
 24 27  1  1  0  0  0
 25 24  1  0  0  0  0
 25 26  1  0  0  0  0
 25 28  1  1  0  0  0
 26 29  1  0  0  0  0
 30 26  1  0  0  0  0
 31 32  1  0  0  0  0
 31 24  1  0  0  0  0
 32 37  1  0  0  0  0
 33 38  1  0  0  0  0
 33 32  2  0  0  0  0
 34 33  1  0  0  0  0
 35 34  2  0  0  0  0
 35 36  1  0  0  0  0
 36 31  2  0  0  0  0
 39 35  1  0  0  0  0
M  END
>  <minimizedAffinity>
-6.25037336

>  <minimizedRMSD>
3.50307608

$$$$
