REMARK  Name = 
REMARK  4 active torsions:
REMARK  status: ('A' for Active; 'I' for Inactive)
REMARK    1  A    between atoms: C_1  and  C_6
REMARK    2  A    between atoms: C_1  and  C_8
REMARK    3  A    between atoms: C_8  and  C_9
REMARK    4  A    between atoms: N_12  and  C_23
REMARK                            x       y       z     vdW  Elec       q    Type
REMARK                         _______ _______ _______ _____ _____    ______ ____
ROOT
ATOM      1  C   UNL     1      32.955  28.255  47.890  0.00  0.00    +0.000 A 
ATOM      2  C   UNL     1      32.019  27.585  48.635  0.00  0.00    +0.000 A 
ATOM      3  C   UNL     1      30.748  27.855  48.145  0.00  0.00    +0.000 A 
ATOM      4  N   UNL     1      30.957  28.692  47.103  0.00  0.00    +0.000 N 
ATOM      5  N   UNL     1      32.251  28.925  46.955  0.00  0.00    +0.000 NA
ATOM      6  H   UNL     1      32.186  26.928  49.491  0.00  0.00    +0.000 HD
ATOM      7  H   UNL     1      29.776  27.492  48.494  0.00  0.00    +0.000 HD
ENDROOT
BRANCH   4   8
ATOM      8  C   UNL     1      29.993  29.282  46.240  0.00  0.00    +0.000 A 
ATOM      9  C   UNL     1      28.650  29.127  46.475  0.00  0.00    +0.000 A 
ATOM     10  H   UNL     1      28.335  28.547  47.329  0.00  0.00    +0.000 HD
ATOM     11  C   UNL     1      27.738  29.710  45.622  0.00  0.00    +0.000 A 
ATOM     12  H   UNL     1      26.688  29.532  45.889  0.00  0.00    +0.000 HD
ATOM     13  C   UNL     1      28.078  30.460  44.517  0.00  0.00    +0.000 A 
ATOM     14  C   UNL     1      29.425  30.602  44.302  0.00  0.00    +0.000 A 
ATOM     15  C   UNL     1      30.339  30.029  45.139  0.00  0.00    +0.000 A 
ATOM     16  H   UNL     1      31.404  30.158  44.943  0.00  0.00    +0.000 HD
ATOM     17  S   UNL     1      29.948  31.557  42.894  0.00  0.00    +0.000 S 
ATOM     18  C   UNL     1      28.466  32.117  42.078  0.00  0.00    +0.000 A 
ATOM     19  C   UNL     1      28.595  32.883  40.951  0.00  0.00    +0.000 A 
ATOM     20  H   UNL     1      29.574  33.145  40.560  0.00  0.00    +0.000 HD
ATOM     21  C   UNL     1      27.496  33.345  40.276  0.00  0.00    +0.000 A 
ATOM     22  H   UNL     1      27.546  33.951  39.385  0.00  0.00    +0.000 HD
ATOM     23  C   UNL     1      26.251  33.018  40.764  0.00  0.00    +0.000 A 
ATOM     24  H   UNL     1      25.386  33.367  40.255  0.00  0.00    +0.000 HD
ATOM     25  C   UNL     1      26.180  32.245  41.902  0.00  0.00    +0.000 A 
ATOM     26  H   UNL     1      25.157  32.025  42.230  0.00  0.00    +0.000 HD
ATOM     27  C   UNL     1      27.256  31.758  42.613  0.00  0.00    +0.000 A 
ATOM     28  N   UNL     1      27.012  30.978  43.760  0.00  0.00    +0.000 N 
ATOM     29  H   UNL     1      26.025  30.798  44.030  0.00  0.00    +0.000 HD
ENDBRANCH   4   8
BRANCH   1  30
ATOM     30  C   UNL     1      34.448  28.230  48.094  0.00  0.00    +0.000 C 
ATOM     31  H   UNL     1      34.787  27.266  47.641  0.00  0.00    +0.000 HD
ATOM     32  H   UNL     1      34.897  29.091  47.544  0.00  0.00    +0.000 HD
BRANCH  30  33
ATOM     33  C   UNL     1      34.658  28.303  49.577  0.00  0.00    +0.000 C 
ATOM     34  H   UNL     1      33.777  28.586  50.164  0.00  0.00    +0.000 HD
ATOM     35  H   UNL     1      34.940  27.261  49.900  0.00  0.00    +0.000 HD
BRANCH  33  40
ATOM     36  C   UNL     1      37.287  30.179  51.382  0.00  0.00    +0.000 A 
ATOM     37  C   UNL     1      38.075  30.692  50.344  0.00  0.00    +0.000 A 
ATOM     38  C   UNL     1      37.688  30.382  49.019  0.00  0.00    +0.000 A 
ATOM     39  N   UNL     1      36.586  29.614  48.827  0.00  0.00    +0.000 NA
ATOM     40  C   UNL     1      35.863  29.146  49.872  0.00  0.00    +0.000 A 
ATOM     41  N   UNL     1      36.215  29.429  51.127  0.00  0.00    +0.000 NA
ATOM     42  H   UNL     1      37.613  30.436  52.388  0.00  0.00    +0.000 HD
ATOM     43  H   UNL     1      38.959  31.307  50.451  0.00  0.00    +0.000 HD
ATOM     44  H   UNL     1      38.192  30.704  48.129  0.00  0.00    +0.000 HD
ENDBRANCH  33  40
ENDBRANCH  30  33
ENDBRANCH   1  30
TORSDOF 4
