
 OpenBabel03272501583D

 44 48  0  0  0  0  0  0  0  0999 V2000
   32.9400   28.0850   47.9480 C   0  0  0  0  0  0  0  0  0  0  0  0
   31.9000   27.5770   48.6840 C   0  0  0  0  0  0  0  0  0  0  0  0
   30.6990   27.8280   48.0340 C   0  0  0  0  0  0  0  0  0  0  0  0
   31.0530   28.4890   46.9090 N   0  0  0  0  0  0  0  0  0  0  0  0
   32.3670   28.6390   46.8600 N   0  0  0  0  0  0  0  0  0  0  0  0
   31.9480   27.0490   49.6380 H   0  0  0  0  0  0  0  0  0  0  0  0
   29.6790   27.5660   48.3320 H   0  0  0  0  0  0  0  0  0  0  0  0
   30.2110   28.9870   45.8770 C   0  0  0  0  0  0  0  0  0  0  0  0
   30.2910   30.2950   45.4720 C   0  0  0  0  0  0  0  0  0  0  0  0
   31.0080   30.9440   45.9500 H   0  0  0  0  0  0  0  0  0  0  0  0
   29.4610   30.7490   44.4680 C   0  0  0  0  0  0  0  0  0  0  0  0
   29.5970   31.8070   44.2120 H   0  0  0  0  0  0  0  0  0  0  0  0
   28.5280   29.9690   43.8210 C   0  0  0  0  0  0  0  0  0  0  0  0
   28.4650   28.6650   44.2420 C   0  0  0  0  0  0  0  0  0  0  0  0
   29.2810   28.2020   45.2350 C   0  0  0  0  0  0  0  0  0  0  0  0
   29.2080   27.1620   45.5500 H   0  0  0  0  0  0  0  0  0  0  0  0
   27.2830   27.5910   43.4550 S   0  0  0  0  0  0  0  0  0  0  0  0
   26.4320   28.5740   42.2370 C   0  0  0  0  0  0  0  0  0  0  0  0
   25.4610   27.9740   41.4830 C   0  0  0  0  0  0  0  0  0  0  0  0
   25.2090   26.9270   41.6210 H   0  0  0  0  0  0  0  0  0  0  0  0
   24.7690   28.6740   40.5290 C   0  0  0  0  0  0  0  0  0  0  0  0
   23.9950   28.2470   39.9100 H   0  0  0  0  0  0  0  0  0  0  0  0
   25.0790   30.0020   40.3470 C   0  0  0  0  0  0  0  0  0  0  0  0
   24.5540   30.5620   39.6110 H   0  0  0  0  0  0  0  0  0  0  0  0
   26.0660   30.5540   41.1330 C   0  0  0  0  0  0  0  0  0  0  0  0
   26.2590   31.6150   40.9310 H   0  0  0  0  0  0  0  0  0  0  0  0
   26.7870   29.8920   42.1030 C   0  0  0  0  0  0  0  0  0  0  0  0
   27.7670   30.6030   42.8230 N   0  0  0  0  0  0  0  0  0  0  0  0
   27.9110   31.6060   42.5940 H   0  0  0  0  0  0  0  0  0  0  0  0
   34.4030   28.0230   48.3020 C   0  0  0  0  0  0  0  0  0  0  0  0
   34.7000   26.9600   48.1280 H   0  0  0  0  0  0  0  0  0  0  0  0
   34.9660   28.6970   47.6130 H   0  0  0  0  0  0  0  0  0  0  0  0
   34.4920   28.4430   49.7390 C   0  0  0  0  0  0  0  0  0  0  0  0
   33.6040   28.9440   50.1390 H   0  0  0  0  0  0  0  0  0  0  0  0
   34.6200   27.4920   50.3310 H   0  0  0  0  0  0  0  0  0  0  0  0
   37.3140   30.1890   51.3760 C   0  0  0  0  0  0  0  0  0  0  0  0
   38.0800   30.6330   50.2910 C   0  0  0  0  0  0  0  0  0  0  0  0
   37.6120   30.3210   48.9930 C   0  0  0  0  0  0  0  0  0  0  0  0
   36.4570   29.6190   48.8700 N   0  0  0  0  0  0  0  0  0  0  0  0
   35.7590   29.2160   49.9580 C   0  0  0  0  0  0  0  0  0  0  0  0
   36.1870   29.5010   51.1890 N   0  0  0  0  0  0  0  0  0  0  0  0
   37.7030   30.4450   52.3600 H   0  0  0  0  0  0  0  0  0  0  0  0
   39.0040   31.1940   50.3430 H   0  0  0  0  0  0  0  0  0  0  0  0
   38.0900   30.5950   48.0730 H   0  0  0  0  0  0  0  0  0  0  0  0
  1 30  1  0  0  0  0
  1  2  1  0  0  0  0
  2  6  1  0  0  0  0
  3  7  1  0  0  0  0
  3  2  2  0  0  0  0
  4  3  1  0  0  0  0
  5  4  1  0  0  0  0
  5  1  2  0  0  0  0
  8  4  1  0  0  0  0
  9  8  1  0  0  0  0
  9 10  1  0  0  0  0
 11  9  2  0  0  0  0
 12 11  1  0  0  0  0
 13 14  2  0  0  0  0
 13 11  1  0  0  0  0
 14 15  1  0  0  0  0
 15 16  1  0  0  0  0
 15  8  2  0  0  0  0
 17 14  1  0  0  0  0
 18 17  1  0  0  0  0
 19 20  1  0  0  0  0
 19 18  2  0  0  0  0
 21 19  1  0  0  0  0
 22 21  1  0  0  0  0
 23 21  2  0  0  0  0
 23 25  1  0  0  0  0
 24 23  1  0  0  0  0
 25 27  2  0  0  0  0
 26 25  1  0  0  0  0
 27 18  1  0  0  0  0
 27 28  1  0  0  0  0
 28 13  1  0  0  0  0
 29 28  1  0  0  0  0
 30 33  1  0  0  0  0
 31 30  1  0  0  0  0
 32 30  1  0  0  0  0
 33 40  1  0  0  0  0
 33 34  1  0  0  0  0
 33 35  1  0  0  0  0
 36 42  1  0  0  0  0
 37 43  1  0  0  0  0
 37 36  2  0  0  0  0
 38 37  1  0  0  0  0
 39 38  2  0  0  0  0
 39 40  1  0  0  0  0
 40 41  2  0  0  0  0
 41 36  1  0  0  0  0
 44 38  1  0  0  0  0
M  END
>  <minimizedAffinity>
-5.43282509

>  <minimizedRMSD>
0.760549545

$$$$
