REMARK  Name = 
REMARK  3 active torsions:
REMARK  status: ('A' for Active; 'I' for Inactive)
REMARK    1  A    between atoms: C_1  and  C_7
REMARK    2  A    between atoms: C_8  and  O_10
REMARK    3  A    between atoms: O_10  and  C_18
REMARK                            x       y       z     vdW  Elec       q    Type
REMARK                         _______ _______ _______ _____ _____    ______ ____
ROOT
ATOM      1  C   UNL     1      35.551  27.716  49.278  0.00  0.00    +0.000 A 
ATOM      2  C   UNL     1      34.606  27.981  48.279  0.00  0.00    +0.000 A 
ATOM      3  H   UNL     1      34.546  28.983  47.834  0.00  0.00    +0.000 HD
ATOM      4  C   UNL     1      33.758  26.978  47.860  0.00  0.00    +0.000 A 
ATOM      5  H   UNL     1      33.052  27.254  47.083  0.00  0.00    +0.000 HD
ATOM      6  C   UNL     1      33.767  25.697  48.363  0.00  0.00    +0.000 A 
ATOM      7  C   UNL     1      34.699  25.468  49.337  0.00  0.00    +0.000 A 
ATOM      8  C   UNL     1      35.542  26.424  49.769  0.00  0.00    +0.000 A 
ATOM      9  H   UNL     1      36.275  26.215  50.546  0.00  0.00    +0.000 HD
ATOM     10  S   UNL     1      34.807  23.846  50.066  0.00  0.00    +0.000 S 
ATOM     11  C   UNL     1      33.556  22.872  49.254  0.00  0.00    +0.000 A 
ATOM     12  C   UNL     1      33.422  21.575  49.627  0.00  0.00    +0.000 A 
ATOM     13  H   UNL     1      34.064  21.148  50.402  0.00  0.00    +0.000 HD
ATOM     14  C   UNL     1      32.482  20.741  49.055  0.00  0.00    +0.000 A 
ATOM     15  H   UNL     1      32.374  19.710  49.351  0.00  0.00    +0.000 HD
ATOM     16  C   UNL     1      31.665  21.267  48.077  0.00  0.00    +0.000 A 
ATOM     17  H   UNL     1      30.911  20.658  47.595  0.00  0.00    +0.000 HD
ATOM     18  C   UNL     1      31.846  22.594  47.736  0.00  0.00    +0.000 A 
ATOM     19  H   UNL     1      31.171  22.960  46.953  0.00  0.00    +0.000 HD
ATOM     20  C   UNL     1      32.775  23.451  48.287  0.00  0.00    +0.000 A 
ATOM     21  N   UNL     1      32.849  24.772  47.848  0.00  0.00    +0.000 N 
ATOM     22  H   UNL     1      32.187  25.073  47.103  0.00  0.00    +0.000 HD
ENDROOT
BRANCH   1  23
ATOM     23  O   UNL     1      36.367  28.748  49.655  0.00  0.00    +0.000 OA
BRANCH  23  25
ATOM     24  C   UNL     1      36.646  31.035  50.507  0.00  0.00    +0.000 C 
ATOM     25  C   UNL     1      36.139  29.690  50.665  0.00  0.00    +0.000 C 
ATOM     26  C   UNL     1      37.355  30.085  51.480  0.00  0.00    +0.000 C 
ATOM     27  H   UNL     1      36.268  31.931  51.056  0.00  0.00    +0.000 HD
ATOM     28  H   UNL     1      35.182  29.553  51.195  0.00  0.00    +0.000 HD
ATOM     29  H   UNL     1      37.163  30.175  52.560  0.00  0.00    +0.000 HD
ATOM     30  H   UNL     1      38.344  29.672  51.193  0.00  0.00    +0.000 HD
BRANCH  24  31
ATOM     31  C   UNL     1      37.524  31.405  49.328  0.00  0.00    +0.000 A 
ATOM     32  C   UNL     1      38.144  32.658  49.390  0.00  0.00    +0.000 A 
ATOM     33  C   UNL     1      38.926  32.984  48.299  0.00  0.00    +0.000 A 
ATOM     34  N   UNL     1      39.069  32.125  47.242  0.00  0.00    +0.000 NA
ATOM     35  C   UNL     1      38.442  30.911  47.230  0.00  0.00    +0.000 A 
ATOM     36  N   UNL     1      37.662  30.547  48.282  0.00  0.00    +0.000 NA
ATOM     37  H   UNL     1      38.001  33.300  50.246  0.00  0.00    +0.000 HD
ATOM     38  H   UNL     1      39.431  33.944  48.295  0.00  0.00    +0.000 HD
ATOM     39  H   UNL     1      38.561  30.242  46.391  0.00  0.00    +0.000 HD
ENDBRANCH  24  31
ENDBRANCH  23  25
ENDBRANCH   1  23
TORSDOF 3
