
 OpenBabel03272503433D

 54 59  0  0  1  0  0  0  0  0999 V2000
   40.6030   26.1290   29.8110 C   0  0  2  0  0  0  0  0  0  0  0  0
   41.6280   26.8210   30.7110 C   0  0  1  0  0  0  0  0  0  0  0  0
   41.3350   28.2510   30.3410 C   0  0  0  0  0  0  0  0  0  0  0  0
   41.0160   28.2600   29.0040 O   0  0  0  0  0  0  0  0  0  0  0  0
   40.8150   26.9880   28.5600 C   0  0  0  0  0  0  0  0  0  0  0  0
   40.8570   25.0690   29.6460 H   0  0  0  0  0  0  0  0  0  0  0  0
   42.6600   26.5630   30.4440 H   0  0  0  0  0  0  0  0  0  0  0  0
   40.5510   28.6450   30.9980 H   0  0  0  0  0  0  0  0  0  0  0  0
   42.2840   28.8210   30.5640 H   0  0  0  0  0  0  0  0  0  0  0  0
   41.7270   26.6530   28.0360 H   0  0  0  0  0  0  0  0  0  0  0  0
   39.9100   26.9750   27.9150 H   0  0  0  0  0  0  0  0  0  0  0  0
   41.1090   25.5300   34.0260 C   0  0  0  0  0  0  0  0  0  0  0  0
   40.8550   26.8520   34.2450 C   0  0  0  0  0  0  0  0  0  0  0  0
   41.0300   27.4570   33.0010 C   0  0  0  0  0  0  0  0  0  0  0  0
   41.3720   26.5310   32.0970 N   0  0  0  0  0  0  0  0  0  0  0  0
   41.4200   25.3510   32.7260 N   0  0  0  0  0  0  0  0  0  0  0  0
   40.5740   27.3100   35.1980 H   0  0  0  0  0  0  0  0  0  0  0  0
   40.8840   28.5330   32.8900 H   0  0  0  0  0  0  0  0  0  0  0  0
   39.9060   23.1060   36.6260 C   0  0  0  0  0  0  0  0  0  0  0  0
   39.9090   24.0980   35.6710 C   0  0  0  0  0  0  0  0  0  0  0  0
   41.0540   24.4980   35.0300 C   0  0  0  0  0  0  0  0  0  0  0  0
   42.2010   23.8570   35.3880 N   0  0  0  0  0  0  0  0  0  0  0  0
   42.1890   22.8720   36.3350 C   0  0  0  0  0  0  0  0  0  0  0  0
   41.0850   22.4970   36.9450 N   0  0  0  0  0  0  0  0  0  0  0  0
   39.0160   24.6380   35.3550 H   0  0  0  0  0  0  0  0  0  0  0  0
   43.1290   22.3700   36.6060 H   0  0  0  0  0  0  0  0  0  0  0  0
   38.6540   22.8430   37.1600 O   0  0  0  0  0  0  0  0  0  0  0  0
   38.1820   23.4580   38.3390 C   0  0  0  0  0  0  0  0  0  0  0  0
   37.2140   22.7030   38.9770 F   0  0  0  0  0  0  0  0  0  0  0  0
   37.6930   24.6970   38.0190 F   0  0  0  0  0  0  0  0  0  0  0  0
   39.2470   23.6340   39.2040 F   0  0  0  0  0  0  0  0  0  0  0  0
   39.3550   26.3900   30.3510 O   0  0  0  0  0  0  0  0  0  0  0  0
   38.4030   25.4810   30.7240 C   0  0  0  0  0  0  0  0  0  0  0  0
   37.1150   25.7850   31.1140 C   0  0  0  0  0  0  0  0  0  0  0  0
   36.8200   26.8240   31.1310 H   0  0  0  0  0  0  0  0  0  0  0  0
   36.2570   24.7640   31.4650 C   0  0  0  0  0  0  0  0  0  0  0  0
   35.2500   25.0930   31.7630 H   0  0  0  0  0  0  0  0  0  0  0  0
   36.5740   23.4210   31.4650 C   0  0  0  0  0  0  0  0  0  0  0  0
   37.8510   23.1550   31.0740 C   0  0  0  0  0  0  0  0  0  0  0  0
   38.7310   24.1410   30.7180 C   0  0  0  0  0  0  0  0  0  0  0  0
   39.7490   23.8530   30.4130 H   0  0  0  0  0  0  0  0  0  0  0  0
   38.3960   21.4580   31.0260 S   0  0  0  0  0  0  0  0  0  0  0  0
   37.0170   20.4750   31.5410 C   0  0  0  0  0  0  0  0  0  0  0  0
   37.1460   19.1320   31.6000 C   0  0  0  0  0  0  0  0  0  0  0  0
   38.0610   18.6020   31.3450 H   0  0  0  0  0  0  0  0  0  0  0  0
   36.0890   18.3050   31.9990 C   0  0  0  0  0  0  0  0  0  0  0  0
   36.1580   17.2260   32.0570 H   0  0  0  0  0  0  0  0  0  0  0  0
   34.8960   18.9100   32.3370 C   0  0  0  0  0  0  0  0  0  0  0  0
   34.0800   18.2970   32.6430 H   0  0  0  0  0  0  0  0  0  0  0  0
   34.8240   20.2850   32.2580 C   0  0  0  0  0  0  0  0  0  0  0  0
   33.8520   20.6870   32.5400 H   0  0  0  0  0  0  0  0  0  0  0  0
   35.8510   21.1170   31.8670 C   0  0  0  0  0  0  0  0  0  0  0  0
   35.5970   22.5020   31.8460 N   0  0  0  0  0  0  0  0  0  0  0  0
   34.6550   22.8540   32.1210 H   0  0  0  0  0  0  0  0  0  0  0  0
  1  6  1  6  0  0  0
  1 32  1  0  0  0  0
  1  2  1  0  0  0  0
  2  7  1  6  0  0  0
  2 15  1  0  0  0  0
  3  9  1  0  0  0  0
  3  2  1  0  0  0  0
  3  8  1  0  0  0  0
  4  3  1  0  0  0  0
  5  4  1  0  0  0  0
  5  1  1  0  0  0  0
 10  5  1  0  0  0  0
 11  5  1  0  0  0  0
 12 13  1  0  0  0  0
 12 21  1  0  0  0  0
 13 17  1  0  0  0  0
 14 13  2  0  0  0  0
 15 16  1  0  0  0  0
 15 14  1  0  0  0  0
 16 12  2  0  0  0  0
 18 14  1  0  0  0  0
 19 24  1  0  0  0  0
 19 27  1  0  0  0  0
 20 19  2  0  0  0  0
 21 22  2  0  0  0  0
 21 20  1  0  0  0  0
 22 23  1  0  0  0  0
 23 26  1  0  0  0  0
 23 24  2  0  0  0  0
 25 20  1  0  0  0  0
 27 28  1  0  0  0  0
 28 29  1  0  0  0  0
 28 31  1  0  0  0  0
 30 28  1  0  0  0  0
 32 33  1  0  0  0  0
 33 34  1  0  0  0  0
 34 35  1  0  0  0  0
 34 36  2  0  0  0  0
 36 37  1  0  0  0  0
 38 36  1  0  0  0  0
 38 53  1  0  0  0  0
 39 38  2  0  0  0  0
 40 33  2  0  0  0  0
 40 39  1  0  0  0  0
 41 40  1  0  0  0  0
 42 39  1  0  0  0  0
 42 43  1  0  0  0  0
 43 44  2  0  0  0  0
 43 52  1  0  0  0  0
 44 46  1  0  0  0  0
 45 44  1  0  0  0  0
 46 47  1  0  0  0  0
 46 48  2  0  0  0  0
 48 49  1  0  0  0  0
 50 48  1  0  0  0  0
 50 51  1  0  0  0  0
 52 50  2  0  0  0  0
 53 52  1  0  0  0  0
 53 54  1  0  0  0  0
M  END
>  <minimizedAffinity>
-6.84365845

$$$$

 OpenBabel03272503433D

 54 59  0  0  1  0  0  0  0  0999 V2000
   36.2920   28.2510   32.3810 C   0  0  2  0  0  0  0  0  0  0  0  0
   36.5580   27.9470   30.9050 C   0  0  1  0  0  0  0  0  0  0  0  0
   37.3640   29.1690   30.5560 C   0  0  0  0  0  0  0  0  0  0  0  0
   36.8380   30.2140   31.2800 O   0  0  0  0  0  0  0  0  0  0  0  0
   35.9820   29.7440   32.2290 C   0  0  0  0  0  0  0  0  0  0  0  0
   35.4330   27.6770   32.7660 H   0  0  0  0  0  0  0  0  0  0  0  0
   35.6360   27.9170   30.3110 H   0  0  0  0  0  0  0  0  0  0  0  0
   38.4260   28.9730   30.7480 H   0  0  0  0  0  0  0  0  0  0  0  0
   37.2390   29.3070   29.4430 H   0  0  0  0  0  0  0  0  0  0  0  0
   34.9500   29.8680   31.8600 H   0  0  0  0  0  0  0  0  0  0  0  0
   36.1750   30.2850   33.1800 H   0  0  0  0  0  0  0  0  0  0  0  0
   37.9300   24.6250   30.7990 C   0  0  0  0  0  0  0  0  0  0  0  0
   38.9540   25.3220   30.2260 C   0  0  0  0  0  0  0  0  0  0  0  0
   38.5190   26.6470   30.2180 C   0  0  0  0  0  0  0  0  0  0  0  0
   37.2980   26.7210   30.7600 N   0  0  0  0  0  0  0  0  0  0  0  0
   36.9380   25.4820   31.1160 N   0  0  0  0  0  0  0  0  0  0  0  0
   39.8980   24.9070   29.8630 H   0  0  0  0  0  0  0  0  0  0  0  0
   39.1580   27.4310   29.8070 H   0  0  0  0  0  0  0  0  0  0  0  0
   37.4510   21.2300   32.3240 C   0  0  0  0  0  0  0  0  0  0  0  0
   37.4380   22.5970   32.1550 C   0  0  0  0  0  0  0  0  0  0  0  0
   37.9210   23.2020   31.0230 C   0  0  0  0  0  0  0  0  0  0  0  0
   38.4180   22.3750   30.0620 N   0  0  0  0  0  0  0  0  0  0  0  0
   38.4250   21.0200   30.2360 C   0  0  0  0  0  0  0  0  0  0  0  0
   37.9610   20.4500   31.3270 N   0  0  0  0  0  0  0  0  0  0  0  0
   37.0510   23.2950   32.8970 H   0  0  0  0  0  0  0  0  0  0  0  0
   38.8330   20.3740   29.4450 H   0  0  0  0  0  0  0  0  0  0  0  0
   36.9200   20.8070   33.5330 O   0  0  0  0  0  0  0  0  0  0  0  0
   35.5750   20.4060   33.6780 C   0  0  0  0  0  0  0  0  0  0  0  0
   34.7430   21.0040   32.7480 F   0  0  0  0  0  0  0  0  0  0  0  0
   35.1660   20.7030   34.9510 F   0  0  0  0  0  0  0  0  0  0  0  0
   35.5020   19.0340   33.5200 F   0  0  0  0  0  0  0  0  0  0  0  0
   37.4950   28.0890   33.0470 O   0  0  0  0  0  0  0  0  0  0  0  0
   37.8350   27.0910   33.9180 C   0  0  0  0  0  0  0  0  0  0  0  0
   37.0470   26.6290   34.9520 C   0  0  0  0  0  0  0  0  0  0  0  0
   36.0790   27.0850   35.0990 H   0  0  0  0  0  0  0  0  0  0  0  0
   37.5170   25.6130   35.7580 C   0  0  0  0  0  0  0  0  0  0  0  0
   36.8260   25.3050   36.5580 H   0  0  0  0  0  0  0  0  0  0  0  0
   38.7410   24.9910   35.6240 C   0  0  0  0  0  0  0  0  0  0  0  0
   39.4930   25.4690   34.5940 C   0  0  0  0  0  0  0  0  0  0  0  0
   39.0610   26.4760   33.7740 C   0  0  0  0  0  0  0  0  0  0  0  0
   39.7220   26.8130   32.9610 H   0  0  0  0  0  0  0  0  0  0  0  0
   41.1010   24.7550   34.3050 S   0  0  0  0  0  0  0  0  0  0  0  0
   41.3210   23.5030   35.5350 C   0  0  0  0  0  0  0  0  0  0  0  0
   42.4660   22.7870   35.5560 C   0  0  0  0  0  0  0  0  0  0  0  0
   43.2810   22.9330   34.8500 H   0  0  0  0  0  0  0  0  0  0  0  0
   42.6950   21.7840   36.5060 C   0  0  0  0  0  0  0  0  0  0  0  0
   43.6000   21.1930   36.5500 H   0  0  0  0  0  0  0  0  0  0  0  0
   41.7030   21.5450   37.4340 C   0  0  0  0  0  0  0  0  0  0  0  0
   41.8580   20.7860   38.1650 H   0  0  0  0  0  0  0  0  0  0  0  0
   40.5550   22.3070   37.3640 C   0  0  0  0  0  0  0  0  0  0  0  0
   39.8200   22.0580   38.1290 H   0  0  0  0  0  0  0  0  0  0  0  0
   40.3100   23.2970   36.4370 C   0  0  0  0  0  0  0  0  0  0  0  0
   39.0780   23.9750   36.5170 N   0  0  0  0  0  0  0  0  0  0  0  0
   38.3970   23.7130   37.2610 H   0  0  0  0  0  0  0  0  0  0  0  0
  1  6  1  1  0  0  0
  1 32  1  0  0  0  0
  2  7  1  6  0  0  0
  2  1  1  0  0  0  0
  3  8  1  0  0  0  0
  3  2  1  0  0  0  0
  3  4  1  0  0  0  0
  4  5  1  0  0  0  0
  5  1  1  0  0  0  0
  5 11  1  0  0  0  0
  9  3  1  0  0  0  0
 10  5  1  0  0  0  0
 12 21  1  0  0  0  0
 12 16  2  0  0  0  0
 13 12  1  0  0  0  0
 14 13  2  0  0  0  0
 14 15  1  0  0  0  0
 15  2  1  0  0  0  0
 15 16  1  0  0  0  0
 17 13  1  0  0  0  0
 18 14  1  0  0  0  0
 19 27  1  0  0  0  0
 20 19  1  0  0  0  0
 20 25  1  0  0  0  0
 21 20  2  0  0  0  0
 22 23  2  0  0  0  0
 22 21  1  0  0  0  0
 23 24  1  0  0  0  0
 24 19  2  0  0  0  0
 26 23  1  0  0  0  0
 27 28  1  0  0  0  0
 28 30  1  0  0  0  0
 29 28  1  0  0  0  0
 31 28  1  0  0  0  0
 32 33  1  0  0  0  0
 33 34  1  0  0  0  0
 34 35  1  0  0  0  0
 34 36  2  0  0  0  0
 36 37  1  0  0  0  0
 38 36  1  0  0  0  0
 38 53  1  0  0  0  0
 39 38  2  0  0  0  0
 40 33  2  0  0  0  0
 40 39  1  0  0  0  0
 41 40  1  0  0  0  0
 42 39  1  0  0  0  0
 42 43  1  0  0  0  0
 43 44  2  0  0  0  0
 43 52  1  0  0  0  0
 44 46  1  0  0  0  0
 45 44  1  0  0  0  0
 46 47  1  0  0  0  0
 46 48  2  0  0  0  0
 48 49  1  0  0  0  0
 50 48  1  0  0  0  0
 50 51  1  0  0  0  0
 52 53  1  0  0  0  0
 52 50  2  0  0  0  0
 53 54  1  0  0  0  0
M  END
>  <minimizedAffinity>
-6.83529234

$$$$

 OpenBabel03272503433D

 54 59  0  0  1  0  0  0  0  0999 V2000
   39.7100   26.7250   28.5590 C   0  0  2  0  0  0  0  0  0  0  0  0
   40.1640   25.4700   29.3070 C   0  0  1  0  0  0  0  0  0  0  0  0
   41.5850   25.8740   29.5980 C   0  0  0  0  0  0  0  0  0  0  0  0
   42.0220   26.6030   28.5170 O   0  0  0  0  0  0  0  0  0  0  0  0
   40.9710   26.9270   27.7130 C   0  0  0  0  0  0  0  0  0  0  0  0
   38.8150   26.5310   27.9460 H   0  0  0  0  0  0  0  0  0  0  0  0
   40.1450   24.5760   28.6740 H   0  0  0  0  0  0  0  0  0  0  0  0
   41.6240   26.4110   30.5540 H   0  0  0  0  0  0  0  0  0  0  0  0
   42.1530   24.9070   29.7270 H   0  0  0  0  0  0  0  0  0  0  0  0
   40.9560   26.2280   26.8600 H   0  0  0  0  0  0  0  0  0  0  0  0
   41.0740   27.9900   27.4060 H   0  0  0  0  0  0  0  0  0  0  0  0
   38.6230   25.2990   32.5510 C   0  0  0  0  0  0  0  0  0  0  0  0
   37.7260   24.5710   31.8240 C   0  0  0  0  0  0  0  0  0  0  0  0
   38.2360   24.5740   30.5270 C   0  0  0  0  0  0  0  0  0  0  0  0
   39.3780   25.2710   30.4970 N   0  0  0  0  0  0  0  0  0  0  0  0
   39.6140   25.7140   31.7370 N   0  0  0  0  0  0  0  0  0  0  0  0
   36.8150   24.0990   32.2030 H   0  0  0  0  0  0  0  0  0  0  0  0
   37.7040   24.0540   29.7280 H   0  0  0  0  0  0  0  0  0  0  0  0
   38.0220   24.9730   36.2410 C   0  0  0  0  0  0  0  0  0  0  0  0
   38.1070   24.6640   34.9020 C   0  0  0  0  0  0  0  0  0  0  0  0
   38.5180   25.5730   33.9620 C   0  0  0  0  0  0  0  0  0  0  0  0
   38.8430   26.8130   34.4230 N   0  0  0  0  0  0  0  0  0  0  0  0
   38.7580   27.1120   35.7530 C   0  0  0  0  0  0  0  0  0  0  0  0
   38.3610   26.2320   36.6470 N   0  0  0  0  0  0  0  0  0  0  0  0
   37.8570   23.6860   34.4890 H   0  0  0  0  0  0  0  0  0  0  0  0
   39.0250   28.1210   36.1000 H   0  0  0  0  0  0  0  0  0  0  0  0
   37.5870   23.9240   37.0350 O   0  0  0  0  0  0  0  0  0  0  0  0
   38.0500   23.7210   38.3530 C   0  0  0  0  0  0  0  0  0  0  0  0
   39.3870   23.3670   38.3940 F   0  0  0  0  0  0  0  0  0  0  0  0
   37.2790   22.7550   38.9420 F   0  0  0  0  0  0  0  0  0  0  0  0
   37.8810   24.8930   39.0680 F   0  0  0  0  0  0  0  0  0  0  0  0
   39.6100   27.7380   29.4980 O   0  0  0  0  0  0  0  0  0  0  0  0
   38.5610   28.5950   29.6880 C   0  0  0  0  0  0  0  0  0  0  0  0
   38.2930   29.7130   28.9250 C   0  0  0  0  0  0  0  0  0  0  0  0
   38.9590   29.9430   28.1070 H   0  0  0  0  0  0  0  0  0  0  0  0
   37.1960   30.4920   29.2300 C   0  0  0  0  0  0  0  0  0  0  0  0
   37.0550   31.3630   28.5730 H   0  0  0  0  0  0  0  0  0  0  0  0
   36.3100   30.2520   30.2600 C   0  0  0  0  0  0  0  0  0  0  0  0
   36.6020   29.1410   30.9920 C   0  0  0  0  0  0  0  0  0  0  0  0
   37.6810   28.3450   30.7210 C   0  0  0  0  0  0  0  0  0  0  0  0
   37.8570   27.4620   31.3540 H   0  0  0  0  0  0  0  0  0  0  0  0
   35.5380   28.7110   32.3570 S   0  0  0  0  0  0  0  0  0  0  0  0
   34.2690   29.9430   32.4090 C   0  0  0  0  0  0  0  0  0  0  0  0
   33.3100   29.8680   33.3580 C   0  0  0  0  0  0  0  0  0  0  0  0
   33.2650   29.0810   34.1080 H   0  0  0  0  0  0  0  0  0  0  0  0
   32.2820   30.8140   33.4470 C   0  0  0  0  0  0  0  0  0  0  0  0
   31.4980   30.7820   34.1930 H   0  0  0  0  0  0  0  0  0  0  0  0
   32.2770   31.8410   32.5260 C   0  0  0  0  0  0  0  0  0  0  0  0
   31.5020   32.5710   32.5780 H   0  0  0  0  0  0  0  0  0  0  0  0
   33.2820   31.8660   31.5820 C   0  0  0  0  0  0  0  0  0  0  0  0
   33.2090   32.7060   30.8910 H   0  0  0  0  0  0  0  0  0  0  0  0
   34.3020   30.9460   31.4760 C   0  0  0  0  0  0  0  0  0  0  0  0
   35.2440   31.1310   30.4450 N   0  0  0  0  0  0  0  0  0  0  0  0
   35.1450   31.9450   29.8020 H   0  0  0  0  0  0  0  0  0  0  0  0
  1  6  1  6  0  0  0
  1  2  1  0  0  0  0
  1 32  1  0  0  0  0
  2  7  1  6  0  0  0
  2  3  1  0  0  0  0
  2 15  1  0  0  0  0
  3  9  1  0  0  0  0
  3  8  1  0  0  0  0
  4  3  1  0  0  0  0
  5  4  1  0  0  0  0
  5  1  1  0  0  0  0
 10  5  1  0  0  0  0
 11  5  1  0  0  0  0
 12 21  1  0  0  0  0
 13 17  1  0  0  0  0
 13 12  1  0  0  0  0
 14 13  2  0  0  0  0
 15 14  1  0  0  0  0
 15 16  1  0  0  0  0
 16 12  2  0  0  0  0
 18 14  1  0  0  0  0
 19 24  1  0  0  0  0
 19 27  1  0  0  0  0
 20 19  2  0  0  0  0
 21 22  2  0  0  0  0
 21 20  1  0  0  0  0
 22 23  1  0  0  0  0
 23 26  1  0  0  0  0
 23 24  2  0  0  0  0
 25 20  1  0  0  0  0
 27 28  1  0  0  0  0
 28 29  1  0  0  0  0
 28 30  1  0  0  0  0
 28 31  1  0  0  0  0
 32 33  1  0  0  0  0
 33 40  1  0  0  0  0
 34 36  1  0  0  0  0
 34 33  2  0  0  0  0
 35 34  1  0  0  0  0
 36 38  2  0  0  0  0
 37 36  1  0  0  0  0
 38 53  1  0  0  0  0
 38 39  1  0  0  0  0
 39 42  1  0  0  0  0
 40 39  2  0  0  0  0
 40 41  1  0  0  0  0
 42 43  1  0  0  0  0
 43 44  1  0  0  0  0
 44 46  2  0  0  0  0
 44 45  1  0  0  0  0
 46 47  1  0  0  0  0
 48 49  1  0  0  0  0
 48 46  1  0  0  0  0
 50 48  2  0  0  0  0
 51 50  1  0  0  0  0
 52 50  1  0  0  0  0
 52 43  2  0  0  0  0
 53 52  1  0  0  0  0
 54 53  1  0  0  0  0
M  END
>  <minimizedAffinity>
-6.55254889

$$$$

 OpenBabel03272503433D

 54 59  0  0  1  0  0  0  0  0999 V2000
   37.8980   28.2080   32.1610 C   0  0  2  0  0  0  0  0  0  0  0  0
   36.8170   29.0210   31.4460 C   0  0  1  0  0  0  0  0  0  0  0  0
   36.5400   28.0850   30.3000 C   0  0  0  0  0  0  0  0  0  0  0  0
   37.7400   27.5050   29.9590 O   0  0  0  0  0  0  0  0  0  0  0  0
   38.6740   27.7610   30.9180 C   0  0  0  0  0  0  0  0  0  0  0  0
   38.5010   28.8380   32.8340 H   0  0  0  0  0  0  0  0  0  0  0  0
   37.1940   29.9800   31.0710 H   0  0  0  0  0  0  0  0  0  0  0  0
   35.7580   27.3730   30.5890 H   0  0  0  0  0  0  0  0  0  0  0  0
   36.1230   28.7320   29.4740 H   0  0  0  0  0  0  0  0  0  0  0  0
   39.3140   28.5900   30.5680 H   0  0  0  0  0  0  0  0  0  0  0  0
   39.2400   26.8270   31.1210 H   0  0  0  0  0  0  0  0  0  0  0  0
   34.3480   29.8190   33.9340 C   0  0  0  0  0  0  0  0  0  0  0  0
   33.5770   29.1190   33.0520 C   0  0  0  0  0  0  0  0  0  0  0  0
   34.4520   28.7550   32.0290 C   0  0  0  0  0  0  0  0  0  0  0  0
   35.6760   29.2210   32.3000 N   0  0  0  0  0  0  0  0  0  0  0  0
   35.6120   29.8720   33.4670 N   0  0  0  0  0  0  0  0  0  0  0  0
   32.5090   28.9040   33.1520 H   0  0  0  0  0  0  0  0  0  0  0  0
   34.0880   28.1750   31.1790 H   0  0  0  0  0  0  0  0  0  0  0  0
   33.9860   31.9870   36.9760 C   0  0  0  0  0  0  0  0  0  0  0  0
   34.4740   31.4610   35.8000 C   0  0  0  0  0  0  0  0  0  0  0  0
   33.8760   30.4050   35.1640 C   0  0  0  0  0  0  0  0  0  0  0  0
   32.7610   29.8940   35.7570 N   0  0  0  0  0  0  0  0  0  0  0  0
   32.2820   30.4230   36.9220 C   0  0  0  0  0  0  0  0  0  0  0  0
   32.8640   31.4360   37.5260 N   0  0  0  0  0  0  0  0  0  0  0  0
   35.3620   31.8370   35.2920 H   0  0  0  0  0  0  0  0  0  0  0  0
   31.3800   29.9920   37.3810 H   0  0  0  0  0  0  0  0  0  0  0  0
   34.7260   33.0520   37.4670 O   0  0  0  0  0  0  0  0  0  0  0  0
   34.2140   34.3640   37.5470 C   0  0  0  0  0  0  0  0  0  0  0  0
   33.0880   34.5410   36.7630 F   0  0  0  0  0  0  0  0  0  0  0  0
   35.2000   35.2410   37.1780 F   0  0  0  0  0  0  0  0  0  0  0  0
   33.8820   34.6310   38.8640 F   0  0  0  0  0  0  0  0  0  0  0  0
   37.2660   27.1170   32.7330 O   0  0  0  0  0  0  0  0  0  0  0  0
   37.7400   26.3110   33.7310 C   0  0  0  0  0  0  0  0  0  0  0  0
   37.2790   26.2910   35.0310 C   0  0  0  0  0  0  0  0  0  0  0  0
   36.4770   26.9640   35.2980 H   0  0  0  0  0  0  0  0  0  0  0  0
   37.8510   25.4240   35.9380 C   0  0  0  0  0  0  0  0  0  0  0  0
   37.4240   25.4730   36.9520 H   0  0  0  0  0  0  0  0  0  0  0  0
   38.8760   24.5430   35.6610 C   0  0  0  0  0  0  0  0  0  0  0  0
   39.3070   24.5870   34.3700 C   0  0  0  0  0  0  0  0  0  0  0  0
   38.7650   25.4330   33.4420 C   0  0  0  0  0  0  0  0  0  0  0  0
   39.1630   25.4160   32.4160 H   0  0  0  0  0  0  0  0  0  0  0  0
   40.6300   23.4990   33.8720 S   0  0  0  0  0  0  0  0  0  0  0  0
   41.0760   22.5640   35.3060 C   0  0  0  0  0  0  0  0  0  0  0  0
   42.0660   21.6490   35.2200 C   0  0  0  0  0  0  0  0  0  0  0  0
   42.6180   21.4430   34.3060 H   0  0  0  0  0  0  0  0  0  0  0  0
   42.4600   20.8810   36.3220 C   0  0  0  0  0  0  0  0  0  0  0  0
   43.2480   20.1390   36.2860 H   0  0  0  0  0  0  0  0  0  0  0  0
   41.8010   21.0890   37.5150 C   0  0  0  0  0  0  0  0  0  0  0  0
   42.0880   20.5140   38.3650 H   0  0  0  0  0  0  0  0  0  0  0  0
   40.8000   22.0370   37.5430 C   0  0  0  0  0  0  0  0  0  0  0  0
   40.3280   22.1430   38.5200 H   0  0  0  0  0  0  0  0  0  0  0  0
   40.3960   22.8030   36.4710 C   0  0  0  0  0  0  0  0  0  0  0  0
   39.3520   23.7250   36.6850 N   0  0  0  0  0  0  0  0  0  0  0  0
   38.9220   23.8010   37.6310 H   0  0  0  0  0  0  0  0  0  0  0  0
  1 32  1  0  0  0  0
  1  6  1  1  0  0  0
  2  7  1  6  0  0  0
  2  1  1  0  0  0  0
  2 15  1  0  0  0  0
  3  8  1  0  0  0  0
  3  2  1  0  0  0  0
  4  3  1  0  0  0  0
  4  5  1  0  0  0  0
  5 11  1  0  0  0  0
  5  1  1  0  0  0  0
  9  3  1  0  0  0  0
 10  5  1  0  0  0  0
 12 21  1  0  0  0  0
 13 17  1  0  0  0  0
 13 12  1  0  0  0  0
 14 15  1  0  0  0  0
 14 13  2  0  0  0  0
 15 16  1  0  0  0  0
 16 12  2  0  0  0  0
 18 14  1  0  0  0  0
 19 27  1  0  0  0  0
 19 24  1  0  0  0  0
 20 19  2  0  0  0  0
 21 22  2  0  0  0  0
 21 20  1  0  0  0  0
 22 23  1  0  0  0  0
 23 26  1  0  0  0  0
 23 24  2  0  0  0  0
 25 20  1  0  0  0  0
 27 28  1  0  0  0  0
 28 31  1  0  0  0  0
 29 28  1  0  0  0  0
 30 28  1  0  0  0  0
 32 33  1  0  0  0  0
 33 34  1  0  0  0  0
 34 35  1  0  0  0  0
 34 36  2  0  0  0  0
 36 37  1  0  0  0  0
 38 36  1  0  0  0  0
 38 53  1  0  0  0  0
 39 38  2  0  0  0  0
 40 33  2  0  0  0  0
 40 39  1  0  0  0  0
 41 40  1  0  0  0  0
 42 39  1  0  0  0  0
 42 43  1  0  0  0  0
 43 52  1  0  0  0  0
 44 43  2  0  0  0  0
 44 46  1  0  0  0  0
 45 44  1  0  0  0  0
 46 48  2  0  0  0  0
 47 46  1  0  0  0  0
 48 50  1  0  0  0  0
 48 49  1  0  0  0  0
 50 51  1  0  0  0  0
 52 53  1  0  0  0  0
 52 50  2  0  0  0  0
 53 54  1  0  0  0  0
M  END
>  <minimizedAffinity>
-6.40415239

$$$$

 OpenBabel03272503433D

 54 59  0  0  1  0  0  0  0  0999 V2000
   42.5240   23.6510   34.6270 C   0  0  2  0  0  0  0  0  0  0  0  0
   42.0160   22.4110   35.3640 C   0  0  1  0  0  0  0  0  0  0  0  0
   42.4850   22.7550   36.7520 C   0  0  0  0  0  0  0  0  0  0  0  0
   43.6860   23.4120   36.6150 O   0  0  0  0  0  0  0  0  0  0  0  0
   43.8900   23.7520   35.3120 C   0  0  0  0  0  0  0  0  0  0  0  0
   42.6050   23.4740   33.5420 H   0  0  0  0  0  0  0  0  0  0  0  0
   42.5000   21.4900   35.0160 H   0  0  0  0  0  0  0  0  0  0  0  0
   41.7090   23.3330   37.2680 H   0  0  0  0  0  0  0  0  0  0  0  0
   42.5900   21.7690   37.2900 H   0  0  0  0  0  0  0  0  0  0  0  0
   44.5800   23.0160   34.8640 H   0  0  0  0  0  0  0  0  0  0  0  0
   44.2760   24.7930   35.2730 H   0  0  0  0  0  0  0  0  0  0  0  0
   38.5310   22.1560   34.5160 C   0  0  0  0  0  0  0  0  0  0  0  0
   38.4450   22.1400   35.8780 C   0  0  0  0  0  0  0  0  0  0  0  0
   39.7650   22.2360   36.3170 C   0  0  0  0  0  0  0  0  0  0  0  0
   40.5840   22.3050   35.2610 N   0  0  0  0  0  0  0  0  0  0  0  0
   39.8270   22.2550   34.1590 N   0  0  0  0  0  0  0  0  0  0  0  0
   37.5280   22.0680   36.4690 H   0  0  0  0  0  0  0  0  0  0  0  0
   39.9860   22.2470   37.3860 H   0  0  0  0  0  0  0  0  0  0  0  0
   36.0640   22.8640   31.7790 C   0  0  0  0  0  0  0  0  0  0  0  0
   37.1500   22.9820   32.6170 C   0  0  0  0  0  0  0  0  0  0  0  0
   37.4100   22.0770   33.6140 C   0  0  0  0  0  0  0  0  0  0  0  0
   36.5320   21.0420   33.7350 N   0  0  0  0  0  0  0  0  0  0  0  0
   35.4590   20.9310   32.8980 C   0  0  0  0  0  0  0  0  0  0  0  0
   35.2170   21.8060   31.9450 N   0  0  0  0  0  0  0  0  0  0  0  0
   37.8760   23.7920   32.5570 H   0  0  0  0  0  0  0  0  0  0  0  0
   34.7640   20.0870   33.0170 H   0  0  0  0  0  0  0  0  0  0  0  0
   35.9680   23.8750   30.8350 O   0  0  0  0  0  0  0  0  0  0  0  0
   35.4980   25.1680   31.1470 C   0  0  0  0  0  0  0  0  0  0  0  0
   35.8520   25.5660   32.4240 F   0  0  0  0  0  0  0  0  0  0  0  0
   34.1360   25.1850   30.9980 F   0  0  0  0  0  0  0  0  0  0  0  0
   36.0340   26.0650   30.2400 F   0  0  0  0  0  0  0  0  0  0  0  0
   41.7240   24.7090   35.0230 O   0  0  0  0  0  0  0  0  0  0  0  0
   40.8810   25.4530   34.2430 C   0  0  0  0  0  0  0  0  0  0  0  0
   41.0430   25.6940   32.8950 C   0  0  0  0  0  0  0  0  0  0  0  0
   41.9040   25.2660   32.4000 H   0  0  0  0  0  0  0  0  0  0  0  0
   40.1130   26.4640   32.2290 C   0  0  0  0  0  0  0  0  0  0  0  0
   40.3180   26.6070   31.1570 H   0  0  0  0  0  0  0  0  0  0  0  0
   38.9970   27.0380   32.8020 C   0  0  0  0  0  0  0  0  0  0  0  0
   38.8660   26.7800   34.1330 C   0  0  0  0  0  0  0  0  0  0  0  0
   39.7680   26.0210   34.8270 C   0  0  0  0  0  0  0  0  0  0  0  0
   39.5990   25.8530   35.9020 H   0  0  0  0  0  0  0  0  0  0  0  0
   37.4660   27.4600   35.0020 S   0  0  0  0  0  0  0  0  0  0  0  0
   36.5290   28.3700   33.8080 C   0  0  0  0  0  0  0  0  0  0  0  0
   35.3980   29.0000   34.1930 C   0  0  0  0  0  0  0  0  0  0  0  0
   35.0150   28.9850   35.2110 H   0  0  0  0  0  0  0  0  0  0  0  0
   34.6170   29.7340   33.2910 C   0  0  0  0  0  0  0  0  0  0  0  0
   33.7060   30.2500   33.5660 H   0  0  0  0  0  0  0  0  0  0  0  0
   35.0420   29.7970   31.9810 C   0  0  0  0  0  0  0  0  0  0  0  0
   34.4610   30.3500   31.2800 H   0  0  0  0  0  0  0  0  0  0  0  0
   36.2040   29.1340   31.6470 C   0  0  0  0  0  0  0  0  0  0  0  0
   36.4730   29.2300   30.5950 H   0  0  0  0  0  0  0  0  0  0  0  0
   36.9870   28.4060   32.5170 C   0  0  0  0  0  0  0  0  0  0  0  0
   38.1450   27.7930   31.9980 N   0  0  0  0  0  0  0  0  0  0  0  0
   38.3730   27.9050   30.9880 H   0  0  0  0  0  0  0  0  0  0  0  0
  1  6  1  6  0  0  0
  1 32  1  0  0  0  0
  1  5  1  0  0  0  0
  1  2  1  0  0  0  0
  2  7  1  6  0  0  0
  2  3  1  0  0  0  0
  3  8  1  0  0  0  0
  3  9  1  0  0  0  0
  4  3  1  0  0  0  0
  5  4  1  0  0  0  0
 10  5  1  0  0  0  0
 11  5  1  0  0  0  0
 12 13  1  0  0  0  0
 13 14  2  0  0  0  0
 13 17  1  0  0  0  0
 14 18  1  0  0  0  0
 15  2  1  0  0  0  0
 15 14  1  0  0  0  0
 16 12  2  0  0  0  0
 16 15  1  0  0  0  0
 19 24  2  0  0  0  0
 19 20  1  0  0  0  0
 20 21  2  0  0  0  0
 21 22  1  0  0  0  0
 21 12  1  0  0  0  0
 23 26  1  0  0  0  0
 23 22  2  0  0  0  0
 24 23  1  0  0  0  0
 25 20  1  0  0  0  0
 27 28  1  0  0  0  0
 27 19  1  0  0  0  0
 28 29  1  0  0  0  0
 30 28  1  0  0  0  0
 31 28  1  0  0  0  0
 33 40  1  0  0  0  0
 33 32  1  0  0  0  0
 34 33  2  0  0  0  0
 35 34  1  0  0  0  0
 36 38  2  0  0  0  0
 36 34  1  0  0  0  0
 37 36  1  0  0  0  0
 38 39  1  0  0  0  0
 39 40  2  0  0  0  0
 39 42  1  0  0  0  0
 40 41  1  0  0  0  0
 43 44  1  0  0  0  0
 43 42  1  0  0  0  0
 44 45  1  0  0  0  0
 46 47  1  0  0  0  0
 46 44  2  0  0  0  0
 48 46  1  0  0  0  0
 49 48  1  0  0  0  0
 50 48  2  0  0  0  0
 50 52  1  0  0  0  0
 51 50  1  0  0  0  0
 52 43  2  0  0  0  0
 53 52  1  0  0  0  0
 53 38  1  0  0  0  0
 54 53  1  0  0  0  0
M  END
>  <minimizedAffinity>
-6.39782619

$$$$

 OpenBabel03272503433D

 54 59  0  0  1  0  0  0  0  0999 V2000
   36.1310   28.1600   33.2190 C   0  0  2  0  0  0  0  0  0  0  0  0
   36.0240   27.7630   31.7460 C   0  0  1  0  0  0  0  0  0  0  0  0
   36.8370   28.8780   31.1440 C   0  0  0  0  0  0  0  0  0  0  0  0
   36.5870   30.0040   31.8940 O   0  0  0  0  0  0  0  0  0  0  0  0
   35.9320   29.6690   33.0410 C   0  0  0  0  0  0  0  0  0  0  0  0
   35.3350   27.6960   33.8240 H   0  0  0  0  0  0  0  0  0  0  0  0
   34.9930   27.8030   31.3760 H   0  0  0  0  0  0  0  0  0  0  0  0
   37.8930   28.5820   31.1070 H   0  0  0  0  0  0  0  0  0  0  0  0
   36.4740   28.9780   30.0800 H   0  0  0  0  0  0  0  0  0  0  0  0
   34.8580   29.8830   32.9030 H   0  0  0  0  0  0  0  0  0  0  0  0
   36.3850   30.2300   33.8860 H   0  0  0  0  0  0  0  0  0  0  0  0
   37.0130   24.3130   31.5400 C   0  0  0  0  0  0  0  0  0  0  0  0
   37.9730   24.8810   30.7550 C   0  0  0  0  0  0  0  0  0  0  0  0
   37.6790   26.2440   30.7670 C   0  0  0  0  0  0  0  0  0  0  0  0
   36.5970   26.4620   31.5230 N   0  0  0  0  0  0  0  0  0  0  0  0
   36.1900   25.2780   31.9960 N   0  0  0  0  0  0  0  0  0  0  0  0
   38.7860   24.3580   30.2430 H   0  0  0  0  0  0  0  0  0  0  0  0
   38.3040   26.9430   30.2080 H   0  0  0  0  0  0  0  0  0  0  0  0
   36.4440   20.6160   31.2370 C   0  0  0  0  0  0  0  0  0  0  0  0
   36.5340   21.9520   30.9140 C   0  0  0  0  0  0  0  0  0  0  0  0
   36.9040   22.9050   31.8280 C   0  0  0  0  0  0  0  0  0  0  0  0
   37.1830   22.4610   33.0850 N   0  0  0  0  0  0  0  0  0  0  0  0
   37.0930   21.1340   33.3970 C   0  0  0  0  0  0  0  0  0  0  0  0
   36.7360   20.2270   32.5130 N   0  0  0  0  0  0  0  0  0  0  0  0
   36.3200   22.3510   29.9230 H   0  0  0  0  0  0  0  0  0  0  0  0
   37.3230   20.8010   34.4190 H   0  0  0  0  0  0  0  0  0  0  0  0
   36.0550   19.8060   30.1810 O   0  0  0  0  0  0  0  0  0  0  0  0
   36.9580   18.9770   29.4820 C   0  0  0  0  0  0  0  0  0  0  0  0
   36.3360   18.2320   28.4960 F   0  0  0  0  0  0  0  0  0  0  0  0
   37.5850   18.1570   30.3830 F   0  0  0  0  0  0  0  0  0  0  0  0
   37.9240   19.7720   28.8910 F   0  0  0  0  0  0  0  0  0  0  0  0
   37.4350   27.9040   33.6100 O   0  0  0  0  0  0  0  0  0  0  0  0
   37.8870   26.8520   34.3580 C   0  0  0  0  0  0  0  0  0  0  0  0
   37.1730   26.2090   35.3490 C   0  0  0  0  0  0  0  0  0  0  0  0
   36.1720   26.5560   35.5620 H   0  0  0  0  0  0  0  0  0  0  0  0
   37.7550   25.1580   36.0270 C   0  0  0  0  0  0  0  0  0  0  0  0
   37.1170   24.7030   36.8000 H   0  0  0  0  0  0  0  0  0  0  0  0
   39.0260   24.6710   35.8020 C   0  0  0  0  0  0  0  0  0  0  0  0
   39.7020   25.3260   34.8190 C   0  0  0  0  0  0  0  0  0  0  0  0
   39.1590   26.3730   34.1240 C   0  0  0  0  0  0  0  0  0  0  0  0
   39.7640   26.8570   33.3420 H   0  0  0  0  0  0  0  0  0  0  0  0
   41.3590   24.8000   34.4230 S   0  0  0  0  0  0  0  0  0  0  0  0
   41.7250   23.4460   35.5020 C   0  0  0  0  0  0  0  0  0  0  0  0
   42.9310   22.8420   35.4220 C   0  0  0  0  0  0  0  0  0  0  0  0
   43.7090   23.1380   34.7220 H   0  0  0  0  0  0  0  0  0  0  0  0
   43.2750   21.7660   36.2490 C   0  0  0  0  0  0  0  0  0  0  0  0
   44.2310   21.2590   36.2110 H   0  0  0  0  0  0  0  0  0  0  0  0
   42.3350   21.3360   37.1630 C   0  0  0  0  0  0  0  0  0  0  0  0
   42.5780   20.5180   37.8010 H   0  0  0  0  0  0  0  0  0  0  0  0
   41.1220   21.9910   37.1980 C   0  0  0  0  0  0  0  0  0  0  0  0
   40.4340   21.5940   37.9440 H   0  0  0  0  0  0  0  0  0  0  0  0
   40.7630   23.0510   36.3930 C   0  0  0  0  0  0  0  0  0  0  0  0
   39.4770   23.5990   36.5700 N   0  0  0  0  0  0  0  0  0  0  0  0
   38.8440   23.1950   37.2920 H   0  0  0  0  0  0  0  0  0  0  0  0
  1 32  1  0  0  0  0
  1  6  1  1  0  0  0
  2  7  1  6  0  0  0
  2  1  1  0  0  0  0
  3  2  1  0  0  0  0
  3  4  1  0  0  0  0
  4  5  1  0  0  0  0
  5  1  1  0  0  0  0
  5 11  1  0  0  0  0
  8  3  1  0  0  0  0
  9  3  1  0  0  0  0
 10  5  1  0  0  0  0
 12 21  1  0  0  0  0
 12 16  2  0  0  0  0
 13 14  2  0  0  0  0
 13 12  1  0  0  0  0
 14 15  1  0  0  0  0
 15  2  1  0  0  0  0
 15 16  1  0  0  0  0
 17 13  1  0  0  0  0
 18 14  1  0  0  0  0
 19 24  1  0  0  0  0
 20 19  2  0  0  0  0
 20 21  1  0  0  0  0
 21 22  2  0  0  0  0
 22 23  1  0  0  0  0
 23 26  1  0  0  0  0
 24 23  2  0  0  0  0
 25 20  1  0  0  0  0
 27 19  1  0  0  0  0
 28 27  1  0  0  0  0
 28 30  1  0  0  0  0
 29 28  1  0  0  0  0
 31 28  1  0  0  0  0
 32 33  1  0  0  0  0
 33 34  1  0  0  0  0
 34 35  1  0  0  0  0
 34 36  2  0  0  0  0
 36 37  1  0  0  0  0
 38 36  1  0  0  0  0
 38 53  1  0  0  0  0
 39 38  2  0  0  0  0
 40 33  2  0  0  0  0
 40 39  1  0  0  0  0
 41 40  1  0  0  0  0
 42 39  1  0  0  0  0
 42 43  1  0  0  0  0
 43 52  1  0  0  0  0
 44 43  2  0  0  0  0
 44 46  1  0  0  0  0
 45 44  1  0  0  0  0
 46 48  2  0  0  0  0
 47 46  1  0  0  0  0
 48 50  1  0  0  0  0
 48 49  1  0  0  0  0
 50 51  1  0  0  0  0
 52 53  1  0  0  0  0
 52 50  2  0  0  0  0
 53 54  1  0  0  0  0
M  END
>  <minimizedAffinity>
-6.38115501

$$$$

 OpenBabel03272503433D

 54 59  0  0  1  0  0  0  0  0999 V2000
   36.9750   28.0820   30.4530 C   0  0  2  0  0  0  0  0  0  0  0  0
   38.3470   27.4350   30.2530 C   0  0  1  0  0  0  0  0  0  0  0  0
   39.1520   28.6770   29.9770 C   0  0  0  0  0  0  0  0  0  0  0  0
   38.3390   29.5300   29.2670 O   0  0  0  0  0  0  0  0  0  0  0  0
   37.0520   29.0860   29.2980 C   0  0  0  0  0  0  0  0  0  0  0  0
   36.1600   27.3520   30.3260 H   0  0  0  0  0  0  0  0  0  0  0  0
   38.3720   26.7660   29.3860 H   0  0  0  0  0  0  0  0  0  0  0  0
   39.5270   29.0890   30.9220 H   0  0  0  0  0  0  0  0  0  0  0  0
   40.0450   28.3320   29.3780 H   0  0  0  0  0  0  0  0  0  0  0  0
   36.8390   28.5680   28.3470 H   0  0  0  0  0  0  0  0  0  0  0  0
   36.3820   29.9530   29.4840 H   0  0  0  0  0  0  0  0  0  0  0  0
   38.9240   25.3500   33.1250 C   0  0  0  0  0  0  0  0  0  0  0  0
   39.9600   26.2270   33.2580 C   0  0  0  0  0  0  0  0  0  0  0  0
   39.8290   27.0970   32.1760 C   0  0  0  0  0  0  0  0  0  0  0  0
   38.7660   26.7440   31.4440 N   0  0  0  0  0  0  0  0  0  0  0  0
   38.2120   25.6740   32.0260 N   0  0  0  0  0  0  0  0  0  0  0  0
   40.7140   26.2260   34.0510 H   0  0  0  0  0  0  0  0  0  0  0  0
   40.5420   27.9120   32.0390 H   0  0  0  0  0  0  0  0  0  0  0  0
   38.7530   23.1340   36.1480 C   0  0  0  0  0  0  0  0  0  0  0  0
   39.0440   24.2030   35.3300 C   0  0  0  0  0  0  0  0  0  0  0  0
   38.6440   24.2550   34.0200 C   0  0  0  0  0  0  0  0  0  0  0  0
   37.9360   23.1870   33.5600 N   0  0  0  0  0  0  0  0  0  0  0  0
   37.6500   22.1310   34.3780 C   0  0  0  0  0  0  0  0  0  0  0  0
   38.0390   22.0890   35.6340 N   0  0  0  0  0  0  0  0  0  0  0  0
   39.6070   25.0770   35.6550 H   0  0  0  0  0  0  0  0  0  0  0  0
   37.0770   21.2790   33.9830 H   0  0  0  0  0  0  0  0  0  0  0  0
   39.2400   23.2630   37.4390 O   0  0  0  0  0  0  0  0  0  0  0  0
   38.4520   23.7350   38.5090 C   0  0  0  0  0  0  0  0  0  0  0  0
   37.8520   24.9500   38.2280 F   0  0  0  0  0  0  0  0  0  0  0  0
   39.2430   23.8360   39.6230 F   0  0  0  0  0  0  0  0  0  0  0  0
   37.4630   22.8050   38.7760 F   0  0  0  0  0  0  0  0  0  0  0  0
   37.0210   28.7560   31.6610 O   0  0  0  0  0  0  0  0  0  0  0  0
   35.9670   29.2590   32.3730 C   0  0  0  0  0  0  0  0  0  0  0  0
   34.6940   28.7300   32.4000 C   0  0  0  0  0  0  0  0  0  0  0  0
   34.4980   27.8440   31.8130 H   0  0  0  0  0  0  0  0  0  0  0  0
   33.7230   29.3420   33.1650 C   0  0  0  0  0  0  0  0  0  0  0  0
   32.7360   28.8550   33.1290 H   0  0  0  0  0  0  0  0  0  0  0  0
   33.9090   30.4730   33.9330 C   0  0  0  0  0  0  0  0  0  0  0  0
   35.1760   30.9690   33.8860 C   0  0  0  0  0  0  0  0  0  0  0  0
   36.1660   30.3900   33.1390 C   0  0  0  0  0  0  0  0  0  0  0  0
   37.1670   30.8460   33.1470 H   0  0  0  0  0  0  0  0  0  0  0  0
   35.5580   32.4310   34.8330 S   0  0  0  0  0  0  0  0  0  0  0  0
   34.0650   32.8960   35.6600 C   0  0  0  0  0  0  0  0  0  0  0  0
   34.0610   33.9840   36.4600 C   0  0  0  0  0  0  0  0  0  0  0  0
   34.9360   34.6080   36.6340 H   0  0  0  0  0  0  0  0  0  0  0  0
   32.9090   34.3980   37.1400 C   0  0  0  0  0  0  0  0  0  0  0  0
   32.8720   35.2640   37.7880 H   0  0  0  0  0  0  0  0  0  0  0  0
   31.7620   33.6530   36.9660 C   0  0  0  0  0  0  0  0  0  0  0  0
   30.8750   33.9520   37.4750 H   0  0  0  0  0  0  0  0  0  0  0  0
   31.8260   32.5530   36.1370 C   0  0  0  0  0  0  0  0  0  0  0  0
   30.8810   32.0170   36.0510 H   0  0  0  0  0  0  0  0  0  0  0  0
   32.9480   32.1270   35.4600 C   0  0  0  0  0  0  0  0  0  0  0  0
   32.8290   30.9780   34.6550 N   0  0  0  0  0  0  0  0  0  0  0  0
   31.9110   30.4880   34.5950 H   0  0  0  0  0  0  0  0  0  0  0  0
  1  6  1  6  0  0  0
  1 32  1  0  0  0  0
  2  7  1  6  0  0  0
  2  1  1  0  0  0  0
  2 15  1  0  0  0  0
  3  2  1  0  0  0  0
  3  8  1  0  0  0  0
  4  5  1  0  0  0  0
  4  3  1  0  0  0  0
  5 11  1  0  0  0  0
  5  1  1  0  0  0  0
  9  3  1  0  0  0  0
 10  5  1  0  0  0  0
 12 13  1  0  0  0  0
 12 21  1  0  0  0  0
 13 17  1  0  0  0  0
 14 13  2  0  0  0  0
 15 16  1  0  0  0  0
 15 14  1  0  0  0  0
 16 12  2  0  0  0  0
 18 14  1  0  0  0  0
 19 27  1  0  0  0  0
 20 25  1  0  0  0  0
 20 19  2  0  0  0  0
 21 20  1  0  0  0  0
 22 21  2  0  0  0  0
 22 23  1  0  0  0  0
 23 24  2  0  0  0  0
 24 19  1  0  0  0  0
 26 23  1  0  0  0  0
 27 28  1  0  0  0  0
 28 31  1  0  0  0  0
 28 30  1  0  0  0  0
 29 28  1  0  0  0  0
 32 33  1  0  0  0  0
 33 34  2  0  0  0  0
 33 40  1  0  0  0  0
 34 36  1  0  0  0  0
 35 34  1  0  0  0  0
 36 38  2  0  0  0  0
 37 36  1  0  0  0  0
 38 53  1  0  0  0  0
 39 38  1  0  0  0  0
 39 42  1  0  0  0  0
 40 41  1  0  0  0  0
 40 39  2  0  0  0  0
 42 43  1  0  0  0  0
 43 44  1  0  0  0  0
 44 45  1  0  0  0  0
 44 46  2  0  0  0  0
 46 47  1  0  0  0  0
 48 46  1  0  0  0  0
 48 49  1  0  0  0  0
 50 48  2  0  0  0  0
 51 50  1  0  0  0  0
 52 43  2  0  0  0  0
 52 50  1  0  0  0  0
 53 52  1  0  0  0  0
 54 53  1  0  0  0  0
M  END
>  <minimizedAffinity>
-6.37143278

$$$$

 OpenBabel03272503433D

 54 59  0  0  1  0  0  0  0  0999 V2000
   38.8550   27.0030   29.6130 C   0  0  2  0  0  0  0  0  0  0  0  0
   40.0450   26.0440   29.6790 C   0  0  1  0  0  0  0  0  0  0  0  0
   41.1490   27.0200   29.3700 C   0  0  0  0  0  0  0  0  0  0  0  0
   40.6430   27.9190   28.4610 O   0  0  0  0  0  0  0  0  0  0  0  0
   39.2910   27.7840   28.3690 C   0  0  0  0  0  0  0  0  0  0  0  0
   37.9060   26.4630   29.4630 H   0  0  0  0  0  0  0  0  0  0  0  0
   39.9990   25.2650   28.9090 H   0  0  0  0  0  0  0  0  0  0  0  0
   41.5100   27.4710   30.3020 H   0  0  0  0  0  0  0  0  0  0  0  0
   41.9900   26.4000   28.9440 H   0  0  0  0  0  0  0  0  0  0  0  0
   39.0600   27.1930   27.4650 H   0  0  0  0  0  0  0  0  0  0  0  0
   38.8330   28.7960   28.3570 H   0  0  0  0  0  0  0  0  0  0  0  0
   39.7810   24.3600   32.8450 C   0  0  0  0  0  0  0  0  0  0  0  0
   41.0210   24.9150   32.9750 C   0  0  0  0  0  0  0  0  0  0  0  0
   41.2270   25.6040   31.7810 C   0  0  0  0  0  0  0  0  0  0  0  0
   40.1580   25.4590   30.9890 N   0  0  0  0  0  0  0  0  0  0  0  0
   39.2730   24.6960   31.6420 N   0  0  0  0  0  0  0  0  0  0  0  0
   41.6850   24.8250   33.8400 H   0  0  0  0  0  0  0  0  0  0  0  0
   42.1580   26.1510   31.6180 H   0  0  0  0  0  0  0  0  0  0  0  0
   38.7660   22.7800   36.0940 C   0  0  0  0  0  0  0  0  0  0  0  0
   39.4160   23.5790   35.1800 C   0  0  0  0  0  0  0  0  0  0  0  0
   39.1290   23.5460   33.8400 C   0  0  0  0  0  0  0  0  0  0  0  0
   38.1560   22.6750   33.4510 N   0  0  0  0  0  0  0  0  0  0  0  0
   37.5150   21.8880   34.3640 C   0  0  0  0  0  0  0  0  0  0  0  0
   37.7980   21.9260   35.6480 N   0  0  0  0  0  0  0  0  0  0  0  0
   40.2000   24.2880   35.4460 H   0  0  0  0  0  0  0  0  0  0  0  0
   36.7330   21.1930   34.0250 H   0  0  0  0  0  0  0  0  0  0  0  0
   39.1930   22.9560   37.4010 O   0  0  0  0  0  0  0  0  0  0  0  0
   38.4440   23.6690   38.3600 C   0  0  0  0  0  0  0  0  0  0  0  0
   38.0350   24.9070   37.8980 F   0  0  0  0  0  0  0  0  0  0  0  0
   39.2010   23.8040   39.4930 F   0  0  0  0  0  0  0  0  0  0  0  0
   37.3230   22.9270   38.6880 F   0  0  0  0  0  0  0  0  0  0  0  0
   38.9350   27.8190   30.7280 O   0  0  0  0  0  0  0  0  0  0  0  0
   37.9370   28.1120   31.6170 C   0  0  0  0  0  0  0  0  0  0  0  0
   37.7860   27.5460   32.8650 C   0  0  0  0  0  0  0  0  0  0  0  0
   38.5080   26.8060   33.1800 H   0  0  0  0  0  0  0  0  0  0  0  0
   36.7290   27.9360   33.6610 C   0  0  0  0  0  0  0  0  0  0  0  0
   36.6820   27.4350   34.6400 H   0  0  0  0  0  0  0  0  0  0  0  0
   35.7750   28.8710   33.3170 C   0  0  0  0  0  0  0  0  0  0  0  0
   35.9530   29.4110   32.0800 C   0  0  0  0  0  0  0  0  0  0  0  0
   36.9890   29.0500   31.2620 C   0  0  0  0  0  0  0  0  0  0  0  0
   37.0720   29.5280   30.2740 H   0  0  0  0  0  0  0  0  0  0  0  0
   34.7920   30.6360   31.5050 S   0  0  0  0  0  0  0  0  0  0  0  0
   33.6080   30.8510   32.8030 C   0  0  0  0  0  0  0  0  0  0  0  0
   32.5980   31.7320   32.6390 C   0  0  0  0  0  0  0  0  0  0  0  0
   32.4600   32.3330   31.7430 H   0  0  0  0  0  0  0  0  0  0  0  0
   31.6330   31.9430   33.6320 C   0  0  0  0  0  0  0  0  0  0  0  0
   30.8120   32.6420   33.5330 H   0  0  0  0  0  0  0  0  0  0  0  0
   31.7450   31.2140   34.7980 C   0  0  0  0  0  0  0  0  0  0  0  0
   31.0210   31.3610   35.5650 H   0  0  0  0  0  0  0  0  0  0  0  0
   32.7970   30.3300   34.9070 C   0  0  0  0  0  0  0  0  0  0  0  0
   32.8180   29.7930   35.8560 H   0  0  0  0  0  0  0  0  0  0  0  0
   33.7570   30.1070   33.9440 C   0  0  0  0  0  0  0  0  0  0  0  0
   34.7620   29.1620   34.2290 N   0  0  0  0  0  0  0  0  0  0  0  0
   34.7530   28.6670   35.1460 H   0  0  0  0  0  0  0  0  0  0  0  0
  1  6  1  6  0  0  0
  1  2  1  0  0  0  0
  1 32  1  0  0  0  0
  2  7  1  6  0  0  0
  2 15  1  0  0  0  0
  3  2  1  0  0  0  0
  3  8  1  0  0  0  0
  4  3  1  0  0  0  0
  5  4  1  0  0  0  0
  5  1  1  0  0  0  0
  9  3  1  0  0  0  0
 10  5  1  0  0  0  0
 11  5  1  0  0  0  0
 12 13  1  0  0  0  0
 12 21  1  0  0  0  0
 13 17  1  0  0  0  0
 14 13  2  0  0  0  0
 15 16  1  0  0  0  0
 15 14  1  0  0  0  0
 16 12  2  0  0  0  0
 18 14  1  0  0  0  0
 19 27  1  0  0  0  0
 20 25  1  0  0  0  0
 20 19  2  0  0  0  0
 21 20  1  0  0  0  0
 22 21  2  0  0  0  0
 22 23  1  0  0  0  0
 23 24  2  0  0  0  0
 24 19  1  0  0  0  0
 26 23  1  0  0  0  0
 27 28  1  0  0  0  0
 28 31  1  0  0  0  0
 28 30  1  0  0  0  0
 29 28  1  0  0  0  0
 32 33  1  0  0  0  0
 33 34  1  0  0  0  0
 34 35  1  0  0  0  0
 34 36  2  0  0  0  0
 36 37  1  0  0  0  0
 38 36  1  0  0  0  0
 38 53  1  0  0  0  0
 39 38  2  0  0  0  0
 40 33  2  0  0  0  0
 40 39  1  0  0  0  0
 41 40  1  0  0  0  0
 42 39  1  0  0  0  0
 42 43  1  0  0  0  0
 43 52  1  0  0  0  0
 44 43  2  0  0  0  0
 44 46  1  0  0  0  0
 45 44  1  0  0  0  0
 46 48  2  0  0  0  0
 47 46  1  0  0  0  0
 48 50  1  0  0  0  0
 48 49  1  0  0  0  0
 50 51  1  0  0  0  0
 52 53  1  0  0  0  0
 52 50  2  0  0  0  0
 53 54  1  0  0  0  0
M  END
>  <minimizedAffinity>
-6.35666847

$$$$

 OpenBabel03272503433D

 54 59  0  0  1  0  0  0  0  0999 V2000
   37.0230   31.2830   28.7080 C   0  0  2  0  0  0  0  0  0  0  0  0
   37.9970   30.3070   28.0460 C   0  0  1  0  0  0  0  0  0  0  0  0
   39.0720   31.2840   27.6500 C   0  0  0  0  0  0  0  0  0  0  0  0
   38.4390   32.4530   27.2980 O   0  0  0  0  0  0  0  0  0  0  0  0
   37.1310   32.4120   27.6790 C   0  0  0  0  0  0  0  0  0  0  0  0
   36.0060   30.8620   28.7700 H   0  0  0  0  0  0  0  0  0  0  0  0
   37.5710   29.8300   27.1550 H   0  0  0  0  0  0  0  0  0  0  0  0
   39.7930   31.3870   28.4700 H   0  0  0  0  0  0  0  0  0  0  0  0
   39.6110   30.8060   26.7810 H   0  0  0  0  0  0  0  0  0  0  0  0
   36.5190   32.1620   26.7950 H   0  0  0  0  0  0  0  0  0  0  0  0
   36.8630   33.3890   28.1350 H   0  0  0  0  0  0  0  0  0  0  0  0
   38.5490   27.7200   30.4810 C   0  0  0  0  0  0  0  0  0  0  0  0
   39.8400   28.0690   30.2090 C   0  0  0  0  0  0  0  0  0  0  0  0
   39.7400   29.0840   29.2590 C   0  0  0  0  0  0  0  0  0  0  0  0
   38.4510   29.3180   28.9870 N   0  0  0  0  0  0  0  0  0  0  0  0
   37.7230   28.4820   29.7360 N   0  0  0  0  0  0  0  0  0  0  0  0
   40.7380   27.6320   30.6560 H   0  0  0  0  0  0  0  0  0  0  0  0
   40.6430   29.5520   28.8610 H   0  0  0  0  0  0  0  0  0  0  0  0
   37.5610   25.8990   33.6090 C   0  0  0  0  0  0  0  0  0  0  0  0
   37.9470   26.9080   32.7550 C   0  0  0  0  0  0  0  0  0  0  0  0
   38.1450   26.6990   31.4150 C   0  0  0  0  0  0  0  0  0  0  0  0
   37.9380   25.4310   30.9630 N   0  0  0  0  0  0  0  0  0  0  0  0
   37.5530   24.4370   31.8160 C   0  0  0  0  0  0  0  0  0  0  0  0
   37.3670   24.6460   33.1010 N   0  0  0  0  0  0  0  0  0  0  0  0
   38.1240   27.9350   33.0720 H   0  0  0  0  0  0  0  0  0  0  0  0
   37.3930   23.4210   31.4260 H   0  0  0  0  0  0  0  0  0  0  0  0
   37.4110   26.3030   34.9270 O   0  0  0  0  0  0  0  0  0  0  0  0
   38.4860   26.3430   35.8400 C   0  0  0  0  0  0  0  0  0  0  0  0
   38.1330   25.8770   37.0930 F   0  0  0  0  0  0  0  0  0  0  0  0
   38.9440   27.6320   35.9170 F   0  0  0  0  0  0  0  0  0  0  0  0
   39.5140   25.5580   35.3490 F   0  0  0  0  0  0  0  0  0  0  0  0
   37.6020   31.6810   29.9010 O   0  0  0  0  0  0  0  0  0  0  0  0
   36.9720   31.9250   31.0900 C   0  0  0  0  0  0  0  0  0  0  0  0
   37.1420   33.0500   31.8700 C   0  0  0  0  0  0  0  0  0  0  0  0
   37.8280   33.8110   31.5240 H   0  0  0  0  0  0  0  0  0  0  0  0
   36.4410   33.1660   33.0510 C   0  0  0  0  0  0  0  0  0  0  0  0
   36.6350   34.0940   33.6110 H   0  0  0  0  0  0  0  0  0  0  0  0
   35.5540   32.2320   33.5470 C   0  0  0  0  0  0  0  0  0  0  0  0
   35.4080   31.1350   32.7540 C   0  0  0  0  0  0  0  0  0  0  0  0
   36.0870   30.9840   31.5750 C   0  0  0  0  0  0  0  0  0  0  0  0
   35.9210   30.0700   30.9850 H   0  0  0  0  0  0  0  0  0  0  0  0
   34.2910   29.8460   33.2730 S   0  0  0  0  0  0  0  0  0  0  0  0
   33.6010   30.3730   34.8150 C   0  0  0  0  0  0  0  0  0  0  0  0
   32.7090   29.5810   35.4480 C   0  0  0  0  0  0  0  0  0  0  0  0
   32.3790   28.6180   35.0630 H   0  0  0  0  0  0  0  0  0  0  0  0
   32.1310   29.9460   36.6690 C   0  0  0  0  0  0  0  0  0  0  0  0
   31.4130   29.3360   37.2020 H   0  0  0  0  0  0  0  0  0  0  0  0
   32.5050   31.1560   37.2170 C   0  0  0  0  0  0  0  0  0  0  0  0
   32.0750   31.4520   38.1460 H   0  0  0  0  0  0  0  0  0  0  0  0
   33.4190   31.9220   36.5250 C   0  0  0  0  0  0  0  0  0  0  0  0
   33.6630   32.8620   37.0210 H   0  0  0  0  0  0  0  0  0  0  0  0
   34.0000   31.5820   35.3230 C   0  0  0  0  0  0  0  0  0  0  0  0
   34.9170   32.4900   34.7600 N   0  0  0  0  0  0  0  0  0  0  0  0
   35.1280   33.3800   35.2590 H   0  0  0  0  0  0  0  0  0  0  0  0
  1  6  1  1  0  0  0
  1 32  1  0  0  0  0
  2  7  1  6  0  0  0
  2  1  1  0  0  0  0
  2 15  1  0  0  0  0
  3  2  1  0  0  0  0
  3  8  1  0  0  0  0
  4  3  1  0  0  0  0
  4  5  1  0  0  0  0
  5 11  1  0  0  0  0
  5  1  1  0  0  0  0
  9  3  1  0  0  0  0
 10  5  1  0  0  0  0
 12 21  1  0  0  0  0
 13 12  1  0  0  0  0
 13 17  1  0  0  0  0
 14 13  2  0  0  0  0
 15 14  1  0  0  0  0
 15 16  1  0  0  0  0
 16 12  2  0  0  0  0
 18 14  1  0  0  0  0
 19 27  1  0  0  0  0
 20 25  1  0  0  0  0
 20 19  2  0  0  0  0
 21 20  1  0  0  0  0
 22 21  2  0  0  0  0
 22 23  1  0  0  0  0
 23 24  2  0  0  0  0
 24 19  1  0  0  0  0
 26 23  1  0  0  0  0
 27 28  1  0  0  0  0
 28 30  1  0  0  0  0
 28 29  1  0  0  0  0
 31 28  1  0  0  0  0
 32 33  1  0  0  0  0
 33 40  2  0  0  0  0
 33 34  1  0  0  0  0
 34 36  2  0  0  0  0
 35 34  1  0  0  0  0
 36 38  1  0  0  0  0
 36 37  1  0  0  0  0
 38 53  1  0  0  0  0
 39 42  1  0  0  0  0
 39 38  2  0  0  0  0
 40 39  1  0  0  0  0
 41 40  1  0  0  0  0
 42 43  1  0  0  0  0
 43 52  2  0  0  0  0
 43 44  1  0  0  0  0
 44 46  2  0  0  0  0
 45 44  1  0  0  0  0
 46 47  1  0  0  0  0
 46 48  1  0  0  0  0
 48 49  1  0  0  0  0
 50 51  1  0  0  0  0
 50 48  2  0  0  0  0
 52 50  1  0  0  0  0
 53 54  1  0  0  0  0
 53 52  1  0  0  0  0
M  END
>  <minimizedAffinity>
-6.2708168

$$$$
