
 OpenBabel03272501583D

 44 48  0  0  0  0  0  0  0  0999 V2000
   32.9240   28.1530   47.7700 C   0  0  0  0  0  0  0  0  0  0  0  0
   32.1400   27.1740   48.3230 C   0  0  0  0  0  0  0  0  0  0  0  0
   30.8220   27.3420   47.9170 C   0  0  0  0  0  0  0  0  0  0  0  0
   30.8500   28.4340   47.1190 N   0  0  0  0  0  0  0  0  0  0  0  0
   32.0820   28.9080   47.0340 N   0  0  0  0  0  0  0  0  0  0  0  0
   32.4460   26.3620   48.9860 H   0  0  0  0  0  0  0  0  0  0  0  0
   29.9370   26.7470   48.1640 H   0  0  0  0  0  0  0  0  0  0  0  0
   29.7680   29.0510   46.4330 C   0  0  0  0  0  0  0  0  0  0  0  0
   28.4840   28.5920   46.5880 C   0  0  0  0  0  0  0  0  0  0  0  0
   28.3070   27.7520   47.2400 H   0  0  0  0  0  0  0  0  0  0  0  0
   27.4550   29.2100   45.9100 C   0  0  0  0  0  0  0  0  0  0  0  0
   26.4640   28.7750   46.0950 H   0  0  0  0  0  0  0  0  0  0  0  0
   27.6180   30.2860   45.0630 C   0  0  0  0  0  0  0  0  0  0  0  0
   28.9090   30.7270   44.9250 C   0  0  0  0  0  0  0  0  0  0  0  0
   29.9380   30.1240   45.5890 C   0  0  0  0  0  0  0  0  0  0  0  0
   30.9540   30.4950   45.4600 H   0  0  0  0  0  0  0  0  0  0  0  0
   29.2050   32.1130   43.8480 S   0  0  0  0  0  0  0  0  0  0  0  0
   27.6210   32.5940   43.1880 C   0  0  0  0  0  0  0  0  0  0  0  0
   27.5730   33.6510   42.3210 C   0  0  0  0  0  0  0  0  0  0  0  0
   28.4750   34.1870   42.0380 H   0  0  0  0  0  0  0  0  0  0  0  0
   26.3870   34.0720   41.7770 C   0  0  0  0  0  0  0  0  0  0  0  0
   26.2990   34.8980   41.0890 H   0  0  0  0  0  0  0  0  0  0  0  0
   25.2380   33.3990   42.1290 C   0  0  0  0  0  0  0  0  0  0  0  0
   24.3100   33.7100   41.7170 H   0  0  0  0  0  0  0  0  0  0  0  0
   25.3460   32.3420   43.0050 C   0  0  0  0  0  0  0  0  0  0  0  0
   24.3910   31.8550   43.2380 H   0  0  0  0  0  0  0  0  0  0  0  0
   26.5140   31.8840   43.5770 C   0  0  0  0  0  0  0  0  0  0  0  0
   26.4520   30.7870   44.4580 N   0  0  0  0  0  0  0  0  0  0  0  0
   25.5240   30.3610   44.6460 H   0  0  0  0  0  0  0  0  0  0  0  0
   34.4090   28.3270   47.9600 C   0  0  0  0  0  0  0  0  0  0  0  0
   34.8740   27.4720   47.4110 H   0  0  0  0  0  0  0  0  0  0  0  0
   34.7170   29.2940   47.4960 H   0  0  0  0  0  0  0  0  0  0  0  0
   34.6370   28.2850   49.4420 C   0  0  0  0  0  0  0  0  0  0  0  0
   33.7590   28.5010   50.0600 H   0  0  0  0  0  0  0  0  0  0  0  0
   34.9450   27.2260   49.6760 H   0  0  0  0  0  0  0  0  0  0  0  0
   37.1940   30.1470   51.3610 C   0  0  0  0  0  0  0  0  0  0  0  0
   38.0190   30.6710   50.3580 C   0  0  0  0  0  0  0  0  0  0  0  0
   37.6830   30.3730   49.0170 C   0  0  0  0  0  0  0  0  0  0  0  0
   36.5900   29.6050   48.7760 N   0  0  0  0  0  0  0  0  0  0  0  0
   35.8290   29.1260   49.7890 C   0  0  0  0  0  0  0  0  0  0  0  0
   36.1340   29.3980   51.0590 N   0  0  0  0  0  0  0  0  0  0  0  0
   37.4820   30.3950   52.3810 H   0  0  0  0  0  0  0  0  0  0  0  0
   38.8980   31.2860   50.5040 H   0  0  0  0  0  0  0  0  0  0  0  0
   38.2190   30.7040   48.1490 H   0  0  0  0  0  0  0  0  0  0  0  0
  1 30  1  0  0  0  0
  1  2  1  0  0  0  0
  2  6  1  0  0  0  0
  3  7  1  0  0  0  0
  3  2  2  0  0  0  0
  4  3  1  0  0  0  0
  5  4  1  0  0  0  0
  5  1  2  0  0  0  0
  8  9  1  0  0  0  0
  8  4  1  0  0  0  0
  9 10  1  0  0  0  0
 11 12  1  0  0  0  0
 11  9  2  0  0  0  0
 13 11  1  0  0  0  0
 14 13  2  0  0  0  0
 14 15  1  0  0  0  0
 15  8  2  0  0  0  0
 16 15  1  0  0  0  0
 17 14  1  0  0  0  0
 18 27  1  0  0  0  0
 18 17  1  0  0  0  0
 19 18  2  0  0  0  0
 20 19  1  0  0  0  0
 21 23  2  0  0  0  0
 21 19  1  0  0  0  0
 22 21  1  0  0  0  0
 23 25  1  0  0  0  0
 24 23  1  0  0  0  0
 25 26  1  0  0  0  0
 25 27  2  0  0  0  0
 27 28  1  0  0  0  0
 28 29  1  0  0  0  0
 28 13  1  0  0  0  0
 30 33  1  0  0  0  0
 31 30  1  0  0  0  0
 32 30  1  0  0  0  0
 33 35  1  0  0  0  0
 33 40  1  0  0  0  0
 33 34  1  0  0  0  0
 36 42  1  0  0  0  0
 37 43  1  0  0  0  0
 37 36  2  0  0  0  0
 38 37  1  0  0  0  0
 39 38  2  0  0  0  0
 39 40  1  0  0  0  0
 40 41  2  0  0  0  0
 41 36  1  0  0  0  0
 44 38  1  0  0  0  0
M  END
>  <minimizedAffinity>
-6.11045885

>  <minimizedRMSD>
0.611747324

$$$$
