
     RDKit          3D

 46 49  0  0  0  0  0  0  0  0999 V2000
   38.6741   32.3185   46.4335 C   0  0  0  0  0  0  0  0  0  0  0  0
   39.9352   32.8157   46.2310 C   0  0  0  0  0  0  0  0  0  0  0  0
   40.3243   33.2123   44.9378 C   0  0  0  0  0  0  0  0  0  0  0  0
   39.3919   33.0725   43.9344 N   0  0  0  0  0  0  0  0  0  0  0  0
   38.1402   32.5714   44.1750 C   0  0  0  0  0  0  0  0  0  0  0  0
   37.8015   32.2042   45.4117 N   0  0  0  0  0  0  0  0  0  0  0  0
   37.7700   32.9624   41.8491 C   0  0  0  0  0  0  0  0  0  0  0  0
   38.9231   33.4718   41.6661 O   0  0  0  0  0  0  0  0  0  0  0  0
   37.2350   32.4609   43.0735 N   0  0  0  0  0  0  0  0  0  0  0  0
   38.4242   31.9712   47.7328 O   0  0  0  0  0  0  0  0  0  0  0  0
   37.2882   31.2632   48.0285 C   0  0  0  0  0  0  0  0  0  0  0  0
   37.7861   30.3739   48.9042 C   0  0  0  0  0  0  0  0  0  0  0  0
   38.0932   30.8723   50.2809 C   0  0  0  0  0  0  0  0  0  0  0  0
   37.2840   29.9756   51.5765 S   0  0  0  0  0  0  0  0  0  0  0  0
   40.7041   32.9475   46.9731 H   0  0  0  0  0  0  0  0  0  0  0  0
   41.2983   33.6047   44.7406 H   0  0  0  0  0  0  0  0  0  0  0  0
   37.0998   32.8945   40.9768 H   0  0  0  0  0  0  0  0  0  0  0  0
   36.2965   32.0432   43.2363 H   0  0  0  0  0  0  0  0  0  0  0  0
   36.7543   30.8649   47.1299 H   0  0  0  0  0  0  0  0  0  0  0  0
   36.5480   31.9969   48.4598 H   0  0  0  0  0  0  0  0  0  0  0  0
   37.0458   29.5252   49.0626 H   0  0  0  0  0  0  0  0  0  0  0  0
   38.6880   29.7818   48.6044 H   0  0  0  0  0  0  0  0  0  0  0  0
   37.7651   31.9521   50.3484 H   0  0  0  0  0  0  0  0  0  0  0  0
   39.1781   30.9132   50.5139 H   0  0  0  0  0  0  0  0  0  0  0  0
   35.5075   30.1421   51.5979 C   0  0  0  0  0  0  0  0  0  0  0  0
   34.9661   30.6818   52.7583 C   0  0  0  0  0  0  0  0  0  0  0  0
   35.5725   30.9793   53.5957 H   0  0  0  0  0  0  0  0  0  0  0  0
   33.6120   30.8788   52.9309 C   0  0  0  0  0  0  0  0  0  0  0  0
   33.2007   31.2997   53.8368 H   0  0  0  0  0  0  0  0  0  0  0  0
   32.7193   30.5305   51.9118 C   0  0  0  0  0  0  0  0  0  0  0  0
   33.2672   29.9978   50.7700 C   0  0  0  0  0  0  0  0  0  0  0  0
   34.6239   29.7999   50.5961 C   0  0  0  0  0  0  0  0  0  0  0  0
   35.0896   29.3841   49.7142 H   0  0  0  0  0  0  0  0  0  0  0  0
   32.1891   29.5345   49.4376 S   0  0  0  0  0  0  0  0  0  0  0  0
   30.5212   29.9007   49.9291 C   0  0  0  0  0  0  0  0  0  0  0  0
   29.4944   29.6278   49.0490 C   0  0  0  0  0  0  0  0  0  0  0  0
   29.6452   29.1979   48.0630 H   0  0  0  0  0  0  0  0  0  0  0  0
   28.1840   29.8958   49.3890 C   0  0  0  0  0  0  0  0  0  0  0  0
   27.2979   29.7239   48.7805 H   0  0  0  0  0  0  0  0  0  0  0  0
   27.9528   30.4451   50.6411 C   0  0  0  0  0  0  0  0  0  0  0  0
   26.9486   30.6753   50.9611 H   0  0  0  0  0  0  0  0  0  0  0  0
   28.9745   30.7207   51.5270 C   0  0  0  0  0  0  0  0  0  0  0  0
   28.7680   31.1470   52.4911 H   0  0  0  0  0  0  0  0  0  0  0  0
   30.2962   30.4515   51.1863 C   0  0  0  0  0  0  0  0  0  0  0  0
   31.3454   30.7380   52.0991 N   0  0  0  0  0  0  0  0  0  0  0  0
   31.0391   31.1571   53.0259 H   0  0  0  0  0  0  0  0  0  0  0  0
  1 10  1  0
  2  1  2  0
  3  2  1  0
  4  5  1  0
  4  3  2  0
  5  6  2  0
  6  1  1  0
  7  9  1  0
  8  7  2  0
  9  5  1  0
 10 11  1  0
 11 12  1  0
 12 13  1  0
 13 14  1  0
  2 15  1  0
  3 16  1  0
  7 17  1  0
  9 18  1  0
 11 19  1  0
 11 20  1  0
 12 21  1  0
 12 22  1  0
 13 23  1  0
 13 24  1  0
 25 26  2  0
 26 27  1  0
 26 28  1  0
 28 29  1  0
 28 30  2  0
 30 31  1  0
 31 32  2  0
 32 33  1  0
 31 34  1  0
 34 35  1  0
 35 36  2  0
 36 37  1  0
 36 38  1  0
 38 39  1  0
 38 40  2  0
 40 41  1  0
 40 42  1  0
 42 43  1  0
 42 44  2  0
 44 45  1  0
 45 46  1  0
 32 25  1  0
 44 35  1  0
 45 30  1  0
 14 25  1  0
M  ISO  8  15  14  16  14  17   6  19   8  20   8  21   8  22   8  23   8
M  ISO  8  24   8  27  16  29  16  33  16  37  16  39  16  41  16  43  16
M  ISO  1  46   5
M  END
>  <DihAtoms>  (1) 
12,13,24,25

>  <DihDeg>  (1) 
89.84518687623412

$$$$
