
     RDKit          3D

 44 48  0  0  0  0  0  0  0  0999 V2000
   34.6584   28.3033   49.5769 C   0  0  0  0  0  0  0  0  0  0  0  0
   37.2868   30.1787   51.3817 C   0  0  0  0  0  0  0  0  0  0  0  0
   38.0751   30.6919   50.3443 C   0  0  0  0  0  0  0  0  0  0  0  0
   37.6876   30.3824   49.0186 C   0  0  0  0  0  0  0  0  0  0  0  0
   36.5857   29.6137   48.8270 N   0  0  0  0  0  0  0  0  0  0  0  0
   35.8627   29.1460   49.8718 C   0  0  0  0  0  0  0  0  0  0  0  0
   36.2145   29.4286   51.1272 N   0  0  0  0  0  0  0  0  0  0  0  0
   34.4480   28.2299   48.0943 C   0  0  0  0  0  0  0  0  0  0  0  0
   32.9550   28.2550   47.8899 C   0  0  0  0  0  0  0  0  0  0  0  0
   32.0185   27.5847   48.6353 C   0  0  0  0  0  0  0  0  0  0  0  0
   30.7479   27.8547   48.1446 C   0  0  0  0  0  0  0  0  0  0  0  0
   30.9573   28.6918   47.1027 N   0  0  0  0  0  0  0  0  0  0  0  0
   32.2506   28.9253   46.9548 N   0  0  0  0  0  0  0  0  0  0  0  0
   33.7770   28.5857   50.1640 H   0  0  0  0  0  0  0  0  0  0  0  0
   34.9400   27.2613   49.8996 H   0  0  0  0  0  0  0  0  0  0  0  0
   37.6134   30.4361   52.3877 H   0  0  0  0  0  0  0  0  0  0  0  0
   38.9593   31.3073   50.4513 H   0  0  0  0  0  0  0  0  0  0  0  0
   38.1922   30.7039   48.1288 H   0  0  0  0  0  0  0  0  0  0  0  0
   34.7867   27.2662   47.6410 H   0  0  0  0  0  0  0  0  0  0  0  0
   34.8966   29.0907   47.5442 H   0  0  0  0  0  0  0  0  0  0  0  0
   32.1858   26.9282   49.4906 H   0  0  0  0  0  0  0  0  0  0  0  0
   29.7758   27.4919   48.4943 H   0  0  0  0  0  0  0  0  0  0  0  0
   29.9926   29.2818   46.2399 C   0  0  0  0  0  0  0  0  0  0  0  0
   30.2635   29.4736   44.9085 C   0  0  0  0  0  0  0  0  0  0  0  0
   31.2238   29.1687   44.5242 H   0  0  0  0  0  0  0  0  0  0  0  0
   29.3086   30.0481   44.0960 C   0  0  0  0  0  0  0  0  0  0  0  0
   29.6141   30.1614   43.0478 H   0  0  0  0  0  0  0  0  0  0  0  0
   28.0666   30.4571   44.5280 C   0  0  0  0  0  0  0  0  0  0  0  0
   27.8178   30.2556   45.8621 C   0  0  0  0  0  0  0  0  0  0  0  0
   28.7539   29.6880   46.6781 C   0  0  0  0  0  0  0  0  0  0  0  0
   28.5293   29.5398   47.7344 H   0  0  0  0  0  0  0  0  0  0  0  0
   26.2335   30.7578   46.4999 S   0  0  0  0  0  0  0  0  0  0  0  0
   25.3245   31.4404   45.1289 C   0  0  0  0  0  0  0  0  0  0  0  0
   24.0578   31.9059   45.3567 C   0  0  0  0  0  0  0  0  0  0  0  0
   23.6133   31.8624   46.3475 H   0  0  0  0  0  0  0  0  0  0  0  0
   23.3049   32.4431   44.3455 C   0  0  0  0  0  0  0  0  0  0  0  0
   22.3034   32.8226   44.4754 H   0  0  0  0  0  0  0  0  0  0  0  0
   23.8591   32.5027   43.0866 C   0  0  0  0  0  0  0  0  0  0  0  0
   23.2905   32.9161   42.2892 H   0  0  0  0  0  0  0  0  0  0  0  0
   25.1371   32.0199   42.9146 C   0  0  0  0  0  0  0  0  0  0  0  0
   25.5108   32.1010   41.8861 H   0  0  0  0  0  0  0  0  0  0  0  0
   25.9309   31.4722   43.8989 C   0  0  0  0  0  0  0  0  0  0  0  0
   27.2209   31.0230   43.5575 N   0  0  0  0  0  0  0  0  0  0  0  0
   27.5288   31.1216   42.5701 H   0  0  0  0  0  0  0  0  0  0  0  0
  1  6  1  0
  3  2  2  0
  4  3  1  0
  5  4  2  0
  5  6  1  0
  6  7  2  0
  7  2  1  0
  8  1  1  0
  9  8  1  0
  9 10  1  0
 11 10  2  0
 12 11  1  0
 13 12  1  0
 13  9  2  0
  1 14  1  0
  1 15  1  0
  2 16  1  0
  3 17  1  0
  4 18  1  0
  8 19  1  0
  8 20  1  0
 10 21  1  0
 11 22  1  0
 23 24  2  0
 24 25  1  0
 24 26  1  0
 26 27  1  0
 26 28  2  0
 28 29  1  0
 29 30  2  0
 30 31  1  0
 29 32  1  0
 32 33  1  0
 33 34  2  0
 34 35  1  0
 34 36  1  0
 36 37  1  0
 36 38  2  0
 38 39  1  0
 38 40  1  0
 40 41  1  0
 40 42  2  0
 42 43  1  0
 43 44  1  0
 30 23  1  0
 42 33  1  0
 43 28  1  0
 12 23  1  0
M  ISO  8  14   8  15   8  16  14  17  14  18  14  19   8  20   8  21  14
M  ISO  8  22  14  25  16  27  16  31  16  35  16  37  16  39  16  41  16
M  ISO  1  44   5
M  END
>  <DihAtoms>  (1) 
10,11,22,23

>  <DihDeg>  (1) 
80.78909314054647

$$$$
