
     RDKit          3D

 39 43  0  0  0  0  0  0  0  0999 V2000
   37.5243   31.4048   49.3285 C   0  0  0  0  0  0  0  0  0  0  0  0
   38.1444   32.6576   49.3903 C   0  0  0  0  0  0  0  0  0  0  0  0
   38.9265   32.9842   48.2994 C   0  0  0  0  0  0  0  0  0  0  0  0
   39.0695   32.1247   47.2418 N   0  0  0  0  0  0  0  0  0  0  0  0
   38.4418   30.9112   47.2301 C   0  0  0  0  0  0  0  0  0  0  0  0
   37.6622   30.5472   48.2825 N   0  0  0  0  0  0  0  0  0  0  0  0
   36.6456   31.0351   50.5071 C   0  0  1  0  0  0  0  0  0  0  0  0
   36.1393   29.6903   50.6647 C   0  0  2  0  0  0  0  0  0  0  0  0
   37.3552   30.0846   51.4795 C   0  0  0  0  0  0  0  0  0  0  0  0
   36.3671   28.7483   49.6552 O   0  0  0  0  0  0  0  0  0  0  0  0
   38.0005   33.2995   50.2458 H   0  0  0  0  0  0  0  0  0  0  0  0
   39.4312   33.9443   48.2947 H   0  0  0  0  0  0  0  0  0  0  0  0
   38.5614   30.2416   46.3914 H   0  0  0  0  0  0  0  0  0  0  0  0
   36.2681   31.9311   51.0555 H   0  0  0  0  0  0  0  0  0  0  0  0
   35.1819   29.5529   51.1950 H   0  0  0  0  0  0  0  0  0  0  0  0
   37.1634   30.1751   52.5604 H   0  0  0  0  0  0  0  0  0  0  0  0
   38.3443   29.6723   51.1926 H   0  0  0  0  0  0  0  0  0  0  0  0
   35.5509   27.7162   49.2783 C   0  0  0  0  0  0  0  0  0  0  0  0
   34.5171   27.3657   50.1561 C   0  0  0  0  0  0  0  0  0  0  0  0
   34.3910   27.9134   51.0997 H   0  0  0  0  0  0  0  0  0  0  0  0
   33.6643   26.3333   49.8274 C   0  0  0  0  0  0  0  0  0  0  0  0
   32.8872   26.1167   50.5537 H   0  0  0  0  0  0  0  0  0  0  0  0
   33.7521   25.5971   48.6677 C   0  0  0  0  0  0  0  0  0  0  0  0
   34.7701   25.9612   47.8303 C   0  0  0  0  0  0  0  0  0  0  0  0
   35.6207   26.9641   48.1201 C   0  0  0  0  0  0  0  0  0  0  0  0
   36.4227   27.2341   47.4364 H   0  0  0  0  0  0  0  0  0  0  0  0
   34.9861   25.0812   46.2965 S   0  0  0  0  0  0  0  0  0  0  0  0
   33.6979   23.8508   46.2660 C   0  0  0  0  0  0  0  0  0  0  0  0
   33.6322   23.0292   45.1893 C   0  0  0  0  0  0  0  0  0  0  0  0
   34.3498   23.1242   44.3700 H   0  0  0  0  0  0  0  0  0  0  0  0
   32.6703   22.0459   45.0752 C   0  0  0  0  0  0  0  0  0  0  0  0
   32.6170   21.3918   44.2195 H   0  0  0  0  0  0  0  0  0  0  0  0
   31.7587   21.9149   46.1015 C   0  0  0  0  0  0  0  0  0  0  0  0
   30.9833   21.1602   46.0633 H   0  0  0  0  0  0  0  0  0  0  0  0
   31.8724   22.7783   47.1735 C   0  0  0  0  0  0  0  0  0  0  0  0
   31.1226   22.6301   47.9604 H   0  0  0  0  0  0  0  0  0  0  0  0
   32.8204   23.7693   47.3170 C   0  0  0  0  0  0  0  0  0  0  0  0
   32.8202   24.5729   48.4559 N   0  0  0  0  0  0  0  0  0  0  0  0
   32.0884   24.3942   49.1757 H   0  0  0  0  0  0  0  0  0  0  0  0
  1  2  2  0
  1  7  1  0
  3  2  1  0
  4  3  2  0
  5  4  1  0
  5  6  2  0
  6  1  1  0
  7  8  1  0
  7  9  1  0
  8  9  1  0
 10  8  1  0
  2 11  1  0
  3 12  1  0
  5 13  1  0
  7 14  1  1
  8 15  1  1
  9 16  1  0
  9 17  1  0
 18 19  2  0
 19 20  1  0
 19 21  1  0
 21 22  1  0
 21 23  2  0
 23 24  1  0
 24 25  2  0
 25 26  1  0
 24 27  1  0
 27 28  1  0
 28 29  2  0
 29 30  1  0
 29 31  1  0
 31 32  1  0
 31 33  2  0
 33 34  1  0
 33 35  1  0
 35 36  1  0
 35 37  2  0
 37 38  1  0
 38 39  1  0
 25 18  1  0
 37 28  1  0
 38 23  1  0
 10 18  1  0
M  ISO  8  11  14  12  14  13  14  14  13  15  13  16  13  17  13  20  16
M  ISO  7  22  16  26  16  30  16  32  16  34  16  36  16  39   5
M  END
>  <DihAtoms>  (1) 
7,9,17,18

>  <DihDeg>  (1) 
179.99856549361843

$$$$
