
 OpenBabel03272503303D

 47 51  0  0  1  0  0  0  0  0999 V2000
   35.2510   29.5410   47.9300 C   0  0  0  0  0  0  0  0  0  0  0  0
   35.2060   29.9730   46.6050 C   0  0  0  0  0  0  0  0  0  0  0  0
   34.0770   29.6560   45.8650 C   0  0  0  0  0  0  0  0  0  0  0  0
   33.0860   28.9410   46.4920 N   0  0  0  0  0  0  0  0  0  0  0  0
   33.1610   28.5420   47.7710 C   0  0  0  0  0  0  0  0  0  0  0  0
   34.2500   28.8450   48.4920 N   0  0  0  0  0  0  0  0  0  0  0  0
   35.9760   30.5280   46.1110 H   0  0  0  0  0  0  0  0  0  0  0  0
   33.9570   29.9520   44.8250 H   0  0  0  0  0  0  0  0  0  0  0  0
   36.4310   29.8790   48.6830 N   0  0  0  0  0  0  0  0  0  0  0  0
   37.5550   30.6330   48.2340 C   0  0  0  0  0  0  0  0  0  0  0  0
   38.0630   31.2810   49.5220 C   0  0  2  0  0  0  0  0  0  0  0  0
   37.0780   30.8890   50.5960 C   0  0  0  0  0  0  0  0  0  0  0  0
   36.7020   29.5130   50.0510 C   0  0  0  0  0  0  0  0  0  0  0  0
   38.3230   29.9150   47.8970 H   0  0  0  0  0  0  0  0  0  0  0  0
   37.3110   31.4130   47.4800 H   0  0  0  0  0  0  0  0  0  0  0  0
   39.0440   30.8290   49.8320 H   0  0  0  0  0  0  0  0  0  0  0  0
   36.1750   31.5140   50.5260 H   0  0  0  0  0  0  0  0  0  0  0  0
   37.5170   30.8470   51.5990 H   0  0  0  0  0  0  0  0  0  0  0  0
   35.7670   29.1890   50.5390 H   0  0  0  0  0  0  0  0  0  0  0  0
   37.5370   28.7970   50.1670 H   0  0  0  0  0  0  0  0  0  0  0  0
   38.2440   32.7640   49.3980 C   0  0  0  0  0  0  0  0  0  0  0  0
   37.0910   33.3350   49.9010 F   0  0  0  0  0  0  0  0  0  0  0  0
   38.2940   33.0540   48.0570 F   0  0  0  0  0  0  0  0  0  0  0  0
   39.3590   33.2340   50.0260 F   0  0  0  0  0  0  0  0  0  0  0  0
   31.8500   27.6160   48.5450 S   0  0  0  0  0  0  0  0  0  0  0  0
   30.3440   27.7360   47.5990 C   0  0  0  0  0  0  0  0  0  0  0  0
   29.3820   28.7100   47.8450 C   0  0  0  0  0  0  0  0  0  0  0  0
   29.5450   29.4150   48.6290 H   0  0  0  0  0  0  0  0  0  0  0  0
   28.2390   28.7300   47.0610 C   0  0  0  0  0  0  0  0  0  0  0  0
   27.5340   29.5190   47.3130 H   0  0  0  0  0  0  0  0  0  0  0  0
   27.9820   27.8400   46.0370 C   0  0  0  0  0  0  0  0  0  0  0  0
   28.9520   26.8980   45.8260 C   0  0  0  0  0  0  0  0  0  0  0  0
   30.0760   26.8550   46.5770 C   0  0  0  0  0  0  0  0  0  0  0  0
   30.8190   26.0790   46.3620 H   0  0  0  0  0  0  0  0  0  0  0  0
   28.6970   25.7180   44.5290 S   0  0  0  0  0  0  0  0  0  0  0  0
   27.1270   26.1050   43.7900 C   0  0  0  0  0  0  0  0  0  0  0  0
   26.6980   25.3290   42.7530 C   0  0  0  0  0  0  0  0  0  0  0  0
   27.2760   24.4890   42.3650 H   0  0  0  0  0  0  0  0  0  0  0  0
   25.4860   25.5690   42.1290 C   0  0  0  0  0  0  0  0  0  0  0  0
   25.1590   24.9550   41.3160 H   0  0  0  0  0  0  0  0  0  0  0  0
   24.7200   26.6200   42.5870 C   0  0  0  0  0  0  0  0  0  0  0  0
   23.7780   26.8320   42.1250 H   0  0  0  0  0  0  0  0  0  0  0  0
   25.2140   27.3630   43.6390 C   0  0  0  0  0  0  0  0  0  0  0  0
   24.5520   28.1850   43.9510 H   0  0  0  0  0  0  0  0  0  0  0  0
   26.4130   27.1630   44.2910 C   0  0  0  0  0  0  0  0  0  0  0  0
   26.7800   28.0080   45.3500 N   0  0  0  0  0  0  0  0  0  0  0  0
   26.1140   28.7690   45.6030 H   0  0  0  0  0  0  0  0  0  0  0  0
  1  6  1  0  0  0  0
  1  9  1  0  0  0  0
  2  1  2  0  0  0  0
  3  4  2  0  0  0  0
  3  2  1  0  0  0  0
  4  5  1  0  0  0  0
  5  6  2  0  0  0  0
  5 25  1  0  0  0  0
  7  2  1  0  0  0  0
  8  3  1  0  0  0  0
  9 13  1  0  0  0  0
 10  9  1  0  0  0  0
 10 11  1  0  0  0  0
 11 16  1  1  0  0  0
 11 12  1  0  0  0  0
 12 18  1  0  0  0  0
 13 20  1  0  0  0  0
 13 19  1  0  0  0  0
 13 12  1  0  0  0  0
 14 10  1  0  0  0  0
 15 10  1  0  0  0  0
 17 12  1  0  0  0  0
 21 11  1  0  0  0  0
 21 22  1  0  0  0  0
 21 24  1  0  0  0  0
 23 21  1  0  0  0  0
 26 27  1  0  0  0  0
 26 25  1  0  0  0  0
 27 28  1  0  0  0  0
 29 30  1  0  0  0  0
 29 27  2  0  0  0  0
 31 29  1  0  0  0  0
 32 31  2  0  0  0  0
 32 33  1  0  0  0  0
 33 26  2  0  0  0  0
 34 33  1  0  0  0  0
 35 32  1  0  0  0  0
 36 45  1  0  0  0  0
 36 35  1  0  0  0  0
 37 36  2  0  0  0  0
 38 37  1  0  0  0  0
 39 41  2  0  0  0  0
 39 37  1  0  0  0  0
 40 39  1  0  0  0  0
 41 43  1  0  0  0  0
 42 41  1  0  0  0  0
 43 44  1  0  0  0  0
 43 45  2  0  0  0  0
 45 46  1  0  0  0  0
 46 47  1  0  0  0  0
 46 31  1  0  0  0  0
M  END
>  <minimizedAffinity>
-7.09106445

>  <minimizedRMSD>
1.19795668

$$$$
