
     RDKit          3D

 39 43  0  0  0  0  0  0  0  0999 V2000
   38.0069   33.1442   49.4182 C   0  0  0  0  0  0  0  0  0  0  0  0
   38.9824   33.0588   48.4187 C   0  0  0  0  0  0  0  0  0  0  0  0
   38.9378   31.9874   47.4881 C   0  0  0  0  0  0  0  0  0  0  0  0
   37.9304   31.0732   47.6102 N   0  0  0  0  0  0  0  0  0  0  0  0
   37.0067   31.1936   48.5931 C   0  0  0  0  0  0  0  0  0  0  0  0
   37.0232   32.2078   49.4980 N   0  0  0  0  0  0  0  0  0  0  0  0
   35.9334   30.1299   48.6265 C   0  0  2  0  0  0  0  0  0  0  0  0
   34.9526   30.0796   49.7112 C   0  0  0  0  0  0  0  0  0  0  0  0
   36.0706   29.0796   49.6710 C   0  0  2  0  0  0  0  0  0  0  0  0
   37.4551   29.2549   50.8352 S   0  0  0  0  0  0  0  0  0  0  0  0
   38.0557   33.9620   50.1142 H   0  0  0  0  0  0  0  0  0  0  0  0
   39.7788   33.7893   48.3292 H   0  0  0  0  0  0  0  0  0  0  0  0
   39.6733   31.8909   46.7054 H   0  0  0  0  0  0  0  0  0  0  0  0
   35.7271   29.7234   47.6158 H   0  0  0  0  0  0  0  0  0  0  0  0
   33.9110   29.7782   49.5364 H   0  0  0  0  0  0  0  0  0  0  0  0
   35.0312   30.8918   50.4919 H   0  0  0  0  0  0  0  0  0  0  0  0
   35.7195   28.0560   49.4249 H   0  0  0  0  0  0  0  0  0  0  0  0
   37.3563   27.8617   51.9537 C   0  0  0  0  0  0  0  0  0  0  0  0
   36.1349   27.5037   52.4896 C   0  0  0  0  0  0  0  0  0  0  0  0
   35.2728   28.0721   52.2206 H   0  0  0  0  0  0  0  0  0  0  0  0
   36.0846   26.4259   53.3494 C   0  0  0  0  0  0  0  0  0  0  0  0
   35.0722   26.2122   53.7281 H   0  0  0  0  0  0  0  0  0  0  0  0
   37.1747   25.6680   53.7203 C   0  0  0  0  0  0  0  0  0  0  0  0
   38.3729   26.0489   53.1712 C   0  0  0  0  0  0  0  0  0  0  0  0
   38.4449   27.0985   52.3291 C   0  0  0  0  0  0  0  0  0  0  0  0
   39.4188   27.3763   51.9078 H   0  0  0  0  0  0  0  0  0  0  0  0
   39.8202   25.1097   53.6107 S   0  0  0  0  0  0  0  0  0  0  0  0
   39.2768   23.8348   54.7283 C   0  0  0  0  0  0  0  0  0  0  0  0
   40.2350   22.9787   55.2040 C   0  0  0  0  0  0  0  0  0  0  0  0
   41.2667   23.0692   54.9183 H   0  0  0  0  0  0  0  0  0  0  0  0
   39.8870   21.9683   56.0726 C   0  0  0  0  0  0  0  0  0  0  0  0
   40.6252   21.2813   56.4606 H   0  0  0  0  0  0  0  0  0  0  0  0
   38.5671   21.8418   56.4463 C   0  0  0  0  0  0  0  0  0  0  0  0
   38.2643   21.0585   57.1266 H   0  0  0  0  0  0  0  0  0  0  0  0
   37.6538   22.7371   55.9306 C   0  0  0  0  0  0  0  0  0  0  0  0
   36.6271   22.5855   56.2633 H   0  0  0  0  0  0  0  0  0  0  0  0
   37.9463   23.7658   55.0591 C   0  0  0  0  0  0  0  0  0  0  0  0
   36.9137   24.6184   54.6017 N   0  0  0  0  0  0  0  0  0  0  0  0
   35.9574   24.4167   54.9593 H   0  0  0  0  0  0  0  0  0  0  0  0
  1  6  2  0
  2  1  1  0
  3  4  1  0
  3  2  2  0
  4  5  2  0
  5  7  1  0
  5  6  1  0
  7  9  1  0
  7  8  1  0
  9  8  1  0
  9 10  1  0
  1 11  1  0
  2 12  1  0
  3 13  1  0
  7 14  1  6
  8 15  1  0
  8 16  1  0
  9 17  1  6
 18 19  2  0
 19 20  1  0
 19 21  1  0
 21 22  1  0
 21 23  2  0
 23 24  1  0
 24 25  2  0
 25 26  1  0
 24 27  1  0
 27 28  1  0
 28 29  2  0
 29 30  1  0
 29 31  1  0
 31 32  1  0
 31 33  2  0
 33 34  1  0
 33 35  1  0
 35 36  1  0
 35 37  2  0
 37 38  1  0
 38 39  1  0
 25 18  1  0
 37 28  1  0
 38 23  1  0
 10 18  1  0
M  ISO  8  11  14  12  14  13  14  14  13  15  13  16  13  17  13  20  16
M  ISO  7  22  16  26  16  30  16  32  16  34  16  36  16  39   5
M  END
>  <DihAtoms>  (1) 
8,9,17,18

>  <DihDeg>  (1) 
89.99946804356215

$$$$
