
 OpenBabel03262521223D

 46 49  0  0  0  0  0  0  0  0999 V2000
   36.9980   29.0340   29.8240 C   0  0  0  0  0  0  0  0  0  0  0  0
   36.8150   28.8520   28.7230 H   0  0  0  0  0  0  0  0  0  0  0  0
   36.1150   28.5740   30.3150 H   0  0  0  0  0  0  0  0  0  0  0  0
   37.1150   30.5100   30.0420 C   0  0  0  0  0  0  0  0  0  0  0  0
   37.3870   30.9310   29.0210 H   0  0  0  0  0  0  0  0  0  0  0  0
   38.0940   30.6470   30.5680 H   0  0  0  0  0  0  0  0  0  0  0  0
   36.0360   31.1430   30.5300 C   0  0  0  0  0  0  0  0  0  0  0  0
   35.8570   32.1970   30.1990 H   0  0  0  0  0  0  0  0  0  0  0  0
   35.0480   30.6400   30.3190 H   0  0  0  0  0  0  0  0  0  0  0  0
   36.2690   31.0140   31.8740 O   0  0  0  0  0  0  0  0  0  0  0  0
   35.2510   30.6060   32.6920 C   0  0  0  0  0  0  0  0  0  0  0  0
   35.4460   30.9220   34.0120 C   0  0  0  0  0  0  0  0  0  0  0  0
   34.4730   30.5610   34.9620 C   0  0  0  0  0  0  0  0  0  0  0  0
   33.3600   29.8980   34.4960 N   0  0  0  0  0  0  0  0  0  0  0  0
   33.1990   29.5990   33.1690 C   0  0  0  0  0  0  0  0  0  0  0  0
   34.1400   29.9550   32.2920 N   0  0  0  0  0  0  0  0  0  0  0  0
   31.1640   28.5670   33.8690 C   0  0  0  0  0  0  0  0  0  0  0  0
   31.3650   28.8130   35.1030 O   0  0  0  0  0  0  0  0  0  0  0  0
   32.0130   28.9080   32.7730 N   0  0  0  0  0  0  0  0  0  0  0  0
   36.2920   31.4380   34.4330 H   0  0  0  0  0  0  0  0  0  0  0  0
   34.5910   30.7890   35.9990 H   0  0  0  0  0  0  0  0  0  0  0  0
   30.2390   28.0310   33.6030 H   0  0  0  0  0  0  0  0  0  0  0  0
   31.8590   28.7130   31.7640 H   0  0  0  0  0  0  0  0  0  0  0  0
   38.4350   28.1120   30.2960 S   0  0  0  0  0  0  0  0  0  0  0  0
   38.3180   27.3210   31.8910 C   0  0  0  0  0  0  0  0  0  0  0  0
   37.2640   27.7360   32.6950 C   0  0  0  0  0  0  0  0  0  0  0  0
   36.5610   28.4900   32.3850 H   0  0  0  0  0  0  0  0  0  0  0  0
   37.0320   27.2200   33.9530 C   0  0  0  0  0  0  0  0  0  0  0  0
   36.2090   27.5500   34.5700 H   0  0  0  0  0  0  0  0  0  0  0  0
   37.8790   26.2340   34.4700 C   0  0  0  0  0  0  0  0  0  0  0  0
   38.9170   25.8310   33.6650 C   0  0  0  0  0  0  0  0  0  0  0  0
   39.1490   26.3470   32.4040 C   0  0  0  0  0  0  0  0  0  0  0  0
   39.9550   26.0560   31.7450 H   0  0  0  0  0  0  0  0  0  0  0  0
   40.0280   24.5810   34.2610 S   0  0  0  0  0  0  0  0  0  0  0  0
   39.4930   24.1010   35.8860 C   0  0  0  0  0  0  0  0  0  0  0  0
   40.2050   23.1300   36.5610 C   0  0  0  0  0  0  0  0  0  0  0  0
   41.0820   22.6360   36.1540 H   0  0  0  0  0  0  0  0  0  0  0  0
   39.8250   22.7270   37.8240 C   0  0  0  0  0  0  0  0  0  0  0  0
   40.3070   21.9760   38.4480 H   0  0  0  0  0  0  0  0  0  0  0  0
   38.7090   23.3370   38.3760 C   0  0  0  0  0  0  0  0  0  0  0  0
   38.3660   23.0620   39.3610 H   0  0  0  0  0  0  0  0  0  0  0  0
   37.9920   24.3080   37.7090 C   0  0  0  0  0  0  0  0  0  0  0  0
   37.1300   24.7650   38.1590 H   0  0  0  0  0  0  0  0  0  0  0  0
   38.3730   24.7160   36.4340 C   0  0  0  0  0  0  0  0  0  0  0  0
   37.6320   25.7150   35.7490 N   0  0  0  0  0  0  0  0  0  0  0  0
   36.7970   26.1050   36.2780 H   0  0  0  0  0  0  0  0  0  0  0  0
  1  4  1  0  0  0  0
  1 24  1  0  0  0  0
  1  3  1  0  0  0  0
  2  1  1  0  0  0  0
  4  7  1  0  0  0  0
  4  6  1  0  0  0  0
  5  4  1  0  0  0  0
  7 10  1  0  0  0  0
  8  7  1  0  0  0  0
  9  7  1  0  0  0  0
 10 11  1  0  0  0  0
 11 12  1  0  0  0  0
 12 20  1  0  0  0  0
 12 13  2  0  0  0  0
 13 21  1  0  0  0  0
 14 13  1  0  0  0  0
 15 14  2  0  0  0  0
 16 11  2  0  0  0  0
 16 15  1  0  0  0  0
 17 18  2  0  0  0  0
 19 15  1  0  0  0  0
 19 17  1  0  0  0  0
 22 17  1  0  0  0  0
 23 19  1  0  0  0  0
 24 25  1  0  0  0  0
 25 32  2  0  0  0  0
 25 26  1  0  0  0  0
 26 28  2  0  0  0  0
 27 26  1  0  0  0  0
 28 30  1  0  0  0  0
 28 29  1  0  0  0  0
 30 45  1  0  0  0  0
 31 34  1  0  0  0  0
 31 30  2  0  0  0  0
 32 31  1  0  0  0  0
 33 32  1  0  0  0  0
 34 35  1  0  0  0  0
 35 44  2  0  0  0  0
 35 36  1  0  0  0  0
 36 38  2  0  0  0  0
 37 36  1  0  0  0  0
 38 40  1  0  0  0  0
 38 39  1  0  0  0  0
 40 41  1  0  0  0  0
 42 43  1  0  0  0  0
 42 40  2  0  0  0  0
 44 42  1  0  0  0  0
 45 46  1  0  0  0  0
 45 44  1  0  0  0  0
M  END
>  <minimizedAffinity>
-6.00543785

$$$$

 OpenBabel03262521223D

 46 49  0  0  0  0  0  0  0  0999 V2000
   36.9660   28.9030   29.8170 C   0  0  0  0  0  0  0  0  0  0  0  0
   36.9260   28.9740   28.6890 H   0  0  0  0  0  0  0  0  0  0  0  0
   36.0450   28.3400   30.0770 H   0  0  0  0  0  0  0  0  0  0  0  0
   37.0050   30.2920   30.3720 C   0  0  0  0  0  0  0  0  0  0  0  0
   37.5970   30.8910   29.6080 H   0  0  0  0  0  0  0  0  0  0  0  0
   37.7580   30.2500   31.2000 H   0  0  0  0  0  0  0  0  0  0  0  0
   35.8260   30.8880   30.6130 C   0  0  0  0  0  0  0  0  0  0  0  0
   35.8410   31.8870   31.1170 H   0  0  0  0  0  0  0  0  0  0  0  0
   35.1870   31.0720   29.7020 H   0  0  0  0  0  0  0  0  0  0  0  0
   35.2050   29.9060   31.3420 O   0  0  0  0  0  0  0  0  0  0  0  0
   34.7450   30.1970   32.5970 C   0  0  0  0  0  0  0  0  0  0  0  0
   33.4680   29.7580   32.8290 C   0  0  0  0  0  0  0  0  0  0  0  0
   32.8720   29.9910   34.0830 C   0  0  0  0  0  0  0  0  0  0  0  0
   33.6270   30.6610   35.0190 N   0  0  0  0  0  0  0  0  0  0  0  0
   34.9020   31.0850   34.7510 C   0  0  0  0  0  0  0  0  0  0  0  0
   35.4390   30.8490   33.5530 N   0  0  0  0  0  0  0  0  0  0  0  0
   34.8410   31.9770   36.9640 C   0  0  0  0  0  0  0  0  0  0  0  0
   33.6360   31.6160   37.1670 O   0  0  0  0  0  0  0  0  0  0  0  0
   35.6130   31.7750   35.7810 N   0  0  0  0  0  0  0  0  0  0  0  0
   32.8320   29.2290   32.1400 H   0  0  0  0  0  0  0  0  0  0  0  0
   31.8780   29.6640   34.3010 H   0  0  0  0  0  0  0  0  0  0  0  0
   35.3570   32.5070   37.7810 H   0  0  0  0  0  0  0  0  0  0  0  0
   36.5960   32.0640   35.6040 H   0  0  0  0  0  0  0  0  0  0  0  0
   38.3640   27.9060   30.2510 S   0  0  0  0  0  0  0  0  0  0  0  0
   38.2690   27.1560   31.8660 C   0  0  0  0  0  0  0  0  0  0  0  0
   37.2300   27.5980   32.6770 C   0  0  0  0  0  0  0  0  0  0  0  0
   36.5270   28.3480   32.3590 H   0  0  0  0  0  0  0  0  0  0  0  0
   37.0170   27.1160   33.9510 C   0  0  0  0  0  0  0  0  0  0  0  0
   36.2060   27.4660   34.5730 H   0  0  0  0  0  0  0  0  0  0  0  0
   37.8670   26.1380   34.4790 C   0  0  0  0  0  0  0  0  0  0  0  0
   38.8890   25.7080   33.6680 C   0  0  0  0  0  0  0  0  0  0  0  0
   39.1030   26.1910   32.3910 C   0  0  0  0  0  0  0  0  0  0  0  0
   39.8960   25.8780   31.7260 H   0  0  0  0  0  0  0  0  0  0  0  0
   40.0020   24.4670   34.2780 S   0  0  0  0  0  0  0  0  0  0  0  0
   39.4920   24.0320   35.9230 C   0  0  0  0  0  0  0  0  0  0  0  0
   40.2090   23.0750   36.6100 C   0  0  0  0  0  0  0  0  0  0  0  0
   41.0770   22.5650   36.2020 H   0  0  0  0  0  0  0  0  0  0  0  0
   39.8490   22.7060   37.8900 C   0  0  0  0  0  0  0  0  0  0  0  0
   40.3360   21.9690   38.5250 H   0  0  0  0  0  0  0  0  0  0  0  0
   38.7450   23.3370   38.4440 C   0  0  0  0  0  0  0  0  0  0  0  0
   38.4170   23.0890   39.4420 H   0  0  0  0  0  0  0  0  0  0  0  0
   38.0220   24.2950   37.7640 C   0  0  0  0  0  0  0  0  0  0  0  0
   37.1710   24.7680   38.2170 H   0  0  0  0  0  0  0  0  0  0  0  0
   38.3850   24.6680   36.4740 C   0  0  0  0  0  0  0  0  0  0  0  0
   37.6380   25.6530   35.7750 N   0  0  0  0  0  0  0  0  0  0  0  0
   36.8140   26.0620   36.3080 H   0  0  0  0  0  0  0  0  0  0  0  0
  1  3  1  0  0  0  0
  1 24  1  0  0  0  0
  1  4  1  0  0  0  0
  2  1  1  0  0  0  0
  4  7  1  0  0  0  0
  4  6  1  0  0  0  0
  5  4  1  0  0  0  0
  7  8  1  0  0  0  0
  7 10  1  0  0  0  0
  9  7  1  0  0  0  0
 10 11  1  0  0  0  0
 11 12  2  0  0  0  0
 11 16  1  0  0  0  0
 12 13  1  0  0  0  0
 13 21  1  0  0  0  0
 13 14  2  0  0  0  0
 15 14  1  0  0  0  0
 15 19  1  0  0  0  0
 16 15  2  0  0  0  0
 17 18  2  0  0  0  0
 17 22  1  0  0  0  0
 19 17  1  0  0  0  0
 20 12  1  0  0  0  0
 23 19  1  0  0  0  0
 24 25  1  0  0  0  0
 25 32  2  0  0  0  0
 25 26  1  0  0  0  0
 26 28  2  0  0  0  0
 27 26  1  0  0  0  0
 28 30  1  0  0  0  0
 28 29  1  0  0  0  0
 30 45  1  0  0  0  0
 31 34  1  0  0  0  0
 31 30  2  0  0  0  0
 32 31  1  0  0  0  0
 33 32  1  0  0  0  0
 34 35  1  0  0  0  0
 35 44  2  0  0  0  0
 35 36  1  0  0  0  0
 36 38  2  0  0  0  0
 37 36  1  0  0  0  0
 38 40  1  0  0  0  0
 38 39  1  0  0  0  0
 40 41  1  0  0  0  0
 42 43  1  0  0  0  0
 42 40  2  0  0  0  0
 44 42  1  0  0  0  0
 45 46  1  0  0  0  0
 45 44  1  0  0  0  0
M  END
>  <minimizedAffinity>
-5.98126078

$$$$

 OpenBabel03262521223D

 46 49  0  0  0  0  0  0  0  0999 V2000
   37.2380   27.3360   30.6230 C   0  0  0  0  0  0  0  0  0  0  0  0
   36.7000   26.8980   31.5160 H   0  0  0  0  0  0  0  0  0  0  0  0
   36.8550   26.7390   29.7690 H   0  0  0  0  0  0  0  0  0  0  0  0
   38.7100   27.1980   30.8500 C   0  0  0  0  0  0  0  0  0  0  0  0
   39.1720   28.0720   30.2880 H   0  0  0  0  0  0  0  0  0  0  0  0
   39.0270   26.3570   30.1810 H   0  0  0  0  0  0  0  0  0  0  0  0
   39.1350   27.1920   32.1240 C   0  0  0  0  0  0  0  0  0  0  0  0
   40.2360   27.1070   32.3050 H   0  0  0  0  0  0  0  0  0  0  0  0
   38.8470   28.0980   32.7300 H   0  0  0  0  0  0  0  0  0  0  0  0
   38.4080   26.1380   32.6150 O   0  0  0  0  0  0  0  0  0  0  0  0
   38.3320   25.9520   33.9680 C   0  0  0  0  0  0  0  0  0  0  0  0
   38.5440   27.0960   34.6930 C   0  0  0  0  0  0  0  0  0  0  0  0
   38.4930   27.0460   36.0980 C   0  0  0  0  0  0  0  0  0  0  0  0
   38.2270   25.8220   36.6710 N   0  0  0  0  0  0  0  0  0  0  0  0
   38.0200   24.6990   35.9130 C   0  0  0  0  0  0  0  0  0  0  0  0
   38.0750   24.7790   34.5830 N   0  0  0  0  0  0  0  0  0  0  0  0
   37.7950   23.5850   38.0130 C   0  0  0  0  0  0  0  0  0  0  0  0
   38.0420   24.6350   38.6910 O   0  0  0  0  0  0  0  0  0  0  0  0
   37.7510   23.4700   36.5910 N   0  0  0  0  0  0  0  0  0  0  0  0
   38.7540   28.0770   34.3030 H   0  0  0  0  0  0  0  0  0  0  0  0
   38.6540   27.9160   36.6970 H   0  0  0  0  0  0  0  0  0  0  0  0
   37.5930   22.6570   38.5710 H   0  0  0  0  0  0  0  0  0  0  0  0
   37.5500   22.6200   36.0270 H   0  0  0  0  0  0  0  0  0  0  0  0
   36.6860   29.0060   30.4210 S   0  0  0  0  0  0  0  0  0  0  0  0
   36.1770   29.8090   31.9310 C   0  0  0  0  0  0  0  0  0  0  0  0
   35.9430   28.9670   33.0120 C   0  0  0  0  0  0  0  0  0  0  0  0
   36.0550   27.8990   32.9490 H   0  0  0  0  0  0  0  0  0  0  0  0
   35.5480   29.4300   34.2500 C   0  0  0  0  0  0  0  0  0  0  0  0
   35.3690   28.7680   35.0840 H   0  0  0  0  0  0  0  0  0  0  0  0
   35.3660   30.8020   34.4580 C   0  0  0  0  0  0  0  0  0  0  0  0
   35.6010   31.6230   33.3820 C   0  0  0  0  0  0  0  0  0  0  0  0
   35.9970   31.1600   32.1410 C   0  0  0  0  0  0  0  0  0  0  0  0
   36.1900   31.7750   31.2730 H   0  0  0  0  0  0  0  0  0  0  0  0
   35.3900   33.3750   33.5780 S   0  0  0  0  0  0  0  0  0  0  0  0
   34.8880   33.6820   35.2550 C   0  0  0  0  0  0  0  0  0  0  0  0
   34.6630   34.9840   35.6540 C   0  0  0  0  0  0  0  0  0  0  0  0
   34.7750   35.8420   34.9970 H   0  0  0  0  0  0  0  0  0  0  0  0
   34.2720   35.2680   36.9460 C   0  0  0  0  0  0  0  0  0  0  0  0
   34.0670   36.2490   37.3700 H   0  0  0  0  0  0  0  0  0  0  0  0
   34.1190   34.1970   37.8130 C   0  0  0  0  0  0  0  0  0  0  0  0
   33.8150   34.3590   38.8350 H   0  0  0  0  0  0  0  0  0  0  0  0
   34.3420   32.8920   37.4230 C   0  0  0  0  0  0  0  0  0  0  0  0
   34.2160   32.0800   38.1140 H   0  0  0  0  0  0  0  0  0  0  0  0
   34.7360   32.6030   36.1190 C   0  0  0  0  0  0  0  0  0  0  0  0
   34.9670   31.2600   35.7210 N   0  0  0  0  0  0  0  0  0  0  0  0
   34.8150   30.5290   36.4770 H   0  0  0  0  0  0  0  0  0  0  0  0
  1  4  1  0  0  0  0
  1  2  1  0  0  0  0
  3  1  1  0  0  0  0
  4  7  1  0  0  0  0
  5  4  1  0  0  0  0
  6  4  1  0  0  0  0
  7  8  1  0  0  0  0
  7 10  1  0  0  0  0
  7  9  1  0  0  0  0
 10 11  1  0  0  0  0
 11 16  2  0  0  0  0
 11 12  1  0  0  0  0
 12 13  2  0  0  0  0
 13 14  1  0  0  0  0
 13 21  1  0  0  0  0
 15 19  1  0  0  0  0
 15 14  2  0  0  0  0
 16 15  1  0  0  0  0
 17 22  1  0  0  0  0
 17 18  2  0  0  0  0
 19 17  1  0  0  0  0
 20 12  1  0  0  0  0
 23 19  1  0  0  0  0
 24  1  1  0  0  0  0
 24 25  1  0  0  0  0
 25 32  2  0  0  0  0
 25 26  1  0  0  0  0
 26 28  2  0  0  0  0
 27 26  1  0  0  0  0
 28 30  1  0  0  0  0
 28 29  1  0  0  0  0
 30 45  1  0  0  0  0
 31 34  1  0  0  0  0
 31 30  2  0  0  0  0
 32 31  1  0  0  0  0
 33 32  1  0  0  0  0
 34 35  1  0  0  0  0
 35 36  2  0  0  0  0
 35 44  1  0  0  0  0
 36 38  1  0  0  0  0
 37 36  1  0  0  0  0
 38 39  1  0  0  0  0
 38 40  2  0  0  0  0
 40 41  1  0  0  0  0
 42 40  1  0  0  0  0
 42 43  1  0  0  0  0
 44 42  2  0  0  0  0
 45 44  1  0  0  0  0
 45 46  1  0  0  0  0
M  END
>  <minimizedAffinity>
-5.74804163

$$$$

 OpenBabel03262521223D

 46 49  0  0  0  0  0  0  0  0999 V2000
   36.3470   28.6730   32.7840 C   0  0  0  0  0  0  0  0  0  0  0  0
   36.7890   29.7070   32.9070 H   0  0  0  0  0  0  0  0  0  0  0  0
   35.3900   28.8590   32.2530 H   0  0  0  0  0  0  0  0  0  0  0  0
   36.1810   28.0710   34.1430 C   0  0  0  0  0  0  0  0  0  0  0  0
   35.6040   27.1080   33.9630 H   0  0  0  0  0  0  0  0  0  0  0  0
   35.3790   28.6810   34.6320 H   0  0  0  0  0  0  0  0  0  0  0  0
   37.3000   27.8160   34.8400 C   0  0  0  0  0  0  0  0  0  0  0  0
   38.2810   27.9930   34.3330 H   0  0  0  0  0  0  0  0  0  0  0  0
   37.4060   28.3900   35.8050 H   0  0  0  0  0  0  0  0  0  0  0  0
   37.0790   26.5060   35.1800 O   0  0  0  0  0  0  0  0  0  0  0  0
   38.1490   25.6750   35.3690 C   0  0  0  0  0  0  0  0  0  0  0  0
   39.3030   26.1240   34.7820 C   0  0  0  0  0  0  0  0  0  0  0  0
   40.4820   25.3640   34.9010 C   0  0  0  0  0  0  0  0  0  0  0  0
   40.3990   24.1900   35.6160 N   0  0  0  0  0  0  0  0  0  0  0  0
   39.2270   23.7730   36.1890 C   0  0  0  0  0  0  0  0  0  0  0  0
   38.1260   24.5160   36.0590 N   0  0  0  0  0  0  0  0  0  0  0  0
   40.4920   21.8710   36.8830 C   0  0  0  0  0  0  0  0  0  0  0  0
   41.5540   22.2590   36.2960 O   0  0  0  0  0  0  0  0  0  0  0  0
   39.2310   22.5410   36.9130 N   0  0  0  0  0  0  0  0  0  0  0  0
   39.4290   27.0300   34.2150 H   0  0  0  0  0  0  0  0  0  0  0  0
   41.4000   25.6810   34.4570 H   0  0  0  0  0  0  0  0  0  0  0  0
   40.5330   20.9160   37.4300 H   0  0  0  0  0  0  0  0  0  0  0  0
   38.3580   22.2350   37.3880 H   0  0  0  0  0  0  0  0  0  0  0  0
   37.4070   27.7530   31.7040 S   0  0  0  0  0  0  0  0  0  0  0  0
   37.0210   26.0150   31.5880 C   0  0  0  0  0  0  0  0  0  0  0  0
   35.6990   25.7090   31.2880 C   0  0  0  0  0  0  0  0  0  0  0  0
   34.9500   26.4670   31.1390 H   0  0  0  0  0  0  0  0  0  0  0  0
   35.2400   24.4150   31.1600 C   0  0  0  0  0  0  0  0  0  0  0  0
   34.2100   24.1880   30.9260 H   0  0  0  0  0  0  0  0  0  0  0  0
   36.1200   23.3410   31.3340 C   0  0  0  0  0  0  0  0  0  0  0  0
   37.4240   23.6560   31.6290 C   0  0  0  0  0  0  0  0  0  0  0  0
   37.8850   24.9530   31.7580 C   0  0  0  0  0  0  0  0  0  0  0  0
   38.9010   25.2390   31.9900 H   0  0  0  0  0  0  0  0  0  0  0  0
   38.5920   22.3400   31.8610 S   0  0  0  0  0  0  0  0  0  0  0  0
   37.7350   20.8000   31.6340 C   0  0  0  0  0  0  0  0  0  0  0  0
   38.4420   19.6210   31.7620 C   0  0  0  0  0  0  0  0  0  0  0  0
   39.5010   19.5770   31.9960 H   0  0  0  0  0  0  0  0  0  0  0  0
   37.8170   18.4030   31.5950 C   0  0  0  0  0  0  0  0  0  0  0  0
   38.2680   17.4160   31.6710 H   0  0  0  0  0  0  0  0  0  0  0  0
   36.4630   18.4200   31.2950 C   0  0  0  0  0  0  0  0  0  0  0  0
   35.9220   17.4980   31.1540 H   0  0  0  0  0  0  0  0  0  0  0  0
   35.7490   19.5940   31.1650 C   0  0  0  0  0  0  0  0  0  0  0  0
   34.7010   19.5790   30.9320 H   0  0  0  0  0  0  0  0  0  0  0  0
   36.3780   20.8240   31.3340 C   0  0  0  0  0  0  0  0  0  0  0  0
   35.6420   22.0300   31.1980 N   0  0  0  0  0  0  0  0  0  0  0  0
   34.6110   21.9100   30.9670 H   0  0  0  0  0  0  0  0  0  0  0  0
  1  2  1  0  0  0  0
  1  4  1  0  0  0  0
  3  1  1  0  0  0  0
  4  6  1  0  0  0  0
  4  7  1  0  0  0  0
  5  4  1  0  0  0  0
  7 10  1  0  0  0  0
  7  9  1  0  0  0  0
  8  7  1  0  0  0  0
 10 11  1  0  0  0  0
 11 16  1  0  0  0  0
 12 13  1  0  0  0  0
 12 11  2  0  0  0  0
 13 14  2  0  0  0  0
 14 15  1  0  0  0  0
 15 19  1  0  0  0  0
 16 15  2  0  0  0  0
 17 19  1  0  0  0  0
 17 22  1  0  0  0  0
 18 17  2  0  0  0  0
 19 23  1  0  0  0  0
 20 12  1  0  0  0  0
 21 13  1  0  0  0  0
 24  1  1  0  0  0  0
 25 24  1  0  0  0  0
 25 32  1  0  0  0  0
 26 25  2  0  0  0  0
 27 26  1  0  0  0  0
 28 26  1  0  0  0  0
 28 30  2  0  0  0  0
 29 28  1  0  0  0  0
 30 31  1  0  0  0  0
 31 32  2  0  0  0  0
 31 34  1  0  0  0  0
 32 33  1  0  0  0  0
 35 36  1  0  0  0  0
 35 34  1  0  0  0  0
 36 37  1  0  0  0  0
 38 39  1  0  0  0  0
 38 36  2  0  0  0  0
 40 38  1  0  0  0  0
 41 40  1  0  0  0  0
 42 40  2  0  0  0  0
 42 44  1  0  0  0  0
 43 42  1  0  0  0  0
 44 35  2  0  0  0  0
 45 44  1  0  0  0  0
 45 30  1  0  0  0  0
 46 45  1  0  0  0  0
M  END
>  <minimizedAffinity>
-5.68824863

$$$$

 OpenBabel03262521223D

 46 49  0  0  0  0  0  0  0  0999 V2000
   35.5330   27.3780   31.7190 C   0  0  0  0  0  0  0  0  0  0  0  0
   34.5590   27.0990   32.2210 H   0  0  0  0  0  0  0  0  0  0  0  0
   35.2410   28.1840   31.0120 H   0  0  0  0  0  0  0  0  0  0  0  0
   36.0840   26.1570   31.0540 C   0  0  0  0  0  0  0  0  0  0  0  0
   37.1870   26.1510   31.3300 H   0  0  0  0  0  0  0  0  0  0  0  0
   36.1640   26.4300   29.9710 H   0  0  0  0  0  0  0  0  0  0  0  0
   35.5220   24.9800   31.3740 C   0  0  0  0  0  0  0  0  0  0  0  0
   35.3830   24.7470   32.4590 H   0  0  0  0  0  0  0  0  0  0  0  0
   34.4930   24.8070   30.9440 H   0  0  0  0  0  0  0  0  0  0  0  0
   36.3730   24.1230   30.7260 O   0  0  0  0  0  0  0  0  0  0  0  0
   36.4950   22.8370   31.1750 C   0  0  0  0  0  0  0  0  0  0  0  0
   37.7820   22.4830   31.4850 C   0  0  0  0  0  0  0  0  0  0  0  0
   38.0490   21.1850   31.9610 C   0  0  0  0  0  0  0  0  0  0  0  0
   36.9750   20.3330   32.0890 N   0  0  0  0  0  0  0  0  0  0  0  0
   35.7010   20.7220   31.7690 C   0  0  0  0  0  0  0  0  0  0  0  0
   35.4800   21.9590   31.3200 N   0  0  0  0  0  0  0  0  0  0  0  0
   35.0990   18.4900   32.3650 C   0  0  0  0  0  0  0  0  0  0  0  0
   36.3010   18.1420   32.6050 O   0  0  0  0  0  0  0  0  0  0  0  0
   34.6450   19.7730   31.9310 N   0  0  0  0  0  0  0  0  0  0  0  0
   38.6590   23.1030   31.4070 H   0  0  0  0  0  0  0  0  0  0  0  0
   39.0390   20.8730   32.2110 H   0  0  0  0  0  0  0  0  0  0  0  0
   34.3130   17.7310   32.5010 H   0  0  0  0  0  0  0  0  0  0  0  0
   33.6690   20.0690   31.7320 H   0  0  0  0  0  0  0  0  0  0  0  0
   36.5970   28.0820   32.9480 S   0  0  0  0  0  0  0  0  0  0  0  0
   37.8890   26.9940   33.5210 C   0  0  0  0  0  0  0  0  0  0  0  0
   39.1330   27.1680   32.9250 C   0  0  0  0  0  0  0  0  0  0  0  0
   39.3110   27.9050   32.1630 H   0  0  0  0  0  0  0  0  0  0  0  0
   40.2360   26.4100   33.2590 C   0  0  0  0  0  0  0  0  0  0  0  0
   41.1980   26.5530   32.7900 H   0  0  0  0  0  0  0  0  0  0  0  0
   40.1300   25.4150   34.2380 C   0  0  0  0  0  0  0  0  0  0  0  0
   38.8960   25.2540   34.8200 C   0  0  0  0  0  0  0  0  0  0  0  0
   37.7900   26.0130   34.4850 C   0  0  0  0  0  0  0  0  0  0  0  0
   36.8060   25.9140   34.9200 H   0  0  0  0  0  0  0  0  0  0  0  0
   38.6950   24.0100   36.0690 S   0  0  0  0  0  0  0  0  0  0  0  0
   40.2610   23.2020   36.2980 C   0  0  0  0  0  0  0  0  0  0  0  0
   40.3570   22.1890   37.2300 C   0  0  0  0  0  0  0  0  0  0  0  0
   39.5240   21.8510   37.8390 H   0  0  0  0  0  0  0  0  0  0  0  0
   41.5540   21.5350   37.4390 C   0  0  0  0  0  0  0  0  0  0  0  0
   41.7480   20.7270   38.1420 H   0  0  0  0  0  0  0  0  0  0  0  0
   42.6400   21.9390   36.6780 C   0  0  0  0  0  0  0  0  0  0  0  0
   43.6000   21.4630   36.7980 H   0  0  0  0  0  0  0  0  0  0  0  0
   42.5520   22.9500   35.7440 C   0  0  0  0  0  0  0  0  0  0  0  0
   43.4090   23.2450   35.1670 H   0  0  0  0  0  0  0  0  0  0  0  0
   41.3460   23.6110   35.5310 C   0  0  0  0  0  0  0  0  0  0  0  0
   41.2600   24.6540   34.5700 N   0  0  0  0  0  0  0  0  0  0  0  0
   42.1610   24.8700   34.0510 H   0  0  0  0  0  0  0  0  0  0  0  0
  1  2  1  0  0  0  0
  1 24  1  0  0  0  0
  3  1  1  0  0  0  0
  4  5  1  0  0  0  0
  4  7  1  0  0  0  0
  4  1  1  0  0  0  0
  6  4  1  0  0  0  0
  7  8  1  0  0  0  0
  9  7  1  0  0  0  0
 10 11  1  0  0  0  0
 10  7  1  0  0  0  0
 11 16  2  0  0  0  0
 11 12  1  0  0  0  0
 12 13  2  0  0  0  0
 13 14  1  0  0  0  0
 13 21  1  0  0  0  0
 15 19  1  0  0  0  0
 15 14  2  0  0  0  0
 16 15  1  0  0  0  0
 17 22  1  0  0  0  0
 17 18  2  0  0  0  0
 19 17  1  0  0  0  0
 20 12  1  0  0  0  0
 23 19  1  0  0  0  0
 24 25  1  0  0  0  0
 25 32  1  0  0  0  0
 26 28  1  0  0  0  0
 26 25  2  0  0  0  0
 27 26  1  0  0  0  0
 28 30  2  0  0  0  0
 29 28  1  0  0  0  0
 30 45  1  0  0  0  0
 30 31  1  0  0  0  0
 31 34  1  0  0  0  0
 32 31  2  0  0  0  0
 32 33  1  0  0  0  0
 34 35  1  0  0  0  0
 35 36  1  0  0  0  0
 36 38  2  0  0  0  0
 36 37  1  0  0  0  0
 38 39  1  0  0  0  0
 40 41  1  0  0  0  0
 40 38  1  0  0  0  0
 42 40  2  0  0  0  0
 43 42  1  0  0  0  0
 44 42  1  0  0  0  0
 44 35  2  0  0  0  0
 45 44  1  0  0  0  0
 46 45  1  0  0  0  0
M  END
>  <minimizedAffinity>
-5.65290976

$$$$

 OpenBabel03262521223D

 46 49  0  0  0  0  0  0  0  0999 V2000
   37.0150   28.6080   29.7520 C   0  0  0  0  0  0  0  0  0  0  0  0
   37.0250   28.4920   28.6270 H   0  0  0  0  0  0  0  0  0  0  0  0
   35.9790   28.3230   30.0340 H   0  0  0  0  0  0  0  0  0  0  0  0
   37.3660   30.0250   30.0800 C   0  0  0  0  0  0  0  0  0  0  0  0
   38.0620   30.3510   29.2410 H   0  0  0  0  0  0  0  0  0  0  0  0
   38.1040   29.9520   30.9180 H   0  0  0  0  0  0  0  0  0  0  0  0
   36.3490   30.8940   30.2000 C   0  0  0  0  0  0  0  0  0  0  0  0
   36.4010   31.8410   29.6060 H   0  0  0  0  0  0  0  0  0  0  0  0
   35.3330   30.4830   29.9360 H   0  0  0  0  0  0  0  0  0  0  0  0
   36.3590   31.0890   31.5570 O   0  0  0  0  0  0  0  0  0  0  0  0
   35.3340   30.5860   32.3110 C   0  0  0  0  0  0  0  0  0  0  0  0
   35.7390   30.0670   33.5130 C   0  0  0  0  0  0  0  0  0  0  0  0
   34.7830   29.5180   34.3880 C   0  0  0  0  0  0  0  0  0  0  0  0
   33.4710   29.5370   33.9720 N   0  0  0  0  0  0  0  0  0  0  0  0
   33.1030   30.0640   32.7620 C   0  0  0  0  0  0  0  0  0  0  0  0
   34.0330   30.5780   31.9550 N   0  0  0  0  0  0  0  0  0  0  0  0
   30.8970   29.3960   33.3820 C   0  0  0  0  0  0  0  0  0  0  0  0
   31.2750   28.8660   34.4780 O   0  0  0  0  0  0  0  0  0  0  0  0
   31.7180   30.0420   32.4100 N   0  0  0  0  0  0  0  0  0  0  0  0
   36.7460   30.0260   33.8920 H   0  0  0  0  0  0  0  0  0  0  0  0
   35.0610   29.1030   35.3320 H   0  0  0  0  0  0  0  0  0  0  0  0
   29.8220   29.3580   33.1450 H   0  0  0  0  0  0  0  0  0  0  0  0
   31.4220   30.4770   31.5130 H   0  0  0  0  0  0  0  0  0  0  0  0
   38.1230   27.4060   30.4330 S   0  0  0  0  0  0  0  0  0  0  0  0
   37.3730   25.8310   30.8070 C   0  0  0  0  0  0  0  0  0  0  0  0
   36.0030   25.8560   31.0410 C   0  0  0  0  0  0  0  0  0  0  0  0
   35.4260   26.7630   31.0050 H   0  0  0  0  0  0  0  0  0  0  0  0
   35.2740   24.7240   31.3390 C   0  0  0  0  0  0  0  0  0  0  0  0
   34.2090   24.7540   31.5180 H   0  0  0  0  0  0  0  0  0  0  0  0
   35.9120   23.4810   31.4160 C   0  0  0  0  0  0  0  0  0  0  0  0
   37.2660   23.4700   31.1820 C   0  0  0  0  0  0  0  0  0  0  0  0
   37.9970   24.6040   30.8840 C   0  0  0  0  0  0  0  0  0  0  0  0
   39.0610   24.6340   30.6950 H   0  0  0  0  0  0  0  0  0  0  0  0
   38.1360   21.9250   31.2640 S   0  0  0  0  0  0  0  0  0  0  0  0
   36.9600   20.6520   31.6550 C   0  0  0  0  0  0  0  0  0  0  0  0
   37.4030   19.3510   31.7710 C   0  0  0  0  0  0  0  0  0  0  0  0
   38.4390   19.0540   31.6360 H   0  0  0  0  0  0  0  0  0  0  0  0
   36.5240   18.3310   32.0740 C   0  0  0  0  0  0  0  0  0  0  0  0
   36.7570   17.2740   32.1900 H   0  0  0  0  0  0  0  0  0  0  0  0
   35.1930   18.6730   32.2540 C   0  0  0  0  0  0  0  0  0  0  0  0
   34.4610   17.9180   32.4930 H   0  0  0  0  0  0  0  0  0  0  0  0
   34.7410   19.9720   32.1400 C   0  0  0  0  0  0  0  0  0  0  0  0
   33.7040   20.2100   32.2840 H   0  0  0  0  0  0  0  0  0  0  0  0
   35.6260   21.0020   31.8350 C   0  0  0  0  0  0  0  0  0  0  0  0
   35.1590   22.3380   31.7170 N   0  0  0  0  0  0  0  0  0  0  0  0
   34.1170   22.4710   31.8780 H   0  0  0  0  0  0  0  0  0  0  0  0
  1  3  1  0  0  0  0
  1  4  1  0  0  0  0
  1 24  1  0  0  0  0
  2  1  1  0  0  0  0
  4  7  1  0  0  0  0
  4  6  1  0  0  0  0
  5  4  1  0  0  0  0
  7 10  1  0  0  0  0
  8  7  1  0  0  0  0
  9  7  1  0  0  0  0
 10 11  1  0  0  0  0
 11 12  1  0  0  0  0
 12 20  1  0  0  0  0
 12 13  2  0  0  0  0
 13 21  1  0  0  0  0
 14 13  1  0  0  0  0
 15 14  2  0  0  0  0
 16 11  2  0  0  0  0
 16 15  1  0  0  0  0
 17 18  2  0  0  0  0
 19 15  1  0  0  0  0
 19 17  1  0  0  0  0
 22 17  1  0  0  0  0
 23 19  1  0  0  0  0
 24 25  1  0  0  0  0
 25 32  2  0  0  0  0
 25 26  1  0  0  0  0
 26 28  2  0  0  0  0
 27 26  1  0  0  0  0
 28 30  1  0  0  0  0
 28 29  1  0  0  0  0
 30 45  1  0  0  0  0
 31 34  1  0  0  0  0
 31 30  2  0  0  0  0
 32 31  1  0  0  0  0
 33 32  1  0  0  0  0
 34 35  1  0  0  0  0
 35 36  2  0  0  0  0
 35 44  1  0  0  0  0
 36 38  1  0  0  0  0
 37 36  1  0  0  0  0
 38 39  1  0  0  0  0
 38 40  2  0  0  0  0
 40 41  1  0  0  0  0
 42 40  1  0  0  0  0
 42 43  1  0  0  0  0
 44 42  2  0  0  0  0
 45 44  1  0  0  0  0
 45 46  1  0  0  0  0
M  END
>  <minimizedAffinity>
-5.52531958

$$$$

 OpenBabel03262521223D

 46 49  0  0  0  0  0  0  0  0999 V2000
   36.2820   28.9080   32.7870 C   0  0  0  0  0  0  0  0  0  0  0  0
   35.6760   29.8590   32.8740 H   0  0  0  0  0  0  0  0  0  0  0  0
   37.3080   29.2710   32.5670 H   0  0  0  0  0  0  0  0  0  0  0  0
   35.6860   28.0710   31.7000 C   0  0  0  0  0  0  0  0  0  0  0  0
   35.4180   28.8130   30.8800 H   0  0  0  0  0  0  0  0  0  0  0  0
   34.6590   27.8140   32.0630 H   0  0  0  0  0  0  0  0  0  0  0  0
   36.4490   27.0860   31.1990 C   0  0  0  0  0  0  0  0  0  0  0  0
   36.7890   27.1790   30.1370 H   0  0  0  0  0  0  0  0  0  0  0  0
   37.4100   26.8930   31.7570 H   0  0  0  0  0  0  0  0  0  0  0  0
   35.6330   26.0090   31.4290 O   0  0  0  0  0  0  0  0  0  0  0  0
   36.1940   24.7800   31.6430 C   0  0  0  0  0  0  0  0  0  0  0  0
   35.3430   23.7360   31.3870 C   0  0  0  0  0  0  0  0  0  0  0  0
   35.7950   22.4150   31.5650 C   0  0  0  0  0  0  0  0  0  0  0  0
   37.0920   22.2500   31.9960 N   0  0  0  0  0  0  0  0  0  0  0  0
   37.9130   23.3180   32.2430 C   0  0  0  0  0  0  0  0  0  0  0  0
   37.4560   24.5590   32.0640 N   0  0  0  0  0  0  0  0  0  0  0  0
   39.5170   21.6660   32.8730 C   0  0  0  0  0  0  0  0  0  0  0  0
   38.7140   20.6950   32.6850 O   0  0  0  0  0  0  0  0  0  0  0  0
   39.2460   23.0550   32.6880 N   0  0  0  0  0  0  0  0  0  0  0  0
   34.3240   23.8020   31.0480 H   0  0  0  0  0  0  0  0  0  0  0  0
   35.1610   21.5750   31.3770 H   0  0  0  0  0  0  0  0  0  0  0  0
   40.5350   21.4240   33.2170 H   0  0  0  0  0  0  0  0  0  0  0  0
   39.8910   23.8560   32.8380 H   0  0  0  0  0  0  0  0  0  0  0  0
   36.3030   28.1280   34.3780 S   0  0  0  0  0  0  0  0  0  0  0  0
   37.6960   27.0510   34.6580 C   0  0  0  0  0  0  0  0  0  0  0  0
   38.8760   27.4110   34.0180 C   0  0  0  0  0  0  0  0  0  0  0  0
   38.9510   28.2800   33.3890 H   0  0  0  0  0  0  0  0  0  0  0  0
   40.0430   26.6860   34.1350 C   0  0  0  0  0  0  0  0  0  0  0  0
   40.9560   26.9750   33.6340 H   0  0  0  0  0  0  0  0  0  0  0  0
   40.0730   25.5310   34.9260 C   0  0  0  0  0  0  0  0  0  0  0  0
   38.9010   25.1860   35.5540 C   0  0  0  0  0  0  0  0  0  0  0  0
   37.7300   25.9130   35.4370 C   0  0  0  0  0  0  0  0  0  0  0  0
   36.7910   25.6710   35.9140 H   0  0  0  0  0  0  0  0  0  0  0  0
   38.8710   23.7330   36.5730 S   0  0  0  0  0  0  0  0  0  0  0  0
   40.4930   23.0090   36.5450 C   0  0  0  0  0  0  0  0  0  0  0  0
   40.7200   21.8590   37.2730 C   0  0  0  0  0  0  0  0  0  0  0  0
   39.9590   21.3640   37.8680 H   0  0  0  0  0  0  0  0  0  0  0  0
   41.9650   21.2630   37.2800 C   0  0  0  0  0  0  0  0  0  0  0  0
   42.2590   20.3610   37.8120 H   0  0  0  0  0  0  0  0  0  0  0  0
   42.9620   21.8680   36.5290 C   0  0  0  0  0  0  0  0  0  0  0  0
   43.9540   21.4460   36.4970 H   0  0  0  0  0  0  0  0  0  0  0  0
   42.7430   23.0180   35.7990 C   0  0  0  0  0  0  0  0  0  0  0  0
   43.5330   23.4660   35.2260 H   0  0  0  0  0  0  0  0  0  0  0  0
   41.4880   23.6200   35.7900 C   0  0  0  0  0  0  0  0  0  0  0  0
   41.2670   24.8040   35.0390 N   0  0  0  0  0  0  0  0  0  0  0  0
   42.1100   25.1690   34.5060 H   0  0  0  0  0  0  0  0  0  0  0  0
  1  2  1  0  0  0  0
  1 24  1  0  0  0  0
  3  1  1  0  0  0  0
  4  6  1  0  0  0  0
  4  1  1  0  0  0  0
  5  4  1  0  0  0  0
  7 10  1  0  0  0  0
  7  4  1  0  0  0  0
  7  9  1  0  0  0  0
  8  7  1  0  0  0  0
 10 11  1  0  0  0  0
 11 16  1  0  0  0  0
 12 13  1  0  0  0  0
 12 11  2  0  0  0  0
 13 14  2  0  0  0  0
 14 15  1  0  0  0  0
 15 19  1  0  0  0  0
 16 15  2  0  0  0  0
 17 22  1  0  0  0  0
 18 17  2  0  0  0  0
 19 23  1  0  0  0  0
 19 17  1  0  0  0  0
 20 12  1  0  0  0  0
 21 13  1  0  0  0  0
 24 25  1  0  0  0  0
 25 32  1  0  0  0  0
 26 28  1  0  0  0  0
 26 25  2  0  0  0  0
 27 26  1  0  0  0  0
 28 30  2  0  0  0  0
 29 28  1  0  0  0  0
 30 45  1  0  0  0  0
 30 31  1  0  0  0  0
 31 34  1  0  0  0  0
 32 31  2  0  0  0  0
 32 33  1  0  0  0  0
 35 34  1  0  0  0  0
 35 36  1  0  0  0  0
 36 38  2  0  0  0  0
 36 37  1  0  0  0  0
 38 39  1  0  0  0  0
 40 38  1  0  0  0  0
 41 40  1  0  0  0  0
 42 40  2  0  0  0  0
 43 42  1  0  0  0  0
 44 42  1  0  0  0  0
 44 35  2  0  0  0  0
 45 44  1  0  0  0  0
 46 45  1  0  0  0  0
M  END
>  <minimizedAffinity>
-5.50190639

$$$$

 OpenBabel03262521223D

 46 49  0  0  0  0  0  0  0  0999 V2000
   35.3300   28.1350   32.1060 C   0  0  0  0  0  0  0  0  0  0  0  0
   34.9040   27.9030   31.0850 H   0  0  0  0  0  0  0  0  0  0  0  0
   34.9200   27.3280   32.7500 H   0  0  0  0  0  0  0  0  0  0  0  0
   34.8870   29.5090   32.4980 C   0  0  0  0  0  0  0  0  0  0  0  0
   34.1040   29.3400   33.3060 H   0  0  0  0  0  0  0  0  0  0  0  0
   34.2220   29.8470   31.6620 H   0  0  0  0  0  0  0  0  0  0  0  0
   35.8320   30.3540   32.9410 C   0  0  0  0  0  0  0  0  0  0  0  0
   36.9000   30.1020   32.7190 H   0  0  0  0  0  0  0  0  0  0  0  0
   35.7390   31.4150   32.5700 H   0  0  0  0  0  0  0  0  0  0  0  0
   35.5310   30.3720   34.2780 O   0  0  0  0  0  0  0  0  0  0  0  0
   35.4170   31.5740   34.9200 C   0  0  0  0  0  0  0  0  0  0  0  0
   36.0660   32.6000   34.2860 C   0  0  0  0  0  0  0  0  0  0  0  0
   36.0280   33.8930   34.8400 C   0  0  0  0  0  0  0  0  0  0  0  0
   35.3230   34.0500   36.0130 N   0  0  0  0  0  0  0  0  0  0  0  0
   34.6860   32.9990   36.6190 C   0  0  0  0  0  0  0  0  0  0  0  0
   34.7410   31.7850   36.0690 N   0  0  0  0  0  0  0  0  0  0  0  0
   34.0920   34.6010   38.2870 C   0  0  0  0  0  0  0  0  0  0  0  0
   34.7370   35.5470   37.7270 O   0  0  0  0  0  0  0  0  0  0  0  0
   33.9780   33.2520   37.8350 N   0  0  0  0  0  0  0  0  0  0  0  0
   36.6300   32.5390   33.3700 H   0  0  0  0  0  0  0  0  0  0  0  0
   36.5230   34.7180   34.3750 H   0  0  0  0  0  0  0  0  0  0  0  0
   33.5600   34.8340   39.2230 H   0  0  0  0  0  0  0  0  0  0  0  0
   33.4560   32.4720   38.2820 H   0  0  0  0  0  0  0  0  0  0  0  0
   37.0880   27.9330   32.0210 S   0  0  0  0  0  0  0  0  0  0  0  0
   37.7630   26.7950   33.2160 C   0  0  0  0  0  0  0  0  0  0  0  0
   37.1530   26.7980   34.4640 C   0  0  0  0  0  0  0  0  0  0  0  0
   36.3270   27.4460   34.7030 H   0  0  0  0  0  0  0  0  0  0  0  0
   37.5540   25.9750   35.4960 C   0  0  0  0  0  0  0  0  0  0  0  0
   37.0710   25.9850   36.4630 H   0  0  0  0  0  0  0  0  0  0  0  0
   38.6190   25.0880   35.3090 C   0  0  0  0  0  0  0  0  0  0  0  0
   39.2140   25.0940   34.0710 C   0  0  0  0  0  0  0  0  0  0  0  0
   38.8130   25.9180   33.0360 C   0  0  0  0  0  0  0  0  0  0  0  0
   39.2570   25.9510   32.0520 H   0  0  0  0  0  0  0  0  0  0  0  0
   40.5710   23.9910   33.7670 S   0  0  0  0  0  0  0  0  0  0  0  0
   40.8640   23.0590   35.2520 C   0  0  0  0  0  0  0  0  0  0  0  0
   41.8780   22.1240   35.2600 C   0  0  0  0  0  0  0  0  0  0  0  0
   42.5170   21.9210   34.4050 H   0  0  0  0  0  0  0  0  0  0  0  0
   42.1410   21.3780   36.3910 C   0  0  0  0  0  0  0  0  0  0  0  0
   42.9100   20.6180   36.5140 H   0  0  0  0  0  0  0  0  0  0  0  0
   41.3460   21.6110   37.5030 C   0  0  0  0  0  0  0  0  0  0  0  0
   41.5050   21.0580   38.4150 H   0  0  0  0  0  0  0  0  0  0  0  0
   40.3290   22.5440   37.5030 C   0  0  0  0  0  0  0  0  0  0  0  0
   39.7280   22.7040   38.3780 H   0  0  0  0  0  0  0  0  0  0  0  0
   40.0630   23.2970   36.3640 C   0  0  0  0  0  0  0  0  0  0  0  0
   39.0150   24.2550   36.3660 N   0  0  0  0  0  0  0  0  0  0  0  0
   38.4790   24.3400   37.2790 H   0  0  0  0  0  0  0  0  0  0  0  0
  1  4  1  0  0  0  0
  1  3  1  0  0  0  0
  2  1  1  0  0  0  0
  4  7  1  0  0  0  0
  4  5  1  0  0  0  0
  6  4  1  0  0  0  0
  7 10  1  0  0  0  0
  8  7  1  0  0  0  0
  9  7  1  0  0  0  0
 10 11  1  0  0  0  0
 11 16  1  0  0  0  0
 12 13  1  0  0  0  0
 12 11  2  0  0  0  0
 13 14  2  0  0  0  0
 14 15  1  0  0  0  0
 15 19  1  0  0  0  0
 16 15  2  0  0  0  0
 17 22  1  0  0  0  0
 18 17  2  0  0  0  0
 19 23  1  0  0  0  0
 19 17  1  0  0  0  0
 20 12  1  0  0  0  0
 21 13  1  0  0  0  0
 24  1  1  0  0  0  0
 24 25  1  0  0  0  0
 25 26  1  0  0  0  0
 26 27  1  0  0  0  0
 26 28  2  0  0  0  0
 28 29  1  0  0  0  0
 30 28  1  0  0  0  0
 30 45  1  0  0  0  0
 31 30  2  0  0  0  0
 32 25  2  0  0  0  0
 32 31  1  0  0  0  0
 33 32  1  0  0  0  0
 34 31  1  0  0  0  0
 34 35  1  0  0  0  0
 35 36  2  0  0  0  0
 35 44  1  0  0  0  0
 36 38  1  0  0  0  0
 37 36  1  0  0  0  0
 38 39  1  0  0  0  0
 38 40  2  0  0  0  0
 40 42  1  0  0  0  0
 40 41  1  0  0  0  0
 42 43  1  0  0  0  0
 44 45  1  0  0  0  0
 44 42  2  0  0  0  0
 45 46  1  0  0  0  0
M  END
>  <minimizedAffinity>
-5.45232058

$$$$

 OpenBabel03262521223D

 46 49  0  0  0  0  0  0  0  0999 V2000
   36.7220   29.0780   31.6740 C   0  0  0  0  0  0  0  0  0  0  0  0
   37.4330   29.9170   31.9350 H   0  0  0  0  0  0  0  0  0  0  0  0
   35.9840   29.5600   30.9980 H   0  0  0  0  0  0  0  0  0  0  0  0
   36.1290   28.5550   32.9440 C   0  0  0  0  0  0  0  0  0  0  0  0
   36.9310   27.8750   33.3780 H   0  0  0  0  0  0  0  0  0  0  0  0
   35.3860   27.7830   32.6190 H   0  0  0  0  0  0  0  0  0  0  0  0
   35.7470   29.4610   33.8600 C   0  0  0  0  0  0  0  0  0  0  0  0
   35.6200   29.1120   34.9150 H   0  0  0  0  0  0  0  0  0  0  0  0
   36.4310   30.3510   33.9670 H   0  0  0  0  0  0  0  0  0  0  0  0
   34.5910   29.9140   33.2810 O   0  0  0  0  0  0  0  0  0  0  0  0
   33.3890   29.5870   33.8450 C   0  0  0  0  0  0  0  0  0  0  0  0
   32.3640   29.4890   32.9400 C   0  0  0  0  0  0  0  0  0  0  0  0
   31.0730   29.1560   33.3880 C   0  0  0  0  0  0  0  0  0  0  0  0
   30.9150   28.9450   34.7400 N   0  0  0  0  0  0  0  0  0  0  0  0
   31.9630   29.0520   35.6150 C   0  0  0  0  0  0  0  0  0  0  0  0
   33.1760   29.3690   35.1600 N   0  0  0  0  0  0  0  0  0  0  0  0
   30.3350   28.5510   37.2890 C   0  0  0  0  0  0  0  0  0  0  0  0
   29.3710   28.5090   36.4580 O   0  0  0  0  0  0  0  0  0  0  0  0
   31.7080   28.8170   37.0020 N   0  0  0  0  0  0  0  0  0  0  0  0
   32.4270   29.6400   31.8760 H   0  0  0  0  0  0  0  0  0  0  0  0
   30.2490   29.0710   32.7120 H   0  0  0  0  0  0  0  0  0  0  0  0
   30.1000   28.3660   38.3490 H   0  0  0  0  0  0  0  0  0  0  0  0
   32.5040   28.8540   37.6710 H   0  0  0  0  0  0  0  0  0  0  0  0
   37.6210   27.8730   30.7390 S   0  0  0  0  0  0  0  0  0  0  0  0
   37.0580   26.1940   30.9550 C   0  0  0  0  0  0  0  0  0  0  0  0
   35.6820   26.0250   31.0390 C   0  0  0  0  0  0  0  0  0  0  0  0
   34.9930   26.8490   30.9820 H   0  0  0  0  0  0  0  0  0  0  0  0
   35.0870   24.7910   31.2030 C   0  0  0  0  0  0  0  0  0  0  0  0
   34.0150   24.6710   31.2670 H   0  0  0  0  0  0  0  0  0  0  0  0
   35.8780   23.6400   31.2920 C   0  0  0  0  0  0  0  0  0  0  0  0
   37.2370   23.8200   31.2070 C   0  0  0  0  0  0  0  0  0  0  0  0
   37.8340   25.0560   31.0430 C   0  0  0  0  0  0  0  0  0  0  0  0
   38.8970   25.2360   30.9740 H   0  0  0  0  0  0  0  0  0  0  0  0
   38.2970   22.4010   31.3120 S   0  0  0  0  0  0  0  0  0  0  0  0
   37.2720   20.9630   31.5130 C   0  0  0  0  0  0  0  0  0  0  0  0
   37.8740   19.7260   31.6160 C   0  0  0  0  0  0  0  0  0  0  0  0
   38.9490   19.5760   31.5820 H   0  0  0  0  0  0  0  0  0  0  0  0
   37.1170   18.5840   31.7740 C   0  0  0  0  0  0  0  0  0  0  0  0
   37.4790   17.5620   31.8660 H   0  0  0  0  0  0  0  0  0  0  0  0
   35.7400   18.7380   31.8240 C   0  0  0  0  0  0  0  0  0  0  0  0
   35.0970   17.8800   31.9460 H   0  0  0  0  0  0  0  0  0  0  0  0
   35.1290   19.9710   31.7210 C   0  0  0  0  0  0  0  0  0  0  0  0
   34.0600   20.0620   31.7620 H   0  0  0  0  0  0  0  0  0  0  0  0
   35.8920   21.1240   31.5630 C   0  0  0  0  0  0  0  0  0  0  0  0
   35.2610   22.3920   31.4560 N   0  0  0  0  0  0  0  0  0  0  0  0
   34.2000   22.3770   31.5080 H   0  0  0  0  0  0  0  0  0  0  0  0
  1  2  1  0  0  0  0
  1  4  1  0  0  0  0
  3  1  1  0  0  0  0
  4  5  1  0  0  0  0
  4  7  1  0  0  0  0
  6  4  1  0  0  0  0
  7  9  1  0  0  0  0
  7  8  1  0  0  0  0
 10 11  1  0  0  0  0
 10  7  1  0  0  0  0
 11 16  1  0  0  0  0
 12 13  1  0  0  0  0
 12 11  2  0  0  0  0
 13 14  2  0  0  0  0
 14 15  1  0  0  0  0
 15 19  1  0  0  0  0
 16 15  2  0  0  0  0
 17 22  1  0  0  0  0
 18 17  2  0  0  0  0
 19 17  1  0  0  0  0
 19 23  1  0  0  0  0
 20 12  1  0  0  0  0
 21 13  1  0  0  0  0
 24 25  1  0  0  0  0
 24  1  1  0  0  0  0
 25 26  2  0  0  0  0
 25 32  1  0  0  0  0
 26 28  1  0  0  0  0
 27 26  1  0  0  0  0
 28 29  1  0  0  0  0
 28 30  2  0  0  0  0
 30 45  1  0  0  0  0
 31 30  1  0  0  0  0
 31 34  1  0  0  0  0
 32 31  2  0  0  0  0
 33 32  1  0  0  0  0
 34 35  1  0  0  0  0
 35 44  2  0  0  0  0
 35 36  1  0  0  0  0
 36 38  2  0  0  0  0
 37 36  1  0  0  0  0
 38 40  1  0  0  0  0
 38 39  1  0  0  0  0
 40 41  1  0  0  0  0
 42 43  1  0  0  0  0
 42 40  2  0  0  0  0
 44 42  1  0  0  0  0
 45 46  1  0  0  0  0
 45 44  1  0  0  0  0
M  END
>  <minimizedAffinity>
-5.40130043

$$$$
