REMARK  Name = 
REMARK  7 active torsions:
REMARK  status: ('A' for Active; 'I' for Inactive)
REMARK    1  A    between atoms: C_3  and  C_12
REMARK    2  A    between atoms: C_7  and  O_14
REMARK    3  A    between atoms: O_14  and  P_16
REMARK    4  A    between atoms: P_16  and  O_17
REMARK    5  A    between atoms: P_16  and  O_18
REMARK    6  A    between atoms: O_17  and  C_29
REMARK    7  A    between atoms: O_18  and  C_19
REMARK                            x       y       z     vdW  Elec       q    Type
REMARK                         _______ _______ _______ _____ _____    ______ ____
ROOT
ATOM      1  O   UNL     1      35.121  28.942  51.080  0.00  0.00    +0.000 OA
ATOM      2  P   UNL     1      35.278  29.991  49.985  0.00  0.00    +0.000 P 
ENDROOT
BRANCH   2   3
ATOM      3  O   UNL     1      35.683  29.172  48.565  0.00  0.00    +0.000 OA
BRANCH   3  10
ATOM      4  F   UNL     1      38.021  30.327  47.888  0.00  0.00    +0.000 F 
ATOM      5  C   UNL     1      37.040  30.265  46.939  0.00  0.00    +0.000 A 
ATOM      6  C   UNL     1      37.190  30.761  45.666  0.00  0.00    +0.000 A 
ATOM      7  C   UNL     1      36.160  30.657  44.784  0.00  0.00    +0.000 A 
ATOM      8  C   UNL     1      34.944  30.067  45.107  0.00  0.00    +0.000 A 
ATOM      9  C   UNL     1      34.805  29.569  46.399  0.00  0.00    +0.000 A 
ATOM     10  C   UNL     1      35.846  29.665  47.317  0.00  0.00    +0.000 A 
ATOM     11  H   UNL     1      36.245  31.037  43.773  0.00  0.00    +0.000 HD
ATOM     12  H   UNL     1      34.150  30.006  44.371  0.00  0.00    +0.000 HD
ATOM     13  H   UNL     1      33.849  29.111  46.633  0.00  0.00    +0.000 HD
BRANCH   6  18
ATOM     14  C   UNL     1      39.582  33.341  44.657  0.00  0.00    +0.000 A 
ATOM     15  C   UNL     1      40.809  32.670  44.608  0.00  0.00    +0.000 A 
ATOM     16  C   UNL     1      40.804  31.312  44.928  0.00  0.00    +0.000 A 
ATOM     17  N   UNL     1      39.635  30.694  45.270  0.00  0.00    +0.000 NA
ATOM     18  C   UNL     1      38.462  31.387  45.304  0.00  0.00    +0.000 A 
ATOM     19  N   UNL     1      38.453  32.706  44.996  0.00  0.00    +0.000 NA
ATOM     20  H   UNL     1      39.552  34.398  44.413  0.00  0.00    +0.000 HD
ATOM     21  H   UNL     1      41.731  33.172  44.335  0.00  0.00    +0.000 HD
ATOM     22  H   UNL     1      41.738  30.768  44.899  0.00  0.00    +0.000 HD
ENDBRANCH   6  18
ENDBRANCH   3  10
ENDBRANCH   2   3
BRANCH   2  23
ATOM     23  O   UNL     1      33.854  30.864  49.924  0.00  0.00    +0.000 OA
BRANCH  23  24
ATOM     24  C   UNL     1      32.662  30.382  50.446  0.00  0.00    +0.000 A 
ATOM     25  C   UNL     1      32.020  31.042  51.473  0.00  0.00    +0.000 A 
ATOM     26  H   UNL     1      32.429  31.949  51.894  0.00  0.00    +0.000 HD
ATOM     27  C   UNL     1      30.837  30.505  51.942  0.00  0.00    +0.000 A 
ATOM     28  H   UNL     1      30.370  31.074  52.761  0.00  0.00    +0.000 HD
ATOM     29  C   UNL     1      30.231  29.355  51.474  0.00  0.00    +0.000 A 
ATOM     30  C   UNL     1      30.921  28.748  50.453  0.00  0.00    +0.000 A 
ATOM     31  C   UNL     1      32.099  29.228  49.941  0.00  0.00    +0.000 A 
ATOM     32  H   UNL     1      32.614  28.708  49.125  0.00  0.00    +0.000 HD
ATOM     33  S   UNL     1      30.275  27.263  49.743  0.00  0.00    +0.000 S 
ATOM     34  C   UNL     1      28.775  26.898  50.595  0.00  0.00    +0.000 A 
ATOM     35  C   UNL     1      28.022  25.820  50.298  0.00  0.00    +0.000 A 
ATOM     36  H   UNL     1      28.386  25.170  49.492  0.00  0.00    +0.000 HD
ATOM     37  C   UNL     1      26.838  25.477  50.925  0.00  0.00    +0.000 A 
ATOM     38  H   UNL     1      26.310  24.586  50.607  0.00  0.00    +0.000 HD
ATOM     39  C   UNL     1      26.433  26.332  51.929  0.00  0.00    +0.000 A 
ATOM     40  H   UNL     1      25.520  26.107  52.446  0.00  0.00    +0.000 HD
ATOM     41  C   UNL     1      27.199  27.438  52.240  0.00  0.00    +0.000 A 
ATOM     42  H   UNL     1      26.789  28.055  53.054  0.00  0.00    +0.000 HD
ATOM     43  C   UNL     1      28.377  27.753  51.594  0.00  0.00    +0.000 A 
ATOM     44  N   UNL     1      29.013  28.913  52.047  0.00  0.00    +0.000 N 
ATOM     45  H   UNL     1      28.631  29.502  52.817  0.00  0.00    +0.000 HD
ENDBRANCH  23  24
ENDBRANCH   2  23
BRANCH   2  46
ATOM     46  O   UNL     1      36.555  31.018  50.477  0.00  0.00    +0.000 OA
BRANCH  46  47
ATOM     47  C   UNL     1      37.613  30.337  51.008  0.00  0.00    +0.000 C 
ATOM     48  F   UNL     1      37.791  29.099  50.443  0.00  0.00    +0.000 F 
ATOM     49  F   UNL     1      38.737  31.081  50.774  0.00  0.00    +0.000 F 
ATOM     50  F   UNL     1      37.452  30.187  52.383  0.00  0.00    +0.000 F 
ENDBRANCH  46  47
ENDBRANCH   2  46
TORSDOF 7
