REMARK  Name = 
REMARK  4 active torsions:
REMARK  status: ('A' for Active; 'I' for Inactive)
REMARK    1  A    between atoms: N_1  and  C_6
REMARK    2  A    between atoms: C_3  and  C_13
REMARK    3  A    between atoms: C_10  and  S_12
REMARK    4  A    between atoms: S_12  and  C_26
REMARK                            x       y       z     vdW  Elec       q    Type
REMARK                         _______ _______ _______ _____ _____    ______ ____
ROOT
ATOM      1  C   UNL     1      35.290  29.541  47.929  0.00  0.00    +0.000 A 
ATOM      2  C   UNL     1      35.227  29.999  46.614  0.00  0.00    +0.000 A 
ATOM      3  C   UNL     1      34.099  29.676  45.875  0.00  0.00    +0.000 A 
ATOM      4  N   UNL     1      33.126  28.929  46.494  0.00  0.00    +0.000 NA
ATOM      5  C   UNL     1      33.218  28.505  47.763  0.00  0.00    +0.000 A 
ATOM      6  N   UNL     1      34.306  28.814  48.483  0.00  0.00    +0.000 NA
ATOM      7  H   UNL     1      35.982  30.580  46.126  0.00  0.00    +0.000 HD
ATOM      8  H   UNL     1      33.965  29.991  44.842  0.00  0.00    +0.000 HD
ENDROOT
BRANCH   1   9
ATOM      9  N   UNL     1      36.468  29.886  48.681  0.00  0.00    +0.000 N 
ATOM     10  C   UNL     1      37.586  30.649  48.231  0.00  0.00    +0.000 C 
ATOM     11  C   UNL     1      38.092  31.298  49.520  0.00  0.00    +0.000 C 
ATOM     12  C   UNL     1      37.111  30.897  50.595  0.00  0.00    +0.000 C 
ATOM     13  C   UNL     1      36.744  29.519  50.047  0.00  0.00    +0.000 C 
ATOM     14  H   UNL     1      38.359  29.937  47.892  0.00  0.00    +0.000 HD
ATOM     15  H   UNL     1      37.335  31.429  47.479  0.00  0.00    +0.000 HD
ATOM     16  H   UNL     1      39.076  30.852  49.827  0.00  0.00    +0.000 HD
ATOM     17  H   UNL     1      36.204  31.515  50.527  0.00  0.00    +0.000 HD
ATOM     18  H   UNL     1      37.552  30.856  51.597  0.00  0.00    +0.000 HD
ATOM     19  H   UNL     1      35.813  29.187  50.536  0.00  0.00    +0.000 HD
ATOM     20  H   UNL     1      37.585  28.809  50.161  0.00  0.00    +0.000 HD
BRANCH  11  21
ATOM     21  C   UNL     1      38.262  32.783  49.399  0.00  0.00    +0.000 C 
ATOM     22  F   UNL     1      37.099  33.344  49.890  0.00  0.00    +0.000 F 
ATOM     23  F   UNL     1      38.323  33.074  48.058  0.00  0.00    +0.000 F 
ATOM     24  F   UNL     1      39.366  33.261  50.038  0.00  0.00    +0.000 F 
ENDBRANCH  11  21
ENDBRANCH   1   9
BRANCH   5  25
ATOM     25  S   UNL     1      31.931  27.538  48.527  0.00  0.00    +0.000 S 
BRANCH  25  26
ATOM     26  C   UNL     1      30.591  27.252  47.387  0.00  0.00    +0.000 A 
ATOM     27  C   UNL     1      29.343  26.798  47.801  0.00  0.00    +0.000 A 
ATOM     28  H   UNL     1      29.174  26.612  48.838  0.00  0.00    +0.000 HD
ATOM     29  C   UNL     1      28.356  26.602  46.847  0.00  0.00    +0.000 A 
ATOM     30  H   UNL     1      27.408  26.247  47.246  0.00  0.00    +0.000 HD
ATOM     31  C   UNL     1      28.524  26.827  45.496  0.00  0.00    +0.000 A 
ATOM     32  C   UNL     1      29.766  27.272  45.129  0.00  0.00    +0.000 A 
ATOM     33  C   UNL     1      30.746  27.472  46.038  0.00  0.00    +0.000 A 
ATOM     34  H   UNL     1      31.721  27.830  45.687  0.00  0.00    +0.000 HD
ATOM     35  S   UNL     1      30.062  27.585  43.410  0.00  0.00    +0.000 S 
ATOM     36  C   UNL     1      28.550  27.208  42.555  0.00  0.00    +0.000 A 
ATOM     37  C   UNL     1      28.522  27.370  41.201  0.00  0.00    +0.000 A 
ATOM     38  H   UNL     1      29.383  27.719  40.629  0.00  0.00    +0.000 HD
ATOM     39  C   UNL     1      27.381  27.096  40.468  0.00  0.00    +0.000 A 
ATOM     40  H   UNL     1      27.368  27.227  39.405  0.00  0.00    +0.000 HD
ATOM     41  C   UNL     1      26.266  26.652  41.148  0.00  0.00    +0.000 A 
ATOM     42  H   UNL     1      25.368  26.431  40.610  0.00  0.00    +0.000 HD
ATOM     43  C   UNL     1      26.364  26.510  42.516  0.00  0.00    +0.000 A 
ATOM     44  H   UNL     1      25.440  26.152  42.993  0.00  0.00    +0.000 HD
ATOM     45  C   UNL     1      27.477  26.770  43.288  0.00  0.00    +0.000 A 
ATOM     46  N   UNL     1      27.422  26.576  44.677  0.00  0.00    +0.000 N 
ATOM     47  H   UNL     1      26.521  26.236  45.075  0.00  0.00    +0.000 HD
ENDBRANCH  25  26
ENDBRANCH   5  25
TORSDOF 4
