
 OpenBabel03272507163D

 39 43  0  0  1  0  0  0  0  0999 V2000
   34.8900   28.8510   48.6080 C   0  0  0  0  0  0  0  0  0  0  0  0
   34.1490   27.6960   48.8870 C   0  0  0  0  0  0  0  0  0  0  0  0
   34.5230   26.9680   49.6200 H   0  0  0  0  0  0  0  0  0  0  0  0
   32.9520   27.4810   48.2380 C   0  0  0  0  0  0  0  0  0  0  0  0
   32.4310   26.5650   48.5030 H   0  0  0  0  0  0  0  0  0  0  0  0
   32.4110   28.3390   47.3080 C   0  0  0  0  0  0  0  0  0  0  0  0
   33.1560   29.4570   47.0550 C   0  0  0  0  0  0  0  0  0  0  0  0
   34.3280   29.6990   47.6710 C   0  0  0  0  0  0  0  0  0  0  0  0
   34.9030   30.5960   47.4520 H   0  0  0  0  0  0  0  0  0  0  0  0
   32.5600   30.6450   45.8690 S   0  0  0  0  0  0  0  0  0  0  0  0
   31.0100   29.9930   45.2770 C   0  0  0  0  0  0  0  0  0  0  0  0
   30.3330   30.7140   44.3500 C   0  0  0  0  0  0  0  0  0  0  0  0
   30.7310   31.6620   43.9800 H   0  0  0  0  0  0  0  0  0  0  0  0
   29.1250   30.2900   43.8320 C   0  0  0  0  0  0  0  0  0  0  0  0
   28.5860   30.8620   43.0940 H   0  0  0  0  0  0  0  0  0  0  0  0
   28.6120   29.0950   44.2890 C   0  0  0  0  0  0  0  0  0  0  0  0
   27.6690   28.7170   43.9170 H   0  0  0  0  0  0  0  0  0  0  0  0
   29.3440   28.4030   45.2350 C   0  0  0  0  0  0  0  0  0  0  0  0
   28.8900   27.4600   45.5620 H   0  0  0  0  0  0  0  0  0  0  0  0
   30.5510   28.7980   45.7710 C   0  0  0  0  0  0  0  0  0  0  0  0
   31.1850   28.0000   46.7220 N   0  0  0  0  0  0  0  0  0  0  0  0
   30.7150   27.1130   47.0020 H   0  0  0  0  0  0  0  0  0  0  0  0
   36.0710   29.0130   49.2810 O   0  0  0  0  0  0  0  0  0  0  0  0
   37.0680   30.8230   50.6080 C   0  0  1  0  0  0  0  0  0  0  0  0
   36.2650   29.6240   50.5250 C   0  0  2  0  0  0  0  0  0  0  0  0
   37.6600   29.4990   51.1060 C   0  0  0  0  0  0  0  0  0  0  0  0
   37.0310   31.5630   51.4440 H   0  0  0  0  0  0  0  0  0  0  0  0
   35.4070   29.5230   51.2110 H   0  0  0  0  0  0  0  0  0  0  0  0
   37.6810   29.2880   52.1860 H   0  0  0  0  0  0  0  0  0  0  0  0
   38.4470   29.0070   50.4980 H   0  0  0  0  0  0  0  0  0  0  0  0
   37.8030   31.3560   49.3940 C   0  0  0  0  0  0  0  0  0  0  0  0
   38.2890   32.6650   49.4920 C   0  0  0  0  0  0  0  0  0  0  0  0
   38.9400   33.1390   48.3700 C   0  0  0  0  0  0  0  0  0  0  0  0
   39.0870   32.3640   47.2500 N   0  0  0  0  0  0  0  0  0  0  0  0
   38.5940   31.0900   47.2050 C   0  0  0  0  0  0  0  0  0  0  0  0
   37.9450   30.5810   48.2860 N   0  0  0  0  0  0  0  0  0  0  0  0
   38.1490   33.2360   50.3980 H   0  0  0  0  0  0  0  0  0  0  0  0
   39.3380   34.1470   48.3920 H   0  0  0  0  0  0  0  0  0  0  0  0
   38.7140   30.4880   46.3160 H   0  0  0  0  0  0  0  0  0  0  0  0
  1  2  1  0  0  0  0
  1 23  1  0  0  0  0
  2  3  1  0  0  0  0
  4  5  1  0  0  0  0
  4  2  2  0  0  0  0
  6  4  1  0  0  0  0
  7  6  2  0  0  0  0
  7  8  1  0  0  0  0
  8  1  2  0  0  0  0
  9  8  1  0  0  0  0
 10  7  1  0  0  0  0
 11 20  1  0  0  0  0
 11 10  1  0  0  0  0
 12 11  2  0  0  0  0
 13 12  1  0  0  0  0
 14 16  2  0  0  0  0
 14 12  1  0  0  0  0
 15 14  1  0  0  0  0
 16 18  1  0  0  0  0
 17 16  1  0  0  0  0
 18 19  1  0  0  0  0
 18 20  2  0  0  0  0
 20 21  1  0  0  0  0
 21 22  1  0  0  0  0
 21  6  1  0  0  0  0
 23 25  1  0  0  0  0
 24 26  1  0  0  0  0
 24 27  1  1  0  0  0
 25 24  1  0  0  0  0
 25 26  1  0  0  0  0
 25 28  1  1  0  0  0
 26 29  1  0  0  0  0
 30 26  1  0  0  0  0
 31 32  1  0  0  0  0
 31 24  1  0  0  0  0
 32 37  1  0  0  0  0
 33 38  1  0  0  0  0
 33 32  2  0  0  0  0
 34 33  1  0  0  0  0
 35 34  2  0  0  0  0
 35 36  1  0  0  0  0
 36 31  2  0  0  0  0
 39 35  1  0  0  0  0
M  END
>  <minimizedAffinity>
-6.25007629

>  <minimizedRMSD>
3.50764823

$$$$
