
     RDKit          3D

 39 43  0  0  0  0  0  0  0  0999 V2000
   37.5243   31.4048   49.3285 C   0  0  0  0  0  0  0  0  0  0  0  0
   38.1444   32.6576   49.3903 C   0  0  0  0  0  0  0  0  0  0  0  0
   38.9265   32.9842   48.2994 C   0  0  0  0  0  0  0  0  0  0  0  0
   39.0695   32.1247   47.2418 N   0  0  0  0  0  0  0  0  0  0  0  0
   38.4418   30.9112   47.2301 C   0  0  0  0  0  0  0  0  0  0  0  0
   37.6622   30.5472   48.2825 N   0  0  0  0  0  0  0  0  0  0  0  0
   36.6456   31.0351   50.5071 C   0  0  1  0  0  0  0  0  0  0  0  0
   36.1393   29.6903   50.6647 C   0  0  2  0  0  0  0  0  0  0  0  0
   37.3552   30.0846   51.4795 C   0  0  0  0  0  0  0  0  0  0  0  0
   36.3671   28.7483   49.6552 O   0  0  0  0  0  0  0  0  0  0  0  0
   38.0005   33.2995   50.2458 H   0  0  0  0  0  0  0  0  0  0  0  0
   39.4312   33.9443   48.2947 H   0  0  0  0  0  0  0  0  0  0  0  0
   38.5614   30.2416   46.3914 H   0  0  0  0  0  0  0  0  0  0  0  0
   36.2681   31.9311   51.0555 H   0  0  0  0  0  0  0  0  0  0  0  0
   35.1819   29.5529   51.1950 H   0  0  0  0  0  0  0  0  0  0  0  0
   37.1634   30.1751   52.5604 H   0  0  0  0  0  0  0  0  0  0  0  0
   38.3443   29.6723   51.1926 H   0  0  0  0  0  0  0  0  0  0  0  0
   35.5509   27.7162   49.2783 C   0  0  0  0  0  0  0  0  0  0  0  0
   36.0714   26.4197   49.3807 C   0  0  0  0  0  0  0  0  0  0  0  0
   37.0942   26.2682   49.7509 H   0  0  0  0  0  0  0  0  0  0  0  0
   35.2932   25.3419   49.0148 C   0  0  0  0  0  0  0  0  0  0  0  0
   35.7606   24.3679   49.1201 H   0  0  0  0  0  0  0  0  0  0  0  0
   34.0045   25.4434   48.5419 C   0  0  0  0  0  0  0  0  0  0  0  0
   33.5230   26.7202   48.4526 C   0  0  0  0  0  0  0  0  0  0  0  0
   34.2554   27.7950   48.8013 C   0  0  0  0  0  0  0  0  0  0  0  0
   33.8485   28.8007   48.7208 H   0  0  0  0  0  0  0  0  0  0  0  0
   31.8655   26.9804   47.8536 S   0  0  0  0  0  0  0  0  0  0  0  0
   31.2246   25.3560   47.5003 C   0  0  0  0  0  0  0  0  0  0  0  0
   29.9589   25.2647   47.0224 C   0  0  0  0  0  0  0  0  0  0  0  0
   29.3568   26.1629   46.8615 H   0  0  0  0  0  0  0  0  0  0  0  0
   29.3756   24.0509   46.7195 C   0  0  0  0  0  0  0  0  0  0  0  0
   28.3691   23.9769   46.3394 H   0  0  0  0  0  0  0  0  0  0  0  0
   30.1238   22.9098   46.9177 C   0  0  0  0  0  0  0  0  0  0  0  0
   29.7153   21.9318   46.6964 H   0  0  0  0  0  0  0  0  0  0  0  0
   31.4067   23.0617   47.4062 C   0  0  0  0  0  0  0  0  0  0  0  0
   31.9564   22.1225   47.5447 H   0  0  0  0  0  0  0  0  0  0  0  0
   32.0172   24.2580   47.7180 C   0  0  0  0  0  0  0  0  0  0  0  0
   33.3233   24.2667   48.2050 N   0  0  0  0  0  0  0  0  0  0  0  0
   33.8045   23.3497   48.3196 H   0  0  0  0  0  0  0  0  0  0  0  0
  1  2  2  0
  1  7  1  0
  3  2  1  0
  4  3  2  0
  5  4  1  0
  5  6  2  0
  6  1  1  0
  7  8  1  0
  7  9  1  0
  8  9  1  0
 10  8  1  0
  2 11  1  0
  3 12  1  0
  5 13  1  0
  7 14  1  1
  8 15  1  1
  9 16  1  0
  9 17  1  0
 18 19  2  0
 19 20  1  0
 19 21  1  0
 21 22  1  0
 21 23  2  0
 23 24  1  0
 24 25  2  0
 25 26  1  0
 24 27  1  0
 27 28  1  0
 28 29  2  0
 29 30  1  0
 29 31  1  0
 31 32  1  0
 31 33  2  0
 33 34  1  0
 33 35  1  0
 35 36  1  0
 35 37  2  0
 37 38  1  0
 38 39  1  0
 25 18  1  0
 37 28  1  0
 38 23  1  0
 10 18  1  0
M  ISO  8  11  14  12  14  13  14  14  13  15  13  16  13  17  13  20  16
M  ISO  7  22  16  26  16  30  16  32  16  34  16  36  16  39   5
M  END
>  <DihAtoms>  (1) 
7,9,17,18

>  <DihDeg>  (1) 
179.99856549361843

$$$$
