REMARK  Name = 
REMARK  4 active torsions:
REMARK  status: ('A' for Active; 'I' for Inactive)
REMARK    1  A    between atoms: C_1  and  C_6
REMARK    2  A    between atoms: C_1  and  C_8
REMARK    3  A    between atoms: C_8  and  C_9
REMARK    4  A    between atoms: N_12  and  C_23
REMARK                            x       y       z     vdW  Elec       q    Type
REMARK                         _______ _______ _______ _____ _____    ______ ____
ROOT
ATOM      1  C   UNL     1      32.955  28.255  47.890  0.00  0.00    +0.000 A 
ATOM      2  C   UNL     1      32.019  27.585  48.635  0.00  0.00    +0.000 A 
ATOM      3  C   UNL     1      30.748  27.855  48.145  0.00  0.00    +0.000 A 
ATOM      4  N   UNL     1      30.957  28.692  47.103  0.00  0.00    +0.000 N 
ATOM      5  N   UNL     1      32.251  28.925  46.955  0.00  0.00    +0.000 NA
ATOM      6  H   UNL     1      32.186  26.928  49.491  0.00  0.00    +0.000 HD
ATOM      7  H   UNL     1      29.776  27.492  48.494  0.00  0.00    +0.000 HD
ENDROOT
BRANCH   4   8
ATOM      8  C   UNL     1      29.993  29.282  46.240  0.00  0.00    +0.000 A 
ATOM      9  C   UNL     1      28.678  28.890  46.282  0.00  0.00    +0.000 A 
ATOM     10  H   UNL     1      28.387  28.123  46.982  0.00  0.00    +0.000 HD
ATOM     11  C   UNL     1      27.765  29.480  45.433  0.00  0.00    +0.000 A 
ATOM     12  H   UNL     1      26.740  29.102  45.538  0.00  0.00    +0.000 HD
ATOM     13  C   UNL     1      28.077  30.461  44.519  0.00  0.00    +0.000 A 
ATOM     14  C   UNL     1      29.396  30.838  44.495  0.00  0.00    +0.000 A 
ATOM     15  C   UNL     1      30.311  30.262  45.329  0.00  0.00    +0.000 A 
ATOM     16  H   UNL     1      31.353  30.580  45.289  0.00  0.00    +0.000 HD
ATOM     17  S   UNL     1      29.882  32.102  43.340  0.00  0.00    +0.000 S 
ATOM     18  C   UNL     1      28.411  32.578  42.456  0.00  0.00    +0.000 A 
ATOM     19  C   UNL     1      28.515  33.549  41.497  0.00  0.00    +0.000 A 
ATOM     20  H   UNL     1      29.469  34.020  41.276  0.00  0.00    +0.000 HD
ATOM     21  C   UNL     1      27.422  33.960  40.780  0.00  0.00    +0.000 A 
ATOM     22  H   UNL     1      27.453  34.721  40.015  0.00  0.00    +0.000 HD
ATOM     23  C   UNL     1      26.208  33.369  41.052  0.00  0.00    +0.000 A 
ATOM     24  H   UNL     1      25.349  33.675  40.507  0.00  0.00    +0.000 HD
ATOM     25  C   UNL     1      26.162  32.398  42.027  0.00  0.00    +0.000 A 
ATOM     26  H   UNL     1      25.163  31.973  42.188  0.00  0.00    +0.000 HD
ATOM     27  C   UNL     1      27.232  31.952  42.772  0.00  0.00    +0.000 A 
ATOM     28  N   UNL     1      27.016  30.948  43.735  0.00  0.00    +0.000 N 
ATOM     29  H   UNL     1      26.052  30.578  43.849  0.00  0.00    +0.000 HD
ENDBRANCH   4   8
BRANCH   1  30
ATOM     30  C   UNL     1      34.448  28.230  48.094  0.00  0.00    +0.000 C 
ATOM     31  H   UNL     1      34.787  27.266  47.641  0.00  0.00    +0.000 HD
ATOM     32  H   UNL     1      34.897  29.091  47.544  0.00  0.00    +0.000 HD
BRANCH  30  33
ATOM     33  C   UNL     1      34.658  28.303  49.577  0.00  0.00    +0.000 C 
ATOM     34  H   UNL     1      33.777  28.586  50.164  0.00  0.00    +0.000 HD
ATOM     35  H   UNL     1      34.940  27.261  49.900  0.00  0.00    +0.000 HD
BRANCH  33  40
ATOM     36  C   UNL     1      37.287  30.179  51.382  0.00  0.00    +0.000 A 
ATOM     37  C   UNL     1      38.075  30.692  50.344  0.00  0.00    +0.000 A 
ATOM     38  C   UNL     1      37.688  30.382  49.019  0.00  0.00    +0.000 A 
ATOM     39  N   UNL     1      36.586  29.614  48.827  0.00  0.00    +0.000 NA
ATOM     40  C   UNL     1      35.863  29.146  49.872  0.00  0.00    +0.000 A 
ATOM     41  N   UNL     1      36.215  29.429  51.127  0.00  0.00    +0.000 NA
ATOM     42  H   UNL     1      37.613  30.436  52.388  0.00  0.00    +0.000 HD
ATOM     43  H   UNL     1      38.959  31.307  50.451  0.00  0.00    +0.000 HD
ATOM     44  H   UNL     1      38.192  30.704  48.129  0.00  0.00    +0.000 HD
ENDBRANCH  33  40
ENDBRANCH  30  33
ENDBRANCH   1  30
TORSDOF 4
