
 OpenBabel03272503313D

 47 51  0  0  1  0  0  0  0  0999 V2000
   36.6360   31.9440   31.6870 C   0  0  0  0  0  0  0  0  0  0  0  0
   37.1250   32.7420   30.6540 C   0  0  0  0  0  0  0  0  0  0  0  0
   37.5860   32.1040   29.5120 C   0  0  0  0  0  0  0  0  0  0  0  0
   37.5240   30.7310   29.4830 N   0  0  0  0  0  0  0  0  0  0  0  0
   37.0450   29.9930   30.4950 C   0  0  0  0  0  0  0  0  0  0  0  0
   36.5990   30.6040   31.6020 N   0  0  0  0  0  0  0  0  0  0  0  0
   37.1770   33.8110   30.6710 H   0  0  0  0  0  0  0  0  0  0  0  0
   37.9850   32.6460   28.6580 H   0  0  0  0  0  0  0  0  0  0  0  0
   36.1620   32.6240   32.8640 N   0  0  0  0  0  0  0  0  0  0  0  0
   35.0290   32.2820   33.6600 C   0  0  0  0  0  0  0  0  0  0  0  0
   35.4260   32.7900   35.0470 C   0  0  2  0  0  0  0  0  0  0  0  0
   36.8400   33.3020   34.9080 C   0  0  0  0  0  0  0  0  0  0  0  0
   36.7490   33.7950   33.4650 C   0  0  0  0  0  0  0  0  0  0  0  0
   34.1800   32.8970   33.3120 H   0  0  0  0  0  0  0  0  0  0  0  0
   34.8080   31.1930   33.6970 H   0  0  0  0  0  0  0  0  0  0  0  0
   34.8080   33.6840   35.3320 H   0  0  0  0  0  0  0  0  0  0  0  0
   37.5470   32.4590   34.9090 H   0  0  0  0  0  0  0  0  0  0  0  0
   37.0890   34.0980   35.6180 H   0  0  0  0  0  0  0  0  0  0  0  0
   37.7730   33.9340   33.0800 H   0  0  0  0  0  0  0  0  0  0  0  0
   36.1180   34.7010   33.3940 H   0  0  0  0  0  0  0  0  0  0  0  0
   35.2760   31.7500   36.1160 C   0  0  0  0  0  0  0  0  0  0  0  0
   36.3760   30.9210   36.0030 F   0  0  0  0  0  0  0  0  0  0  0  0
   34.1670   31.0040   35.8000 F   0  0  0  0  0  0  0  0  0  0  0  0
   35.1570   32.2670   37.3700 F   0  0  0  0  0  0  0  0  0  0  0  0
   36.9840   28.2140   30.4150 S   0  0  0  0  0  0  0  0  0  0  0  0
   37.1510   27.5000   32.0390 C   0  0  0  0  0  0  0  0  0  0  0  0
   36.4880   28.0100   33.1510 C   0  0  0  0  0  0  0  0  0  0  0  0
   35.8550   28.8600   33.0350 H   0  0  0  0  0  0  0  0  0  0  0  0
   36.6760   27.3920   34.3780 C   0  0  0  0  0  0  0  0  0  0  0  0
   36.1260   27.8480   35.2000 H   0  0  0  0  0  0  0  0  0  0  0  0
   37.4840   26.2910   34.5810 C   0  0  0  0  0  0  0  0  0  0  0  0
   38.1180   25.8200   33.4620 C   0  0  0  0  0  0  0  0  0  0  0  0
   37.9530   26.4030   32.2530 C   0  0  0  0  0  0  0  0  0  0  0  0
   38.4860   25.9810   31.3940 H   0  0  0  0  0  0  0  0  0  0  0  0
   39.1730   24.4080   33.6390 S   0  0  0  0  0  0  0  0  0  0  0  0
   39.1230   23.9450   35.3560 C   0  0  0  0  0  0  0  0  0  0  0  0
   39.8640   22.8710   35.7510 C   0  0  0  0  0  0  0  0  0  0  0  0
   40.4790   22.2910   35.0610 H   0  0  0  0  0  0  0  0  0  0  0  0
   39.8750   22.4510   37.0700 C   0  0  0  0  0  0  0  0  0  0  0  0
   40.4600   21.6070   37.3710 H   0  0  0  0  0  0  0  0  0  0  0  0
   39.1120   23.1550   37.9770 C   0  0  0  0  0  0  0  0  0  0  0  0
   39.0990   22.8560   39.0040 H   0  0  0  0  0  0  0  0  0  0  0  0
   38.3870   24.2310   37.5090 C   0  0  0  0  0  0  0  0  0  0  0  0
   37.8020   24.7440   38.2860 H   0  0  0  0  0  0  0  0  0  0  0  0
   38.3450   24.6840   36.2080 C   0  0  0  0  0  0  0  0  0  0  0  0
   37.5560   25.7990   35.8840 N   0  0  0  0  0  0  0  0  0  0  0  0
   37.0240   26.2460   36.6600 H   0  0  0  0  0  0  0  0  0  0  0  0
  1  9  1  0  0  0  0
  2  7  1  0  0  0  0
  2  1  2  0  0  0  0
  3  2  1  0  0  0  0
  4  3  2  0  0  0  0
  4  5  1  0  0  0  0
  5  6  2  0  0  0  0
  6  1  1  0  0  0  0
  8  3  1  0  0  0  0
  9 13  1  0  0  0  0
  9 10  1  0  0  0  0
 10 15  1  0  0  0  0
 10 11  1  0  0  0  0
 11 16  1  1  0  0  0
 11 21  1  0  0  0  0
 12 17  1  0  0  0  0
 12 11  1  0  0  0  0
 12 18  1  0  0  0  0
 13 12  1  0  0  0  0
 14 10  1  0  0  0  0
 19 13  1  0  0  0  0
 20 13  1  0  0  0  0
 21 24  1  0  0  0  0
 22 21  1  0  0  0  0
 23 21  1  0  0  0  0
 25  5  1  0  0  0  0
 25 26  1  0  0  0  0
 26 33  2  0  0  0  0
 26 27  1  0  0  0  0
 27 29  2  0  0  0  0
 28 27  1  0  0  0  0
 29 31  1  0  0  0  0
 29 30  1  0  0  0  0
 31 46  1  0  0  0  0
 32 35  1  0  0  0  0
 32 31  2  0  0  0  0
 33 32  1  0  0  0  0
 34 33  1  0  0  0  0
 35 36  1  0  0  0  0
 36 37  2  0  0  0  0
 36 45  1  0  0  0  0
 37 39  1  0  0  0  0
 38 37  1  0  0  0  0
 39 40  1  0  0  0  0
 39 41  2  0  0  0  0
 41 42  1  0  0  0  0
 43 41  1  0  0  0  0
 43 44  1  0  0  0  0
 45 43  2  0  0  0  0
 46 45  1  0  0  0  0
 46 47  1  0  0  0  0
M  END
>  <minimizedAffinity>
-6.85413551

$$$$

 OpenBabel03272503313D

 47 51  0  0  1  0  0  0  0  0999 V2000
   37.4290   23.7820   33.0490 C   0  0  0  0  0  0  0  0  0  0  0  0
   36.7960   22.6660   32.5040 C   0  0  0  0  0  0  0  0  0  0  0  0
   35.8860   22.8800   31.4800 C   0  0  0  0  0  0  0  0  0  0  0  0
   35.6760   24.1770   31.0770 N   0  0  0  0  0  0  0  0  0  0  0  0
   36.3030   25.2290   31.6230 C   0  0  0  0  0  0  0  0  0  0  0  0
   37.1850   25.0290   32.6130 N   0  0  0  0  0  0  0  0  0  0  0  0
   36.9550   21.6540   32.8150 H   0  0  0  0  0  0  0  0  0  0  0  0
   35.3460   22.0690   30.9970 H   0  0  0  0  0  0  0  0  0  0  0  0
   38.3710   23.5410   34.1110 N   0  0  0  0  0  0  0  0  0  0  0  0
   38.7090   24.4220   35.1800 C   0  0  0  0  0  0  0  0  0  0  0  0
   39.0980   23.4580   36.3020 C   0  0  2  0  0  0  0  0  0  0  0  0
   38.8360   22.0730   35.7620 C   0  0  0  0  0  0  0  0  0  0  0  0
   39.1600   22.3500   34.2950 C   0  0  0  0  0  0  0  0  0  0  0  0
   39.6210   24.9700   34.8830 H   0  0  0  0  0  0  0  0  0  0  0  0
   37.8770   25.0830   35.5100 H   0  0  0  0  0  0  0  0  0  0  0  0
   40.2030   23.5030   36.4960 H   0  0  0  0  0  0  0  0  0  0  0  0
   37.7610   21.8460   35.8100 H   0  0  0  0  0  0  0  0  0  0  0  0
   39.4770   21.3020   36.2040 H   0  0  0  0  0  0  0  0  0  0  0  0
   38.7410   21.5310   33.6860 H   0  0  0  0  0  0  0  0  0  0  0  0
   40.2460   22.5020   34.1490 H   0  0  0  0  0  0  0  0  0  0  0  0
   38.3790   23.7370   37.5880 C   0  0  0  0  0  0  0  0  0  0  0  0
   37.1690   23.0770   37.5020 F   0  0  0  0  0  0  0  0  0  0  0  0
   38.1110   25.0830   37.6160 F   0  0  0  0  0  0  0  0  0  0  0  0
   39.0800   23.3700   38.6970 F   0  0  0  0  0  0  0  0  0  0  0  0
   36.0010   26.8960   31.0690 S   0  0  0  0  0  0  0  0  0  0  0  0
   35.8910   28.0140   32.4520 C   0  0  0  0  0  0  0  0  0  0  0  0
   36.7490   27.9360   33.5460 C   0  0  0  0  0  0  0  0  0  0  0  0
   37.5020   27.1810   33.5640 H   0  0  0  0  0  0  0  0  0  0  0  0
   36.5930   28.8460   34.5790 C   0  0  0  0  0  0  0  0  0  0  0  0
   37.2990   28.7220   35.3990 H   0  0  0  0  0  0  0  0  0  0  0  0
   35.6350   29.8400   34.6040 C   0  0  0  0  0  0  0  0  0  0  0  0
   34.8120   29.8830   33.5110 C   0  0  0  0  0  0  0  0  0  0  0  0
   34.9410   29.0080   32.4890 C   0  0  0  0  0  0  0  0  0  0  0  0
   34.2540   29.0910   31.6400 H   0  0  0  0  0  0  0  0  0  0  0  0
   33.5560   31.1320   33.4670 S   0  0  0  0  0  0  0  0  0  0  0  0
   33.7120   32.0670   34.9720 C   0  0  0  0  0  0  0  0  0  0  0  0
   32.8450   33.0990   35.1780 C   0  0  0  0  0  0  0  0  0  0  0  0
   32.0680   33.3700   34.4610 H   0  0  0  0  0  0  0  0  0  0  0  0
   32.9060   33.8720   36.3240 C   0  0  0  0  0  0  0  0  0  0  0  0
   32.2220   34.6800   36.4770 H   0  0  0  0  0  0  0  0  0  0  0  0
   33.8740   33.5650   37.2580 C   0  0  0  0  0  0  0  0  0  0  0  0
   33.9460   34.1430   38.1550 H   0  0  0  0  0  0  0  0  0  0  0  0
   34.7160   32.5080   36.9860 C   0  0  0  0  0  0  0  0  0  0  0  0
   35.4620   32.3210   37.7730 H   0  0  0  0  0  0  0  0  0  0  0  0
   34.6940   31.7130   35.8600 C   0  0  0  0  0  0  0  0  0  0  0  0
   35.6220   30.6680   35.7270 N   0  0  0  0  0  0  0  0  0  0  0  0
   36.3050   30.5380   36.5030 H   0  0  0  0  0  0  0  0  0  0  0  0
  1  9  1  0  0  0  0
  2  7  1  0  0  0  0
  2  1  2  0  0  0  0
  3  2  1  0  0  0  0
  4  3  2  0  0  0  0
  4  5  1  0  0  0  0
  5  6  2  0  0  0  0
  6  1  1  0  0  0  0
  8  3  1  0  0  0  0
  9 13  1  0  0  0  0
  9 10  1  0  0  0  0
 10 15  1  0  0  0  0
 10 11  1  0  0  0  0
 11 16  1  1  0  0  0
 11 21  1  0  0  0  0
 12 17  1  0  0  0  0
 12 18  1  0  0  0  0
 12 11  1  0  0  0  0
 13 12  1  0  0  0  0
 14 10  1  0  0  0  0
 19 13  1  0  0  0  0
 20 13  1  0  0  0  0
 21 23  1  0  0  0  0
 21 24  1  0  0  0  0
 22 21  1  0  0  0  0
 25  5  1  0  0  0  0
 25 26  1  0  0  0  0
 26 33  2  0  0  0  0
 26 27  1  0  0  0  0
 27 28  1  0  0  0  0
 27 29  2  0  0  0  0
 29 31  1  0  0  0  0
 29 30  1  0  0  0  0
 31 46  1  0  0  0  0
 32 31  2  0  0  0  0
 33 32  1  0  0  0  0
 34 33  1  0  0  0  0
 35 32  1  0  0  0  0
 35 36  1  0  0  0  0
 36 37  2  0  0  0  0
 36 45  1  0  0  0  0
 37 39  1  0  0  0  0
 38 37  1  0  0  0  0
 39 40  1  0  0  0  0
 39 41  2  0  0  0  0
 41 42  1  0  0  0  0
 43 41  1  0  0  0  0
 43 44  1  0  0  0  0
 45 43  2  0  0  0  0
 46 45  1  0  0  0  0
 46 47  1  0  0  0  0
M  END
>  <minimizedAffinity>
-6.84190845

$$$$

 OpenBabel03272503313D

 47 51  0  0  1  0  0  0  0  0999 V2000
   36.1450   31.0000   31.7730 C   0  0  0  0  0  0  0  0  0  0  0  0
   36.6250   31.5430   30.5820 C   0  0  0  0  0  0  0  0  0  0  0  0
   37.0120   30.6620   29.5850 C   0  0  0  0  0  0  0  0  0  0  0  0
   36.8930   29.3180   29.8430 N   0  0  0  0  0  0  0  0  0  0  0  0
   36.4250   28.8280   31.0000 C   0  0  0  0  0  0  0  0  0  0  0  0
   36.0490   29.6750   31.9690 N   0  0  0  0  0  0  0  0  0  0  0  0
   36.7220   32.5890   30.3760 H   0  0  0  0  0  0  0  0  0  0  0  0
   37.3990   30.9970   28.6240 H   0  0  0  0  0  0  0  0  0  0  0  0
   35.7470   31.9300   32.7970 N   0  0  0  0  0  0  0  0  0  0  0  0
   34.7070   31.7620   33.7590 C   0  0  0  0  0  0  0  0  0  0  0  0
   35.2030   32.5960   34.9410 C   0  0  2  0  0  0  0  0  0  0  0  0
   36.5740   33.0920   34.5480 C   0  0  0  0  0  0  0  0  0  0  0  0
   36.3310   33.2240   33.0460 C   0  0  0  0  0  0  0  0  0  0  0  0
   33.8030   32.2560   33.3600 H   0  0  0  0  0  0  0  0  0  0  0  0
   34.5400   30.7080   34.0730 H   0  0  0  0  0  0  0  0  0  0  0  0
   34.5730   33.5170   35.0670 H   0  0  0  0  0  0  0  0  0  0  0  0
   37.3160   32.2910   34.6780 H   0  0  0  0  0  0  0  0  0  0  0  0
   36.8490   34.0400   35.0230 H   0  0  0  0  0  0  0  0  0  0  0  0
   37.3090   33.2920   32.5400 H   0  0  0  0  0  0  0  0  0  0  0  0
   35.6560   34.0720   32.8250 H   0  0  0  0  0  0  0  0  0  0  0  0
   35.1970   31.8370   36.2340 C   0  0  0  0  0  0  0  0  0  0  0  0
   36.3330   31.0500   36.2230 F   0  0  0  0  0  0  0  0  0  0  0  0
   34.1140   30.9930   36.2020 F   0  0  0  0  0  0  0  0  0  0  0  0
   35.1430   32.6360   37.3370 F   0  0  0  0  0  0  0  0  0  0  0  0
   36.2860   27.0760   31.2920 S   0  0  0  0  0  0  0  0  0  0  0  0
   37.6890   26.4730   32.2120 C   0  0  0  0  0  0  0  0  0  0  0  0
   38.9530   27.0460   32.1060 C   0  0  0  0  0  0  0  0  0  0  0  0
   39.0950   27.8770   31.4530 H   0  0  0  0  0  0  0  0  0  0  0  0
   39.9880   26.5130   32.8580 C   0  0  0  0  0  0  0  0  0  0  0  0
   40.9460   27.0130   32.7220 H   0  0  0  0  0  0  0  0  0  0  0  0
   39.8570   25.4400   33.7160 C   0  0  0  0  0  0  0  0  0  0  0  0
   38.5990   24.9050   33.7910 C   0  0  0  0  0  0  0  0  0  0  0  0
   37.5700   25.4050   33.0700 C   0  0  0  0  0  0  0  0  0  0  0  0
   36.5850   24.9360   33.1710 H   0  0  0  0  0  0  0  0  0  0  0  0
   38.3470   23.5250   34.8730 S   0  0  0  0  0  0  0  0  0  0  0  0
   39.9180   23.1750   35.6290 C   0  0  0  0  0  0  0  0  0  0  0  0
   39.9860   22.1410   36.5140 C   0  0  0  0  0  0  0  0  0  0  0  0
   39.1220   21.5270   36.7740 H   0  0  0  0  0  0  0  0  0  0  0  0
   41.1740   21.8100   37.1430 C   0  0  0  0  0  0  0  0  0  0  0  0
   41.2180   20.9960   37.8370 H   0  0  0  0  0  0  0  0  0  0  0  0
   42.2930   22.5600   36.8460 C   0  0  0  0  0  0  0  0  0  0  0  0
   43.2260   22.3290   37.3150 H   0  0  0  0  0  0  0  0  0  0  0  0
   42.1520   23.5910   35.9410 C   0  0  0  0  0  0  0  0  0  0  0  0
   43.0820   24.1460   35.7520 H   0  0  0  0  0  0  0  0  0  0  0  0
   40.9920   23.9570   35.2930 C   0  0  0  0  0  0  0  0  0  0  0  0
   41.0070   25.0360   34.3940 N   0  0  0  0  0  0  0  0  0  0  0  0
   41.9170   25.5240   34.2540 H   0  0  0  0  0  0  0  0  0  0  0  0
  1  6  1  0  0  0  0
  1  9  1  0  0  0  0
  2  1  2  0  0  0  0
  3  4  2  0  0  0  0
  3  2  1  0  0  0  0
  4  5  1  0  0  0  0
  5 25  1  0  0  0  0
  5  6  2  0  0  0  0
  7  2  1  0  0  0  0
  8  3  1  0  0  0  0
  9 13  1  0  0  0  0
  9 10  1  0  0  0  0
 10 15  1  0  0  0  0
 10 11  1  0  0  0  0
 11 16  1  1  0  0  0
 11 21  1  0  0  0  0
 12 17  1  0  0  0  0
 12 11  1  0  0  0  0
 12 18  1  0  0  0  0
 13 12  1  0  0  0  0
 14 10  1  0  0  0  0
 19 13  1  0  0  0  0
 20 13  1  0  0  0  0
 21 24  1  0  0  0  0
 22 21  1  0  0  0  0
 23 21  1  0  0  0  0
 25 26  1  0  0  0  0
 26 33  1  0  0  0  0
 27 26  2  0  0  0  0
 27 29  1  0  0  0  0
 28 27  1  0  0  0  0
 29 31  2  0  0  0  0
 30 29  1  0  0  0  0
 31 32  1  0  0  0  0
 31 46  1  0  0  0  0
 32 35  1  0  0  0  0
 33 34  1  0  0  0  0
 33 32  2  0  0  0  0
 35 36  1  0  0  0  0
 36 37  1  0  0  0  0
 37 38  1  0  0  0  0
 37 39  2  0  0  0  0
 39 40  1  0  0  0  0
 41 39  1  0  0  0  0
 41 42  1  0  0  0  0
 43 41  2  0  0  0  0
 44 43  1  0  0  0  0
 45 36  2  0  0  0  0
 45 43  1  0  0  0  0
 46 45  1  0  0  0  0
 47 46  1  0  0  0  0
M  END
>  <minimizedAffinity>
-6.55205441

$$$$

 OpenBabel03272503313D

 47 51  0  0  1  0  0  0  0  0999 V2000
   35.5180   29.1190   33.9550 C   0  0  0  0  0  0  0  0  0  0  0  0
   36.3140   28.6630   35.0040 C   0  0  0  0  0  0  0  0  0  0  0  0
   37.1740   27.6070   34.7460 C   0  0  0  0  0  0  0  0  0  0  0  0
   37.1790   27.0880   33.4730 N   0  0  0  0  0  0  0  0  0  0  0  0
   36.4000   27.5520   32.4850 C   0  0  0  0  0  0  0  0  0  0  0  0
   35.5660   28.5730   32.7290 N   0  0  0  0  0  0  0  0  0  0  0  0
   36.3140   29.0620   35.9980 H   0  0  0  0  0  0  0  0  0  0  0  0
   37.8320   27.1870   35.5050 H   0  0  0  0  0  0  0  0  0  0  0  0
   34.6320   30.2170   34.2420 N   0  0  0  0  0  0  0  0  0  0  0  0
   33.6100   30.2630   35.2360 C   0  0  0  0  0  0  0  0  0  0  0  0
   33.5460   31.7510   35.5840 C   0  0  2  0  0  0  0  0  0  0  0  0
   34.6490   32.4070   34.7890 C   0  0  0  0  0  0  0  0  0  0  0  0
   34.6080   31.4900   33.5680 C   0  0  0  0  0  0  0  0  0  0  0  0
   32.6580   29.9950   34.7460 H   0  0  0  0  0  0  0  0  0  0  0  0
   33.8300   29.6630   36.1470 H   0  0  0  0  0  0  0  0  0  0  0  0
   32.5900   32.2040   35.2060 H   0  0  0  0  0  0  0  0  0  0  0  0
   35.6190   32.2370   35.2780 H   0  0  0  0  0  0  0  0  0  0  0  0
   34.4480   33.4560   34.5440 H   0  0  0  0  0  0  0  0  0  0  0  0
   35.5430   31.6260   33.0000 H   0  0  0  0  0  0  0  0  0  0  0  0
   33.6930   31.6660   32.9700 H   0  0  0  0  0  0  0  0  0  0  0  0
   33.6440   32.0120   37.0570 C   0  0  0  0  0  0  0  0  0  0  0  0
   34.9790   31.8740   37.3840 F   0  0  0  0  0  0  0  0  0  0  0  0
   32.9600   31.0030   37.6920 F   0  0  0  0  0  0  0  0  0  0  0  0
   33.1520   33.2250   37.4320 F   0  0  0  0  0  0  0  0  0  0  0  0
   36.4390   26.8490   30.8480 S   0  0  0  0  0  0  0  0  0  0  0  0
   36.8920   25.1260   30.9080 C   0  0  0  0  0  0  0  0  0  0  0  0
   38.1300   24.6640   30.4730 C   0  0  0  0  0  0  0  0  0  0  0  0
   38.8400   25.3610   30.0880 H   0  0  0  0  0  0  0  0  0  0  0  0
   38.3990   23.3060   30.5560 C   0  0  0  0  0  0  0  0  0  0  0  0
   39.3870   23.0210   30.1960 H   0  0  0  0  0  0  0  0  0  0  0  0
   37.5160   22.3660   31.0450 C   0  0  0  0  0  0  0  0  0  0  0  0
   36.3100   22.8600   31.4620 C   0  0  0  0  0  0  0  0  0  0  0  0
   36.0200   24.1800   31.3940 C   0  0  0  0  0  0  0  0  0  0  0  0
   35.0380   24.5180   31.7430 H   0  0  0  0  0  0  0  0  0  0  0  0
   35.1200   21.7150   32.1050 S   0  0  0  0  0  0  0  0  0  0  0  0
   35.8700   20.1040   32.0290 C   0  0  0  0  0  0  0  0  0  0  0  0
   35.1430   19.0390   32.4720 C   0  0  0  0  0  0  0  0  0  0  0  0
   34.1310   19.1370   32.8680 H   0  0  0  0  0  0  0  0  0  0  0  0
   35.6600   17.7550   32.4450 C   0  0  0  0  0  0  0  0  0  0  0  0
   35.0830   16.9250   32.7940 H   0  0  0  0  0  0  0  0  0  0  0  0
   36.9370   17.5840   31.9520 C   0  0  0  0  0  0  0  0  0  0  0  0
   37.3650   16.6040   31.9170 H   0  0  0  0  0  0  0  0  0  0  0  0
   37.6140   18.7040   31.5210 C   0  0  0  0  0  0  0  0  0  0  0  0
   38.6250   18.4940   31.1420 H   0  0  0  0  0  0  0  0  0  0  0  0
   37.1410   19.9990   31.5300 C   0  0  0  0  0  0  0  0  0  0  0  0
   37.9540   21.0410   31.0540 N   0  0  0  0  0  0  0  0  0  0  0  0
   38.9020   20.7830   30.7070 H   0  0  0  0  0  0  0  0  0  0  0  0
  1  9  1  0  0  0  0
  1  2  1  0  0  0  0
  2  7  1  0  0  0  0
  3  2  2  0  0  0  0
  3  8  1  0  0  0  0
  4  3  1  0  0  0  0
  5  6  1  0  0  0  0
  5  4  2  0  0  0  0
  6  1  2  0  0  0  0
  9 10  1  0  0  0  0
 10 11  1  0  0  0  0
 10 15  1  0  0  0  0
 11 16  1  6  0  0  0
 11 21  1  0  0  0  0
 12 17  1  0  0  0  0
 12 11  1  0  0  0  0
 13  9  1  0  0  0  0
 13 12  1  0  0  0  0
 14 10  1  0  0  0  0
 18 12  1  0  0  0  0
 19 13  1  0  0  0  0
 20 13  1  0  0  0  0
 21 22  1  0  0  0  0
 21 24  1  0  0  0  0
 21 23  1  0  0  0  0
 25 26  1  0  0  0  0
 25  5  1  0  0  0  0
 26 33  1  0  0  0  0
 27 29  1  0  0  0  0
 27 26  2  0  0  0  0
 28 27  1  0  0  0  0
 29 31  2  0  0  0  0
 30 29  1  0  0  0  0
 31 46  1  0  0  0  0
 31 32  1  0  0  0  0
 32 35  1  0  0  0  0
 33 32  2  0  0  0  0
 33 34  1  0  0  0  0
 36 35  1  0  0  0  0
 36 37  1  0  0  0  0
 37 38  1  0  0  0  0
 39 37  2  0  0  0  0
 39 40  1  0  0  0  0
 41 39  1  0  0  0  0
 42 41  1  0  0  0  0
 43 45  1  0  0  0  0
 43 41  2  0  0  0  0
 44 43  1  0  0  0  0
 45 36  2  0  0  0  0
 46 45  1  0  0  0  0
 47 46  1  0  0  0  0
M  END
>  <minimizedAffinity>
-6.54712915

$$$$

 OpenBabel03272503313D

 47 51  0  0  1  0  0  0  0  0999 V2000
   36.0430   29.2240   32.0510 C   0  0  0  0  0  0  0  0  0  0  0  0
   36.2690   29.4740   30.6980 C   0  0  0  0  0  0  0  0  0  0  0  0
   36.8660   28.4700   29.9510 C   0  0  0  0  0  0  0  0  0  0  0  0
   37.1910   27.3030   30.5990 N   0  0  0  0  0  0  0  0  0  0  0  0
   36.9590   27.0950   31.9040 C   0  0  0  0  0  0  0  0  0  0  0  0
   36.3810   28.0620   32.6320 N   0  0  0  0  0  0  0  0  0  0  0  0
   36.0190   30.3810   30.1880 H   0  0  0  0  0  0  0  0  0  0  0  0
   37.0800   28.5780   28.8890 H   0  0  0  0  0  0  0  0  0  0  0  0
   35.4220   30.2780   32.8110 N   0  0  0  0  0  0  0  0  0  0  0  0
   35.0240   30.2350   34.1800 C   0  0  0  0  0  0  0  0  0  0  0  0
   35.1510   31.6960   34.6140 C   0  0  2  0  0  0  0  0  0  0  0  0
   35.7230   32.4290   33.4250 C   0  0  0  0  0  0  0  0  0  0  0  0
   35.0780   31.5900   32.3240 C   0  0  0  0  0  0  0  0  0  0  0  0
   33.9520   29.9720   34.2060 H   0  0  0  0  0  0  0  0  0  0  0  0
   35.6600   29.5850   34.8210 H   0  0  0  0  0  0  0  0  0  0  0  0
   34.1370   32.1450   34.7880 H   0  0  0  0  0  0  0  0  0  0  0  0
   36.8070   32.2550   33.3600 H   0  0  0  0  0  0  0  0  0  0  0  0
   35.4350   33.4860   33.3820 H   0  0  0  0  0  0  0  0  0  0  0  0
   35.6120   31.7850   31.3790 H   0  0  0  0  0  0  0  0  0  0  0  0
   33.9890   31.7770   32.2670 H   0  0  0  0  0  0  0  0  0  0  0  0
   35.9660   31.8660   35.8610 C   0  0  0  0  0  0  0  0  0  0  0  0
   36.6740   30.6910   36.0210 F   0  0  0  0  0  0  0  0  0  0  0  0
   35.0830   31.9590   36.9100 F   0  0  0  0  0  0  0  0  0  0  0  0
   36.7850   32.9540   35.8350 F   0  0  0  0  0  0  0  0  0  0  0  0
   37.3960   25.5650   32.7040 S   0  0  0  0  0  0  0  0  0  0  0  0
   39.0000   25.6860   33.4720 C   0  0  0  0  0  0  0  0  0  0  0  0
   39.5380   26.8990   33.8910 C   0  0  0  0  0  0  0  0  0  0  0  0
   38.9740   27.7940   33.7510 H   0  0  0  0  0  0  0  0  0  0  0  0
   40.7930   26.9020   34.4780 C   0  0  0  0  0  0  0  0  0  0  0  0
   41.1460   27.8870   34.7790 H   0  0  0  0  0  0  0  0  0  0  0  0
   41.5610   25.7740   34.6810 C   0  0  0  0  0  0  0  0  0  0  0  0
   40.9970   24.6010   34.2550 C   0  0  0  0  0  0  0  0  0  0  0  0
   39.7740   24.5680   33.6790 C   0  0  0  0  0  0  0  0  0  0  0  0
   39.3740   23.6000   33.3580 H   0  0  0  0  0  0  0  0  0  0  0  0
   41.9210   23.1060   34.4800 S   0  0  0  0  0  0  0  0  0  0  0  0
   43.4520   23.5640   35.2600 C   0  0  0  0  0  0  0  0  0  0  0  0
   44.3480   22.5760   35.5410 C   0  0  0  0  0  0  0  0  0  0  0  0
   44.1620   21.5260   35.3100 H   0  0  0  0  0  0  0  0  0  0  0  0
   45.5610   22.8560   36.1480 C   0  0  0  0  0  0  0  0  0  0  0  0
   46.2580   22.0730   36.3650 H   0  0  0  0  0  0  0  0  0  0  0  0
   45.8380   24.1700   36.4590 C   0  0  0  0  0  0  0  0  0  0  0  0
   46.7670   24.4200   36.9280 H   0  0  0  0  0  0  0  0  0  0  0  0
   44.8880   25.1190   36.1460 C   0  0  0  0  0  0  0  0  0  0  0  0
   45.1750   26.1440   36.4220 H   0  0  0  0  0  0  0  0  0  0  0  0
   43.6690   24.8870   35.5440 C   0  0  0  0  0  0  0  0  0  0  0  0
   42.8040   25.9630   35.2870 N   0  0  0  0  0  0  0  0  0  0  0  0
   43.1280   26.9110   35.5700 H   0  0  0  0  0  0  0  0  0  0  0  0
  1  6  1  0  0  0  0
  1  9  1  0  0  0  0
  2  1  2  0  0  0  0
  3  4  2  0  0  0  0
  3  2  1  0  0  0  0
  4  5  1  0  0  0  0
  5  6  2  0  0  0  0
  5 25  1  0  0  0  0
  7  2  1  0  0  0  0
  8  3  1  0  0  0  0
  9 10  1  0  0  0  0
 10 14  1  0  0  0  0
 10 11  1  0  0  0  0
 10 15  1  0  0  0  0
 11 16  1  1  0  0  0
 11 21  1  0  0  0  0
 12 11  1  0  0  0  0
 13  9  1  0  0  0  0
 13 12  1  0  0  0  0
 17 12  1  0  0  0  0
 18 12  1  0  0  0  0
 19 13  1  0  0  0  0
 20 13  1  0  0  0  0
 21 22  1  0  0  0  0
 21 23  1  0  0  0  0
 24 21  1  0  0  0  0
 25 26  1  0  0  0  0
 26 33  2  0  0  0  0
 26 27  1  0  0  0  0
 27 29  2  0  0  0  0
 28 27  1  0  0  0  0
 29 31  1  0  0  0  0
 29 30  1  0  0  0  0
 31 46  1  0  0  0  0
 32 35  1  0  0  0  0
 32 31  2  0  0  0  0
 33 32  1  0  0  0  0
 34 33  1  0  0  0  0
 35 36  1  0  0  0  0
 36 37  2  0  0  0  0
 36 45  1  0  0  0  0
 37 39  1  0  0  0  0
 38 37  1  0  0  0  0
 39 40  1  0  0  0  0
 39 41  2  0  0  0  0
 41 42  1  0  0  0  0
 43 44  1  0  0  0  0
 43 41  1  0  0  0  0
 45 43  2  0  0  0  0
 46 45  1  0  0  0  0
 46 47  1  0  0  0  0
M  END
>  <minimizedAffinity>
-6.52854633

$$$$

 OpenBabel03272503313D

 47 51  0  0  1  0  0  0  0  0999 V2000
   37.4250   24.9110   32.9870 C   0  0  0  0  0  0  0  0  0  0  0  0
   36.6720   24.0580   32.1810 C   0  0  0  0  0  0  0  0  0  0  0  0
   35.8480   24.6360   31.2280 C   0  0  0  0  0  0  0  0  0  0  0  0
   35.8360   26.0080   31.1460 N   0  0  0  0  0  0  0  0  0  0  0  0
   36.5740   26.8000   31.9370 C   0  0  0  0  0  0  0  0  0  0  0  0
   37.3730   26.2470   32.8620 N   0  0  0  0  0  0  0  0  0  0  0  0
   36.6770   22.9890   32.2410 H   0  0  0  0  0  0  0  0  0  0  0  0
   35.2260   24.0480   30.5560 H   0  0  0  0  0  0  0  0  0  0  0  0
   38.2740   24.2930   33.9710 N   0  0  0  0  0  0  0  0  0  0  0  0
   38.8020   24.8920   35.1530 C   0  0  0  0  0  0  0  0  0  0  0  0
   38.9430   23.7010   36.1010 C   0  0  2  0  0  0  0  0  0  0  0  0
   38.3660   22.5170   35.3630 C   0  0  0  0  0  0  0  0  0  0  0  0
   38.7580   22.9360   33.9470 C   0  0  0  0  0  0  0  0  0  0  0  0
   39.8200   25.2510   34.9170 H   0  0  0  0  0  0  0  0  0  0  0  0
   38.1470   25.6690   35.6050 H   0  0  0  0  0  0  0  0  0  0  0  0
   40.0260   23.4540   36.2680 H   0  0  0  0  0  0  0  0  0  0  0  0
   37.2680   22.5440   35.4070 H   0  0  0  0  0  0  0  0  0  0  0  0
   38.8040   21.5580   35.6630 H   0  0  0  0  0  0  0  0  0  0  0  0
   38.1630   22.3440   33.2320 H   0  0  0  0  0  0  0  0  0  0  0  0
   39.8510   22.8510   33.7950 H   0  0  0  0  0  0  0  0  0  0  0  0
   38.3000   23.9360   37.4350 C   0  0  0  0  0  0  0  0  0  0  0  0
   39.1100   23.3140   38.3670 F   0  0  0  0  0  0  0  0  0  0  0  0
   37.0990   23.2700   37.4270 F   0  0  0  0  0  0  0  0  0  0  0  0
   38.1100   25.2530   37.7260 F   0  0  0  0  0  0  0  0  0  0  0  0
   36.5270   28.5760   31.7970 S   0  0  0  0  0  0  0  0  0  0  0  0
   35.3610   29.2730   32.9520 C   0  0  0  0  0  0  0  0  0  0  0  0
   35.7620   29.9710   34.0880 C   0  0  0  0  0  0  0  0  0  0  0  0
   36.8030   30.0980   34.2810 H   0  0  0  0  0  0  0  0  0  0  0  0
   34.7870   30.4790   34.9320 C   0  0  0  0  0  0  0  0  0  0  0  0
   35.1770   31.0110   35.7990 H   0  0  0  0  0  0  0  0  0  0  0  0
   33.4300   30.3420   34.7280 C   0  0  0  0  0  0  0  0  0  0  0  0
   33.0770   29.6490   33.6010 C   0  0  0  0  0  0  0  0  0  0  0  0
   34.0060   29.1430   32.7580 C   0  0  0  0  0  0  0  0  0  0  0  0
   33.6650   28.5970   31.8710 H   0  0  0  0  0  0  0  0  0  0  0  0
   31.3510   29.4310   33.2660 S   0  0  0  0  0  0  0  0  0  0  0  0
   30.4700   30.2310   34.5870 C   0  0  0  0  0  0  0  0  0  0  0  0
   29.1070   30.2010   34.5580 C   0  0  0  0  0  0  0  0  0  0  0  0
   28.5430   29.7100   33.7620 H   0  0  0  0  0  0  0  0  0  0  0  0
   28.3530   30.8030   35.5500 C   0  0  0  0  0  0  0  0  0  0  0  0
   27.2830   30.7740   35.5190 H   0  0  0  0  0  0  0  0  0  0  0  0
   29.0230   31.4350   36.5760 C   0  0  0  0  0  0  0  0  0  0  0  0
   28.4690   31.9090   37.3590 H   0  0  0  0  0  0  0  0  0  0  0  0
   30.4020   31.4270   36.5430 C   0  0  0  0  0  0  0  0  0  0  0  0
   30.8700   31.9490   37.3900 H   0  0  0  0  0  0  0  0  0  0  0  0
   31.1930   30.8430   35.5770 C   0  0  0  0  0  0  0  0  0  0  0  0
   32.5910   30.9180   35.6830 N   0  0  0  0  0  0  0  0  0  0  0  0
   32.9780   31.4250   36.5060 H   0  0  0  0  0  0  0  0  0  0  0  0
  1  9  1  0  0  0  0
  2  7  1  0  0  0  0
  2  1  2  0  0  0  0
  3  2  1  0  0  0  0
  4  3  2  0  0  0  0
  4  5  1  0  0  0  0
  5  6  2  0  0  0  0
  6  1  1  0  0  0  0
  8  3  1  0  0  0  0
  9 10  1  0  0  0  0
 10 15  1  0  0  0  0
 10 11  1  0  0  0  0
 11 16  1  1  0  0  0
 11 21  1  0  0  0  0
 12 17  1  0  0  0  0
 12 18  1  0  0  0  0
 12 11  1  0  0  0  0
 13  9  1  0  0  0  0
 13 12  1  0  0  0  0
 14 10  1  0  0  0  0
 19 13  1  0  0  0  0
 20 13  1  0  0  0  0
 21 24  1  0  0  0  0
 21 22  1  0  0  0  0
 23 21  1  0  0  0  0
 25  5  1  0  0  0  0
 25 26  1  0  0  0  0
 26 27  1  0  0  0  0
 27 28  1  0  0  0  0
 27 29  2  0  0  0  0
 29 30  1  0  0  0  0
 31 29  1  0  0  0  0
 31 46  1  0  0  0  0
 32 31  2  0  0  0  0
 33 26  2  0  0  0  0
 33 32  1  0  0  0  0
 34 33  1  0  0  0  0
 35 32  1  0  0  0  0
 35 36  1  0  0  0  0
 36 45  1  0  0  0  0
 37 36  2  0  0  0  0
 37 39  1  0  0  0  0
 38 37  1  0  0  0  0
 39 41  2  0  0  0  0
 40 39  1  0  0  0  0
 41 42  1  0  0  0  0
 43 41  1  0  0  0  0
 43 44  1  0  0  0  0
 45 46  1  0  0  0  0
 45 43  2  0  0  0  0
 46 47  1  0  0  0  0
M  END
>  <minimizedAffinity>
-6.48253584

$$$$

 OpenBabel03272503313D

 47 51  0  0  1  0  0  0  0  0999 V2000
   37.2830   25.4570   32.7620 C   0  0  0  0  0  0  0  0  0  0  0  0
   36.5110   24.5050   32.0990 C   0  0  0  0  0  0  0  0  0  0  0  0
   35.5960   24.9590   31.1620 C   0  0  0  0  0  0  0  0  0  0  0  0
   35.5180   26.3160   30.9550 N   0  0  0  0  0  0  0  0  0  0  0  0
   36.2780   27.2060   31.6100 C   0  0  0  0  0  0  0  0  0  0  0  0
   37.1650   26.7720   32.5170 N   0  0  0  0  0  0  0  0  0  0  0  0
   36.5660   23.4470   32.2570 H   0  0  0  0  0  0  0  0  0  0  0  0
   34.9520   24.2880   30.5980 H   0  0  0  0  0  0  0  0  0  0  0  0
   38.2280   24.9670   33.7310 N   0  0  0  0  0  0  0  0  0  0  0  0
   38.5920   25.5790   34.9670 C   0  0  0  0  0  0  0  0  0  0  0  0
   38.9710   24.3800   35.8380 C   0  0  2  0  0  0  0  0  0  0  0  0
   38.6780   23.1570   35.0030 C   0  0  0  0  0  0  0  0  0  0  0  0
   38.9960   23.7510   33.6320 C   0  0  0  0  0  0  0  0  0  0  0  0
   39.5120   26.1640   34.7900 H   0  0  0  0  0  0  0  0  0  0  0  0
   37.7760   26.1620   35.4470 H   0  0  0  0  0  0  0  0  0  0  0  0
   40.0780   24.3610   36.0240 H   0  0  0  0  0  0  0  0  0  0  0  0
   37.5990   22.9440   35.0120 H   0  0  0  0  0  0  0  0  0  0  0  0
   39.3080   22.2950   35.2530 H   0  0  0  0  0  0  0  0  0  0  0  0
   38.5570   23.0980   32.8600 H   0  0  0  0  0  0  0  0  0  0  0  0
   40.0840   23.9140   33.5120 H   0  0  0  0  0  0  0  0  0  0  0  0
   38.2680   24.3740   37.1620 C   0  0  0  0  0  0  0  0  0  0  0  0
   37.0080   23.8580   36.9260 F   0  0  0  0  0  0  0  0  0  0  0  0
   38.1080   25.6850   37.5400 F   0  0  0  0  0  0  0  0  0  0  0  0
   38.9290   23.6800   38.1300 F   0  0  0  0  0  0  0  0  0  0  0  0
   36.1450   28.9570   31.3100 S   0  0  0  0  0  0  0  0  0  0  0  0
   35.5290   29.8030   32.7520 C   0  0  0  0  0  0  0  0  0  0  0  0
   34.6670   29.1970   33.6620 C   0  0  0  0  0  0  0  0  0  0  0  0
   34.3600   28.1890   33.4960 H   0  0  0  0  0  0  0  0  0  0  0  0
   34.2360   29.9290   34.7570 C   0  0  0  0  0  0  0  0  0  0  0  0
   33.5640   29.3890   35.4220 H   0  0  0  0  0  0  0  0  0  0  0  0
   34.6030   31.2340   35.0160 C   0  0  0  0  0  0  0  0  0  0  0  0
   35.4500   31.7930   34.0980 C   0  0  0  0  0  0  0  0  0  0  0  0
   35.8880   31.1030   33.0210 C   0  0  0  0  0  0  0  0  0  0  0  0
   36.5650   31.6030   32.3200 H   0  0  0  0  0  0  0  0  0  0  0  0
   35.9700   33.4670   34.3600 S   0  0  0  0  0  0  0  0  0  0  0  0
   35.1890   34.0150   35.8610 C   0  0  0  0  0  0  0  0  0  0  0  0
   35.4350   35.2880   36.2830 C   0  0  0  0  0  0  0  0  0  0  0  0
   36.0850   35.9760   35.7390 H   0  0  0  0  0  0  0  0  0  0  0  0
   34.8640   35.7850   37.4420 C   0  0  0  0  0  0  0  0  0  0  0  0
   35.0620   36.7860   37.7640 H   0  0  0  0  0  0  0  0  0  0  0  0
   34.0340   34.9500   38.1610 C   0  0  0  0  0  0  0  0  0  0  0  0
   33.5770   35.3040   39.0610 H   0  0  0  0  0  0  0  0  0  0  0  0
   33.8300   33.6750   37.6770 C   0  0  0  0  0  0  0  0  0  0  0  0
   33.1590   33.0660   38.3000 H   0  0  0  0  0  0  0  0  0  0  0  0
   34.3760   33.1380   36.5310 C   0  0  0  0  0  0  0  0  0  0  0  0
   34.0710   31.8170   36.1670 N   0  0  0  0  0  0  0  0  0  0  0  0
   33.4310   31.2870   36.7940 H   0  0  0  0  0  0  0  0  0  0  0  0
  1  9  1  0  0  0  0
  2  7  1  0  0  0  0
  2  1  2  0  0  0  0
  3  2  1  0  0  0  0
  4  3  2  0  0  0  0
  4  5  1  0  0  0  0
  5  6  2  0  0  0  0
  6  1  1  0  0  0  0
  8  3  1  0  0  0  0
  9 10  1  0  0  0  0
 10 15  1  0  0  0  0
 10 11  1  0  0  0  0
 11 16  1  1  0  0  0
 11 21  1  0  0  0  0
 12 17  1  0  0  0  0
 12 18  1  0  0  0  0
 12 11  1  0  0  0  0
 13  9  1  0  0  0  0
 13 12  1  0  0  0  0
 14 10  1  0  0  0  0
 19 13  1  0  0  0  0
 20 13  1  0  0  0  0
 21 23  1  0  0  0  0
 21 24  1  0  0  0  0
 22 21  1  0  0  0  0
 25  5  1  0  0  0  0
 25 26  1  0  0  0  0
 26 33  2  0  0  0  0
 26 27  1  0  0  0  0
 27 29  2  0  0  0  0
 28 27  1  0  0  0  0
 29 31  1  0  0  0  0
 29 30  1  0  0  0  0
 31 46  1  0  0  0  0
 32 35  1  0  0  0  0
 32 31  2  0  0  0  0
 33 32  1  0  0  0  0
 34 33  1  0  0  0  0
 35 36  1  0  0  0  0
 36 37  2  0  0  0  0
 36 45  1  0  0  0  0
 37 39  1  0  0  0  0
 38 37  1  0  0  0  0
 39 40  1  0  0  0  0
 39 41  2  0  0  0  0
 41 42  1  0  0  0  0
 43 41  1  0  0  0  0
 43 44  1  0  0  0  0
 45 43  2  0  0  0  0
 46 45  1  0  0  0  0
 46 47  1  0  0  0  0
M  END
>  <minimizedAffinity>
-6.47892952

$$$$

 OpenBabel03272503313D

 47 51  0  0  1  0  0  0  0  0999 V2000
   37.7350   22.8220   34.0610 C   0  0  0  0  0  0  0  0  0  0  0  0
   37.7520   22.0960   35.2500 C   0  0  0  0  0  0  0  0  0  0  0  0
   38.1950   22.7450   36.3930 C   0  0  0  0  0  0  0  0  0  0  0  0
   38.5850   24.0570   36.2680 N   0  0  0  0  0  0  0  0  0  0  0  0
   38.5550   24.7270   35.1070 C   0  0  0  0  0  0  0  0  0  0  0  0
   38.1270   24.1060   33.9990 N   0  0  0  0  0  0  0  0  0  0  0  0
   37.4510   21.0740   35.3540 H   0  0  0  0  0  0  0  0  0  0  0  0
   38.2420   22.2560   37.3640 H   0  0  0  0  0  0  0  0  0  0  0  0
   37.2710   22.1330   32.8850 N   0  0  0  0  0  0  0  0  0  0  0  0
   37.3540   20.7340   32.6170 C   0  0  0  0  0  0  0  0  0  0  0  0
   36.1430   20.4930   31.7140 C   0  0  2  0  0  0  0  0  0  0  0  0
   35.4150   21.8130   31.6390 C   0  0  0  0  0  0  0  0  0  0  0  0
   36.6300   22.7340   31.7430 C   0  0  0  0  0  0  0  0  0  0  0  0
   38.2600   20.5660   32.0090 H   0  0  0  0  0  0  0  0  0  0  0  0
   37.2950   20.0900   33.5220 H   0  0  0  0  0  0  0  0  0  0  0  0
   36.4720   20.2690   30.6630 H   0  0  0  0  0  0  0  0  0  0  0  0
   34.8230   21.9690   32.5520 H   0  0  0  0  0  0  0  0  0  0  0  0
   34.8520   21.9510   30.7100 H   0  0  0  0  0  0  0  0  0  0  0  0
   36.2790   23.7450   32.0060 H   0  0  0  0  0  0  0  0  0  0  0  0
   37.2360   22.6990   30.8170 H   0  0  0  0  0  0  0  0  0  0  0  0
   35.2760   19.3660   32.1880 C   0  0  0  0  0  0  0  0  0  0  0  0
   35.6270   18.2650   31.4310 F   0  0  0  0  0  0  0  0  0  0  0  0
   33.9810   19.6890   31.8640 F   0  0  0  0  0  0  0  0  0  0  0  0
   35.3820   19.1190   33.5240 F   0  0  0  0  0  0  0  0  0  0  0  0
   39.0690   26.4290   34.9900 S   0  0  0  0  0  0  0  0  0  0  0  0
   37.9280   27.3700   33.9950 C   0  0  0  0  0  0  0  0  0  0  0  0
   38.0630   27.4880   32.6150 C   0  0  0  0  0  0  0  0  0  0  0  0
   38.8760   27.0010   32.1280 H   0  0  0  0  0  0  0  0  0  0  0  0
   37.1290   28.2400   31.9180 C   0  0  0  0  0  0  0  0  0  0  0  0
   37.3010   28.2860   30.8440 H   0  0  0  0  0  0  0  0  0  0  0  0
   36.0600   28.8890   32.5010 C   0  0  0  0  0  0  0  0  0  0  0  0
   35.9630   28.7480   33.8590 C   0  0  0  0  0  0  0  0  0  0  0  0
   36.8590   28.0210   34.5640 C   0  0  0  0  0  0  0  0  0  0  0  0
   36.7290   27.9440   35.6500 H   0  0  0  0  0  0  0  0  0  0  0  0
   34.6160   29.5520   34.6830 S   0  0  0  0  0  0  0  0  0  0  0  0
   33.6780   30.3930   33.4270 C   0  0  0  0  0  0  0  0  0  0  0  0
   32.5750   31.0950   33.8140 C   0  0  0  0  0  0  0  0  0  0  0  0
   32.2500   31.1600   34.8540 H   0  0  0  0  0  0  0  0  0  0  0  0
   31.7960   31.7740   32.8930 C   0  0  0  0  0  0  0  0  0  0  0  0
   30.9320   32.3230   33.2060 H   0  0  0  0  0  0  0  0  0  0  0  0
   32.1690   31.7200   31.5670 C   0  0  0  0  0  0  0  0  0  0  0  0
   31.5880   32.2350   30.8310 H   0  0  0  0  0  0  0  0  0  0  0  0
   33.2950   30.9920   31.2460 C   0  0  0  0  0  0  0  0  0  0  0  0
   33.5330   30.9920   30.1730 H   0  0  0  0  0  0  0  0  0  0  0  0
   34.1000   30.3000   32.1260 C   0  0  0  0  0  0  0  0  0  0  0  0
   35.2190   29.6020   31.6460 N   0  0  0  0  0  0  0  0  0  0  0  0
   35.3960   29.6370   30.6200 H   0  0  0  0  0  0  0  0  0  0  0  0
  1  2  1  0  0  0  0
  2  7  1  0  0  0  0
  2  3  2  0  0  0  0
  3  8  1  0  0  0  0
  4  3  1  0  0  0  0
  5  4  2  0  0  0  0
  6  1  2  0  0  0  0
  6  5  1  0  0  0  0
  9  1  1  0  0  0  0
 10  9  1  0  0  0  0
 10 15  1  0  0  0  0
 11 16  1  6  0  0  0
 11 21  1  0  0  0  0
 11 10  1  0  0  0  0
 12 11  1  0  0  0  0
 12 13  1  0  0  0  0
 12 17  1  0  0  0  0
 13 19  1  0  0  0  0
 13  9  1  0  0  0  0
 14 10  1  0  0  0  0
 18 12  1  0  0  0  0
 20 13  1  0  0  0  0
 21 24  1  0  0  0  0
 22 21  1  0  0  0  0
 23 21  1  0  0  0  0
 25  5  1  0  0  0  0
 26 33  1  0  0  0  0
 26 25  1  0  0  0  0
 27 26  2  0  0  0  0
 28 27  1  0  0  0  0
 29 31  2  0  0  0  0
 29 27  1  0  0  0  0
 30 29  1  0  0  0  0
 31 32  1  0  0  0  0
 32 33  2  0  0  0  0
 32 35  1  0  0  0  0
 33 34  1  0  0  0  0
 36 37  1  0  0  0  0
 36 35  1  0  0  0  0
 37 38  1  0  0  0  0
 39 40  1  0  0  0  0
 39 37  2  0  0  0  0
 41 39  1  0  0  0  0
 42 41  1  0  0  0  0
 43 41  2  0  0  0  0
 43 45  1  0  0  0  0
 44 43  1  0  0  0  0
 45 36  2  0  0  0  0
 46 45  1  0  0  0  0
 46 31  1  0  0  0  0
 47 46  1  0  0  0  0
M  END
>  <minimizedAffinity>
-6.43788004

$$$$

 OpenBabel03272503313D

 47 51  0  0  1  0  0  0  0  0999 V2000
   36.9460   23.0550   31.2480 C   0  0  0  0  0  0  0  0  0  0  0  0
   35.6230   23.4910   31.2880 C   0  0  0  0  0  0  0  0  0  0  0  0
   35.3890   24.8500   31.1420 C   0  0  0  0  0  0  0  0  0  0  0  0
   36.4800   25.6670   30.9660 N   0  0  0  0  0  0  0  0  0  0  0  0
   37.7420   25.2140   30.9310 C   0  0  0  0  0  0  0  0  0  0  0  0
   37.9740   23.9020   31.0720 N   0  0  0  0  0  0  0  0  0  0  0  0
   34.7690   22.8590   31.4260 H   0  0  0  0  0  0  0  0  0  0  0  0
   34.3890   25.2780   31.1600 H   0  0  0  0  0  0  0  0  0  0  0  0
   37.1700   21.6420   31.4010 N   0  0  0  0  0  0  0  0  0  0  0  0
   37.0220   20.8690   32.5910 C   0  0  0  0  0  0  0  0  0  0  0  0
   36.6530   19.4870   32.0520 C   0  0  2  0  0  0  0  0  0  0  0  0
   36.5300   19.6480   30.5560 C   0  0  0  0  0  0  0  0  0  0  0  0
   37.5930   20.7290   30.3690 C   0  0  0  0  0  0  0  0  0  0  0  0
   38.0180   20.7880   33.0610 H   0  0  0  0  0  0  0  0  0  0  0  0
   36.2310   21.2380   33.2810 H   0  0  0  0  0  0  0  0  0  0  0  0
   37.4970   18.7630   32.2100 H   0  0  0  0  0  0  0  0  0  0  0  0
   35.5640   20.1090   30.3050 H   0  0  0  0  0  0  0  0  0  0  0  0
   36.7490   18.7310   29.9970 H   0  0  0  0  0  0  0  0  0  0  0  0
   37.4450   21.1950   29.3810 H   0  0  0  0  0  0  0  0  0  0  0  0
   38.6090   20.3180   30.5210 H   0  0  0  0  0  0  0  0  0  0  0  0
   35.4190   18.9210   32.6880 C   0  0  0  0  0  0  0  0  0  0  0  0
   35.3510   19.4740   33.9530 F   0  0  0  0  0  0  0  0  0  0  0  0
   35.6260   17.5720   32.8420 F   0  0  0  0  0  0  0  0  0  0  0  0
   34.2820   19.1470   31.9730 F   0  0  0  0  0  0  0  0  0  0  0  0
   39.1270   26.3110   30.7010 S   0  0  0  0  0  0  0  0  0  0  0  0
   40.2390   26.2290   32.0920 C   0  0  0  0  0  0  0  0  0  0  0  0
   40.1820   27.1330   33.1480 C   0  0  0  0  0  0  0  0  0  0  0  0
   39.4480   27.9070   33.1310 H   0  0  0  0  0  0  0  0  0  0  0  0
   41.0860   26.9960   34.1900 C   0  0  0  0  0  0  0  0  0  0  0  0
   40.9790   27.7400   34.9770 H   0  0  0  0  0  0  0  0  0  0  0  0
   42.0530   26.0140   34.2580 C   0  0  0  0  0  0  0  0  0  0  0  0
   42.0760   25.1450   33.2000 C   0  0  0  0  0  0  0  0  0  0  0  0
   41.2070   25.2550   32.1710 C   0  0  0  0  0  0  0  0  0  0  0  0
   41.2730   24.5290   31.3520 H   0  0  0  0  0  0  0  0  0  0  0  0
   43.2890   23.8540   33.2140 S   0  0  0  0  0  0  0  0  0  0  0  0
   44.2250   24.0480   34.7140 C   0  0  0  0  0  0  0  0  0  0  0  0
   45.2330   23.1630   34.9590 C   0  0  0  0  0  0  0  0  0  0  0  0
   45.4840   22.3490   34.2770 H   0  0  0  0  0  0  0  0  0  0  0  0
   46.0040   23.2500   36.1050 C   0  0  0  0  0  0  0  0  0  0  0  0
   46.7930   22.5510   36.2890 H   0  0  0  0  0  0  0  0  0  0  0  0
   45.7230   24.2650   36.9960 C   0  0  0  0  0  0  0  0  0  0  0  0
   46.3010   24.3590   37.8910 H   0  0  0  0  0  0  0  0  0  0  0  0
   44.6900   25.1240   36.6850 C   0  0  0  0  0  0  0  0  0  0  0  0
   44.5210   25.9060   37.4390 H   0  0  0  0  0  0  0  0  0  0  0  0
   43.8970   25.0750   35.5590 C   0  0  0  0  0  0  0  0  0  0  0  0
   42.8790   26.0260   35.3820 N   0  0  0  0  0  0  0  0  0  0  0  0
   42.7650   26.7440   36.1280 H   0  0  0  0  0  0  0  0  0  0  0  0
  1  2  1  0  0  0  0
  1  9  1  0  0  0  0
  2  7  1  0  0  0  0
  3  8  1  0  0  0  0
  3  2  2  0  0  0  0
  4  3  1  0  0  0  0
  5  4  2  0  0  0  0
  5  6  1  0  0  0  0
  6  1  2  0  0  0  0
  9 10  1  0  0  0  0
 10 14  1  0  0  0  0
 10 15  1  0  0  0  0
 11 16  1  1  0  0  0
 11 10  1  0  0  0  0
 11 21  1  0  0  0  0
 12 11  1  0  0  0  0
 13 20  1  0  0  0  0
 13 12  1  0  0  0  0
 13  9  1  0  0  0  0
 17 12  1  0  0  0  0
 18 12  1  0  0  0  0
 19 13  1  0  0  0  0
 21 23  1  0  0  0  0
 21 22  1  0  0  0  0
 24 21  1  0  0  0  0
 25  5  1  0  0  0  0
 25 26  1  0  0  0  0
 26 33  2  0  0  0  0
 26 27  1  0  0  0  0
 27 29  2  0  0  0  0
 28 27  1  0  0  0  0
 29 31  1  0  0  0  0
 29 30  1  0  0  0  0
 31 46  1  0  0  0  0
 32 35  1  0  0  0  0
 32 31  2  0  0  0  0
 33 32  1  0  0  0  0
 34 33  1  0  0  0  0
 35 36  1  0  0  0  0
 36 37  2  0  0  0  0
 36 45  1  0  0  0  0
 37 39  1  0  0  0  0
 38 37  1  0  0  0  0
 39 40  1  0  0  0  0
 39 41  2  0  0  0  0
 41 42  1  0  0  0  0
 43 41  1  0  0  0  0
 43 44  1  0  0  0  0
 45 43  2  0  0  0  0
 46 45  1  0  0  0  0
 46 47  1  0  0  0  0
M  END
>  <minimizedAffinity>
-6.40181446

$$$$
