
 OpenBabel03272501583D

 44 48  0  0  0  0  0  0  0  0999 V2000
   32.9080   28.2710   47.8150 C   0  0  0  0  0  0  0  0  0  0  0  0
   32.1600   27.4050   48.5700 C   0  0  0  0  0  0  0  0  0  0  0  0
   30.8270   27.4790   48.1870 C   0  0  0  0  0  0  0  0  0  0  0  0
   30.8090   28.4020   47.1980 N   0  0  0  0  0  0  0  0  0  0  0  0
   32.0300   28.8650   46.9810 N   0  0  0  0  0  0  0  0  0  0  0  0
   32.5020   26.7360   49.3620 H   0  0  0  0  0  0  0  0  0  0  0  0
   29.9600   26.9320   48.5720 H   0  0  0  0  0  0  0  0  0  0  0  0
   29.6950   28.8670   46.4470 C   0  0  0  0  0  0  0  0  0  0  0  0
   28.5940   29.3940   47.0740 C   0  0  0  0  0  0  0  0  0  0  0  0
   28.5880   29.4510   48.1510 H   0  0  0  0  0  0  0  0  0  0  0  0
   27.5280   29.8360   46.3200 C   0  0  0  0  0  0  0  0  0  0  0  0
   26.6940   30.2420   46.9080 H   0  0  0  0  0  0  0  0  0  0  0  0
   27.4780   29.7910   44.9450 C   0  0  0  0  0  0  0  0  0  0  0  0
   28.5880   29.2600   44.3390 C   0  0  0  0  0  0  0  0  0  0  0  0
   29.6510   28.8170   45.0730 C   0  0  0  0  0  0  0  0  0  0  0  0
   30.5220   28.4000   44.5650 H   0  0  0  0  0  0  0  0  0  0  0  0
   28.6030   29.1650   42.5610 S   0  0  0  0  0  0  0  0  0  0  0  0
   27.0510   29.8360   42.0020 C   0  0  0  0  0  0  0  0  0  0  0  0
   26.8090   29.8770   40.6550 C   0  0  0  0  0  0  0  0  0  0  0  0
   27.5420   29.5110   39.9420 H   0  0  0  0  0  0  0  0  0  0  0  0
   25.6360   30.3810   40.1590 C   0  0  0  0  0  0  0  0  0  0  0  0
   25.3990   30.4340   39.1070 H   0  0  0  0  0  0  0  0  0  0  0  0
   24.7000   30.8470   41.0550 C   0  0  0  0  0  0  0  0  0  0  0  0
   23.7830   31.2420   40.6890 H   0  0  0  0  0  0  0  0  0  0  0  0
   24.9960   30.7810   42.3980 C   0  0  0  0  0  0  0  0  0  0  0  0
   24.2040   31.1710   43.0500 H   0  0  0  0  0  0  0  0  0  0  0  0
   26.1600   30.2830   42.9430 C   0  0  0  0  0  0  0  0  0  0  0  0
   26.3080   30.2870   44.3430 N   0  0  0  0  0  0  0  0  0  0  0  0
   25.5290   30.6660   44.9170 H   0  0  0  0  0  0  0  0  0  0  0  0
   34.3950   28.4940   47.9170 C   0  0  0  0  0  0  0  0  0  0  0  0
   34.8480   27.7500   47.2160 H   0  0  0  0  0  0  0  0  0  0  0  0
   34.6240   29.5310   47.5750 H   0  0  0  0  0  0  0  0  0  0  0  0
   34.7450   28.2550   49.3550 C   0  0  0  0  0  0  0  0  0  0  0  0
   33.9080   28.3100   50.0600 H   0  0  0  0  0  0  0  0  0  0  0  0
   35.1400   27.2010   49.4050 H   0  0  0  0  0  0  0  0  0  0  0  0
   37.2010   30.1670   51.3560 C   0  0  0  0  0  0  0  0  0  0  0  0
   38.0320   30.7290   50.3790 C   0  0  0  0  0  0  0  0  0  0  0  0
   37.7350   30.4390   49.0270 C   0  0  0  0  0  0  0  0  0  0  0  0
   36.6710   29.6430   48.7520 N   0  0  0  0  0  0  0  0  0  0  0  0
   35.9030   29.1270   49.7410 C   0  0  0  0  0  0  0  0  0  0  0  0
   36.1710   29.3910   51.0210 N   0  0  0  0  0  0  0  0  0  0  0  0
   37.4580   30.4090   52.3850 H   0  0  0  0  0  0  0  0  0  0  0  0
   38.8880   31.3680   50.5530 H   0  0  0  0  0  0  0  0  0  0  0  0
   38.2800   30.7980   48.1760 H   0  0  0  0  0  0  0  0  0  0  0  0
  1 30  1  0  0  0  0
  1  2  1  0  0  0  0
  2  6  1  0  0  0  0
  3  2  2  0  0  0  0
  3  7  1  0  0  0  0
  4  3  1  0  0  0  0
  5  4  1  0  0  0  0
  5  1  2  0  0  0  0
  8  9  1  0  0  0  0
  8  4  1  0  0  0  0
  9 10  1  0  0  0  0
 11 12  1  0  0  0  0
 11  9  2  0  0  0  0
 13 11  1  0  0  0  0
 14 13  2  0  0  0  0
 14 15  1  0  0  0  0
 15  8  2  0  0  0  0
 16 15  1  0  0  0  0
 17 14  1  0  0  0  0
 18 17  1  0  0  0  0
 18 27  1  0  0  0  0
 19 18  2  0  0  0  0
 20 19  1  0  0  0  0
 21 19  1  0  0  0  0
 21 23  2  0  0  0  0
 22 21  1  0  0  0  0
 23 25  1  0  0  0  0
 24 23  1  0  0  0  0
 25 27  2  0  0  0  0
 25 26  1  0  0  0  0
 27 28  1  0  0  0  0
 28 29  1  0  0  0  0
 28 13  1  0  0  0  0
 30 33  1  0  0  0  0
 31 30  1  0  0  0  0
 32 30  1  0  0  0  0
 33 35  1  0  0  0  0
 33 40  1  0  0  0  0
 33 34  1  0  0  0  0
 36 42  1  0  0  0  0
 37 43  1  0  0  0  0
 37 36  2  0  0  0  0
 38 37  1  0  0  0  0
 39 38  2  0  0  0  0
 39 40  1  0  0  0  0
 40 41  2  0  0  0  0
 41 36  1  0  0  0  0
 44 38  1  0  0  0  0
M  END
>  <minimizedAffinity>
-5.73372126

>  <minimizedRMSD>
0.69275701

$$$$
