
 OpenBabel03272501583D

 44 48  0  0  0  0  0  0  0  0999 V2000
   32.9640   28.1570   47.7770 C   0  0  0  0  0  0  0  0  0  0  0  0
   31.8740   27.4740   48.2520 C   0  0  0  0  0  0  0  0  0  0  0  0
   30.7240   27.9220   47.6160 C   0  0  0  0  0  0  0  0  0  0  0  0
   31.1600   28.8770   46.7620 N   0  0  0  0  0  0  0  0  0  0  0  0
   32.4720   29.0130   46.8580 N   0  0  0  0  0  0  0  0  0  0  0  0
   31.8520   26.6900   49.0120 H   0  0  0  0  0  0  0  0  0  0  0  0
   29.6860   27.6000   47.7460 H   0  0  0  0  0  0  0  0  0  0  0  0
   30.3950   29.6670   45.8600 C   0  0  0  0  0  0  0  0  0  0  0  0
   30.9240   30.7990   45.2920 C   0  0  0  0  0  0  0  0  0  0  0  0
   31.9340   31.0820   45.5430 H   0  0  0  0  0  0  0  0  0  0  0  0
   30.1590   31.5440   44.4210 C   0  0  0  0  0  0  0  0  0  0  0  0
   30.6640   32.4310   44.0180 H   0  0  0  0  0  0  0  0  0  0  0  0
   28.8660   31.2340   44.0640 C   0  0  0  0  0  0  0  0  0  0  0  0
   28.3570   30.0990   44.6430 C   0  0  0  0  0  0  0  0  0  0  0  0
   29.1030   29.3500   45.5070 C   0  0  0  0  0  0  0  0  0  0  0  0
   28.6740   28.4540   45.9530 H   0  0  0  0  0  0  0  0  0  0  0  0
   26.6900   29.6290   44.2320 S   0  0  0  0  0  0  0  0  0  0  0  0
   26.0800   30.8530   43.0910 C   0  0  0  0  0  0  0  0  0  0  0  0
   24.8040   30.7190   42.6160 C   0  0  0  0  0  0  0  0  0  0  0  0
   24.1740   29.8900   42.9240 H   0  0  0  0  0  0  0  0  0  0  0  0
   24.2730   31.6260   41.7360 C   0  0  0  0  0  0  0  0  0  0  0  0
   23.2750   31.5640   41.3340 H   0  0  0  0  0  0  0  0  0  0  0  0
   25.0640   32.6820   41.3390 C   0  0  0  0  0  0  0  0  0  0  0  0
   24.6710   33.3970   40.6570 H   0  0  0  0  0  0  0  0  0  0  0  0
   26.3410   32.7670   41.8490 C   0  0  0  0  0  0  0  0  0  0  0  0
   26.9100   33.6330   41.4890 H   0  0  0  0  0  0  0  0  0  0  0  0
   26.9160   31.8800   42.7340 C   0  0  0  0  0  0  0  0  0  0  0  0
   28.2370   32.1110   43.1610 N   0  0  0  0  0  0  0  0  0  0  0  0
   28.7340   32.9450   42.7910 H   0  0  0  0  0  0  0  0  0  0  0  0
   34.3960   27.9720   48.2070 C   0  0  0  0  0  0  0  0  0  0  0  0
   34.6040   26.8830   48.0620 H   0  0  0  0  0  0  0  0  0  0  0  0
   35.0500   28.5800   47.5380 H   0  0  0  0  0  0  0  0  0  0  0  0
   34.4500   28.4080   49.6410 C   0  0  0  0  0  0  0  0  0  0  0  0
   33.5520   28.9130   50.0140 H   0  0  0  0  0  0  0  0  0  0  0  0
   34.5650   27.4640   50.2460 H   0  0  0  0  0  0  0  0  0  0  0  0
   37.2460   30.1500   51.3260 C   0  0  0  0  0  0  0  0  0  0  0  0
   38.0220   30.6070   50.2540 C   0  0  0  0  0  0  0  0  0  0  0  0
   37.5690   30.3070   48.9480 C   0  0  0  0  0  0  0  0  0  0  0  0
   36.4200   29.6000   48.8060 N   0  0  0  0  0  0  0  0  0  0  0  0
   35.7110   29.1840   49.8820 C   0  0  0  0  0  0  0  0  0  0  0  0
   36.1250   29.4590   51.1200 N   0  0  0  0  0  0  0  0  0  0  0  0
   37.6230   30.3980   52.3170 H   0  0  0  0  0  0  0  0  0  0  0  0
   38.9420   31.1720   50.3220 H   0  0  0  0  0  0  0  0  0  0  0  0
   38.0570   30.5910   48.0360 H   0  0  0  0  0  0  0  0  0  0  0  0
  1 30  1  0  0  0  0
  1  2  1  0  0  0  0
  2  6  1  0  0  0  0
  3  7  1  0  0  0  0
  3  2  2  0  0  0  0
  4  5  1  0  0  0  0
  4  3  1  0  0  0  0
  5  1  2  0  0  0  0
  8  4  1  0  0  0  0
  9 10  1  0  0  0  0
  9  8  2  0  0  0  0
 11  9  1  0  0  0  0
 12 11  1  0  0  0  0
 13 11  2  0  0  0  0
 13 14  1  0  0  0  0
 14 15  2  0  0  0  0
 15  8  1  0  0  0  0
 15 16  1  0  0  0  0
 17 14  1  0  0  0  0
 18 17  1  0  0  0  0
 19 20  1  0  0  0  0
 19 18  2  0  0  0  0
 21 19  1  0  0  0  0
 22 21  1  0  0  0  0
 23 21  2  0  0  0  0
 23 25  1  0  0  0  0
 24 23  1  0  0  0  0
 25 27  2  0  0  0  0
 26 25  1  0  0  0  0
 27 18  1  0  0  0  0
 27 28  1  0  0  0  0
 28 13  1  0  0  0  0
 29 28  1  0  0  0  0
 30 33  1  0  0  0  0
 31 30  1  0  0  0  0
 32 30  1  0  0  0  0
 33 40  1  0  0  0  0
 33 34  1  0  0  0  0
 33 35  1  0  0  0  0
 36 42  1  0  0  0  0
 37 43  1  0  0  0  0
 37 36  2  0  0  0  0
 38 37  1  0  0  0  0
 39 38  2  0  0  0  0
 39 40  1  0  0  0  0
 40 41  2  0  0  0  0
 41 36  1  0  0  0  0
 44 38  1  0  0  0  0
M  END
>  <minimizedAffinity>
-5.87993097

>  <minimizedRMSD>
1.11383104

$$$$
