
 OpenBabel03272500173D

 47 51  0  0  0  0  0  0  0  0999 V2000
   35.1130   29.2740   50.5400 C   0  0  0  0  0  0  0  0  0  0  0  0
   36.0890   30.0010   49.8290 C   0  0  0  0  0  0  0  0  0  0  0  0
   35.9700   30.0900   48.4500 C   0  0  0  0  0  0  0  0  0  0  0  0
   34.9120   29.4670   47.8520 N   0  0  0  0  0  0  0  0  0  0  0  0
   34.0020   28.7860   48.5480 C   0  0  0  0  0  0  0  0  0  0  0  0
   34.0980   28.6890   49.8740 N   0  0  0  0  0  0  0  0  0  0  0  0
   35.2280   29.2190   51.6120 H   0  0  0  0  0  0  0  0  0  0  0  0
   36.7980   30.8010   47.5070 C   0  0  0  0  0  0  0  0  0  0  0  0
   37.8260   31.7060   47.5790 C   0  0  0  0  0  0  0  0  0  0  0  0
   38.1750   31.9170   48.5570 H   0  0  0  0  0  0  0  0  0  0  0  0
   38.4100   32.2780   46.4750 C   0  0  0  0  0  0  0  0  0  0  0  0
   39.2180   32.9830   46.6910 H   0  0  0  0  0  0  0  0  0  0  0  0
   38.0010   31.9820   45.1920 C   0  0  0  0  0  0  0  0  0  0  0  0
   36.9740   31.0790   45.0540 C   0  0  0  0  0  0  0  0  0  0  0  0
   36.4290   30.5410   46.1680 C   0  0  0  0  0  0  0  0  0  0  0  0
   35.6170   29.8340   45.9240 H   0  0  0  0  0  0  0  0  0  0  0  0
   36.4360   30.6840   43.4010 S   0  0  0  0  0  0  0  0  0  0  0  0
   37.4600   31.6470   42.3080 C   0  0  0  0  0  0  0  0  0  0  0  0
   37.1760   31.4630   40.9770 C   0  0  0  0  0  0  0  0  0  0  0  0
   36.4120   30.8060   40.5860 H   0  0  0  0  0  0  0  0  0  0  0  0
   37.9230   32.1720   40.0370 C   0  0  0  0  0  0  0  0  0  0  0  0
   37.7290   32.0540   38.9810 H   0  0  0  0  0  0  0  0  0  0  0  0
   38.9090   33.0230   40.4900 C   0  0  0  0  0  0  0  0  0  0  0  0
   39.4660   33.5540   39.7440 H   0  0  0  0  0  0  0  0  0  0  0  0
   39.1210   33.1420   41.8470 C   0  0  0  0  0  0  0  0  0  0  0  0
   39.9200   33.8380   42.0820 H   0  0  0  0  0  0  0  0  0  0  0  0
   38.4120   32.4650   42.8190 C   0  0  0  0  0  0  0  0  0  0  0  0
   38.7060   32.6570   44.1720 N   0  0  0  0  0  0  0  0  0  0  0  0
   39.4760   33.3270   44.3860 H   0  0  0  0  0  0  0  0  0  0  0  0
   32.6600   30.4500   46.4090 Cl  0  0  0  0  0  0  0  0  0  0  0  0
   32.2060   28.8040   46.8300 C   0  0  0  0  0  0  0  0  0  0  0  0
   32.8940   28.1350   47.8310 C   0  0  0  0  0  0  0  0  0  0  0  0
   32.5730   26.8200   48.2050 C   0  0  0  0  0  0  0  0  0  0  0  0
   31.5230   26.2210   47.5130 C   0  0  0  0  0  0  0  0  0  0  0  0
   30.8290   26.8650   46.5190 C   0  0  0  0  0  0  0  0  0  0  0  0
   29.5310   26.0070   45.7250 Cl  0  0  0  0  0  0  0  0  0  0  0  0
   31.1830   28.1610   46.1860 C   0  0  0  0  0  0  0  0  0  0  0  0
   33.1060   26.2970   48.9830 H   0  0  0  0  0  0  0  0  0  0  0  0
   31.2700   25.2060   47.7980 H   0  0  0  0  0  0  0  0  0  0  0  0
   30.4410   28.8680   45.1130 C   0  0  0  0  0  0  0  0  0  0  0  0
   29.3400   28.1140   44.7050 F   0  0  0  0  0  0  0  0  0  0  0  0
   31.2280   29.1710   44.0460 F   0  0  0  0  0  0  0  0  0  0  0  0
   29.9230   30.0640   45.6140 F   0  0  0  0  0  0  0  0  0  0  0  0
   37.1930   30.6680   50.5660 C   0  0  0  0  0  0  0  0  0  0  0  0
   38.4320   30.3110   50.0710 F   0  0  0  0  0  0  0  0  0  0  0  0
   37.0390   32.0440   50.4650 F   0  0  0  0  0  0  0  0  0  0  0  0
   37.1690   30.3680   51.9190 F   0  0  0  0  0  0  0  0  0  0  0  0
  1  7  1  0  0  0  0
  2  1  2  0  0  0  0
  2 44  1  0  0  0  0
  3  2  1  0  0  0  0
  4  3  2  0  0  0  0
  4  5  1  0  0  0  0
  5  6  2  0  0  0  0
  6  1  1  0  0  0  0
  8  9  1  0  0  0  0
  8  3  1  0  0  0  0
  9 10  1  0  0  0  0
 11 12  1  0  0  0  0
 11  9  2  0  0  0  0
 13 11  1  0  0  0  0
 14 13  2  0  0  0  0
 14 15  1  0  0  0  0
 15  8  2  0  0  0  0
 16 15  1  0  0  0  0
 17 14  1  0  0  0  0
 18 27  1  0  0  0  0
 18 17  1  0  0  0  0
 19 18  2  0  0  0  0
 20 19  1  0  0  0  0
 21 23  2  0  0  0  0
 21 19  1  0  0  0  0
 22 21  1  0  0  0  0
 23 25  1  0  0  0  0
 24 23  1  0  0  0  0
 25 26  1  0  0  0  0
 25 27  2  0  0  0  0
 27 28  1  0  0  0  0
 28 29  1  0  0  0  0
 28 13  1  0  0  0  0
 30 31  1  0  0  0  0
 31 32  1  0  0  0  0
 32 33  2  0  0  0  0
 32  5  1  0  0  0  0
 33 38  1  0  0  0  0
 34 39  1  0  0  0  0
 34 33  1  0  0  0  0
 35 34  2  0  0  0  0
 36 35  1  0  0  0  0
 37 35  1  0  0  0  0
 37 31  2  0  0  0  0
 40 43  1  0  0  0  0
 40 37  1  0  0  0  0
 41 40  1  0  0  0  0
 42 40  1  0  0  0  0
 44 47  1  0  0  0  0
 45 44  1  0  0  0  0
 46 44  1  0  0  0  0
M  END
>  <minimizedAffinity>
-7.69939041

>  <minimizedRMSD>
0.924543858

$$$$
