
     RDKit          3D

 47 51  0  0  0  0  0  0  0  0999 V2000
   32.6813   30.3052   46.5731 Cl  0  0  0  0  0  0  0  0  0  0  0  0
   32.6308   28.5543   46.7298 C   0  0  0  0  0  0  0  0  0  0  0  0
   33.5103   27.9152   47.5922 C   0  0  0  0  0  0  0  0  0  0  0  0
   33.5120   26.5201   47.7527 C   0  0  0  0  0  0  0  0  0  0  0  0
   32.5819   25.8102   46.9985 C   0  0  0  0  0  0  0  0  0  0  0  0
   31.7028   26.4220   46.1396 C   0  0  0  0  0  0  0  0  0  0  0  0
   30.5829   25.4217   45.2481 Cl  0  0  0  0  0  0  0  0  0  0  0  0
   31.7386   27.8000   46.0147 C   0  0  0  0  0  0  0  0  0  0  0  0
   35.3974   29.2913   50.4383 C   0  0  0  0  0  0  0  0  0  0  0  0
   36.3326   30.1221   49.7914 C   0  0  0  0  0  0  0  0  0  0  0  0
   36.3004   30.1987   48.4071 C   0  0  0  0  0  0  0  0  0  0  0  0
   35.3606   29.4632   47.7425 N   0  0  0  0  0  0  0  0  0  0  0  0
   34.4868   28.6843   48.3777 C   0  0  0  0  0  0  0  0  0  0  0  0
   34.5022   28.5973   49.7084 N   0  0  0  0  0  0  0  0  0  0  0  0
   37.3032   30.9074   50.5971 C   0  0  0  0  0  0  0  0  0  0  0  0
   38.5950   30.7661   50.1302 F   0  0  0  0  0  0  0  0  0  0  0  0
   36.9462   32.2482   50.5563 F   0  0  0  0  0  0  0  0  0  0  0  0
   37.2860   30.5371   51.9326 F   0  0  0  0  0  0  0  0  0  0  0  0
   30.7946   28.4754   45.0898 C   0  0  0  0  0  0  0  0  0  0  0  0
   29.8353   27.5721   44.6322 F   0  0  0  0  0  0  0  0  0  0  0  0
   31.4255   29.0673   44.0403 F   0  0  0  0  0  0  0  0  0  0  0  0
   30.0934   29.4648   45.7803 F   0  0  0  0  0  0  0  0  0  0  0  0
   34.1938   26.0191   48.4218 H   0  0  0  0  0  0  0  0  0  0  0  0
   32.5791   24.7324   47.1188 H   0  0  0  0  0  0  0  0  0  0  0  0
   35.4428   29.2485   51.5160 H   0  0  0  0  0  0  0  0  0  0  0  0
   37.1064   30.9987   47.5183 C   0  0  0  0  0  0  0  0  0  0  0  0
   38.1253   31.9074   47.6540 C   0  0  0  0  0  0  0  0  0  0  0  0
   38.4845   32.0385   48.6419 H   0  0  0  0  0  0  0  0  0  0  0  0
   38.6869   32.5797   46.5963 C   0  0  0  0  0  0  0  0  0  0  0  0
   39.4898   33.2739   46.8618 H   0  0  0  0  0  0  0  0  0  0  0  0
   38.2645   32.3887   45.2981 C   0  0  0  0  0  0  0  0  0  0  0  0
   37.2461   31.4881   45.0957 C   0  0  0  0  0  0  0  0  0  0  0  0
   36.7225   30.8496   46.1664 C   0  0  0  0  0  0  0  0  0  0  0  0
   35.9153   30.1555   45.8720 H   0  0  0  0  0  0  0  0  0  0  0  0
   36.6898   31.2296   43.4223 S   0  0  0  0  0  0  0  0  0  0  0  0
   37.6876   32.2958   42.4029 C   0  0  0  0  0  0  0  0  0  0  0  0
   37.3873   32.2222   41.0646 C   0  0  0  0  0  0  0  0  0  0  0  0
   36.6263   31.5919   40.6287 H   0  0  0  0  0  0  0  0  0  0  0  0
   38.1135   33.0192   40.1798 C   0  0  0  0  0  0  0  0  0  0  0  0
   37.9068   32.9895   39.1203 H   0  0  0  0  0  0  0  0  0  0  0  0
   39.0954   33.8404   40.6908 C   0  0  0  0  0  0  0  0  0  0  0  0
   39.6362   34.4407   39.9864 H   0  0  0  0  0  0  0  0  0  0  0  0
   39.3244   33.8453   42.0508 C   0  0  0  0  0  0  0  0  0  0  0  0
   40.1190   34.5291   42.3346 H   0  0  0  0  0  0  0  0  0  0  0  0
   38.6370   33.0786   42.9699 C   0  0  0  0  0  0  0  0  0  0  0  0
   38.9475   33.1583   44.3304 N   0  0  0  0  0  0  0  0  0  0  0  0
   39.7115   33.8176   44.5908 H   0  0  0  0  0  0  0  0  0  0  0  0
  1  2  1  0
  2  3  2  0
  3  4  1  0
  3 13  1  0
  5  4  2  0
  6  5  1  0
  7  6  1  0
  8  6  2  0
  8  2  1  0
 10  9  2  0
 10 15  1  0
 11 10  1  0
 12 13  1  0
 12 11  2  0
 13 14  2  0
 14  9  1  0
 15 18  1  0
 16 15  1  0
 17 15  1  0
 19 22  1  0
 19  8  1  0
 20 19  1  0
 21 19  1  0
  4 23  1  0
  5 24  1  0
  9 25  1  0
 26 27  2  0
 27 28  1  0
 27 29  1  0
 29 30  1  0
 29 31  2  0
 31 32  1  0
 32 33  2  0
 33 34  1  0
 32 35  1  0
 35 36  1  0
 36 37  2  0
 37 38  1  0
 37 39  1  0
 39 40  1  0
 39 41  2  0
 41 42  1  0
 41 43  1  0
 43 44  1  0
 43 45  2  0
 45 46  1  0
 46 47  1  0
 33 26  1  0
 45 36  1  0
 46 31  1  0
 11 26  1  0
M  ISO  8  23  14  24  14  25  14  28  16  30  16  34  16  38  16  40  16
M  ISO  3  42  16  44  16  47   5
M  END
>  <DihAtoms>  (1) 
9,10,25,26

>  <DihDeg>  (1) 
60.28195015855666

$$$$
