
 OpenBabel03272500203D

 47 51  0  0  0  0  0  0  0  0999 V2000
   35.5370   30.4880   30.7950 C   0  0  0  0  0  0  0  0  0  0  0  0
   36.4410   29.4080   30.8550 C   0  0  0  0  0  0  0  0  0  0  0  0
   36.2760   28.4650   31.8580 C   0  0  0  0  0  0  0  0  0  0  0  0
   35.2450   28.6330   32.7380 N   0  0  0  0  0  0  0  0  0  0  0  0
   34.4040   29.6630   32.6600 C   0  0  0  0  0  0  0  0  0  0  0  0
   34.5450   30.5800   31.7020 N   0  0  0  0  0  0  0  0  0  0  0  0
   35.6870   31.2090   30.0050 H   0  0  0  0  0  0  0  0  0  0  0  0
   37.0250   27.2590   32.1080 C   0  0  0  0  0  0  0  0  0  0  0  0
   37.5660   26.2540   31.3480 C   0  0  0  0  0  0  0  0  0  0  0  0
   37.4890   26.3890   30.3000 H   0  0  0  0  0  0  0  0  0  0  0  0
   38.2040   25.1600   31.8800 C   0  0  0  0  0  0  0  0  0  0  0  0
   38.5810   24.4410   31.1460 H   0  0  0  0  0  0  0  0  0  0  0  0
   38.3530   24.9870   33.2400 C   0  0  0  0  0  0  0  0  0  0  0  0
   37.8340   25.9630   34.0570 C   0  0  0  0  0  0  0  0  0  0  0  0
   37.2130   27.0220   33.4890 C   0  0  0  0  0  0  0  0  0  0  0  0
   36.8430   27.7330   34.2500 H   0  0  0  0  0  0  0  0  0  0  0  0
   38.0210   25.7550   35.8170 S   0  0  0  0  0  0  0  0  0  0  0  0
   38.8950   24.2190   36.0390 C   0  0  0  0  0  0  0  0  0  0  0  0
   39.1260   23.8990   37.3550 C   0  0  0  0  0  0  0  0  0  0  0  0
   38.8230   24.4930   38.2050 H   0  0  0  0  0  0  0  0  0  0  0  0
   39.8050   22.7140   37.6380 C   0  0  0  0  0  0  0  0  0  0  0  0
   40.0060   22.4290   38.6600 H   0  0  0  0  0  0  0  0  0  0  0  0
   40.2100   21.9230   36.5840 C   0  0  0  0  0  0  0  0  0  0  0  0
   40.7300   21.0190   36.8320 H   0  0  0  0  0  0  0  0  0  0  0  0
   39.9320   22.3280   35.2950 C   0  0  0  0  0  0  0  0  0  0  0  0
   40.2990   21.6270   34.5520 H   0  0  0  0  0  0  0  0  0  0  0  0
   39.2650   23.4890   34.9600 C   0  0  0  0  0  0  0  0  0  0  0  0
   39.0330   23.8090   33.6190 N   0  0  0  0  0  0  0  0  0  0  0  0
   39.3900   23.1280   32.9140 H   0  0  0  0  0  0  0  0  0  0  0  0
   35.1360   31.0280   35.2580 Cl  0  0  0  0  0  0  0  0  0  0  0  0
   33.5430   30.3880   34.8760 C   0  0  0  0  0  0  0  0  0  0  0  0
   33.3220   29.7800   33.6490 C   0  0  0  0  0  0  0  0  0  0  0  0
   32.0680   29.2540   33.2950 C   0  0  0  0  0  0  0  0  0  0  0  0
   31.0570   29.3780   34.2430 C   0  0  0  0  0  0  0  0  0  0  0  0
   31.2540   29.9750   35.4630 C   0  0  0  0  0  0  0  0  0  0  0  0
   29.9060   30.0680   36.5690 Cl  0  0  0  0  0  0  0  0  0  0  0  0
   32.5070   30.4780   35.7670 C   0  0  0  0  0  0  0  0  0  0  0  0
   31.8920   28.7810   32.3410 H   0  0  0  0  0  0  0  0  0  0  0  0
   30.0870   28.9730   33.9750 H   0  0  0  0  0  0  0  0  0  0  0  0
   32.7350   31.1270   37.0820 C   0  0  0  0  0  0  0  0  0  0  0  0
   31.8870   32.2250   37.2340 F   0  0  0  0  0  0  0  0  0  0  0  0
   34.0300   31.5020   37.2630 F   0  0  0  0  0  0  0  0  0  0  0  0
   32.4000   30.2390   38.1050 F   0  0  0  0  0  0  0  0  0  0  0  0
   37.5190   29.2920   29.8390 C   0  0  0  0  0  0  0  0  0  0  0  0
   37.2450   28.3120   28.9060 F   0  0  0  0  0  0  0  0  0  0  0  0
   37.6650   30.5120   29.1920 F   0  0  0  0  0  0  0  0  0  0  0  0
   38.7460   29.0060   30.4170 F   0  0  0  0  0  0  0  0  0  0  0  0
  1  2  2  0  0  0  0
  1  6  1  0  0  0  0
  2  3  1  0  0  0  0
  3  8  1  0  0  0  0
  3  4  2  0  0  0  0
  5  4  1  0  0  0  0
  5 32  1  0  0  0  0
  6  5  2  0  0  0  0
  7  1  1  0  0  0  0
  8 15  1  0  0  0  0
  9 11  1  0  0  0  0
  9  8  2  0  0  0  0
 10  9  1  0  0  0  0
 11 13  2  0  0  0  0
 12 11  1  0  0  0  0
 13 28  1  0  0  0  0
 13 14  1  0  0  0  0
 14 17  1  0  0  0  0
 15 14  2  0  0  0  0
 15 16  1  0  0  0  0
 17 18  1  0  0  0  0
 18 19  1  0  0  0  0
 19 21  2  0  0  0  0
 19 20  1  0  0  0  0
 21 22  1  0  0  0  0
 23 24  1  0  0  0  0
 23 21  1  0  0  0  0
 25 23  2  0  0  0  0
 26 25  1  0  0  0  0
 27 25  1  0  0  0  0
 27 18  2  0  0  0  0
 28 27  1  0  0  0  0
 29 28  1  0  0  0  0
 31 30  1  0  0  0  0
 31 37  1  0  0  0  0
 32 31  2  0  0  0  0
 33 32  1  0  0  0  0
 33 34  2  0  0  0  0
 34 35  1  0  0  0  0
 35 37  2  0  0  0  0
 35 36  1  0  0  0  0
 37 40  1  0  0  0  0
 38 33  1  0  0  0  0
 39 34  1  0  0  0  0
 40 41  1  0  0  0  0
 40 42  1  0  0  0  0
 40 43  1  0  0  0  0
 44 47  1  0  0  0  0
 44  2  1  0  0  0  0
 45 44  1  0  0  0  0
 46 44  1  0  0  0  0
M  END
>  <minimizedAffinity>
-7.6505003

$$$$

 OpenBabel03272500203D

 47 51  0  0  0  0  0  0  0  0999 V2000
   39.3780   26.9340   31.0570 C   0  0  0  0  0  0  0  0  0  0  0  0
   38.2080   27.7080   31.1840 C   0  0  0  0  0  0  0  0  0  0  0  0
   37.4410   27.5610   32.3300 C   0  0  0  0  0  0  0  0  0  0  0  0
   37.8610   26.6700   33.2770 N   0  0  0  0  0  0  0  0  0  0  0  0
   38.9710   25.9480   33.1310 C   0  0  0  0  0  0  0  0  0  0  0  0
   39.7220   26.0760   32.0370 N   0  0  0  0  0  0  0  0  0  0  0  0
   39.9570   27.0660   30.1550 H   0  0  0  0  0  0  0  0  0  0  0  0
   36.2410   28.2580   32.7210 C   0  0  0  0  0  0  0  0  0  0  0  0
   34.9420   28.3120   32.2850 C   0  0  0  0  0  0  0  0  0  0  0  0
   34.6990   27.6420   31.5020 H   0  0  0  0  0  0  0  0  0  0  0  0
   33.9920   29.1380   32.8360 C   0  0  0  0  0  0  0  0  0  0  0  0
   32.9990   29.0710   32.3790 H   0  0  0  0  0  0  0  0  0  0  0  0
   34.2750   29.9850   33.8850 C   0  0  0  0  0  0  0  0  0  0  0  0
   35.5620   29.9760   34.3700 C   0  0  0  0  0  0  0  0  0  0  0  0
   36.4650   29.1470   33.7970 C   0  0  0  0  0  0  0  0  0  0  0  0
   37.4570   29.2330   34.2750 H   0  0  0  0  0  0  0  0  0  0  0  0
   35.9440   31.0650   35.7280 S   0  0  0  0  0  0  0  0  0  0  0  0
   34.4320   31.9290   36.1030 C   0  0  0  0  0  0  0  0  0  0  0  0
   34.5490   32.8220   37.1400 C   0  0  0  0  0  0  0  0  0  0  0  0
   35.4510   33.0150   37.7010 H   0  0  0  0  0  0  0  0  0  0  0  0
   33.4190   33.5510   37.5150 C   0  0  0  0  0  0  0  0  0  0  0  0
   33.4720   34.2630   38.3250 H   0  0  0  0  0  0  0  0  0  0  0  0
   32.2450   33.3400   36.8260 C   0  0  0  0  0  0  0  0  0  0  0  0
   31.3940   33.9140   37.1370 H   0  0  0  0  0  0  0  0  0  0  0  0
   32.2260   32.4200   35.7980 C   0  0  0  0  0  0  0  0  0  0  0  0
   31.2480   32.3390   35.3330 H   0  0  0  0  0  0  0  0  0  0  0  0
   33.3110   31.6720   35.3880 C   0  0  0  0  0  0  0  0  0  0  0  0
   33.1860   30.7650   34.3320 N   0  0  0  0  0  0  0  0  0  0  0  0
   32.2430   30.6970   33.8930 H   0  0  0  0  0  0  0  0  0  0  0  0
   37.3040   26.0510   35.6520 Cl  0  0  0  0  0  0  0  0  0  0  0  0
   38.6590   24.9610   35.3910 C   0  0  0  0  0  0  0  0  0  0  0  0
   39.3540   25.0030   34.1910 C   0  0  0  0  0  0  0  0  0  0  0  0
   40.4430   24.1540   33.9320 C   0  0  0  0  0  0  0  0  0  0  0  0
   40.7870   23.2650   34.9470 C   0  0  0  0  0  0  0  0  0  0  0  0
   40.1140   23.2070   36.1410 C   0  0  0  0  0  0  0  0  0  0  0  0
   40.6420   22.0480   37.3360 Cl  0  0  0  0  0  0  0  0  0  0  0  0
   39.0470   24.0640   36.3500 C   0  0  0  0  0  0  0  0  0  0  0  0
   40.9860   24.1830   33.0010 H   0  0  0  0  0  0  0  0  0  0  0  0
   41.6280   22.6070   34.7520 H   0  0  0  0  0  0  0  0  0  0  0  0
   38.3090   24.0120   37.6370 C   0  0  0  0  0  0  0  0  0  0  0  0
   38.0910   25.3010   38.1240 F   0  0  0  0  0  0  0  0  0  0  0  0
   38.9420   23.2550   38.5720 F   0  0  0  0  0  0  0  0  0  0  0  0
   37.0430   23.4620   37.4260 F   0  0  0  0  0  0  0  0  0  0  0  0
   37.8410   28.6720   30.1150 C   0  0  0  0  0  0  0  0  0  0  0  0
   37.6600   29.9480   30.6100 F   0  0  0  0  0  0  0  0  0  0  0  0
   38.8470   28.6920   29.1580 F   0  0  0  0  0  0  0  0  0  0  0  0
   36.6800   28.2980   29.4550 F   0  0  0  0  0  0  0  0  0  0  0  0
  1  2  2  0  0  0  0
  1  6  1  0  0  0  0
  2  3  1  0  0  0  0
  3  8  1  0  0  0  0
  3  4  2  0  0  0  0
  5  4  1  0  0  0  0
  5 32  1  0  0  0  0
  6  5  2  0  0  0  0
  7  1  1  0  0  0  0
  8 15  1  0  0  0  0
  9  8  2  0  0  0  0
  9 11  1  0  0  0  0
 10  9  1  0  0  0  0
 11 13  2  0  0  0  0
 12 11  1  0  0  0  0
 13 28  1  0  0  0  0
 13 14  1  0  0  0  0
 14 17  1  0  0  0  0
 15 16  1  0  0  0  0
 15 14  2  0  0  0  0
 17 18  1  0  0  0  0
 18 19  1  0  0  0  0
 19 21  2  0  0  0  0
 19 20  1  0  0  0  0
 21 22  1  0  0  0  0
 23 24  1  0  0  0  0
 23 21  1  0  0  0  0
 25 23  2  0  0  0  0
 26 25  1  0  0  0  0
 27 25  1  0  0  0  0
 27 18  2  0  0  0  0
 28 27  1  0  0  0  0
 29 28  1  0  0  0  0
 31 30  1  0  0  0  0
 31 37  1  0  0  0  0
 32 31  2  0  0  0  0
 33 32  1  0  0  0  0
 33 34  2  0  0  0  0
 34 35  1  0  0  0  0
 35 37  2  0  0  0  0
 35 36  1  0  0  0  0
 37 40  1  0  0  0  0
 38 33  1  0  0  0  0
 39 34  1  0  0  0  0
 40 41  1  0  0  0  0
 40 42  1  0  0  0  0
 43 40  1  0  0  0  0
 44 45  1  0  0  0  0
 44  2  1  0  0  0  0
 46 44  1  0  0  0  0
 47 44  1  0  0  0  0
M  END
>  <minimizedAffinity>
-7.49245977

$$$$

 OpenBabel03272500203D

 47 51  0  0  0  0  0  0  0  0999 V2000
   34.7600   28.0280   32.0110 C   0  0  0  0  0  0  0  0  0  0  0  0
   35.9640   27.3010   32.1010 C   0  0  0  0  0  0  0  0  0  0  0  0
   36.8820   27.6650   33.0730 C   0  0  0  0  0  0  0  0  0  0  0  0
   36.5730   28.7130   33.8930 N   0  0  0  0  0  0  0  0  0  0  0  0
   35.4270   29.3840   33.7870 C   0  0  0  0  0  0  0  0  0  0  0  0
   34.5310   29.0490   32.8590 N   0  0  0  0  0  0  0  0  0  0  0  0
   34.0610   27.7250   31.2460 H   0  0  0  0  0  0  0  0  0  0  0  0
   38.1520   27.0630   33.4000 C   0  0  0  0  0  0  0  0  0  0  0  0
   39.4560   27.2290   33.0090 C   0  0  0  0  0  0  0  0  0  0  0  0
   39.6290   28.0350   32.3430 H   0  0  0  0  0  0  0  0  0  0  0  0
   40.4890   26.4480   33.4660 C   0  0  0  0  0  0  0  0  0  0  0  0
   41.4740   26.7000   33.0610 H   0  0  0  0  0  0  0  0  0  0  0  0
   40.2910   25.4240   34.3670 C   0  0  0  0  0  0  0  0  0  0  0  0
   39.0050   25.2080   34.8000 C   0  0  0  0  0  0  0  0  0  0  0  0
   38.0180   26.0010   34.3230 C   0  0  0  0  0  0  0  0  0  0  0  0
   37.0350   25.7270   34.7460 H   0  0  0  0  0  0  0  0  0  0  0  0
   38.7330   23.8880   35.9660 S   0  0  0  0  0  0  0  0  0  0  0  0
   40.3320   23.1620   36.2650 C   0  0  0  0  0  0  0  0  0  0  0  0
   40.3060   22.1140   37.1530 C   0  0  0  0  0  0  0  0  0  0  0  0
   39.4240   21.7330   37.6450 H   0  0  0  0  0  0  0  0  0  0  0  0
   41.5090   21.4750   37.4570 C   0  0  0  0  0  0  0  0  0  0  0  0
   41.5290   20.6470   38.1500 H   0  0  0  0  0  0  0  0  0  0  0  0
   42.6620   21.9250   36.8510 C   0  0  0  0  0  0  0  0  0  0  0  0
   43.5700   21.4160   37.1040 H   0  0  0  0  0  0  0  0  0  0  0  0
   42.5870   22.9860   35.9720 C   0  0  0  0  0  0  0  0  0  0  0  0
   43.5560   23.2520   35.5600 H   0  0  0  0  0  0  0  0  0  0  0  0
   41.4270   23.6540   35.6370 C   0  0  0  0  0  0  0  0  0  0  0  0
   41.4600   24.7190   34.7330 N   0  0  0  0  0  0  0  0  0  0  0  0
   42.3950   24.9650   34.3440 H   0  0  0  0  0  0  0  0  0  0  0  0
   32.7970   29.2890   35.2760 Cl  0  0  0  0  0  0  0  0  0  0  0  0
   33.9940   30.5670   35.4380 C   0  0  0  0  0  0  0  0  0  0  0  0
   35.1690   30.5060   34.7020 C   0  0  0  0  0  0  0  0  0  0  0  0
   36.1570   31.5000   34.7960 C   0  0  0  0  0  0  0  0  0  0  0  0
   35.8940   32.5520   35.6700 C   0  0  0  0  0  0  0  0  0  0  0  0
   34.7390   32.6310   36.4060 C   0  0  0  0  0  0  0  0  0  0  0  0
   34.5260   34.0010   37.4680 Cl  0  0  0  0  0  0  0  0  0  0  0  0
   33.7940   31.6280   36.2800 C   0  0  0  0  0  0  0  0  0  0  0  0
   37.0720   31.4570   34.2260 H   0  0  0  0  0  0  0  0  0  0  0  0
   36.6540   33.3220   35.7450 H   0  0  0  0  0  0  0  0  0  0  0  0
   32.5410   31.7000   37.0720 C   0  0  0  0  0  0  0  0  0  0  0  0
   31.4300   31.6010   36.2320 F   0  0  0  0  0  0  0  0  0  0  0  0
   32.4630   32.8300   37.8260 F   0  0  0  0  0  0  0  0  0  0  0  0
   32.4690   30.6050   37.9340 F   0  0  0  0  0  0  0  0  0  0  0  0
   36.2050   26.1590   31.1820 C   0  0  0  0  0  0  0  0  0  0  0  0
   37.3870   26.3010   30.4820 F   0  0  0  0  0  0  0  0  0  0  0  0
   36.2510   24.9840   31.9210 F   0  0  0  0  0  0  0  0  0  0  0  0
   35.1780   26.0050   30.2640 F   0  0  0  0  0  0  0  0  0  0  0  0
  1  2  2  0  0  0  0
  1  6  1  0  0  0  0
  2  3  1  0  0  0  0
  3  8  1  0  0  0  0
  3  4  2  0  0  0  0
  5  4  1  0  0  0  0
  5 32  1  0  0  0  0
  6  5  2  0  0  0  0
  7  1  1  0  0  0  0
  8 15  1  0  0  0  0
  9  8  2  0  0  0  0
  9 11  1  0  0  0  0
 10  9  1  0  0  0  0
 11 13  2  0  0  0  0
 12 11  1  0  0  0  0
 13 28  1  0  0  0  0
 13 14  1  0  0  0  0
 14 17  1  0  0  0  0
 15 16  1  0  0  0  0
 15 14  2  0  0  0  0
 17 18  1  0  0  0  0
 18 19  1  0  0  0  0
 19 21  2  0  0  0  0
 19 20  1  0  0  0  0
 21 22  1  0  0  0  0
 23 24  1  0  0  0  0
 23 21  1  0  0  0  0
 25 23  2  0  0  0  0
 26 25  1  0  0  0  0
 27 25  1  0  0  0  0
 27 18  2  0  0  0  0
 28 27  1  0  0  0  0
 29 28  1  0  0  0  0
 30 31  1  0  0  0  0
 31 37  1  0  0  0  0
 32 33  1  0  0  0  0
 32 31  2  0  0  0  0
 33 34  2  0  0  0  0
 34 39  1  0  0  0  0
 34 35  1  0  0  0  0
 35 36  1  0  0  0  0
 37 35  2  0  0  0  0
 37 40  1  0  0  0  0
 38 33  1  0  0  0  0
 40 42  1  0  0  0  0
 40 43  1  0  0  0  0
 41 40  1  0  0  0  0
 44 46  1  0  0  0  0
 44  2  1  0  0  0  0
 45 44  1  0  0  0  0
 47 44  1  0  0  0  0
M  END
>  <minimizedAffinity>
-7.45293093

$$$$

 OpenBabel03272500203D

 47 51  0  0  0  0  0  0  0  0999 V2000
   36.1420   29.7520   30.6610 C   0  0  0  0  0  0  0  0  0  0  0  0
   36.9600   28.6410   30.9430 C   0  0  0  0  0  0  0  0  0  0  0  0
   36.7450   27.9480   32.1250 C   0  0  0  0  0  0  0  0  0  0  0  0
   35.7500   28.3800   32.9550 N   0  0  0  0  0  0  0  0  0  0  0  0
   34.9900   29.4350   32.6640 C   0  0  0  0  0  0  0  0  0  0  0  0
   35.1810   30.1140   31.5330 N   0  0  0  0  0  0  0  0  0  0  0  0
   36.3290   30.2750   29.7350 H   0  0  0  0  0  0  0  0  0  0  0  0
   37.4040   26.7650   32.6220 C   0  0  0  0  0  0  0  0  0  0  0  0
   37.0820   25.4390   32.7650 C   0  0  0  0  0  0  0  0  0  0  0  0
   36.1430   25.1570   32.3660 H   0  0  0  0  0  0  0  0  0  0  0  0
   37.9190   24.5150   33.3420 C   0  0  0  0  0  0  0  0  0  0  0  0
   37.5220   23.4960   33.3880 H   0  0  0  0  0  0  0  0  0  0  0  0
   39.1630   24.8540   33.8280 C   0  0  0  0  0  0  0  0  0  0  0  0
   39.5460   26.1690   33.7120 C   0  0  0  0  0  0  0  0  0  0  0  0
   38.6900   27.0450   33.1370 C   0  0  0  0  0  0  0  0  0  0  0  0
   39.1130   28.0650   33.1020 H   0  0  0  0  0  0  0  0  0  0  0  0
   41.1530   26.6230   34.3330 S   0  0  0  0  0  0  0  0  0  0  0  0
   41.8680   25.1260   34.9820 C   0  0  0  0  0  0  0  0  0  0  0  0
   43.1250   25.2960   35.5090 C   0  0  0  0  0  0  0  0  0  0  0  0
   43.6650   26.2310   35.5480 H   0  0  0  0  0  0  0  0  0  0  0  0
   43.7740   24.1830   36.0440 C   0  0  0  0  0  0  0  0  0  0  0  0
   44.7630   24.2770   36.4680 H   0  0  0  0  0  0  0  0  0  0  0  0
   43.1220   22.9690   36.0190 C   0  0  0  0  0  0  0  0  0  0  0  0
   43.6460   22.1320   36.4360 H   0  0  0  0  0  0  0  0  0  0  0  0
   41.8600   22.8970   35.4670 C   0  0  0  0  0  0  0  0  0  0  0  0
   41.4490   21.8930   35.5030 H   0  0  0  0  0  0  0  0  0  0  0  0
   41.1740   23.9640   34.9240 C   0  0  0  0  0  0  0  0  0  0  0  0
   39.8940   23.7840   34.3900 N   0  0  0  0  0  0  0  0  0  0  0  0
   39.5110   22.8160   34.4300 H   0  0  0  0  0  0  0  0  0  0  0  0
   35.9430   30.9400   35.1080 Cl  0  0  0  0  0  0  0  0  0  0  0  0
   34.2640   30.5420   34.7680 C   0  0  0  0  0  0  0  0  0  0  0  0
   33.9430   29.8450   33.6120 C   0  0  0  0  0  0  0  0  0  0  0  0
   32.6190   29.5040   33.2930 C   0  0  0  0  0  0  0  0  0  0  0  0
   31.6420   29.9040   34.2010 C   0  0  0  0  0  0  0  0  0  0  0  0
   31.9380   30.5930   35.3500 C   0  0  0  0  0  0  0  0  0  0  0  0
   30.6240   31.0390   36.4110 Cl  0  0  0  0  0  0  0  0  0  0  0  0
   33.2580   30.9070   35.6220 C   0  0  0  0  0  0  0  0  0  0  0  0
   32.3650   28.9630   32.3950 H   0  0  0  0  0  0  0  0  0  0  0  0
   30.6170   29.6420   33.9600 H   0  0  0  0  0  0  0  0  0  0  0  0
   33.5920   31.6530   36.8610 C   0  0  0  0  0  0  0  0  0  0  0  0
   33.0850   32.9510   36.7970 F   0  0  0  0  0  0  0  0  0  0  0  0
   34.9290   31.6800   37.1100 F   0  0  0  0  0  0  0  0  0  0  0  0
   32.9660   31.0490   37.9530 F   0  0  0  0  0  0  0  0  0  0  0  0
   38.0030   28.2260   29.9700 C   0  0  0  0  0  0  0  0  0  0  0  0
   38.1000   26.8520   29.8720 F   0  0  0  0  0  0  0  0  0  0  0  0
   37.6930   28.7520   28.7230 F   0  0  0  0  0  0  0  0  0  0  0  0
   39.2530   28.7230   30.3060 F   0  0  0  0  0  0  0  0  0  0  0  0
  1  2  2  0  0  0  0
  1  6  1  0  0  0  0
  2  3  1  0  0  0  0
  3  8  1  0  0  0  0
  3  4  2  0  0  0  0
  5  4  1  0  0  0  0
  5 32  1  0  0  0  0
  6  5  2  0  0  0  0
  7  1  1  0  0  0  0
  8  9  2  0  0  0  0
  8 15  1  0  0  0  0
  9 11  1  0  0  0  0
 10  9  1  0  0  0  0
 11 12  1  0  0  0  0
 11 13  2  0  0  0  0
 13 28  1  0  0  0  0
 14 13  1  0  0  0  0
 14 17  1  0  0  0  0
 15 14  2  0  0  0  0
 16 15  1  0  0  0  0
 17 18  1  0  0  0  0
 18 19  1  0  0  0  0
 19 20  1  0  0  0  0
 19 21  2  0  0  0  0
 21 22  1  0  0  0  0
 23 21  1  0  0  0  0
 23 24  1  0  0  0  0
 25 26  1  0  0  0  0
 25 23  2  0  0  0  0
 27 18  2  0  0  0  0
 27 25  1  0  0  0  0
 28 29  1  0  0  0  0
 28 27  1  0  0  0  0
 31 30  1  0  0  0  0
 31 37  1  0  0  0  0
 32 31  2  0  0  0  0
 33 32  1  0  0  0  0
 33 34  2  0  0  0  0
 34 35  1  0  0  0  0
 35 37  2  0  0  0  0
 35 36  1  0  0  0  0
 37 40  1  0  0  0  0
 38 33  1  0  0  0  0
 39 34  1  0  0  0  0
 40 42  1  0  0  0  0
 40 43  1  0  0  0  0
 41 40  1  0  0  0  0
 44 47  1  0  0  0  0
 44  2  1  0  0  0  0
 45 44  1  0  0  0  0
 46 44  1  0  0  0  0
M  END
>  <minimizedAffinity>
-7.44840193

$$$$

 OpenBabel03272500203D

 47 51  0  0  0  0  0  0  0  0999 V2000
   38.1610   27.7700   31.8560 C   0  0  0  0  0  0  0  0  0  0  0  0
   37.0860   28.6730   31.9800 C   0  0  0  0  0  0  0  0  0  0  0  0
   36.3050   28.6160   33.1240 C   0  0  0  0  0  0  0  0  0  0  0  0
   36.6200   27.6850   34.0740 N   0  0  0  0  0  0  0  0  0  0  0  0
   37.6420   26.8430   33.9330 C   0  0  0  0  0  0  0  0  0  0  0  0
   38.4040   26.8820   32.8400 N   0  0  0  0  0  0  0  0  0  0  0  0
   38.7540   27.8340   30.9560 H   0  0  0  0  0  0  0  0  0  0  0  0
   35.1910   29.4450   33.5110 C   0  0  0  0  0  0  0  0  0  0  0  0
   33.9060   29.6430   33.0740 C   0  0  0  0  0  0  0  0  0  0  0  0
   33.5900   29.0000   32.2930 H   0  0  0  0  0  0  0  0  0  0  0  0
   33.0550   30.5730   33.6200 C   0  0  0  0  0  0  0  0  0  0  0  0
   32.0610   30.6160   33.1630 H   0  0  0  0  0  0  0  0  0  0  0  0
   33.4320   31.3880   34.6650 C   0  0  0  0  0  0  0  0  0  0  0  0
   34.7090   31.2370   35.1510 C   0  0  0  0  0  0  0  0  0  0  0  0
   35.5130   30.3090   34.5820 C   0  0  0  0  0  0  0  0  0  0  0  0
   36.5080   30.2850   35.0610 H   0  0  0  0  0  0  0  0  0  0  0  0
   35.2100   32.2830   36.5040 S   0  0  0  0  0  0  0  0  0  0  0  0
   33.8050   33.3130   36.8740 C   0  0  0  0  0  0  0  0  0  0  0  0
   34.0210   34.1930   37.9060 C   0  0  0  0  0  0  0  0  0  0  0  0
   34.9400   34.2860   38.4670 H   0  0  0  0  0  0  0  0  0  0  0  0
   32.9810   35.0460   38.2770 C   0  0  0  0  0  0  0  0  0  0  0  0
   33.1130   35.7510   39.0830 H   0  0  0  0  0  0  0  0  0  0  0  0
   31.7900   34.9640   37.5880 C   0  0  0  0  0  0  0  0  0  0  0  0
   31.0090   35.6320   37.8950 H   0  0  0  0  0  0  0  0  0  0  0  0
   31.6680   34.0470   36.5650 C   0  0  0  0  0  0  0  0  0  0  0  0
   30.6880   34.0750   36.0990 H   0  0  0  0  0  0  0  0  0  0  0  0
   32.6630   33.1810   36.1590 C   0  0  0  0  0  0  0  0  0  0  0  0
   32.4370   32.2880   35.1070 N   0  0  0  0  0  0  0  0  0  0  0  0
   31.4920   32.3240   34.6680 H   0  0  0  0  0  0  0  0  0  0  0  0
   37.8020   23.9540   33.0510 Cl  0  0  0  0  0  0  0  0  0  0  0  0
   38.0090   24.5100   34.7070 C   0  0  0  0  0  0  0  0  0  0  0  0
   37.9130   25.8630   34.9960 C   0  0  0  0  0  0  0  0  0  0  0  0
   38.0710   26.3580   36.3000 C   0  0  0  0  0  0  0  0  0  0  0  0
   38.3300   25.4150   37.2910 C   0  0  0  0  0  0  0  0  0  0  0  0
   38.4280   24.0720   37.0280 C   0  0  0  0  0  0  0  0  0  0  0  0
   38.7560   22.9880   38.3570 Cl  0  0  0  0  0  0  0  0  0  0  0  0
   38.2650   23.6310   35.7260 C   0  0  0  0  0  0  0  0  0  0  0  0
   37.9980   27.4100   36.5290 H   0  0  0  0  0  0  0  0  0  0  0  0
   38.4520   25.7930   38.3010 H   0  0  0  0  0  0  0  0  0  0  0  0
   38.3690   22.1820   35.4260 C   0  0  0  0  0  0  0  0  0  0  0  0
   39.4620   21.6260   36.0930 F   0  0  0  0  0  0  0  0  0  0  0  0
   38.4520   21.9280   34.0930 F   0  0  0  0  0  0  0  0  0  0  0  0
   37.2420   21.5210   35.9180 F   0  0  0  0  0  0  0  0  0  0  0  0
   36.8330   29.6690   30.9070 C   0  0  0  0  0  0  0  0  0  0  0  0
   36.9450   30.9650   31.3700 F   0  0  0  0  0  0  0  0  0  0  0  0
   37.7460   29.4700   29.8800 F   0  0  0  0  0  0  0  0  0  0  0  0
   35.5730   29.5200   30.3480 F   0  0  0  0  0  0  0  0  0  0  0  0
  1  2  2  0  0  0  0
  1  6  1  0  0  0  0
  2  3  1  0  0  0  0
  3  8  1  0  0  0  0
  3  4  2  0  0  0  0
  5  4  1  0  0  0  0
  5 32  1  0  0  0  0
  6  5  2  0  0  0  0
  7  1  1  0  0  0  0
  8 15  1  0  0  0  0
  9  8  2  0  0  0  0
  9 11  1  0  0  0  0
 10  9  1  0  0  0  0
 11 13  2  0  0  0  0
 12 11  1  0  0  0  0
 13 28  1  0  0  0  0
 13 14  1  0  0  0  0
 14 17  1  0  0  0  0
 15 16  1  0  0  0  0
 15 14  2  0  0  0  0
 17 18  1  0  0  0  0
 18 19  1  0  0  0  0
 19 21  2  0  0  0  0
 19 20  1  0  0  0  0
 21 22  1  0  0  0  0
 23 24  1  0  0  0  0
 23 21  1  0  0  0  0
 25 23  2  0  0  0  0
 26 25  1  0  0  0  0
 27 25  1  0  0  0  0
 27 18  2  0  0  0  0
 28 27  1  0  0  0  0
 29 28  1  0  0  0  0
 30 31  1  0  0  0  0
 31 32  2  0  0  0  0
 31 37  1  0  0  0  0
 32 33  1  0  0  0  0
 33 38  1  0  0  0  0
 33 34  2  0  0  0  0
 34 39  1  0  0  0  0
 35 34  1  0  0  0  0
 35 36  1  0  0  0  0
 37 35  2  0  0  0  0
 40 37  1  0  0  0  0
 40 43  1  0  0  0  0
 40 41  1  0  0  0  0
 42 40  1  0  0  0  0
 44 45  1  0  0  0  0
 44  2  1  0  0  0  0
 46 44  1  0  0  0  0
 47 44  1  0  0  0  0
M  END
>  <minimizedAffinity>
-7.40206051

$$$$

 OpenBabel03272500203D

 47 51  0  0  0  0  0  0  0  0999 V2000
   35.6370   30.5820   30.7910 C   0  0  0  0  0  0  0  0  0  0  0  0
   36.4940   29.4660   30.8400 C   0  0  0  0  0  0  0  0  0  0  0  0
   36.3010   28.5300   31.8450 C   0  0  0  0  0  0  0  0  0  0  0  0
   35.2890   28.7410   32.7370 N   0  0  0  0  0  0  0  0  0  0  0  0
   34.4920   29.8060   32.6690 C   0  0  0  0  0  0  0  0  0  0  0  0
   34.6600   30.7160   31.7110 N   0  0  0  0  0  0  0  0  0  0  0  0
   35.8070   31.2970   30.0000 H   0  0  0  0  0  0  0  0  0  0  0  0
   37.0020   27.2930   32.0870 C   0  0  0  0  0  0  0  0  0  0  0  0
   38.2360   26.9310   32.5630 C   0  0  0  0  0  0  0  0  0  0  0  0
   38.8390   27.7310   32.9100 H   0  0  0  0  0  0  0  0  0  0  0  0
   38.6690   25.6300   32.6350 C   0  0  0  0  0  0  0  0  0  0  0  0
   39.6800   25.4990   33.0350 H   0  0  0  0  0  0  0  0  0  0  0  0
   37.8840   24.5720   32.2300 C   0  0  0  0  0  0  0  0  0  0  0  0
   36.6320   24.8690   31.7440 C   0  0  0  0  0  0  0  0  0  0  0  0
   36.2480   26.1650   31.6910 C   0  0  0  0  0  0  0  0  0  0  0  0
   35.2270   26.2700   31.2840 H   0  0  0  0  0  0  0  0  0  0  0  0
   35.6040   23.5120   31.2180 S   0  0  0  0  0  0  0  0  0  0  0  0
   36.5640   22.0360   31.4900 C   0  0  0  0  0  0  0  0  0  0  0  0
   35.9140   20.8800   31.1320 C   0  0  0  0  0  0  0  0  0  0  0  0
   34.9160   20.8250   30.7210 H   0  0  0  0  0  0  0  0  0  0  0  0
   36.5800   19.6660   31.3060 C   0  0  0  0  0  0  0  0  0  0  0  0
   36.1020   18.7360   31.0370 H   0  0  0  0  0  0  0  0  0  0  0  0
   37.8560   19.6870   31.8260 C   0  0  0  0  0  0  0  0  0  0  0  0
   38.3420   18.7390   31.9480 H   0  0  0  0  0  0  0  0  0  0  0  0
   38.4260   20.8990   32.1560 C   0  0  0  0  0  0  0  0  0  0  0  0
   39.4300   20.7900   32.5550 H   0  0  0  0  0  0  0  0  0  0  0  0
   37.8130   22.1260   32.0060 C   0  0  0  0  0  0  0  0  0  0  0  0
   38.4800   23.2990   32.3710 N   0  0  0  0  0  0  0  0  0  0  0  0
   39.4430   23.1820   32.7530 H   0  0  0  0  0  0  0  0  0  0  0  0
   35.3100   31.1450   35.2550 Cl  0  0  0  0  0  0  0  0  0  0  0  0
   33.6880   30.5690   34.8940 C   0  0  0  0  0  0  0  0  0  0  0  0
   33.4270   29.9680   33.6720 C   0  0  0  0  0  0  0  0  0  0  0  0
   32.1500   29.4920   33.3340 C   0  0  0  0  0  0  0  0  0  0  0  0
   31.1560   29.6580   34.2950 C   0  0  0  0  0  0  0  0  0  0  0  0
   31.3920   30.2490   35.5100 C   0  0  0  0  0  0  0  0  0  0  0  0
   30.0620   30.3990   36.6320 Cl  0  0  0  0  0  0  0  0  0  0  0  0
   32.6680   30.7030   35.7980 C   0  0  0  0  0  0  0  0  0  0  0  0
   31.9430   29.0250   32.3840 H   0  0  0  0  0  0  0  0  0  0  0  0
   30.1670   29.2920   34.0390 H   0  0  0  0  0  0  0  0  0  0  0  0
   32.9380   31.3450   37.1080 C   0  0  0  0  0  0  0  0  0  0  0  0
   32.1530   32.4890   37.2590 F   0  0  0  0  0  0  0  0  0  0  0  0
   34.2520   31.6490   37.2810 F   0  0  0  0  0  0  0  0  0  0  0  0
   32.5600   30.4820   38.1380 F   0  0  0  0  0  0  0  0  0  0  0  0
   37.5540   29.3050   29.8120 C   0  0  0  0  0  0  0  0  0  0  0  0
   38.7940   29.0870   30.3790 F   0  0  0  0  0  0  0  0  0  0  0  0
   37.2310   28.2310   28.9930 F   0  0  0  0  0  0  0  0  0  0  0  0
   37.6480   30.4140   28.9860 F   0  0  0  0  0  0  0  0  0  0  0  0
  1  2  2  0  0  0  0
  1  6  1  0  0  0  0
  2  3  1  0  0  0  0
  3  8  1  0  0  0  0
  3  4  2  0  0  0  0
  5  4  1  0  0  0  0
  5 32  1  0  0  0  0
  6  5  2  0  0  0  0
  7  1  1  0  0  0  0
  8  9  1  0  0  0  0
  9 11  2  0  0  0  0
  9 10  1  0  0  0  0
 11 12  1  0  0  0  0
 13 28  1  0  0  0  0
 13 11  1  0  0  0  0
 14 13  2  0  0  0  0
 15 14  1  0  0  0  0
 15  8  2  0  0  0  0
 16 15  1  0  0  0  0
 17 18  1  0  0  0  0
 17 14  1  0  0  0  0
 18 27  1  0  0  0  0
 19 21  1  0  0  0  0
 19 18  2  0  0  0  0
 20 19  1  0  0  0  0
 21 23  2  0  0  0  0
 22 21  1  0  0  0  0
 23 24  1  0  0  0  0
 23 25  1  0  0  0  0
 25 26  1  0  0  0  0
 27 25  2  0  0  0  0
 27 28  1  0  0  0  0
 28 29  1  0  0  0  0
 31 30  1  0  0  0  0
 31 37  1  0  0  0  0
 32 31  2  0  0  0  0
 33 32  1  0  0  0  0
 33 34  2  0  0  0  0
 34 35  1  0  0  0  0
 35 37  2  0  0  0  0
 35 36  1  0  0  0  0
 37 40  1  0  0  0  0
 38 33  1  0  0  0  0
 39 34  1  0  0  0  0
 40 41  1  0  0  0  0
 40 42  1  0  0  0  0
 40 43  1  0  0  0  0
 44 45  1  0  0  0  0
 44  2  1  0  0  0  0
 46 44  1  0  0  0  0
 47 44  1  0  0  0  0
M  END
>  <minimizedAffinity>
-7.3668294

$$$$

 OpenBabel03272500203D

 47 51  0  0  0  0  0  0  0  0999 V2000
   36.3690   31.2640   30.2960 C   0  0  0  0  0  0  0  0  0  0  0  0
   37.0610   30.0560   30.0760 C   0  0  0  0  0  0  0  0  0  0  0  0
   37.0570   29.1030   31.0830 C   0  0  0  0  0  0  0  0  0  0  0  0
   36.3830   29.3850   32.2370 N   0  0  0  0  0  0  0  0  0  0  0  0
   35.7370   30.5360   32.4200 C   0  0  0  0  0  0  0  0  0  0  0  0
   35.7290   31.4650   31.4640 N   0  0  0  0  0  0  0  0  0  0  0  0
   36.3870   31.9900   29.4970 H   0  0  0  0  0  0  0  0  0  0  0  0
   37.6400   27.7840   31.0930 C   0  0  0  0  0  0  0  0  0  0  0  0
   38.9060   27.2610   31.0090 C   0  0  0  0  0  0  0  0  0  0  0  0
   39.6890   27.9740   30.9940 H   0  0  0  0  0  0  0  0  0  0  0  0
   39.1680   25.9130   30.9900 C   0  0  0  0  0  0  0  0  0  0  0  0
   40.2280   25.6480   30.9180 H   0  0  0  0  0  0  0  0  0  0  0  0
   38.1660   24.9690   31.0550 C   0  0  0  0  0  0  0  0  0  0  0  0
   36.8740   25.4300   31.1420 C   0  0  0  0  0  0  0  0  0  0  0  0
   36.6620   26.7660   31.1580 C   0  0  0  0  0  0  0  0  0  0  0  0
   35.5860   27.0060   31.2320 H   0  0  0  0  0  0  0  0  0  0  0  0
   35.5670   24.2220   31.2290 S   0  0  0  0  0  0  0  0  0  0  0  0
   36.3660   22.6310   31.1720 C   0  0  0  0  0  0  0  0  0  0  0  0
   35.4940   21.5710   31.2280 C   0  0  0  0  0  0  0  0  0  0  0  0
   34.4190   21.6490   31.3010 H   0  0  0  0  0  0  0  0  0  0  0  0
   36.0190   20.2790   31.1910 C   0  0  0  0  0  0  0  0  0  0  0  0
   35.3650   19.4210   31.2340 H   0  0  0  0  0  0  0  0  0  0  0  0
   37.3860   20.1300   31.0980 C   0  0  0  0  0  0  0  0  0  0  0  0
   37.7610   19.1260   31.0720 H   0  0  0  0  0  0  0  0  0  0  0  0
   38.1820   21.2550   31.0470 C   0  0  0  0  0  0  0  0  0  0  0  0
   39.2380   21.0130   30.9760 H   0  0  0  0  0  0  0  0  0  0  0  0
   37.7160   22.5540   31.0820 C   0  0  0  0  0  0  0  0  0  0  0  0
   38.6090   23.6280   31.0230 N   0  0  0  0  0  0  0  0  0  0  0  0
   39.6200   23.3830   30.9550 H   0  0  0  0  0  0  0  0  0  0  0  0
   33.1090   29.0820   32.7710 Cl  0  0  0  0  0  0  0  0  0  0  0  0
   33.8270   30.1560   33.9640 C   0  0  0  0  0  0  0  0  0  0  0  0
   35.0410   30.7720   33.6940 C   0  0  0  0  0  0  0  0  0  0  0  0
   35.6570   31.6370   34.6120 C   0  0  0  0  0  0  0  0  0  0  0  0
   34.9830   31.8440   35.8130 C   0  0  0  0  0  0  0  0  0  0  0  0
   33.7820   31.2460   36.1000 C   0  0  0  0  0  0  0  0  0  0  0  0
   33.0340   31.5850   37.6420 Cl  0  0  0  0  0  0  0  0  0  0  0  0
   33.2130   30.4010   35.1630 C   0  0  0  0  0  0  0  0  0  0  0  0
   36.6010   32.1170   34.4060 H   0  0  0  0  0  0  0  0  0  0  0  0
   35.4550   32.5110   36.5260 H   0  0  0  0  0  0  0  0  0  0  0  0
   31.9150   29.7460   35.4610 C   0  0  0  0  0  0  0  0  0  0  0  0
   32.1220   28.4460   35.9240 F   0  0  0  0  0  0  0  0  0  0  0  0
   31.0760   29.7380   34.3910 F   0  0  0  0  0  0  0  0  0  0  0  0
   31.2770   30.4270   36.4990 F   0  0  0  0  0  0  0  0  0  0  0  0
   37.7460   29.8230   28.7790 C   0  0  0  0  0  0  0  0  0  0  0  0
   37.4220   28.5950   28.2380 F   0  0  0  0  0  0  0  0  0  0  0  0
   37.3820   30.8250   27.8890 F   0  0  0  0  0  0  0  0  0  0  0  0
   39.1250   29.8890   28.9020 F   0  0  0  0  0  0  0  0  0  0  0  0
  1  6  1  0  0  0  0
  2  1  2  0  0  0  0
  2  3  1  0  0  0  0
  3  8  1  0  0  0  0
  3  4  2  0  0  0  0
  4  5  1  0  0  0  0
  5 32  1  0  0  0  0
  6  5  2  0  0  0  0
  7  1  1  0  0  0  0
  8 15  1  0  0  0  0
  9  8  2  0  0  0  0
 10  9  1  0  0  0  0
 11  9  1  0  0  0  0
 11 13  2  0  0  0  0
 12 11  1  0  0  0  0
 13 14  1  0  0  0  0
 14 15  2  0  0  0  0
 14 17  1  0  0  0  0
 15 16  1  0  0  0  0
 18 19  1  0  0  0  0
 18 17  1  0  0  0  0
 19 20  1  0  0  0  0
 21 19  2  0  0  0  0
 21 22  1  0  0  0  0
 23 21  1  0  0  0  0
 24 23  1  0  0  0  0
 25 27  1  0  0  0  0
 25 23  2  0  0  0  0
 26 25  1  0  0  0  0
 27 18  2  0  0  0  0
 28 13  1  0  0  0  0
 28 27  1  0  0  0  0
 29 28  1  0  0  0  0
 30 31  1  0  0  0  0
 31 37  1  0  0  0  0
 32 31  2  0  0  0  0
 32 33  1  0  0  0  0
 33 34  2  0  0  0  0
 34 35  1  0  0  0  0
 34 39  1  0  0  0  0
 35 36  1  0  0  0  0
 37 40  1  0  0  0  0
 37 35  2  0  0  0  0
 38 33  1  0  0  0  0
 40 41  1  0  0  0  0
 40 43  1  0  0  0  0
 42 40  1  0  0  0  0
 44 47  1  0  0  0  0
 44  2  1  0  0  0  0
 45 44  1  0  0  0  0
 46 44  1  0  0  0  0
M  END
>  <minimizedAffinity>
-7.30644035

$$$$

 OpenBabel03272500203D

 47 51  0  0  0  0  0  0  0  0999 V2000
   36.0820   29.8090   31.1940 C   0  0  0  0  0  0  0  0  0  0  0  0
   36.7650   28.6100   31.4760 C   0  0  0  0  0  0  0  0  0  0  0  0
   36.9350   28.2450   32.8030 C   0  0  0  0  0  0  0  0  0  0  0  0
   36.4310   29.0700   33.7680 N   0  0  0  0  0  0  0  0  0  0  0  0
   35.7890   30.1990   33.4740 C   0  0  0  0  0  0  0  0  0  0  0  0
   35.6150   30.5670   32.2050 N   0  0  0  0  0  0  0  0  0  0  0  0
   35.9620   30.0720   30.1530 H   0  0  0  0  0  0  0  0  0  0  0  0
   37.5480   27.0610   33.3520 C   0  0  0  0  0  0  0  0  0  0  0  0
   37.1220   25.8200   33.7520 C   0  0  0  0  0  0  0  0  0  0  0  0
   36.0980   25.6150   33.5720 H   0  0  0  0  0  0  0  0  0  0  0  0
   37.9510   24.8770   34.3080 C   0  0  0  0  0  0  0  0  0  0  0  0
   37.4640   23.9340   34.5790 H   0  0  0  0  0  0  0  0  0  0  0  0
   39.2950   25.1090   34.5100 C   0  0  0  0  0  0  0  0  0  0  0  0
   39.7850   26.3350   34.1280 C   0  0  0  0  0  0  0  0  0  0  0  0
   38.9320   27.2330   33.5840 C   0  0  0  0  0  0  0  0  0  0  0  0
   39.4460   28.1750   33.3200 H   0  0  0  0  0  0  0  0  0  0  0  0
   41.5200   26.6490   34.3800 S   0  0  0  0  0  0  0  0  0  0  0  0
   42.1840   25.1690   35.1160 C   0  0  0  0  0  0  0  0  0  0  0  0
   43.5300   25.2390   35.3820 C   0  0  0  0  0  0  0  0  0  0  0  0
   44.1640   26.0910   35.1810 H   0  0  0  0  0  0  0  0  0  0  0  0
   44.1490   24.1300   35.9600 C   0  0  0  0  0  0  0  0  0  0  0  0
   45.2050   24.1470   36.1830 H   0  0  0  0  0  0  0  0  0  0  0  0
   43.3790   23.0200   36.2360 C   0  0  0  0  0  0  0  0  0  0  0  0
   43.8820   22.1830   36.6780 H   0  0  0  0  0  0  0  0  0  0  0  0
   42.0340   23.0440   35.9320 C   0  0  0  0  0  0  0  0  0  0  0  0
   41.5340   22.1160   36.1930 H   0  0  0  0  0  0  0  0  0  0  0  0
   41.3730   24.1120   35.3600 C   0  0  0  0  0  0  0  0  0  0  0  0
   40.0030   24.0350   35.0930 N   0  0  0  0  0  0  0  0  0  0  0  0
   39.5340   23.1390   35.3480 H   0  0  0  0  0  0  0  0  0  0  0  0
   33.1220   29.3760   34.6390 Cl  0  0  0  0  0  0  0  0  0  0  0  0
   34.0690   30.7560   35.1800 C   0  0  0  0  0  0  0  0  0  0  0  0
   35.2820   31.0400   34.5700 C   0  0  0  0  0  0  0  0  0  0  0  0
   36.0760   32.1280   34.9650 C   0  0  0  0  0  0  0  0  0  0  0  0
   35.5800   32.9090   36.0050 C   0  0  0  0  0  0  0  0  0  0  0  0
   34.3820   32.6470   36.6220 C   0  0  0  0  0  0  0  0  0  0  0  0
   33.8670   33.7010   37.9160 Cl  0  0  0  0  0  0  0  0  0  0  0  0
   33.6340   31.5620   36.1980 C   0  0  0  0  0  0  0  0  0  0  0  0
   37.0200   32.3530   34.4930 H   0  0  0  0  0  0  0  0  0  0  0  0
   36.1890   33.7520   36.3140 H   0  0  0  0  0  0  0  0  0  0  0  0
   32.3380   31.2660   36.8570 C   0  0  0  0  0  0  0  0  0  0  0  0
   32.5470   30.5730   38.0500 F   0  0  0  0  0  0  0  0  0  0  0  0
   31.4890   30.5730   36.0510 F   0  0  0  0  0  0  0  0  0  0  0  0
   31.7100   32.4610   37.2110 F   0  0  0  0  0  0  0  0  0  0  0  0
   37.2570   27.7610   30.3600 C   0  0  0  0  0  0  0  0  0  0  0  0
   38.6340   27.6590   30.3590 F   0  0  0  0  0  0  0  0  0  0  0  0
   36.7040   26.4930   30.4780 F   0  0  0  0  0  0  0  0  0  0  0  0
   36.8610   28.2490   29.1250 F   0  0  0  0  0  0  0  0  0  0  0  0
  1  2  2  0  0  0  0
  1  6  1  0  0  0  0
  2  3  1  0  0  0  0
  3  8  1  0  0  0  0
  3  4  2  0  0  0  0
  5  4  1  0  0  0  0
  5 32  1  0  0  0  0
  6  5  2  0  0  0  0
  7  1  1  0  0  0  0
  8 15  2  0  0  0  0
  8  9  1  0  0  0  0
  9 11  2  0  0  0  0
 10  9  1  0  0  0  0
 11 13  1  0  0  0  0
 11 12  1  0  0  0  0
 13 28  1  0  0  0  0
 14 17  1  0  0  0  0
 14 13  2  0  0  0  0
 15 14  1  0  0  0  0
 16 15  1  0  0  0  0
 17 18  1  0  0  0  0
 18 27  2  0  0  0  0
 18 19  1  0  0  0  0
 19 21  2  0  0  0  0
 20 19  1  0  0  0  0
 21 22  1  0  0  0  0
 21 23  1  0  0  0  0
 23 24  1  0  0  0  0
 25 26  1  0  0  0  0
 25 23  2  0  0  0  0
 27 25  1  0  0  0  0
 28 29  1  0  0  0  0
 28 27  1  0  0  0  0
 30 31  1  0  0  0  0
 31 37  1  0  0  0  0
 32 33  1  0  0  0  0
 32 31  2  0  0  0  0
 33 34  2  0  0  0  0
 34 39  1  0  0  0  0
 34 35  1  0  0  0  0
 35 36  1  0  0  0  0
 37 35  2  0  0  0  0
 37 40  1  0  0  0  0
 38 33  1  0  0  0  0
 40 43  1  0  0  0  0
 40 41  1  0  0  0  0
 42 40  1  0  0  0  0
 44 46  1  0  0  0  0
 44  2  1  0  0  0  0
 45 44  1  0  0  0  0
 47 44  1  0  0  0  0
M  END
>  <minimizedAffinity>
-7.27189112

$$$$

 OpenBabel03272500203D

 47 51  0  0  0  0  0  0  0  0999 V2000
   38.4000   24.3740   35.0850 C   0  0  0  0  0  0  0  0  0  0  0  0
   38.1230   25.6740   34.6180 C   0  0  0  0  0  0  0  0  0  0  0  0
   37.6240   25.8200   33.3330 C   0  0  0  0  0  0  0  0  0  0  0  0
   37.4280   24.6940   32.5850 N   0  0  0  0  0  0  0  0  0  0  0  0
   37.6990   23.4750   33.0510 C   0  0  0  0  0  0  0  0  0  0  0  0
   38.1790   23.3140   34.2840 N   0  0  0  0  0  0  0  0  0  0  0  0
   38.7880   24.2870   36.0890 H   0  0  0  0  0  0  0  0  0  0  0  0
   37.2200   27.0190   32.6410 C   0  0  0  0  0  0  0  0  0  0  0  0
   36.2310   27.9590   32.7840 C   0  0  0  0  0  0  0  0  0  0  0  0
   35.6240   27.8480   33.6450 H   0  0  0  0  0  0  0  0  0  0  0  0
   36.0470   29.0040   31.9120 C   0  0  0  0  0  0  0  0  0  0  0  0
   35.2140   29.6710   32.1570 H   0  0  0  0  0  0  0  0  0  0  0  0
   36.8550   29.1910   30.8100 C   0  0  0  0  0  0  0  0  0  0  0  0
   37.8670   28.2830   30.6120 C   0  0  0  0  0  0  0  0  0  0  0  0
   38.0110   27.2690   31.4960 C   0  0  0  0  0  0  0  0  0  0  0  0
   38.8570   26.6120   31.2280 H   0  0  0  0  0  0  0  0  0  0  0  0
   38.9210   28.5130   29.1940 S   0  0  0  0  0  0  0  0  0  0  0  0
   38.3170   29.9690   28.3660 C   0  0  0  0  0  0  0  0  0  0  0  0
   39.0240   30.2960   27.2340 C   0  0  0  0  0  0  0  0  0  0  0  0
   39.8720   29.7490   26.8470 H   0  0  0  0  0  0  0  0  0  0  0  0
   38.6320   31.4230   26.5110 C   0  0  0  0  0  0  0  0  0  0  0  0
   39.1630   31.7110   25.6160 H   0  0  0  0  0  0  0  0  0  0  0  0
   37.5540   32.1510   26.9660 C   0  0  0  0  0  0  0  0  0  0  0  0
   37.2760   33.0120   26.3900 H   0  0  0  0  0  0  0  0  0  0  0  0
   36.9070   31.7450   28.1140 C   0  0  0  0  0  0  0  0  0  0  0  0
   36.0770   32.3950   28.3740 H   0  0  0  0  0  0  0  0  0  0  0  0
   37.2530   30.6410   28.8670 C   0  0  0  0  0  0  0  0  0  0  0  0
   36.5280   30.3140   30.0170 N   0  0  0  0  0  0  0  0  0  0  0  0
   35.7340   30.9450   30.2570 H   0  0  0  0  0  0  0  0  0  0  0  0
   35.6150   21.5060   34.0140 Cl  0  0  0  0  0  0  0  0  0  0  0  0
   36.5360   21.3430   32.5250 C   0  0  0  0  0  0  0  0  0  0  0  0
   37.4690   22.3100   32.1830 C   0  0  0  0  0  0  0  0  0  0  0  0
   38.2290   22.2270   31.0050 C   0  0  0  0  0  0  0  0  0  0  0  0
   37.9950   21.1190   30.1950 C   0  0  0  0  0  0  0  0  0  0  0  0
   37.0770   20.1500   30.5150 C   0  0  0  0  0  0  0  0  0  0  0  0
   36.8740   18.8060   29.4180 Cl  0  0  0  0  0  0  0  0  0  0  0  0
   36.3510   20.2750   31.6870 C   0  0  0  0  0  0  0  0  0  0  0  0
   38.9560   22.9770   30.7350 H   0  0  0  0  0  0  0  0  0  0  0  0
   38.5790   21.0500   29.2840 H   0  0  0  0  0  0  0  0  0  0  0  0
   35.3540   19.2350   32.0440 C   0  0  0  0  0  0  0  0  0  0  0  0
   35.4920   18.8710   33.3840 F   0  0  0  0  0  0  0  0  0  0  0  0
   35.4350   18.1370   31.2460 F   0  0  0  0  0  0  0  0  0  0  0  0
   34.0670   19.7600   31.9200 F   0  0  0  0  0  0  0  0  0  0  0  0
   38.3420   26.8410   35.5100 C   0  0  0  0  0  0  0  0  0  0  0  0
   37.2860   27.7300   35.4670 F   0  0  0  0  0  0  0  0  0  0  0  0
   38.5080   26.3910   36.8130 F   0  0  0  0  0  0  0  0  0  0  0  0
   39.4990   27.5330   35.1840 F   0  0  0  0  0  0  0  0  0  0  0  0
  1  7  1  0  0  0  0
  2  1  1  0  0  0  0
  2 44  1  0  0  0  0
  3  2  2  0  0  0  0
  4  5  2  0  0  0  0
  4  3  1  0  0  0  0
  5  6  1  0  0  0  0
  6  1  2  0  0  0  0
  8  9  1  0  0  0  0
  8  3  1  0  0  0  0
  9 10  1  0  0  0  0
 11 12  1  0  0  0  0
 11  9  2  0  0  0  0
 13 11  1  0  0  0  0
 14 13  2  0  0  0  0
 14 15  1  0  0  0  0
 15  8  2  0  0  0  0
 16 15  1  0  0  0  0
 17 14  1  0  0  0  0
 18 27  1  0  0  0  0
 18 17  1  0  0  0  0
 19 18  2  0  0  0  0
 20 19  1  0  0  0  0
 21 23  2  0  0  0  0
 21 19  1  0  0  0  0
 22 21  1  0  0  0  0
 23 25  1  0  0  0  0
 24 23  1  0  0  0  0
 25 26  1  0  0  0  0
 25 27  2  0  0  0  0
 27 28  1  0  0  0  0
 28 29  1  0  0  0  0
 28 13  1  0  0  0  0
 31 30  1  0  0  0  0
 32 31  1  0  0  0  0
 32  5  1  0  0  0  0
 33 32  2  0  0  0  0
 34 35  2  0  0  0  0
 34 33  1  0  0  0  0
 35 37  1  0  0  0  0
 36 35  1  0  0  0  0
 37 40  1  0  0  0  0
 37 31  2  0  0  0  0
 38 33  1  0  0  0  0
 39 34  1  0  0  0  0
 40 41  1  0  0  0  0
 42 40  1  0  0  0  0
 43 40  1  0  0  0  0
 44 46  1  0  0  0  0
 45 44  1  0  0  0  0
 47 44  1  0  0  0  0
M  END
>  <minimizedAffinity>
-7.25836563

$$$$
