REMARK  Name = 
REMARK  4 active torsions:
REMARK  status: ('A' for Active; 'I' for Inactive)
REMARK    1  A    between atoms: C_3  and  C_13
REMARK    2  A    between atoms: C_8  and  C_19
REMARK    3  A    between atoms: C_10  and  C_15
REMARK    4  A    between atoms: C_11  and  C_26
REMARK                            x       y       z     vdW  Elec       q    Type
REMARK                         _______ _______ _______ _____ _____    ______ ____
ROOT
ATOM      1  C   UNL     1      35.397  29.291  50.438  0.00  0.00    +0.000 A 
ATOM      2  C   UNL     1      36.333  30.122  49.791  0.00  0.00    +0.000 A 
ATOM      3  C   UNL     1      36.300  30.199  48.407  0.00  0.00    +0.000 A 
ATOM      4  N   UNL     1      35.361  29.463  47.742  0.00  0.00    +0.000 NA
ATOM      5  C   UNL     1      34.487  28.684  48.378  0.00  0.00    +0.000 A 
ATOM      6  N   UNL     1      34.502  28.597  49.708  0.00  0.00    +0.000 NA
ATOM      7  H   UNL     1      35.443  29.248  51.516  0.00  0.00    +0.000 HD
ENDROOT
BRANCH   3   8
ATOM      8  C   UNL     1      37.106  30.999  47.518  0.00  0.00    +0.000 A 
ATOM      9  C   UNL     1      37.540  32.300  47.476  0.00  0.00    +0.000 A 
ATOM     10  H   UNL     1      37.294  32.885  48.324  0.00  0.00    +0.000 HD
ATOM     11  C   UNL     1      38.278  32.819  46.441  0.00  0.00    +0.000 A 
ATOM     12  H   UNL     1      38.549  33.874  46.548  0.00  0.00    +0.000 HD
ATOM     13  C   UNL     1      38.647  32.062  45.350  0.00  0.00    +0.000 A 
ATOM     14  C   UNL     1      38.244  30.748  45.334  0.00  0.00    +0.000 A 
ATOM     15  C   UNL     1      37.518  30.279  46.374  0.00  0.00    +0.000 A 
ATOM     16  H   UNL     1      37.258  29.213  46.242  0.00  0.00    +0.000 HD
ATOM     17  S   UNL     1      38.714  29.755  43.931  0.00  0.00    +0.000 S 
ATOM     18  C   UNL     1      39.646  30.829  42.859  0.00  0.00    +0.000 A 
ATOM     19  C   UNL     1      40.091  30.218  41.713  0.00  0.00    +0.000 A 
ATOM     20  H   UNL     1      39.916  29.186  41.446  0.00  0.00    +0.000 HD
ATOM     21  C   UNL     1      40.833  30.975  40.805  0.00  0.00    +0.000 A 
ATOM     22  H   UNL     1      41.200  30.529  39.893  0.00  0.00    +0.000 HD
ATOM     23  C   UNL     1      41.082  32.297  41.103  0.00  0.00    +0.000 A 
ATOM     24  H   UNL     1      41.654  32.853  40.387  0.00  0.00    +0.000 HD
ATOM     25  C   UNL     1      40.592  32.823  42.280  0.00  0.00    +0.000 A 
ATOM     26  H   UNL     1      40.851  33.870  42.405  0.00  0.00    +0.000 HD
ATOM     27  C   UNL     1      39.854  32.121  43.212  0.00  0.00    +0.000 A 
ATOM     28  N   UNL     1      39.404  32.749  44.376  0.00  0.00    +0.000 N 
ATOM     29  H   UNL     1      39.658  33.754  44.485  0.00  0.00    +0.000 HD
ENDBRANCH   3   8
BRANCH   5  32
ATOM     30 CL   UNL     1      32.681  30.305  46.573  0.00  0.00    +0.000 Cl
ATOM     31  C   UNL     1      32.631  28.554  46.730  0.00  0.00    +0.000 A 
ATOM     32  C   UNL     1      33.510  27.915  47.592  0.00  0.00    +0.000 A 
ATOM     33  C   UNL     1      33.512  26.520  47.753  0.00  0.00    +0.000 A 
ATOM     34  C   UNL     1      32.582  25.810  46.998  0.00  0.00    +0.000 A 
ATOM     35  C   UNL     1      31.703  26.422  46.140  0.00  0.00    +0.000 A 
ATOM     36 CL   UNL     1      30.583  25.422  45.248  0.00  0.00    +0.000 Cl
ATOM     37  C   UNL     1      31.739  27.800  46.015  0.00  0.00    +0.000 A 
ATOM     38  H   UNL     1      34.194  26.019  48.422  0.00  0.00    +0.000 HD
ATOM     39  H   UNL     1      32.579  24.732  47.119  0.00  0.00    +0.000 HD
BRANCH  37  40
ATOM     40  C   UNL     1      30.795  28.475  45.090  0.00  0.00    +0.000 C 
ATOM     41  F   UNL     1      29.835  27.572  44.632  0.00  0.00    +0.000 F 
ATOM     42  F   UNL     1      31.425  29.067  44.040  0.00  0.00    +0.000 F 
ATOM     43  F   UNL     1      30.093  29.465  45.780  0.00  0.00    +0.000 F 
ENDBRANCH  37  40
ENDBRANCH   5  32
BRANCH   2  44
ATOM     44  C   UNL     1      37.303  30.907  50.597  0.00  0.00    +0.000 C 
ATOM     45  F   UNL     1      38.595  30.766  50.130  0.00  0.00    +0.000 F 
ATOM     46  F   UNL     1      36.946  32.248  50.556  0.00  0.00    +0.000 F 
ATOM     47  F   UNL     1      37.286  30.537  51.933  0.00  0.00    +0.000 F 
ENDBRANCH   2  44
TORSDOF 4
