
 OpenBabel03272500173D

 47 51  0  0  0  0  0  0  0  0999 V2000
   35.4020   29.1450   50.4810 C   0  0  0  0  0  0  0  0  0  0  0  0
   36.3050   29.9740   49.7860 C   0  0  0  0  0  0  0  0  0  0  0  0
   36.2530   29.9890   48.4000 C   0  0  0  0  0  0  0  0  0  0  0  0
   35.3280   29.1970   47.7800 N   0  0  0  0  0  0  0  0  0  0  0  0
   34.4850   28.4220   48.4620 C   0  0  0  0  0  0  0  0  0  0  0  0
   34.5190   28.3950   49.7940 N   0  0  0  0  0  0  0  0  0  0  0  0
   35.4620   29.1510   51.5590 H   0  0  0  0  0  0  0  0  0  0  0  0
   37.0250   30.7710   47.4660 C   0  0  0  0  0  0  0  0  0  0  0  0
   38.0430   31.6880   47.5470 C   0  0  0  0  0  0  0  0  0  0  0  0
   38.4330   31.8440   48.5190 H   0  0  0  0  0  0  0  0  0  0  0  0
   38.5650   32.3380   46.4560 C   0  0  0  0  0  0  0  0  0  0  0  0
   39.3720   33.0430   46.6780 H   0  0  0  0  0  0  0  0  0  0  0  0
   38.1010   32.1140   45.1770 C   0  0  0  0  0  0  0  0  0  0  0  0
   37.0820   31.2030   45.0300 C   0  0  0  0  0  0  0  0  0  0  0  0
   36.5980   30.5880   46.1320 C   0  0  0  0  0  0  0  0  0  0  0  0
   35.7860   29.8830   45.8810 H   0  0  0  0  0  0  0  0  0  0  0  0
   36.4730   30.9030   43.3820 S   0  0  0  0  0  0  0  0  0  0  0  0
   37.4300   31.9490   42.3050 C   0  0  0  0  0  0  0  0  0  0  0  0
   37.0860   31.8420   40.9800 C   0  0  0  0  0  0  0  0  0  0  0  0
   36.3150   31.1980   40.5850 H   0  0  0  0  0  0  0  0  0  0  0  0
   37.7780   32.6220   40.0530 C   0  0  0  0  0  0  0  0  0  0  0  0
   37.5360   32.5660   39.0020 H   0  0  0  0  0  0  0  0  0  0  0  0
   38.7710   33.4600   40.5120 C   0  0  0  0  0  0  0  0  0  0  0  0
   39.2840   34.0470   39.7770 H   0  0  0  0  0  0  0  0  0  0  0  0
   39.0450   33.4980   41.8630 C   0  0  0  0  0  0  0  0  0  0  0  0
   39.8440   34.1930   42.1050 H   0  0  0  0  0  0  0  0  0  0  0  0
   38.3920   32.7510   42.8220 C   0  0  0  0  0  0  0  0  0  0  0  0
   38.7470   32.8640   44.1700 N   0  0  0  0  0  0  0  0  0  0  0  0
   39.5150   33.5340   44.3890 H   0  0  0  0  0  0  0  0  0  0  0  0
   32.5540   29.9170   46.6780 Cl  0  0  0  0  0  0  0  0  0  0  0  0
   32.5890   28.1700   46.8750 C   0  0  0  0  0  0  0  0  0  0  0  0
   33.5220   27.5920   47.7230 C   0  0  0  0  0  0  0  0  0  0  0  0
   33.5930   26.2020   47.9140 C   0  0  0  0  0  0  0  0  0  0  0  0
   32.6740   25.4340   47.2040 C   0  0  0  0  0  0  0  0  0  0  0  0
   31.7430   25.9850   46.3600 C   0  0  0  0  0  0  0  0  0  0  0  0
   30.6440   24.9150   45.5250 Cl  0  0  0  0  0  0  0  0  0  0  0  0
   31.7120   27.3600   46.2040 C   0  0  0  0  0  0  0  0  0  0  0  0
   34.3160   25.7490   48.5730 H   0  0  0  0  0  0  0  0  0  0  0  0
   32.7240   24.3600   47.3490 H   0  0  0  0  0  0  0  0  0  0  0  0
   30.7110   27.9700   45.2940 C   0  0  0  0  0  0  0  0  0  0  0  0
   29.7650   27.0200   44.9060 F   0  0  0  0  0  0  0  0  0  0  0  0
   31.2800   28.5430   44.2000 F   0  0  0  0  0  0  0  0  0  0  0  0
   30.0020   28.9610   45.9760 F   0  0  0  0  0  0  0  0  0  0  0  0
   37.2620   30.8210   50.5430 C   0  0  0  0  0  0  0  0  0  0  0  0
   38.5600   30.6500   50.1070 F   0  0  0  0  0  0  0  0  0  0  0  0
   36.9020   32.1540   50.3960 F   0  0  0  0  0  0  0  0  0  0  0  0
   37.2260   30.5530   51.9030 F   0  0  0  0  0  0  0  0  0  0  0  0
  1  7  1  0  0  0  0
  2  1  2  0  0  0  0
  2 44  1  0  0  0  0
  3  2  1  0  0  0  0
  4  3  2  0  0  0  0
  4  5  1  0  0  0  0
  5  6  2  0  0  0  0
  6  1  1  0  0  0  0
  8  9  1  0  0  0  0
  8  3  1  0  0  0  0
  9 10  1  0  0  0  0
 11 12  1  0  0  0  0
 11  9  2  0  0  0  0
 13 11  1  0  0  0  0
 14 13  2  0  0  0  0
 14 15  1  0  0  0  0
 15  8  2  0  0  0  0
 16 15  1  0  0  0  0
 17 14  1  0  0  0  0
 18 27  1  0  0  0  0
 18 17  1  0  0  0  0
 19 18  2  0  0  0  0
 20 19  1  0  0  0  0
 21 23  2  0  0  0  0
 21 19  1  0  0  0  0
 22 21  1  0  0  0  0
 23 25  1  0  0  0  0
 24 23  1  0  0  0  0
 25 26  1  0  0  0  0
 25 27  2  0  0  0  0
 27 28  1  0  0  0  0
 28 29  1  0  0  0  0
 28 13  1  0  0  0  0
 30 31  1  0  0  0  0
 31 32  1  0  0  0  0
 32 33  2  0  0  0  0
 32  5  1  0  0  0  0
 33 38  1  0  0  0  0
 34 39  1  0  0  0  0
 34 33  1  0  0  0  0
 35 34  2  0  0  0  0
 36 35  1  0  0  0  0
 37 35  1  0  0  0  0
 37 31  2  0  0  0  0
 40 43  1  0  0  0  0
 40 37  1  0  0  0  0
 41 40  1  0  0  0  0
 42 40  1  0  0  0  0
 44 47  1  0  0  0  0
 45 44  1  0  0  0  0
 46 44  1  0  0  0  0
M  END
>  <minimizedAffinity>
-7.63090038

>  <minimizedRMSD>
0.620537639

$$$$
