
 OpenBabel03272507183D

 43 47  0  0  1  0  0  0  0  0999 V2000
   36.7710   30.6020   45.8540 C   0  0  0  0  0  0  0  0  0  0  0  0
   37.5260   30.6830   44.6980 C   0  0  0  0  0  0  0  0  0  0  0  0
   38.5160   31.1260   44.6990 H   0  0  0  0  0  0  0  0  0  0  0  0
   36.9910   30.1820   43.5230 C   0  0  0  0  0  0  0  0  0  0  0  0
   37.5320   30.2170   42.5830 H   0  0  0  0  0  0  0  0  0  0  0  0
   35.7270   29.6130   43.5050 C   0  0  0  0  0  0  0  0  0  0  0  0
   35.0140   29.5600   44.7030 C   0  0  0  0  0  0  0  0  0  0  0  0
   35.5030   30.0460   45.9070 C   0  0  0  0  0  0  0  0  0  0  0  0
   34.9200   29.9860   46.8170 H   0  0  0  0  0  0  0  0  0  0  0  0
   33.3810   28.8400   44.7520 S   0  0  0  0  0  0  0  0  0  0  0  0
   32.9990   28.3020   43.0930 C   0  0  0  0  0  0  0  0  0  0  0  0
   31.7640   27.7100   42.9200 C   0  0  0  0  0  0  0  0  0  0  0  0
   31.0710   27.5820   43.7380 H   0  0  0  0  0  0  0  0  0  0  0  0
   31.4070   27.2730   41.6630 C   0  0  0  0  0  0  0  0  0  0  0  0
   30.4540   26.8200   41.5470 H   0  0  0  0  0  0  0  0  0  0  0  0
   32.3290   27.4610   40.6500 C   0  0  0  0  0  0  0  0  0  0  0  0
   31.9900   27.0930   39.6720 H   0  0  0  0  0  0  0  0  0  0  0  0
   33.5620   28.0530   40.8340 C   0  0  0  0  0  0  0  0  0  0  0  0
   34.2310   28.1650   39.9910 H   0  0  0  0  0  0  0  0  0  0  0  0
   33.9400   28.5040   42.1040 C   0  0  0  0  0  0  0  0  0  0  0  0
   35.1850   29.1030   42.2980 N   0  0  0  0  0  0  0  0  0  0  0  0
   35.8050   29.1910   41.4470 H   0  0  0  0  0  0  0  0  0  0  0  0
   37.3270   31.2080   49.4690 C   0  0  0  0  0  0  0  0  0  0  0  0
   38.3300   32.1590   49.5130 C   0  0  0  0  0  0  0  0  0  0  0  0
   38.7930   32.5700   48.2380 C   0  0  0  0  0  0  0  0  0  0  0  0
   38.2570   32.0370   47.0880 N   0  0  0  0  0  0  0  0  0  0  0  0
   37.2790   31.1120   47.1280 C   0  0  0  0  0  0  0  0  0  0  0  0
   36.8020   30.6860   48.3330 N   0  0  0  0  0  0  0  0  0  0  0  0
   38.7290   32.5560   50.4130 H   0  0  0  0  0  0  0  0  0  0  0  0
   39.5650   33.3000   48.1730 H   0  0  0  0  0  0  0  0  0  0  0  0
   36.7880   30.7860   50.7990 C   0  0  1  0  0  0  0  0  0  0  0  0
   36.0760   29.5200   50.9820 C   0  0  2  0  0  0  0  0  0  0  0  0
   37.5250   29.5530   51.3590 C   0  0  0  0  0  0  0  0  0  0  0  0
   36.7780   31.6280   51.5470 H   0  0  0  0  0  0  0  0  0  0  0  0
   35.2650   29.6060   51.7680 H   0  0  0  0  0  0  0  0  0  0  0  0
   37.7360   29.5270   52.4430 H   0  0  0  0  0  0  0  0  0  0  0  0
   38.2200   29.0060   50.7000 H   0  0  0  0  0  0  0  0  0  0  0  0
   35.6920   28.8430   49.8320 O   0  0  0  0  0  0  0  0  0  0  0  0
   34.4580   28.4700   49.4120 C   0  0  0  0  0  0  0  0  0  0  0  0
   34.2810   27.5110   48.6320 O   0  0  0  0  0  0  0  0  0  0  0  0
   33.5220   29.3250   49.9940 N   0  0  0  0  0  0  0  0  0  0  0  0
   32.7990   29.0800   50.7130 H   0  0  0  0  0  0  0  0  0  0  0  0
   33.3300   30.3610   49.8570 H   0  0  0  0  0  0  0  0  0  0  0  0
  1  8  1  0  0  0  0
  1 27  1  0  0  0  0
  2  3  1  0  0  0  0
  2  1  2  0  0  0  0
  4  2  1  0  0  0  0
  5  4  1  0  0  0  0
  6  4  2  0  0  0  0
  6  7  1  0  0  0  0
  7 10  1  0  0  0  0
  7  8  2  0  0  0  0
  8  9  1  0  0  0  0
 11 10  1  0  0  0  0
 12 11  1  0  0  0  0
 12 13  1  0  0  0  0
 14 12  2  0  0  0  0
 15 14  1  0  0  0  0
 16 18  2  0  0  0  0
 16 14  1  0  0  0  0
 17 16  1  0  0  0  0
 18 20  1  0  0  0  0
 19 18  1  0  0  0  0
 20 21  1  0  0  0  0
 20 11  2  0  0  0  0
 21  6  1  0  0  0  0
 22 21  1  0  0  0  0
 23 24  1  0  0  0  0
 23 31  1  0  0  0  0
 24 29  1  0  0  0  0
 25 24  2  0  0  0  0
 26 27  2  0  0  0  0
 26 25  1  0  0  0  0
 27 28  1  0  0  0  0
 28 23  2  0  0  0  0
 30 25  1  0  0  0  0
 31 32  1  0  0  0  0
 31 33  1  0  0  0  0
 31 34  1  1  0  0  0
 32 33  1  0  0  0  0
 32 35  1  1  0  0  0
 33 36  1  0  0  0  0
 37 33  1  0  0  0  0
 38 32  1  0  0  0  0
 39 38  1  0  0  0  0
 39 41  1  0  0  0  0
 40 39  2  0  0  0  0
 41 42  1  0  0  0  0
 43 41  1  0  0  0  0
M  END
>  <minimizedAffinity>
-5.64893532

>  <minimizedRMSD>
0.295077294

$$$$
