
 OpenBabel03272507183D

 43 47  0  0  1  0  0  0  0  0999 V2000
   36.7730   30.6020   45.8530 C   0  0  0  0  0  0  0  0  0  0  0  0
   37.5290   30.6800   44.6980 C   0  0  0  0  0  0  0  0  0  0  0  0
   38.5200   31.1230   44.7000 H   0  0  0  0  0  0  0  0  0  0  0  0
   36.9960   30.1810   43.5230 C   0  0  0  0  0  0  0  0  0  0  0  0
   37.5370   30.2120   42.5830 H   0  0  0  0  0  0  0  0  0  0  0  0
   35.7310   29.6130   43.5030 C   0  0  0  0  0  0  0  0  0  0  0  0
   35.0160   29.5620   44.7010 C   0  0  0  0  0  0  0  0  0  0  0  0
   35.5050   30.0480   45.9060 C   0  0  0  0  0  0  0  0  0  0  0  0
   34.9210   29.9900   46.8140 H   0  0  0  0  0  0  0  0  0  0  0  0
   33.3820   28.8440   44.7490 S   0  0  0  0  0  0  0  0  0  0  0  0
   33.0010   28.3050   43.0890 C   0  0  0  0  0  0  0  0  0  0  0  0
   31.7660   27.7160   42.9160 C   0  0  0  0  0  0  0  0  0  0  0  0
   31.0720   27.5890   43.7320 H   0  0  0  0  0  0  0  0  0  0  0  0
   31.4100   27.2780   41.6590 C   0  0  0  0  0  0  0  0  0  0  0  0
   30.4560   26.8260   41.5410 H   0  0  0  0  0  0  0  0  0  0  0  0
   32.3330   27.4630   40.6460 C   0  0  0  0  0  0  0  0  0  0  0  0
   31.9950   27.0940   39.6680 H   0  0  0  0  0  0  0  0  0  0  0  0
   33.5660   28.0530   40.8310 C   0  0  0  0  0  0  0  0  0  0  0  0
   34.2370   28.1640   39.9890 H   0  0  0  0  0  0  0  0  0  0  0  0
   33.9440   28.5040   42.1020 C   0  0  0  0  0  0  0  0  0  0  0  0
   35.1890   29.1020   42.2960 N   0  0  0  0  0  0  0  0  0  0  0  0
   35.8100   29.1890   41.4460 H   0  0  0  0  0  0  0  0  0  0  0  0
   37.3270   31.2080   49.4680 C   0  0  0  0  0  0  0  0  0  0  0  0
   38.3300   32.1600   49.5130 C   0  0  0  0  0  0  0  0  0  0  0  0
   38.7940   32.5710   48.2380 C   0  0  0  0  0  0  0  0  0  0  0  0
   38.2580   32.0380   47.0880 N   0  0  0  0  0  0  0  0  0  0  0  0
   37.2810   31.1120   47.1280 C   0  0  0  0  0  0  0  0  0  0  0  0
   36.8030   30.6860   48.3320 N   0  0  0  0  0  0  0  0  0  0  0  0
   38.7280   32.5570   50.4130 H   0  0  0  0  0  0  0  0  0  0  0  0
   39.5650   33.3010   48.1730 H   0  0  0  0  0  0  0  0  0  0  0  0
   36.7880   30.7860   50.7980 C   0  0  1  0  0  0  0  0  0  0  0  0
   36.0750   29.5200   50.9800 C   0  0  2  0  0  0  0  0  0  0  0  0
   37.5240   29.5530   51.3580 C   0  0  0  0  0  0  0  0  0  0  0  0
   36.7780   31.6280   51.5460 H   0  0  0  0  0  0  0  0  0  0  0  0
   35.2650   29.6060   51.7660 H   0  0  0  0  0  0  0  0  0  0  0  0
   37.7360   29.5270   52.4410 H   0  0  0  0  0  0  0  0  0  0  0  0
   38.2200   29.0060   50.6990 H   0  0  0  0  0  0  0  0  0  0  0  0
   35.6920   28.8430   49.8300 O   0  0  0  0  0  0  0  0  0  0  0  0
   34.4570   28.4700   49.4110 C   0  0  0  0  0  0  0  0  0  0  0  0
   34.2810   27.5110   48.6300 O   0  0  0  0  0  0  0  0  0  0  0  0
   33.5210   29.3240   49.9930 N   0  0  0  0  0  0  0  0  0  0  0  0
   32.7980   29.0780   50.7120 H   0  0  0  0  0  0  0  0  0  0  0  0
   33.3290   30.3590   49.8570 H   0  0  0  0  0  0  0  0  0  0  0  0
  1  8  1  0  0  0  0
  1 27  1  0  0  0  0
  2  3  1  0  0  0  0
  2  1  2  0  0  0  0
  4  2  1  0  0  0  0
  5  4  1  0  0  0  0
  6  4  2  0  0  0  0
  6  7  1  0  0  0  0
  7 10  1  0  0  0  0
  7  8  2  0  0  0  0
  8  9  1  0  0  0  0
 11 10  1  0  0  0  0
 12 11  1  0  0  0  0
 12 13  1  0  0  0  0
 14 12  2  0  0  0  0
 15 14  1  0  0  0  0
 16 18  2  0  0  0  0
 16 14  1  0  0  0  0
 17 16  1  0  0  0  0
 18 20  1  0  0  0  0
 19 18  1  0  0  0  0
 20 21  1  0  0  0  0
 20 11  2  0  0  0  0
 21  6  1  0  0  0  0
 22 21  1  0  0  0  0
 23 24  1  0  0  0  0
 23 31  1  0  0  0  0
 24 29  1  0  0  0  0
 25 24  2  0  0  0  0
 26 27  2  0  0  0  0
 26 25  1  0  0  0  0
 27 28  1  0  0  0  0
 28 23  2  0  0  0  0
 30 25  1  0  0  0  0
 31 32  1  0  0  0  0
 31 33  1  0  0  0  0
 31 34  1  1  0  0  0
 32 33  1  0  0  0  0
 32 35  1  1  0  0  0
 33 36  1  0  0  0  0
 37 33  1  0  0  0  0
 38 32  1  0  0  0  0
 39 38  1  0  0  0  0
 39 41  1  0  0  0  0
 40 39  2  0  0  0  0
 41 42  1  0  0  0  0
 43 41  1  0  0  0  0
M  END
>  <minimizedAffinity>
-5.64942455

>  <minimizedRMSD>
0.264745682

$$$$
