REMARK  Name = 
REMARK  4 active torsions:
REMARK  status: ('A' for Active; 'I' for Inactive)
REMARK    1  A    between atoms: C_1  and  C_4
REMARK    2  A    between atoms: C_2  and  O_10
REMARK    3  A    between atoms: C_8  and  C_22
REMARK    4  A    between atoms: O_10  and  C_11
REMARK                            x       y       z     vdW  Elec       q    Type
REMARK                         _______ _______ _______ _____ _____    ______ ____
ROOT
ATOM      1  C   UNL     1      36.871  30.625  45.767  0.00  0.00    +0.000 A 
ATOM      2  C   UNL     1      37.639  29.746  45.023  0.00  0.00    +0.000 A 
ATOM      3  H   UNL     1      38.609  29.408  45.372  0.00  0.00    +0.000 HD
ATOM      4  C   UNL     1      37.143  29.299  43.811  0.00  0.00    +0.000 A 
ATOM      5  H   UNL     1      37.695  28.610  43.180  0.00  0.00    +0.000 HD
ATOM      6  C   UNL     1      35.905  29.721  43.351  0.00  0.00    +0.000 A 
ATOM      7  C   UNL     1      35.177  30.608  44.146  0.00  0.00    +0.000 A 
ATOM      8  C   UNL     1      35.628  31.086  45.369  0.00  0.00    +0.000 A 
ATOM      9  H   UNL     1      35.035  31.773  45.957  0.00  0.00    +0.000 HD
ATOM     10  S   UNL     1      33.576  31.193  43.616  0.00  0.00    +0.000 S 
ATOM     11  C   UNL     1      33.241  30.434  42.034  0.00  0.00    +0.000 A 
ATOM     12  C   UNL     1      32.036  30.764  41.450  0.00  0.00    +0.000 A 
ATOM     13  H   UNL     1      31.338  31.439  41.921  0.00  0.00    +0.000 HD
ATOM     14  C   UNL     1      31.717  30.212  40.229  0.00  0.00    +0.000 A 
ATOM     15  H   UNL     1      30.786  30.475  39.793  0.00  0.00    +0.000 HD
ATOM     16  C   UNL     1      32.644  29.353  39.668  0.00  0.00    +0.000 A 
ATOM     17  H   UNL     1      32.336  28.945  38.696  0.00  0.00    +0.000 HD
ATOM     18  C   UNL     1      33.847  29.030  40.262  0.00  0.00    +0.000 A 
ATOM     19  H   UNL     1      34.523  28.349  39.760  0.00  0.00    +0.000 HD
ATOM     20  C   UNL     1      34.187  29.582  41.503  0.00  0.00    +0.000 A 
ATOM     21  N   UNL     1      35.402  29.260  42.108  0.00  0.00    +0.000 N 
ATOM     22  H   UNL     1      36.030  28.592  41.583  0.00  0.00    +0.000 HD
ENDROOT
BRANCH   1  27
ATOM     23  C   UNL     1      37.327  31.212  49.399  0.00  0.00    +0.000 A 
ATOM     24  C   UNL     1      38.312  32.181  49.475  0.00  0.00    +0.000 A 
ATOM     25  C   UNL     1      38.799  32.610  48.215  0.00  0.00    +0.000 A 
ATOM     26  N   UNL     1      38.301  32.077  47.048  0.00  0.00    +0.000 NA
ATOM     27  C   UNL     1      37.339  31.134  47.057  0.00  0.00    +0.000 A 
ATOM     28  N   UNL     1      36.840  30.690  48.246  0.00  0.00    +0.000 NA
ATOM     29  H   UNL     1      38.681  32.577  50.387  0.00  0.00    +0.000 HD
ATOM     30  H   UNL     1      39.559  33.354  48.174  0.00  0.00    +0.000 HD
BRANCH  23  31
ATOM     31  C   UNL     1      36.763  30.770  50.712  0.00  0.00    +0.000 C 
ATOM     32  C   UNL     1      36.029  29.512  50.857  0.00  0.00    +0.000 C 
ATOM     33  C   UNL     1      37.473  29.514  51.255  0.00  0.00    +0.000 C 
ATOM     34  H   UNL     1      36.756  31.596  51.478  0.00  0.00    +0.000 HD
ATOM     35  H   UNL     1      35.209  29.594  51.634  0.00  0.00    +0.000 HD
ATOM     36  H   UNL     1      37.669  29.461  52.340  0.00  0.00    +0.000 HD
ATOM     37  H   UNL     1      38.169  28.970  50.593  0.00  0.00    +0.000 HD
BRANCH  32  38
ATOM     38  O   UNL     1      35.651  28.866  49.688  0.00  0.00    +0.000 OA
BRANCH  38  39
ATOM     39  C   UNL     1      34.437  28.397  49.306  0.00  0.00    +0.000 C 
ATOM     40  O   UNL     1      34.311  27.397  48.568  0.00  0.00    +0.000 OA
ATOM     41  N   UNL     1      33.456  29.213  49.870  0.00  0.00    +0.000 N 
ATOM     42  H   UNL     1      32.762  28.951  50.611  0.00  0.00    +0.000 HD
ATOM     43  H   UNL     1      33.195  30.227  49.695  0.00  0.00    +0.000 HD
ENDBRANCH  38  39
ENDBRANCH  32  38
ENDBRANCH  23  31
ENDBRANCH   1  27
TORSDOF 4
