
 OpenBabel03272507183D

 43 47  0  0  1  0  0  0  0  0999 V2000
   37.1770   30.7430   45.8520 C   0  0  0  0  0  0  0  0  0  0  0  0
   38.0920   30.7310   44.8140 C   0  0  0  0  0  0  0  0  0  0  0  0
   39.0990   31.1120   44.9440 H   0  0  0  0  0  0  0  0  0  0  0  0
   37.6970   30.2190   43.5910 C   0  0  0  0  0  0  0  0  0  0  0  0
   38.3660   30.1820   42.7370 H   0  0  0  0  0  0  0  0  0  0  0  0
   36.4130   29.7280   43.4080 C   0  0  0  0  0  0  0  0  0  0  0  0
   35.5350   29.7660   44.4930 C   0  0  0  0  0  0  0  0  0  0  0  0
   35.8810   30.2690   45.7390 C   0  0  0  0  0  0  0  0  0  0  0  0
   35.1730   30.2820   46.5570 H   0  0  0  0  0  0  0  0  0  0  0  0
   33.8680   29.1520   44.3290 S   0  0  0  0  0  0  0  0  0  0  0  0
   33.6890   28.5720   42.6490 C   0  0  0  0  0  0  0  0  0  0  0  0
   32.4540   28.0510   42.3190 C   0  0  0  0  0  0  0  0  0  0  0  0
   31.6470   27.9980   43.0330 H   0  0  0  0  0  0  0  0  0  0  0  0
   32.2510   27.5860   41.0380 C   0  0  0  0  0  0  0  0  0  0  0  0
   31.2960   27.1900   40.7990 H   0  0  0  0  0  0  0  0  0  0  0  0
   33.3170   27.6760   40.1620 C   0  0  0  0  0  0  0  0  0  0  0  0
   33.0960   27.2910   39.1570 H   0  0  0  0  0  0  0  0  0  0  0  0
   34.5480   28.1990   40.5040 C   0  0  0  0  0  0  0  0  0  0  0  0
   35.3360   28.2350   39.7610 H   0  0  0  0  0  0  0  0  0  0  0  0
   34.7710   28.6760   41.8010 C   0  0  0  0  0  0  0  0  0  0  0  0
   36.0130   29.2050   42.1530 N   0  0  0  0  0  0  0  0  0  0  0  0
   36.7520   29.2200   41.3970 H   0  0  0  0  0  0  0  0  0  0  0  0
   37.3940   31.3160   49.5080 C   0  0  0  0  0  0  0  0  0  0  0  0
   38.2890   32.3620   49.6450 C   0  0  0  0  0  0  0  0  0  0  0  0
   38.8040   32.8470   48.4170 C   0  0  0  0  0  0  0  0  0  0  0  0
   38.4130   32.2910   47.2200 N   0  0  0  0  0  0  0  0  0  0  0  0
   37.5340   31.2710   47.1700 C   0  0  0  0  0  0  0  0  0  0  0  0
   37.0120   30.7710   48.3260 N   0  0  0  0  0  0  0  0  0  0  0  0
   38.5760   32.7750   50.5790 H   0  0  0  0  0  0  0  0  0  0  0  0
   39.5000   33.6520   48.4230 H   0  0  0  0  0  0  0  0  0  0  0  0
   36.8010   30.8110   50.7850 C   0  0  1  0  0  0  0  0  0  0  0  0
   36.0640   29.5480   50.8530 C   0  0  2  0  0  0  0  0  0  0  0  0
   37.4990   29.5300   51.2820 C   0  0  0  0  0  0  0  0  0  0  0  0
   36.7770   31.5990   51.5900 H   0  0  0  0  0  0  0  0  0  0  0  0
   35.2270   29.5930   51.6150 H   0  0  0  0  0  0  0  0  0  0  0  0
   37.6710   29.4240   52.3670 H   0  0  0  0  0  0  0  0  0  0  0  0
   38.2100   29.0180   50.6100 H   0  0  0  0  0  0  0  0  0  0  0  0
   35.7120   28.9600   49.6460 O   0  0  0  0  0  0  0  0  0  0  0  0
   34.5050   28.5210   49.2110 C   0  0  0  0  0  0  0  0  0  0  0  0
   34.3930   27.6070   48.3670 O   0  0  0  0  0  0  0  0  0  0  0  0
   33.5130   29.2570   49.8590 N   0  0  0  0  0  0  0  0  0  0  0  0
   32.8210   28.9060   50.5640 H   0  0  0  0  0  0  0  0  0  0  0  0
   33.2390   30.2810   49.7960 H   0  0  0  0  0  0  0  0  0  0  0  0
  1 27  1  0  0  0  0
  2  3  1  0  0  0  0
  2  1  2  0  0  0  0
  4  2  1  0  0  0  0
  5  4  1  0  0  0  0
  6  4  2  0  0  0  0
  6  7  1  0  0  0  0
  7  8  2  0  0  0  0
  8  1  1  0  0  0  0
  8  9  1  0  0  0  0
 10  7  1  0  0  0  0
 11 10  1  0  0  0  0
 12 11  1  0  0  0  0
 12 13  1  0  0  0  0
 14 12  2  0  0  0  0
 15 14  1  0  0  0  0
 16 18  2  0  0  0  0
 16 14  1  0  0  0  0
 17 16  1  0  0  0  0
 18 20  1  0  0  0  0
 19 18  1  0  0  0  0
 20 21  1  0  0  0  0
 20 11  2  0  0  0  0
 21  6  1  0  0  0  0
 22 21  1  0  0  0  0
 23 24  1  0  0  0  0
 23 31  1  0  0  0  0
 24 29  1  0  0  0  0
 25 30  1  0  0  0  0
 25 24  2  0  0  0  0
 26 25  1  0  0  0  0
 27 26  2  0  0  0  0
 27 28  1  0  0  0  0
 28 23  2  0  0  0  0
 31 32  1  0  0  0  0
 31 33  1  0  0  0  0
 31 34  1  1  0  0  0
 32 33  1  0  0  0  0
 32 35  1  1  0  0  0
 33 36  1  0  0  0  0
 37 33  1  0  0  0  0
 38 32  1  0  0  0  0
 39 38  1  0  0  0  0
 39 41  1  0  0  0  0
 40 39  2  0  0  0  0
 41 42  1  0  0  0  0
 43 41  1  0  0  0  0
M  END
>  <minimizedAffinity>
-5.68350601

>  <minimizedRMSD>
1.53937125

$$$$
