
     RDKit          3D

 43 47  0  0  0  0  0  0  0  0999 V2000
   36.7629   30.7696   50.7125 C   0  0  1  0  0  0  0  0  0  0  0  0
   36.0290   29.5122   50.8571 C   0  0  2  0  0  0  0  0  0  0  0  0
   37.4726   29.5141   51.2548 C   0  0  0  0  0  0  0  0  0  0  0  0
   37.3267   31.2119   49.3990 C   0  0  0  0  0  0  0  0  0  0  0  0
   38.3122   32.1807   49.4752 C   0  0  0  0  0  0  0  0  0  0  0  0
   38.7986   32.6098   48.2145 C   0  0  0  0  0  0  0  0  0  0  0  0
   38.3009   32.0773   47.0479 N   0  0  0  0  0  0  0  0  0  0  0  0
   37.3390   31.1336   47.0568 C   0  0  0  0  0  0  0  0  0  0  0  0
   36.8403   30.6899   48.2457 N   0  0  0  0  0  0  0  0  0  0  0  0
   35.6508   28.8657   49.6881 O   0  0  0  0  0  0  0  0  0  0  0  0
   34.4370   28.3969   49.3057 C   0  0  0  0  0  0  0  0  0  0  0  0
   34.3114   27.3966   48.5682 O   0  0  0  0  0  0  0  0  0  0  0  0
   33.4557   29.2127   49.8704 N   0  0  0  0  0  0  0  0  0  0  0  0
   36.7562   31.5955   51.4780 H   0  0  0  0  0  0  0  0  0  0  0  0
   35.2086   29.5941   51.6340 H   0  0  0  0  0  0  0  0  0  0  0  0
   37.6685   29.4612   52.3403 H   0  0  0  0  0  0  0  0  0  0  0  0
   38.1695   28.9701   50.5926 H   0  0  0  0  0  0  0  0  0  0  0  0
   38.6811   32.5768   50.3868 H   0  0  0  0  0  0  0  0  0  0  0  0
   39.5595   33.3543   48.1736 H   0  0  0  0  0  0  0  0  0  0  0  0
   32.7622   28.9509   50.6114 H   0  0  0  0  0  0  0  0  0  0  0  0
   33.1949   30.2270   49.6952 H   0  0  0  0  0  0  0  0  0  0  0  0
   36.8708   30.6245   45.7669 C   0  0  0  0  0  0  0  0  0  0  0  0
   37.1575   31.2904   44.5883 C   0  0  0  0  0  0  0  0  0  0  0  0
   37.7364   32.2078   44.5834 H   0  0  0  0  0  0  0  0  0  0  0  0
   36.6875   30.7604   43.3995 C   0  0  0  0  0  0  0  0  0  0  0  0
   36.8774   31.2335   42.4417 H   0  0  0  0  0  0  0  0  0  0  0  0
   35.9461   29.5888   43.3881 C   0  0  0  0  0  0  0  0  0  0  0  0
   35.6898   28.9631   44.6093 C   0  0  0  0  0  0  0  0  0  0  0  0
   36.1374   29.4524   45.8289 C   0  0  0  0  0  0  0  0  0  0  0  0
   35.9183   28.9386   46.7554 H   0  0  0  0  0  0  0  0  0  0  0  0
   34.7417   27.4514   44.6697 S   0  0  0  0  0  0  0  0  0  0  0  0
   34.2957   27.0488   42.9877 C   0  0  0  0  0  0  0  0  0  0  0  0
   33.5506   25.8999   42.8203 C   0  0  0  0  0  0  0  0  0  0  0  0
   33.2556   25.2824   43.6552 H   0  0  0  0  0  0  0  0  0  0  0  0
   33.1737   25.5328   41.5464 C   0  0  0  0  0  0  0  0  0  0  0  0
   32.6008   24.6464   41.4346 H   0  0  0  0  0  0  0  0  0  0  0  0
   33.5767   26.3569   40.5124 C   0  0  0  0  0  0  0  0  0  0  0  0
   33.2474   26.0144   39.5218 H   0  0  0  0  0  0  0  0  0  0  0  0
   34.3220   27.5041   40.6920 C   0  0  0  0  0  0  0  0  0  0  0  0
   34.6002   28.0994   39.8310 H   0  0  0  0  0  0  0  0  0  0  0  0
   34.7135   27.8918   41.9788 C   0  0  0  0  0  0  0  0  0  0  0  0
   35.4671   29.0505   42.1673 N   0  0  0  0  0  0  0  0  0  0  0  0
   35.7154   29.5998   41.2993 H   0  0  0  0  0  0  0  0  0  0  0  0
  1  2  1  0
  1  3  1  0
  2  3  1  0
  4  5  2  0
  4  1  1  0
  6  5  1  0
  7  6  2  0
  8  7  1  0
  8  9  2  0
  9  4  1  0
 10  2  1  0
 11 10  1  0
 11 13  1  0
 12 11  2  0
  1 14  1  1
  2 15  1  1
  3 16  1  0
  3 17  1  0
  5 18  1  0
  6 19  1  0
 13 20  1  0
 13 21  1  0
 22 23  2  0
 23 24  1  0
 23 25  1  0
 25 26  1  0
 25 27  2  0
 27 28  1  0
 28 29  2  0
 29 30  1  0
 28 31  1  0
 31 32  1  0
 32 33  2  0
 33 34  1  0
 33 35  1  0
 35 36  1  0
 35 37  2  0
 37 38  1  0
 37 39  1  0
 39 40  1  0
 39 41  2  0
 41 42  1  0
 42 43  1  0
 29 22  1  0
 41 32  1  0
 42 27  1  0
  8 22  1  0
M  ISO  8  14  13  15  13  16  13  17  13  18  14  19  14  24  16  26  16
M  ISO  6  30  16  34  16  36  16  38  16  40  16  43   5
M  END
>  <DihAtoms>  (1) 
6,7,21,22

>  <DihDeg>  (1) 
179.99429365465033

$$$$
