
 OpenBabel03272500283D

 47 51  0  0  0  0  0  0  0  0999 V2000
   37.2220   27.5920   33.6540 C   0  0  0  0  0  0  0  0  0  0  0  0
   36.6190   27.2390   32.4900 C   0  0  0  0  0  0  0  0  0  0  0  0
   35.4820   27.9020   32.0050 C   0  0  0  0  0  0  0  0  0  0  0  0
   35.0310   28.9310   32.8010 N   0  0  0  0  0  0  0  0  0  0  0  0
   35.6350   29.2700   33.9500 C   0  0  0  0  0  0  0  0  0  0  0  0
   36.7300   28.5950   34.3690 N   0  0  0  0  0  0  0  0  0  0  0  0
   36.9260   26.4430   31.8250 H   0  0  0  0  0  0  0  0  0  0  0  0
   34.9800   27.6510   31.0920 H   0  0  0  0  0  0  0  0  0  0  0  0
   35.1350   30.3670   34.7750 C   0  0  0  0  0  0  0  0  0  0  0  0
   35.9860   31.0590   35.6040 C   0  0  0  0  0  0  0  0  0  0  0  0
   37.0320   30.7910   35.6460 H   0  0  0  0  0  0  0  0  0  0  0  0
   35.4730   32.0880   36.3660 C   0  0  0  0  0  0  0  0  0  0  0  0
   36.2020   32.5920   36.9990 H   0  0  0  0  0  0  0  0  0  0  0  0
   34.1570   32.4880   36.3670 C   0  0  0  0  0  0  0  0  0  0  0  0
   33.3430   31.7700   35.5270 C   0  0  0  0  0  0  0  0  0  0  0  0
   33.8110   30.7520   34.7610 C   0  0  0  0  0  0  0  0  0  0  0  0
   33.1160   30.2120   34.1060 H   0  0  0  0  0  0  0  0  0  0  0  0
   31.6160   32.1920   35.4370 S   0  0  0  0  0  0  0  0  0  0  0  0
   31.3710   33.5520   36.5590 C   0  0  0  0  0  0  0  0  0  0  0  0
   30.1410   34.0900   36.7040 C   0  0  0  0  0  0  0  0  0  0  0  0
   29.2900   33.7040   36.1410 H   0  0  0  0  0  0  0  0  0  0  0  0
   29.8770   35.1370   37.5470 C   0  0  0  0  0  0  0  0  0  0  0  0
   28.9130   35.6080   37.7030 H   0  0  0  0  0  0  0  0  0  0  0  0
   30.9360   35.6470   38.2720 C   0  0  0  0  0  0  0  0  0  0  0  0
   30.7770   36.4690   38.9480 H   0  0  0  0  0  0  0  0  0  0  0  0
   32.1850   35.0790   38.1060 C   0  0  0  0  0  0  0  0  0  0  0  0
   32.9730   35.5270   38.7060 H   0  0  0  0  0  0  0  0  0  0  0  0
   32.4520   34.0260   37.2580 C   0  0  0  0  0  0  0  0  0  0  0  0
   33.7870   33.5620   37.2060 N   0  0  0  0  0  0  0  0  0  0  0  0
   34.5120   34.0120   37.7900 H   0  0  0  0  0  0  0  0  0  0  0  0
   38.3780   26.8920   34.1130 C   0  0  0  0  0  0  0  0  0  0  0  0
   38.4960   27.1060   35.2170 H   0  0  0  0  0  0  0  0  0  0  0  0
   39.3080   27.3730   33.6840 H   0  0  0  0  0  0  0  0  0  0  0  0
   38.5280   25.4530   33.8870 C   0  0  0  0  0  0  0  0  0  0  0  0
   37.7570   25.0620   33.1600 H   0  0  0  0  0  0  0  0  0  0  0  0
   39.4950   25.1950   33.4070 H   0  0  0  0  0  0  0  0  0  0  0  0
   38.3670   24.6070   35.0900 C   0  0  0  0  0  0  0  0  0  0  0  0
   38.1260   23.2470   34.9620 C   0  0  0  0  0  0  0  0  0  0  0  0
   38.0210   22.7130   36.2190 C   0  0  0  0  0  0  0  0  0  0  0  0
   38.1920   23.7220   37.0770 N   0  0  0  0  0  0  0  0  0  0  0  0
   38.3930   24.8160   36.3860 N   0  0  0  0  0  0  0  0  0  0  0  0
   38.0140   22.5710   34.1080 H   0  0  0  0  0  0  0  0  0  0  0  0
   37.8410   21.7210   36.5990 H   0  0  0  0  0  0  0  0  0  0  0  0
   38.1740   23.6920   38.5490 C   0  0  0  0  0  0  0  0  0  0  0  0
   37.3740   22.6790   39.0010 F   0  0  0  0  0  0  0  0  0  0  0  0
   37.7070   24.8920   39.0640 F   0  0  0  0  0  0  0  0  0  0  0  0
   39.4500   23.4720   39.0570 F   0  0  0  0  0  0  0  0  0  0  0  0
  1 31  1  0  0  0  0
  1  6  1  0  0  0  0
  2  1  2  0  0  0  0
  3  2  1  0  0  0  0
  3  4  2  0  0  0  0
  4  5  1  0  0  0  0
  5  6  2  0  0  0  0
  5  9  1  0  0  0  0
  7  2  1  0  0  0  0
  8  3  1  0  0  0  0
  9 10  1  0  0  0  0
 10 11  1  0  0  0  0
 10 12  2  0  0  0  0
 12 14  1  0  0  0  0
 12 13  1  0  0  0  0
 14 29  1  0  0  0  0
 15 14  2  0  0  0  0
 16  9  2  0  0  0  0
 16 15  1  0  0  0  0
 17 16  1  0  0  0  0
 18 15  1  0  0  0  0
 18 19  1  0  0  0  0
 19 20  2  0  0  0  0
 19 28  1  0  0  0  0
 20 22  1  0  0  0  0
 21 20  1  0  0  0  0
 22 23  1  0  0  0  0
 22 24  2  0  0  0  0
 24 25  1  0  0  0  0
 26 24  1  0  0  0  0
 26 27  1  0  0  0  0
 28 26  2  0  0  0  0
 29 28  1  0  0  0  0
 29 30  1  0  0  0  0
 31 32  1  0  0  0  0
 33 31  1  0  0  0  0
 34 31  1  0  0  0  0
 34 37  1  0  0  0  0
 35 34  1  0  0  0  0
 36 34  1  0  0  0  0
 37 41  2  0  0  0  0
 38 37  1  0  0  0  0
 38 39  2  0  0  0  0
 39 43  1  0  0  0  0
 39 40  1  0  0  0  0
 40 44  1  0  0  0  0
 41 40  1  0  0  0  0
 42 38  1  0  0  0  0
 44 45  1  0  0  0  0
 44 47  1  0  0  0  0
 44 46  1  0  0  0  0
M  END
>  <minimizedAffinity>
-7.05502319

$$$$

 OpenBabel03272500283D

 47 51  0  0  0  0  0  0  0  0999 V2000
   37.6510   27.2190   33.1470 C   0  0  0  0  0  0  0  0  0  0  0  0
   37.3340   26.6630   31.9500 C   0  0  0  0  0  0  0  0  0  0  0  0
   36.1630   27.0000   31.2550 C   0  0  0  0  0  0  0  0  0  0  0  0
   35.3680   27.9330   31.8820 N   0  0  0  0  0  0  0  0  0  0  0  0
   35.6920   28.4760   33.0660 C   0  0  0  0  0  0  0  0  0  0  0  0
   36.8350   28.1120   33.6910 N   0  0  0  0  0  0  0  0  0  0  0  0
   37.9170   25.9280   31.4110 H   0  0  0  0  0  0  0  0  0  0  0  0
   35.8810   26.5820   30.3090 H   0  0  0  0  0  0  0  0  0  0  0  0
   34.8300   29.4640   33.7090 C   0  0  0  0  0  0  0  0  0  0  0  0
   33.5000   29.5530   33.3720 C   0  0  0  0  0  0  0  0  0  0  0  0
   33.0890   28.8870   32.6270 H   0  0  0  0  0  0  0  0  0  0  0  0
   32.7210   30.5000   34.0030 C   0  0  0  0  0  0  0  0  0  0  0  0
   31.6790   30.5140   33.6880 H   0  0  0  0  0  0  0  0  0  0  0  0
   33.1710   31.3810   34.9590 C   0  0  0  0  0  0  0  0  0  0  0  0
   34.5030   31.2580   35.2640 C   0  0  0  0  0  0  0  0  0  0  0  0
   35.3020   30.3380   34.6660 C   0  0  0  0  0  0  0  0  0  0  0  0
   36.3610   30.2830   34.9480 H   0  0  0  0  0  0  0  0  0  0  0  0
   35.2070   32.3420   36.4890 S   0  0  0  0  0  0  0  0  0  0  0  0
   33.8850   33.3960   37.0470 C   0  0  0  0  0  0  0  0  0  0  0  0
   34.1260   34.3330   37.9890 C   0  0  0  0  0  0  0  0  0  0  0  0
   35.1220   34.4550   38.4170 H   0  0  0  0  0  0  0  0  0  0  0  0
   33.1600   35.1780   38.4670 C   0  0  0  0  0  0  0  0  0  0  0  0
   33.2940   35.9460   39.2200 H   0  0  0  0  0  0  0  0  0  0  0  0
   31.8890   35.0450   37.9440 C   0  0  0  0  0  0  0  0  0  0  0  0
   31.0970   35.6870   38.2880 H   0  0  0  0  0  0  0  0  0  0  0  0
   31.6680   34.0790   36.9810 C   0  0  0  0  0  0  0  0  0  0  0  0
   30.6470   34.0280   36.6110 H   0  0  0  0  0  0  0  0  0  0  0  0
   32.6390   33.2270   36.5000 C   0  0  0  0  0  0  0  0  0  0  0  0
   32.2460   32.2940   35.5130 N   0  0  0  0  0  0  0  0  0  0  0  0
   31.2660   32.2720   35.1830 H   0  0  0  0  0  0  0  0  0  0  0  0
   38.8530   26.8500   33.8230 C   0  0  0  0  0  0  0  0  0  0  0  0
   38.7710   27.2060   34.8930 H   0  0  0  0  0  0  0  0  0  0  0  0
   39.7130   27.4740   33.4370 H   0  0  0  0  0  0  0  0  0  0  0  0
   39.3270   25.4640   33.8170 C   0  0  0  0  0  0  0  0  0  0  0  0
   38.9360   24.8930   32.9230 H   0  0  0  0  0  0  0  0  0  0  0  0
   40.4300   25.3910   33.7120 H   0  0  0  0  0  0  0  0  0  0  0  0
   38.9170   24.6530   34.9830 C   0  0  0  0  0  0  0  0  0  0  0  0
   38.4790   23.3480   34.8110 C   0  0  0  0  0  0  0  0  0  0  0  0
   38.1670   22.8360   36.0430 C   0  0  0  0  0  0  0  0  0  0  0  0
   38.4090   23.8040   36.9290 N   0  0  0  0  0  0  0  0  0  0  0  0
   38.8460   24.8530   36.2790 N   0  0  0  0  0  0  0  0  0  0  0  0
   38.3470   22.6990   33.9380 H   0  0  0  0  0  0  0  0  0  0  0  0
   37.7970   21.8840   36.3860 H   0  0  0  0  0  0  0  0  0  0  0  0
   38.2410   23.7760   38.3910 C   0  0  0  0  0  0  0  0  0  0  0  0
   39.4070   23.4090   39.0040 F   0  0  0  0  0  0  0  0  0  0  0  0
   37.2440   22.8860   38.7610 F   0  0  0  0  0  0  0  0  0  0  0  0
   37.8950   25.0340   38.8760 F   0  0  0  0  0  0  0  0  0  0  0  0
  1  6  1  0  0  0  0
  1 31  1  0  0  0  0
  2  1  2  0  0  0  0
  3  4  2  0  0  0  0
  3  2  1  0  0  0  0
  4  5  1  0  0  0  0
  5  6  2  0  0  0  0
  5  9  1  0  0  0  0
  7  2  1  0  0  0  0
  8  3  1  0  0  0  0
  9 16  1  0  0  0  0
 10  9  2  0  0  0  0
 10 12  1  0  0  0  0
 11 10  1  0  0  0  0
 12 14  2  0  0  0  0
 13 12  1  0  0  0  0
 14 15  1  0  0  0  0
 14 29  1  0  0  0  0
 15 18  1  0  0  0  0
 16 17  1  0  0  0  0
 16 15  2  0  0  0  0
 18 19  1  0  0  0  0
 19 20  1  0  0  0  0
 20 21  1  0  0  0  0
 20 22  2  0  0  0  0
 22 23  1  0  0  0  0
 24 25  1  0  0  0  0
 24 22  1  0  0  0  0
 26 24  2  0  0  0  0
 27 26  1  0  0  0  0
 28 26  1  0  0  0  0
 28 19  2  0  0  0  0
 29 28  1  0  0  0  0
 30 29  1  0  0  0  0
 31 32  1  0  0  0  0
 33 31  1  0  0  0  0
 34 31  1  0  0  0  0
 34 37  1  0  0  0  0
 35 34  1  0  0  0  0
 36 34  1  0  0  0  0
 37 41  2  0  0  0  0
 38 37  1  0  0  0  0
 38 39  2  0  0  0  0
 39 43  1  0  0  0  0
 39 40  1  0  0  0  0
 40 44  1  0  0  0  0
 41 40  1  0  0  0  0
 42 38  1  0  0  0  0
 44 46  1  0  0  0  0
 44 47  1  0  0  0  0
 44 45  1  0  0  0  0
M  END
>  <minimizedAffinity>
-6.92641926

$$$$

 OpenBabel03272500283D

 47 51  0  0  0  0  0  0  0  0999 V2000
   37.1870   24.8550   31.9560 C   0  0  0  0  0  0  0  0  0  0  0  0
   36.1720   24.2110   31.3250 C   0  0  0  0  0  0  0  0  0  0  0  0
   35.0330   24.8850   30.8600 C   0  0  0  0  0  0  0  0  0  0  0  0
   35.0300   26.2420   31.0940 N   0  0  0  0  0  0  0  0  0  0  0  0
   36.0390   26.8670   31.7200 C   0  0  0  0  0  0  0  0  0  0  0  0
   37.1140   26.1660   32.1470 N   0  0  0  0  0  0  0  0  0  0  0  0
   36.1200   23.1520   31.1140 H   0  0  0  0  0  0  0  0  0  0  0  0
   34.2130   24.4110   30.3590 H   0  0  0  0  0  0  0  0  0  0  0  0
   36.0100   28.3080   31.9550 C   0  0  0  0  0  0  0  0  0  0  0  0
   36.1670   29.1890   30.9110 C   0  0  0  0  0  0  0  0  0  0  0  0
   36.3130   28.8120   29.9080 H   0  0  0  0  0  0  0  0  0  0  0  0
   36.1320   30.5410   31.1770 C   0  0  0  0  0  0  0  0  0  0  0  0
   36.2630   31.1790   30.3040 H   0  0  0  0  0  0  0  0  0  0  0  0
   35.9500   31.0960   32.4230 C   0  0  0  0  0  0  0  0  0  0  0  0
   35.7990   30.1820   33.4350 C   0  0  0  0  0  0  0  0  0  0  0  0
   35.8260   28.8430   33.2130 C   0  0  0  0  0  0  0  0  0  0  0  0
   35.6990   28.1570   34.0600 H   0  0  0  0  0  0  0  0  0  0  0  0
   35.5550   30.7740   35.0970 S   0  0  0  0  0  0  0  0  0  0  0  0
   35.5750   32.5510   35.0050 C   0  0  0  0  0  0  0  0  0  0  0  0
   35.4120   33.2840   36.1280 C   0  0  0  0  0  0  0  0  0  0  0  0
   35.2680   32.8020   37.0960 H   0  0  0  0  0  0  0  0  0  0  0  0
   35.4160   34.6530   36.1350 C   0  0  0  0  0  0  0  0  0  0  0  0
   35.2900   35.2920   37.0020 H   0  0  0  0  0  0  0  0  0  0  0  0
   35.5970   35.2910   34.9230 C   0  0  0  0  0  0  0  0  0  0  0  0
   35.6070   36.3660   34.8790 H   0  0  0  0  0  0  0  0  0  0  0  0
   35.7610   34.5190   33.7880 C   0  0  0  0  0  0  0  0  0  0  0  0
   35.8990   35.0840   32.8690 H   0  0  0  0  0  0  0  0  0  0  0  0
   35.7570   33.1410   33.7800 C   0  0  0  0  0  0  0  0  0  0  0  0
   35.9390   32.5040   32.5310 N   0  0  0  0  0  0  0  0  0  0  0  0
   36.0680   33.0710   31.6760 H   0  0  0  0  0  0  0  0  0  0  0  0
   38.3300   24.1330   32.4150 C   0  0  0  0  0  0  0  0  0  0  0  0
   39.0360   24.0120   31.5400 H   0  0  0  0  0  0  0  0  0  0  0  0
   38.0410   23.0600   32.6290 H   0  0  0  0  0  0  0  0  0  0  0  0
   39.0900   24.5850   33.5820 C   0  0  0  0  0  0  0  0  0  0  0  0
   40.1870   24.3270   33.4920 H   0  0  0  0  0  0  0  0  0  0  0  0
   39.0900   25.6900   33.6910 H   0  0  0  0  0  0  0  0  0  0  0  0
   38.6750   23.9920   34.8720 C   0  0  0  0  0  0  0  0  0  0  0  0
   38.0230   22.7690   34.9040 C   0  0  0  0  0  0  0  0  0  0  0  0
   37.7580   22.4610   36.2120 C   0  0  0  0  0  0  0  0  0  0  0  0
   38.2350   23.4690   36.9450 N   0  0  0  0  0  0  0  0  0  0  0  0
   38.7660   24.3490   36.1330 N   0  0  0  0  0  0  0  0  0  0  0  0
   37.7050   22.0560   34.1360 H   0  0  0  0  0  0  0  0  0  0  0  0
   37.2790   21.6300   36.7040 H   0  0  0  0  0  0  0  0  0  0  0  0
   38.2110   23.6370   38.4070 C   0  0  0  0  0  0  0  0  0  0  0  0
   39.4460   23.3940   38.9420 F   0  0  0  0  0  0  0  0  0  0  0  0
   37.2950   22.7740   38.9920 F   0  0  0  0  0  0  0  0  0  0  0  0
   37.8570   24.9380   38.7530 F   0  0  0  0  0  0  0  0  0  0  0  0
  1  6  1  0  0  0  0
  1 31  1  0  0  0  0
  2  1  2  0  0  0  0
  3  4  2  0  0  0  0
  3  2  1  0  0  0  0
  4  5  1  0  0  0  0
  5  9  1  0  0  0  0
  5  6  2  0  0  0  0
  7  2  1  0  0  0  0
  8  3  1  0  0  0  0
  9 16  1  0  0  0  0
 10 12  1  0  0  0  0
 10  9  2  0  0  0  0
 11 10  1  0  0  0  0
 12 14  2  0  0  0  0
 13 12  1  0  0  0  0
 14 29  1  0  0  0  0
 14 15  1  0  0  0  0
 15 18  1  0  0  0  0
 16 15  2  0  0  0  0
 16 17  1  0  0  0  0
 19 18  1  0  0  0  0
 19 20  1  0  0  0  0
 20 22  2  0  0  0  0
 20 21  1  0  0  0  0
 22 23  1  0  0  0  0
 24 22  1  0  0  0  0
 25 24  1  0  0  0  0
 26 24  2  0  0  0  0
 27 26  1  0  0  0  0
 28 26  1  0  0  0  0
 28 19  2  0  0  0  0
 29 28  1  0  0  0  0
 30 29  1  0  0  0  0
 31 33  1  0  0  0  0
 31 34  1  0  0  0  0
 32 31  1  0  0  0  0
 34 36  1  0  0  0  0
 34 37  1  0  0  0  0
 35 34  1  0  0  0  0
 37 38  1  0  0  0  0
 37 41  2  0  0  0  0
 38 39  2  0  0  0  0
 39 43  1  0  0  0  0
 39 40  1  0  0  0  0
 40 44  1  0  0  0  0
 41 40  1  0  0  0  0
 42 38  1  0  0  0  0
 44 47  1  0  0  0  0
 44 45  1  0  0  0  0
 44 46  1  0  0  0  0
M  END
>  <minimizedAffinity>
-6.74175596

$$$$

 OpenBabel03272500283D

 47 51  0  0  0  0  0  0  0  0999 V2000
   37.3830   30.1880   29.7940 C   0  0  0  0  0  0  0  0  0  0  0  0
   37.8600   29.5940   28.6700 C   0  0  0  0  0  0  0  0  0  0  0  0
   38.3490   28.2800   28.6680 C   0  0  0  0  0  0  0  0  0  0  0  0
   38.3070   27.6460   29.8890 N   0  0  0  0  0  0  0  0  0  0  0  0
   37.8330   28.2440   30.9940 C   0  0  0  0  0  0  0  0  0  0  0  0
   37.3730   29.5150   30.9370 N   0  0  0  0  0  0  0  0  0  0  0  0
   37.9180   30.0400   27.6860 H   0  0  0  0  0  0  0  0  0  0  0  0
   38.7330   27.7790   27.8010 H   0  0  0  0  0  0  0  0  0  0  0  0
   37.7990   27.5480   32.2780 C   0  0  0  0  0  0  0  0  0  0  0  0
   36.8320   27.8490   33.2080 C   0  0  0  0  0  0  0  0  0  0  0  0
   36.0920   28.6050   32.9890 H   0  0  0  0  0  0  0  0  0  0  0  0
   36.8360   27.1680   34.4070 C   0  0  0  0  0  0  0  0  0  0  0  0
   36.0430   27.4560   35.0960 H   0  0  0  0  0  0  0  0  0  0  0  0
   37.7430   26.1950   34.7590 C   0  0  0  0  0  0  0  0  0  0  0  0
   38.6900   25.9270   33.8020 C   0  0  0  0  0  0  0  0  0  0  0  0
   38.7190   26.5760   32.6100 C   0  0  0  0  0  0  0  0  0  0  0  0
   39.4980   26.3210   31.8810 H   0  0  0  0  0  0  0  0  0  0  0  0
   39.9210   24.6860   34.1370 S   0  0  0  0  0  0  0  0  0  0  0  0
   39.5750   24.0610   35.7680 C   0  0  0  0  0  0  0  0  0  0  0  0
   40.3570   23.0950   36.2960 C   0  0  0  0  0  0  0  0  0  0  0  0
   41.2010   22.6890   35.7380 H   0  0  0  0  0  0  0  0  0  0  0  0
   40.1520   22.5660   37.5430 C   0  0  0  0  0  0  0  0  0  0  0  0
   40.7440   21.7920   38.0180 H   0  0  0  0  0  0  0  0  0  0  0  0
   39.0890   23.0620   38.2730 C   0  0  0  0  0  0  0  0  0  0  0  0
   38.8890   22.6770   39.2580 H   0  0  0  0  0  0  0  0  0  0  0  0
   38.3040   24.0500   37.7090 C   0  0  0  0  0  0  0  0  0  0  0  0
   37.4860   24.3950   38.3370 H   0  0  0  0  0  0  0  0  0  0  0  0
   38.5090   24.5820   36.4550 C   0  0  0  0  0  0  0  0  0  0  0  0
   37.6130   25.5890   36.0280 N   0  0  0  0  0  0  0  0  0  0  0  0
   36.8450   25.8940   36.6500 H   0  0  0  0  0  0  0  0  0  0  0  0
   36.8930   31.5280   29.7540 C   0  0  0  0  0  0  0  0  0  0  0  0
   36.7880   31.8260   28.6690 H   0  0  0  0  0  0  0  0  0  0  0  0
   37.6990   32.2370   30.1120 H   0  0  0  0  0  0  0  0  0  0  0  0
   35.6750   31.9080   30.4730 C   0  0  0  0  0  0  0  0  0  0  0  0
   35.2710   32.9010   30.1140 H   0  0  0  0  0  0  0  0  0  0  0  0
   34.8350   31.2040   30.2920 H   0  0  0  0  0  0  0  0  0  0  0  0
   35.8320   32.0780   31.9330 C   0  0  0  0  0  0  0  0  0  0  0  0
   36.4520   33.2090   32.4450 C   0  0  0  0  0  0  0  0  0  0  0  0
   36.4610   33.1090   33.8110 C   0  0  0  0  0  0  0  0  0  0  0  0
   35.8670   31.9520   34.1120 N   0  0  0  0  0  0  0  0  0  0  0  0
   35.5100   31.3730   32.9930 N   0  0  0  0  0  0  0  0  0  0  0  0
   36.9000   34.1010   31.9940 H   0  0  0  0  0  0  0  0  0  0  0  0
   36.8290   33.7370   34.6060 H   0  0  0  0  0  0  0  0  0  0  0  0
   35.6180   31.3620   35.4380 C   0  0  0  0  0  0  0  0  0  0  0  0
   35.8100   32.2910   36.4230 F   0  0  0  0  0  0  0  0  0  0  0  0
   36.4610   30.2860   35.6700 F   0  0  0  0  0  0  0  0  0  0  0  0
   34.3050   30.9120   35.5430 F   0  0  0  0  0  0  0  0  0  0  0  0
  1  6  1  0  0  0  0
  2  1  2  0  0  0  0
  3  2  1  0  0  0  0
  3  4  2  0  0  0  0
  4  5  1  0  0  0  0
  5  9  1  0  0  0  0
  6  5  2  0  0  0  0
  7  2  1  0  0  0  0
  8  3  1  0  0  0  0
  9 16  2  0  0  0  0
  9 10  1  0  0  0  0
 10 12  2  0  0  0  0
 11 10  1  0  0  0  0
 12 14  1  0  0  0  0
 12 13  1  0  0  0  0
 14 29  1  0  0  0  0
 15 18  1  0  0  0  0
 15 14  2  0  0  0  0
 16 15  1  0  0  0  0
 17 16  1  0  0  0  0
 18 19  1  0  0  0  0
 19 20  2  0  0  0  0
 19 28  1  0  0  0  0
 20 22  1  0  0  0  0
 21 20  1  0  0  0  0
 22 23  1  0  0  0  0
 22 24  2  0  0  0  0
 24 25  1  0  0  0  0
 26 24  1  0  0  0  0
 26 27  1  0  0  0  0
 28 26  2  0  0  0  0
 29 28  1  0  0  0  0
 29 30  1  0  0  0  0
 31  1  1  0  0  0  0
 31 33  1  0  0  0  0
 31 34  1  0  0  0  0
 32 31  1  0  0  0  0
 34 37  1  0  0  0  0
 35 34  1  0  0  0  0
 36 34  1  0  0  0  0
 37 38  1  0  0  0  0
 37 41  2  0  0  0  0
 38 39  2  0  0  0  0
 39 40  1  0  0  0  0
 39 43  1  0  0  0  0
 40 44  1  0  0  0  0
 41 40  1  0  0  0  0
 42 38  1  0  0  0  0
 44 47  1  0  0  0  0
 44 46  1  0  0  0  0
 44 45  1  0  0  0  0
M  END
>  <minimizedAffinity>
-6.70097113

$$$$

 OpenBabel03272500283D

 47 51  0  0  0  0  0  0  0  0999 V2000
   36.8810   26.7720   32.8790 C   0  0  0  0  0  0  0  0  0  0  0  0
   36.5520   27.8940   33.5680 C   0  0  0  0  0  0  0  0  0  0  0  0
   36.9050   28.0770   34.9130 C   0  0  0  0  0  0  0  0  0  0  0  0
   37.6060   27.0330   35.4730 N   0  0  0  0  0  0  0  0  0  0  0  0
   37.9260   25.9280   34.7820 C   0  0  0  0  0  0  0  0  0  0  0  0
   37.5590   25.8060   33.4860 N   0  0  0  0  0  0  0  0  0  0  0  0
   36.0040   28.7440   33.1830 H   0  0  0  0  0  0  0  0  0  0  0  0
   36.6620   28.9490   35.4880 H   0  0  0  0  0  0  0  0  0  0  0  0
   38.6710   24.8350   35.4010 C   0  0  0  0  0  0  0  0  0  0  0  0
   38.2070   24.2380   36.5500 C   0  0  0  0  0  0  0  0  0  0  0  0
   37.2850   24.5780   36.9970 H   0  0  0  0  0  0  0  0  0  0  0  0
   38.9420   23.2090   37.1010 C   0  0  0  0  0  0  0  0  0  0  0  0
   38.5160   22.7830   38.0080 H   0  0  0  0  0  0  0  0  0  0  0  0
   40.1220   22.7200   36.5900 C   0  0  0  0  0  0  0  0  0  0  0  0
   40.5480   23.3450   35.4450 C   0  0  0  0  0  0  0  0  0  0  0  0
   39.8530   24.3610   34.8720 C   0  0  0  0  0  0  0  0  0  0  0  0
   40.2400   24.8240   33.9560 H   0  0  0  0  0  0  0  0  0  0  0  0
   42.0640   22.8040   34.6850 S   0  0  0  0  0  0  0  0  0  0  0  0
   42.6890   21.4790   35.6960 C   0  0  0  0  0  0  0  0  0  0  0  0
   43.8440   20.8640   35.3600 C   0  0  0  0  0  0  0  0  0  0  0  0
   44.4030   21.1680   34.4750 H   0  0  0  0  0  0  0  0  0  0  0  0
   44.3840   19.8380   36.0890 C   0  0  0  0  0  0  0  0  0  0  0  0
   45.3040   19.3090   35.8690 H   0  0  0  0  0  0  0  0  0  0  0  0
   43.6960   19.4330   37.2160 C   0  0  0  0  0  0  0  0  0  0  0  0
   44.0820   18.6300   37.8210 H   0  0  0  0  0  0  0  0  0  0  0  0
   42.5170   20.0770   37.5380 C   0  0  0  0  0  0  0  0  0  0  0  0
   42.0270   19.7090   38.4370 H   0  0  0  0  0  0  0  0  0  0  0  0
   41.9720   21.1090   36.8060 C   0  0  0  0  0  0  0  0  0  0  0  0
   40.7560   21.6600   37.2740 N   0  0  0  0  0  0  0  0  0  0  0  0
   40.3170   21.2860   38.1320 H   0  0  0  0  0  0  0  0  0  0  0  0
   36.5040   26.6240   31.5110 C   0  0  0  0  0  0  0  0  0  0  0  0
   37.4440   26.4390   30.9110 H   0  0  0  0  0  0  0  0  0  0  0  0
   36.1600   27.6210   31.1010 H   0  0  0  0  0  0  0  0  0  0  0  0
   35.4850   25.6520   31.1100 C   0  0  0  0  0  0  0  0  0  0  0  0
   34.5720   25.7060   31.7740 H   0  0  0  0  0  0  0  0  0  0  0  0
   35.0800   25.8510   30.0950 H   0  0  0  0  0  0  0  0  0  0  0  0
   35.9050   24.2350   31.1720 C   0  0  0  0  0  0  0  0  0  0  0  0
   37.1460   23.8510   30.6870 C   0  0  0  0  0  0  0  0  0  0  0  0
   37.2750   22.4990   30.8690 C   0  0  0  0  0  0  0  0  0  0  0  0
   36.1440   22.0830   31.4440 N   0  0  0  0  0  0  0  0  0  0  0  0
   35.3640   23.1210   31.6080 N   0  0  0  0  0  0  0  0  0  0  0  0
   37.9810   24.3860   30.2230 H   0  0  0  0  0  0  0  0  0  0  0  0
   38.0510   21.7840   30.6500 H   0  0  0  0  0  0  0  0  0  0  0  0
   35.7660   20.7200   31.8520 C   0  0  0  0  0  0  0  0  0  0  0  0
   36.6360   20.2390   32.7910 F   0  0  0  0  0  0  0  0  0  0  0  0
   35.7640   19.8580   30.7650 F   0  0  0  0  0  0  0  0  0  0  0  0
   34.4940   20.7040   32.4160 F   0  0  0  0  0  0  0  0  0  0  0  0
  1  6  2  0  0  0  0
  1  2  1  0  0  0  0
  2  3  2  0  0  0  0
  3  4  1  0  0  0  0
  3  8  1  0  0  0  0
  5  9  1  0  0  0  0
  5  4  2  0  0  0  0
  6  5  1  0  0  0  0
  7  2  1  0  0  0  0
  9 10  1  0  0  0  0
 10 11  1  0  0  0  0
 10 12  2  0  0  0  0
 12 13  1  0  0  0  0
 14 12  1  0  0  0  0
 14 29  1  0  0  0  0
 15 14  2  0  0  0  0
 16  9  2  0  0  0  0
 16 15  1  0  0  0  0
 17 16  1  0  0  0  0
 18 15  1  0  0  0  0
 18 19  1  0  0  0  0
 19 28  1  0  0  0  0
 20 19  2  0  0  0  0
 20 22  1  0  0  0  0
 21 20  1  0  0  0  0
 22 24  2  0  0  0  0
 23 22  1  0  0  0  0
 24 26  1  0  0  0  0
 24 25  1  0  0  0  0
 26 27  1  0  0  0  0
 28 29  1  0  0  0  0
 28 26  2  0  0  0  0
 29 30  1  0  0  0  0
 31  1  1  0  0  0  0
 32 31  1  0  0  0  0
 33 31  1  0  0  0  0
 34 37  1  0  0  0  0
 34 31  1  0  0  0  0
 34 35  1  0  0  0  0
 36 34  1  0  0  0  0
 37 41  2  0  0  0  0
 38 39  2  0  0  0  0
 38 37  1  0  0  0  0
 39 40  1  0  0  0  0
 40 41  1  0  0  0  0
 40 44  1  0  0  0  0
 42 38  1  0  0  0  0
 43 39  1  0  0  0  0
 44 47  1  0  0  0  0
 44 45  1  0  0  0  0
 46 44  1  0  0  0  0
M  END
>  <minimizedAffinity>
-6.68956614

$$$$

 OpenBabel03272500283D

 47 51  0  0  0  0  0  0  0  0999 V2000
   36.7950   30.0070   30.3120 C   0  0  0  0  0  0  0  0  0  0  0  0
   37.2430   30.0110   29.0300 C   0  0  0  0  0  0  0  0  0  0  0  0
   38.1770   29.0760   28.5600 C   0  0  0  0  0  0  0  0  0  0  0  0
   38.6010   28.1620   29.4990 N   0  0  0  0  0  0  0  0  0  0  0  0
   38.1520   28.1690   30.7640 C   0  0  0  0  0  0  0  0  0  0  0  0
   37.2490   29.0950   31.1610 N   0  0  0  0  0  0  0  0  0  0  0  0
   36.9470   30.7010   28.2510 H   0  0  0  0  0  0  0  0  0  0  0  0
   38.5520   29.0490   27.5570 H   0  0  0  0  0  0  0  0  0  0  0  0
   38.6180   27.1870   31.7400 C   0  0  0  0  0  0  0  0  0  0  0  0
   39.6770   26.3610   31.4450 C   0  0  0  0  0  0  0  0  0  0  0  0
   40.1690   26.4390   30.4860 H   0  0  0  0  0  0  0  0  0  0  0  0
   40.0850   25.4480   32.3950 C   0  0  0  0  0  0  0  0  0  0  0  0
   40.9290   24.8280   32.0960 H   0  0  0  0  0  0  0  0  0  0  0  0
   39.5120   25.2900   33.6350 C   0  0  0  0  0  0  0  0  0  0  0  0
   38.4580   26.1330   33.8860 C   0  0  0  0  0  0  0  0  0  0  0  0
   38.0270   27.0450   32.9780 C   0  0  0  0  0  0  0  0  0  0  0  0
   37.1810   27.6950   33.2310 H   0  0  0  0  0  0  0  0  0  0  0  0
   37.6300   26.0280   35.4590 S   0  0  0  0  0  0  0  0  0  0  0  0
   38.4540   24.7440   36.3760 C   0  0  0  0  0  0  0  0  0  0  0  0
   38.0360   24.4360   37.6230 C   0  0  0  0  0  0  0  0  0  0  0  0
   37.1990   24.9630   38.0800 H   0  0  0  0  0  0  0  0  0  0  0  0
   38.6210   23.4610   38.3880 C   0  0  0  0  0  0  0  0  0  0  0  0
   38.3310   23.1720   39.3910 H   0  0  0  0  0  0  0  0  0  0  0  0
   39.6850   22.7760   37.8340 C   0  0  0  0  0  0  0  0  0  0  0  0
   40.1770   22.0020   38.3970 H   0  0  0  0  0  0  0  0  0  0  0  0
   40.0930   23.1110   36.5570 C   0  0  0  0  0  0  0  0  0  0  0  0
   40.9350   22.5340   36.1810 H   0  0  0  0  0  0  0  0  0  0  0  0
   39.5060   24.0910   35.7870 C   0  0  0  0  0  0  0  0  0  0  0  0
   40.0460   24.3080   34.4980 N   0  0  0  0  0  0  0  0  0  0  0  0
   40.8480   23.7410   34.1720 H   0  0  0  0  0  0  0  0  0  0  0  0
   35.8430   30.9750   30.7500 C   0  0  0  0  0  0  0  0  0  0  0  0
   35.5470   31.5990   29.8550 H   0  0  0  0  0  0  0  0  0  0  0  0
   36.3560   31.7410   31.4070 H   0  0  0  0  0  0  0  0  0  0  0  0
   34.6340   30.5720   31.4720 C   0  0  0  0  0  0  0  0  0  0  0  0
   33.6980   30.9380   30.9550 H   0  0  0  0  0  0  0  0  0  0  0  0
   34.5010   29.4700   31.5020 H   0  0  0  0  0  0  0  0  0  0  0  0
   34.5220   31.0900   32.8530 C   0  0  0  0  0  0  0  0  0  0  0  0
   33.2970   31.5150   33.3450 C   0  0  0  0  0  0  0  0  0  0  0  0
   33.4790   31.9400   34.6340 C   0  0  0  0  0  0  0  0  0  0  0  0
   34.7760   31.7770   34.9090 N   0  0  0  0  0  0  0  0  0  0  0  0
   35.3580   31.2790   33.8470 N   0  0  0  0  0  0  0  0  0  0  0  0
   32.2860   31.5680   32.9270 H   0  0  0  0  0  0  0  0  0  0  0  0
   32.8250   32.3430   35.3900 H   0  0  0  0  0  0  0  0  0  0  0  0
   35.4980   32.0790   36.1560 C   0  0  0  0  0  0  0  0  0  0  0  0
   35.7350   33.4220   36.2630 F   0  0  0  0  0  0  0  0  0  0  0  0
   36.7100   31.4070   36.2040 F   0  0  0  0  0  0  0  0  0  0  0  0
   34.7510   31.6990   37.2670 F   0  0  0  0  0  0  0  0  0  0  0  0
  1 31  1  0  0  0  0
  1  6  1  0  0  0  0
  2  1  2  0  0  0  0
  3  2  1  0  0  0  0
  3  4  2  0  0  0  0
  4  5  1  0  0  0  0
  5  6  2  0  0  0  0
  5  9  1  0  0  0  0
  7  2  1  0  0  0  0
  8  3  1  0  0  0  0
  9 16  1  0  0  0  0
 10  9  2  0  0  0  0
 10 12  1  0  0  0  0
 11 10  1  0  0  0  0
 12 14  2  0  0  0  0
 13 12  1  0  0  0  0
 14 15  1  0  0  0  0
 14 29  1  0  0  0  0
 15 18  1  0  0  0  0
 16 17  1  0  0  0  0
 16 15  2  0  0  0  0
 18 19  1  0  0  0  0
 19 20  1  0  0  0  0
 20 21  1  0  0  0  0
 20 22  2  0  0  0  0
 22 23  1  0  0  0  0
 24 22  1  0  0  0  0
 24 25  1  0  0  0  0
 26 24  2  0  0  0  0
 27 26  1  0  0  0  0
 28 19  2  0  0  0  0
 28 26  1  0  0  0  0
 29 28  1  0  0  0  0
 30 29  1  0  0  0  0
 31 33  1  0  0  0  0
 31 34  1  0  0  0  0
 32 31  1  0  0  0  0
 34 36  1  0  0  0  0
 34 37  1  0  0  0  0
 35 34  1  0  0  0  0
 37 38  1  0  0  0  0
 37 41  2  0  0  0  0
 38 39  2  0  0  0  0
 39 40  1  0  0  0  0
 39 43  1  0  0  0  0
 40 44  1  0  0  0  0
 41 40  1  0  0  0  0
 42 38  1  0  0  0  0
 44 46  1  0  0  0  0
 44 45  1  0  0  0  0
 44 47  1  0  0  0  0
M  END
>  <minimizedAffinity>
-6.65825272

$$$$

 OpenBabel03272500283D

 47 51  0  0  0  0  0  0  0  0999 V2000
   35.7730   29.6060   32.0800 C   0  0  0  0  0  0  0  0  0  0  0  0
   36.2690   29.6490   30.8170 C   0  0  0  0  0  0  0  0  0  0  0  0
   37.2780   28.7790   30.3780 C   0  0  0  0  0  0  0  0  0  0  0  0
   37.7210   27.8850   31.3260 N   0  0  0  0  0  0  0  0  0  0  0  0
   37.2240   27.8520   32.5730 C   0  0  0  0  0  0  0  0  0  0  0  0
   36.2510   28.7170   32.9410 N   0  0  0  0  0  0  0  0  0  0  0  0
   35.9610   30.3270   30.0310 H   0  0  0  0  0  0  0  0  0  0  0  0
   37.6920   28.7840   29.3890 H   0  0  0  0  0  0  0  0  0  0  0  0
   37.7130   26.8930   33.5600 C   0  0  0  0  0  0  0  0  0  0  0  0
   37.1180   26.8010   34.7960 C   0  0  0  0  0  0  0  0  0  0  0  0
   36.2830   27.4410   35.0400 H   0  0  0  0  0  0  0  0  0  0  0  0
   37.6110   25.8810   35.6980 C   0  0  0  0  0  0  0  0  0  0  0  0
   37.0930   25.8620   36.6560 H   0  0  0  0  0  0  0  0  0  0  0  0
   38.6680   25.0320   35.4620 C   0  0  0  0  0  0  0  0  0  0  0  0
   39.2320   25.1590   34.2170 C   0  0  0  0  0  0  0  0  0  0  0  0
   38.7750   26.0520   33.3020 C   0  0  0  0  0  0  0  0  0  0  0  0
   39.2630   26.1100   32.3210 H   0  0  0  0  0  0  0  0  0  0  0  0
   40.6080   24.1150   33.7880 S   0  0  0  0  0  0  0  0  0  0  0  0
   40.9250   23.0900   35.2090 C   0  0  0  0  0  0  0  0  0  0  0  0
   41.9280   22.1860   35.1750 C   0  0  0  0  0  0  0  0  0  0  0  0
   42.5500   22.0730   34.2870 H   0  0  0  0  0  0  0  0  0  0  0  0
   42.2290   21.3650   36.2290 C   0  0  0  0  0  0  0  0  0  0  0  0
   43.0190   20.6230   36.2590 H   0  0  0  0  0  0  0  0  0  0  0  0
   41.4560   21.4860   37.3670 C   0  0  0  0  0  0  0  0  0  0  0  0
   41.6550   20.8620   38.2200 H   0  0  0  0  0  0  0  0  0  0  0  0
   40.4360   22.4190   37.3760 C   0  0  0  0  0  0  0  0  0  0  0  0
   39.8670   22.4630   38.3020 H   0  0  0  0  0  0  0  0  0  0  0  0
   40.1310   23.2450   36.3170 C   0  0  0  0  0  0  0  0  0  0  0  0
   39.0540   24.1450   36.4900 N   0  0  0  0  0  0  0  0  0  0  0  0
   38.5340   24.1610   37.3840 H   0  0  0  0  0  0  0  0  0  0  0  0
   34.7470   30.5090   32.4870 C   0  0  0  0  0  0  0  0  0  0  0  0
   34.9580   31.5120   32.0090 H   0  0  0  0  0  0  0  0  0  0  0  0
   34.8650   30.7490   33.5870 H   0  0  0  0  0  0  0  0  0  0  0  0
   33.3320   30.1790   32.2980 C   0  0  0  0  0  0  0  0  0  0  0  0
   32.7170   31.0970   32.0610 H   0  0  0  0  0  0  0  0  0  0  0  0
   33.1610   29.5180   31.4230 H   0  0  0  0  0  0  0  0  0  0  0  0
   32.6630   29.5780   33.4720 C   0  0  0  0  0  0  0  0  0  0  0  0
   33.1870   29.7540   34.7440 C   0  0  0  0  0  0  0  0  0  0  0  0
   32.3770   29.0980   35.6340 C   0  0  0  0  0  0  0  0  0  0  0  0
   31.3960   28.5430   34.9180 N   0  0  0  0  0  0  0  0  0  0  0  0
   31.5920   28.8420   33.6580 N   0  0  0  0  0  0  0  0  0  0  0  0
   34.0610   30.2820   35.1410 H   0  0  0  0  0  0  0  0  0  0  0  0
   32.3920   28.9650   36.7030 H   0  0  0  0  0  0  0  0  0  0  0  0
   30.2630   27.7290   35.3850 C   0  0  0  0  0  0  0  0  0  0  0  0
   30.4020   27.4240   36.7110 F   0  0  0  0  0  0  0  0  0  0  0  0
   30.1690   26.5480   34.6650 F   0  0  0  0  0  0  0  0  0  0  0  0
   29.0620   28.4180   35.2410 F   0  0  0  0  0  0  0  0  0  0  0  0
  1 31  1  0  0  0  0
  1  6  1  0  0  0  0
  2  1  2  0  0  0  0
  3  2  1  0  0  0  0
  3  4  2  0  0  0  0
  4  5  1  0  0  0  0
  5  6  2  0  0  0  0
  5  9  1  0  0  0  0
  7  2  1  0  0  0  0
  8  3  1  0  0  0  0
  9 10  1  0  0  0  0
 10 11  1  0  0  0  0
 10 12  2  0  0  0  0
 12 13  1  0  0  0  0
 14 12  1  0  0  0  0
 14 29  1  0  0  0  0
 15 14  2  0  0  0  0
 16  9  2  0  0  0  0
 16 15  1  0  0  0  0
 17 16  1  0  0  0  0
 18 15  1  0  0  0  0
 18 19  1  0  0  0  0
 19 28  1  0  0  0  0
 20 19  2  0  0  0  0
 20 22  1  0  0  0  0
 21 20  1  0  0  0  0
 22 23  1  0  0  0  0
 22 24  2  0  0  0  0
 24 26  1  0  0  0  0
 24 25  1  0  0  0  0
 26 27  1  0  0  0  0
 28 29  1  0  0  0  0
 28 26  2  0  0  0  0
 29 30  1  0  0  0  0
 31 33  1  0  0  0  0
 32 31  1  0  0  0  0
 34 31  1  0  0  0  0
 34 37  1  0  0  0  0
 35 34  1  0  0  0  0
 36 34  1  0  0  0  0
 37 41  2  0  0  0  0
 37 38  1  0  0  0  0
 38 42  1  0  0  0  0
 38 39  2  0  0  0  0
 39 43  1  0  0  0  0
 40 44  1  0  0  0  0
 40 39  1  0  0  0  0
 41 40  1  0  0  0  0
 44 45  1  0  0  0  0
 46 44  1  0  0  0  0
 47 44  1  0  0  0  0
M  END
>  <minimizedAffinity>
-6.57716131

$$$$

 OpenBabel03272500283D

 47 51  0  0  0  0  0  0  0  0999 V2000
   36.1100   29.3810   31.4430 C   0  0  0  0  0  0  0  0  0  0  0  0
   36.8160   29.4910   30.2890 C   0  0  0  0  0  0  0  0  0  0  0  0
   37.9630   28.7240   30.0370 C   0  0  0  0  0  0  0  0  0  0  0  0
   38.3110   27.8580   31.0490 N   0  0  0  0  0  0  0  0  0  0  0  0
   37.6050   27.7580   32.1860 C   0  0  0  0  0  0  0  0  0  0  0  0
   36.5060   28.5230   32.3740 N   0  0  0  0  0  0  0  0  0  0  0  0
   36.5920   30.1510   29.4620 H   0  0  0  0  0  0  0  0  0  0  0  0
   38.5450   28.7850   29.1390 H   0  0  0  0  0  0  0  0  0  0  0  0
   37.9970   26.8290   33.2430 C   0  0  0  0  0  0  0  0  0  0  0  0
   37.2820   26.7670   34.4160 C   0  0  0  0  0  0  0  0  0  0  0  0
   36.4240   27.4080   34.5570 H   0  0  0  0  0  0  0  0  0  0  0  0
   37.6870   25.8760   35.3880 C   0  0  0  0  0  0  0  0  0  0  0  0
   37.0750   25.8790   36.2900 H   0  0  0  0  0  0  0  0  0  0  0  0
   38.7650   25.0290   35.2830 C   0  0  0  0  0  0  0  0  0  0  0  0
   39.4500   25.1250   34.0970 C   0  0  0  0  0  0  0  0  0  0  0  0
   39.0830   25.9890   33.1160 C   0  0  0  0  0  0  0  0  0  0  0  0
   39.6670   26.0240   32.1880 H   0  0  0  0  0  0  0  0  0  0  0  0
   40.8680   24.0800   33.8380 S   0  0  0  0  0  0  0  0  0  0  0  0
   41.0450   23.0970   35.3110 C   0  0  0  0  0  0  0  0  0  0  0  0
   42.0510   22.2000   35.4030 C   0  0  0  0  0  0  0  0  0  0  0  0
   42.7600   22.0670   34.5860 H   0  0  0  0  0  0  0  0  0  0  0  0
   42.2490   21.4100   36.5050 C   0  0  0  0  0  0  0  0  0  0  0  0
   43.0350   20.6750   36.6340 H   0  0  0  0  0  0  0  0  0  0  0  0
   41.3650   21.5570   37.5560 C   0  0  0  0  0  0  0  0  0  0  0  0
   41.4810   20.9580   38.4420 H   0  0  0  0  0  0  0  0  0  0  0  0
   40.3450   22.4820   37.4370 C   0  0  0  0  0  0  0  0  0  0  0  0
   39.6860   22.5470   38.2990 H   0  0  0  0  0  0  0  0  0  0  0  0
   40.1440   23.2770   36.3290 C   0  0  0  0  0  0  0  0  0  0  0  0
   39.0510   24.1730   36.3690 N   0  0  0  0  0  0  0  0  0  0  0  0
   38.4440   24.2100   37.2060 H   0  0  0  0  0  0  0  0  0  0  0  0
   34.9470   30.1790   31.6610 C   0  0  0  0  0  0  0  0  0  0  0  0
   34.0600   29.4830   31.7430 H   0  0  0  0  0  0  0  0  0  0  0  0
   34.7010   30.7570   30.7200 H   0  0  0  0  0  0  0  0  0  0  0  0
   34.8930   31.1510   32.7550 C   0  0  0  0  0  0  0  0  0  0  0  0
   35.9120   31.3220   33.2120 H   0  0  0  0  0  0  0  0  0  0  0  0
   34.5870   32.1620   32.4140 H   0  0  0  0  0  0  0  0  0  0  0  0
   34.0350   30.7660   33.8970 C   0  0  0  0  0  0  0  0  0  0  0  0
   33.2990   29.5920   33.8570 C   0  0  0  0  0  0  0  0  0  0  0  0
   32.6030   29.4840   35.0320 C   0  0  0  0  0  0  0  0  0  0  0  0
   32.9100   30.5630   35.7560 N   0  0  0  0  0  0  0  0  0  0  0  0
   33.7490   31.2930   35.0660 N   0  0  0  0  0  0  0  0  0  0  0  0
   33.1810   28.7920   33.1170 H   0  0  0  0  0  0  0  0  0  0  0  0
   31.9190   28.7550   35.4330 H   0  0  0  0  0  0  0  0  0  0  0  0
   32.4340   30.9370   37.0980 C   0  0  0  0  0  0  0  0  0  0  0  0
   32.2220   29.8230   37.8630 F   0  0  0  0  0  0  0  0  0  0  0  0
   31.2500   31.6560   37.0230 F   0  0  0  0  0  0  0  0  0  0  0  0
   33.3740   31.7220   37.7590 F   0  0  0  0  0  0  0  0  0  0  0  0
  1 31  1  0  0  0  0
  1  6  1  0  0  0  0
  2  1  2  0  0  0  0
  3  2  1  0  0  0  0
  3  4  2  0  0  0  0
  4  5  1  0  0  0  0
  5  6  2  0  0  0  0
  5  9  1  0  0  0  0
  7  2  1  0  0  0  0
  8  3  1  0  0  0  0
  9 10  1  0  0  0  0
 10 11  1  0  0  0  0
 10 12  2  0  0  0  0
 12 13  1  0  0  0  0
 14 12  1  0  0  0  0
 14 29  1  0  0  0  0
 15 14  2  0  0  0  0
 16  9  2  0  0  0  0
 16 15  1  0  0  0  0
 17 16  1  0  0  0  0
 18 15  1  0  0  0  0
 18 19  1  0  0  0  0
 19 20  2  0  0  0  0
 19 28  1  0  0  0  0
 20 22  1  0  0  0  0
 21 20  1  0  0  0  0
 22 23  1  0  0  0  0
 22 24  2  0  0  0  0
 24 25  1  0  0  0  0
 26 24  1  0  0  0  0
 26 27  1  0  0  0  0
 28 29  1  0  0  0  0
 28 26  2  0  0  0  0
 29 30  1  0  0  0  0
 31 32  1  0  0  0  0
 31 34  1  0  0  0  0
 33 31  1  0  0  0  0
 34 35  1  0  0  0  0
 34 37  1  0  0  0  0
 36 34  1  0  0  0  0
 37 41  2  0  0  0  0
 38 37  1  0  0  0  0
 38 39  2  0  0  0  0
 39 43  1  0  0  0  0
 39 40  1  0  0  0  0
 40 44  1  0  0  0  0
 41 40  1  0  0  0  0
 42 38  1  0  0  0  0
 44 47  1  0  0  0  0
 44 45  1  0  0  0  0
 46 44  1  0  0  0  0
M  END
>  <minimizedAffinity>
-6.56945086

$$$$

 OpenBabel03272500283D

 47 51  0  0  0  0  0  0  0  0999 V2000
   36.7700   29.9440   30.3150 C   0  0  0  0  0  0  0  0  0  0  0  0
   37.2470   29.9750   29.0440 C   0  0  0  0  0  0  0  0  0  0  0  0
   38.2220   29.0760   28.5880 C   0  0  0  0  0  0  0  0  0  0  0  0
   38.6540   28.1670   29.5280 N   0  0  0  0  0  0  0  0  0  0  0  0
   38.1760   28.1470   30.7830 C   0  0  0  0  0  0  0  0  0  0  0  0
   37.2340   29.0390   31.1670 N   0  0  0  0  0  0  0  0  0  0  0  0
   36.9470   30.6620   28.2650 H   0  0  0  0  0  0  0  0  0  0  0  0
   38.6210   29.0710   27.5940 H   0  0  0  0  0  0  0  0  0  0  0  0
   38.6510   27.1710   31.7600 C   0  0  0  0  0  0  0  0  0  0  0  0
   39.7340   26.3720   31.4770 C   0  0  0  0  0  0  0  0  0  0  0  0
   40.2370   26.4660   30.5250 H   0  0  0  0  0  0  0  0  0  0  0  0
   40.1500   25.4640   32.4280 C   0  0  0  0  0  0  0  0  0  0  0  0
   41.0120   24.8650   32.1370 H   0  0  0  0  0  0  0  0  0  0  0  0
   39.5640   25.2860   33.6590 C   0  0  0  0  0  0  0  0  0  0  0  0
   38.4870   26.1030   33.8990 C   0  0  0  0  0  0  0  0  0  0  0  0
   38.0480   27.0090   32.9890 C   0  0  0  0  0  0  0  0  0  0  0  0
   37.1820   27.6380   33.2340 H   0  0  0  0  0  0  0  0  0  0  0  0
   37.6400   25.9700   35.4600 S   0  0  0  0  0  0  0  0  0  0  0  0
   38.4810   24.7020   36.3820 C   0  0  0  0  0  0  0  0  0  0  0  0
   38.0540   24.3780   37.6220 C   0  0  0  0  0  0  0  0  0  0  0  0
   37.1980   24.8830   38.0700 H   0  0  0  0  0  0  0  0  0  0  0  0
   38.6510   23.4130   38.3900 C   0  0  0  0  0  0  0  0  0  0  0  0
   38.3540   23.1120   39.3880 H   0  0  0  0  0  0  0  0  0  0  0  0
   39.7380   22.7560   37.8480 C   0  0  0  0  0  0  0  0  0  0  0  0
   40.2400   21.9910   38.4140 H   0  0  0  0  0  0  0  0  0  0  0  0
   40.1560   23.1070   36.5780 C   0  0  0  0  0  0  0  0  0  0  0  0
   41.0160   22.5510   36.2110 H   0  0  0  0  0  0  0  0  0  0  0  0
   39.5570   24.0770   35.8040 C   0  0  0  0  0  0  0  0  0  0  0  0
   40.1090   24.3120   34.5240 N   0  0  0  0  0  0  0  0  0  0  0  0
   40.9280   23.7660   34.2060 H   0  0  0  0  0  0  0  0  0  0  0  0
   35.7770   30.8760   30.7400 C   0  0  0  0  0  0  0  0  0  0  0  0
   34.7780   30.5200   30.3470 H   0  0  0  0  0  0  0  0  0  0  0  0
   35.9090   31.8520   30.1840 H   0  0  0  0  0  0  0  0  0  0  0  0
   35.6330   31.2340   32.1530 C   0  0  0  0  0  0  0  0  0  0  0  0
   36.5680   30.9950   32.7420 H   0  0  0  0  0  0  0  0  0  0  0  0
   35.5000   32.3260   32.3060 H   0  0  0  0  0  0  0  0  0  0  0  0
   34.5500   30.5300   32.8740 C   0  0  0  0  0  0  0  0  0  0  0  0
   34.7420   30.0980   34.1780 C   0  0  0  0  0  0  0  0  0  0  0  0
   33.5910   29.4850   34.5990 C   0  0  0  0  0  0  0  0  0  0  0  0
   32.7340   29.5450   33.5770 N   0  0  0  0  0  0  0  0  0  0  0  0
   33.3240   30.1610   32.5840 N   0  0  0  0  0  0  0  0  0  0  0  0
   35.5790   30.1540   34.8830 H   0  0  0  0  0  0  0  0  0  0  0  0
   33.2880   29.0100   35.5170 H   0  0  0  0  0  0  0  0  0  0  0  0
   31.3550   29.0340   33.5020 C   0  0  0  0  0  0  0  0  0  0  0  0
   30.5790   29.8530   32.7280 F   0  0  0  0  0  0  0  0  0  0  0  0
   30.7880   28.9450   34.7640 F   0  0  0  0  0  0  0  0  0  0  0  0
   31.3250   27.7670   32.9250 F   0  0  0  0  0  0  0  0  0  0  0  0
  1 31  1  0  0  0  0
  1  6  1  0  0  0  0
  2  1  2  0  0  0  0
  3  2  1  0  0  0  0
  3  4  2  0  0  0  0
  4  5  1  0  0  0  0
  5  6  2  0  0  0  0
  5  9  1  0  0  0  0
  7  2  1  0  0  0  0
  8  3  1  0  0  0  0
  9 16  1  0  0  0  0
 10  9  2  0  0  0  0
 10 12  1  0  0  0  0
 11 10  1  0  0  0  0
 12 14  2  0  0  0  0
 13 12  1  0  0  0  0
 14 15  1  0  0  0  0
 14 29  1  0  0  0  0
 15 18  1  0  0  0  0
 16 17  1  0  0  0  0
 16 15  2  0  0  0  0
 18 19  1  0  0  0  0
 19 20  1  0  0  0  0
 20 21  1  0  0  0  0
 20 22  2  0  0  0  0
 22 23  1  0  0  0  0
 24 22  1  0  0  0  0
 24 25  1  0  0  0  0
 26 24  2  0  0  0  0
 27 26  1  0  0  0  0
 28 19  2  0  0  0  0
 28 26  1  0  0  0  0
 29 28  1  0  0  0  0
 30 29  1  0  0  0  0
 31 34  1  0  0  0  0
 32 31  1  0  0  0  0
 33 31  1  0  0  0  0
 34 36  1  0  0  0  0
 34 35  1  0  0  0  0
 34 37  1  0  0  0  0
 37 38  1  0  0  0  0
 38 39  2  0  0  0  0
 38 42  1  0  0  0  0
 39 43  1  0  0  0  0
 40 39  1  0  0  0  0
 41 37  2  0  0  0  0
 41 40  1  0  0  0  0
 44 40  1  0  0  0  0
 44 46  1  0  0  0  0
 45 44  1  0  0  0  0
 47 44  1  0  0  0  0
M  END
>  <minimizedAffinity>
-6.5365243

$$$$
