
 OpenBabel03272507183D

 43 47  0  0  1  0  0  0  0  0999 V2000
   37.1030   30.6130   45.7890 C   0  0  0  0  0  0  0  0  0  0  0  0
   38.0160   30.5490   44.7500 C   0  0  0  0  0  0  0  0  0  0  0  0
   39.0340   30.9050   44.8690 H   0  0  0  0  0  0  0  0  0  0  0  0
   37.6050   30.0170   43.5410 C   0  0  0  0  0  0  0  0  0  0  0  0
   38.2710   29.9380   42.6880 H   0  0  0  0  0  0  0  0  0  0  0  0
   36.3070   29.5580   43.3720 C   0  0  0  0  0  0  0  0  0  0  0  0
   35.4330   29.6480   44.4560 C   0  0  0  0  0  0  0  0  0  0  0  0
   35.7940   30.1730   45.6900 C   0  0  0  0  0  0  0  0  0  0  0  0
   35.0880   30.2270   46.5060 H   0  0  0  0  0  0  0  0  0  0  0  0
   33.7480   29.0760   44.3090 S   0  0  0  0  0  0  0  0  0  0  0  0
   33.5500   28.4590   42.6460 C   0  0  0  0  0  0  0  0  0  0  0  0
   32.3010   27.9660   42.3300 C   0  0  0  0  0  0  0  0  0  0  0  0
   31.4930   27.9540   43.0450 H   0  0  0  0  0  0  0  0  0  0  0  0
   32.0820   27.4740   41.0610 C   0  0  0  0  0  0  0  0  0  0  0  0
   31.1160   27.0980   40.8340 H   0  0  0  0  0  0  0  0  0  0  0  0
   33.1500   27.5110   40.1830 C   0  0  0  0  0  0  0  0  0  0  0  0
   32.9170   27.1060   39.1880 H   0  0  0  0  0  0  0  0  0  0  0  0
   34.3950   28.0070   40.5100 C   0  0  0  0  0  0  0  0  0  0  0  0
   35.1820   28.0030   39.7660 H   0  0  0  0  0  0  0  0  0  0  0  0
   34.6340   28.5100   41.7940 C   0  0  0  0  0  0  0  0  0  0  0  0
   35.8910   29.0140   42.1310 N   0  0  0  0  0  0  0  0  0  0  0  0
   36.6290   28.9890   41.3740 H   0  0  0  0  0  0  0  0  0  0  0  0
   37.3530   31.2630   49.4300 C   0  0  0  0  0  0  0  0  0  0  0  0
   38.2650   32.2980   49.5380 C   0  0  0  0  0  0  0  0  0  0  0  0
   38.7780   32.7480   48.2960 C   0  0  0  0  0  0  0  0  0  0  0  0
   38.3710   32.1720   47.1150 N   0  0  0  0  0  0  0  0  0  0  0  0
   37.4760   31.1650   47.0920 C   0  0  0  0  0  0  0  0  0  0  0  0
   36.9550   30.6980   48.2630 N   0  0  0  0  0  0  0  0  0  0  0  0
   38.5640   32.7270   50.4610 H   0  0  0  0  0  0  0  0  0  0  0  0
   39.4860   33.5420   48.2800 H   0  0  0  0  0  0  0  0  0  0  0  0
   36.7610   30.7950   50.7220 C   0  0  1  0  0  0  0  0  0  0  0  0
   36.0380   29.5270   50.8300 C   0  0  2  0  0  0  0  0  0  0  0  0
   37.4710   29.5380   51.2630 C   0  0  0  0  0  0  0  0  0  0  0  0
   36.7270   31.6090   51.5000 H   0  0  0  0  0  0  0  0  0  0  0  0
   35.1980   29.5890   51.5870 H   0  0  0  0  0  0  0  0  0  0  0  0
   37.6410   29.4700   52.3520 H   0  0  0  0  0  0  0  0  0  0  0  0
   38.1890   29.0110   50.6100 H   0  0  0  0  0  0  0  0  0  0  0  0
   35.6950   28.8950   49.6420 O   0  0  0  0  0  0  0  0  0  0  0  0
   34.4860   28.4680   49.2000 C   0  0  0  0  0  0  0  0  0  0  0  0
   34.3700   27.5530   48.3570 O   0  0  0  0  0  0  0  0  0  0  0  0
   33.4980   29.2170   49.8390 N   0  0  0  0  0  0  0  0  0  0  0  0
   32.7980   28.8760   50.5410 H   0  0  0  0  0  0  0  0  0  0  0  0
   33.2360   30.2440   49.7720 H   0  0  0  0  0  0  0  0  0  0  0  0
  1 27  1  0  0  0  0
  2  3  1  0  0  0  0
  2  1  2  0  0  0  0
  4  2  1  0  0  0  0
  5  4  1  0  0  0  0
  6  4  2  0  0  0  0
  6  7  1  0  0  0  0
  7  8  2  0  0  0  0
  8  1  1  0  0  0  0
  8  9  1  0  0  0  0
 10  7  1  0  0  0  0
 11 10  1  0  0  0  0
 12 11  1  0  0  0  0
 12 13  1  0  0  0  0
 14 12  2  0  0  0  0
 15 14  1  0  0  0  0
 16 18  2  0  0  0  0
 16 14  1  0  0  0  0
 17 16  1  0  0  0  0
 18 20  1  0  0  0  0
 19 18  1  0  0  0  0
 20 21  1  0  0  0  0
 20 11  2  0  0  0  0
 21  6  1  0  0  0  0
 22 21  1  0  0  0  0
 23 24  1  0  0  0  0
 23 31  1  0  0  0  0
 24 29  1  0  0  0  0
 25 24  2  0  0  0  0
 26 25  1  0  0  0  0
 27 26  2  0  0  0  0
 27 28  1  0  0  0  0
 28 23  2  0  0  0  0
 30 25  1  0  0  0  0
 31 32  1  0  0  0  0
 31 33  1  0  0  0  0
 31 34  1  1  0  0  0
 32 33  1  0  0  0  0
 32 35  1  1  0  0  0
 33 36  1  0  0  0  0
 37 33  1  0  0  0  0
 38 32  1  0  0  0  0
 39 38  1  0  0  0  0
 39 41  1  0  0  0  0
 40 39  2  0  0  0  0
 41 42  1  0  0  0  0
 43 41  1  0  0  0  0
M  END
>  <minimizedAffinity>
-5.65650129

>  <minimizedRMSD>
0.583374262

$$$$
