
 OpenBabel03272507183D

 43 47  0  0  1  0  0  0  0  0999 V2000
   37.1030   30.6130   45.7880 C   0  0  0  0  0  0  0  0  0  0  0  0
   38.0150   30.5490   44.7500 C   0  0  0  0  0  0  0  0  0  0  0  0
   39.0330   30.9060   44.8690 H   0  0  0  0  0  0  0  0  0  0  0  0
   37.6040   30.0170   43.5400 C   0  0  0  0  0  0  0  0  0  0  0  0
   38.2700   29.9400   42.6880 H   0  0  0  0  0  0  0  0  0  0  0  0
   36.3070   29.5580   43.3720 C   0  0  0  0  0  0  0  0  0  0  0  0
   35.4320   29.6480   44.4560 C   0  0  0  0  0  0  0  0  0  0  0  0
   35.7940   30.1720   45.6900 C   0  0  0  0  0  0  0  0  0  0  0  0
   35.0870   30.2250   46.5070 H   0  0  0  0  0  0  0  0  0  0  0  0
   33.7480   29.0750   44.3090 S   0  0  0  0  0  0  0  0  0  0  0  0
   33.5500   28.4570   42.6460 C   0  0  0  0  0  0  0  0  0  0  0  0
   32.3010   27.9640   42.3300 C   0  0  0  0  0  0  0  0  0  0  0  0
   31.4930   27.9510   43.0470 H   0  0  0  0  0  0  0  0  0  0  0  0
   32.0830   27.4710   41.0620 C   0  0  0  0  0  0  0  0  0  0  0  0
   31.1160   27.0960   40.8350 H   0  0  0  0  0  0  0  0  0  0  0  0
   33.1490   27.5100   40.1830 C   0  0  0  0  0  0  0  0  0  0  0  0
   32.9160   27.1050   39.1890 H   0  0  0  0  0  0  0  0  0  0  0  0
   34.3940   28.0070   40.5100 C   0  0  0  0  0  0  0  0  0  0  0  0
   35.1820   28.0020   39.7660 H   0  0  0  0  0  0  0  0  0  0  0  0
   34.6340   28.5090   41.7940 C   0  0  0  0  0  0  0  0  0  0  0  0
   35.8910   29.0130   42.1310 N   0  0  0  0  0  0  0  0  0  0  0  0
   36.6280   28.9900   41.3740 H   0  0  0  0  0  0  0  0  0  0  0  0
   37.3530   31.2630   49.4300 C   0  0  0  0  0  0  0  0  0  0  0  0
   38.2650   32.2980   49.5380 C   0  0  0  0  0  0  0  0  0  0  0  0
   38.7780   32.7480   48.2960 C   0  0  0  0  0  0  0  0  0  0  0  0
   38.3710   32.1720   47.1140 N   0  0  0  0  0  0  0  0  0  0  0  0
   37.4760   31.1650   47.0920 C   0  0  0  0  0  0  0  0  0  0  0  0
   36.9550   30.6980   48.2630 N   0  0  0  0  0  0  0  0  0  0  0  0
   38.5640   32.7270   50.4610 H   0  0  0  0  0  0  0  0  0  0  0  0
   39.4860   33.5420   48.2800 H   0  0  0  0  0  0  0  0  0  0  0  0
   36.7610   30.7950   50.7220 C   0  0  1  0  0  0  0  0  0  0  0  0
   36.0370   29.5270   50.8290 C   0  0  2  0  0  0  0  0  0  0  0  0
   37.4710   29.5380   51.2630 C   0  0  0  0  0  0  0  0  0  0  0  0
   36.7270   31.6090   51.5000 H   0  0  0  0  0  0  0  0  0  0  0  0
   35.1980   29.5890   51.5870 H   0  0  0  0  0  0  0  0  0  0  0  0
   37.6410   29.4700   52.3510 H   0  0  0  0  0  0  0  0  0  0  0  0
   38.1890   29.0110   50.6100 H   0  0  0  0  0  0  0  0  0  0  0  0
   35.6950   28.8950   49.6420 O   0  0  0  0  0  0  0  0  0  0  0  0
   34.4860   28.4680   49.2000 C   0  0  0  0  0  0  0  0  0  0  0  0
   34.3700   27.5540   48.3560 O   0  0  0  0  0  0  0  0  0  0  0  0
   33.4980   29.2160   49.8400 N   0  0  0  0  0  0  0  0  0  0  0  0
   32.7980   28.8740   50.5420 H   0  0  0  0  0  0  0  0  0  0  0  0
   33.2350   30.2430   49.7740 H   0  0  0  0  0  0  0  0  0  0  0  0
  1 27  1  0  0  0  0
  2  3  1  0  0  0  0
  2  1  2  0  0  0  0
  4  2  1  0  0  0  0
  5  4  1  0  0  0  0
  6  4  2  0  0  0  0
  6  7  1  0  0  0  0
  7  8  2  0  0  0  0
  8  1  1  0  0  0  0
  8  9  1  0  0  0  0
 10  7  1  0  0  0  0
 11 10  1  0  0  0  0
 12 11  1  0  0  0  0
 12 13  1  0  0  0  0
 14 12  2  0  0  0  0
 15 14  1  0  0  0  0
 16 18  2  0  0  0  0
 16 14  1  0  0  0  0
 17 16  1  0  0  0  0
 18 20  1  0  0  0  0
 19 18  1  0  0  0  0
 20 21  1  0  0  0  0
 20 11  2  0  0  0  0
 21  6  1  0  0  0  0
 22 21  1  0  0  0  0
 23 24  1  0  0  0  0
 23 31  1  0  0  0  0
 24 29  1  0  0  0  0
 25 24  2  0  0  0  0
 26 25  1  0  0  0  0
 27 26  2  0  0  0  0
 27 28  1  0  0  0  0
 28 23  2  0  0  0  0
 30 25  1  0  0  0  0
 31 32  1  0  0  0  0
 31 33  1  0  0  0  0
 31 34  1  1  0  0  0
 32 33  1  0  0  0  0
 32 35  1  1  0  0  0
 33 36  1  0  0  0  0
 37 33  1  0  0  0  0
 38 32  1  0  0  0  0
 39 38  1  0  0  0  0
 39 41  1  0  0  0  0
 40 39  2  0  0  0  0
 41 42  1  0  0  0  0
 43 41  1  0  0  0  0
M  END
>  <minimizedAffinity>
-5.65914726

>  <minimizedRMSD>
0.877663672

$$$$
