
 OpenBabel03272507183D

 43 47  0  0  1  0  0  0  0  0999 V2000
   36.6910   30.6730   45.8930 C   0  0  0  0  0  0  0  0  0  0  0  0
   37.3390   30.9270   44.6980 C   0  0  0  0  0  0  0  0  0  0  0  0
   38.2700   31.4830   44.6670 H   0  0  0  0  0  0  0  0  0  0  0  0
   36.7720   30.4570   43.5250 C   0  0  0  0  0  0  0  0  0  0  0  0
   37.2300   30.6240   42.5570 H   0  0  0  0  0  0  0  0  0  0  0  0
   35.5820   29.7460   43.5480 C   0  0  0  0  0  0  0  0  0  0  0  0
   34.9760   29.5200   44.7850 C   0  0  0  0  0  0  0  0  0  0  0  0
   35.5010   29.9700   45.9880 C   0  0  0  0  0  0  0  0  0  0  0  0
   35.0020   29.7750   46.9280 H   0  0  0  0  0  0  0  0  0  0  0  0
   33.4420   28.6120   44.8870 S   0  0  0  0  0  0  0  0  0  0  0  0
   32.9930   28.1560   43.2200 C   0  0  0  0  0  0  0  0  0  0  0  0
   31.8230   27.4390   43.0850 C   0  0  0  0  0  0  0  0  0  0  0  0
   31.2150   27.1700   43.9350 H   0  0  0  0  0  0  0  0  0  0  0  0
   31.4200   27.0570   41.8240 C   0  0  0  0  0  0  0  0  0  0  0  0
   30.5170   26.5060   41.7370 H   0  0  0  0  0  0  0  0  0  0  0  0
   32.2320   27.4270   40.7680 C   0  0  0  0  0  0  0  0  0  0  0  0
   31.8600   27.0950   39.7890 H   0  0  0  0  0  0  0  0  0  0  0  0
   33.4010   28.1440   40.9150 C   0  0  0  0  0  0  0  0  0  0  0  0
   33.9860   28.3970   40.0390 H   0  0  0  0  0  0  0  0  0  0  0  0
   33.8250   28.5410   42.1880 C   0  0  0  0  0  0  0  0  0  0  0  0
   35.0060   29.2670   42.3440 N   0  0  0  0  0  0  0  0  0  0  0  0
   35.5440   29.4900   41.4620 H   0  0  0  0  0  0  0  0  0  0  0  0
   37.3290   31.1950   49.5070 C   0  0  0  0  0  0  0  0  0  0  0  0
   38.3640   32.1130   49.5500 C   0  0  0  0  0  0  0  0  0  0  0  0
   38.8170   32.5320   48.2740 C   0  0  0  0  0  0  0  0  0  0  0  0
   38.2440   32.0380   47.1250 N   0  0  0  0  0  0  0  0  0  0  0  0
   37.2380   31.1430   47.1670 C   0  0  0  0  0  0  0  0  0  0  0  0
   36.7680   30.7110   48.3720 N   0  0  0  0  0  0  0  0  0  0  0  0
   38.7900   32.4800   50.4490 H   0  0  0  0  0  0  0  0  0  0  0  0
   39.6110   33.2380   48.2080 H   0  0  0  0  0  0  0  0  0  0  0  0
   36.8000   30.7660   50.8390 C   0  0  1  0  0  0  0  0  0  0  0  0
   36.0870   29.5010   51.0200 C   0  0  2  0  0  0  0  0  0  0  0  0
   37.5390   29.5280   51.3860 C   0  0  0  0  0  0  0  0  0  0  0  0
   36.7990   31.6040   51.5930 H   0  0  0  0  0  0  0  0  0  0  0  0
   35.2830   29.5840   51.8140 H   0  0  0  0  0  0  0  0  0  0  0  0
   37.7590   29.4940   52.4670 H   0  0  0  0  0  0  0  0  0  0  0  0
   38.2270   28.9830   50.7170 H   0  0  0  0  0  0  0  0  0  0  0  0
   35.6920   28.8320   49.8700 O   0  0  0  0  0  0  0  0  0  0  0  0
   34.4510   28.4820   49.4490 C   0  0  0  0  0  0  0  0  0  0  0  0
   34.2570   27.5300   48.6640 O   0  0  0  0  0  0  0  0  0  0  0  0
   33.5300   29.3510   50.0350 N   0  0  0  0  0  0  0  0  0  0  0  0
   32.8030   29.1140   50.7520 H   0  0  0  0  0  0  0  0  0  0  0  0
   33.3560   30.3890   49.9020 H   0  0  0  0  0  0  0  0  0  0  0  0
  1  8  1  0  0  0  0
  1 27  1  0  0  0  0
  2  1  2  0  0  0  0
  3  2  1  0  0  0  0
  4  6  2  0  0  0  0
  4  2  1  0  0  0  0
  5  4  1  0  0  0  0
  6  7  1  0  0  0  0
  7 10  1  0  0  0  0
  7  8  2  0  0  0  0
  8  9  1  0  0  0  0
 11 10  1  0  0  0  0
 12 11  1  0  0  0  0
 12 13  1  0  0  0  0
 14 12  2  0  0  0  0
 15 14  1  0  0  0  0
 16 18  2  0  0  0  0
 16 14  1  0  0  0  0
 17 16  1  0  0  0  0
 18 20  1  0  0  0  0
 19 18  1  0  0  0  0
 20 21  1  0  0  0  0
 20 11  2  0  0  0  0
 21  6  1  0  0  0  0
 22 21  1  0  0  0  0
 23 24  1  0  0  0  0
 23 31  1  0  0  0  0
 24 29  1  0  0  0  0
 25 24  2  0  0  0  0
 26 27  2  0  0  0  0
 26 25  1  0  0  0  0
 27 28  1  0  0  0  0
 28 23  2  0  0  0  0
 30 25  1  0  0  0  0
 31 32  1  0  0  0  0
 31 33  1  0  0  0  0
 31 34  1  1  0  0  0
 32 33  1  0  0  0  0
 32 35  1  1  0  0  0
 33 36  1  0  0  0  0
 37 33  1  0  0  0  0
 38 32  1  0  0  0  0
 39 38  1  0  0  0  0
 39 41  1  0  0  0  0
 40 39  2  0  0  0  0
 41 42  1  0  0  0  0
 43 41  1  0  0  0  0
M  END
>  <minimizedAffinity>
-5.6262064

>  <minimizedRMSD>
0.612113833

$$$$
