
 OpenBabel03272507183D

 43 47  0  0  1  0  0  0  0  0999 V2000
   37.8410   31.2780   45.7560 C   0  0  0  0  0  0  0  0  0  0  0  0
   38.7630   31.6350   44.7880 C   0  0  0  0  0  0  0  0  0  0  0  0
   39.6200   32.2560   45.0260 H   0  0  0  0  0  0  0  0  0  0  0  0
   38.5720   31.1820   43.4940 C   0  0  0  0  0  0  0  0  0  0  0  0
   39.2580   31.4270   42.6900 H   0  0  0  0  0  0  0  0  0  0  0  0
   37.4810   30.3890   43.1730 C   0  0  0  0  0  0  0  0  0  0  0  0
   36.5850   30.0620   44.1930 C   0  0  0  0  0  0  0  0  0  0  0  0
   36.7310   30.4890   45.5060 C   0  0  0  0  0  0  0  0  0  0  0  0
   36.0150   30.2150   46.2690 H   0  0  0  0  0  0  0  0  0  0  0  0
   35.1590   29.0440   43.8520 S   0  0  0  0  0  0  0  0  0  0  0  0
   35.2120   28.6390   42.1130 C   0  0  0  0  0  0  0  0  0  0  0  0
   34.1810   27.8490   41.6470 C   0  0  0  0  0  0  0  0  0  0  0  0
   33.3920   27.4970   42.2940 H   0  0  0  0  0  0  0  0  0  0  0  0
   34.1630   27.5000   40.3140 C   0  0  0  0  0  0  0  0  0  0  0  0
   33.3640   26.8910   39.9710 H   0  0  0  0  0  0  0  0  0  0  0  0
   35.1960   27.9760   39.5280 C   0  0  0  0  0  0  0  0  0  0  0  0
   35.1290   27.6660   38.4760 H   0  0  0  0  0  0  0  0  0  0  0  0
   36.2220   28.7660   40.0050 C   0  0  0  0  0  0  0  0  0  0  0  0
   36.9970   29.1010   39.3270 H   0  0  0  0  0  0  0  0  0  0  0  0
   36.2550   29.1300   41.3560 C   0  0  0  0  0  0  0  0  0  0  0  0
   37.2890   29.9290   41.8460 N   0  0  0  0  0  0  0  0  0  0  0  0
   38.0230   30.2310   41.1490 H   0  0  0  0  0  0  0  0  0  0  0  0
   37.5140   31.6060   49.4340 C   0  0  0  0  0  0  0  0  0  0  0  0
   38.3430   32.6630   49.7650 C   0  0  0  0  0  0  0  0  0  0  0  0
   39.0100   33.2440   48.6570 C   0  0  0  0  0  0  0  0  0  0  0  0
   38.8140   32.7600   47.3840 N   0  0  0  0  0  0  0  0  0  0  0  0
   37.9870   31.7240   47.1420 C   0  0  0  0  0  0  0  0  0  0  0  0
   37.3250   31.1330   48.1770 N   0  0  0  0  0  0  0  0  0  0  0  0
   38.4790   33.0180   50.7550 H   0  0  0  0  0  0  0  0  0  0  0  0
   39.6690   34.0640   48.8150 H   0  0  0  0  0  0  0  0  0  0  0  0
   36.7640   31.0000   50.5770 C   0  0  1  0  0  0  0  0  0  0  0  0
   36.0600   29.7220   50.4530 C   0  0  2  0  0  0  0  0  0  0  0  0
   37.4220   29.6990   51.0780 C   0  0  0  0  0  0  0  0  0  0  0  0
   36.6060   31.7270   51.4230 H   0  0  0  0  0  0  0  0  0  0  0  0
   35.1250   29.6970   51.0910 H   0  0  0  0  0  0  0  0  0  0  0  0
   37.4440   29.5180   52.1670 H   0  0  0  0  0  0  0  0  0  0  0  0
   38.2330   29.2490   50.4790 H   0  0  0  0  0  0  0  0  0  0  0  0
   35.8960   29.2160   49.1710 O   0  0  0  0  0  0  0  0  0  0  0  0
   34.7610   28.9620   48.4740 C   0  0  0  0  0  0  0  0  0  0  0  0
   34.3940   27.8000   48.1980 O   0  0  0  0  0  0  0  0  0  0  0  0
   34.1560   30.1800   48.1640 N   0  0  0  0  0  0  0  0  0  0  0  0
   33.2470   30.5490   48.5330 H   0  0  0  0  0  0  0  0  0  0  0  0
   34.4530   30.9720   47.5230 H   0  0  0  0  0  0  0  0  0  0  0  0
  1 27  1  0  0  0  0
  2  3  1  0  0  0  0
  2  1  2  0  0  0  0
  4  2  1  0  0  0  0
  5  4  1  0  0  0  0
  6  4  2  0  0  0  0
  6  7  1  0  0  0  0
  7  8  2  0  0  0  0
  8  1  1  0  0  0  0
  8  9  1  0  0  0  0
 10  7  1  0  0  0  0
 11 10  1  0  0  0  0
 12 11  1  0  0  0  0
 12 13  1  0  0  0  0
 14 12  2  0  0  0  0
 15 14  1  0  0  0  0
 16 18  2  0  0  0  0
 16 14  1  0  0  0  0
 17 16  1  0  0  0  0
 18 20  1  0  0  0  0
 19 18  1  0  0  0  0
 20 21  1  0  0  0  0
 20 11  2  0  0  0  0
 21  6  1  0  0  0  0
 22 21  1  0  0  0  0
 23 24  1  0  0  0  0
 23 31  1  0  0  0  0
 24 29  1  0  0  0  0
 25 30  1  0  0  0  0
 25 24  2  0  0  0  0
 26 25  1  0  0  0  0
 27 26  2  0  0  0  0
 27 28  1  0  0  0  0
 28 23  2  0  0  0  0
 31 33  1  0  0  0  0
 31 34  1  1  0  0  0
 32 31  1  0  0  0  0
 32 33  1  0  0  0  0
 32 35  1  1  0  0  0
 33 36  1  0  0  0  0
 37 33  1  0  0  0  0
 38 32  1  0  0  0  0
 39 38  1  0  0  0  0
 40 39  2  0  0  0  0
 41 39  1  0  0  0  0
 41 42  1  0  0  0  0
 43 41  1  0  0  0  0
M  END
>  <minimizedAffinity>
-5.64335775

>  <minimizedRMSD>
1.68011808

$$$$
