
 OpenBabel03272500253D

 47 51  0  0  0  0  0  0  0  0999 V2000
   39.7720   31.8540   45.1900 C   0  0  0  0  0  0  0  0  0  0  0  0
   39.6400   33.0250   44.5150 C   0  0  0  0  0  0  0  0  0  0  0  0
   39.5460   33.0770   43.1170 C   0  0  0  0  0  0  0  0  0  0  0  0
   39.6010   31.8530   42.4890 N   0  0  0  0  0  0  0  0  0  0  0  0
   39.7330   30.7010   43.1660 C   0  0  0  0  0  0  0  0  0  0  0  0
   39.8180   30.7120   44.5160 N   0  0  0  0  0  0  0  0  0  0  0  0
   39.5910   34.0130   44.9530 H   0  0  0  0  0  0  0  0  0  0  0  0
   39.4410   33.9820   42.5520 H   0  0  0  0  0  0  0  0  0  0  0  0
   39.7870   29.4160   42.4750 C   0  0  0  0  0  0  0  0  0  0  0  0
   40.3890   29.3130   41.2430 C   0  0  0  0  0  0  0  0  0  0  0  0
   40.8260   30.1880   40.7830 H   0  0  0  0  0  0  0  0  0  0  0  0
   40.4190   28.0800   40.6250 C   0  0  0  0  0  0  0  0  0  0  0  0
   40.9110   28.0720   39.6530 H   0  0  0  0  0  0  0  0  0  0  0  0
   39.8870   26.9230   41.1450 C   0  0  0  0  0  0  0  0  0  0  0  0
   39.2960   27.0720   42.3750 C   0  0  0  0  0  0  0  0  0  0  0  0
   39.2470   28.2680   43.0150 C   0  0  0  0  0  0  0  0  0  0  0  0
   38.7620   28.3300   43.9970 H   0  0  0  0  0  0  0  0  0  0  0  0
   38.5700   25.6470   43.1560 S   0  0  0  0  0  0  0  0  0  0  0  0
   38.8200   24.2810   42.0430 C   0  0  0  0  0  0  0  0  0  0  0  0
   38.3670   23.0520   42.3750 C   0  0  0  0  0  0  0  0  0  0  0  0
   37.8480   22.8830   43.3190 H   0  0  0  0  0  0  0  0  0  0  0  0
   38.5230   21.9560   41.5690 C   0  0  0  0  0  0  0  0  0  0  0  0
   38.1820   20.9490   41.7830 H   0  0  0  0  0  0  0  0  0  0  0  0
   39.1770   22.1420   40.3670 C   0  0  0  0  0  0  0  0  0  0  0  0
   39.3230   21.3090   39.7010 H   0  0  0  0  0  0  0  0  0  0  0  0
   39.6310   23.4080   40.0510 C   0  0  0  0  0  0  0  0  0  0  0  0
   40.1360   23.4850   39.0910 H   0  0  0  0  0  0  0  0  0  0  0  0
   39.4750   24.5120   40.8600 C   0  0  0  0  0  0  0  0  0  0  0  0
   39.9990   25.7380   40.3870 N   0  0  0  0  0  0  0  0  0  0  0  0
   40.4740   25.7760   39.4690 H   0  0  0  0  0  0  0  0  0  0  0  0
   39.8640   31.8430   46.6140 C   0  0  0  0  0  0  0  0  0  0  0  0
   40.8480   32.3220   46.9000 H   0  0  0  0  0  0  0  0  0  0  0  0
   40.0080   30.7820   46.9770 H   0  0  0  0  0  0  0  0  0  0  0  0
   38.7990   32.4110   47.4430 C   0  0  0  0  0  0  0  0  0  0  0  0
   39.2020   33.1600   48.1860 H   0  0  0  0  0  0  0  0  0  0  0  0
   38.0650   32.9990   46.8530 H   0  0  0  0  0  0  0  0  0  0  0  0
   38.0550   31.4340   48.2680 C   0  0  0  0  0  0  0  0  0  0  0  0
   37.0150   30.7000   47.7180 C   0  0  0  0  0  0  0  0  0  0  0  0
   36.5090   29.8810   48.6930 C   0  0  0  0  0  0  0  0  0  0  0  0
   37.2210   30.1180   49.7970 N   0  0  0  0  0  0  0  0  0  0  0  0
   38.1170   31.0300   49.5160 N   0  0  0  0  0  0  0  0  0  0  0  0
   36.5590   30.6540   46.7230 H   0  0  0  0  0  0  0  0  0  0  0  0
   35.7140   29.1530   48.7220 H   0  0  0  0  0  0  0  0  0  0  0  0
   37.0870   29.5050   51.1280 C   0  0  0  0  0  0  0  0  0  0  0  0
   37.8480   28.3710   51.2170 F   0  0  0  0  0  0  0  0  0  0  0  0
   35.7660   29.1760   51.3940 F   0  0  0  0  0  0  0  0  0  0  0  0
   37.5220   30.3760   52.1230 F   0  0  0  0  0  0  0  0  0  0  0  0
  1 31  1  0  0  0  0
  2  7  1  0  0  0  0
  2  1  2  0  0  0  0
  3  2  1  0  0  0  0
  4  3  2  0  0  0  0
  4  5  1  0  0  0  0
  5  6  2  0  0  0  0
  6  1  1  0  0  0  0
  8  3  1  0  0  0  0
  9 16  1  0  0  0  0
  9  5  1  0  0  0  0
 10  9  2  0  0  0  0
 11 10  1  0  0  0  0
 12 14  2  0  0  0  0
 12 10  1  0  0  0  0
 13 12  1  0  0  0  0
 14 15  1  0  0  0  0
 15 16  2  0  0  0  0
 15 18  1  0  0  0  0
 16 17  1  0  0  0  0
 19 20  1  0  0  0  0
 19 18  1  0  0  0  0
 20 21  1  0  0  0  0
 22 23  1  0  0  0  0
 22 20  2  0  0  0  0
 24 22  1  0  0  0  0
 25 24  1  0  0  0  0
 26 24  2  0  0  0  0
 26 28  1  0  0  0  0
 27 26  1  0  0  0  0
 28 19  2  0  0  0  0
 29 28  1  0  0  0  0
 29 14  1  0  0  0  0
 30 29  1  0  0  0  0
 31 32  1  0  0  0  0
 31 33  1  0  0  0  0
 31 34  1  0  0  0  0
 34 35  1  0  0  0  0
 34 37  1  0  0  0  0
 36 34  1  0  0  0  0
 37 41  2  0  0  0  0
 38 37  1  0  0  0  0
 38 39  2  0  0  0  0
 39 43  1  0  0  0  0
 39 40  1  0  0  0  0
 40 44  1  0  0  0  0
 41 40  1  0  0  0  0
 42 38  1  0  0  0  0
 44 45  1  0  0  0  0
 44 46  1  0  0  0  0
 44 47  1  0  0  0  0
M  END
>  <minimizedAffinity>
-6.68742132

>  <minimizedRMSD>
2.06953764

$$$$
