
 OpenBabel03272507183D

 43 47  0  0  1  0  0  0  0  0999 V2000
   37.8430   31.0310   45.8720 C   0  0  0  0  0  0  0  0  0  0  0  0
   36.6520   30.5000   45.4080 C   0  0  0  0  0  0  0  0  0  0  0  0
   35.7800   30.4200   46.0490 H   0  0  0  0  0  0  0  0  0  0  0  0
   36.5900   30.0660   44.0950 C   0  0  0  0  0  0  0  0  0  0  0  0
   35.6870   29.6400   43.6700 H   0  0  0  0  0  0  0  0  0  0  0  0
   37.6950   30.1610   43.2630 C   0  0  0  0  0  0  0  0  0  0  0  0
   38.8670   30.7060   43.7890 C   0  0  0  0  0  0  0  0  0  0  0  0
   38.9820   31.1550   45.0980 C   0  0  0  0  0  0  0  0  0  0  0  0
   39.9090   31.5710   45.4690 H   0  0  0  0  0  0  0  0  0  0  0  0
   40.3290   30.8580   42.7740 S   0  0  0  0  0  0  0  0  0  0  0  0
   39.9110   30.2140   41.1610 C   0  0  0  0  0  0  0  0  0  0  0  0
   40.9210   30.2430   40.2220 C   0  0  0  0  0  0  0  0  0  0  0  0
   41.9020   30.6320   40.4470 H   0  0  0  0  0  0  0  0  0  0  0  0
   40.6640   29.7610   38.9570 C   0  0  0  0  0  0  0  0  0  0  0  0
   41.4510   29.7910   38.2450 H   0  0  0  0  0  0  0  0  0  0  0  0
   39.3930   29.2750   38.7170 C   0  0  0  0  0  0  0  0  0  0  0  0
   39.2460   28.9050   37.6940 H   0  0  0  0  0  0  0  0  0  0  0  0
   38.3900   29.2510   39.6660 C   0  0  0  0  0  0  0  0  0  0  0  0
   37.4180   28.8530   39.4030 H   0  0  0  0  0  0  0  0  0  0  0  0
   38.6340   29.7360   40.9560 C   0  0  0  0  0  0  0  0  0  0  0  0
   37.6250   29.7140   41.9190 N   0  0  0  0  0  0  0  0  0  0  0  0
   36.6920   29.3180   41.6200 H   0  0  0  0  0  0  0  0  0  0  0  0
   37.5600   31.3740   49.5530 C   0  0  0  0  0  0  0  0  0  0  0  0
   38.2880   32.5110   49.8550 C   0  0  0  0  0  0  0  0  0  0  0  0
   38.8730   33.1390   48.7270 C   0  0  0  0  0  0  0  0  0  0  0  0
   38.6990   32.6220   47.4630 N   0  0  0  0  0  0  0  0  0  0  0  0
   37.9730   31.5080   47.2500 C   0  0  0  0  0  0  0  0  0  0  0  0
   37.3920   30.8690   48.3060 N   0  0  0  0  0  0  0  0  0  0  0  0
   38.4090   32.8910   50.8370 H   0  0  0  0  0  0  0  0  0  0  0  0
   39.4520   34.0220   48.8610 H   0  0  0  0  0  0  0  0  0  0  0  0
   36.8950   30.7130   50.7190 C   0  0  1  0  0  0  0  0  0  0  0  0
   36.1030   29.4910   50.5700 C   0  0  2  0  0  0  0  0  0  0  0  0
   37.5170   29.3390   51.0380 C   0  0  0  0  0  0  0  0  0  0  0  0
   36.8730   31.3710   51.6320 H   0  0  0  0  0  0  0  0  0  0  0  0
   35.2390   29.4620   51.3010 H   0  0  0  0  0  0  0  0  0  0  0  0
   37.6410   29.0640   52.1000 H   0  0  0  0  0  0  0  0  0  0  0  0
   38.2310   28.9000   50.3200 H   0  0  0  0  0  0  0  0  0  0  0  0
   35.7740   29.1080   49.2760 O   0  0  0  0  0  0  0  0  0  0  0  0
   34.5590   28.8880   48.7160 C   0  0  0  0  0  0  0  0  0  0  0  0
   34.4290   28.5330   47.5250 O   0  0  0  0  0  0  0  0  0  0  0  0
   33.5820   29.1310   49.6810 N   0  0  0  0  0  0  0  0  0  0  0  0
   32.9420   28.4300   50.1270 H   0  0  0  0  0  0  0  0  0  0  0  0
   33.2730   30.0250   50.1640 H   0  0  0  0  0  0  0  0  0  0  0  0
  1 27  1  0  0  0  0
  2  1  1  0  0  0  0
  2  3  1  0  0  0  0
  4  2  2  0  0  0  0
  5  4  1  0  0  0  0
  6  7  2  0  0  0  0
  6  4  1  0  0  0  0
  7  8  1  0  0  0  0
  8  9  1  0  0  0  0
  8  1  2  0  0  0  0
 10  7  1  0  0  0  0
 11 10  1  0  0  0  0
 12 13  1  0  0  0  0
 12 11  2  0  0  0  0
 14 12  1  0  0  0  0
 15 14  1  0  0  0  0
 16 14  2  0  0  0  0
 16 18  1  0  0  0  0
 17 16  1  0  0  0  0
 18 20  2  0  0  0  0
 19 18  1  0  0  0  0
 20 11  1  0  0  0  0
 20 21  1  0  0  0  0
 21  6  1  0  0  0  0
 22 21  1  0  0  0  0
 23 24  1  0  0  0  0
 23 31  1  0  0  0  0
 24 29  1  0  0  0  0
 25 30  1  0  0  0  0
 25 24  2  0  0  0  0
 26 25  1  0  0  0  0
 27 26  2  0  0  0  0
 27 28  1  0  0  0  0
 28 23  2  0  0  0  0
 31 33  1  0  0  0  0
 31 34  1  1  0  0  0
 32 31  1  0  0  0  0
 32 33  1  0  0  0  0
 32 35  1  1  0  0  0
 33 36  1  0  0  0  0
 37 33  1  0  0  0  0
 38 32  1  0  0  0  0
 39 38  1  0  0  0  0
 39 41  1  0  0  0  0
 40 39  2  0  0  0  0
 41 42  1  0  0  0  0
 41 43  1  0  0  0  0
M  END
>  <minimizedAffinity>
-6.24041796

>  <minimizedRMSD>
2.44287443

$$$$
