
 OpenBabel03262522413D

 54 60  0  0  0  0  0  0  0  0999 V2000
   37.5420   29.9690   29.4440 C   0  0  0  0  0  0  0  0  0  0  0  0
   36.3690   30.6080   29.8880 C   0  0  0  0  0  0  0  0  0  0  0  0
   35.8320   30.1810   31.1190 C   0  0  0  0  0  0  0  0  0  0  0  0
   36.4600   29.2060   31.7830 N   0  0  0  0  0  0  0  0  0  0  0  0
   37.5920   28.6120   31.3250 C   0  0  0  0  0  0  0  0  0  0  0  0
   38.1130   28.9970   30.1750 N   0  0  0  0  0  0  0  0  0  0  0  0
   37.9740   30.2770   28.5090 H   0  0  0  0  0  0  0  0  0  0  0  0
   35.8730   31.3840   29.3540 H   0  0  0  0  0  0  0  0  0  0  0  0
   38.2150   27.5550   32.1140 C   0  0  0  0  0  0  0  0  0  0  0  0
   39.2870   26.8270   31.6390 C   0  0  0  0  0  0  0  0  0  0  0  0
   39.6980   27.0170   30.6680 H   0  0  0  0  0  0  0  0  0  0  0  0
   39.7980   25.8480   32.4750 C   0  0  0  0  0  0  0  0  0  0  0  0
   40.6480   25.2990   32.0490 H   0  0  0  0  0  0  0  0  0  0  0  0
   39.3380   25.5310   33.7350 C   0  0  0  0  0  0  0  0  0  0  0  0
   38.2710   26.2930   34.1440 C   0  0  0  0  0  0  0  0  0  0  0  0
   37.7320   27.2610   33.3720 C   0  0  0  0  0  0  0  0  0  0  0  0
   36.8770   27.8530   33.7330 H   0  0  0  0  0  0  0  0  0  0  0  0
   37.5770   25.9860   35.7590 S   0  0  0  0  0  0  0  0  0  0  0  0
   38.5420   24.6610   36.4590 C   0  0  0  0  0  0  0  0  0  0  0  0
   38.2130   24.2290   37.7020 C   0  0  0  0  0  0  0  0  0  0  0  0
   37.3930   24.6720   38.2590 H   0  0  0  0  0  0  0  0  0  0  0  0
   38.9050   23.2080   38.3230 C   0  0  0  0  0  0  0  0  0  0  0  0
   38.6160   22.8930   39.3100 H   0  0  0  0  0  0  0  0  0  0  0  0
   39.9510   22.6360   37.6290 C   0  0  0  0  0  0  0  0  0  0  0  0
   40.5090   21.8340   38.0900 H   0  0  0  0  0  0  0  0  0  0  0  0
   40.2410   23.1130   36.3670 C   0  0  0  0  0  0  0  0  0  0  0  0
   41.0800   22.6070   35.8890 H   0  0  0  0  0  0  0  0  0  0  0  0
   39.5670   24.1310   35.7250 C   0  0  0  0  0  0  0  0  0  0  0  0
   39.9720   24.5110   34.4460 N   0  0  0  0  0  0  0  0  0  0  0  0
   40.7690   24.0180   34.0110 H   0  0  0  0  0  0  0  0  0  0  0  0
   34.6220   30.7650   31.6820 C   0  0  0  0  0  0  0  0  0  0  0  0
   33.9310   31.8020   31.1100 C   0  0  0  0  0  0  0  0  0  0  0  0
   32.7900   32.3400   31.6560 C   0  0  0  0  0  0  0  0  0  0  0  0
   32.2920   31.8450   32.8240 C   0  0  0  0  0  0  0  0  0  0  0  0
   33.0030   30.8020   33.3820 C   0  0  0  0  0  0  0  0  0  0  0  0
   34.0990   30.2940   32.8440 N   0  0  0  0  0  0  0  0  0  0  0  0
   34.3100   32.2040   30.1870 H   0  0  0  0  0  0  0  0  0  0  0  0
   32.3000   33.1690   31.1300 H   0  0  0  0  0  0  0  0  0  0  0  0
   31.3900   32.2660   33.2600 H   0  0  0  0  0  0  0  0  0  0  0  0
   32.5890   30.8150   35.8640 C   0  0  0  0  0  0  0  0  0  0  0  0
   32.5380   30.2130   34.6330 C   0  0  0  0  0  0  0  0  0  0  0  0
   31.9810   28.9330   34.6660 C   0  0  0  0  0  0  0  0  0  0  0  0
   31.5160   28.3020   35.8090 C   0  0  0  0  0  0  0  0  0  0  0  0
   30.9610   27.1010   36.0320 N   0  0  0  0  0  0  0  0  0  0  0  0
   30.7050   27.0260   37.3610 C   0  0  0  0  0  0  0  0  0  0  0  0
   31.0940   28.1790   37.9960 C   0  0  0  0  0  0  0  0  0  0  0  0
   31.6060   28.9760   36.9970 C   0  0  0  0  0  0  0  0  0  0  0  0
   32.1440   30.2370   37.0280 C   0  0  0  0  0  0  0  0  0  0  0  0
   33.0130   31.8190   35.9150 H   0  0  0  0  0  0  0  0  0  0  0  0
   31.8930   28.3680   33.7470 H   0  0  0  0  0  0  0  0  0  0  0  0
   30.7810   26.3870   35.2790 H   0  0  0  0  0  0  0  0  0  0  0  0
   30.2480   26.1170   37.7460 H   0  0  0  0  0  0  0  0  0  0  0  0
   30.9920   28.3620   39.0610 H   0  0  0  0  0  0  0  0  0  0  0  0
   32.2010   30.7430   37.9790 H   0  0  0  0  0  0  0  0  0  0  0  0
  1  2  2  0  0  0  0
  1  6  1  0  0  0  0
  2  3  1  0  0  0  0
  3 31  1  0  0  0  0
  3  4  2  0  0  0  0
  5  4  1  0  0  0  0
  5  9  1  0  0  0  0
  6  5  2  0  0  0  0
  7  1  1  0  0  0  0
  8  2  1  0  0  0  0
  9 16  1  0  0  0  0
 10  9  2  0  0  0  0
 10 12  1  0  0  0  0
 11 10  1  0  0  0  0
 12 14  2  0  0  0  0
 13 12  1  0  0  0  0
 14 15  1  0  0  0  0
 14 29  1  0  0  0  0
 15 18  1  0  0  0  0
 16 17  1  0  0  0  0
 16 15  2  0  0  0  0
 18 19  1  0  0  0  0
 19 20  1  0  0  0  0
 20 21  1  0  0  0  0
 20 22  2  0  0  0  0
 22 23  1  0  0  0  0
 24 25  1  0  0  0  0
 24 22  1  0  0  0  0
 26 24  2  0  0  0  0
 27 26  1  0  0  0  0
 28 26  1  0  0  0  0
 28 19  2  0  0  0  0
 29 28  1  0  0  0  0
 30 29  1  0  0  0  0
 31 36  1  0  0  0  0
 32 33  1  0  0  0  0
 32 31  2  0  0  0  0
 33 34  2  0  0  0  0
 34 39  1  0  0  0  0
 34 35  1  0  0  0  0
 35 41  1  0  0  0  0
 36 35  2  0  0  0  0
 37 32  1  0  0  0  0
 38 33  1  0  0  0  0
 40 49  1  0  0  0  0
 40 48  1  0  0  0  0
 41 42  1  0  0  0  0
 41 40  2  0  0  0  0
 42 43  2  0  0  0  0
 43 44  1  0  0  0  0
 43 47  1  0  0  0  0
 44 45  1  0  0  0  0
 45 52  1  0  0  0  0
 45 46  2  0  0  0  0
 46 53  1  0  0  0  0
 47 48  2  0  0  0  0
 47 46  1  0  0  0  0
 48 54  1  0  0  0  0
 50 42  1  0  0  0  0
 51 44  1  0  0  0  0
M  END
>  <minimizedAffinity>
-7.73571825

$$$$

 OpenBabel03262522413D

 54 60  0  0  0  0  0  0  0  0999 V2000
   37.6550   28.8180   30.3710 C   0  0  0  0  0  0  0  0  0  0  0  0
   36.4840   29.5880   30.5020 C   0  0  0  0  0  0  0  0  0  0  0  0
   35.7410   29.4270   31.6890 C   0  0  0  0  0  0  0  0  0  0  0  0
   36.1860   28.5640   32.6070 N   0  0  0  0  0  0  0  0  0  0  0  0
   37.3220   27.8360   32.4460 C   0  0  0  0  0  0  0  0  0  0  0  0
   38.0330   27.9720   31.3430 N   0  0  0  0  0  0  0  0  0  0  0  0
   38.2410   28.9210   29.4750 H   0  0  0  0  0  0  0  0  0  0  0  0
   36.1340   30.2740   29.7670 H   0  0  0  0  0  0  0  0  0  0  0  0
   37.7370   26.9170   33.4990 C   0  0  0  0  0  0  0  0  0  0  0  0
   37.1080   26.8810   34.7260 C   0  0  0  0  0  0  0  0  0  0  0  0
   36.2870   27.5340   34.9460 H   0  0  0  0  0  0  0  0  0  0  0  0
   37.5880   25.9670   35.6490 C   0  0  0  0  0  0  0  0  0  0  0  0
   37.0520   25.9800   36.6080 H   0  0  0  0  0  0  0  0  0  0  0  0
   38.6340   25.0900   35.4600 C   0  0  0  0  0  0  0  0  0  0  0  0
   39.2140   25.1790   34.2180 C   0  0  0  0  0  0  0  0  0  0  0  0
   38.7890   26.0510   33.2790 C   0  0  0  0  0  0  0  0  0  0  0  0
   39.2780   26.0940   32.2940 H   0  0  0  0  0  0  0  0  0  0  0  0
   40.5820   24.0970   33.8400 S   0  0  0  0  0  0  0  0  0  0  0  0
   40.8430   23.1130   35.3040 C   0  0  0  0  0  0  0  0  0  0  0  0
   41.8430   22.1970   35.2780 C   0  0  0  0  0  0  0  0  0  0  0  0
   42.4660   22.0610   34.4000 H   0  0  0  0  0  0  0  0  0  0  0  0
   42.1170   21.3900   36.3650 C   0  0  0  0  0  0  0  0  0  0  0  0
   42.9170   20.6740   36.3080 H   0  0  0  0  0  0  0  0  0  0  0  0
   41.3310   21.5510   37.4880 C   0  0  0  0  0  0  0  0  0  0  0  0
   41.5250   20.9340   38.3550 H   0  0  0  0  0  0  0  0  0  0  0  0
   40.3290   22.4990   37.4600 C   0  0  0  0  0  0  0  0  0  0  0  0
   39.7580   22.5610   38.3870 H   0  0  0  0  0  0  0  0  0  0  0  0
   40.0350   23.3160   36.3890 C   0  0  0  0  0  0  0  0  0  0  0  0
   38.9890   24.2310   36.5010 N   0  0  0  0  0  0  0  0  0  0  0  0
   38.4610   24.2740   37.3880 H   0  0  0  0  0  0  0  0  0  0  0  0
   34.5120   30.1680   31.9410 C   0  0  0  0  0  0  0  0  0  0  0  0
   34.0990   31.2470   31.2030 C   0  0  0  0  0  0  0  0  0  0  0  0
   32.9350   31.9330   31.4560 C   0  0  0  0  0  0  0  0  0  0  0  0
   32.1270   31.5520   32.4830 C   0  0  0  0  0  0  0  0  0  0  0  0
   32.5600   30.4640   33.2140 C   0  0  0  0  0  0  0  0  0  0  0  0
   33.6830   29.8130   32.9570 N   0  0  0  0  0  0  0  0  0  0  0  0
   34.7260   31.5610   30.3880 H   0  0  0  0  0  0  0  0  0  0  0  0
   32.6830   32.7860   30.8130 H   0  0  0  0  0  0  0  0  0  0  0  0
   31.2050   32.0900   32.6880 H   0  0  0  0  0  0  0  0  0  0  0  0
   30.5840   30.5580   34.7680 C   0  0  0  0  0  0  0  0  0  0  0  0
   31.7520   29.9890   34.3320 C   0  0  0  0  0  0  0  0  0  0  0  0
   32.1310   28.8670   35.0720 C   0  0  0  0  0  0  0  0  0  0  0  0
   31.4230   28.3520   36.1450 C   0  0  0  0  0  0  0  0  0  0  0  0
   31.6260   27.3060   36.9610 N   0  0  0  0  0  0  0  0  0  0  0  0
   30.5930   27.2850   37.8390 C   0  0  0  0  0  0  0  0  0  0  0  0
   29.7240   28.3180   37.5910 C   0  0  0  0  0  0  0  0  0  0  0  0
   30.2650   28.9830   36.5140 C   0  0  0  0  0  0  0  0  0  0  0  0
   29.8420   30.0910   35.8240 C   0  0  0  0  0  0  0  0  0  0  0  0
   30.2260   31.4400   34.2350 H   0  0  0  0  0  0  0  0  0  0  0  0
   33.0410   28.3410   34.8110 H   0  0  0  0  0  0  0  0  0  0  0  0
   32.4490   26.6550   36.8890 H   0  0  0  0  0  0  0  0  0  0  0  0
   30.5740   26.5010   38.5920 H   0  0  0  0  0  0  0  0  0  0  0  0
   28.8180   28.5130   38.1580 H   0  0  0  0  0  0  0  0  0  0  0  0
   28.9260   30.5660   36.1380 H   0  0  0  0  0  0  0  0  0  0  0  0
  1  2  2  0  0  0  0
  1  6  1  0  0  0  0
  2  3  1  0  0  0  0
  3 31  1  0  0  0  0
  3  4  2  0  0  0  0
  5  4  1  0  0  0  0
  5  9  1  0  0  0  0
  6  5  2  0  0  0  0
  7  1  1  0  0  0  0
  8  2  1  0  0  0  0
  9 10  1  0  0  0  0
 10 11  1  0  0  0  0
 10 12  2  0  0  0  0
 12 13  1  0  0  0  0
 14 12  1  0  0  0  0
 14 29  1  0  0  0  0
 15 14  2  0  0  0  0
 16  9  2  0  0  0  0
 16 15  1  0  0  0  0
 17 16  1  0  0  0  0
 18 15  1  0  0  0  0
 18 19  1  0  0  0  0
 19 28  1  0  0  0  0
 20 19  2  0  0  0  0
 20 22  1  0  0  0  0
 21 20  1  0  0  0  0
 22 24  2  0  0  0  0
 23 22  1  0  0  0  0
 24 25  1  0  0  0  0
 26 24  1  0  0  0  0
 26 27  1  0  0  0  0
 28 29  1  0  0  0  0
 28 26  2  0  0  0  0
 29 30  1  0  0  0  0
 31 36  1  0  0  0  0
 32 33  1  0  0  0  0
 32 31  2  0  0  0  0
 33 34  2  0  0  0  0
 34 39  1  0  0  0  0
 34 35  1  0  0  0  0
 35 41  1  0  0  0  0
 36 35  2  0  0  0  0
 37 32  1  0  0  0  0
 38 33  1  0  0  0  0
 40 48  1  0  0  0  0
 41 40  2  0  0  0  0
 41 42  1  0  0  0  0
 42 43  2  0  0  0  0
 43 47  1  0  0  0  0
 43 44  1  0  0  0  0
 44 45  1  0  0  0  0
 45 52  1  0  0  0  0
 46 45  2  0  0  0  0
 46 53  1  0  0  0  0
 47 46  1  0  0  0  0
 48 54  1  0  0  0  0
 48 47  2  0  0  0  0
 49 40  1  0  0  0  0
 50 42  1  0  0  0  0
 51 44  1  0  0  0  0
M  END
>  <minimizedAffinity>
-7.71980524

$$$$

 OpenBabel03262522413D

 54 60  0  0  0  0  0  0  0  0999 V2000
   36.9080   29.3180   30.0030 C   0  0  0  0  0  0  0  0  0  0  0  0
   37.0800   27.9390   30.2290 C   0  0  0  0  0  0  0  0  0  0  0  0
   36.3780   27.3750   31.3130 C   0  0  0  0  0  0  0  0  0  0  0  0
   35.6010   28.1720   32.0530 N   0  0  0  0  0  0  0  0  0  0  0  0
   35.4590   29.5000   31.8050 C   0  0  0  0  0  0  0  0  0  0  0  0
   36.1060   30.0490   30.7950 N   0  0  0  0  0  0  0  0  0  0  0  0
   37.4320   29.7740   29.1820 H   0  0  0  0  0  0  0  0  0  0  0  0
   37.7000   27.3090   29.6370 H   0  0  0  0  0  0  0  0  0  0  0  0
   34.5900   30.2990   32.6610 C   0  0  0  0  0  0  0  0  0  0  0  0
   33.2190   30.3080   32.5030 C   0  0  0  0  0  0  0  0  0  0  0  0
   32.7460   29.7220   31.7390 H   0  0  0  0  0  0  0  0  0  0  0  0
   32.4930   31.1030   33.3740 C   0  0  0  0  0  0  0  0  0  0  0  0
   31.4090   31.0740   33.2050 H   0  0  0  0  0  0  0  0  0  0  0  0
   33.0090   31.8880   34.3830 C   0  0  0  0  0  0  0  0  0  0  0  0
   34.3780   31.8320   34.4840 C   0  0  0  0  0  0  0  0  0  0  0  0
   35.1370   31.0740   33.6630 C   0  0  0  0  0  0  0  0  0  0  0  0
   36.2310   31.0530   33.7740 H   0  0  0  0  0  0  0  0  0  0  0  0
   35.1770   32.8020   35.7520 S   0  0  0  0  0  0  0  0  0  0  0  0
   33.8670   33.6490   36.6130 C   0  0  0  0  0  0  0  0  0  0  0  0
   34.2120   34.4670   37.6400 C   0  0  0  0  0  0  0  0  0  0  0  0
   35.2480   34.6030   37.9330 H   0  0  0  0  0  0  0  0  0  0  0  0
   33.2640   35.1630   38.3640 C   0  0  0  0  0  0  0  0  0  0  0  0
   33.5750   35.8010   39.1710 H   0  0  0  0  0  0  0  0  0  0  0  0
   31.9430   34.9980   38.0030 C   0  0  0  0  0  0  0  0  0  0  0  0
   31.1790   35.5320   38.5520 H   0  0  0  0  0  0  0  0  0  0  0  0
   31.6490   34.1560   36.9500 C   0  0  0  0  0  0  0  0  0  0  0  0
   30.5830   34.0830   36.7320 H   0  0  0  0  0  0  0  0  0  0  0  0
   32.5740   33.4490   36.2120 C   0  0  0  0  0  0  0  0  0  0  0  0
   32.1320   32.6320   35.1730 N   0  0  0  0  0  0  0  0  0  0  0  0
   31.1180   32.5770   34.9820 H   0  0  0  0  0  0  0  0  0  0  0  0
   36.4740   25.9600   31.6480 C   0  0  0  0  0  0  0  0  0  0  0  0
   35.6390   24.9940   31.1500 C   0  0  0  0  0  0  0  0  0  0  0  0
   35.7460   23.6630   31.4770 C   0  0  0  0  0  0  0  0  0  0  0  0
   36.7180   23.2460   32.3360 C   0  0  0  0  0  0  0  0  0  0  0  0
   37.5480   24.2350   32.8250 C   0  0  0  0  0  0  0  0  0  0  0  0
   37.4320   25.5120   32.5000 N   0  0  0  0  0  0  0  0  0  0  0  0
   34.8660   25.3050   30.4700 H   0  0  0  0  0  0  0  0  0  0  0  0
   35.0340   22.9570   31.0310 H   0  0  0  0  0  0  0  0  0  0  0  0
   36.8080   22.1960   32.5980 H   0  0  0  0  0  0  0  0  0  0  0  0
   39.9580   24.0240   33.5140 C   0  0  0  0  0  0  0  0  0  0  0  0
   38.6160   23.8740   33.7510 C   0  0  0  0  0  0  0  0  0  0  0  0
   38.3320   23.3240   35.0030 C   0  0  0  0  0  0  0  0  0  0  0  0
   39.2860   22.9550   35.9380 C   0  0  0  0  0  0  0  0  0  0  0  0
   39.2060   22.4220   37.1670 N   0  0  0  0  0  0  0  0  0  0  0  0
   40.4770   22.2750   37.6160 C   0  0  0  0  0  0  0  0  0  0  0  0
   41.3770   22.7120   36.6760 C   0  0  0  0  0  0  0  0  0  0  0  0
   40.6040   23.1400   35.6200 C   0  0  0  0  0  0  0  0  0  0  0  0
   40.9450   23.6770   34.4040 C   0  0  0  0  0  0  0  0  0  0  0  0
   40.2540   24.4490   32.5550 H   0  0  0  0  0  0  0  0  0  0  0  0
   37.3010   23.1620   35.2910 H   0  0  0  0  0  0  0  0  0  0  0  0
   38.3010   22.1830   37.6470 H   0  0  0  0  0  0  0  0  0  0  0  0
   40.6270   21.8530   38.6060 H   0  0  0  0  0  0  0  0  0  0  0  0
   42.4560   22.6990   36.8000 H   0  0  0  0  0  0  0  0  0  0  0  0
   41.9920   23.8100   34.1820 H   0  0  0  0  0  0  0  0  0  0  0  0
  1  2  2  0  0  0  0
  1  6  1  0  0  0  0
  2  3  1  0  0  0  0
  3 31  1  0  0  0  0
  3  4  2  0  0  0  0
  5  4  1  0  0  0  0
  5  9  1  0  0  0  0
  6  5  2  0  0  0  0
  7  1  1  0  0  0  0
  8  2  1  0  0  0  0
  9 16  1  0  0  0  0
 10  9  2  0  0  0  0
 10 12  1  0  0  0  0
 11 10  1  0  0  0  0
 12 14  2  0  0  0  0
 13 12  1  0  0  0  0
 14 15  1  0  0  0  0
 14 29  1  0  0  0  0
 15 18  1  0  0  0  0
 16 17  1  0  0  0  0
 16 15  2  0  0  0  0
 18 19  1  0  0  0  0
 19 20  1  0  0  0  0
 20 21  1  0  0  0  0
 20 22  2  0  0  0  0
 22 23  1  0  0  0  0
 24 22  1  0  0  0  0
 24 25  1  0  0  0  0
 26 24  2  0  0  0  0
 27 26  1  0  0  0  0
 28 19  2  0  0  0  0
 28 26  1  0  0  0  0
 29 28  1  0  0  0  0
 30 29  1  0  0  0  0
 31 36  1  0  0  0  0
 32 33  1  0  0  0  0
 32 31  2  0  0  0  0
 33 34  2  0  0  0  0
 34 39  1  0  0  0  0
 34 35  1  0  0  0  0
 35 41  1  0  0  0  0
 36 35  2  0  0  0  0
 37 32  1  0  0  0  0
 38 33  1  0  0  0  0
 40 41  2  0  0  0  0
 40 48  1  0  0  0  0
 41 42  1  0  0  0  0
 42 50  1  0  0  0  0
 42 43  2  0  0  0  0
 43 44  1  0  0  0  0
 44 45  1  0  0  0  0
 44 51  1  0  0  0  0
 45 52  1  0  0  0  0
 46 53  1  0  0  0  0
 46 45  2  0  0  0  0
 47 43  1  0  0  0  0
 47 46  1  0  0  0  0
 48 47  2  0  0  0  0
 49 40  1  0  0  0  0
 54 48  1  0  0  0  0
M  END
>  <minimizedAffinity>
-7.53451967

$$$$

 OpenBabel03262522413D

 54 60  0  0  0  0  0  0  0  0999 V2000
   38.6560   28.3490   28.2770 C   0  0  0  0  0  0  0  0  0  0  0  0
   37.8920   29.4890   28.5880 C   0  0  0  0  0  0  0  0  0  0  0  0
   37.5450   29.6800   29.9400 C   0  0  0  0  0  0  0  0  0  0  0  0
   37.9560   28.7790   30.8370 N   0  0  0  0  0  0  0  0  0  0  0  0
   38.6930   27.6880   30.5010 C   0  0  0  0  0  0  0  0  0  0  0  0
   39.0300   27.4900   29.2410 N   0  0  0  0  0  0  0  0  0  0  0  0
   38.9350   28.1790   27.2530 H   0  0  0  0  0  0  0  0  0  0  0  0
   37.5660   30.2050   27.8690 H   0  0  0  0  0  0  0  0  0  0  0  0
   39.1020   26.7530   31.5420 C   0  0  0  0  0  0  0  0  0  0  0  0
   40.1640   25.8880   31.3700 C   0  0  0  0  0  0  0  0  0  0  0  0
   40.7260   25.8780   30.4570 H   0  0  0  0  0  0  0  0  0  0  0  0
   40.4620   25.0440   32.4260 C   0  0  0  0  0  0  0  0  0  0  0  0
   41.3140   24.3780   32.2370 H   0  0  0  0  0  0  0  0  0  0  0  0
   39.8000   24.9850   33.6340 C   0  0  0  0  0  0  0  0  0  0  0  0
   38.7550   25.8710   33.7380 C   0  0  0  0  0  0  0  0  0  0  0  0
   38.4190   26.7170   32.7400 C   0  0  0  0  0  0  0  0  0  0  0  0
   37.5760   27.4140   32.8590 H   0  0  0  0  0  0  0  0  0  0  0  0
   37.8120   25.8980   35.2520 S   0  0  0  0  0  0  0  0  0  0  0  0
   38.5470   24.6620   36.3050 C   0  0  0  0  0  0  0  0  0  0  0  0
   38.0060   24.4780   37.5360 C   0  0  0  0  0  0  0  0  0  0  0  0
   37.1560   25.0620   37.8750 H   0  0  0  0  0  0  0  0  0  0  0  0
   38.5100   23.5440   38.4190 C   0  0  0  0  0  0  0  0  0  0  0  0
   38.0560   23.4270   39.3860 H   0  0  0  0  0  0  0  0  0  0  0  0
   39.5920   22.7960   38.0020 C   0  0  0  0  0  0  0  0  0  0  0  0
   40.0060   22.0550   38.6720 H   0  0  0  0  0  0  0  0  0  0  0  0
   40.1000   23.0230   36.7390 C   0  0  0  0  0  0  0  0  0  0  0  0
   40.9530   22.3890   36.4910 H   0  0  0  0  0  0  0  0  0  0  0  0
   39.6170   23.9480   35.8390 C   0  0  0  0  0  0  0  0  0  0  0  0
   40.2340   24.0710   34.5950 N   0  0  0  0  0  0  0  0  0  0  0  0
   41.0390   23.4610   34.3780 H   0  0  0  0  0  0  0  0  0  0  0  0
   36.7570   30.8230   30.3850 C   0  0  0  0  0  0  0  0  0  0  0  0
   36.4370   31.8930   29.5900 C   0  0  0  0  0  0  0  0  0  0  0  0
   35.6920   32.9610   30.0280 C   0  0  0  0  0  0  0  0  0  0  0  0
   35.2310   32.9940   31.3090 C   0  0  0  0  0  0  0  0  0  0  0  0
   35.5640   31.9080   32.0930 C   0  0  0  0  0  0  0  0  0  0  0  0
   36.2820   30.8860   31.6560 N   0  0  0  0  0  0  0  0  0  0  0  0
   36.7920   31.8820   28.5750 H   0  0  0  0  0  0  0  0  0  0  0  0
   35.4830   33.7760   29.3220 H   0  0  0  0  0  0  0  0  0  0  0  0
   34.6410   33.8360   31.6610 H   0  0  0  0  0  0  0  0  0  0  0  0
   35.9060   32.0320   34.5820 C   0  0  0  0  0  0  0  0  0  0  0  0
   35.1100   31.8630   33.4780 C   0  0  0  0  0  0  0  0  0  0  0  0
   33.7690   31.6350   33.7920 C   0  0  0  0  0  0  0  0  0  0  0  0
   33.2570   31.5770   35.0790 C   0  0  0  0  0  0  0  0  0  0  0  0
   32.0240   31.3720   35.5660 N   0  0  0  0  0  0  0  0  0  0  0  0
   32.1210   31.4230   36.9170 C   0  0  0  0  0  0  0  0  0  0  0  0
   33.4170   31.6610   37.3020 C   0  0  0  0  0  0  0  0  0  0  0  0
   34.1230   31.7570   36.1240 C   0  0  0  0  0  0  0  0  0  0  0  0
   35.4530   31.9850   35.8780 C   0  0  0  0  0  0  0  0  0  0  0  0
   36.9680   32.2150   34.4130 H   0  0  0  0  0  0  0  0  0  0  0  0
   33.0530   31.4880   32.9930 H   0  0  0  0  0  0  0  0  0  0  0  0
   31.1750   31.2070   34.9670 H   0  0  0  0  0  0  0  0  0  0  0  0
   31.2170   31.2790   37.5040 H   0  0  0  0  0  0  0  0  0  0  0  0
   33.7500   31.7470   38.3320 H   0  0  0  0  0  0  0  0  0  0  0  0
   36.1100   32.1220   36.7220 H   0  0  0  0  0  0  0  0  0  0  0  0
  1  2  2  0  0  0  0
  1  6  1  0  0  0  0
  2  3  1  0  0  0  0
  3 31  1  0  0  0  0
  3  4  2  0  0  0  0
  5  4  1  0  0  0  0
  5  9  1  0  0  0  0
  6  5  2  0  0  0  0
  7  1  1  0  0  0  0
  8  2  1  0  0  0  0
  9 16  1  0  0  0  0
 10  9  2  0  0  0  0
 10 12  1  0  0  0  0
 11 10  1  0  0  0  0
 12 14  2  0  0  0  0
 13 12  1  0  0  0  0
 14 15  1  0  0  0  0
 14 29  1  0  0  0  0
 15 18  1  0  0  0  0
 16 17  1  0  0  0  0
 16 15  2  0  0  0  0
 18 19  1  0  0  0  0
 19 20  1  0  0  0  0
 20 21  1  0  0  0  0
 20 22  2  0  0  0  0
 22 23  1  0  0  0  0
 24 22  1  0  0  0  0
 24 25  1  0  0  0  0
 26 24  2  0  0  0  0
 27 26  1  0  0  0  0
 28 19  2  0  0  0  0
 28 26  1  0  0  0  0
 29 28  1  0  0  0  0
 30 29  1  0  0  0  0
 31 36  1  0  0  0  0
 32 33  1  0  0  0  0
 32 31  2  0  0  0  0
 33 34  2  0  0  0  0
 34 39  1  0  0  0  0
 34 35  1  0  0  0  0
 35 41  1  0  0  0  0
 36 35  2  0  0  0  0
 37 32  1  0  0  0  0
 38 33  1  0  0  0  0
 40 48  1  0  0  0  0
 41 42  1  0  0  0  0
 41 40  2  0  0  0  0
 42 43  2  0  0  0  0
 43 44  1  0  0  0  0
 43 47  1  0  0  0  0
 44 45  1  0  0  0  0
 45 46  2  0  0  0  0
 45 52  1  0  0  0  0
 46 53  1  0  0  0  0
 47 46  1  0  0  0  0
 48 47  2  0  0  0  0
 48 54  1  0  0  0  0
 49 40  1  0  0  0  0
 50 42  1  0  0  0  0
 51 44  1  0  0  0  0
M  END
>  <minimizedAffinity>
-7.39123344

$$$$

 OpenBabel03262522413D

 54 60  0  0  0  0  0  0  0  0999 V2000
   37.2230   30.8230   30.0840 C   0  0  0  0  0  0  0  0  0  0  0  0
   35.9940   31.2810   30.5950 C   0  0  0  0  0  0  0  0  0  0  0  0
   35.2110   30.3510   31.3090 C   0  0  0  0  0  0  0  0  0  0  0  0
   35.6750   29.1070   31.4550 N   0  0  0  0  0  0  0  0  0  0  0  0
   36.8670   28.7000   30.9480 C   0  0  0  0  0  0  0  0  0  0  0  0
   37.6170   29.5540   30.2770 N   0  0  0  0  0  0  0  0  0  0  0  0
   37.8400   31.5130   29.5360 H   0  0  0  0  0  0  0  0  0  0  0  0
   35.6290   32.2740   30.4750 H   0  0  0  0  0  0  0  0  0  0  0  0
   37.3000   27.3230   31.1540 C   0  0  0  0  0  0  0  0  0  0  0  0
   38.6240   27.0000   31.3700 C   0  0  0  0  0  0  0  0  0  0  0  0
   39.3820   27.7580   31.3940 H   0  0  0  0  0  0  0  0  0  0  0  0
   38.9200   25.6590   31.5540 C   0  0  0  0  0  0  0  0  0  0  0  0
   39.9860   25.4570   31.7220 H   0  0  0  0  0  0  0  0  0  0  0  0
   38.0180   24.6170   31.5400 C   0  0  0  0  0  0  0  0  0  0  0  0
   36.7200   25.0090   31.3200 C   0  0  0  0  0  0  0  0  0  0  0  0
   36.3730   26.3010   31.1350 C   0  0  0  0  0  0  0  0  0  0  0  0
   35.3230   26.5790   30.9610 H   0  0  0  0  0  0  0  0  0  0  0  0
   35.4490   23.7570   31.2780 S   0  0  0  0  0  0  0  0  0  0  0  0
   36.2850   22.2070   31.5580 C   0  0  0  0  0  0  0  0  0  0  0  0
   35.5320   21.0780   31.5740 C   0  0  0  0  0  0  0  0  0  0  0  0
   34.4580   21.1100   31.4230 H   0  0  0  0  0  0  0  0  0  0  0  0
   36.0930   19.8340   31.7840 C   0  0  0  0  0  0  0  0  0  0  0  0
   35.4660   18.9620   31.7910 H   0  0  0  0  0  0  0  0  0  0  0  0
   37.4580   19.7780   31.9790 C   0  0  0  0  0  0  0  0  0  0  0  0
   37.9250   18.8170   32.1440 H   0  0  0  0  0  0  0  0  0  0  0  0
   38.1750   20.9570   31.9510 C   0  0  0  0  0  0  0  0  0  0  0  0
   39.2450   20.8230   32.1130 H   0  0  0  0  0  0  0  0  0  0  0  0
   37.6400   22.2110   31.7440 C   0  0  0  0  0  0  0  0  0  0  0  0
   38.4870   23.3190   31.7430 N   0  0  0  0  0  0  0  0  0  0  0  0
   39.4980   23.1700   31.8980 H   0  0  0  0  0  0  0  0  0  0  0  0
   33.9200   30.7050   31.8850 C   0  0  0  0  0  0  0  0  0  0  0  0
   33.1790   31.7930   31.5020 C   0  0  0  0  0  0  0  0  0  0  0  0
   31.9620   32.1100   32.0580 C   0  0  0  0  0  0  0  0  0  0  0  0
   31.4360   31.3290   33.0420 C   0  0  0  0  0  0  0  0  0  0  0  0
   32.1980   30.2400   33.4130 C   0  0  0  0  0  0  0  0  0  0  0  0
   33.3670   29.9470   32.8670 N   0  0  0  0  0  0  0  0  0  0  0  0
   33.5800   32.4200   30.7250 H   0  0  0  0  0  0  0  0  0  0  0  0
   31.4370   33.0000   31.6890 H   0  0  0  0  0  0  0  0  0  0  0  0
   30.4740   31.5750   33.4850 H   0  0  0  0  0  0  0  0  0  0  0  0
   30.9660   28.2160   34.2570 C   0  0  0  0  0  0  0  0  0  0  0  0
   31.7070   29.3510   34.4600 C   0  0  0  0  0  0  0  0  0  0  0  0
   31.9700   29.6070   35.8080 C   0  0  0  0  0  0  0  0  0  0  0  0
   31.5410   28.8150   36.8600 C   0  0  0  0  0  0  0  0  0  0  0  0
   31.6920   28.8990   38.1920 N   0  0  0  0  0  0  0  0  0  0  0  0
   31.0510   27.8330   38.7290 C   0  0  0  0  0  0  0  0  0  0  0  0
   30.4840   27.0610   37.7450 C   0  0  0  0  0  0  0  0  0  0  0  0
   30.8060   27.6980   36.5670 C   0  0  0  0  0  0  0  0  0  0  0  0
   30.5160   27.3950   35.2620 C   0  0  0  0  0  0  0  0  0  0  0  0
   30.7220   27.9530   33.2270 H   0  0  0  0  0  0  0  0  0  0  0  0
   32.5480   30.4810   36.0800 H   0  0  0  0  0  0  0  0  0  0  0  0
   32.2210   29.6700   38.6760 H   0  0  0  0  0  0  0  0  0  0  0  0
   31.0580   27.7190   39.8100 H   0  0  0  0  0  0  0  0  0  0  0  0
   29.9180   26.1520   37.9220 H   0  0  0  0  0  0  0  0  0  0  0  0
   29.9340   26.5080   35.0620 H   0  0  0  0  0  0  0  0  0  0  0  0
  1  6  2  0  0  0  0
  1  2  1  0  0  0  0
  2  3  2  0  0  0  0
  3  4  1  0  0  0  0
  3 31  1  0  0  0  0
  5  9  1  0  0  0  0
  5  4  2  0  0  0  0
  6  5  1  0  0  0  0
  7  1  1  0  0  0  0
  8  2  1  0  0  0  0
  9 10  1  0  0  0  0
 10 11  1  0  0  0  0
 10 12  2  0  0  0  0
 12 13  1  0  0  0  0
 14 12  1  0  0  0  0
 14 29  1  0  0  0  0
 15 14  2  0  0  0  0
 16  9  2  0  0  0  0
 16 15  1  0  0  0  0
 17 16  1  0  0  0  0
 18 15  1  0  0  0  0
 18 19  1  0  0  0  0
 19 20  2  0  0  0  0
 19 28  1  0  0  0  0
 20 22  1  0  0  0  0
 21 20  1  0  0  0  0
 22 23  1  0  0  0  0
 22 24  2  0  0  0  0
 24 25  1  0  0  0  0
 26 24  1  0  0  0  0
 26 27  1  0  0  0  0
 28 26  2  0  0  0  0
 29 28  1  0  0  0  0
 29 30  1  0  0  0  0
 31 36  1  0  0  0  0
 32 31  2  0  0  0  0
 32 33  1  0  0  0  0
 33 34  2  0  0  0  0
 34 35  1  0  0  0  0
 34 39  1  0  0  0  0
 35 41  1  0  0  0  0
 36 35  2  0  0  0  0
 37 32  1  0  0  0  0
 38 33  1  0  0  0  0
 40 41  2  0  0  0  0
 40 48  1  0  0  0  0
 41 42  1  0  0  0  0
 42 50  1  0  0  0  0
 42 43  2  0  0  0  0
 43 44  1  0  0  0  0
 44 51  1  0  0  0  0
 44 45  1  0  0  0  0
 45 52  1  0  0  0  0
 46 53  1  0  0  0  0
 46 45  2  0  0  0  0
 47 43  1  0  0  0  0
 47 46  1  0  0  0  0
 48 47  2  0  0  0  0
 49 40  1  0  0  0  0
 54 48  1  0  0  0  0
M  END
>  <minimizedAffinity>
-7.21394873

$$$$

 OpenBabel03262522413D

 54 60  0  0  0  0  0  0  0  0999 V2000
   35.4880   24.5500   31.0730 C   0  0  0  0  0  0  0  0  0  0  0  0
   35.3490   25.9470   30.9690 C   0  0  0  0  0  0  0  0  0  0  0  0
   36.1620   26.7360   31.8090 C   0  0  0  0  0  0  0  0  0  0  0  0
   37.0050   26.1190   32.6420 N   0  0  0  0  0  0  0  0  0  0  0  0
   37.1120   24.7670   32.7150 C   0  0  0  0  0  0  0  0  0  0  0  0
   36.3620   24.0090   31.9380 N   0  0  0  0  0  0  0  0  0  0  0  0
   34.8800   23.9250   30.4430 H   0  0  0  0  0  0  0  0  0  0  0  0
   34.6760   26.4330   30.3030 H   0  0  0  0  0  0  0  0  0  0  0  0
   38.0590   24.1740   33.6520 C   0  0  0  0  0  0  0  0  0  0  0  0
   38.0260   24.4630   35.0010 C   0  0  0  0  0  0  0  0  0  0  0  0
   37.2970   25.1370   35.4050 H   0  0  0  0  0  0  0  0  0  0  0  0
   38.9740   23.8410   35.7980 C   0  0  0  0  0  0  0  0  0  0  0  0
   38.9040   24.1060   36.8610 H   0  0  0  0  0  0  0  0  0  0  0  0
   39.9470   22.9630   35.3720 C   0  0  0  0  0  0  0  0  0  0  0  0
   39.9220   22.7210   34.0200 C   0  0  0  0  0  0  0  0  0  0  0  0
   39.0210   23.2980   33.1950 C   0  0  0  0  0  0  0  0  0  0  0  0
   39.0310   23.0800   32.1160 H   0  0  0  0  0  0  0  0  0  0  0  0
   41.1300   21.6000   33.3350 S   0  0  0  0  0  0  0  0  0  0  0  0
   42.1220   21.0540   34.7120 C   0  0  0  0  0  0  0  0  0  0  0  0
   43.1300   20.1820   34.4570 C   0  0  0  0  0  0  0  0  0  0  0  0
   43.3290   19.8230   33.4530 H   0  0  0  0  0  0  0  0  0  0  0  0
   43.9490   19.7060   35.4620 C   0  0  0  0  0  0  0  0  0  0  0  0
   44.7370   19.0140   35.2230 H   0  0  0  0  0  0  0  0  0  0  0  0
   43.7060   20.1520   36.7440 C   0  0  0  0  0  0  0  0  0  0  0  0
   44.3330   19.7970   37.5500 H   0  0  0  0  0  0  0  0  0  0  0  0
   42.6690   21.0410   36.9460 C   0  0  0  0  0  0  0  0  0  0  0  0
   42.5470   21.3420   37.9860 H   0  0  0  0  0  0  0  0  0  0  0  0
   41.8370   21.5310   35.9620 C   0  0  0  0  0  0  0  0  0  0  0  0
   40.8260   22.4250   36.3120 N   0  0  0  0  0  0  0  0  0  0  0  0
   40.7270   22.6980   37.3040 H   0  0  0  0  0  0  0  0  0  0  0  0
   36.1090   28.1920   31.7930 C   0  0  0  0  0  0  0  0  0  0  0  0
   36.5470   28.9670   30.7500 C   0  0  0  0  0  0  0  0  0  0  0  0
   36.4880   30.3400   30.7540 C   0  0  0  0  0  0  0  0  0  0  0  0
   35.9760   30.9990   31.8310 C   0  0  0  0  0  0  0  0  0  0  0  0
   35.5420   30.2010   32.8700 C   0  0  0  0  0  0  0  0  0  0  0  0
   35.6040   28.8790   32.8510 N   0  0  0  0  0  0  0  0  0  0  0  0
   36.9530   28.4620   29.8920 H   0  0  0  0  0  0  0  0  0  0  0  0
   36.8610   30.8810   29.8750 H   0  0  0  0  0  0  0  0  0  0  0  0
   35.9270   32.0840   31.8400 H   0  0  0  0  0  0  0  0  0  0  0  0
   33.9380   30.3330   34.8030 C   0  0  0  0  0  0  0  0  0  0  0  0
   34.9800   30.8270   34.0610 C   0  0  0  0  0  0  0  0  0  0  0  0
   35.4880   32.0310   34.5540 C   0  0  0  0  0  0  0  0  0  0  0  0
   35.0120   32.6890   35.6760 C   0  0  0  0  0  0  0  0  0  0  0  0
   35.3660   33.8300   36.2890 N   0  0  0  0  0  0  0  0  0  0  0  0
   34.5400   33.9770   37.3540 C   0  0  0  0  0  0  0  0  0  0  0  0
   33.6540   32.9320   37.4290 C   0  0  0  0  0  0  0  0  0  0  0  0
   33.9680   32.1250   36.3590 C   0  0  0  0  0  0  0  0  0  0  0  0
   33.4270   30.9430   35.9230 C   0  0  0  0  0  0  0  0  0  0  0  0
   33.4900   29.3940   34.4770 H   0  0  0  0  0  0  0  0  0  0  0  0
   36.3140   32.5080   34.0420 H   0  0  0  0  0  0  0  0  0  0  0  0
   36.1460   34.4560   35.9610 H   0  0  0  0  0  0  0  0  0  0  0  0
   34.6680   34.8520   37.9860 H   0  0  0  0  0  0  0  0  0  0  0  0
   32.8930   32.8210   38.1960 H   0  0  0  0  0  0  0  0  0  0  0  0
   32.6050   30.5230   36.4810 H   0  0  0  0  0  0  0  0  0  0  0  0
  1  6  1  0  0  0  0
  2  1  2  0  0  0  0
  2  3  1  0  0  0  0
  3  4  2  0  0  0  0
  4  5  1  0  0  0  0
  5  9  1  0  0  0  0
  6  5  2  0  0  0  0
  7  1  1  0  0  0  0
  8  2  1  0  0  0  0
  9 10  1  0  0  0  0
 10 11  1  0  0  0  0
 10 12  2  0  0  0  0
 12 13  1  0  0  0  0
 14 12  1  0  0  0  0
 14 29  1  0  0  0  0
 15 14  2  0  0  0  0
 16  9  2  0  0  0  0
 16 15  1  0  0  0  0
 17 16  1  0  0  0  0
 18 15  1  0  0  0  0
 18 19  1  0  0  0  0
 19 28  1  0  0  0  0
 20 19  2  0  0  0  0
 20 22  1  0  0  0  0
 21 20  1  0  0  0  0
 22 24  2  0  0  0  0
 23 22  1  0  0  0  0
 24 26  1  0  0  0  0
 24 25  1  0  0  0  0
 26 27  1  0  0  0  0
 28 29  1  0  0  0  0
 28 26  2  0  0  0  0
 29 30  1  0  0  0  0
 31  3  1  0  0  0  0
 31 36  1  0  0  0  0
 32 33  1  0  0  0  0
 32 31  2  0  0  0  0
 33 34  2  0  0  0  0
 34 39  1  0  0  0  0
 34 35  1  0  0  0  0
 35 41  1  0  0  0  0
 36 35  2  0  0  0  0
 37 32  1  0  0  0  0
 38 33  1  0  0  0  0
 40 48  1  0  0  0  0
 41 42  1  0  0  0  0
 41 40  2  0  0  0  0
 42 43  2  0  0  0  0
 43 44  1  0  0  0  0
 43 47  1  0  0  0  0
 44 45  1  0  0  0  0
 45 46  2  0  0  0  0
 45 52  1  0  0  0  0
 46 53  1  0  0  0  0
 47 46  1  0  0  0  0
 48 47  2  0  0  0  0
 48 54  1  0  0  0  0
 49 40  1  0  0  0  0
 50 42  1  0  0  0  0
 51 44  1  0  0  0  0
M  END
>  <minimizedAffinity>
-7.20340061

$$$$

 OpenBabel03262522413D

 54 60  0  0  0  0  0  0  0  0999 V2000
   36.8970   28.5700   30.5760 C   0  0  0  0  0  0  0  0  0  0  0  0
   37.4150   27.4070   31.1770 C   0  0  0  0  0  0  0  0  0  0  0  0
   37.0210   27.1420   32.5040 C   0  0  0  0  0  0  0  0  0  0  0  0
   36.1900   27.9990   33.1060 N   0  0  0  0  0  0  0  0  0  0  0  0
   35.7100   29.1130   32.4940 C   0  0  0  0  0  0  0  0  0  0  0  0
   36.0650   29.3800   31.2510 N   0  0  0  0  0  0  0  0  0  0  0  0
   37.1820   28.7960   29.5640 H   0  0  0  0  0  0  0  0  0  0  0  0
   38.0760   26.7280   30.6930 H   0  0  0  0  0  0  0  0  0  0  0  0
   34.8070   29.9960   33.2220 C   0  0  0  0  0  0  0  0  0  0  0  0
   33.4590   30.0580   32.9340 C   0  0  0  0  0  0  0  0  0  0  0  0
   33.0300   29.4530   32.1600 H   0  0  0  0  0  0  0  0  0  0  0  0
   32.6960   30.9330   33.6910 C   0  0  0  0  0  0  0  0  0  0  0  0
   31.6320   30.9430   33.4210 H   0  0  0  0  0  0  0  0  0  0  0  0
   33.1560   31.7480   34.7030 C   0  0  0  0  0  0  0  0  0  0  0  0
   34.5050   31.6360   34.9360 C   0  0  0  0  0  0  0  0  0  0  0  0
   35.2970   30.8000   34.2300 C   0  0  0  0  0  0  0  0  0  0  0  0
   36.3740   30.7360   34.4450 H   0  0  0  0  0  0  0  0  0  0  0  0
   35.2310   32.6370   36.2230 S   0  0  0  0  0  0  0  0  0  0  0  0
   33.8910   33.5890   36.9120 C   0  0  0  0  0  0  0  0  0  0  0  0
   34.1800   34.4460   37.9240 C   0  0  0  0  0  0  0  0  0  0  0  0
   35.1900   34.5510   38.3060 H   0  0  0  0  0  0  0  0  0  0  0  0
   33.2060   35.2230   38.5180 C   0  0  0  0  0  0  0  0  0  0  0  0
   33.4720   35.8900   39.3180 H   0  0  0  0  0  0  0  0  0  0  0  0
   31.9170   35.0980   38.0430 C   0  0  0  0  0  0  0  0  0  0  0  0
   31.1340   35.6960   38.4890 H   0  0  0  0  0  0  0  0  0  0  0  0
   31.6790   34.2130   37.0110 C   0  0  0  0  0  0  0  0  0  0  0  0
   30.6360   34.1770   36.6970 H   0  0  0  0  0  0  0  0  0  0  0  0
   32.6330   33.4260   36.4010 C   0  0  0  0  0  0  0  0  0  0  0  0
   32.2470   32.5730   35.3670 N   0  0  0  0  0  0  0  0  0  0  0  0
   31.2540   32.5540   35.0840 H   0  0  0  0  0  0  0  0  0  0  0  0
   37.4890   25.9700   33.2330 C   0  0  0  0  0  0  0  0  0  0  0  0
   38.1880   26.0260   34.4110 C   0  0  0  0  0  0  0  0  0  0  0  0
   38.6210   24.9080   35.0840 C   0  0  0  0  0  0  0  0  0  0  0  0
   38.3630   23.6670   34.5860 C   0  0  0  0  0  0  0  0  0  0  0  0
   37.6580   23.6340   33.4000 C   0  0  0  0  0  0  0  0  0  0  0  0
   37.2470   24.7190   32.7640 N   0  0  0  0  0  0  0  0  0  0  0  0
   38.4000   26.9980   34.8180 H   0  0  0  0  0  0  0  0  0  0  0  0
   39.1740   25.0460   36.0220 H   0  0  0  0  0  0  0  0  0  0  0  0
   38.7020   22.7800   35.1140 H   0  0  0  0  0  0  0  0  0  0  0  0
   37.8100   21.8890   31.5940 C   0  0  0  0  0  0  0  0  0  0  0  0
   37.3390   22.3440   32.7970 C   0  0  0  0  0  0  0  0  0  0  0  0
   36.4880   21.4390   33.4370 C   0  0  0  0  0  0  0  0  0  0  0  0
   36.1340   20.1970   32.9340 C   0  0  0  0  0  0  0  0  0  0  0  0
   35.3470   19.2120   33.3940 N   0  0  0  0  0  0  0  0  0  0  0  0
   35.3740   18.2220   32.4690 C   0  0  0  0  0  0  0  0  0  0  0  0
   36.1790   18.5680   31.4110 C   0  0  0  0  0  0  0  0  0  0  0  0
   36.6520   19.8220   31.7230 C   0  0  0  0  0  0  0  0  0  0  0  0
   37.4940   20.6690   31.0480 C   0  0  0  0  0  0  0  0  0  0  0  0
   38.4820   22.5450   31.0370 H   0  0  0  0  0  0  0  0  0  0  0  0
   36.0580   21.6990   34.3960 H   0  0  0  0  0  0  0  0  0  0  0  0
   34.8290   19.2530   34.3090 H   0  0  0  0  0  0  0  0  0  0  0  0
   34.7920   17.3240   32.6590 H   0  0  0  0  0  0  0  0  0  0  0  0
   36.3630   17.9400   30.5440 H   0  0  0  0  0  0  0  0  0  0  0  0
   37.8860   20.3460   30.0970 H   0  0  0  0  0  0  0  0  0  0  0  0
  1  2  2  0  0  0  0
  1  6  1  0  0  0  0
  2  3  1  0  0  0  0
  3  4  2  0  0  0  0
  3 31  1  0  0  0  0
  5  4  1  0  0  0  0
  5  9  1  0  0  0  0
  6  5  2  0  0  0  0
  7  1  1  0  0  0  0
  8  2  1  0  0  0  0
  9 16  1  0  0  0  0
 10  9  2  0  0  0  0
 10 12  1  0  0  0  0
 11 10  1  0  0  0  0
 12 14  2  0  0  0  0
 13 12  1  0  0  0  0
 14 15  1  0  0  0  0
 14 29  1  0  0  0  0
 15 18  1  0  0  0  0
 16 17  1  0  0  0  0
 16 15  2  0  0  0  0
 18 19  1  0  0  0  0
 19 20  1  0  0  0  0
 20 21  1  0  0  0  0
 20 22  2  0  0  0  0
 22 23  1  0  0  0  0
 24 25  1  0  0  0  0
 24 22  1  0  0  0  0
 26 24  2  0  0  0  0
 27 26  1  0  0  0  0
 28 19  2  0  0  0  0
 28 26  1  0  0  0  0
 29 28  1  0  0  0  0
 30 29  1  0  0  0  0
 31 32  1  0  0  0  0
 32 37  1  0  0  0  0
 32 33  2  0  0  0  0
 33 38  1  0  0  0  0
 34 33  1  0  0  0  0
 34 39  1  0  0  0  0
 35 34  2  0  0  0  0
 36 31  2  0  0  0  0
 36 35  1  0  0  0  0
 40 41  1  0  0  0  0
 41 35  1  0  0  0  0
 41 42  2  0  0  0  0
 42 50  1  0  0  0  0
 43 44  1  0  0  0  0
 43 42  1  0  0  0  0
 44 51  1  0  0  0  0
 45 52  1  0  0  0  0
 45 44  1  0  0  0  0
 46 47  1  0  0  0  0
 46 45  2  0  0  0  0
 47 43  2  0  0  0  0
 48 40  2  0  0  0  0
 48 47  1  0  0  0  0
 49 40  1  0  0  0  0
 53 46  1  0  0  0  0
 54 48  1  0  0  0  0
M  END
>  <minimizedAffinity>
-7.1928196

$$$$

 OpenBabel03262522413D

 54 60  0  0  0  0  0  0  0  0999 V2000
   34.9490   24.4770   30.7560 C   0  0  0  0  0  0  0  0  0  0  0  0
   34.8940   25.8820   30.8110 C   0  0  0  0  0  0  0  0  0  0  0  0
   36.0200   26.5480   31.3340 C   0  0  0  0  0  0  0  0  0  0  0  0
   37.0610   25.8160   31.7420 N   0  0  0  0  0  0  0  0  0  0  0  0
   37.0800   24.4590   31.6730 C   0  0  0  0  0  0  0  0  0  0  0  0
   36.0360   23.8150   31.1860 N   0  0  0  0  0  0  0  0  0  0  0  0
   34.1030   23.9440   30.3610 H   0  0  0  0  0  0  0  0  0  0  0  0
   34.0610   26.4610   30.4850 H   0  0  0  0  0  0  0  0  0  0  0  0
   38.2570   23.7360   32.1390 C   0  0  0  0  0  0  0  0  0  0  0  0
   39.2150   23.2630   31.2650 C   0  0  0  0  0  0  0  0  0  0  0  0
   39.1230   23.4150   30.2080 H   0  0  0  0  0  0  0  0  0  0  0  0
   40.2910   22.5900   31.8200 C   0  0  0  0  0  0  0  0  0  0  0  0
   41.0220   22.2350   31.0820 H   0  0  0  0  0  0  0  0  0  0  0  0
   40.4950   22.3460   33.1610 C   0  0  0  0  0  0  0  0  0  0  0  0
   39.5050   22.8420   33.9730 C   0  0  0  0  0  0  0  0  0  0  0  0
   38.4340   23.5070   33.4880 C   0  0  0  0  0  0  0  0  0  0  0  0
   37.6590   23.8920   34.1680 H   0  0  0  0  0  0  0  0  0  0  0  0
   39.6460   22.5960   35.7350 S   0  0  0  0  0  0  0  0  0  0  0  0
   41.1650   21.6960   35.9790 C   0  0  0  0  0  0  0  0  0  0  0  0
   41.5120   21.3760   37.2510 C   0  0  0  0  0  0  0  0  0  0  0  0
   40.8910   21.6570   38.0960 H   0  0  0  0  0  0  0  0  0  0  0  0
   42.6700   20.6800   37.5360 C   0  0  0  0  0  0  0  0  0  0  0  0
   42.9130   20.4450   38.5560 H   0  0  0  0  0  0  0  0  0  0  0  0
   43.4700   20.3180   36.4710 C   0  0  0  0  0  0  0  0  0  0  0  0
   44.3830   19.7710   36.6640 H   0  0  0  0  0  0  0  0  0  0  0  0
   43.0690   20.6680   35.1980 C   0  0  0  0  0  0  0  0  0  0  0  0
   43.7570   20.3440   34.4170 H   0  0  0  0  0  0  0  0  0  0  0  0
   41.9180   21.3620   34.8870 C   0  0  0  0  0  0  0  0  0  0  0  0
   41.6390   21.6490   33.5510 N   0  0  0  0  0  0  0  0  0  0  0  0
   42.3040   21.3320   32.8270 H   0  0  0  0  0  0  0  0  0  0  0  0
   36.0820   28.0000   31.4430 C   0  0  0  0  0  0  0  0  0  0  0  0
   36.5760   28.8240   30.4650 C   0  0  0  0  0  0  0  0  0  0  0  0
   36.6250   30.1930   30.5860 C   0  0  0  0  0  0  0  0  0  0  0  0
   36.1700   30.7950   31.7190 C   0  0  0  0  0  0  0  0  0  0  0  0
   35.6780   29.9480   32.6910 C   0  0  0  0  0  0  0  0  0  0  0  0
   35.6360   28.6320   32.5600 N   0  0  0  0  0  0  0  0  0  0  0  0
   36.9380   28.3640   29.5630 H   0  0  0  0  0  0  0  0  0  0  0  0
   37.0360   30.7750   29.7520 H   0  0  0  0  0  0  0  0  0  0  0  0
   36.2060   31.8770   31.8210 H   0  0  0  0  0  0  0  0  0  0  0  0
   35.9330   31.0960   34.9150 C   0  0  0  0  0  0  0  0  0  0  0  0
   35.1700   30.5120   33.9370 C   0  0  0  0  0  0  0  0  0  0  0  0
   33.8060   30.4940   34.2350 C   0  0  0  0  0  0  0  0  0  0  0  0
   33.2440   31.0070   35.3930 C   0  0  0  0  0  0  0  0  0  0  0  0
   31.9820   31.0790   35.8460 N   0  0  0  0  0  0  0  0  0  0  0  0
   32.0320   31.6920   37.0540 C   0  0  0  0  0  0  0  0  0  0  0  0
   33.3250   32.0150   37.3810 C   0  0  0  0  0  0  0  0  0  0  0  0
   34.0800   31.5740   36.3180 C   0  0  0  0  0  0  0  0  0  0  0  0
   35.4290   31.6200   36.0800 C   0  0  0  0  0  0  0  0  0  0  0  0
   37.0100   31.1460   34.7490 H   0  0  0  0  0  0  0  0  0  0  0  0
   33.1130   30.0540   33.5290 H   0  0  0  0  0  0  0  0  0  0  0  0
   31.1470   30.7130   35.3200 H   0  0  0  0  0  0  0  0  0  0  0  0
   31.0990   31.8470   37.5900 H   0  0  0  0  0  0  0  0  0  0  0  0
   33.6240   32.5140   38.2990 H   0  0  0  0  0  0  0  0  0  0  0  0
   36.0620   32.0730   36.8270 H   0  0  0  0  0  0  0  0  0  0  0  0
  1  2  2  0  0  0  0
  1  6  1  0  0  0  0
  2  3  1  0  0  0  0
  3 31  1  0  0  0  0
  3  4  2  0  0  0  0
  5  4  1  0  0  0  0
  5  9  1  0  0  0  0
  6  5  2  0  0  0  0
  7  1  1  0  0  0  0
  8  2  1  0  0  0  0
  9 16  1  0  0  0  0
 10 12  1  0  0  0  0
 10  9  2  0  0  0  0
 11 10  1  0  0  0  0
 12 14  2  0  0  0  0
 13 12  1  0  0  0  0
 14 29  1  0  0  0  0
 14 15  1  0  0  0  0
 15 18  1  0  0  0  0
 16 15  2  0  0  0  0
 16 17  1  0  0  0  0
 18 19  1  0  0  0  0
 19 20  1  0  0  0  0
 20 22  2  0  0  0  0
 20 21  1  0  0  0  0
 22 23  1  0  0  0  0
 24 25  1  0  0  0  0
 24 22  1  0  0  0  0
 26 24  2  0  0  0  0
 27 26  1  0  0  0  0
 28 26  1  0  0  0  0
 28 19  2  0  0  0  0
 29 28  1  0  0  0  0
 30 29  1  0  0  0  0
 31 36  1  0  0  0  0
 32 33  1  0  0  0  0
 32 31  2  0  0  0  0
 33 34  2  0  0  0  0
 34 39  1  0  0  0  0
 34 35  1  0  0  0  0
 35 41  1  0  0  0  0
 36 35  2  0  0  0  0
 37 32  1  0  0  0  0
 38 33  1  0  0  0  0
 40 48  1  0  0  0  0
 41 42  1  0  0  0  0
 41 40  2  0  0  0  0
 42 43  2  0  0  0  0
 43 44  1  0  0  0  0
 43 47  1  0  0  0  0
 44 45  1  0  0  0  0
 45 46  2  0  0  0  0
 45 52  1  0  0  0  0
 46 53  1  0  0  0  0
 47 46  1  0  0  0  0
 48 47  2  0  0  0  0
 48 54  1  0  0  0  0
 49 40  1  0  0  0  0
 50 42  1  0  0  0  0
 51 44  1  0  0  0  0
M  END
>  <minimizedAffinity>
-7.11267519

$$$$

 OpenBabel03262522413D

 54 60  0  0  0  0  0  0  0  0999 V2000
   40.0370   26.7930   31.3400 C   0  0  0  0  0  0  0  0  0  0  0  0
   40.0200   26.0000   32.5020 C   0  0  0  0  0  0  0  0  0  0  0  0
   38.9230   26.1620   33.3730 C   0  0  0  0  0  0  0  0  0  0  0  0
   37.9760   27.0470   33.0470 N   0  0  0  0  0  0  0  0  0  0  0  0
   38.0250   27.7960   31.9150 C   0  0  0  0  0  0  0  0  0  0  0  0
   39.0430   27.6600   31.0860 N   0  0  0  0  0  0  0  0  0  0  0  0
   40.8620   26.6890   30.6580 H   0  0  0  0  0  0  0  0  0  0  0  0
   40.7770   25.2960   32.7570 H   0  0  0  0  0  0  0  0  0  0  0  0
   36.9500   28.7390   31.6340 C   0  0  0  0  0  0  0  0  0  0  0  0
   37.0780   29.7280   30.6800 C   0  0  0  0  0  0  0  0  0  0  0  0
   37.9800   29.8340   30.1110 H   0  0  0  0  0  0  0  0  0  0  0  0
   35.9910   30.5670   30.4980 C   0  0  0  0  0  0  0  0  0  0  0  0
   36.1460   31.3350   29.7290 H   0  0  0  0  0  0  0  0  0  0  0  0
   34.7950   30.5100   31.1800 C   0  0  0  0  0  0  0  0  0  0  0  0
   34.7350   29.5050   32.1140 C   0  0  0  0  0  0  0  0  0  0  0  0
   35.7630   28.6570   32.3340 C   0  0  0  0  0  0  0  0  0  0  0  0
   35.6800   27.8620   33.0900 H   0  0  0  0  0  0  0  0  0  0  0  0
   33.2390   29.3180   33.0680 S   0  0  0  0  0  0  0  0  0  0  0  0
   32.1370   30.5980   32.4990 C   0  0  0  0  0  0  0  0  0  0  0  0
   30.9110   30.6770   33.0750 C   0  0  0  0  0  0  0  0  0  0  0  0
   30.6040   29.9870   33.8540 H   0  0  0  0  0  0  0  0  0  0  0  0
   29.9910   31.6360   32.6970 C   0  0  0  0  0  0  0  0  0  0  0  0
   29.0290   31.6680   33.1750 H   0  0  0  0  0  0  0  0  0  0  0  0
   30.3670   32.5190   31.7060 C   0  0  0  0  0  0  0  0  0  0  0  0
   29.6680   33.2820   31.3910 H   0  0  0  0  0  0  0  0  0  0  0  0
   31.6270   32.3940   31.1560 C   0  0  0  0  0  0  0  0  0  0  0  0
   31.8410   33.1310   30.3820 H   0  0  0  0  0  0  0  0  0  0  0  0
   32.5620   31.4470   31.5140 C   0  0  0  0  0  0  0  0  0  0  0  0
   33.7990   31.4380   30.8700 N   0  0  0  0  0  0  0  0  0  0  0  0
   33.9830   32.1450   30.1400 H   0  0  0  0  0  0  0  0  0  0  0  0
   38.7930   25.3980   34.6070 C   0  0  0  0  0  0  0  0  0  0  0  0
   37.8020   25.5960   35.5330 C   0  0  0  0  0  0  0  0  0  0  0  0
   37.6950   24.8640   36.6920 C   0  0  0  0  0  0  0  0  0  0  0  0
   38.6020   23.8860   36.9680 C   0  0  0  0  0  0  0  0  0  0  0  0
   39.5910   23.7030   36.0230 C   0  0  0  0  0  0  0  0  0  0  0  0
   39.6800   24.4150   34.9120 N   0  0  0  0  0  0  0  0  0  0  0  0
   37.0770   26.3640   35.3300 H   0  0  0  0  0  0  0  0  0  0  0  0
   36.8690   25.0900   37.3780 H   0  0  0  0  0  0  0  0  0  0  0  0
   38.5230   23.3040   37.8820 H   0  0  0  0  0  0  0  0  0  0  0  0
   40.8850   22.0780   37.4420 C   0  0  0  0  0  0  0  0  0  0  0  0
   40.6030   22.6750   36.2410 C   0  0  0  0  0  0  0  0  0  0  0  0
   41.3930   22.2040   35.1900 C   0  0  0  0  0  0  0  0  0  0  0  0
   42.3730   21.2330   35.3120 C   0  0  0  0  0  0  0  0  0  0  0  0
   43.2160   20.6650   34.4340 N   0  0  0  0  0  0  0  0  0  0  0  0
   43.9580   19.7660   35.1260 C   0  0  0  0  0  0  0  0  0  0  0  0
   43.5950   19.7540   36.4500 C   0  0  0  0  0  0  0  0  0  0  0  0
   42.5890   20.6880   36.5490 C   0  0  0  0  0  0  0  0  0  0  0  0
   41.8440   21.1110   37.6200 C   0  0  0  0  0  0  0  0  0  0  0  0
   40.3060   22.3960   38.3100 H   0  0  0  0  0  0  0  0  0  0  0  0
   41.2520   22.6100   34.1960 H   0  0  0  0  0  0  0  0  0  0  0  0
   43.2510   20.9090   33.4110 H   0  0  0  0  0  0  0  0  0  0  0  0
   44.7080   19.1940   34.5860 H   0  0  0  0  0  0  0  0  0  0  0  0
   44.0430   19.1170   37.2070 H   0  0  0  0  0  0  0  0  0  0  0  0
   42.0370   20.6630   38.5830 H   0  0  0  0  0  0  0  0  0  0  0  0
  1  2  1  0  0  0  0
  2  8  1  0  0  0  0
  2  3  2  0  0  0  0
  3 31  1  0  0  0  0
  4  3  1  0  0  0  0
  5  4  2  0  0  0  0
  6  1  2  0  0  0  0
  6  5  1  0  0  0  0
  7  1  1  0  0  0  0
  9  5  1  0  0  0  0
  9 16  1  0  0  0  0
 10  9  2  0  0  0  0
 11 10  1  0  0  0  0
 12 10  1  0  0  0  0
 12 14  2  0  0  0  0
 13 12  1  0  0  0  0
 14 15  1  0  0  0  0
 15 16  2  0  0  0  0
 15 18  1  0  0  0  0
 16 17  1  0  0  0  0
 19 18  1  0  0  0  0
 19 20  1  0  0  0  0
 20 21  1  0  0  0  0
 22 20  2  0  0  0  0
 22 23  1  0  0  0  0
 24 22  1  0  0  0  0
 25 24  1  0  0  0  0
 26 28  1  0  0  0  0
 26 24  2  0  0  0  0
 27 26  1  0  0  0  0
 28 19  2  0  0  0  0
 29 14  1  0  0  0  0
 29 28  1  0  0  0  0
 30 29  1  0  0  0  0
 31 36  2  0  0  0  0
 31 32  1  0  0  0  0
 32 33  2  0  0  0  0
 33 34  1  0  0  0  0
 33 38  1  0  0  0  0
 34 39  1  0  0  0  0
 35 41  1  0  0  0  0
 35 34  2  0  0  0  0
 36 35  1  0  0  0  0
 37 32  1  0  0  0  0
 40 48  1  0  0  0  0
 40 49  1  0  0  0  0
 41 40  2  0  0  0  0
 42 43  2  0  0  0  0
 42 41  1  0  0  0  0
 43 47  1  0  0  0  0
 44 45  1  0  0  0  0
 44 43  1  0  0  0  0
 45 46  2  0  0  0  0
 46 47  1  0  0  0  0
 46 53  1  0  0  0  0
 47 48  2  0  0  0  0
 48 54  1  0  0  0  0
 50 42  1  0  0  0  0
 51 44  1  0  0  0  0
 52 45  1  0  0  0  0
M  END
>  <minimizedAffinity>
-7.07425785

$$$$
