
     RDKit          3D

 37 40  0  0  0  0  0  0  0  0999 V2000
   37.3069   30.1987   51.4362 C   0  0  0  0  0  0  0  0  0  0  0  0
   38.1093   30.7382   50.4131 C   0  0  0  0  0  0  0  0  0  0  0  0
   37.7640   30.4425   49.0762 C   0  0  0  0  0  0  0  0  0  0  0  0
   36.6698   29.6493   48.8614 N   0  0  0  0  0  0  0  0  0  0  0  0
   35.9349   29.1585   49.8899 C   0  0  0  0  0  0  0  0  0  0  0  0
   36.2576   29.4352   51.1510 N   0  0  0  0  0  0  0  0  0  0  0  0
   34.7481   28.2944   49.5480 C   0  0  0  0  0  0  0  0  0  0  0  0
   34.4082   28.4633   48.0882 C   0  0  0  0  0  0  0  0  0  0  0  0
   37.6218   30.4609   52.4483 H   0  0  0  0  0  0  0  0  0  0  0  0
   38.9713   31.3624   50.5646 H   0  0  0  0  0  0  0  0  0  0  0  0
   38.3422   30.8273   48.2281 H   0  0  0  0  0  0  0  0  0  0  0  0
   34.9837   27.2344   49.7684 H   0  0  0  0  0  0  0  0  0  0  0  0
   33.8693   28.5833   50.1613 H   0  0  0  0  0  0  0  0  0  0  0  0
   34.3133   29.5435   47.8511 H   0  0  0  0  0  0  0  0  0  0  0  0
   35.3120   28.1140   47.5150 H   0  0  0  0  0  0  0  0  0  0  0  0
   33.2608   27.6553   47.6681 C   0  0  0  0  0  0  0  0  0  0  0  0
   31.9818   28.1697   47.7430 C   0  0  0  0  0  0  0  0  0  0  0  0
   31.8446   29.1910   48.1218 H   0  0  0  0  0  0  0  0  0  0  0  0
   30.8928   27.4378   47.3579 C   0  0  0  0  0  0  0  0  0  0  0  0
   29.9154   27.9281   47.4523 H   0  0  0  0  0  0  0  0  0  0  0  0
   30.9901   26.1516   46.8736 C   0  0  0  0  0  0  0  0  0  0  0  0
   32.2465   25.6511   46.8018 C   0  0  0  0  0  0  0  0  0  0  0  0
   33.3220   26.3686   47.1802 C   0  0  0  0  0  0  0  0  0  0  0  0
   34.3250   25.9218   47.1049 H   0  0  0  0  0  0  0  0  0  0  0  0
   32.4829   23.9940   46.1886 S   0  0  0  0  0  0  0  0  0  0  0  0
   30.8525   23.3933   45.8020 C   0  0  0  0  0  0  0  0  0  0  0  0
   30.8009   22.1282   45.3117 C   0  0  0  0  0  0  0  0  0  0  0  0
   31.6428   21.4697   45.1396 H   0  0  0  0  0  0  0  0  0  0  0  0
   29.5732   21.5663   44.9786 C   0  0  0  0  0  0  0  0  0  0  0  0
   29.4839   20.5615   44.5845 H   0  0  0  0  0  0  0  0  0  0  0  0
   28.4427   22.3284   45.1628 C   0  0  0  0  0  0  0  0  0  0  0  0
   27.4876   21.8924   44.9039 H   0  0  0  0  0  0  0  0  0  0  0  0
   28.5735   23.6121   45.6678 C   0  0  0  0  0  0  0  0  0  0  0  0
   27.6216   24.1302   45.7755 H   0  0  0  0  0  0  0  0  0  0  0  0
   29.7791   24.1920   46.0057 C   0  0  0  0  0  0  0  0  0  0  0  0
   29.7947   25.4914   46.5058 N   0  0  0  0  0  0  0  0  0  0  0  0
   28.8873   25.9940   46.6117 H   0  0  0  0  0  0  0  0  0  0  0  0
  2  1  2  0
  3  2  1  0
  4  3  2  0
  4  5  1  0
  5  6  2  0
  6  1  1  0
  7  5  1  0
  8  7  1  0
  1  9  1  0
  2 10  1  0
  3 11  1  0
  7 12  1  0
  7 13  1  0
  8 14  1  0
  8 15  1  0
 16 17  2  0
 17 18  1  0
 17 19  1  0
 19 20  1  0
 19 21  2  0
 21 22  1  0
 22 23  2  0
 23 24  1  0
 22 25  1  0
 25 26  1  0
 26 27  2  0
 27 28  1  0
 27 29  1  0
 29 30  1  0
 29 31  2  0
 31 32  1  0
 31 33  1  0
 33 34  1  0
 33 35  2  0
 35 36  1  0
 36 37  1  0
 23 16  1  0
 35 26  1  0
 36 21  1  0
  8 16  1  0
M  ISO  8   9  14  10  14  11  14  12   8  13   8  14   8  15   8  18  16
M  ISO  7  20  16  24  16  28  16  30  16  32  16  34  16  37   5
M  END
>  <DihAtoms>  (1) 
6,7,15,16

>  <DihDeg>  (1) 
-89.99600099601308

$$$$
