
     RDKit          3D

 34 37  0  0  0  0  0  0  0  0999 V2000
   37.3324   30.2798   49.9737 C   0  0  0  0  0  0  0  0  0  0  0  0
   38.2912   31.3029   50.0470 C   0  0  0  0  0  0  0  0  0  0  0  0
   38.5206   32.0869   48.9043 C   0  0  0  0  0  0  0  0  0  0  0  0
   37.7860   31.7919   47.7964 N   0  0  0  0  0  0  0  0  0  0  0  0
   36.8709   30.8006   47.7586 C   0  0  0  0  0  0  0  0  0  0  0  0
   36.6538   30.0531   48.8517 N   0  0  0  0  0  0  0  0  0  0  0  0
   37.0969   29.4480   51.2046 C   0  0  0  0  0  0  0  0  0  0  0  0
   35.7331   29.1897   51.3328 F   0  0  0  0  0  0  0  0  0  0  0  0
   37.8697   28.3337   51.1090 F   0  0  0  0  0  0  0  0  0  0  0  0
   37.4574   30.2275   52.3070 F   0  0  0  0  0  0  0  0  0  0  0  0
   38.8634   31.5140   50.9502 H   0  0  0  0  0  0  0  0  0  0  0  0
   39.2382   32.8736   48.9139 H   0  0  0  0  0  0  0  0  0  0  0  0
   36.1186   30.5389   46.5366 C   0  0  0  0  0  0  0  0  0  0  0  0
   35.3218   31.5338   46.0014 C   0  0  0  0  0  0  0  0  0  0  0  0
   35.2664   32.4810   46.4878 H   0  0  0  0  0  0  0  0  0  0  0  0
   34.6311   31.2364   44.8455 C   0  0  0  0  0  0  0  0  0  0  0  0
   34.0244   32.0596   44.4771 H   0  0  0  0  0  0  0  0  0  0  0  0
   34.6569   30.0367   44.1666 C   0  0  0  0  0  0  0  0  0  0  0  0
   35.4674   29.0973   44.7543 C   0  0  0  0  0  0  0  0  0  0  0  0
   36.1766   29.3210   45.8925 C   0  0  0  0  0  0  0  0  0  0  0  0
   36.8083   28.5561   46.3312 H   0  0  0  0  0  0  0  0  0  0  0  0
   35.6206   27.4854   44.0102 S   0  0  0  0  0  0  0  0  0  0  0  0
   34.5854   27.5174   42.5629 C   0  0  0  0  0  0  0  0  0  0  0  0
   34.4742   26.4387   41.7619 C   0  0  0  0  0  0  0  0  0  0  0  0
   35.0445   25.5364   42.0318 H   0  0  0  0  0  0  0  0  0  0  0  0
   33.6991   26.3696   40.6228 C   0  0  0  0  0  0  0  0  0  0  0  0
   33.6390   25.4915   40.0142 H   0  0  0  0  0  0  0  0  0  0  0  0
   32.9998   27.5248   40.3212 C   0  0  0  0  0  0  0  0  0  0  0  0
   32.3697   27.5397   39.4376 H   0  0  0  0  0  0  0  0  0  0  0  0
   33.1115   28.6317   41.1396 C   0  0  0  0  0  0  0  0  0  0  0  0
   32.5213   29.5082   40.8262 H   0  0  0  0  0  0  0  0  0  0  0  0
   33.8944   28.6666   42.2693 C   0  0  0  0  0  0  0  0  0  0  0  0
   33.8997   29.8630   42.9904 N   0  0  0  0  0  0  0  0  0  0  0  0
   33.3379   30.6847   42.6845 H   0  0  0  0  0  0  0  0  0  0  0  0
  1  2  2  0
  1  7  1  0
  3  2  1  0
  4  3  2  0
  5  4  1  0
  5  6  2  0
  6  1  1  0
  7  8  1  0
  7 10  1  0
  9  7  1  0
  2 11  1  0
  3 12  1  0
 13 14  2  0
 14 15  1  0
 14 16  1  0
 16 17  1  0
 16 18  2  0
 18 19  1  0
 19 20  2  0
 20 21  1  0
 19 22  1  0
 22 23  1  0
 23 24  2  0
 24 25  1  0
 24 26  1  0
 26 27  1  0
 26 28  2  0
 28 29  1  0
 28 30  1  0
 30 31  1  0
 30 32  2  0
 32 33  1  0
 33 34  1  0
 20 13  1  0
 32 23  1  0
 33 18  1  0
  5 13  1  0
M  ISO  8  11  14  12  14  15  16  17  16  21  16  25  16  27  16  29  16
M  ISO  2  31  16  34   5
M  END
>  <DihAtoms>  (1) 
3,4,12,13

>  <DihDeg>  (1) 
-0.0012201428176790792

$$$$
