
 OpenBabel03272501543D

 37 40  0  0  0  0  0  0  0  0999 V2000
   33.2800   27.9400   47.6790 C   0  0  0  0  0  0  0  0  0  0  0  0
   32.2500   27.6800   48.5610 C   0  0  0  0  0  0  0  0  0  0  0  0
   32.3300   28.0520   49.5910 H   0  0  0  0  0  0  0  0  0  0  0  0
   31.1440   26.9720   48.1800 C   0  0  0  0  0  0  0  0  0  0  0  0
   30.3770   26.8120   48.9480 H   0  0  0  0  0  0  0  0  0  0  0  0
   30.9770   26.4740   46.9050 C   0  0  0  0  0  0  0  0  0  0  0  0
   31.9890   26.7340   46.0440 C   0  0  0  0  0  0  0  0  0  0  0  0
   33.0810   27.4300   46.4160 C   0  0  0  0  0  0  0  0  0  0  0  0
   33.8800   27.6170   45.6820 H   0  0  0  0  0  0  0  0  0  0  0  0
   31.8730   26.1340   44.3690 S   0  0  0  0  0  0  0  0  0  0  0  0
   30.3140   25.2800   44.2770 C   0  0  0  0  0  0  0  0  0  0  0  0
   30.0200   24.7360   43.0690 C   0  0  0  0  0  0  0  0  0  0  0  0
   30.6350   24.7760   42.1790 H   0  0  0  0  0  0  0  0  0  0  0  0
   28.8240   24.0470   42.8930 C   0  0  0  0  0  0  0  0  0  0  0  0
   28.5480   23.5980   41.9480 H   0  0  0  0  0  0  0  0  0  0  0  0
   27.9750   23.9440   43.9700 C   0  0  0  0  0  0  0  0  0  0  0  0
   27.0450   23.4090   43.8360 H   0  0  0  0  0  0  0  0  0  0  0  0
   28.3420   24.5250   45.1740 C   0  0  0  0  0  0  0  0  0  0  0  0
   27.6030   24.3860   45.9620 H   0  0  0  0  0  0  0  0  0  0  0  0
   29.5220   25.2130   45.3730 C   0  0  0  0  0  0  0  0  0  0  0  0
   29.7910   25.7570   46.6260 N   0  0  0  0  0  0  0  0  0  0  0  0
   29.0870   25.6280   47.3850 H   0  0  0  0  0  0  0  0  0  0  0  0
   34.4520   28.7010   48.1170 C   0  0  0  0  0  0  0  0  0  0  0  0
   34.3420   29.8020   48.0180 H   0  0  0  0  0  0  0  0  0  0  0  0
   35.3160   28.4310   47.4470 H   0  0  0  0  0  0  0  0  0  0  0  0
   34.8890   28.3600   49.5200 C   0  0  0  0  0  0  0  0  0  0  0  0
   35.1790   27.2930   49.5840 H   0  0  0  0  0  0  0  0  0  0  0  0
   34.0400   28.5270   50.2150 H   0  0  0  0  0  0  0  0  0  0  0  0
   37.3950   30.2410   51.5010 C   0  0  0  0  0  0  0  0  0  0  0  0
   38.2100   30.8130   50.5060 C   0  0  0  0  0  0  0  0  0  0  0  0
   37.8920   30.5480   49.1560 C   0  0  0  0  0  0  0  0  0  0  0  0
   36.8100   29.7500   48.9020 N   0  0  0  0  0  0  0  0  0  0  0  0
   36.0610   29.2280   49.9050 C   0  0  0  0  0  0  0  0  0  0  0  0
   36.3590   29.4750   51.1780 N   0  0  0  0  0  0  0  0  0  0  0  0
   37.6890   30.4810   52.5250 H   0  0  0  0  0  0  0  0  0  0  0  0
   39.0630   31.4410   50.6890 H   0  0  0  0  0  0  0  0  0  0  0  0
   38.4810   30.9590   48.3290 H   0  0  0  0  0  0  0  0  0  0  0  0
  1 23  1  0  0  0  0
  1  2  1  0  0  0  0
  2  3  1  0  0  0  0
  4  2  2  0  0  0  0
  4  5  1  0  0  0  0
  6  4  1  0  0  0  0
  7  8  1  0  0  0  0
  7  6  2  0  0  0  0
  8  1  2  0  0  0  0
  9  8  1  0  0  0  0
 10  7  1  0  0  0  0
 11 10  1  0  0  0  0
 11 20  1  0  0  0  0
 12 11  2  0  0  0  0
 13 12  1  0  0  0  0
 14 12  1  0  0  0  0
 14 16  2  0  0  0  0
 15 14  1  0  0  0  0
 16 18  1  0  0  0  0
 17 16  1  0  0  0  0
 18 20  2  0  0  0  0
 18 19  1  0  0  0  0
 20 21  1  0  0  0  0
 21  6  1  0  0  0  0
 21 22  1  0  0  0  0
 23 26  1  0  0  0  0
 24 23  1  0  0  0  0
 25 23  1  0  0  0  0
 26 27  1  0  0  0  0
 26 33  1  0  0  0  0
 26 28  1  0  0  0  0
 29 35  1  0  0  0  0
 30 36  1  0  0  0  0
 30 29  2  0  0  0  0
 31 30  1  0  0  0  0
 32 31  2  0  0  0  0
 32 33  1  0  0  0  0
 33 34  2  0  0  0  0
 34 29  1  0  0  0  0
 37 31  1  0  0  0  0
M  END
>  <minimizedAffinity>
-5.11919498

>  <minimizedRMSD>
0.598148584

$$$$
