REMARK  Name = 
REMARK  2 active torsions:
REMARK  status: ('A' for Active; 'I' for Inactive)
REMARK    1  A    between atoms: C_1  and  C_7
REMARK    2  A    between atoms: C_5  and  C_13
REMARK                            x       y       z     vdW  Elec       q    Type
REMARK                         _______ _______ _______ _____ _____    ______ ____
ROOT
ATOM      1  C   UNL     1      36.119  30.539  46.537  0.00  0.00    +0.000 A 
ATOM      2  C   UNL     1      36.110  31.483  45.527  0.00  0.00    +0.000 A 
ATOM      3  H   UNL     1      36.653  32.392  45.653  0.00  0.00    +0.000 HD
ATOM      4  C   UNL     1      35.383  31.188  44.393  0.00  0.00    +0.000 A 
ATOM      5  H   UNL     1      35.417  31.971  43.639  0.00  0.00    +0.000 HD
ATOM      6  C   UNL     1      34.661  30.037  44.164  0.00  0.00    +0.000 A 
ATOM      7  C   UNL     1      34.715  29.146  45.207  0.00  0.00    +0.000 A 
ATOM      8  C   UNL     1      35.410  29.370  46.354  0.00  0.00    +0.000 A 
ATOM      9  H   UNL     1      35.432  28.644  47.160  0.00  0.00    +0.000 HD
ATOM     10  S   UNL     1      33.837  27.600  45.084  0.00  0.00    +0.000 S 
ATOM     11  C   UNL     1      33.044  27.616  43.490  0.00  0.00    +0.000 A 
ATOM     12  C   UNL     1      32.289  26.579  43.077  0.00  0.00    +0.000 A 
ATOM     13  H   UNL     1      32.178  25.721  43.757  0.00  0.00    +0.000 HD
ATOM     14  C   UNL     1      31.638  26.502  41.863  0.00  0.00    +0.000 A 
ATOM     15  H   UNL     1      31.047  25.658  41.574  0.00  0.00    +0.000 HD
ATOM     16  C   UNL     1      31.805  27.602  41.040  0.00  0.00    +0.000 A 
ATOM     17  H   UNL     1      31.320  27.608  40.069  0.00  0.00    +0.000 HD
ATOM     18  C   UNL     1      32.578  28.666  41.460  0.00  0.00    +0.000 A 
ATOM     19  H   UNL     1      32.658  29.500  40.744  0.00  0.00    +0.000 HD
ATOM     20  C   UNL     1      33.214  28.711  42.679  0.00  0.00    +0.000 A 
ATOM     21  N   UNL     1      33.959  29.860  42.955  0.00  0.00    +0.000 N 
ATOM     22  H   UNL     1      34.027  30.641  42.270  0.00  0.00    +0.000 HD
ENDROOT
BRANCH   1  27
ATOM     23  C   UNL     1      37.332  30.280  49.974  0.00  0.00    +0.000 A 
ATOM     24  C   UNL     1      38.291  31.303  50.047  0.00  0.00    +0.000 A 
ATOM     25  C   UNL     1      38.521  32.087  48.904  0.00  0.00    +0.000 A 
ATOM     26  N   UNL     1      37.786  31.792  47.796  0.00  0.00    +0.000 NA
ATOM     27  C   UNL     1      36.871  30.801  47.759  0.00  0.00    +0.000 A 
ATOM     28  N   UNL     1      36.654  30.053  48.852  0.00  0.00    +0.000 NA
ATOM     29  H   UNL     1      38.863  31.514  50.950  0.00  0.00    +0.000 HD
ATOM     30  H   UNL     1      39.238  32.874  48.914  0.00  0.00    +0.000 HD
BRANCH  23  31
ATOM     31  C   UNL     1      37.097  29.448  51.205  0.00  0.00    +0.000 C 
ATOM     32  F   UNL     1      35.733  29.190  51.333  0.00  0.00    +0.000 F 
ATOM     33  F   UNL     1      37.870  28.334  51.109  0.00  0.00    +0.000 F 
ATOM     34  F   UNL     1      37.457  30.227  52.307  0.00  0.00    +0.000 F 
ENDBRANCH  23  31
ENDBRANCH   1  27
TORSDOF 2
