
     RDKit          3D

 46 50  0  0  0  0  0  0  0  0999 V2000
   33.5966   28.7107   49.0303 N   0  0  0  0  0  0  0  0  0  0  0  0
   34.4414   29.8815   48.9354 C   0  0  2  0  0  0  0  0  0  0  0  0
   34.3739   30.3807   47.5128 C   0  0  0  0  0  0  0  0  0  0  0  0
   33.2490   29.8562   46.8320 O   0  0  0  0  0  0  0  0  0  0  0  0
   33.5400   28.5017   46.6675 C   0  0  0  0  0  0  0  0  0  0  0  0
   33.9218   27.8211   47.9521 C   0  0  2  0  0  0  0  0  0  0  0  0
   33.1770   26.6365   48.1136 O   0  0  0  0  0  0  0  0  0  0  0  0
   36.1835   29.4422   49.3097 S   0  0  0  0  0  0  0  0  0  0  0  0
   37.2851   30.7375   48.8146 C   0  0  0  0  0  0  0  0  0  0  0  0
   37.2159   31.8671   49.6590 C   0  0  0  0  0  0  0  0  0  0  0  0
   38.0392   32.9546   49.3691 C   0  0  0  0  0  0  0  0  0  0  0  0
   38.8756   32.8569   48.2671 N   0  0  0  0  0  0  0  0  0  0  0  0
   38.9029   31.7688   47.5024 C   0  0  0  0  0  0  0  0  0  0  0  0
   38.1242   30.7234   47.7654 N   0  0  0  0  0  0  0  0  0  0  0  0
   33.7631   28.3087   49.9836 H   0  0  0  0  0  0  0  0  0  0  0  0
   34.1329   30.6368   49.6784 H   0  0  0  0  0  0  0  0  0  0  0  0
   34.2126   31.4786   47.5714 H   0  0  0  0  0  0  0  0  0  0  0  0
   35.3035   30.1950   46.9568 H   0  0  0  0  0  0  0  0  0  0  0  0
   34.3874   28.4723   45.9345 H   0  0  0  0  0  0  0  0  0  0  0  0
   32.6512   28.0085   46.2205 H   0  0  0  0  0  0  0  0  0  0  0  0
   34.9978   27.5449   47.9062 H   0  0  0  0  0  0  0  0  0  0  0  0
   32.5780   26.6957   48.9007 H   0  0  0  0  0  0  0  0  0  0  0  0
   36.5827   31.9749   50.5160 H   0  0  0  0  0  0  0  0  0  0  0  0
   38.0476   33.8489   49.9592 H   0  0  0  0  0  0  0  0  0  0  0  0
   39.8107   31.7414   46.3593 C   0  0  0  0  0  0  0  0  0  0  0  0
   41.1078   31.2763   46.4454 C   0  0  0  0  0  0  0  0  0  0  0  0
   41.4565   30.9223   47.3935 H   0  0  0  0  0  0  0  0  0  0  0  0
   41.9060   31.2820   45.3198 C   0  0  0  0  0  0  0  0  0  0  0  0
   42.9139   30.8958   45.4873 H   0  0  0  0  0  0  0  0  0  0  0  0
   41.4921   31.7298   44.0830 C   0  0  0  0  0  0  0  0  0  0  0  0
   40.2019   32.1908   44.0040 C   0  0  0  0  0  0  0  0  0  0  0  0
   39.4048   32.1877   45.1177 C   0  0  0  0  0  0  0  0  0  0  0  0
   38.3871   32.5597   45.0213 H   0  0  0  0  0  0  0  0  0  0  0  0
   39.6231   32.7763   42.4387 S   0  0  0  0  0  0  0  0  0  0  0  0
   40.9689   32.6008   41.2878 C   0  0  0  0  0  0  0  0  0  0  0  0
   40.7550   32.9938   39.9957 C   0  0  0  0  0  0  0  0  0  0  0  0
   39.7968   33.3960   39.6954 H   0  0  0  0  0  0  0  0  0  0  0  0
   41.7486   32.8871   39.0533 C   0  0  0  0  0  0  0  0  0  0  0  0
   41.5519   33.2007   38.0582 H   0  0  0  0  0  0  0  0  0  0  0  0
   42.9433   32.3788   39.4555 C   0  0  0  0  0  0  0  0  0  0  0  0
   43.7434   32.2818   38.7413 H   0  0  0  0  0  0  0  0  0  0  0  0
   43.1152   31.9947   40.7699 C   0  0  0  0  0  0  0  0  0  0  0  0
   44.1124   31.5939   41.0110 H   0  0  0  0  0  0  0  0  0  0  0  0
   42.1509   32.0811   41.7539 C   0  0  0  0  0  0  0  0  0  0  0  0
   42.4584   31.6535   43.0557 N   0  0  0  0  0  0  0  0  0  0  0  0
   43.4158   31.2830   43.2293 H   0  0  0  0  0  0  0  0  0  0  0  0
  2  1  1  0
  2  8  1  0
  3  2  1  0
  4  3  1  0
  5  4  1  0
  5  6  1  0
  6  7  1  0
  6  1  1  0
  9  8  1  0
  9 10  2  0
 11 10  1  0
 12 11  2  0
 13 14  2  0
 13 12  1  0
 14  9  1  0
  1 15  1  0
  2 16  1  1
  3 17  1  0
  3 18  1  0
  5 19  1  0
  5 20  1  0
  6 21  1  6
  7 22  1  0
 10 23  1  0
 11 24  1  0
 25 26  2  0
 26 27  1  0
 26 28  1  0
 28 29  1  0
 28 30  2  0
 30 31  1  0
 31 32  2  0
 32 33  1  0
 31 34  1  0
 34 35  1  0
 35 36  2  0
 36 37  1  0
 36 38  1  0
 38 39  1  0
 38 40  2  0
 40 41  1  0
 40 42  1  0
 42 43  1  0
 42 44  2  0
 44 45  1  0
 45 46  1  0
 32 25  1  0
 44 35  1  0
 45 30  1  0
 13 25  1  0
M  ISO  8  15   5  16  13  17  13  18  13  19  13  20  13  21  13  22   3
M  ISO  8  23  14  24  14  27  16  29  16  33  16  37  16  39  16  41  16
M  ISO  2  43  16  46   5
M  END
>  <DihAtoms>  (1) 
13,12,24,25

>  <DihDeg>  (1) 
0.00931031486503342

$$$$
