REMARK  Name = 
REMARK  3 active torsions:
REMARK  status: ('A' for Active; 'I' for Inactive)
REMARK    1  A    between atoms: C_5  and  C_7
REMARK    2  A    between atoms: C_7  and  C_8
REMARK    3  A    between atoms: C_8  and  C_16
REMARK                            x       y       z     vdW  Elec       q    Type
REMARK                         _______ _______ _______ _____ _____    ______ ____
ROOT
ATOM      1  C   UNL     1      33.261  27.655  47.668  0.00  0.00    +0.000 A 
ATOM      2  C   UNL     1      32.272  28.207  46.879  0.00  0.00    +0.000 A 
ATOM      3  H   UNL     1      32.364  29.258  46.575  0.00  0.00    +0.000 HD
ATOM      4  C   UNL     1      31.190  27.477  46.472  0.00  0.00    +0.000 A 
ATOM      5  H   UNL     1      30.454  27.998  45.847  0.00  0.00    +0.000 HD
ATOM      6  C   UNL     1      31.009  26.154  46.815  0.00  0.00    +0.000 A 
ATOM      7  C   UNL     1      31.982  25.617  47.590  0.00  0.00    +0.000 A 
ATOM      8  C   UNL     1      33.050  26.333  47.992  0.00  0.00    +0.000 A 
ATOM      9  H   UNL     1      33.816  25.856  48.621  0.00  0.00    +0.000 HD
ATOM     10  S   UNL     1      31.845  23.911  48.090  0.00  0.00    +0.000 S 
ATOM     11  C   UNL     1      30.327  23.325  47.369  0.00  0.00    +0.000 A 
ATOM     12  C   UNL     1      30.023  22.028  47.629  0.00  0.00    +0.000 A 
ATOM     13  H   UNL     1      30.609  21.336  48.221  0.00  0.00    +0.000 HD
ATOM     14  C   UNL     1      28.857  21.474  47.111  0.00  0.00    +0.000 A 
ATOM     15  H   UNL     1      28.575  20.444  47.292  0.00  0.00    +0.000 HD
ATOM     16  C   UNL     1      28.046  22.278  46.344  0.00  0.00    +0.000 A 
ATOM     17  H   UNL     1      27.139  21.848  45.940  0.00  0.00    +0.000 HD
ATOM     18  C   UNL     1      28.421  23.593  46.121  0.00  0.00    +0.000 A 
ATOM     19  H   UNL     1      27.713  24.143  45.503  0.00  0.00    +0.000 HD
ATOM     20  C   UNL     1      29.572  24.166  46.623  0.00  0.00    +0.000 A 
ATOM     21  N   UNL     1      29.851  25.499  46.337  0.00  0.00    +0.000 N 
ATOM     22  H   UNL     1      29.178  26.032  45.745  0.00  0.00    +0.000 HD
ENDROOT
BRANCH   1  23
ATOM     23  C   UNL     1      34.408  28.463  48.088  0.00  0.00    +0.000 C 
ATOM     24  H   UNL     1      34.313  29.544  47.851  0.00  0.00    +0.000 HD
ATOM     25  H   UNL     1      35.312  28.114  47.515  0.00  0.00    +0.000 HD
BRANCH  23  26
ATOM     26  C   UNL     1      34.748  28.294  49.548  0.00  0.00    +0.000 C 
ATOM     27  H   UNL     1      34.984  27.234  49.768  0.00  0.00    +0.000 HD
ATOM     28  H   UNL     1      33.869  28.583  50.161  0.00  0.00    +0.000 HD
BRANCH  26  33
ATOM     29  C   UNL     1      37.307  30.199  51.436  0.00  0.00    +0.000 A 
ATOM     30  C   UNL     1      38.109  30.738  50.413  0.00  0.00    +0.000 A 
ATOM     31  C   UNL     1      37.764  30.442  49.076  0.00  0.00    +0.000 A 
ATOM     32  N   UNL     1      36.670  29.649  48.861  0.00  0.00    +0.000 NA
ATOM     33  C   UNL     1      35.935  29.159  49.890  0.00  0.00    +0.000 A 
ATOM     34  N   UNL     1      36.258  29.435  51.151  0.00  0.00    +0.000 NA
ATOM     35  H   UNL     1      37.622  30.461  52.448  0.00  0.00    +0.000 HD
ATOM     36  H   UNL     1      38.971  31.362  50.565  0.00  0.00    +0.000 HD
ATOM     37  H   UNL     1      38.342  30.827  48.228  0.00  0.00    +0.000 HD
ENDBRANCH  26  33
ENDBRANCH  23  26
ENDBRANCH   1  23
TORSDOF 3
