
 OpenBabel03272501543D

 37 40  0  0  0  0  0  0  0  0999 V2000
   33.4030   27.7250   47.6240 C   0  0  0  0  0  0  0  0  0  0  0  0
   33.6990   26.3840   47.7610 C   0  0  0  0  0  0  0  0  0  0  0  0
   34.6010   26.0970   48.3180 H   0  0  0  0  0  0  0  0  0  0  0  0
   32.8980   25.4160   47.2220 C   0  0  0  0  0  0  0  0  0  0  0  0
   33.2120   24.3770   47.3810 H   0  0  0  0  0  0  0  0  0  0  0  0
   31.7520   25.7040   46.5120 C   0  0  0  0  0  0  0  0  0  0  0  0
   31.4660   27.0210   46.3800 C   0  0  0  0  0  0  0  0  0  0  0  0
   32.2530   27.9780   46.9100 C   0  0  0  0  0  0  0  0  0  0  0  0
   31.9820   29.0370   46.7790 H   0  0  0  0  0  0  0  0  0  0  0  0
   30.0040   27.5010   45.4800 S   0  0  0  0  0  0  0  0  0  0  0  0
   29.2510   25.9790   44.9500 C   0  0  0  0  0  0  0  0  0  0  0  0
   28.1050   26.1160   44.2350 C   0  0  0  0  0  0  0  0  0  0  0  0
   27.6220   27.0470   43.9650 H   0  0  0  0  0  0  0  0  0  0  0  0
   27.4390   24.9860   43.7740 C   0  0  0  0  0  0  0  0  0  0  0  0
   26.5220   25.0470   43.2000 H   0  0  0  0  0  0  0  0  0  0  0  0
   27.9780   23.7540   44.0680 C   0  0  0  0  0  0  0  0  0  0  0  0
   27.4600   22.8750   43.7090 H   0  0  0  0  0  0  0  0  0  0  0  0
   29.1500   23.6930   44.8020 C   0  0  0  0  0  0  0  0  0  0  0  0
   29.4920   22.6740   44.9800 H   0  0  0  0  0  0  0  0  0  0  0  0
   29.8300   24.7990   45.2700 C   0  0  0  0  0  0  0  0  0  0  0  0
   31.0020   24.6200   46.0010 N   0  0  0  0  0  0  0  0  0  0  0  0
   31.3350   23.6480   46.1750 H   0  0  0  0  0  0  0  0  0  0  0  0
   34.2810   28.7400   48.2130 C   0  0  0  0  0  0  0  0  0  0  0  0
   33.8210   29.7480   48.2900 H   0  0  0  0  0  0  0  0  0  0  0  0
   35.1690   28.8720   47.5340 H   0  0  0  0  0  0  0  0  0  0  0  0
   34.8370   28.3340   49.5550 C   0  0  0  0  0  0  0  0  0  0  0  0
   35.1570   27.2730   49.5350 H   0  0  0  0  0  0  0  0  0  0  0  0
   34.0420   28.4370   50.3230 H   0  0  0  0  0  0  0  0  0  0  0  0
   37.3790   30.2640   51.4410 C   0  0  0  0  0  0  0  0  0  0  0  0
   38.1720   30.8150   50.4170 C   0  0  0  0  0  0  0  0  0  0  0  0
   37.8260   30.5190   49.0800 C   0  0  0  0  0  0  0  0  0  0  0  0
   36.7410   29.7140   48.8660 N   0  0  0  0  0  0  0  0  0  0  0  0
   36.0150   29.2120   49.8960 C   0  0  0  0  0  0  0  0  0  0  0  0
   36.3380   29.4880   51.1570 N   0  0  0  0  0  0  0  0  0  0  0  0
   37.6940   30.5270   52.4530 H   0  0  0  0  0  0  0  0  0  0  0  0
   39.0270   31.4490   50.5680 H   0  0  0  0  0  0  0  0  0  0  0  0
   38.3970   30.9130   48.2320 H   0  0  0  0  0  0  0  0  0  0  0  0
  1  2  1  0  0  0  0
  1 23  1  0  0  0  0
  2  3  1  0  0  0  0
  4  5  1  0  0  0  0
  4  2  2  0  0  0  0
  6  4  1  0  0  0  0
  7  6  2  0  0  0  0
  7  8  1  0  0  0  0
  8  1  2  0  0  0  0
  9  8  1  0  0  0  0
 10  7  1  0  0  0  0
 11 20  1  0  0  0  0
 11 10  1  0  0  0  0
 12 11  2  0  0  0  0
 13 12  1  0  0  0  0
 14 16  2  0  0  0  0
 14 12  1  0  0  0  0
 15 14  1  0  0  0  0
 16 18  1  0  0  0  0
 17 16  1  0  0  0  0
 18 19  1  0  0  0  0
 18 20  2  0  0  0  0
 20 21  1  0  0  0  0
 21 22  1  0  0  0  0
 21  6  1  0  0  0  0
 23 24  1  0  0  0  0
 23 26  1  0  0  0  0
 25 23  1  0  0  0  0
 26 33  1  0  0  0  0
 26 28  1  0  0  0  0
 27 26  1  0  0  0  0
 29 35  1  0  0  0  0
 30 36  1  0  0  0  0
 30 29  2  0  0  0  0
 31 30  1  0  0  0  0
 32 31  2  0  0  0  0
 32 33  1  0  0  0  0
 33 34  2  0  0  0  0
 34 29  1  0  0  0  0
 37 31  1  0  0  0  0
M  END
>  <minimizedAffinity>
-5.24577332

>  <minimizedRMSD>
1.22732377

$$$$
