REMARK  Name = 
REMARK  2 active torsions:
REMARK  status: ('A' for Active; 'I' for Inactive)
REMARK    1  A    between atoms: C_1  and  C_7
REMARK    2  A    between atoms: C_5  and  C_13
REMARK                            x       y       z     vdW  Elec       q    Type
REMARK                         _______ _______ _______ _____ _____    ______ ____
ROOT
ATOM      1  C   UNL     1      36.119  30.539  46.537  0.00  0.00    +0.000 A 
ATOM      2  C   UNL     1      35.096  31.394  46.170  0.00  0.00    +0.000 A 
ATOM      3  H   UNL     1      34.870  32.236  46.785  0.00  0.00    +0.000 HD
ATOM      4  C   UNL     1      34.416  31.103  45.007  0.00  0.00    +0.000 A 
ATOM      5  H   UNL     1      33.626  31.813  44.775  0.00  0.00    +0.000 HD
ATOM      6  C   UNL     1      34.656  30.036  44.167  0.00  0.00    +0.000 A 
ATOM      7  C   UNL     1      35.683  29.230  44.593  0.00  0.00    +0.000 A 
ATOM      8  C   UNL     1      36.396  29.457  45.728  0.00  0.00    +0.000 A 
ATOM      9  H   UNL     1      37.202  28.800  46.037  0.00  0.00    +0.000 HD
ATOM     10  S   UNL     1      36.131  27.801  43.629  0.00  0.00    +0.000 S 
ATOM     11  C   UNL     1      35.026  27.790  42.233  0.00  0.00    +0.000 A 
ATOM     12  C   UNL     1      35.099  26.825  41.294  0.00  0.00    +0.000 A 
ATOM     13  H   UNL     1      35.865  26.043  41.418  0.00  0.00    +0.000 HD
ATOM     14  C   UNL     1      34.289  26.734  40.182  0.00  0.00    +0.000 A 
ATOM     15  H   UNL     1      34.381  25.950  39.459  0.00  0.00    +0.000 HD
ATOM     16  C   UNL     1      33.342  27.736  40.066  0.00  0.00    +0.000 A 
ATOM     17  H   UNL     1      32.670  27.725  39.213  0.00  0.00    +0.000 HD
ATOM     18  C   UNL     1      33.264  28.726  41.025  0.00  0.00    +0.000 A 
ATOM     19  H   UNL     1      32.482  29.484  40.855  0.00  0.00    +0.000 HD
ATOM     20  C   UNL     1      34.089  28.787  42.124  0.00  0.00    +0.000 A 
ATOM     21  N   UNL     1      33.883  29.852  43.003  0.00  0.00    +0.000 N 
ATOM     22  H   UNL     1      33.141  30.563  42.832  0.00  0.00    +0.000 HD
ENDROOT
BRANCH   1  27
ATOM     23  C   UNL     1      37.332  30.280  49.974  0.00  0.00    +0.000 A 
ATOM     24  C   UNL     1      38.291  31.303  50.047  0.00  0.00    +0.000 A 
ATOM     25  C   UNL     1      38.521  32.087  48.904  0.00  0.00    +0.000 A 
ATOM     26  N   UNL     1      37.786  31.792  47.796  0.00  0.00    +0.000 NA
ATOM     27  C   UNL     1      36.871  30.801  47.759  0.00  0.00    +0.000 A 
ATOM     28  N   UNL     1      36.654  30.053  48.852  0.00  0.00    +0.000 NA
ATOM     29  H   UNL     1      38.863  31.514  50.950  0.00  0.00    +0.000 HD
ATOM     30  H   UNL     1      39.238  32.874  48.914  0.00  0.00    +0.000 HD
BRANCH  23  31
ATOM     31  C   UNL     1      37.097  29.448  51.205  0.00  0.00    +0.000 C 
ATOM     32  F   UNL     1      35.733  29.190  51.333  0.00  0.00    +0.000 F 
ATOM     33  F   UNL     1      37.870  28.334  51.109  0.00  0.00    +0.000 F 
ATOM     34  F   UNL     1      37.457  30.227  52.307  0.00  0.00    +0.000 F 
ENDBRANCH  23  31
ENDBRANCH   1  27
TORSDOF 2
