
 OpenBabel03272500343D

 34 37  0  0  0  0  0  0  0  0999 V2000
   33.9410   29.4810   45.4560 C   0  0  0  0  0  0  0  0  0  0  0  0
   33.3330   30.1970   44.4410 C   0  0  0  0  0  0  0  0  0  0  0  0
   33.7050   31.1640   44.1850 H   0  0  0  0  0  0  0  0  0  0  0  0
   32.2590   29.6090   43.8080 C   0  0  0  0  0  0  0  0  0  0  0  0
   31.8280   30.2230   43.0210 H   0  0  0  0  0  0  0  0  0  0  0  0
   31.7280   28.3680   44.0880 C   0  0  0  0  0  0  0  0  0  0  0  0
   32.3800   27.7140   45.1040 C   0  0  0  0  0  0  0  0  0  0  0  0
   33.4440   28.2330   45.7720 C   0  0  0  0  0  0  0  0  0  0  0  0
   33.9370   27.6910   46.5710 H   0  0  0  0  0  0  0  0  0  0  0  0
   31.8270   26.0940   45.6000 S   0  0  0  0  0  0  0  0  0  0  0  0
   30.4430   25.7100   44.5490 C   0  0  0  0  0  0  0  0  0  0  0  0
   29.7840   24.5410   44.6650 C   0  0  0  0  0  0  0  0  0  0  0  0
   30.1280   23.8290   45.4320 H   0  0  0  0  0  0  0  0  0  0  0  0
   28.7040   24.1560   43.8980 C   0  0  0  0  0  0  0  0  0  0  0  0
   28.2080   23.2150   44.0230 H   0  0  0  0  0  0  0  0  0  0  0  0
   28.3040   25.0780   42.9470 C   0  0  0  0  0  0  0  0  0  0  0  0
   27.4600   24.8400   42.3090 H   0  0  0  0  0  0  0  0  0  0  0  0
   28.9770   26.2790   42.8260 C   0  0  0  0  0  0  0  0  0  0  0  0
   28.5920   26.9540   42.0450 H   0  0  0  0  0  0  0  0  0  0  0  0
   30.0510   26.6310   43.6080 C   0  0  0  0  0  0  0  0  0  0  0  0
   30.6230   27.8800   43.3600 N   0  0  0  0  0  0  0  0  0  0  0  0
   30.2510   28.5110   42.6190 H   0  0  0  0  0  0  0  0  0  0  0  0
   36.0930   30.6830   48.1530 C   0  0  0  0  0  0  0  0  0  0  0  0
   37.2290   31.1430   47.4680 C   0  0  0  0  0  0  0  0  0  0  0  0
   37.2540   31.0370   46.0670 C   0  0  0  0  0  0  0  0  0  0  0  0
   36.1580   30.4900   45.4710 N   0  0  0  0  0  0  0  0  0  0  0  0
   35.0810   30.0580   46.1600 C   0  0  0  0  0  0  0  0  0  0  0  0
   35.0600   30.1590   47.4980 N   0  0  0  0  0  0  0  0  0  0  0  0
   38.0900   31.5760   47.9760 H   0  0  0  0  0  0  0  0  0  0  0  0
   38.0940   31.3730   45.5070 H   0  0  0  0  0  0  0  0  0  0  0  0
   36.0810   30.8020   49.6530 C   0  0  0  0  0  0  0  0  0  0  0  0
   34.8710   30.3120   50.1440 F   0  0  0  0  0  0  0  0  0  0  0  0
   37.1790   30.1590   50.1310 F   0  0  0  0  0  0  0  0  0  0  0  0
   36.1100   32.1640   49.9620 F   0  0  0  0  0  0  0  0  0  0  0  0
  1  8  1  0  0  0  0
  1 27  1  0  0  0  0
  2  1  2  0  0  0  0
  3  2  1  0  0  0  0
  4  6  2  0  0  0  0
  4  2  1  0  0  0  0
  5  4  1  0  0  0  0
  6  7  1  0  0  0  0
  7 10  1  0  0  0  0
  7  8  2  0  0  0  0
  8  9  1  0  0  0  0
 11 12  1  0  0  0  0
 11 10  1  0  0  0  0
 12 13  1  0  0  0  0
 14 15  1  0  0  0  0
 14 12  2  0  0  0  0
 16 14  1  0  0  0  0
 17 16  1  0  0  0  0
 18 16  2  0  0  0  0
 18 20  1  0  0  0  0
 19 18  1  0  0  0  0
 20 11  2  0  0  0  0
 21 20  1  0  0  0  0
 21  6  1  0  0  0  0
 22 21  1  0  0  0  0
 23 31  1  0  0  0  0
 24 29  1  0  0  0  0
 24 23  2  0  0  0  0
 25 24  1  0  0  0  0
 26 25  2  0  0  0  0
 26 27  1  0  0  0  0
 27 28  2  0  0  0  0
 28 23  1  0  0  0  0
 30 25  1  0  0  0  0
 31 34  1  0  0  0  0
 31 33  1  0  0  0  0
 31 32  1  0  0  0  0
M  END
>  <minimizedAffinity>
-4.29083347

>  <minimizedRMSD>
3.75527549

$$$$
