
 OpenBabel03272502193D

 46 50  0  0  1  0  0  0  0  0999 V2000
   34.2570   30.0310   34.3920 C   0  0  0  0  0  0  0  0  0  0  0  0
   33.9840   30.5770   33.1200 C   0  0  0  0  0  0  0  0  0  0  0  0
   34.7270   30.1150   32.0340 C   0  0  0  0  0  0  0  0  0  0  0  0
   35.6910   29.1470   32.2750 N   0  0  0  0  0  0  0  0  0  0  0  0
   35.9100   28.6640   33.4950 C   0  0  0  0  0  0  0  0  0  0  0  0
   35.2090   29.0940   34.5410 N   0  0  0  0  0  0  0  0  0  0  0  0
   33.2490   31.3240   32.8990 H   0  0  0  0  0  0  0  0  0  0  0  0
   34.5830   30.4770   31.0360 H   0  0  0  0  0  0  0  0  0  0  0  0
   36.9420   27.6460   33.6690 C   0  0  0  0  0  0  0  0  0  0  0  0
   37.8970   27.3770   32.7090 C   0  0  0  0  0  0  0  0  0  0  0  0
   37.8730   27.9430   31.8010 H   0  0  0  0  0  0  0  0  0  0  0  0
   38.8400   26.3990   32.9470 C   0  0  0  0  0  0  0  0  0  0  0  0
   39.5520   26.2590   32.1310 H   0  0  0  0  0  0  0  0  0  0  0  0
   38.9000   25.6510   34.1040 C   0  0  0  0  0  0  0  0  0  0  0  0
   37.9490   25.9230   35.0540 C   0  0  0  0  0  0  0  0  0  0  0  0
   37.0090   26.8930   34.8240 C   0  0  0  0  0  0  0  0  0  0  0  0
   36.2690   27.0840   35.5980 H   0  0  0  0  0  0  0  0  0  0  0  0
   37.9840   24.9910   36.5570 S   0  0  0  0  0  0  0  0  0  0  0  0
   39.3490   23.8560   36.4330 C   0  0  0  0  0  0  0  0  0  0  0  0
   39.5780   23.0200   37.4900 C   0  0  0  0  0  0  0  0  0  0  0  0
   38.9440   23.0550   38.3660 H   0  0  0  0  0  0  0  0  0  0  0  0
   40.6150   22.1180   37.4640 C   0  0  0  0  0  0  0  0  0  0  0  0
   40.7660   21.4820   38.3000 H   0  0  0  0  0  0  0  0  0  0  0  0
   41.3960   22.0930   36.3520 C   0  0  0  0  0  0  0  0  0  0  0  0
   42.2170   21.3980   36.3000 H   0  0  0  0  0  0  0  0  0  0  0  0
   41.1290   22.9560   35.3090 C   0  0  0  0  0  0  0  0  0  0  0  0
   41.8100   22.8690   34.4480 H   0  0  0  0  0  0  0  0  0  0  0  0
   40.1030   23.8780   35.2850 C   0  0  0  0  0  0  0  0  0  0  0  0
   39.9410   24.6980   34.1570 N   0  0  0  0  0  0  0  0  0  0  0  0
   40.6140   24.5750   33.3700 H   0  0  0  0  0  0  0  0  0  0  0  0
   33.2350   30.7150   35.6670 S   0  0  0  0  0  0  0  0  0  0  0  0
   30.9620   29.8470   36.8440 N   0  0  0  0  0  0  0  0  0  0  0  0
   31.5120   30.0970   35.5300 C   0  0  2  0  0  0  0  0  0  0  0  0
   31.5370   28.7840   34.7860 C   0  0  0  0  0  0  0  0  0  0  0  0
   30.6790   27.8320   35.3880 O   0  0  0  0  0  0  0  0  0  0  0  0
   31.3010   27.5120   36.5940 C   0  0  0  0  0  0  0  0  0  0  0  0
   31.6410   28.7220   37.4200 C   0  0  2  0  0  0  0  0  0  0  0  0
   31.0770   30.7400   37.3820 H   0  0  0  0  0  0  0  0  0  0  0  0
   30.9290   30.8800   35.0140 H   0  0  0  0  0  0  0  0  0  0  0  0
   31.1150   28.9840   33.7780 H   0  0  0  0  0  0  0  0  0  0  0  0
   32.5540   28.3890   34.6650 H   0  0  0  0  0  0  0  0  0  0  0  0
   32.2290   26.9540   36.3060 H   0  0  0  0  0  0  0  0  0  0  0  0
   30.6280   26.8360   37.1620 H   0  0  0  0  0  0  0  0  0  0  0  0
   32.7470   28.8330   37.4550 H   0  0  0  0  0  0  0  0  0  0  0  0
   31.1810   28.5530   38.7400 O   0  0  0  0  0  0  0  0  0  0  0  0
   30.4760   29.2140   38.9600 H   0  0  0  0  0  0  0  0  0  0  0  0
  1  6  1  0  0  0  0
  1 31  1  0  0  0  0
  2  1  2  0  0  0  0
  3  4  2  0  0  0  0
  3  2  1  0  0  0  0
  4  5  1  0  0  0  0
  5  9  1  0  0  0  0
  5  6  2  0  0  0  0
  7  2  1  0  0  0  0
  8  3  1  0  0  0  0
  9 16  1  0  0  0  0
 10 12  1  0  0  0  0
 10  9  2  0  0  0  0
 11 10  1  0  0  0  0
 12 14  2  0  0  0  0
 13 12  1  0  0  0  0
 14 29  1  0  0  0  0
 14 15  1  0  0  0  0
 15 18  1  0  0  0  0
 16 15  2  0  0  0  0
 16 17  1  0  0  0  0
 19 18  1  0  0  0  0
 19 20  1  0  0  0  0
 20 21  1  0  0  0  0
 22 20  2  0  0  0  0
 22 23  1  0  0  0  0
 24 22  1  0  0  0  0
 25 24  1  0  0  0  0
 26 24  2  0  0  0  0
 27 26  1  0  0  0  0
 28 26  1  0  0  0  0
 28 19  2  0  0  0  0
 29 28  1  0  0  0  0
 30 29  1  0  0  0  0
 32 38  1  0  0  0  0
 32 37  1  0  0  0  0
 33 39  1  6  0  0  0
 33 31  1  0  0  0  0
 33 32  1  0  0  0  0
 34 35  1  0  0  0  0
 34 33  1  0  0  0  0
 35 36  1  0  0  0  0
 36 43  1  0  0  0  0
 36 37  1  0  0  0  0
 37 44  1  6  0  0  0
 37 45  1  0  0  0  0
 40 34  1  0  0  0  0
 41 34  1  0  0  0  0
 42 36  1  0  0  0  0
 45 46  1  0  0  0  0
M  END
>  <minimizedAffinity>
-6.75909996

$$$$

 OpenBabel03272502193D

 46 50  0  0  1  0  0  0  0  0999 V2000
   34.7620   29.9660   34.3310 C   0  0  0  0  0  0  0  0  0  0  0  0
   34.1800   30.1310   33.0560 C   0  0  0  0  0  0  0  0  0  0  0  0
   34.6640   29.3510   32.0060 C   0  0  0  0  0  0  0  0  0  0  0  0
   35.6910   28.4610   32.2830 N   0  0  0  0  0  0  0  0  0  0  0  0
   36.2060   28.3420   33.5040 C   0  0  0  0  0  0  0  0  0  0  0  0
   35.7550   29.0790   34.5160 N   0  0  0  0  0  0  0  0  0  0  0  0
   33.3880   30.8080   32.8090 H   0  0  0  0  0  0  0  0  0  0  0  0
   34.2770   29.4160   31.0100 H   0  0  0  0  0  0  0  0  0  0  0  0
   37.2860   27.3830   33.7160 C   0  0  0  0  0  0  0  0  0  0  0  0
   38.3420   27.2390   32.8390 C   0  0  0  0  0  0  0  0  0  0  0  0
   38.3640   27.8610   31.9680 H   0  0  0  0  0  0  0  0  0  0  0  0
   39.3250   26.3090   33.1090 C   0  0  0  0  0  0  0  0  0  0  0  0
   40.1170   26.2680   32.3580 H   0  0  0  0  0  0  0  0  0  0  0  0
   39.3290   25.4910   34.2190 C   0  0  0  0  0  0  0  0  0  0  0  0
   38.2760   25.6390   35.0870 C   0  0  0  0  0  0  0  0  0  0  0  0
   37.2970   26.5600   34.8240 C   0  0  0  0  0  0  0  0  0  0  0  0
   36.4770   26.6520   35.5330 H   0  0  0  0  0  0  0  0  0  0  0  0
   38.2360   24.6130   36.5270 S   0  0  0  0  0  0  0  0  0  0  0  0
   39.6820   23.5780   36.4690 C   0  0  0  0  0  0  0  0  0  0  0  0
   39.8690   22.6890   37.4910 C   0  0  0  0  0  0  0  0  0  0  0  0
   39.1560   22.6260   38.3020 H   0  0  0  0  0  0  0  0  0  0  0  0
   40.9640   21.8590   37.5120 C   0  0  0  0  0  0  0  0  0  0  0  0
   41.0800   21.1790   38.3200 H   0  0  0  0  0  0  0  0  0  0  0  0
   41.8450   21.9570   36.4820 C   0  0  0  0  0  0  0  0  0  0  0  0
   42.7130   21.3200   36.4690 H   0  0  0  0  0  0  0  0  0  0  0  0
   41.6170   22.8680   35.4710 C   0  0  0  0  0  0  0  0  0  0  0  0
   42.3800   22.8830   34.6770 H   0  0  0  0  0  0  0  0  0  0  0  0
   40.5360   23.7240   35.4030 C   0  0  0  0  0  0  0  0  0  0  0  0
   40.4240   24.6040   34.3160 N   0  0  0  0  0  0  0  0  0  0  0  0
   41.1730   24.5770   33.5930 H   0  0  0  0  0  0  0  0  0  0  0  0
   34.0430   31.0220   35.5580 S   0  0  0  0  0  0  0  0  0  0  0  0
   34.7550   32.6850   37.5660 N   0  0  0  0  0  0  0  0  0  0  0  0
   35.3400   31.9550   36.4630 C   0  0  2  0  0  0  0  0  0  0  0  0
   35.9460   32.9620   35.5170 C   0  0  0  0  0  0  0  0  0  0  0  0
   36.1350   34.2160   36.1460 O   0  0  0  0  0  0  0  0  0  0  0  0
   34.8450   34.7120   36.3350 C   0  0  0  0  0  0  0  0  0  0  0  0
   33.9380   33.7400   37.0370 C   0  0  2  0  0  0  0  0  0  0  0  0
   34.2300   31.9790   38.1360 H   0  0  0  0  0  0  0  0  0  0  0  0
   36.0680   31.2140   36.8360 H   0  0  0  0  0  0  0  0  0  0  0  0
   36.9620   32.5880   35.2660 H   0  0  0  0  0  0  0  0  0  0  0  0
   35.3730   33.0630   34.5850 H   0  0  0  0  0  0  0  0  0  0  0  0
   34.4650   34.9370   35.3050 H   0  0  0  0  0  0  0  0  0  0  0  0
   34.9180   35.6560   36.9140 H   0  0  0  0  0  0  0  0  0  0  0  0
   33.1620   33.3910   36.3220 H   0  0  0  0  0  0  0  0  0  0  0  0
   33.2850   34.3750   38.1110 O   0  0  0  0  0  0  0  0  0  0  0  0
   33.5580   33.9830   38.9790 H   0  0  0  0  0  0  0  0  0  0  0  0
  1  6  1  0  0  0  0
  1 31  1  0  0  0  0
  2  1  2  0  0  0  0
  3  4  2  0  0  0  0
  3  2  1  0  0  0  0
  4  5  1  0  0  0  0
  5  9  1  0  0  0  0
  5  6  2  0  0  0  0
  7  2  1  0  0  0  0
  8  3  1  0  0  0  0
  9 16  1  0  0  0  0
 10 12  1  0  0  0  0
 10  9  2  0  0  0  0
 11 10  1  0  0  0  0
 12 14  2  0  0  0  0
 13 12  1  0  0  0  0
 14 29  1  0  0  0  0
 14 15  1  0  0  0  0
 15 18  1  0  0  0  0
 16 15  2  0  0  0  0
 16 17  1  0  0  0  0
 19 18  1  0  0  0  0
 19 20  1  0  0  0  0
 20 22  2  0  0  0  0
 20 21  1  0  0  0  0
 22 23  1  0  0  0  0
 24 22  1  0  0  0  0
 25 24  1  0  0  0  0
 26 24  2  0  0  0  0
 27 26  1  0  0  0  0
 28 26  1  0  0  0  0
 28 19  2  0  0  0  0
 29 28  1  0  0  0  0
 30 29  1  0  0  0  0
 31 33  1  0  0  0  0
 32 38  1  0  0  0  0
 33 39  1  1  0  0  0
 33 32  1  0  0  0  0
 34 35  1  0  0  0  0
 34 33  1  0  0  0  0
 35 36  1  0  0  0  0
 36 43  1  0  0  0  0
 36 37  1  0  0  0  0
 37 44  1  6  0  0  0
 37 32  1  0  0  0  0
 37 45  1  0  0  0  0
 40 34  1  0  0  0  0
 41 34  1  0  0  0  0
 42 36  1  0  0  0  0
 45 46  1  0  0  0  0
M  END
>  <minimizedAffinity>
-6.72717667

$$$$

 OpenBabel03272502193D

 46 50  0  0  1  0  0  0  0  0999 V2000
   37.8200   26.9070   34.3840 C   0  0  0  0  0  0  0  0  0  0  0  0
   38.2160   26.8470   33.0310 C   0  0  0  0  0  0  0  0  0  0  0  0
   37.5750   27.6870   32.1210 C   0  0  0  0  0  0  0  0  0  0  0  0
   36.5840   28.5290   32.6050 N   0  0  0  0  0  0  0  0  0  0  0  0
   36.2480   28.5470   33.8920 C   0  0  0  0  0  0  0  0  0  0  0  0
   36.8500   27.7530   34.7730 N   0  0  0  0  0  0  0  0  0  0  0  0
   38.9750   26.2100   32.6240 H   0  0  0  0  0  0  0  0  0  0  0  0
   37.8160   27.7030   31.0770 H   0  0  0  0  0  0  0  0  0  0  0  0
   35.1950   29.4620   34.3260 C   0  0  0  0  0  0  0  0  0  0  0  0
   33.8930   29.3710   33.8770 C   0  0  0  0  0  0  0  0  0  0  0  0
   33.6520   28.5930   33.1810 H   0  0  0  0  0  0  0  0  0  0  0  0
   32.9540   30.2730   34.3330 C   0  0  0  0  0  0  0  0  0  0  0  0
   31.9540   30.1210   33.9220 H   0  0  0  0  0  0  0  0  0  0  0  0
   33.2290   31.2860   35.2280 C   0  0  0  0  0  0  0  0  0  0  0  0
   34.5250   31.3710   35.6700 C   0  0  0  0  0  0  0  0  0  0  0  0
   35.4620   30.4780   35.2210 C   0  0  0  0  0  0  0  0  0  0  0  0
   36.4800   30.5740   35.5910 H   0  0  0  0  0  0  0  0  0  0  0  0
   34.9280   32.6530   36.8200 S   0  0  0  0  0  0  0  0  0  0  0  0
   33.4320   33.5670   37.1240 C   0  0  0  0  0  0  0  0  0  0  0  0
   33.4980   34.6210   37.9930 C   0  0  0  0  0  0  0  0  0  0  0  0
   34.4320   34.8820   38.4720 H   0  0  0  0  0  0  0  0  0  0  0  0
   32.3820   35.3720   38.2760 C   0  0  0  0  0  0  0  0  0  0  0  0
   32.4650   36.1840   38.9550 H   0  0  0  0  0  0  0  0  0  0  0  0
   31.2210   35.0240   37.6620 C   0  0  0  0  0  0  0  0  0  0  0  0
   30.3280   35.5930   37.8620 H   0  0  0  0  0  0  0  0  0  0  0  0
   31.2000   33.9530   36.7920 C   0  0  0  0  0  0  0  0  0  0  0  0
   30.2190   33.7410   36.3390 H   0  0  0  0  0  0  0  0  0  0  0  0
   32.2900   33.1690   36.4750 C   0  0  0  0  0  0  0  0  0  0  0  0
   32.1320   32.1050   35.5720 N   0  0  0  0  0  0  0  0  0  0  0  0
   31.1820   31.9480   35.1720 H   0  0  0  0  0  0  0  0  0  0  0  0
   38.7220   25.7840   35.4150 S   0  0  0  0  0  0  0  0  0  0  0  0
   37.9130   23.4900   36.5920 N   0  0  0  0  0  0  0  0  0  0  0  0
   38.0490   24.0810   35.2800 C   0  0  2  0  0  0  0  0  0  0  0  0
   39.0320   23.2440   34.4980 C   0  0  0  0  0  0  0  0  0  0  0  0
   39.2010   21.9650   35.0820 O   0  0  0  0  0  0  0  0  0  0  0  0
   39.8860   22.2110   36.2710 C   0  0  0  0  0  0  0  0  0  0  0  0
   39.2240   23.2540   37.1280 C   0  0  2  0  0  0  0  0  0  0  0  0
   37.3330   24.1580   37.1540 H   0  0  0  0  0  0  0  0  0  0  0  0
   37.0620   24.1640   34.7920 H   0  0  0  0  0  0  0  0  0  0  0  0
   38.5750   23.0690   33.5010 H   0  0  0  0  0  0  0  0  0  0  0  0
   39.9960   23.7510   34.3550 H   0  0  0  0  0  0  0  0  0  0  0  0
   40.9080   22.5450   35.9570 H   0  0  0  0  0  0  0  0  0  0  0  0
   39.9680   21.2530   36.8270 H   0  0  0  0  0  0  0  0  0  0  0  0
   39.8680   24.1600   37.1530 H   0  0  0  0  0  0  0  0  0  0  0  0
   39.0850   22.7830   38.4470 O   0  0  0  0  0  0  0  0  0  0  0  0
   38.1310   22.6850   38.6940 H   0  0  0  0  0  0  0  0  0  0  0  0
  1  6  1  0  0  0  0
  1 31  1  0  0  0  0
  2  1  2  0  0  0  0
  3  4  2  0  0  0  0
  3  2  1  0  0  0  0
  4  5  1  0  0  0  0
  5  9  1  0  0  0  0
  5  6  2  0  0  0  0
  7  2  1  0  0  0  0
  8  3  1  0  0  0  0
  9 16  1  0  0  0  0
 10  9  2  0  0  0  0
 10 12  1  0  0  0  0
 11 10  1  0  0  0  0
 12 14  2  0  0  0  0
 13 12  1  0  0  0  0
 14 29  1  0  0  0  0
 14 15  1  0  0  0  0
 15 18  1  0  0  0  0
 16 17  1  0  0  0  0
 16 15  2  0  0  0  0
 18 19  1  0  0  0  0
 19 20  1  0  0  0  0
 20 22  2  0  0  0  0
 20 21  1  0  0  0  0
 22 23  1  0  0  0  0
 24 25  1  0  0  0  0
 24 22  1  0  0  0  0
 26 24  2  0  0  0  0
 27 26  1  0  0  0  0
 28 26  1  0  0  0  0
 28 19  2  0  0  0  0
 29 28  1  0  0  0  0
 30 29  1  0  0  0  0
 32 37  1  0  0  0  0
 32 38  1  0  0  0  0
 33 39  1  6  0  0  0
 33 31  1  0  0  0  0
 33 32  1  0  0  0  0
 34 35  1  0  0  0  0
 34 33  1  0  0  0  0
 35 36  1  0  0  0  0
 36 43  1  0  0  0  0
 36 37  1  0  0  0  0
 37 44  1  6  0  0  0
 37 45  1  0  0  0  0
 40 34  1  0  0  0  0
 41 34  1  0  0  0  0
 42 36  1  0  0  0  0
 45 46  1  0  0  0  0
M  END
>  <minimizedAffinity>
-6.67642117

$$$$

 OpenBabel03272502193D

 46 50  0  0  1  0  0  0  0  0999 V2000
   34.3770   29.5480   33.1730 C   0  0  0  0  0  0  0  0  0  0  0  0
   34.4690   30.2770   31.9680 C   0  0  0  0  0  0  0  0  0  0  0  0
   35.5840   30.0670   31.1570 C   0  0  0  0  0  0  0  0  0  0  0  0
   36.5340   29.1520   31.5880 N   0  0  0  0  0  0  0  0  0  0  0  0
   36.3990   28.4890   32.7330 C   0  0  0  0  0  0  0  0  0  0  0  0
   35.3420   28.6780   33.5180 N   0  0  0  0  0  0  0  0  0  0  0  0
   33.7560   30.9900   31.6070 H   0  0  0  0  0  0  0  0  0  0  0  0
   35.7310   30.5800   30.2280 H   0  0  0  0  0  0  0  0  0  0  0  0
   37.4420   27.5420   33.1190 C   0  0  0  0  0  0  0  0  0  0  0  0
   38.6000   27.3660   32.3890 C   0  0  0  0  0  0  0  0  0  0  0  0
   38.7320   27.9520   31.5020 H   0  0  0  0  0  0  0  0  0  0  0  0
   39.5390   26.4510   32.8170 C   0  0  0  0  0  0  0  0  0  0  0  0
   40.4190   26.3820   32.1750 H   0  0  0  0  0  0  0  0  0  0  0  0
   39.4010   25.6790   33.9520 C   0  0  0  0  0  0  0  0  0  0  0  0
   38.2480   25.8590   34.6740 C   0  0  0  0  0  0  0  0  0  0  0  0
   37.3120   26.7660   34.2530 C   0  0  0  0  0  0  0  0  0  0  0  0
   36.4090   26.8850   34.8480 H   0  0  0  0  0  0  0  0  0  0  0  0
   38.0250   24.8940   36.1380 S   0  0  0  0  0  0  0  0  0  0  0  0
   39.4650   23.8610   36.3050 C   0  0  0  0  0  0  0  0  0  0  0  0
   39.5200   23.0160   37.3780 C   0  0  0  0  0  0  0  0  0  0  0  0
   38.7100   22.9840   38.0950 H   0  0  0  0  0  0  0  0  0  0  0  0
   40.6020   22.1910   37.5710 C   0  0  0  0  0  0  0  0  0  0  0  0
   40.6150   21.5450   38.4140 H   0  0  0  0  0  0  0  0  0  0  0  0
   41.6060   22.2500   36.6570 C   0  0  0  0  0  0  0  0  0  0  0  0
   42.4680   21.6150   36.7790 H   0  0  0  0  0  0  0  0  0  0  0  0
   41.5080   23.1180   35.5890 C   0  0  0  0  0  0  0  0  0  0  0  0
   42.3650   23.1020   34.8970 H   0  0  0  0  0  0  0  0  0  0  0  0
   40.4460   23.9660   35.3500 C   0  0  0  0  0  0  0  0  0  0  0  0
   40.4740   24.8010   34.2220 N   0  0  0  0  0  0  0  0  0  0  0  0
   41.3080   24.7460   33.6010 H   0  0  0  0  0  0  0  0  0  0  0  0
   32.9090   29.9220   34.0910 S   0  0  0  0  0  0  0  0  0  0  0  0
   34.0620   32.1550   35.0880 N   0  0  0  0  0  0  0  0  0  0  0  0
   32.8220   31.7120   34.4900 C   0  0  2  0  0  0  0  0  0  0  0  0
   31.7240   31.9190   35.5040 C   0  0  0  0  0  0  0  0  0  0  0  0
   32.1210   32.8210   36.5210 O   0  0  0  0  0  0  0  0  0  0  0  0
   33.0850   32.1250   37.2500 C   0  0  0  0  0  0  0  0  0  0  0  0
   34.1820   31.5620   36.3890 C   0  0  2  0  0  0  0  0  0  0  0  0
   34.8210   31.8810   34.4190 H   0  0  0  0  0  0  0  0  0  0  0  0
   32.6430   32.2450   33.5400 H   0  0  0  0  0  0  0  0  0  0  0  0
   30.8850   32.4110   34.9670 H   0  0  0  0  0  0  0  0  0  0  0  0
   31.3580   30.9730   35.9270 H   0  0  0  0  0  0  0  0  0  0  0  0
   32.5250   31.3040   37.7670 H   0  0  0  0  0  0  0  0  0  0  0  0
   33.5090   32.8150   38.0090 H   0  0  0  0  0  0  0  0  0  0  0  0
   34.1030   30.4530   36.3870 H   0  0  0  0  0  0  0  0  0  0  0  0
   35.4400   31.9070   36.9190 O   0  0  0  0  0  0  0  0  0  0  0  0
   35.9380   32.5010   36.3020 H   0  0  0  0  0  0  0  0  0  0  0  0
  1  6  1  0  0  0  0
  1 31  1  0  0  0  0
  2  1  2  0  0  0  0
  3  4  2  0  0  0  0
  3  2  1  0  0  0  0
  4  5  1  0  0  0  0
  5  9  1  0  0  0  0
  5  6  2  0  0  0  0
  7  2  1  0  0  0  0
  8  3  1  0  0  0  0
  9 16  1  0  0  0  0
 10 12  1  0  0  0  0
 10  9  2  0  0  0  0
 11 10  1  0  0  0  0
 12 14  2  0  0  0  0
 13 12  1  0  0  0  0
 14 29  1  0  0  0  0
 14 15  1  0  0  0  0
 15 18  1  0  0  0  0
 16 15  2  0  0  0  0
 16 17  1  0  0  0  0
 18 19  1  0  0  0  0
 19 20  1  0  0  0  0
 20 22  2  0  0  0  0
 20 21  1  0  0  0  0
 22 23  1  0  0  0  0
 24 25  1  0  0  0  0
 24 22  1  0  0  0  0
 26 24  2  0  0  0  0
 27 26  1  0  0  0  0
 28 26  1  0  0  0  0
 28 19  2  0  0  0  0
 29 28  1  0  0  0  0
 30 29  1  0  0  0  0
 31 33  1  0  0  0  0
 32 37  1  0  0  0  0
 33 39  1  6  0  0  0
 33 32  1  0  0  0  0
 33 34  1  0  0  0  0
 34 41  1  0  0  0  0
 34 35  1  0  0  0  0
 35 36  1  0  0  0  0
 36 42  1  0  0  0  0
 36 43  1  0  0  0  0
 37 44  1  6  0  0  0
 37 45  1  0  0  0  0
 37 36  1  0  0  0  0
 38 32  1  0  0  0  0
 40 34  1  0  0  0  0
 46 45  1  0  0  0  0
M  END
>  <minimizedAffinity>
-6.39759159

$$$$

 OpenBabel03272502193D

 46 50  0  0  1  0  0  0  0  0999 V2000
   37.5210   24.3950   33.0810 C   0  0  0  0  0  0  0  0  0  0  0  0
   36.9190   23.6080   32.0760 C   0  0  0  0  0  0  0  0  0  0  0  0
   36.0970   24.2460   31.1470 C   0  0  0  0  0  0  0  0  0  0  0  0
   35.9210   25.6170   31.2730 N   0  0  0  0  0  0  0  0  0  0  0  0
   36.5120   26.3130   32.2410 C   0  0  0  0  0  0  0  0  0  0  0  0
   37.3000   25.7190   33.1330 N   0  0  0  0  0  0  0  0  0  0  0  0
   37.0330   22.5510   31.9500 H   0  0  0  0  0  0  0  0  0  0  0  0
   35.6030   23.7230   30.3540 H   0  0  0  0  0  0  0  0  0  0  0  0
   36.2790   27.7530   32.3080 C   0  0  0  0  0  0  0  0  0  0  0  0
   36.1690   28.5460   31.1830 C   0  0  0  0  0  0  0  0  0  0  0  0
   36.2610   28.0780   30.2240 H   0  0  0  0  0  0  0  0  0  0  0  0
   35.9490   29.9000   31.3280 C   0  0  0  0  0  0  0  0  0  0  0  0
   35.8780   30.4430   30.3830 H   0  0  0  0  0  0  0  0  0  0  0  0
   35.8270   30.5360   32.5460 C   0  0  0  0  0  0  0  0  0  0  0  0
   35.9360   29.7420   33.6600 C   0  0  0  0  0  0  0  0  0  0  0  0
   36.1560   28.3970   33.5220 C   0  0  0  0  0  0  0  0  0  0  0  0
   36.2370   27.7960   34.4250 H   0  0  0  0  0  0  0  0  0  0  0  0
   35.7860   30.5090   35.2450 S   0  0  0  0  0  0  0  0  0  0  0  0
   35.5110   32.2440   34.9590 C   0  0  0  0  0  0  0  0  0  0  0  0
   35.3630   33.0530   36.0520 C   0  0  0  0  0  0  0  0  0  0  0  0
   35.4120   32.6410   37.0510 H   0  0  0  0  0  0  0  0  0  0  0  0
   35.1470   34.4020   35.9070 C   0  0  0  0  0  0  0  0  0  0  0  0
   35.0360   35.0030   36.7750 H   0  0  0  0  0  0  0  0  0  0  0  0
   35.0890   34.8950   34.6420 C   0  0  0  0  0  0  0  0  0  0  0  0
   34.9220   35.9480   34.4930 H   0  0  0  0  0  0  0  0  0  0  0  0
   35.2450   34.0420   33.5680 C   0  0  0  0  0  0  0  0  0  0  0  0
   35.1830   34.5240   32.5790 H   0  0  0  0  0  0  0  0  0  0  0  0
   35.4620   32.6830   33.6590 C   0  0  0  0  0  0  0  0  0  0  0  0
   35.6030   31.9280   32.4830 N   0  0  0  0  0  0  0  0  0  0  0  0
   35.5370   32.4340   31.5750 H   0  0  0  0  0  0  0  0  0  0  0  0
   38.5340   23.4460   34.1810 S   0  0  0  0  0  0  0  0  0  0  0  0
   40.0030   23.7060   36.4350 N   0  0  0  0  0  0  0  0  0  0  0  0
   39.1050   24.4680   35.5960 C   0  0  2  0  0  0  0  0  0  0  0  0
   37.9030   24.8380   36.4290 C   0  0  0  0  0  0  0  0  0  0  0  0
   38.1730   24.7140   37.8130 O   0  0  0  0  0  0  0  0  0  0  0  0
   38.2820   23.3400   38.0270 C   0  0  0  0  0  0  0  0  0  0  0  0
   39.2540   22.6740   37.0930 C   0  0  2  0  0  0  0  0  0  0  0  0
   40.7610   23.3510   35.8030 H   0  0  0  0  0  0  0  0  0  0  0  0
   39.6270   25.3420   35.1700 H   0  0  0  0  0  0  0  0  0  0  0  0
   37.7140   25.9180   36.2480 H   0  0  0  0  0  0  0  0  0  0  0  0
   37.0030   24.2750   36.1430 H   0  0  0  0  0  0  0  0  0  0  0  0
   37.2470   22.9380   37.8770 H   0  0  0  0  0  0  0  0  0  0  0  0
   38.5900   23.1770   39.0810 H   0  0  0  0  0  0  0  0  0  0  0  0
   38.6900   22.0160   36.3970 H   0  0  0  0  0  0  0  0  0  0  0  0
   40.1520   21.8690   37.8200 O   0  0  0  0  0  0  0  0  0  0  0  0
   41.0790   22.2100   37.7460 H   0  0  0  0  0  0  0  0  0  0  0  0
  1  6  1  0  0  0  0
  1 31  1  0  0  0  0
  2  1  2  0  0  0  0
  3  4  2  0  0  0  0
  3  2  1  0  0  0  0
  4  5  1  0  0  0  0
  5  9  1  0  0  0  0
  5  6  2  0  0  0  0
  7  2  1  0  0  0  0
  8  3  1  0  0  0  0
  9 16  1  0  0  0  0
 10 12  1  0  0  0  0
 10  9  2  0  0  0  0
 11 10  1  0  0  0  0
 12 14  2  0  0  0  0
 13 12  1  0  0  0  0
 14 15  1  0  0  0  0
 15 18  1  0  0  0  0
 16 15  2  0  0  0  0
 16 17  1  0  0  0  0
 19 18  1  0  0  0  0
 19 20  1  0  0  0  0
 20 21  1  0  0  0  0
 22 20  2  0  0  0  0
 22 23  1  0  0  0  0
 24 22  1  0  0  0  0
 25 24  1  0  0  0  0
 26 28  1  0  0  0  0
 26 24  2  0  0  0  0
 27 26  1  0  0  0  0
 28 19  2  0  0  0  0
 29 14  1  0  0  0  0
 29 28  1  0  0  0  0
 30 29  1  0  0  0  0
 31 33  1  0  0  0  0
 32 37  1  0  0  0  0
 33 39  1  6  0  0  0
 33 34  1  0  0  0  0
 33 32  1  0  0  0  0
 34 35  1  0  0  0  0
 35 36  1  0  0  0  0
 36 43  1  0  0  0  0
 37 44  1  6  0  0  0
 37 45  1  0  0  0  0
 37 36  1  0  0  0  0
 38 32  1  0  0  0  0
 40 34  1  0  0  0  0
 41 34  1  0  0  0  0
 42 36  1  0  0  0  0
 46 45  1  0  0  0  0
M  END
>  <minimizedAffinity>
-6.38843107

$$$$

 OpenBabel03272502193D

 46 50  0  0  1  0  0  0  0  0999 V2000
   38.8310   25.6350   33.8470 C   0  0  0  0  0  0  0  0  0  0  0  0
   39.6110   24.9620   32.8830 C   0  0  0  0  0  0  0  0  0  0  0  0
   39.5020   25.3650   31.5520 C   0  0  0  0  0  0  0  0  0  0  0  0
   38.6300   26.4040   31.2610 N   0  0  0  0  0  0  0  0  0  0  0  0
   37.9170   27.0070   32.2080 C   0  0  0  0  0  0  0  0  0  0  0  0
   38.0100   26.6340   33.4820 N   0  0  0  0  0  0  0  0  0  0  0  0
   40.2920   24.1570   33.0730 H   0  0  0  0  0  0  0  0  0  0  0  0
   40.0580   24.9060   30.7600 H   0  0  0  0  0  0  0  0  0  0  0  0
   37.0200   28.0930   31.8230 C   0  0  0  0  0  0  0  0  0  0  0  0
   37.3330   29.0070   30.8370 C   0  0  0  0  0  0  0  0  0  0  0  0
   38.2760   28.9090   30.3380 H   0  0  0  0  0  0  0  0  0  0  0  0
   36.4340   30.0070   30.5300 C   0  0  0  0  0  0  0  0  0  0  0  0
   36.7710   30.6810   29.7390 H   0  0  0  0  0  0  0  0  0  0  0  0
   35.2130   30.1640   31.1510 C   0  0  0  0  0  0  0  0  0  0  0  0
   34.9080   29.2520   32.1300 C   0  0  0  0  0  0  0  0  0  0  0  0
   35.7970   28.2570   32.4400 C   0  0  0  0  0  0  0  0  0  0  0  0
   35.5240   27.5500   33.2210 H   0  0  0  0  0  0  0  0  0  0  0  0
   33.3520   29.4100   32.9570 S   0  0  0  0  0  0  0  0  0  0  0  0
   32.5280   30.8190   32.2490 C   0  0  0  0  0  0  0  0  0  0  0  0
   31.2910   31.1420   32.7350 C   0  0  0  0  0  0  0  0  0  0  0  0
   30.8400   30.5540   33.5230 H   0  0  0  0  0  0  0  0  0  0  0  0
   30.5960   32.2170   32.2360 C   0  0  0  0  0  0  0  0  0  0  0  0
   29.6380   32.4420   32.6340 H   0  0  0  0  0  0  0  0  0  0  0  0
   31.1850   32.9380   31.2460 C   0  0  0  0  0  0  0  0  0  0  0  0
   30.6660   33.7870   30.8330 H   0  0  0  0  0  0  0  0  0  0  0  0
   32.4340   32.5770   30.7850 C   0  0  0  0  0  0  0  0  0  0  0  0
   32.8370   33.2150   29.9830 H   0  0  0  0  0  0  0  0  0  0  0  0
   33.1720   31.5080   31.2520 C   0  0  0  0  0  0  0  0  0  0  0  0
   34.4350   31.2500   30.6940 N   0  0  0  0  0  0  0  0  0  0  0  0
   34.7680   31.8840   29.9380 H   0  0  0  0  0  0  0  0  0  0  0  0
   39.0780   25.0120   35.4870 S   0  0  0  0  0  0  0  0  0  0  0  0
   38.5290   22.6560   36.6910 N   0  0  0  0  0  0  0  0  0  0  0  0
   39.1420   23.1770   35.4910 C   0  0  2  0  0  0  0  0  0  0  0  0
   40.5910   22.7540   35.4940 C   0  0  0  0  0  0  0  0  0  0  0  0
   40.8140   21.6820   36.3910 O   0  0  0  0  0  0  0  0  0  0  0  0
   40.6570   22.2460   37.6570 C   0  0  0  0  0  0  0  0  0  0  0  0
   39.3590   22.9890   37.8140 C   0  0  2  0  0  0  0  0  0  0  0  0
   37.5670   23.0710   36.7300 H   0  0  0  0  0  0  0  0  0  0  0  0
   38.5900   22.8350   34.5980 H   0  0  0  0  0  0  0  0  0  0  0  0
   40.8070   22.3560   34.4800 H   0  0  0  0  0  0  0  0  0  0  0  0
   41.2740   23.5920   35.6910 H   0  0  0  0  0  0  0  0  0  0  0  0
   41.5290   22.9380   37.7800 H   0  0  0  0  0  0  0  0  0  0  0  0
   40.7260   21.4320   38.4090 H   0  0  0  0  0  0  0  0  0  0  0  0
   39.5760   24.0750   37.9050 H   0  0  0  0  0  0  0  0  0  0  0  0
   38.7020   22.5770   38.9890 O   0  0  0  0  0  0  0  0  0  0  0  0
   37.8460   22.1240   38.7810 H   0  0  0  0  0  0  0  0  0  0  0  0
  1 31  1  0  0  0  0
  2  7  1  0  0  0  0
  2  1  2  0  0  0  0
  3  2  1  0  0  0  0
  4  3  2  0  0  0  0
  4  5  1  0  0  0  0
  5  6  2  0  0  0  0
  6  1  1  0  0  0  0
  8  3  1  0  0  0  0
  9  5  1  0  0  0  0
  9 16  1  0  0  0  0
 10  9  2  0  0  0  0
 11 10  1  0  0  0  0
 12 10  1  0  0  0  0
 12 14  2  0  0  0  0
 13 12  1  0  0  0  0
 14 15  1  0  0  0  0
 15 16  2  0  0  0  0
 15 18  1  0  0  0  0
 16 17  1  0  0  0  0
 19 20  1  0  0  0  0
 19 18  1  0  0  0  0
 20 21  1  0  0  0  0
 22 23  1  0  0  0  0
 22 20  2  0  0  0  0
 24 22  1  0  0  0  0
 25 24  1  0  0  0  0
 26 24  2  0  0  0  0
 26 28  1  0  0  0  0
 27 26  1  0  0  0  0
 28 19  2  0  0  0  0
 29 14  1  0  0  0  0
 29 28  1  0  0  0  0
 30 29  1  0  0  0  0
 31 33  1  0  0  0  0
 32 38  1  0  0  0  0
 32 37  1  0  0  0  0
 33 39  1  6  0  0  0
 33 34  1  0  0  0  0
 33 32  1  0  0  0  0
 34 41  1  0  0  0  0
 34 35  1  0  0  0  0
 35 36  1  0  0  0  0
 36 42  1  0  0  0  0
 36 37  1  0  0  0  0
 36 43  1  0  0  0  0
 37 44  1  1  0  0  0
 37 45  1  0  0  0  0
 40 34  1  0  0  0  0
 46 45  1  0  0  0  0
M  END
>  <minimizedAffinity>
-6.30965519

$$$$

 OpenBabel03272502193D

 46 50  0  0  1  0  0  0  0  0999 V2000
   37.1070   26.3090   33.3310 C   0  0  0  0  0  0  0  0  0  0  0  0
   36.6450   26.1810   32.0040 C   0  0  0  0  0  0  0  0  0  0  0  0
   35.8190   27.1840   31.4970 C   0  0  0  0  0  0  0  0  0  0  0  0
   35.5020   28.2450   32.3320 N   0  0  0  0  0  0  0  0  0  0  0  0
   35.9640   28.3190   33.5780 C   0  0  0  0  0  0  0  0  0  0  0  0
   36.7540   27.3710   34.0760 N   0  0  0  0  0  0  0  0  0  0  0  0
   36.8690   25.3770   31.3330 H   0  0  0  0  0  0  0  0  0  0  0  0
   35.4250   27.1630   30.5010 H   0  0  0  0  0  0  0  0  0  0  0  0
   35.5870   29.4670   34.3960 C   0  0  0  0  0  0  0  0  0  0  0  0
   36.4970   30.1780   35.1530 C   0  0  0  0  0  0  0  0  0  0  0  0
   37.5220   29.8680   35.1340 H   0  0  0  0  0  0  0  0  0  0  0  0
   36.0630   31.2520   35.9020 C   0  0  0  0  0  0  0  0  0  0  0  0
   36.8540   31.7500   36.4670 H   0  0  0  0  0  0  0  0  0  0  0  0
   34.7520   31.6790   35.9510 C   0  0  0  0  0  0  0  0  0  0  0  0
   33.8530   30.9690   35.1970 C   0  0  0  0  0  0  0  0  0  0  0  0
   34.2780   29.9010   34.4510 C   0  0  0  0  0  0  0  0  0  0  0  0
   33.5390   29.3590   33.8640 H   0  0  0  0  0  0  0  0  0  0  0  0
   32.1600   31.4770   35.2250 S   0  0  0  0  0  0  0  0  0  0  0  0
   32.0580   32.8850   36.3090 C   0  0  0  0  0  0  0  0  0  0  0  0
   30.8300   33.4590   36.4910 C   0  0  0  0  0  0  0  0  0  0  0  0
   29.9580   33.0630   35.9880 H   0  0  0  0  0  0  0  0  0  0  0  0
   30.6770   34.5500   37.3130 C   0  0  0  0  0  0  0  0  0  0  0  0
   29.7100   34.9720   37.4340 H   0  0  0  0  0  0  0  0  0  0  0  0
   31.7870   35.0280   37.9320 C   0  0  0  0  0  0  0  0  0  0  0  0
   31.7010   35.8820   38.5830 H   0  0  0  0  0  0  0  0  0  0  0  0
   33.0060   34.4180   37.7200 C   0  0  0  0  0  0  0  0  0  0  0  0
   33.8530   34.8700   38.2600 H   0  0  0  0  0  0  0  0  0  0  0  0
   33.2140   33.3230   36.9050 C   0  0  0  0  0  0  0  0  0  0  0  0
   34.5100   32.7980   36.7770 N   0  0  0  0  0  0  0  0  0  0  0  0
   35.2740   33.2640   37.3100 H   0  0  0  0  0  0  0  0  0  0  0  0
   38.1430   24.9620   33.8310 S   0  0  0  0  0  0  0  0  0  0  0  0
   39.6010   24.1010   35.9380 N   0  0  0  0  0  0  0  0  0  0  0  0
   38.8180   25.2410   35.5150 C   0  0  2  0  0  0  0  0  0  0  0  0
   37.6590   25.3820   36.4720 C   0  0  0  0  0  0  0  0  0  0  0  0
   37.8920   24.6720   37.6750 O   0  0  0  0  0  0  0  0  0  0  0  0
   37.8240   23.3280   37.3070 C   0  0  0  0  0  0  0  0  0  0  0  0
   38.7180   22.9890   36.1470 C   0  0  2  0  0  0  0  0  0  0  0  0
   40.3170   23.9460   35.1880 H   0  0  0  0  0  0  0  0  0  0  0  0
   39.4510   26.1430   35.4630 H   0  0  0  0  0  0  0  0  0  0  0  0
   37.6100   26.4560   36.7540 H   0  0  0  0  0  0  0  0  0  0  0  0
   36.7000   25.0980   36.0170 H   0  0  0  0  0  0  0  0  0  0  0  0
   36.7490   23.1500   37.0460 H   0  0  0  0  0  0  0  0  0  0  0  0
   38.0930   22.7140   38.1920 H   0  0  0  0  0  0  0  0  0  0  0  0
   38.0860   22.7460   35.2660 H   0  0  0  0  0  0  0  0  0  0  0  0
   39.4970   21.8550   36.4490 O   0  0  0  0  0  0  0  0  0  0  0  0
   40.4600   22.0830   36.4860 H   0  0  0  0  0  0  0  0  0  0  0  0
  1 31  1  0  0  0  0
  1  6  1  0  0  0  0
  2  1  2  0  0  0  0
  3  2  1  0  0  0  0
  3  4  2  0  0  0  0
  4  5  1  0  0  0  0
  5  6  2  0  0  0  0
  5  9  1  0  0  0  0
  7  2  1  0  0  0  0
  8  3  1  0  0  0  0
  9 16  2  0  0  0  0
  9 10  1  0  0  0  0
 10 12  2  0  0  0  0
 11 10  1  0  0  0  0
 12 14  1  0  0  0  0
 12 13  1  0  0  0  0
 14 29  1  0  0  0  0
 15 18  1  0  0  0  0
 15 14  2  0  0  0  0
 16 15  1  0  0  0  0
 17 16  1  0  0  0  0
 18 19  1  0  0  0  0
 19 20  2  0  0  0  0
 19 28  1  0  0  0  0
 20 22  1  0  0  0  0
 21 20  1  0  0  0  0
 22 23  1  0  0  0  0
 22 24  2  0  0  0  0
 24 25  1  0  0  0  0
 26 24  1  0  0  0  0
 26 27  1  0  0  0  0
 28 26  2  0  0  0  0
 29 28  1  0  0  0  0
 29 30  1  0  0  0  0
 31 33  1  0  0  0  0
 32 37  1  0  0  0  0
 33 39  1  1  0  0  0
 33 32  1  0  0  0  0
 33 34  1  0  0  0  0
 34 40  1  0  0  0  0
 34 35  1  0  0  0  0
 36 35  1  0  0  0  0
 36 43  1  0  0  0  0
 37 44  1  6  0  0  0
 37 45  1  0  0  0  0
 37 36  1  0  0  0  0
 38 32  1  0  0  0  0
 41 34  1  0  0  0  0
 42 36  1  0  0  0  0
 45 46  1  0  0  0  0
M  END
>  <minimizedAffinity>
-6.26539421

$$$$

 OpenBabel03272502193D

 46 50  0  0  1  0  0  0  0  0999 V2000
   35.9370   29.6590   31.8260 C   0  0  0  0  0  0  0  0  0  0  0  0
   36.4440   29.5900   30.5100 C   0  0  0  0  0  0  0  0  0  0  0  0
   37.3860   28.6040   30.2200 C   0  0  0  0  0  0  0  0  0  0  0  0
   37.7660   27.7510   31.2460 N   0  0  0  0  0  0  0  0  0  0  0  0
   37.2570   27.8570   32.4700 C   0  0  0  0  0  0  0  0  0  0  0  0
   36.3580   28.7930   32.7630 N   0  0  0  0  0  0  0  0  0  0  0  0
   36.1720   30.2320   29.6970 H   0  0  0  0  0  0  0  0  0  0  0  0
   37.8200   28.4840   29.2480 H   0  0  0  0  0  0  0  0  0  0  0  0
   37.7080   26.9230   33.4980 C   0  0  0  0  0  0  0  0  0  0  0  0
   37.1260   26.8470   34.7470 C   0  0  0  0  0  0  0  0  0  0  0  0
   36.3100   27.5050   34.9650 H   0  0  0  0  0  0  0  0  0  0  0  0
   37.6080   25.9370   35.6650 C   0  0  0  0  0  0  0  0  0  0  0  0
   37.0850   25.9520   36.6240 H   0  0  0  0  0  0  0  0  0  0  0  0
   38.6570   25.0750   35.4190 C   0  0  0  0  0  0  0  0  0  0  0  0
   39.2310   25.1560   34.1760 C   0  0  0  0  0  0  0  0  0  0  0  0
   38.7560   26.0570   33.2600 C   0  0  0  0  0  0  0  0  0  0  0  0
   39.2340   26.0950   32.2830 H   0  0  0  0  0  0  0  0  0  0  0  0
   40.5780   24.0710   33.8110 S   0  0  0  0  0  0  0  0  0  0  0  0
   40.8590   23.0830   35.2650 C   0  0  0  0  0  0  0  0  0  0  0  0
   41.8670   22.1600   35.2210 C   0  0  0  0  0  0  0  0  0  0  0  0
   42.4650   22.0420   34.3280 H   0  0  0  0  0  0  0  0  0  0  0  0
   42.1400   21.3620   36.3060 C   0  0  0  0  0  0  0  0  0  0  0  0
   42.9280   20.6540   36.2400 H   0  0  0  0  0  0  0  0  0  0  0  0
   41.3730   21.5300   37.4150 C   0  0  0  0  0  0  0  0  0  0  0  0
   41.5620   20.9200   38.2830 H   0  0  0  0  0  0  0  0  0  0  0  0
   40.3680   22.4740   37.4160 C   0  0  0  0  0  0  0  0  0  0  0  0
   39.7950   22.5440   38.3550 H   0  0  0  0  0  0  0  0  0  0  0  0
   40.0530   23.2980   36.3550 C   0  0  0  0  0  0  0  0  0  0  0  0
   39.0010   24.2200   36.4880 N   0  0  0  0  0  0  0  0  0  0  0  0
   38.4930   24.2440   37.3970 H   0  0  0  0  0  0  0  0  0  0  0  0
   34.7530   30.9590   32.0390 S   0  0  0  0  0  0  0  0  0  0  0  0
   33.2240   29.5150   33.7370 N   0  0  0  0  0  0  0  0  0  0  0  0
   33.8830   30.7980   33.6480 C   0  0  2  0  0  0  0  0  0  0  0  0
   32.8200   31.8660   33.7200 C   0  0  0  0  0  0  0  0  0  0  0  0
   31.6090   31.3560   34.2490 O   0  0  0  0  0  0  0  0  0  0  0  0
   31.1230   30.5070   33.2550 C   0  0  0  0  0  0  0  0  0  0  0  0
   32.1350   29.4910   32.8020 C   0  0  2  0  0  0  0  0  0  0  0  0
   33.9640   28.7950   33.5530 H   0  0  0  0  0  0  0  0  0  0  0  0
   34.6490   30.8920   34.4380 H   0  0  0  0  0  0  0  0  0  0  0  0
   33.1800   32.6230   34.4500 H   0  0  0  0  0  0  0  0  0  0  0  0
   32.6580   32.3650   32.7550 H   0  0  0  0  0  0  0  0  0  0  0  0
   30.8310   31.1820   32.4100 H   0  0  0  0  0  0  0  0  0  0  0  0
   30.2180   29.9980   33.6480 H   0  0  0  0  0  0  0  0  0  0  0  0
   32.4350   29.7250   31.7570 H   0  0  0  0  0  0  0  0  0  0  0  0
   31.5680   28.2020   32.8140 O   0  0  0  0  0  0  0  0  0  0  0  0
   32.0160   27.6200   33.4790 H   0  0  0  0  0  0  0  0  0  0  0  0
  1 31  1  0  0  0  0
  1  6  1  0  0  0  0
  2  1  2  0  0  0  0
  3  2  1  0  0  0  0
  3  4  2  0  0  0  0
  4  5  1  0  0  0  0
  5  6  2  0  0  0  0
  5  9  1  0  0  0  0
  7  2  1  0  0  0  0
  8  3  1  0  0  0  0
  9 10  1  0  0  0  0
 10 11  1  0  0  0  0
 10 12  2  0  0  0  0
 12 13  1  0  0  0  0
 14 12  1  0  0  0  0
 14 29  1  0  0  0  0
 15 14  2  0  0  0  0
 16  9  2  0  0  0  0
 16 15  1  0  0  0  0
 17 16  1  0  0  0  0
 18 15  1  0  0  0  0
 18 19  1  0  0  0  0
 19 28  1  0  0  0  0
 20 19  2  0  0  0  0
 20 22  1  0  0  0  0
 21 20  1  0  0  0  0
 22 24  2  0  0  0  0
 23 22  1  0  0  0  0
 24 26  1  0  0  0  0
 24 25  1  0  0  0  0
 26 27  1  0  0  0  0
 28 29  1  0  0  0  0
 28 26  2  0  0  0  0
 29 30  1  0  0  0  0
 31 33  1  0  0  0  0
 33 34  1  0  0  0  0
 33 32  1  0  0  0  0
 33 39  1  1  0  0  0
 34 35  1  0  0  0  0
 34 40  1  0  0  0  0
 36 43  1  0  0  0  0
 36 35  1  0  0  0  0
 37 44  1  6  0  0  0
 37 45  1  0  0  0  0
 37 36  1  0  0  0  0
 37 32  1  0  0  0  0
 38 32  1  0  0  0  0
 41 34  1  0  0  0  0
 42 36  1  0  0  0  0
 45 46  1  0  0  0  0
M  END
>  <minimizedAffinity>
-6.25976038

$$$$

 OpenBabel03272502193D

 46 50  0  0  1  0  0  0  0  0999 V2000
   37.5210   23.7920   32.9440 C   0  0  0  0  0  0  0  0  0  0  0  0
   36.6850   22.8260   32.3450 C   0  0  0  0  0  0  0  0  0  0  0  0
   35.7580   23.2570   31.3970 C   0  0  0  0  0  0  0  0  0  0  0  0
   35.7160   24.6120   31.1030 N   0  0  0  0  0  0  0  0  0  0  0  0
   36.5270   25.4830   31.6960 C   0  0  0  0  0  0  0  0  0  0  0  0
   37.4180   25.0880   32.6030 N   0  0  0  0  0  0  0  0  0  0  0  0
   36.6910   21.7740   32.5480 H   0  0  0  0  0  0  0  0  0  0  0  0
   35.0860   22.5890   30.8960 H   0  0  0  0  0  0  0  0  0  0  0  0
   36.4230   26.8940   31.3340 C   0  0  0  0  0  0  0  0  0  0  0  0
   35.6550   27.7940   32.0450 C   0  0  0  0  0  0  0  0  0  0  0  0
   35.1160   27.4350   32.8980 H   0  0  0  0  0  0  0  0  0  0  0  0
   35.6070   29.1120   31.6400 C   0  0  0  0  0  0  0  0  0  0  0  0
   34.9740   29.7460   32.2640 H   0  0  0  0  0  0  0  0  0  0  0  0
   36.2880   29.6090   30.5490 C   0  0  0  0  0  0  0  0  0  0  0  0
   37.0490   28.7090   29.8460 C   0  0  0  0  0  0  0  0  0  0  0  0
   37.1010   27.3990   30.2430 C   0  0  0  0  0  0  0  0  0  0  0  0
   37.7140   26.7120   29.6640 H   0  0  0  0  0  0  0  0  0  0  0  0
   37.9420   29.2970   28.4380 S   0  0  0  0  0  0  0  0  0  0  0  0
   37.5910   31.0360   28.2890 C   0  0  0  0  0  0  0  0  0  0  0  0
   38.1780   31.7160   27.2580 C   0  0  0  0  0  0  0  0  0  0  0  0
   38.8310   31.2050   26.5630 H   0  0  0  0  0  0  0  0  0  0  0  0
   37.9540   33.0600   27.0820 C   0  0  0  0  0  0  0  0  0  0  0  0
   38.4240   33.5600   26.2720 H   0  0  0  0  0  0  0  0  0  0  0  0
   37.1300   33.6790   27.9680 C   0  0  0  0  0  0  0  0  0  0  0  0
   36.9330   34.7320   27.8570 H   0  0  0  0  0  0  0  0  0  0  0  0
   36.5590   32.9530   28.9930 C   0  0  0  0  0  0  0  0  0  0  0  0
   35.9050   33.5320   29.6650 H   0  0  0  0  0  0  0  0  0  0  0  0
   36.7520   31.6050   29.2140 C   0  0  0  0  0  0  0  0  0  0  0  0
   36.1080   30.9870   30.2980 N   0  0  0  0  0  0  0  0  0  0  0  0
   35.5020   31.5810   30.9020 H   0  0  0  0  0  0  0  0  0  0  0  0
   38.6430   23.0930   34.1230 S   0  0  0  0  0  0  0  0  0  0  0  0
   40.0240   23.7440   36.3530 N   0  0  0  0  0  0  0  0  0  0  0  0
   39.1190   24.3330   35.3910 C   0  0  2  0  0  0  0  0  0  0  0  0
   37.8750   24.7560   36.1310 C   0  0  0  0  0  0  0  0  0  0  0  0
   38.1050   24.8430   37.5260 O   0  0  0  0  0  0  0  0  0  0  0  0
   38.2710   23.5210   37.9360 C   0  0  0  0  0  0  0  0  0  0  0  0
   39.3020   22.7790   37.1320 C   0  0  2  0  0  0  0  0  0  0  0  0
   40.8180   23.3420   35.7990 H   0  0  0  0  0  0  0  0  0  0  0  0
   39.6140   25.1640   34.8590 H   0  0  0  0  0  0  0  0  0  0  0  0
   37.6420   25.7890   35.7940 H   0  0  0  0  0  0  0  0  0  0  0  0
   37.0120   24.1140   35.9060 H   0  0  0  0  0  0  0  0  0  0  0  0
   37.2610   23.0490   37.8190 H   0  0  0  0  0  0  0  0  0  0  0  0
   38.5510   23.5250   39.0100 H   0  0  0  0  0  0  0  0  0  0  0  0
   38.7920   22.0010   36.5240 H   0  0  0  0  0  0  0  0  0  0  0  0
   40.2120   22.1310   37.9900 O   0  0  0  0  0  0  0  0  0  0  0  0
   41.1240   22.5050   37.8930 H   0  0  0  0  0  0  0  0  0  0  0  0
  1 31  1  0  0  0  0
  2  7  1  0  0  0  0
  2  1  2  0  0  0  0
  3  2  1  0  0  0  0
  4  3  2  0  0  0  0
  4  5  1  0  0  0  0
  5  6  2  0  0  0  0
  6  1  1  0  0  0  0
  8  3  1  0  0  0  0
  9  5  1  0  0  0  0
  9 10  1  0  0  0  0
 10 11  1  0  0  0  0
 12 10  2  0  0  0  0
 12 13  1  0  0  0  0
 14 12  1  0  0  0  0
 15 16  1  0  0  0  0
 15 14  2  0  0  0  0
 16  9  2  0  0  0  0
 17 16  1  0  0  0  0
 18 15  1  0  0  0  0
 19 18  1  0  0  0  0
 19 28  1  0  0  0  0
 20 19  2  0  0  0  0
 21 20  1  0  0  0  0
 22 20  1  0  0  0  0
 22 24  2  0  0  0  0
 23 22  1  0  0  0  0
 24 26  1  0  0  0  0
 25 24  1  0  0  0  0
 26 28  2  0  0  0  0
 26 27  1  0  0  0  0
 28 29  1  0  0  0  0
 29 14  1  0  0  0  0
 29 30  1  0  0  0  0
 31 33  1  0  0  0  0
 32 37  1  0  0  0  0
 33 39  1  6  0  0  0
 33 34  1  0  0  0  0
 33 32  1  0  0  0  0
 34 35  1  0  0  0  0
 35 36  1  0  0  0  0
 36 43  1  0  0  0  0
 37 44  1  6  0  0  0
 37 36  1  0  0  0  0
 37 45  1  0  0  0  0
 38 32  1  0  0  0  0
 40 34  1  0  0  0  0
 41 34  1  0  0  0  0
 42 36  1  0  0  0  0
 46 45  1  0  0  0  0
M  END
>  <minimizedAffinity>
-6.18941641

$$$$
