
     RDKit          3D

 37 40  0  0  0  0  0  0  0  0999 V2000
   37.3069   30.1987   51.4362 C   0  0  0  0  0  0  0  0  0  0  0  0
   38.1093   30.7382   50.4131 C   0  0  0  0  0  0  0  0  0  0  0  0
   37.7640   30.4425   49.0762 C   0  0  0  0  0  0  0  0  0  0  0  0
   36.6698   29.6493   48.8614 N   0  0  0  0  0  0  0  0  0  0  0  0
   35.9349   29.1585   49.8899 C   0  0  0  0  0  0  0  0  0  0  0  0
   36.2576   29.4352   51.1510 N   0  0  0  0  0  0  0  0  0  0  0  0
   34.7481   28.2944   49.5480 C   0  0  0  0  0  0  0  0  0  0  0  0
   34.4082   28.4633   48.0882 C   0  0  0  0  0  0  0  0  0  0  0  0
   37.6218   30.4609   52.4483 H   0  0  0  0  0  0  0  0  0  0  0  0
   38.9713   31.3624   50.5646 H   0  0  0  0  0  0  0  0  0  0  0  0
   38.3422   30.8273   48.2281 H   0  0  0  0  0  0  0  0  0  0  0  0
   34.9837   27.2344   49.7684 H   0  0  0  0  0  0  0  0  0  0  0  0
   33.8693   28.5833   50.1613 H   0  0  0  0  0  0  0  0  0  0  0  0
   34.3133   29.5435   47.8511 H   0  0  0  0  0  0  0  0  0  0  0  0
   35.3120   28.1140   47.5150 H   0  0  0  0  0  0  0  0  0  0  0  0
   33.2608   27.6553   47.6681 C   0  0  0  0  0  0  0  0  0  0  0  0
   32.9898   26.4533   48.2909 C   0  0  0  0  0  0  0  0  0  0  0  0
   33.6491   26.1187   49.1026 H   0  0  0  0  0  0  0  0  0  0  0  0
   31.9260   25.6789   47.9191 C   0  0  0  0  0  0  0  0  0  0  0  0
   31.7881   24.7397   48.4700 H   0  0  0  0  0  0  0  0  0  0  0  0
   31.0582   26.0359   46.9101 C   0  0  0  0  0  0  0  0  0  0  0  0
   31.3278   27.2156   46.3021 C   0  0  0  0  0  0  0  0  0  0  0  0
   32.3748   27.9815   46.6651 C   0  0  0  0  0  0  0  0  0  0  0  0
   32.5564   28.9333   46.1432 H   0  0  0  0  0  0  0  0  0  0  0  0
   30.2652   27.7703   44.9825 S   0  0  0  0  0  0  0  0  0  0  0  0
   29.0250   26.5055   44.8075 C   0  0  0  0  0  0  0  0  0  0  0  0
   28.0983   26.7307   43.8412 C   0  0  0  0  0  0  0  0  0  0  0  0
   28.0487   27.5900   43.1845 H   0  0  0  0  0  0  0  0  0  0  0  0
   27.0863   25.8016   43.6249 C   0  0  0  0  0  0  0  0  0  0  0  0
   26.3261   25.9392   42.8659 H   0  0  0  0  0  0  0  0  0  0  0  0
   27.0659   24.6738   44.4125 C   0  0  0  0  0  0  0  0  0  0  0  0
   26.2793   23.9507   44.2451 H   0  0  0  0  0  0  0  0  0  0  0  0
   28.0454   24.5122   45.3792 C   0  0  0  0  0  0  0  0  0  0  0  0
   27.9400   23.5889   45.9470 H   0  0  0  0  0  0  0  0  0  0  0  0
   29.0591   25.4186   45.6132 C   0  0  0  0  0  0  0  0  0  0  0  0
   29.9923   25.1553   46.6124 N   0  0  0  0  0  0  0  0  0  0  0  0
   29.8982   24.2733   47.1604 H   0  0  0  0  0  0  0  0  0  0  0  0
  2  1  2  0
  3  2  1  0
  4  3  2  0
  4  5  1  0
  5  6  2  0
  6  1  1  0
  7  5  1  0
  8  7  1  0
  1  9  1  0
  2 10  1  0
  3 11  1  0
  7 12  1  0
  7 13  1  0
  8 14  1  0
  8 15  1  0
 16 17  2  0
 17 18  1  0
 17 19  1  0
 19 20  1  0
 19 21  2  0
 21 22  1  0
 22 23  2  0
 23 24  1  0
 22 25  1  0
 25 26  1  0
 26 27  2  0
 27 28  1  0
 27 29  1  0
 29 30  1  0
 29 31  2  0
 31 32  1  0
 31 33  1  0
 33 34  1  0
 33 35  2  0
 35 36  1  0
 36 37  1  0
 23 16  1  0
 35 26  1  0
 36 21  1  0
  8 16  1  0
M  ISO  8   9  14  10  14  11  14  12   8  13   8  14   8  15   8  18  16
M  ISO  7  20  16  24  16  28  16  30  16  32  16  34  16  37   5
M  END
>  <DihAtoms>  (1) 
6,7,15,16

>  <DihDeg>  (1) 
-89.99600099601308

$$$$
