
 OpenBabel03272500343D

 34 37  0  0  0  0  0  0  0  0999 V2000
   36.4930   30.5890   46.5700 C   0  0  0  0  0  0  0  0  0  0  0  0
   35.2400   30.0040   46.5290 C   0  0  0  0  0  0  0  0  0  0  0  0
   34.7460   29.7570   47.4400 H   0  0  0  0  0  0  0  0  0  0  0  0
   34.6930   29.7690   45.2850 C   0  0  0  0  0  0  0  0  0  0  0  0
   33.7090   29.3090   45.3220 H   0  0  0  0  0  0  0  0  0  0  0  0
   35.2740   30.0630   44.0700 C   0  0  0  0  0  0  0  0  0  0  0  0
   36.5150   30.6410   44.1870 C   0  0  0  0  0  0  0  0  0  0  0  0
   37.1140   30.9000   45.3790 C   0  0  0  0  0  0  0  0  0  0  0  0
   38.0970   31.3580   45.4350 H   0  0  0  0  0  0  0  0  0  0  0  0
   37.4140   31.0870   42.7150 S   0  0  0  0  0  0  0  0  0  0  0  0
   36.3720   30.6230   41.3480 C   0  0  0  0  0  0  0  0  0  0  0  0
   36.7620   30.8270   40.0740 C   0  0  0  0  0  0  0  0  0  0  0  0
   37.7470   31.2910   39.9060 H   0  0  0  0  0  0  0  0  0  0  0  0
   36.0250   30.5020   38.9540 C   0  0  0  0  0  0  0  0  0  0  0  0
   36.3730   30.6830   37.9590 H   0  0  0  0  0  0  0  0  0  0  0  0
   34.7960   29.9230   39.2120 C   0  0  0  0  0  0  0  0  0  0  0  0
   34.1630   29.6420   38.3760 H   0  0  0  0  0  0  0  0  0  0  0  0
   34.3930   29.7120   40.5160 C   0  0  0  0  0  0  0  0  0  0  0  0
   33.4010   29.2460   40.6320 H   0  0  0  0  0  0  0  0  0  0  0  0
   35.1530   30.0490   41.6110 C   0  0  0  0  0  0  0  0  0  0  0  0
   34.6040   29.7700   42.8650 N   0  0  0  0  0  0  0  0  0  0  0  0
   33.6650   29.3300   42.9610 H   0  0  0  0  0  0  0  0  0  0  0  0
   37.4220   30.2950   50.0910 C   0  0  0  0  0  0  0  0  0  0  0  0
   38.2990   31.3760   50.2760 C   0  0  0  0  0  0  0  0  0  0  0  0
   38.5710   32.2120   49.1800 C   0  0  0  0  0  0  0  0  0  0  0  0
   37.9560   31.9060   48.0040 N   0  0  0  0  0  0  0  0  0  0  0  0
   37.1170   30.8590   47.8600 C   0  0  0  0  0  0  0  0  0  0  0  0
   36.8600   30.0620   48.9080 N   0  0  0  0  0  0  0  0  0  0  0  0
   38.7750   31.5940   51.2320 H   0  0  0  0  0  0  0  0  0  0  0  0
   39.2290   33.0440   49.2750 H   0  0  0  0  0  0  0  0  0  0  0  0
   37.1400   29.4080   51.2730 C   0  0  0  0  0  0  0  0  0  0  0  0
   35.7690   29.1740   51.3570 F   0  0  0  0  0  0  0  0  0  0  0  0
   37.8920   28.2840   51.1390 F   0  0  0  0  0  0  0  0  0  0  0  0
   37.4900   30.1240   52.4210 F   0  0  0  0  0  0  0  0  0  0  0  0
  1 27  1  0  0  0  0
  2  1  1  0  0  0  0
  2  3  1  0  0  0  0
  4  5  1  0  0  0  0
  4  2  2  0  0  0  0
  6  7  2  0  0  0  0
  6  4  1  0  0  0  0
  7  8  1  0  0  0  0
  8  9  1  0  0  0  0
  8  1  2  0  0  0  0
 10  7  1  0  0  0  0
 11 20  1  0  0  0  0
 11 10  1  0  0  0  0
 12 11  2  0  0  0  0
 13 12  1  0  0  0  0
 14 16  2  0  0  0  0
 14 12  1  0  0  0  0
 15 14  1  0  0  0  0
 16 18  1  0  0  0  0
 17 16  1  0  0  0  0
 18 19  1  0  0  0  0
 18 20  2  0  0  0  0
 20 21  1  0  0  0  0
 21 22  1  0  0  0  0
 21  6  1  0  0  0  0
 23 24  1  0  0  0  0
 23 31  1  0  0  0  0
 24 29  1  0  0  0  0
 25 30  1  0  0  0  0
 25 24  2  0  0  0  0
 26 25  1  0  0  0  0
 27 26  2  0  0  0  0
 27 28  1  0  0  0  0
 28 23  2  0  0  0  0
 31 32  1  0  0  0  0
 31 34  1  0  0  0  0
 33 31  1  0  0  0  0
M  END
>  <minimizedAffinity>
-5.78509903

>  <minimizedRMSD>
1.25918126

$$$$
