
 OpenBabel03272500343D

 34 37  0  0  0  0  0  0  0  0999 V2000
   35.9300   30.4190   46.7110 C   0  0  0  0  0  0  0  0  0  0  0  0
   36.4980   30.4710   45.4510 C   0  0  0  0  0  0  0  0  0  0  0  0
   37.5320   30.7110   45.3510 H   0  0  0  0  0  0  0  0  0  0  0  0
   35.6770   30.2040   44.3770 C   0  0  0  0  0  0  0  0  0  0  0  0
   36.1850   30.2610   43.4170 H   0  0  0  0  0  0  0  0  0  0  0  0
   34.3370   29.8880   44.4340 C   0  0  0  0  0  0  0  0  0  0  0  0
   33.8400   29.8550   45.7130 C   0  0  0  0  0  0  0  0  0  0  0  0
   34.5910   30.1070   46.8180 C   0  0  0  0  0  0  0  0  0  0  0  0
   34.1680   30.0730   47.8160 H   0  0  0  0  0  0  0  0  0  0  0  0
   32.1220   29.4630   45.9760 S   0  0  0  0  0  0  0  0  0  0  0  0
   31.4330   29.1920   44.3570 C   0  0  0  0  0  0  0  0  0  0  0  0
   30.1330   28.8710   44.1990 C   0  0  0  0  0  0  0  0  0  0  0  0
   29.5100   28.7820   45.1020 H   0  0  0  0  0  0  0  0  0  0  0  0
   29.5120   28.6430   42.9880 C   0  0  0  0  0  0  0  0  0  0  0  0
   28.4740   28.3900   42.9070 H   0  0  0  0  0  0  0  0  0  0  0  0
   30.3290   28.7640   41.8790 C   0  0  0  0  0  0  0  0  0  0  0  0
   29.9050   28.5970   40.8940 H   0  0  0  0  0  0  0  0  0  0  0  0
   31.6620   29.0920   42.0380 C   0  0  0  0  0  0  0  0  0  0  0  0
   32.2410   29.1680   41.1030 H   0  0  0  0  0  0  0  0  0  0  0  0
   32.2500   29.3140   43.2610 C   0  0  0  0  0  0  0  0  0  0  0  0
   33.6090   29.6370   43.2520 N   0  0  0  0  0  0  0  0  0  0  0  0
   34.1460   29.7050   42.3630 H   0  0  0  0  0  0  0  0  0  0  0  0
   37.3280   30.2140   50.0810 C   0  0  0  0  0  0  0  0  0  0  0  0
   38.3090   31.2190   50.0760 C   0  0  0  0  0  0  0  0  0  0  0  0
   38.4900   31.9710   48.9030 C   0  0  0  0  0  0  0  0  0  0  0  0
   37.6890   31.6660   47.8450 N   0  0  0  0  0  0  0  0  0  0  0  0
   36.7540   30.6930   47.8830 C   0  0  0  0  0  0  0  0  0  0  0  0
   36.5840   29.9750   49.0040 N   0  0  0  0  0  0  0  0  0  0  0  0
   38.9340   31.4390   50.9400 H   0  0  0  0  0  0  0  0  0  0  0  0
   39.2210   32.7440   48.8550 H   0  0  0  0  0  0  0  0  0  0  0  0
   37.1460   29.4160   51.3420 C   0  0  0  0  0  0  0  0  0  0  0  0
   35.7890   29.1610   51.5350 F   0  0  0  0  0  0  0  0  0  0  0  0
   37.9160   28.3000   51.2440 F   0  0  0  0  0  0  0  0  0  0  0  0
   37.5510   30.2240   52.4070 F   0  0  0  0  0  0  0  0  0  0  0  0
  1  8  1  0  0  0  0
  1 27  1  0  0  0  0
  2  1  2  0  0  0  0
  3  2  1  0  0  0  0
  4  6  2  0  0  0  0
  4  2  1  0  0  0  0
  5  4  1  0  0  0  0
  6  7  1  0  0  0  0
  7 10  1  0  0  0  0
  7  8  2  0  0  0  0
  8  9  1  0  0  0  0
 11 10  1  0  0  0  0
 12 11  1  0  0  0  0
 12 13  1  0  0  0  0
 14 12  2  0  0  0  0
 15 14  1  0  0  0  0
 16 18  2  0  0  0  0
 16 14  1  0  0  0  0
 17 16  1  0  0  0  0
 18 20  1  0  0  0  0
 19 18  1  0  0  0  0
 20 11  2  0  0  0  0
 21 20  1  0  0  0  0
 21  6  1  0  0  0  0
 22 21  1  0  0  0  0
 23 31  1  0  0  0  0
 24 23  1  0  0  0  0
 24 29  1  0  0  0  0
 25 24  2  0  0  0  0
 26 27  2  0  0  0  0
 26 25  1  0  0  0  0
 27 28  1  0  0  0  0
 28 23  2  0  0  0  0
 30 25  1  0  0  0  0
 31 32  1  0  0  0  0
 31 34  1  0  0  0  0
 33 31  1  0  0  0  0
M  END
>  <minimizedAffinity>
-5.78567505

>  <minimizedRMSD>
1.73501873

$$$$
