
 OpenBabel03272501543D

 37 40  0  0  0  0  0  0  0  0999 V2000
   33.4130   27.7400   47.5450 C   0  0  0  0  0  0  0  0  0  0  0  0
   32.2140   28.3600   47.2520 C   0  0  0  0  0  0  0  0  0  0  0  0
   32.1370   29.4470   47.3860 H   0  0  0  0  0  0  0  0  0  0  0  0
   31.1340   27.6520   46.8030 C   0  0  0  0  0  0  0  0  0  0  0  0
   30.2230   28.2290   46.5970 H   0  0  0  0  0  0  0  0  0  0  0  0
   31.1610   26.2880   46.6140 C   0  0  0  0  0  0  0  0  0  0  0  0
   32.3380   25.6850   46.9020 C   0  0  0  0  0  0  0  0  0  0  0  0
   33.4050   26.3780   47.3440 C   0  0  0  0  0  0  0  0  0  0  0  0
   34.3430   25.8450   47.5660 H   0  0  0  0  0  0  0  0  0  0  0  0
   32.4780   23.9200   46.6890 S   0  0  0  0  0  0  0  0  0  0  0  0
   30.8860   23.3830   46.1020 C   0  0  0  0  0  0  0  0  0  0  0  0
   30.7710   22.0500   45.8720 C   0  0  0  0  0  0  0  0  0  0  0  0
   31.5440   21.3040   46.0100 H   0  0  0  0  0  0  0  0  0  0  0  0
   29.5670   21.5300   45.4120 C   0  0  0  0  0  0  0  0  0  0  0  0
   29.4290   20.4750   45.2140 H   0  0  0  0  0  0  0  0  0  0  0  0
   28.5230   22.4030   45.2050 C   0  0  0  0  0  0  0  0  0  0  0  0
   27.5850   22.0000   44.8460 H   0  0  0  0  0  0  0  0  0  0  0  0
   28.7150   23.7520   45.4620 C   0  0  0  0  0  0  0  0  0  0  0  0
   27.8300   24.3550   45.2680 H   0  0  0  0  0  0  0  0  0  0  0  0
   29.8990   24.2910   45.9190 C   0  0  0  0  0  0  0  0  0  0  0  0
   29.9820   25.6630   46.1460 N   0  0  0  0  0  0  0  0  0  0  0  0
   29.1390   26.2480   45.9620 H   0  0  0  0  0  0  0  0  0  0  0  0
   34.5530   28.5240   48.0230 C   0  0  0  0  0  0  0  0  0  0  0  0
   34.4880   29.6090   47.7920 H   0  0  0  0  0  0  0  0  0  0  0  0
   35.4760   28.1650   47.4890 H   0  0  0  0  0  0  0  0  0  0  0  0
   34.8240   28.3370   49.4960 C   0  0  0  0  0  0  0  0  0  0  0  0
   35.0430   27.2740   49.7150 H   0  0  0  0  0  0  0  0  0  0  0  0
   33.9190   28.6260   50.0700 H   0  0  0  0  0  0  0  0  0  0  0  0
   37.3210   30.1810   51.5230 C   0  0  0  0  0  0  0  0  0  0  0  0
   38.1540   30.7520   50.5430 C   0  0  0  0  0  0  0  0  0  0  0  0
   37.8520   30.4980   49.1870 C   0  0  0  0  0  0  0  0  0  0  0  0
   36.7660   29.7130   48.9130 N   0  0  0  0  0  0  0  0  0  0  0  0
   35.9990   29.1910   49.9020 C   0  0  0  0  0  0  0  0  0  0  0  0
   36.2820   29.4270   51.1810 N   0  0  0  0  0  0  0  0  0  0  0  0
   37.6030   30.4110   52.5520 H   0  0  0  0  0  0  0  0  0  0  0  0
   39.0110   31.3700   50.7420 H   0  0  0  0  0  0  0  0  0  0  0  0
   38.4560   30.9090   48.3700 H   0  0  0  0  0  0  0  0  0  0  0  0
  1 23  1  0  0  0  0
  2  3  1  0  0  0  0
  2  1  2  0  0  0  0
  4  2  1  0  0  0  0
  5  4  1  0  0  0  0
  6  4  2  0  0  0  0
  6  7  1  0  0  0  0
  7  8  2  0  0  0  0
  8  1  1  0  0  0  0
  8  9  1  0  0  0  0
 10  7  1  0  0  0  0
 11 10  1  0  0  0  0
 12 13  1  0  0  0  0
 12 11  2  0  0  0  0
 14 12  1  0  0  0  0
 15 14  1  0  0  0  0
 16 14  2  0  0  0  0
 16 18  1  0  0  0  0
 17 16  1  0  0  0  0
 18 20  2  0  0  0  0
 19 18  1  0  0  0  0
 20 11  1  0  0  0  0
 20 21  1  0  0  0  0
 21  6  1  0  0  0  0
 22 21  1  0  0  0  0
 23 26  1  0  0  0  0
 24 23  1  0  0  0  0
 25 23  1  0  0  0  0
 26 27  1  0  0  0  0
 26 33  1  0  0  0  0
 26 28  1  0  0  0  0
 29 35  1  0  0  0  0
 30 36  1  0  0  0  0
 30 29  2  0  0  0  0
 31 30  1  0  0  0  0
 32 31  2  0  0  0  0
 32 33  1  0  0  0  0
 33 34  2  0  0  0  0
 34 29  1  0  0  0  0
 37 31  1  0  0  0  0
M  END
>  <minimizedAffinity>
-5.30801725

>  <minimizedRMSD>
0.267350882

$$$$
