
 OpenBabel03272500343D

 34 37  0  0  0  0  0  0  0  0999 V2000
   36.4900   30.5430   46.5890 C   0  0  0  0  0  0  0  0  0  0  0  0
   35.2160   30.0070   46.5520 C   0  0  0  0  0  0  0  0  0  0  0  0
   34.7030   29.8120   47.4670 H   0  0  0  0  0  0  0  0  0  0  0  0
   34.6730   29.7520   45.3110 C   0  0  0  0  0  0  0  0  0  0  0  0
   33.6710   29.3320   45.3520 H   0  0  0  0  0  0  0  0  0  0  0  0
   35.2790   29.9800   44.0940 C   0  0  0  0  0  0  0  0  0  0  0  0
   36.5400   30.5120   44.2060 C   0  0  0  0  0  0  0  0  0  0  0  0
   37.1370   30.7890   45.3950 C   0  0  0  0  0  0  0  0  0  0  0  0
   38.1360   31.2090   45.4490 H   0  0  0  0  0  0  0  0  0  0  0  0
   37.4720   30.8700   42.7310 S   0  0  0  0  0  0  0  0  0  0  0  0
   36.4270   30.4010   41.3680 C   0  0  0  0  0  0  0  0  0  0  0  0
   36.8380   30.5460   40.0920 C   0  0  0  0  0  0  0  0  0  0  0  0
   37.8420   30.9640   39.9200 H   0  0  0  0  0  0  0  0  0  0  0  0
   36.1010   30.2120   38.9760 C   0  0  0  0  0  0  0  0  0  0  0  0
   36.4660   30.3440   37.9780 H   0  0  0  0  0  0  0  0  0  0  0  0
   34.8460   29.6910   39.2390 C   0  0  0  0  0  0  0  0  0  0  0  0
   34.2120   29.4060   38.4050 H   0  0  0  0  0  0  0  0  0  0  0  0
   34.4210   29.5420   40.5440 C   0  0  0  0  0  0  0  0  0  0  0  0
   33.4100   29.1200   40.6630 H   0  0  0  0  0  0  0  0  0  0  0  0
   35.1830   29.8850   41.6370 C   0  0  0  0  0  0  0  0  0  0  0  0
   34.6100   29.6730   42.8920 N   0  0  0  0  0  0  0  0  0  0  0  0
   33.6530   29.2730   42.9920 H   0  0  0  0  0  0  0  0  0  0  0  0
   37.4240   30.2920   50.1120 C   0  0  0  0  0  0  0  0  0  0  0  0
   38.2870   31.3860   50.2880 C   0  0  0  0  0  0  0  0  0  0  0  0
   38.5480   32.2150   49.1840 C   0  0  0  0  0  0  0  0  0  0  0  0
   37.9370   31.8920   48.0110 N   0  0  0  0  0  0  0  0  0  0  0  0
   37.1120   30.8320   47.8760 C   0  0  0  0  0  0  0  0  0  0  0  0
   36.8650   30.0410   48.9320 N   0  0  0  0  0  0  0  0  0  0  0  0
   38.7610   31.6180   51.2410 H   0  0  0  0  0  0  0  0  0  0  0  0
   39.1960   33.0560   49.2720 H   0  0  0  0  0  0  0  0  0  0  0  0
   37.1540   29.4120   51.3020 C   0  0  0  0  0  0  0  0  0  0  0  0
   35.7820   29.1860   51.4050 F   0  0  0  0  0  0  0  0  0  0  0  0
   37.8980   28.2830   51.1630 F   0  0  0  0  0  0  0  0  0  0  0  0
   37.5220   30.1310   52.4420 F   0  0  0  0  0  0  0  0  0  0  0  0
  1 27  1  0  0  0  0
  2  1  1  0  0  0  0
  2  3  1  0  0  0  0
  4  5  1  0  0  0  0
  4  2  2  0  0  0  0
  6  7  2  0  0  0  0
  6  4  1  0  0  0  0
  7  8  1  0  0  0  0
  8  9  1  0  0  0  0
  8  1  2  0  0  0  0
 10  7  1  0  0  0  0
 11 20  1  0  0  0  0
 11 10  1  0  0  0  0
 12 11  2  0  0  0  0
 13 12  1  0  0  0  0
 14 16  2  0  0  0  0
 14 12  1  0  0  0  0
 15 14  1  0  0  0  0
 16 18  1  0  0  0  0
 17 16  1  0  0  0  0
 18 19  1  0  0  0  0
 18 20  2  0  0  0  0
 20 21  1  0  0  0  0
 21 22  1  0  0  0  0
 21  6  1  0  0  0  0
 23 24  1  0  0  0  0
 23 31  1  0  0  0  0
 24 29  1  0  0  0  0
 25 30  1  0  0  0  0
 25 24  2  0  0  0  0
 26 25  1  0  0  0  0
 27 26  2  0  0  0  0
 27 28  1  0  0  0  0
 28 23  2  0  0  0  0
 31 32  1  0  0  0  0
 31 34  1  0  0  0  0
 33 31  1  0  0  0  0
M  END
>  <minimizedAffinity>
-5.78070831

>  <minimizedRMSD>
1.81364334

$$$$
