
     RDKit          3D

 37 40  0  0  0  0  0  0  0  0999 V2000
   37.3069   30.1987   51.4362 C   0  0  0  0  0  0  0  0  0  0  0  0
   38.1093   30.7382   50.4131 C   0  0  0  0  0  0  0  0  0  0  0  0
   37.7640   30.4425   49.0762 C   0  0  0  0  0  0  0  0  0  0  0  0
   36.6698   29.6493   48.8614 N   0  0  0  0  0  0  0  0  0  0  0  0
   35.9349   29.1585   49.8899 C   0  0  0  0  0  0  0  0  0  0  0  0
   36.2576   29.4352   51.1510 N   0  0  0  0  0  0  0  0  0  0  0  0
   34.7481   28.2944   49.5480 C   0  0  0  0  0  0  0  0  0  0  0  0
   34.4082   28.4633   48.0882 C   0  0  0  0  0  0  0  0  0  0  0  0
   37.6218   30.4609   52.4483 H   0  0  0  0  0  0  0  0  0  0  0  0
   38.9713   31.3624   50.5646 H   0  0  0  0  0  0  0  0  0  0  0  0
   38.3422   30.8273   48.2281 H   0  0  0  0  0  0  0  0  0  0  0  0
   34.9837   27.2344   49.7684 H   0  0  0  0  0  0  0  0  0  0  0  0
   33.8693   28.5833   50.1613 H   0  0  0  0  0  0  0  0  0  0  0  0
   34.3133   29.5435   47.8511 H   0  0  0  0  0  0  0  0  0  0  0  0
   35.3120   28.1140   47.5150 H   0  0  0  0  0  0  0  0  0  0  0  0
   33.2608   27.6553   47.6681 C   0  0  0  0  0  0  0  0  0  0  0  0
   32.1331   28.2620   47.1520 C   0  0  0  0  0  0  0  0  0  0  0  0
   32.1156   29.3563   47.0640 H   0  0  0  0  0  0  0  0  0  0  0  0
   31.0479   27.5325   46.7523 C   0  0  0  0  0  0  0  0  0  0  0  0
   30.1965   28.0997   46.3545 H   0  0  0  0  0  0  0  0  0  0  0  0
   31.0002   26.1579   46.8337 C   0  0  0  0  0  0  0  0  0  0  0  0
   32.1085   25.5671   47.3405 C   0  0  0  0  0  0  0  0  0  0  0  0
   33.1797   26.2819   47.7356 C   0  0  0  0  0  0  0  0  0  0  0  0
   34.0594   25.7599   48.1418 H   0  0  0  0  0  0  0  0  0  0  0  0
   32.1498   23.7910   47.4889 S   0  0  0  0  0  0  0  0  0  0  0  0
   30.5779   23.2261   46.8736 C   0  0  0  0  0  0  0  0  0  0  0  0
   30.3948   21.8810   46.8965 C   0  0  0  0  0  0  0  0  0  0  0  0
   31.1028   21.1408   47.2470 H   0  0  0  0  0  0  0  0  0  0  0  0
   29.1994   21.3389   46.4370 C   0  0  0  0  0  0  0  0  0  0  0  0
   29.0093   20.2727   46.4362 H   0  0  0  0  0  0  0  0  0  0  0  0
   28.2356   22.2027   45.9703 C   0  0  0  0  0  0  0  0  0  0  0  0
   27.3057   21.7821   45.6127 H   0  0  0  0  0  0  0  0  0  0  0  0
   28.4939   23.5640   45.9778 C   0  0  0  0  0  0  0  0  0  0  0  0
   27.6691   24.1596   45.5891 H   0  0  0  0  0  0  0  0  0  0  0  0
   29.6708   24.1263   46.4281 C   0  0  0  0  0  0  0  0  0  0  0  0
   29.8242   25.5096   46.3901 N   0  0  0  0  0  0  0  0  0  0  0  0
   29.0390   26.0867   46.0192 H   0  0  0  0  0  0  0  0  0  0  0  0
  2  1  2  0
  3  2  1  0
  4  3  2  0
  4  5  1  0
  5  6  2  0
  6  1  1  0
  7  5  1  0
  8  7  1  0
  1  9  1  0
  2 10  1  0
  3 11  1  0
  7 12  1  0
  7 13  1  0
  8 14  1  0
  8 15  1  0
 16 17  2  0
 17 18  1  0
 17 19  1  0
 19 20  1  0
 19 21  2  0
 21 22  1  0
 22 23  2  0
 23 24  1  0
 22 25  1  0
 25 26  1  0
 26 27  2  0
 27 28  1  0
 27 29  1  0
 29 30  1  0
 29 31  2  0
 31 32  1  0
 31 33  1  0
 33 34  1  0
 33 35  2  0
 35 36  1  0
 36 37  1  0
 23 16  1  0
 35 26  1  0
 36 21  1  0
  8 16  1  0
M  ISO  8   9  14  10  14  11  14  12   8  13   8  14   8  15   8  18  16
M  ISO  7  20  16  24  16  28  16  30  16  32  16  34  16  37   5
M  END
>  <DihAtoms>  (1) 
6,7,15,16

>  <DihDeg>  (1) 
-89.99600099601308

$$$$
