
 OpenBabel03272502173D

 46 50  0  0  1  0  0  0  0  0999 V2000
   37.0230   30.6420   49.1890 C   0  0  0  0  0  0  0  0  0  0  0  0
   37.1470   31.8620   49.8870 C   0  0  0  0  0  0  0  0  0  0  0  0
   37.9500   32.8580   49.3290 C   0  0  0  0  0  0  0  0  0  0  0  0
   38.5760   32.5830   48.1220 N   0  0  0  0  0  0  0  0  0  0  0  0
   38.4260   31.4150   47.5050 C   0  0  0  0  0  0  0  0  0  0  0  0
   37.6640   30.4550   48.0230 N   0  0  0  0  0  0  0  0  0  0  0  0
   36.6790   32.1060   50.8180 H   0  0  0  0  0  0  0  0  0  0  0  0
   38.0970   33.8120   49.7940 H   0  0  0  0  0  0  0  0  0  0  0  0
   39.1180   31.2000   46.2370 C   0  0  0  0  0  0  0  0  0  0  0  0
   40.0680   32.0730   45.7470 C   0  0  0  0  0  0  0  0  0  0  0  0
   40.3030   32.9420   46.3260 H   0  0  0  0  0  0  0  0  0  0  0  0
   40.6780   31.8020   44.5400 C   0  0  0  0  0  0  0  0  0  0  0  0
   41.4150   32.5490   44.2350 H   0  0  0  0  0  0  0  0  0  0  0  0
   40.4010   30.6940   43.7670 C   0  0  0  0  0  0  0  0  0  0  0  0
   39.4550   29.8300   44.2590 C   0  0  0  0  0  0  0  0  0  0  0  0
   38.8460   30.0940   45.4570 C   0  0  0  0  0  0  0  0  0  0  0  0
   38.1000   29.3890   45.8200 H   0  0  0  0  0  0  0  0  0  0  0  0
   39.0650   28.3930   43.3060 S   0  0  0  0  0  0  0  0  0  0  0  0
   40.0780   28.4480   41.8440 C   0  0  0  0  0  0  0  0  0  0  0  0
   39.9490   27.4280   40.9430 C   0  0  0  0  0  0  0  0  0  0  0  0
   39.2520   26.6200   41.1230 H   0  0  0  0  0  0  0  0  0  0  0  0
   40.7000   27.4050   39.7920 C   0  0  0  0  0  0  0  0  0  0  0  0
   40.5760   26.5990   39.1120 H   0  0  0  0  0  0  0  0  0  0  0  0
   41.5680   28.4300   39.5890 C   0  0  0  0  0  0  0  0  0  0  0  0
   42.1710   28.4420   38.6970 H   0  0  0  0  0  0  0  0  0  0  0  0
   41.6650   29.4390   40.5250 C   0  0  0  0  0  0  0  0  0  0  0  0
   42.3930   30.2300   40.2830 H   0  0  0  0  0  0  0  0  0  0  0  0
   40.9360   29.5100   41.6950 C   0  0  0  0  0  0  0  0  0  0  0  0
   41.1330   30.5950   42.5630 N   0  0  0  0  0  0  0  0  0  0  0  0
   41.8330   31.3150   42.2850 H   0  0  0  0  0  0  0  0  0  0  0  0
   35.9740   29.4800   50.0200 S   0  0  0  0  0  0  0  0  0  0  0  0
   33.6740   28.3090   49.2200 N   0  0  0  0  0  0  0  0  0  0  0  0
   34.2410   29.6220   49.4320 C   0  0  2  0  0  0  0  0  0  0  0  0
   34.2480   30.3390   48.1040 C   0  0  0  0  0  0  0  0  0  0  0  0
   33.3660   29.7270   47.1810 O   0  0  0  0  0  0  0  0  0  0  0  0
   33.9700   28.5080   46.8740 C   0  0  0  0  0  0  0  0  0  0  0  0
   34.3250   27.7030   48.0940 C   0  0  2  0  0  0  0  0  0  0  0  0
   33.8010   27.7880   50.1210 H   0  0  0  0  0  0  0  0  0  0  0  0
   33.6790   30.1600   50.2150 H   0  0  0  0  0  0  0  0  0  0  0  0
   33.8400   31.3550   48.2920 H   0  0  0  0  0  0  0  0  0  0  0  0
   35.2590   30.4410   47.6870 H   0  0  0  0  0  0  0  0  0  0  0  0
   34.8900   28.7760   46.2920 H   0  0  0  0  0  0  0  0  0  0  0  0
   33.2790   27.9330   46.2230 H   0  0  0  0  0  0  0  0  0  0  0  0
   35.4330   27.6600   48.1850 H   0  0  0  0  0  0  0  0  0  0  0  0
   33.8490   26.3850   47.9610 O   0  0  0  0  0  0  0  0  0  0  0  0
   33.1550   26.1850   48.6400 H   0  0  0  0  0  0  0  0  0  0  0  0
  1  2  1  0  0  0  0
  1 31  1  0  0  0  0
  2  7  1  0  0  0  0
  3  8  1  0  0  0  0
  3  2  2  0  0  0  0
  4  3  1  0  0  0  0
  5  6  1  0  0  0  0
  5  4  2  0  0  0  0
  6  1  2  0  0  0  0
  9  5  1  0  0  0  0
 10  9  1  0  0  0  0
 10 11  1  0  0  0  0
 12 10  2  0  0  0  0
 13 12  1  0  0  0  0
 14 15  2  0  0  0  0
 14 12  1  0  0  0  0
 15 16  1  0  0  0  0
 16 17  1  0  0  0  0
 16  9  2  0  0  0  0
 18 15  1  0  0  0  0
 19 18  1  0  0  0  0
 20 21  1  0  0  0  0
 20 19  2  0  0  0  0
 22 20  1  0  0  0  0
 23 22  1  0  0  0  0
 24 22  2  0  0  0  0
 24 26  1  0  0  0  0
 25 24  1  0  0  0  0
 26 28  2  0  0  0  0
 27 26  1  0  0  0  0
 28 19  1  0  0  0  0
 28 29  1  0  0  0  0
 29 14  1  0  0  0  0
 30 29  1  0  0  0  0
 32 33  1  0  0  0  0
 32 38  1  0  0  0  0
 33 31  1  0  0  0  0
 33 39  1  1  0  0  0
 34 40  1  0  0  0  0
 34 33  1  0  0  0  0
 35 34  1  0  0  0  0
 36 35  1  0  0  0  0
 36 37  1  0  0  0  0
 37 44  1  1  0  0  0
 37 32  1  0  0  0  0
 41 34  1  0  0  0  0
 42 36  1  0  0  0  0
 43 36  1  0  0  0  0
 45 37  1  0  0  0  0
 45 46  1  0  0  0  0
M  END
>  <minimizedAffinity>
-6.94930887

>  <minimizedRMSD>
2.41110778

$$$$
