
     RDKit          3D

 37 40  0  0  0  0  0  0  0  0999 V2000
   37.3069   30.1987   51.4362 C   0  0  0  0  0  0  0  0  0  0  0  0
   38.1093   30.7382   50.4131 C   0  0  0  0  0  0  0  0  0  0  0  0
   37.7640   30.4425   49.0762 C   0  0  0  0  0  0  0  0  0  0  0  0
   36.6698   29.6493   48.8614 N   0  0  0  0  0  0  0  0  0  0  0  0
   35.9349   29.1585   49.8899 C   0  0  0  0  0  0  0  0  0  0  0  0
   36.2576   29.4352   51.1510 N   0  0  0  0  0  0  0  0  0  0  0  0
   34.7481   28.2944   49.5480 C   0  0  0  0  0  0  0  0  0  0  0  0
   34.4082   28.4633   48.0882 C   0  0  0  0  0  0  0  0  0  0  0  0
   37.6218   30.4609   52.4483 H   0  0  0  0  0  0  0  0  0  0  0  0
   38.9713   31.3624   50.5646 H   0  0  0  0  0  0  0  0  0  0  0  0
   38.3422   30.8273   48.2281 H   0  0  0  0  0  0  0  0  0  0  0  0
   34.9837   27.2344   49.7684 H   0  0  0  0  0  0  0  0  0  0  0  0
   33.8693   28.5833   50.1613 H   0  0  0  0  0  0  0  0  0  0  0  0
   34.3133   29.5435   47.8511 H   0  0  0  0  0  0  0  0  0  0  0  0
   35.3120   28.1140   47.5150 H   0  0  0  0  0  0  0  0  0  0  0  0
   33.2608   27.6553   47.6681 C   0  0  0  0  0  0  0  0  0  0  0  0
   33.3960   26.2929   47.4899 C   0  0  0  0  0  0  0  0  0  0  0  0
   34.3762   25.8316   47.6689 H   0  0  0  0  0  0  0  0  0  0  0  0
   32.3422   25.5147   47.0982 C   0  0  0  0  0  0  0  0  0  0  0  0
   32.5426   24.4418   46.9820 H   0  0  0  0  0  0  0  0  0  0  0  0
   31.0855   26.0252   46.8561 C   0  0  0  0  0  0  0  0  0  0  0  0
   30.9575   27.3619   47.0321 C   0  0  0  0  0  0  0  0  0  0  0  0
   31.9930   28.1323   47.4178 C   0  0  0  0  0  0  0  0  0  0  0  0
   31.8436   29.2148   47.5486 H   0  0  0  0  0  0  0  0  0  0  0  0
   29.3714   28.1234   46.7447 S   0  0  0  0  0  0  0  0  0  0  0  0
   28.2882   26.7967   46.2598 C   0  0  0  0  0  0  0  0  0  0  0  0
   27.0087   27.1613   45.9888 C   0  0  0  0  0  0  0  0  0  0  0  0
   26.6000   28.1623   46.0405 H   0  0  0  0  0  0  0  0  0  0  0  0
   26.0837   26.1980   45.6012 C   0  0  0  0  0  0  0  0  0  0  0  0
   25.0530   26.4424   45.3752 H   0  0  0  0  0  0  0  0  0  0  0  0
   26.5105   24.8935   45.5067 C   0  0  0  0  0  0  0  0  0  0  0  0
   25.7918   24.1437   45.2054 H   0  0  0  0  0  0  0  0  0  0  0  0
   27.8320   24.5968   45.7990 C   0  0  0  0  0  0  0  0  0  0  0  0
   28.0679   23.5388   45.6942 H   0  0  0  0  0  0  0  0  0  0  0  0
   28.7686   25.5336   46.1855 C   0  0  0  0  0  0  0  0  0  0  0  0
   30.0717   25.1242   46.4555 N   0  0  0  0  0  0  0  0  0  0  0  0
   30.3052   24.1127   46.3573 H   0  0  0  0  0  0  0  0  0  0  0  0
  2  1  2  0
  3  2  1  0
  4  3  2  0
  4  5  1  0
  5  6  2  0
  6  1  1  0
  7  5  1  0
  8  7  1  0
  1  9  1  0
  2 10  1  0
  3 11  1  0
  7 12  1  0
  7 13  1  0
  8 14  1  0
  8 15  1  0
 16 17  2  0
 17 18  1  0
 17 19  1  0
 19 20  1  0
 19 21  2  0
 21 22  1  0
 22 23  2  0
 23 24  1  0
 22 25  1  0
 25 26  1  0
 26 27  2  0
 27 28  1  0
 27 29  1  0
 29 30  1  0
 29 31  2  0
 31 32  1  0
 31 33  1  0
 33 34  1  0
 33 35  2  0
 35 36  1  0
 36 37  1  0
 23 16  1  0
 35 26  1  0
 36 21  1  0
  8 16  1  0
M  ISO  8   9  14  10  14  11  14  12   8  13   8  14   8  15   8  18  16
M  ISO  7  20  16  24  16  28  16  30  16  32  16  34  16  37   5
M  END
>  <DihAtoms>  (1) 
6,7,15,16

>  <DihDeg>  (1) 
-89.99600099601308

$$$$
