REMARK  Name = 
REMARK  3 active torsions:
REMARK  status: ('A' for Active; 'I' for Inactive)
REMARK    1  A    between atoms: C_5  and  C_7
REMARK    2  A    between atoms: C_7  and  C_8
REMARK    3  A    between atoms: C_8  and  C_16
REMARK                            x       y       z     vdW  Elec       q    Type
REMARK                         _______ _______ _______ _____ _____    ______ ____
ROOT
ATOM      1  C   UNL     1      33.261  27.655  47.668  0.00  0.00    +0.000 A 
ATOM      2  C   UNL     1      33.297  26.280  47.785  0.00  0.00    +0.000 A 
ATOM      3  H   UNL     1      34.199  25.809  48.197  0.00  0.00    +0.000 HD
ATOM      4  C   UNL     1      32.241  25.502  47.400  0.00  0.00    +0.000 A 
ATOM      5  H   UNL     1      32.359  24.418  47.530  0.00  0.00    +0.000 HD
ATOM      6  C   UNL     1      31.079  26.024  46.876  0.00  0.00    +0.000 A 
ATOM      7  C   UNL     1      31.048  27.374  46.763  0.00  0.00    +0.000 A 
ATOM      8  C   UNL     1      32.086  28.144  47.141  0.00  0.00    +0.000 A 
ATOM      9  H   UNL     1      32.017  29.237  47.031  0.00  0.00    +0.000 HD
ATOM     10  S   UNL     1      29.589  28.152  46.096  0.00  0.00    +0.000 S 
ATOM     11  C   UNL     1      28.468  26.820  45.725  0.00  0.00    +0.000 A 
ATOM     12  C   UNL     1      27.274  27.195  45.198  0.00  0.00    +0.000 A 
ATOM     13  H   UNL     1      26.953  28.208  44.989  0.00  0.00    +0.000 HD
ATOM     14  C   UNL     1      26.328  26.230  44.874  0.00  0.00    +0.000 A 
ATOM     15  H   UNL     1      25.363  26.482  44.452  0.00  0.00    +0.000 HD
ATOM     16  C   UNL     1      26.646  24.911  45.104  0.00  0.00    +0.000 A 
ATOM     17  H   UNL     1      25.910  24.159  44.852  0.00  0.00    +0.000 HD
ATOM     18  C   UNL     1      27.884  24.603  45.645  0.00  0.00    +0.000 A 
ATOM     19  H   UNL     1      28.037  23.535  45.787  0.00  0.00    +0.000 HD
ATOM     20  C   UNL     1      28.839  25.543  45.975  0.00  0.00    +0.000 A 
ATOM     21  N   UNL     1      30.052  25.122  46.513  0.00  0.00    +0.000 N 
ATOM     22  H   UNL     1      30.206  24.100  46.653  0.00  0.00    +0.000 HD
ENDROOT
BRANCH   1  23
ATOM     23  C   UNL     1      34.408  28.463  48.088  0.00  0.00    +0.000 C 
ATOM     24  H   UNL     1      34.313  29.544  47.851  0.00  0.00    +0.000 HD
ATOM     25  H   UNL     1      35.312  28.114  47.515  0.00  0.00    +0.000 HD
BRANCH  23  26
ATOM     26  C   UNL     1      34.748  28.294  49.548  0.00  0.00    +0.000 C 
ATOM     27  H   UNL     1      34.984  27.234  49.768  0.00  0.00    +0.000 HD
ATOM     28  H   UNL     1      33.869  28.583  50.161  0.00  0.00    +0.000 HD
BRANCH  26  33
ATOM     29  C   UNL     1      37.307  30.199  51.436  0.00  0.00    +0.000 A 
ATOM     30  C   UNL     1      38.109  30.738  50.413  0.00  0.00    +0.000 A 
ATOM     31  C   UNL     1      37.764  30.442  49.076  0.00  0.00    +0.000 A 
ATOM     32  N   UNL     1      36.670  29.649  48.861  0.00  0.00    +0.000 NA
ATOM     33  C   UNL     1      35.935  29.159  49.890  0.00  0.00    +0.000 A 
ATOM     34  N   UNL     1      36.258  29.435  51.151  0.00  0.00    +0.000 NA
ATOM     35  H   UNL     1      37.622  30.461  52.448  0.00  0.00    +0.000 HD
ATOM     36  H   UNL     1      38.971  31.362  50.565  0.00  0.00    +0.000 HD
ATOM     37  H   UNL     1      38.342  30.827  48.228  0.00  0.00    +0.000 HD
ENDBRANCH  26  33
ENDBRANCH  23  26
ENDBRANCH   1  23
TORSDOF 3
