REMARK  Name = 
REMARK  3 active torsions:
REMARK  status: ('A' for Active; 'I' for Inactive)
REMARK    1  A    between atoms: C_5  and  C_7
REMARK    2  A    between atoms: C_7  and  C_8
REMARK    3  A    between atoms: C_8  and  C_16
REMARK                            x       y       z     vdW  Elec       q    Type
REMARK                         _______ _______ _______ _____ _____    ______ ____
ROOT
ATOM      1  C   UNL     1      33.261  27.655  47.668  0.00  0.00    +0.000 A 
ATOM      2  C   UNL     1      32.440  28.089  46.646  0.00  0.00    +0.000 A 
ATOM      3  H   UNL     1      32.666  29.046  46.158  0.00  0.00    +0.000 HD
ATOM      4  C   UNL     1      31.363  27.355  46.233  0.00  0.00    +0.000 A 
ATOM      5  H   UNL     1      30.767  27.778  45.414  0.00  0.00    +0.000 HD
ATOM      6  C   UNL     1      31.021  26.146  46.800  0.00  0.00    +0.000 A 
ATOM      7  C   UNL     1      31.828  25.725  47.802  0.00  0.00    +0.000 A 
ATOM      8  C   UNL     1      32.891  26.445  48.211  0.00  0.00    +0.000 A 
ATOM      9  H   UNL     1      33.520  26.064  49.030  0.00  0.00    +0.000 HD
ATOM     10  S   UNL     1      31.474  24.172  48.603  0.00  0.00    +0.000 S 
ATOM     11  C   UNL     1      30.020  23.540  47.791  0.00  0.00    +0.000 A 
ATOM     12  C   UNL     1      29.571  22.346  48.254  0.00  0.00    +0.000 A 
ATOM     13  H   UNL     1      30.007  21.759  49.052  0.00  0.00    +0.000 HD
ATOM     14  C   UNL     1      28.441  21.767  47.686  0.00  0.00    +0.000 A 
ATOM     15  H   UNL     1      28.046  20.816  48.022  0.00  0.00    +0.000 HD
ATOM     16  C   UNL     1      27.816  22.440  46.662  0.00  0.00    +0.000 A 
ATOM     17  H   UNL     1      26.937  21.990  46.219  0.00  0.00    +0.000 HD
ATOM     18  C   UNL     1      28.333  23.655  46.243  0.00  0.00    +0.000 A 
ATOM     19  H   UNL     1      27.766  24.105  45.429  0.00  0.00    +0.000 HD
ATOM     20  C   UNL     1      29.451  24.250  46.790  0.00  0.00    +0.000 A 
ATOM     21  N   UNL     1      29.884  25.476  46.291  0.00  0.00    +0.000 N 
ATOM     22  H   UNL     1      29.347  25.913  45.512  0.00  0.00    +0.000 HD
ENDROOT
BRANCH   1  23
ATOM     23  C   UNL     1      34.408  28.463  48.088  0.00  0.00    +0.000 C 
ATOM     24  H   UNL     1      34.313  29.544  47.851  0.00  0.00    +0.000 HD
ATOM     25  H   UNL     1      35.312  28.114  47.515  0.00  0.00    +0.000 HD
BRANCH  23  26
ATOM     26  C   UNL     1      34.748  28.294  49.548  0.00  0.00    +0.000 C 
ATOM     27  H   UNL     1      34.984  27.234  49.768  0.00  0.00    +0.000 HD
ATOM     28  H   UNL     1      33.869  28.583  50.161  0.00  0.00    +0.000 HD
BRANCH  26  33
ATOM     29  C   UNL     1      37.307  30.199  51.436  0.00  0.00    +0.000 A 
ATOM     30  C   UNL     1      38.109  30.738  50.413  0.00  0.00    +0.000 A 
ATOM     31  C   UNL     1      37.764  30.442  49.076  0.00  0.00    +0.000 A 
ATOM     32  N   UNL     1      36.670  29.649  48.861  0.00  0.00    +0.000 NA
ATOM     33  C   UNL     1      35.935  29.159  49.890  0.00  0.00    +0.000 A 
ATOM     34  N   UNL     1      36.258  29.435  51.151  0.00  0.00    +0.000 NA
ATOM     35  H   UNL     1      37.622  30.461  52.448  0.00  0.00    +0.000 HD
ATOM     36  H   UNL     1      38.971  31.362  50.565  0.00  0.00    +0.000 HD
ATOM     37  H   UNL     1      38.342  30.827  48.228  0.00  0.00    +0.000 HD
ENDBRANCH  26  33
ENDBRANCH  23  26
ENDBRANCH   1  23
TORSDOF 3
