REMARK  Name = 
REMARK  4 active torsions:
REMARK  status: ('A' for Active; 'I' for Inactive)
REMARK    1  A    between atoms: C_2  and  S_8
REMARK    2  A    between atoms: C_6  and  O_7
REMARK    3  A    between atoms: S_8  and  C_9
REMARK    4  A    between atoms: C_13  and  C_25
REMARK                            x       y       z     vdW  Elec       q    Type
REMARK                         _______ _______ _______ _____ _____    ______ ____
ROOT
ATOM      1  C   UNL     1      37.285  30.738  48.815  0.00  0.00    +0.000 A 
ATOM      2  C   UNL     1      37.216  31.867  49.659  0.00  0.00    +0.000 A 
ATOM      3  C   UNL     1      38.039  32.955  49.369  0.00  0.00    +0.000 A 
ATOM      4  N   UNL     1      38.876  32.857  48.267  0.00  0.00    +0.000 NA
ATOM      5  C   UNL     1      38.903  31.769  47.502  0.00  0.00    +0.000 A 
ATOM      6  N   UNL     1      38.124  30.723  47.765  0.00  0.00    +0.000 NA
ATOM      7  H   UNL     1      36.583  31.975  50.516  0.00  0.00    +0.000 HD
ATOM      8  H   UNL     1      38.048  33.849  49.959  0.00  0.00    +0.000 HD
ENDROOT
BRANCH   5   9
ATOM      9  C   UNL     1      39.811  31.741  46.359  0.00  0.00    +0.000 A 
ATOM     10  C   UNL     1      41.108  31.276  46.445  0.00  0.00    +0.000 A 
ATOM     11  H   UNL     1      41.456  30.922  47.394  0.00  0.00    +0.000 HD
ATOM     12  C   UNL     1      41.906  31.282  45.320  0.00  0.00    +0.000 A 
ATOM     13  H   UNL     1      42.914  30.896  45.487  0.00  0.00    +0.000 HD
ATOM     14  C   UNL     1      41.492  31.730  44.083  0.00  0.00    +0.000 A 
ATOM     15  C   UNL     1      40.202  32.191  44.004  0.00  0.00    +0.000 A 
ATOM     16  C   UNL     1      39.405  32.188  45.118  0.00  0.00    +0.000 A 
ATOM     17  H   UNL     1      38.387  32.560  45.021  0.00  0.00    +0.000 HD
ATOM     18  S   UNL     1      39.623  32.776  42.439  0.00  0.00    +0.000 S 
ATOM     19  C   UNL     1      40.969  32.601  41.288  0.00  0.00    +0.000 A 
ATOM     20  C   UNL     1      40.755  32.994  39.996  0.00  0.00    +0.000 A 
ATOM     21  H   UNL     1      39.797  33.396  39.695  0.00  0.00    +0.000 HD
ATOM     22  C   UNL     1      41.749  32.887  39.053  0.00  0.00    +0.000 A 
ATOM     23  H   UNL     1      41.552  33.201  38.058  0.00  0.00    +0.000 HD
ATOM     24  C   UNL     1      42.943  32.379  39.456  0.00  0.00    +0.000 A 
ATOM     25  H   UNL     1      43.743  32.282  38.741  0.00  0.00    +0.000 HD
ATOM     26  C   UNL     1      43.115  31.995  40.770  0.00  0.00    +0.000 A 
ATOM     27  H   UNL     1      44.112  31.594  41.011  0.00  0.00    +0.000 HD
ATOM     28  C   UNL     1      42.151  32.081  41.754  0.00  0.00    +0.000 A 
ATOM     29  N   UNL     1      42.458  31.654  43.056  0.00  0.00    +0.000 N 
ATOM     30  H   UNL     1      43.416  31.283  43.229  0.00  0.00    +0.000 HD
ENDBRANCH   5   9
BRANCH   1  31
ATOM     31  S   UNL     1      36.184  29.442  49.310  0.00  0.00    +0.000 S 
BRANCH  31  33
ATOM     32  N   UNL     1      33.597  28.711  49.030  0.00  0.00    +0.000 NA
ATOM     33  C   UNL     1      34.441  29.881  48.935  0.00  0.00    +0.000 C 
ATOM     34  C   UNL     1      34.374  30.381  47.513  0.00  0.00    +0.000 C 
ATOM     35  O   UNL     1      33.249  29.856  46.832  0.00  0.00    +0.000 OA
ATOM     36  C   UNL     1      33.540  28.502  46.667  0.00  0.00    +0.000 C 
ATOM     37  C   UNL     1      33.922  27.821  47.952  0.00  0.00    +0.000 C 
ATOM     38  H   UNL     1      33.763  28.309  49.984  0.00  0.00    +0.000 HD
ATOM     39  H   UNL     1      34.133  30.637  49.678  0.00  0.00    +0.000 HD
ATOM     40  H   UNL     1      34.213  31.479  47.571  0.00  0.00    +0.000 HD
ATOM     41  H   UNL     1      35.303  30.195  46.957  0.00  0.00    +0.000 HD
ATOM     42  H   UNL     1      34.387  28.472  45.934  0.00  0.00    +0.000 HD
ATOM     43  H   UNL     1      32.651  28.009  46.221  0.00  0.00    +0.000 HD
ATOM     44  H   UNL     1      34.998  27.545  47.906  0.00  0.00    +0.000 HD
BRANCH  37  45
ATOM     45  O   UNL     1      33.177  26.637  48.114  0.00  0.00    +0.000 OA
ATOM     46  H   UNL     1      32.578  26.696  48.901  0.00  0.00    +0.000 HD
ENDBRANCH  37  45
ENDBRANCH  31  33
ENDBRANCH   1  31
TORSDOF 4
