
     RDKit          3D

 37 40  0  0  0  0  0  0  0  0999 V2000
   37.3069   30.1987   51.4362 C   0  0  0  0  0  0  0  0  0  0  0  0
   38.1093   30.7382   50.4131 C   0  0  0  0  0  0  0  0  0  0  0  0
   37.7640   30.4425   49.0762 C   0  0  0  0  0  0  0  0  0  0  0  0
   36.6698   29.6493   48.8614 N   0  0  0  0  0  0  0  0  0  0  0  0
   35.9349   29.1585   49.8899 C   0  0  0  0  0  0  0  0  0  0  0  0
   36.2576   29.4352   51.1510 N   0  0  0  0  0  0  0  0  0  0  0  0
   34.7481   28.2944   49.5480 C   0  0  0  0  0  0  0  0  0  0  0  0
   34.4082   28.4633   48.0882 C   0  0  0  0  0  0  0  0  0  0  0  0
   37.6218   30.4609   52.4483 H   0  0  0  0  0  0  0  0  0  0  0  0
   38.9713   31.3624   50.5646 H   0  0  0  0  0  0  0  0  0  0  0  0
   38.3422   30.8273   48.2281 H   0  0  0  0  0  0  0  0  0  0  0  0
   34.9837   27.2344   49.7684 H   0  0  0  0  0  0  0  0  0  0  0  0
   33.8693   28.5833   50.1613 H   0  0  0  0  0  0  0  0  0  0  0  0
   34.3133   29.5435   47.8511 H   0  0  0  0  0  0  0  0  0  0  0  0
   35.3120   28.1140   47.5150 H   0  0  0  0  0  0  0  0  0  0  0  0
   33.2608   27.6553   47.6681 C   0  0  0  0  0  0  0  0  0  0  0  0
   32.8023   26.6275   48.4678 C   0  0  0  0  0  0  0  0  0  0  0  0
   33.3135   26.4306   49.4194 H   0  0  0  0  0  0  0  0  0  0  0  0
   31.7339   25.8574   48.1005 C   0  0  0  0  0  0  0  0  0  0  0  0
   31.4398   25.0633   48.7988 H   0  0  0  0  0  0  0  0  0  0  0  0
   31.0456   26.0476   46.9221 C   0  0  0  0  0  0  0  0  0  0  0  0
   31.4987   27.0567   46.1408 C   0  0  0  0  0  0  0  0  0  0  0  0
   32.5510   27.8177   46.4988 C   0  0  0  0  0  0  0  0  0  0  0  0
   32.8853   28.6276   45.8328 H   0  0  0  0  0  0  0  0  0  0  0  0
   30.6778   27.3869   44.5932 S   0  0  0  0  0  0  0  0  0  0  0  0
   29.3650   26.1895   44.4868 C   0  0  0  0  0  0  0  0  0  0  0  0
   28.6010   26.2634   43.3668 C   0  0  0  0  0  0  0  0  0  0  0  0
   28.7172   26.9686   42.5537 H   0  0  0  0  0  0  0  0  0  0  0  0
   27.5490   25.3715   43.1884 C   0  0  0  0  0  0  0  0  0  0  0  0
   26.9136   25.3931   42.3116 H   0  0  0  0  0  0  0  0  0  0  0  0
   27.3221   24.4355   44.1708 C   0  0  0  0  0  0  0  0  0  0  0  0
   26.5042   23.7416   44.0331 H   0  0  0  0  0  0  0  0  0  0  0  0
   28.1437   24.4207   45.2865 C   0  0  0  0  0  0  0  0  0  0  0  0
   27.8810   23.6437   46.0030 H   0  0  0  0  0  0  0  0  0  0  0  0
   29.1931   25.2940   45.4869 C   0  0  0  0  0  0  0  0  0  0  0  0
   29.9556   25.1894   46.6471 N   0  0  0  0  0  0  0  0  0  0  0  0
   29.7102   24.4479   47.3379 H   0  0  0  0  0  0  0  0  0  0  0  0
  2  1  2  0
  3  2  1  0
  4  3  2  0
  4  5  1  0
  5  6  2  0
  6  1  1  0
  7  5  1  0
  8  7  1  0
  1  9  1  0
  2 10  1  0
  3 11  1  0
  7 12  1  0
  7 13  1  0
  8 14  1  0
  8 15  1  0
 16 17  2  0
 17 18  1  0
 17 19  1  0
 19 20  1  0
 19 21  2  0
 21 22  1  0
 22 23  2  0
 23 24  1  0
 22 25  1  0
 25 26  1  0
 26 27  2  0
 27 28  1  0
 27 29  1  0
 29 30  1  0
 29 31  2  0
 31 32  1  0
 31 33  1  0
 33 34  1  0
 33 35  2  0
 35 36  1  0
 36 37  1  0
 23 16  1  0
 35 26  1  0
 36 21  1  0
  8 16  1  0
M  ISO  8   9  14  10  14  11  14  12   8  13   8  14   8  15   8  18  16
M  ISO  7  20  16  24  16  28  16  30  16  32  16  34  16  37   5
M  END
>  <DihAtoms>  (1) 
6,7,15,16

>  <DihDeg>  (1) 
-89.99600099601308

$$$$
