REMARK  Name = 
REMARK  6 active torsions:
REMARK  status: ('A' for Active; 'I' for Inactive)
REMARK    1  A    between atoms: C_1  and  C_2
REMARK    2  A    between atoms: C_1  and  O_8
REMARK    3  A    between atoms: O_8  and  P_10
REMARK    4  A    between atoms: P_10  and  O_11
REMARK    5  A    between atoms: P_10  and  O_12
REMARK    6  A    between atoms: O_12  and  C_21
REMARK                            x       y       z     vdW  Elec       q    Type
REMARK                         _______ _______ _______ _____ _____    ______ ____
ROOT
ATOM      1  O   UNL     1      38.395  31.174  48.038  0.00  0.00    +0.000 OA
ATOM      2  P   UNL     1      38.001  31.715  49.395  0.00  0.00    +0.000 P 
ENDROOT
BRANCH   2   3
ATOM      3  O   UNL     1      38.806  30.758  50.567  0.00  0.00    +0.000 OA
ATOM      4  H   UNL     1      39.722  30.550  50.293  0.00  0.00    +0.000 HD
ENDBRANCH   2   3
BRANCH   2   5
ATOM      5  O   UNL     1      36.338  31.589  49.616  0.00  0.00    +0.000 OA
BRANCH   5   6
ATOM      6  C   UNL     1      36.062  30.308  50.017  0.00  0.00    +0.000 C 
ATOM      7  H   UNL     1      36.977  29.656  50.125  0.00  0.00    +0.000 HD
ATOM      8  H   UNL     1      35.625  30.309  51.054  0.00  0.00    +0.000 HD
BRANCH   6   9
ATOM      9  C   UNL     1      35.122  29.597  49.117  0.00  0.00    +0.000 A 
ATOM     10  C   UNL     1      34.672  30.284  48.001  0.00  0.00    +0.000 A 
ATOM     11  C   UNL     1      33.782  29.641  47.127  0.00  0.00    +0.000 A 
ATOM     12  N   UNL     1      33.415  28.372  47.438  0.00  0.00    +0.000 NA
ATOM     13  C   UNL     1      33.862  27.721  48.528  0.00  0.00    +0.000 A 
ATOM     14  N   UNL     1      34.712  28.342  49.355  0.00  0.00    +0.000 NA
ATOM     15  H   UNL     1      34.940  31.296  47.716  0.00  0.00    +0.000 HD
ATOM     16  H   UNL     1      33.386  30.091  46.246  0.00  0.00    +0.000 HD
ATOM     17  H   UNL     1      33.573  26.713  48.778  0.00  0.00    +0.000 HD
ENDBRANCH   6   9
ENDBRANCH   5   6
ENDBRANCH   2   5
BRANCH   2  18
ATOM     18  O   UNL     1      38.537  33.306  49.513  0.00  0.00    +0.000 OA
BRANCH  18  21
ATOM     19 CL   UNL     1      35.974  34.732  49.233  0.00  0.00    +0.000 Cl
ATOM     20  C   UNL     1      37.056  34.742  50.599  0.00  0.00    +0.000 A 
ATOM     21  C   UNL     1      38.258  34.039  50.659  0.00  0.00    +0.000 A 
ATOM     22  C   UNL     1      39.063  34.106  51.795  0.00  0.00    +0.000 A 
ATOM     23  H   UNL     1      39.980  33.534  51.768  0.00  0.00    +0.000 HD
ATOM     24  C   UNL     1      38.620  34.890  52.840  0.00  0.00    +0.000 A 
ATOM     25  H   UNL     1      39.306  34.887  53.687  0.00  0.00    +0.000 HD
ATOM     26  C   UNL     1      37.434  35.590  52.793  0.00  0.00    +0.000 A 
ATOM     27  C   UNL     1      36.642  35.519  51.665  0.00  0.00    +0.000 A 
ENDBRANCH  18  21
ENDBRANCH   2  18
TORSDOF 6
