
 OpenBabel03272507283D

 41 43  0  0  1  0  0  0  0  0999 V2000
   37.1770   29.9610   49.3470 C   0  0  0  0  0  0  0  0  0  0  0  0
   37.6010   30.4850   48.1100 C   0  0  0  0  0  0  0  0  0  0  0  0
   36.6790   30.5020   47.0680 C   0  0  0  0  0  0  0  0  0  0  0  0
   35.4610   30.0340   47.2850 N   0  0  0  0  0  0  0  0  0  0  0  0
   35.0680   29.5360   48.4740 C   0  0  0  0  0  0  0  0  0  0  0  0
   35.9280   29.5040   49.4910 N   0  0  0  0  0  0  0  0  0  0  0  0
   37.0710   30.9780   45.8170 N   0  0  0  0  0  0  0  0  0  0  0  0
   38.1030   32.0140   45.5570 C   0  0  0  0  0  0  0  0  0  0  0  0
   37.9380   32.4610   44.1470 C   0  0  0  0  0  0  0  0  0  0  0  0
   36.6650   31.9090   43.7300 C   0  0  0  0  0  0  0  0  0  0  0  0
   36.6260   30.6420   44.5070 C   0  0  2  0  0  0  0  0  0  0  0  0
   37.9600   29.9830   50.1070 H   0  0  0  0  0  0  0  0  0  0  0  0
   38.5910   30.8690   47.9240 H   0  0  0  0  0  0  0  0  0  0  0  0
   34.0830   29.1480   48.6800 H   0  0  0  0  0  0  0  0  0  0  0  0
   39.0870   31.7790   45.9140 H   0  0  0  0  0  0  0  0  0  0  0  0
   37.7510   32.8210   46.2900 H   0  0  0  0  0  0  0  0  0  0  0  0
   37.6010   33.6060   44.3260 H   0  0  0  0  0  0  0  0  0  0  0  0
   38.7530   32.7000   43.5250 H   0  0  0  0  0  0  0  0  0  0  0  0
   35.7490   32.4770   43.9460 H   0  0  0  0  0  0  0  0  0  0  0  0
   36.7190   31.6160   42.6470 H   0  0  0  0  0  0  0  0  0  0  0  0
   35.2130   30.0520   44.4500 C   0  0  0  0  0  0  0  0  0  0  0  0
   34.3690   30.8710   45.1710 F   0  0  0  0  0  0  0  0  0  0  0  0
   35.0880   28.8020   44.9690 F   0  0  0  0  0  0  0  0  0  0  0  0
   34.8010   30.1300   43.1360 F   0  0  0  0  0  0  0  0  0  0  0  0
   37.5050   29.6380   43.9780 C   0  0  2  0  0  0  0  0  0  0  0  0
   38.1810   29.2450   44.7000 H   0  0  0  0  0  0  0  0  0  0  0  0
   36.6080   30.5270   41.0940 Cl  0  0  0  0  0  0  0  0  0  0  0  0
   38.2780   30.3700   41.6100 C   0  0  0  0  0  0  0  0  0  0  0  0
   38.5880   29.9930   42.9060 C   0  0  0  0  0  0  0  0  0  0  0  0
   39.9480   30.0410   43.1500 C   0  0  0  0  0  0  0  0  0  0  0  0
   40.2680   29.7920   44.1800 H   0  0  0  0  0  0  0  0  0  0  0  0
   40.9570   30.3950   42.2970 C   0  0  0  0  0  0  0  0  0  0  0  0
   41.9720   30.3840   42.6260 H   0  0  0  0  0  0  0  0  0  0  0  0
   40.5190   30.7430   41.0400 C   0  0  0  0  0  3  0  0  0  0  0  0
   39.2020   30.7420   40.6720 C   0  0  0  0  0  3  0  0  0  0  0  0
   36.7900   28.8580   43.2740 O   0  0  0  0  0  0  0  0  0  0  0  0
   36.8510   27.5960   42.8080 C   0  0  0  0  0  0  0  0  0  0  0  0
   35.8390   27.3120   42.1580 O   0  0  0  0  0  0  0  0  0  0  0  0
   37.5510   26.3650   42.6860 N   0  0  0  0  0  0  0  0  0  0  0  0
   37.4210   25.5750   43.3710 H   0  0  0  0  0  0  0  0  0  0  0  0
   38.2000   26.3080   41.8690 H   0  0  0  0  0  0  0  0  0  0  0  0
  1  6  1  0  0  0  0
  1 12  1  0  0  0  0
  2  1  2  0  0  0  0
  3  4  2  0  0  0  0
  3  2  1  0  0  0  0
  4  5  1  0  0  0  0
  5 14  1  0  0  0  0
  5  6  2  0  0  0  0
  7  3  1  0  0  0  0
  8  7  1  0  0  0  0
  8 15  1  0  0  0  0
  8 16  1  0  0  0  0
  9 17  1  0  0  0  0
  9  8  1  0  0  0  0
 10 19  1  0  0  0  0
 10  9  1  0  0  0  0
 10 11  1  0  0  0  0
 11 21  1  1  0  0  0
 11  7  1  0  0  0  0
 13  2  1  0  0  0  0
 18  9  1  0  0  0  0
 20 10  1  0  0  0  0
 21 23  1  0  0  0  0
 21 22  1  0  0  0  0
 24 21  1  0  0  0  0
 25 11  1  0  0  0  0
 25 26  1  1  0  0  0
 27 28  1  0  0  0  0
 28 29  1  0  0  0  0
 29 30  2  0  0  0  0
 29 25  1  0  0  0  0
 30 31  1  0  0  0  0
 32 33  1  0  0  0  0
 32 30  1  0  0  0  0
 34 32  2  0  0  0  0
 35 34  1  0  0  0  0
 35 28  2  0  0  0  0
 36 25  1  0  0  0  0
 37 36  1  0  0  0  0
 38 37  2  0  0  0  0
 39 37  1  0  0  0  0
 39 40  1  0  0  0  0
 41 39  1  0  0  0  0
M  END
>  <minimizedAffinity>
-4.32556677

>  <minimizedRMSD>
3.80031252

$$$$
