
     RDKit          3D

 43 45  0  0  0  0  0  0  0  0999 V2000
   36.6841   29.9755   49.0165 C   0  0  0  0  0  0  0  0  0  0  0  0
   37.6971   30.6535   48.3107 C   0  0  0  0  0  0  0  0  0  0  0  0
   37.4732   30.9221   46.9641 C   0  0  0  0  0  0  0  0  0  0  0  0
   36.3330   30.5351   46.4162 N   0  0  0  0  0  0  0  0  0  0  0  0
   35.3720   29.8871   47.1044 C   0  0  0  0  0  0  0  0  0  0  0  0
   35.5574   29.6140   48.3948 N   0  0  0  0  0  0  0  0  0  0  0  0
   38.4671   31.5581   46.2197 N   0  0  0  0  0  0  0  0  0  0  0  0
   39.4664   32.5274   46.7389 C   0  0  0  0  0  0  0  0  0  0  0  0
   40.0740   33.2087   45.5653 C   0  0  0  0  0  0  0  0  0  0  0  0
   39.2269   32.8477   44.4474 C   0  0  0  0  0  0  0  0  0  0  0  0
   38.7945   31.4796   44.8366 C   0  0  2  0  0  0  0  0  0  0  0  0
   37.6369   31.0354   43.9369 C   0  0  0  0  0  0  0  0  0  0  0  0
   36.5108   31.7501   44.2878 F   0  0  0  0  0  0  0  0  0  0  0  0
   37.3111   29.7179   44.0243 F   0  0  0  0  0  0  0  0  0  0  0  0
   37.9580   31.4227   42.6523 F   0  0  0  0  0  0  0  0  0  0  0  0
   39.8316   30.5014   44.6751 C   0  0  1  0  0  0  0  0  0  0  0  0
   40.3470   30.6979   43.5303 O   0  0  0  0  0  0  0  0  0  0  0  0
   40.9920   29.9830   42.5889 C   0  0  0  0  0  0  0  0  0  0  0  0
   40.7615   30.4236   41.4582 O   0  0  0  0  0  0  0  0  0  0  0  0
   41.8605   28.9131   42.2413 N   0  0  0  0  0  0  0  0  0  0  0  0
   36.9403   29.8046   50.0645 H   0  0  0  0  0  0  0  0  0  0  0  0
   38.6294   30.9745   48.7492 H   0  0  0  0  0  0  0  0  0  0  0  0
   34.4340   29.5598   46.6848 H   0  0  0  0  0  0  0  0  0  0  0  0
   40.1097   32.1502   47.5100 H   0  0  0  0  0  0  0  0  0  0  0  0
   38.7684   33.2320   47.3108 H   0  0  0  0  0  0  0  0  0  0  0  0
   39.6800   34.3353   45.7471 H   0  0  0  0  0  0  0  0  0  0  0  0
   41.0925   33.4731   45.5221 H   0  0  0  0  0  0  0  0  0  0  0  0
   38.3307   33.4524   44.2479 H   0  0  0  0  0  0  0  0  0  0  0  0
   39.8540   32.7309   43.5219 H   0  0  0  0  0  0  0  0  0  0  0  0
   39.5394   29.5224   44.9726 H   0  0  0  0  0  0  0  0  0  0  0  0
   41.5019   27.9477   42.0172 H   0  0  0  0  0  0  0  0  0  0  0  0
   42.8756   29.1585   42.2258 H   0  0  0  0  0  0  0  0  0  0  0  0
   41.8576   32.8771   44.2735 Cl  0  0  0  0  0  0  0  0  0  0  0  0
   42.0909   31.5545   45.4011 C   0  0  0  0  0  0  0  0  0  0  0  0
   41.1392   30.5570   45.5331 C   0  0  0  0  0  0  0  0  0  0  0  0
   41.4484   29.6744   46.5504 C   0  0  0  0  0  0  0  0  0  0  0  0
   40.7098   28.8717   46.7418 H   0  0  0  0  0  0  0  0  0  0  0  0
   42.5313   29.6789   47.3856 C   0  0  0  0  0  0  0  0  0  0  0  0
   42.6412   28.9248   48.1333 H   0  0  0  0  0  0  0  0  0  0  0  0
   43.4041   30.7157   47.1511 C   0  0  0  0  0  0  0  0  0  0  0  0
   43.2127   31.6580   46.1778 C   0  0  0  0  0  0  0  0  0  0  0  0
   44.2835   30.7744   47.7778 H   0  0  0  0  0  0  0  0  0  0  0  0
   43.9314   32.4420   46.0464 H   0  0  0  0  0  0  0  0  0  0  0  0
  2  1  2  0
  3  2  1  0
  4  3  2  0
  4  5  1  0
  5  6  2  0
  6  1  1  0
  7  8  1  0
  7  3  1  0
  9  8  1  0
 10 11  1  0
 10  9  1  0
 11 12  1  6
 11  7  1  0
 12 14  1  0
 12 13  1  0
 15 12  1  0
 16 11  1  0
 17 16  1  0
 18 17  1  0
 19 18  2  0
 20 18  1  0
  1 21  1  0
  2 22  1  0
  5 23  1  0
  8 24  1  0
  8 25  1  0
  9 26  1  0
  9 27  1  0
 10 28  1  0
 10 29  1  0
 16 30  1  6
 20 31  1  0
 20 32  1  0
 33 34  1  0
 34 35  2  0
 35 36  1  0
 36 37  1  0
 36 38  2  0
 38 39  1  0
 38 40  1  0
 40 41  2  0
 41 34  1  0
 40 42  1  0
 41 43  1  0
 16 35  1  0
M  ISO  8  21  14  22  14  23  14  24  13  25  13  26  13  27  13  28  13
M  ISO  4  29  13  30   8  37  15  39  16
M  END
>  <DihAtoms>  (1) 
10,15,34,33

>  <DihDeg>  (1) 
96.92289342837387

$$$$
