REMARK  Name = 
REMARK  5 active torsions:
REMARK  status: ('A' for Active; 'I' for Inactive)
REMARK    1  A    between atoms: C_1  and  C_17
REMARK    2  A    between atoms: C_1  and  C_18
REMARK    3  A    between atoms: C_6  and  C_9
REMARK    4  A    between atoms: C_9  and  C_11
REMARK    5  A    between atoms: C_18  and  C_33
REMARK                            x       y       z     vdW  Elec       q    Type
REMARK                         _______ _______ _______ _____ _____    ______ ____
ROOT
ATOM      1  C   UNL     1      34.522  29.065  48.725  0.00  0.00    +0.000 C 
ATOM      2  C   UNL     1      35.189  28.361  49.861  0.00  0.00    +0.000 C 
ATOM      3  N   UNL     1      36.329  29.138  50.308  0.00  0.00    +0.000 N 
ATOM      4  C   UNL     1      37.274  29.878  51.090  0.00  0.00    +0.000 C 
ATOM      5  O   UNL     1      37.505  30.082  52.300  0.00  0.00    +0.000 OA
ATOM      6  C   UNL     1      37.983  30.396  49.924  0.00  0.00    +0.000 C 
ATOM      7  C   UNL     1      37.177  29.377  49.168  0.00  0.00    +0.000 C 
ATOM      8  S   UNL     1      35.911  30.072  48.054  0.00  0.00    +0.000 S 
ATOM      9  H   UNL     1      34.474  28.271  50.696  0.00  0.00    +0.000 HD
ATOM     10  H   UNL     1      35.498  27.333  49.570  0.00  0.00    +0.000 HD
ATOM     11  H   UNL     1      39.087  30.182  49.838  0.00  0.00    +0.000 HD
ATOM     12  H   UNL     1      37.710  28.510  48.781  0.00  0.00    +0.000 HD
ENDROOT
BRANCH   1  13
ATOM     13  C   UNL     1      33.333  29.888  49.057  0.00  0.00    +0.000 C 
ATOM     14  H   UNL     1      33.749  30.767  49.668  0.00  0.00    +0.000 HD
ATOM     15  H   UNL     1      32.885  30.376  48.192  0.00  0.00    +0.000 HD
ATOM     16  H   UNL     1      32.676  29.382  49.762  0.00  0.00    +0.000 HD
ENDBRANCH   1  13
BRANCH   1  17
ATOM     17  C   UNL     1      34.248  28.040  47.614  0.00  0.00    +0.000 C 
ATOM     18  H   UNL     1      35.231  27.572  47.323  0.00  0.00    +0.000 HD
ATOM     19  H   UNL     1      33.663  27.224  48.099  0.00  0.00    +0.000 HD
BRANCH  17  22
ATOM     20 CL   UNL     1      31.202  28.818  47.854  0.00  0.00    +0.000 Cl
ATOM     21  C   UNL     1      32.263  28.982  46.467  0.00  0.00    +0.000 A 
ATOM     22  C   UNL     1      33.576  28.576  46.439  0.00  0.00    +0.000 A 
ATOM     23  C   UNL     1      34.268  28.730  45.254  0.00  0.00    +0.000 A 
ATOM     24  H   UNL     1      35.308  28.409  45.217  0.00  0.00    +0.000 HD
ATOM     25  C   UNL     1      33.679  29.278  44.108  0.00  0.00    +0.000 A 
ATOM     26  H   UNL     1      34.302  29.358  43.229  0.00  0.00    +0.000 HD
ATOM     27  C   UNL     1      32.363  29.671  44.187  0.00  0.00    +0.000 A 
ATOM     28  C   UNL     1      31.656  29.527  45.355  0.00  0.00    +0.000 A 
ENDBRANCH  17  22
ENDBRANCH   1  17
BRANCH   6  29
ATOM     29  C   UNL     1      37.749  31.812  49.599  0.00  0.00    +0.000 C 
ATOM     30  O   UNL     1      36.742  32.311  50.176  0.00  0.00    +0.000 OA
BRANCH  29  31
ATOM     31  C   UNL     1      38.591  32.567  48.708  0.00  0.00    +0.000 A 
ATOM     32  C   UNL     1      39.122  33.758  49.178  0.00  0.00    +0.000 A 
ATOM     33  C   UNL     1      39.947  34.507  48.310  0.00  0.00    +0.000 A 
ATOM     34  N   UNL     1      40.171  34.009  47.056  0.00  0.00    +0.000 NA
ATOM     35  C   UNL     1      39.641  32.859  46.642  0.00  0.00    +0.000 A 
ATOM     36  N   UNL     1      38.851  32.133  47.462  0.00  0.00    +0.000 NA
ATOM     37  H   UNL     1      38.926  34.118  50.168  0.00  0.00    +0.000 HD
ATOM     38  H   UNL     1      40.368  35.441  48.666  0.00  0.00    +0.000 HD
ATOM     39  H   UNL     1      39.851  32.501  45.627  0.00  0.00    +0.000 HD
ENDBRANCH  29  31
ENDBRANCH   6  29
TORSDOF 5
