
 OpenBabel03272507283D

 41 43  0  0  1  0  0  0  0  0999 V2000
   37.0170   29.8920   49.0200 C   0  0  0  0  0  0  0  0  0  0  0  0
   37.4900   30.5210   47.8510 C   0  0  0  0  0  0  0  0  0  0  0  0
   36.6540   30.5230   46.7390 C   0  0  0  0  0  0  0  0  0  0  0  0
   35.4680   29.9430   46.8290 N   0  0  0  0  0  0  0  0  0  0  0  0
   35.0290   29.3450   47.9540 C   0  0  0  0  0  0  0  0  0  0  0  0
   35.8060   29.3240   49.0360 N   0  0  0  0  0  0  0  0  0  0  0  0
   37.0990   31.1020   45.5510 N   0  0  0  0  0  0  0  0  0  0  0  0
   38.0540   32.2340   45.4320 C   0  0  0  0  0  0  0  0  0  0  0  0
   37.9610   32.7480   44.0380 C   0  0  0  0  0  0  0  0  0  0  0  0
   36.7780   32.1180   43.4890 C   0  0  0  0  0  0  0  0  0  0  0  0
   36.7900   30.8080   44.1930 C   0  0  2  0  0  0  0  0  0  0  0  0
   37.7330   29.9350   49.8430 H   0  0  0  0  0  0  0  0  0  0  0  0
   38.4540   30.9970   47.7680 H   0  0  0  0  0  0  0  0  0  0  0  0
   34.0690   28.8650   48.0570 H   0  0  0  0  0  0  0  0  0  0  0  0
   39.0230   32.0610   45.8570 H   0  0  0  0  0  0  0  0  0  0  0  0
   37.5760   32.9650   46.1740 H   0  0  0  0  0  0  0  0  0  0  0  0
   37.5120   33.8480   44.2470 H   0  0  0  0  0  0  0  0  0  0  0  0
   38.7990   33.0900   43.4990 H   0  0  0  0  0  0  0  0  0  0  0  0
   35.8020   32.5930   43.6560 H   0  0  0  0  0  0  0  0  0  0  0  0
   36.9420   31.8940   42.4000 H   0  0  0  0  0  0  0  0  0  0  0  0
   35.4430   30.1070   43.9890 C   0  0  0  0  0  0  0  0  0  0  0  0
   34.4490   30.9130   44.5030 F   0  0  0  0  0  0  0  0  0  0  0  0
   35.3240   28.8970   44.5960 F   0  0  0  0  0  0  0  0  0  0  0  0
   35.2270   30.0460   42.6270 F   0  0  0  0  0  0  0  0  0  0  0  0
   37.7920   29.9130   43.6870 C   0  0  2  0  0  0  0  0  0  0  0  0
   38.6650   29.8700   44.2950 H   0  0  0  0  0  0  0  0  0  0  0  0
   40.8580   30.6260   43.7250 Cl  0  0  0  0  0  0  0  0  0  0  0  0
   39.8760   30.5500   42.2740 C   0  0  0  0  0  0  0  0  0  0  0  0
   38.5350   30.2070   42.3420 C   0  0  0  0  0  0  0  0  0  0  0  0
   37.9660   30.0870   41.0880 C   0  0  0  0  0  0  0  0  0  0  0  0
   36.9030   29.7750   41.0620 H   0  0  0  0  0  0  0  0  0  0  0  0
   38.5490   30.2650   39.8640 C   0  0  0  0  0  0  0  0  0  0  0  0
   37.9800   30.1390   38.9700 H   0  0  0  0  0  0  0  0  0  0  0  0
   39.8800   30.6070   39.9330 C   0  0  0  0  0  3  0  0  0  0  0  0
   40.5630   30.7540   41.1080 C   0  0  0  0  0  3  0  0  0  0  0  0
   37.1930   28.8460   43.3450 O   0  0  0  0  0  0  0  0  0  0  0  0
   37.5190   27.6000   42.9530 C   0  0  0  0  0  0  0  0  0  0  0  0
   36.5660   27.0450   42.3960 O   0  0  0  0  0  0  0  0  0  0  0  0
   38.4770   26.5540   42.8570 N   0  0  0  0  0  0  0  0  0  0  0  0
   38.5720   25.8100   43.5960 H   0  0  0  0  0  0  0  0  0  0  0  0
   39.0750   26.5840   42.0010 H   0  0  0  0  0  0  0  0  0  0  0  0
  1  6  1  0  0  0  0
  1 12  1  0  0  0  0
  2  1  2  0  0  0  0
  3  4  2  0  0  0  0
  3  2  1  0  0  0  0
  4  5  1  0  0  0  0
  5 14  1  0  0  0  0
  5  6  2  0  0  0  0
  7  3  1  0  0  0  0
  8  7  1  0  0  0  0
  8 15  1  0  0  0  0
  8 16  1  0  0  0  0
  9 17  1  0  0  0  0
  9  8  1  0  0  0  0
 10 19  1  0  0  0  0
 10  9  1  0  0  0  0
 10 11  1  0  0  0  0
 11 21  1  6  0  0  0
 11  7  1  0  0  0  0
 13  2  1  0  0  0  0
 18  9  1  0  0  0  0
 20 10  1  0  0  0  0
 21 22  1  0  0  0  0
 21 23  1  0  0  0  0
 24 21  1  0  0  0  0
 25 11  1  0  0  0  0
 25 26  1  1  0  0  0
 28 29  1  0  0  0  0
 28 27  1  0  0  0  0
 29 25  1  0  0  0  0
 30 29  2  0  0  0  0
 31 30  1  0  0  0  0
 32 34  2  0  0  0  0
 32 30  1  0  0  0  0
 33 32  1  0  0  0  0
 34 35  1  0  0  0  0
 35 28  2  0  0  0  0
 36 25  1  0  0  0  0
 37 36  1  0  0  0  0
 38 37  2  0  0  0  0
 39 37  1  0  0  0  0
 39 40  1  0  0  0  0
 41 39  1  0  0  0  0
M  END
>  <minimizedAffinity>
-4.31628942

>  <minimizedRMSD>
3.85937858

$$$$
