
 OpenBabel03272501183D

 30 32  0  0  0  0  0  0  0  0999 V2000
   38.3190   32.2200   47.3930 C   0  0  0  0  0  0  0  0  0  0  0  0
   38.1570   32.0950   48.7660 C   0  0  0  0  0  0  0  0  0  0  0  0
   38.8690   33.0140   49.5260 C   0  0  0  0  0  0  0  0  0  0  0  0
   39.6800   33.9790   48.9210 C   0  0  0  0  0  0  0  0  0  0  0  0
   39.7930   34.0420   47.5470 C   0  0  0  0  0  0  0  0  0  0  0  0
   39.0990   33.1470   46.7730 C   0  0  0  0  0  0  0  0  0  0  0  0
   38.7950   32.9820   50.6090 H   0  0  0  0  0  0  0  0  0  0  0  0
   40.2050   34.6600   49.5790 H   0  0  0  0  0  0  0  0  0  0  0  0
   40.4310   34.8060   47.1350 H   0  0  0  0  0  0  0  0  0  0  0  0
   35.9360   31.2060   49.3190 C   0  0  0  0  0  0  0  0  0  0  0  0
   37.3250   31.1020   49.3660 C   0  0  0  0  0  0  0  0  0  0  0  0
   37.8600   29.9820   50.0290 C   0  0  0  0  0  0  0  0  0  0  0  0
   37.0000   29.0770   50.5790 N   0  0  0  0  0  0  0  0  0  0  0  0
   35.6600   29.2300   50.5010 C   0  0  0  0  0  0  0  0  0  0  0  0
   35.1230   30.2970   49.8710 N   0  0  0  0  0  0  0  0  0  0  0  0
   35.4600   32.0470   48.8230 H   0  0  0  0  0  0  0  0  0  0  0  0
   38.9330   29.8510   50.0950 H   0  0  0  0  0  0  0  0  0  0  0  0
   35.0630   28.4550   50.9700 H   0  0  0  0  0  0  0  0  0  0  0  0
   37.6360   31.3350   46.5380 O   0  0  0  0  0  0  0  0  0  0  0  0
   36.7040   31.6200   46.2680 H   0  0  0  0  0  0  0  0  0  0  0  0
   39.2220   33.2230   45.3840 O   0  0  0  0  0  0  0  0  0  0  0  0
   36.9780   32.5340   43.4760 Cl  0  0  0  0  0  0  0  0  0  0  0  0
   38.4840   31.6580   43.5950 C   0  0  0  0  0  0  0  0  0  0  0  0
   39.3840   32.1480   44.5460 C   0  0  0  0  0  0  0  0  0  0  0  0
   40.5840   31.4730   44.6620 C   0  0  0  0  0  0  0  0  0  0  0  0
   41.3540   31.7670   45.3660 H   0  0  0  0  0  0  0  0  0  0  0  0
   40.9290   30.3770   43.9110 C   0  0  0  0  0  0  0  0  0  0  0  0
   41.8690   29.8540   44.0050 H   0  0  0  0  0  0  0  0  0  0  0  0
   40.0250   29.9040   42.9730 C   0  0  0  0  0  0  0  0  0  0  0  0
   38.8140   30.5560   42.8310 C   0  0  0  0  0  0  0  0  0  0  0  0
  1  2  1  0  0  0  0
  2 11  1  0  0  0  0
  2  3  2  0  0  0  0
  3  7  1  0  0  0  0
  4  3  1  0  0  0  0
  4  8  1  0  0  0  0
  5  4  2  0  0  0  0
  6  1  2  0  0  0  0
  6  5  1  0  0  0  0
  9  5  1  0  0  0  0
 10 11  2  0  0  0  0
 10 15  1  0  0  0  0
 11 12  1  0  0  0  0
 12 17  1  0  0  0  0
 12 13  2  0  0  0  0
 14 13  1  0  0  0  0
 14 18  1  0  0  0  0
 15 14  2  0  0  0  0
 16 10  1  0  0  0  0
 19  1  1  0  0  0  0
 20 19  1  0  0  0  0
 21  6  1  0  0  0  0
 22 23  1  0  0  0  0
 23 24  1  0  0  0  0
 24 25  2  0  0  0  0
 24 21  1  0  0  0  0
 25 26  1  0  0  0  0
 27 28  1  0  0  0  0
 27 25  1  0  0  0  0
 29 27  2  0  0  0  0
 30 29  1  0  0  0  0
 30 23  2  0  0  0  0
M  END
>  <minimizedAffinity>
-5.26227951

>  <minimizedRMSD>
1.82793355

$$$$
