
     RDKit          3D

 21 22  0  0  0  0  0  0  0  0999 V2000
   37.2668   30.1803   51.4189 C   0  0  0  0  0  0  0  0  0  0  0  0
   38.1200   30.7613   50.4763 C   0  0  0  0  0  0  0  0  0  0  0  0
   37.8457   30.5485   49.1082 C   0  0  0  0  0  0  0  0  0  0  0  0
   36.7655   29.7893   48.7783 N   0  0  0  0  0  0  0  0  0  0  0  0
   35.9615   29.2426   49.7218 C   0  0  0  0  0  0  0  0  0  0  0  0
   36.2006   29.4300   51.0368 N   0  0  0  0  0  0  0  0  0  0  0  0
   34.5419   28.2471   49.2937 S   0  0  0  0  0  0  0  0  0  0  0  0
   37.5323   30.3817   52.4359 H   0  0  0  0  0  0  0  0  0  0  0  0
   38.9756   31.3627   50.7463 H   0  0  0  0  0  0  0  0  0  0  0  0
   38.4654   30.9693   48.3465 H   0  0  0  0  0  0  0  0  0  0  0  0
   33.1920   26.0534   47.3769 Cl  0  0  0  0  0  0  0  0  0  0  0  0
   34.5152   25.5354   48.3677 C   0  0  0  0  0  0  0  0  0  0  0  0
   35.0376   26.5361   49.1602 C   0  0  0  0  0  0  0  0  0  0  0  0
   36.1124   26.2592   50.0137 C   0  0  0  0  0  0  0  0  0  0  0  0
   36.6172   26.9429   50.6847 H   0  0  0  0  0  0  0  0  0  0  0  0
   36.6606   24.9740   50.0689 C   0  0  0  0  0  0  0  0  0  0  0  0
   37.4901   24.7065   50.7101 H   0  0  0  0  0  0  0  0  0  0  0  0
   36.1289   23.9821   49.2711 C   0  0  0  0  0  0  0  0  0  0  0  0
   35.0703   24.2752   48.4372 C   0  0  0  0  0  0  0  0  0  0  0  0
   36.5351   22.9794   49.2953 H   0  0  0  0  0  0  0  0  0  0  0  0
   34.6096   23.5427   47.7879 H   0  0  0  0  0  0  0  0  0  0  0  0
  2  1  2  0
  3  2  1  0
  4  3  2  0
  4  5  1  0
  5  6  2  0
  6  1  1  0
  7  5  1  0
  1  8  1  0
  2  9  1  0
  3 10  1  0
 11 12  1  0
 12 13  2  0
 13 14  1  0
 14 15  1  0
 14 16  2  0
 16 17  1  0
 16 18  1  0
 18 19  2  0
 19 12  1  0
 18 20  1  0
 19 21  1  0
  7 13  1  0
M  ISO  5   8  14   9  14  10  14  15  15  17  16
M  END
>  <DihAtoms>  (1) 
4,6,12,11

>  <DihDeg>  (1) 
-0.13984544012845937

$$$$
