
 OpenBabel03272504193D

 27 28  0  0  0  0  0  0  0  0999 V2000
   37.2780   29.2620   47.6200 O   0  0  0  0  0  0  0  0  0  0  0  0
   36.9840   30.2020   48.7680 P   0  0  2  0  0  0  0  0  0  0  0  0
   38.3120   30.1020   49.8470 O   0  0  0  0  0  0  0  0  0  0  0  0
   39.1630   30.0560   49.3670 H   0  0  0  0  0  0  0  0  0  0  0  0
   35.5790   29.7340   49.5650 O   0  0  0  0  0  0  0  0  0  0  0  0
   35.2390   28.4830   49.1190 C   0  0  0  0  0  0  0  0  0  0  0  0
   35.9960   28.0260   48.4190 H   0  0  0  0  0  0  0  0  0  0  0  0
   35.2130   27.7560   49.9780 H   0  0  0  0  0  0  0  0  0  0  0  0
   33.9250   28.4380   48.4330 C   0  0  0  0  0  0  0  0  0  0  0  0
   33.8500   29.0050   47.1710 C   0  0  0  0  0  0  0  0  0  0  0  0
   32.6220   28.9790   46.4920 C   0  0  0  0  0  0  0  0  0  0  0  0
   31.5750   28.3930   47.1250 N   0  0  0  0  0  0  0  0  0  0  0  0
   31.6670   27.8480   48.3530 C   0  0  0  0  0  0  0  0  0  0  0  0
   32.8430   27.8760   48.9920 N   0  0  0  0  0  0  0  0  0  0  0  0
   34.6600   29.4820   46.6300 H   0  0  0  0  0  0  0  0  0  0  0  0
   32.4720   29.3900   45.5200 H   0  0  0  0  0  0  0  0  0  0  0  0
   30.8370   27.3810   48.8590 H   0  0  0  0  0  0  0  0  0  0  0  0
   36.8770   31.7690   48.1630 O   0  0  0  0  0  0  0  0  0  0  0  0
   37.1160   33.5600   50.4900 Cl  0  0  0  0  0  0  0  0  0  0  0  0
   38.2040   33.4200   49.1370 C   0  0  0  0  0  0  0  0  0  0  0  0
   38.0250   32.5460   48.0660 C   0  0  0  0  0  0  0  0  0  0  0  0
   38.9490   32.5010   47.0240 C   0  0  0  0  0  0  0  0  0  0  0  0
   38.7420   31.7980   46.2290 H   0  0  0  0  0  0  0  0  0  0  0  0
   40.0320   33.3520   47.1010 C   0  0  0  0  0  0  0  0  0  0  0  0
   40.7040   33.2530   46.2480 H   0  0  0  0  0  0  0  0  0  0  0  0
   40.2210   34.2210   48.1530 C   0  0  0  0  0  3  0  0  0  0  0  0
   39.3020   34.2590   49.1820 C   0  0  0  0  0  3  0  0  0  0  0  0
  2  1  2  6  0  0  0
  2  5  1  0  0  0  0
  2  3  1  0  0  0  0
  4  3  1  0  0  0  0
  6  5  1  0  0  0  0
  6  8  1  0  0  0  0
  7  6  1  0  0  0  0
  9 14  1  0  0  0  0
  9  6  1  0  0  0  0
 10  9  2  0  0  0  0
 11 12  2  0  0  0  0
 11 10  1  0  0  0  0
 12 13  1  0  0  0  0
 13 17  1  0  0  0  0
 13 14  2  0  0  0  0
 15 10  1  0  0  0  0
 16 11  1  0  0  0  0
 18  2  1  0  0  0  0
 20 27  1  0  0  0  0
 20 19  1  0  0  0  0
 21 18  1  0  0  0  0
 21 20  2  0  0  0  0
 22 24  2  0  0  0  0
 22 21  1  0  0  0  0
 23 22  1  0  0  0  0
 24 26  1  0  0  0  0
 25 24  1  0  0  0  0
 26 27  2  0  0  0  0
M  END
>  <minimizedAffinity>
-3.23871803

>  <minimizedRMSD>
3.0219481

$$$$
