REMARK  Name = 
REMARK  2 active torsions:
REMARK  status: ('A' for Active; 'I' for Inactive)
REMARK    1  A    between atoms: C_5  and  S_7
REMARK    2  A    between atoms: S_7  and  C_13
REMARK                            x       y       z     vdW  Elec       q    Type
REMARK                         _______ _______ _______ _____ _____    ______ ____
ROOT
ATOM      1  S   UNL     1      34.542  28.247  49.294  0.00  0.00    +0.000 S 
ENDROOT
BRANCH   1   6
ATOM      2  C   UNL     1      37.267  30.180  51.419  0.00  0.00    +0.000 A 
ATOM      3  C   UNL     1      38.120  30.761  50.476  0.00  0.00    +0.000 A 
ATOM      4  C   UNL     1      37.846  30.549  49.108  0.00  0.00    +0.000 A 
ATOM      5  N   UNL     1      36.766  29.789  48.778  0.00  0.00    +0.000 NA
ATOM      6  C   UNL     1      35.962  29.243  49.722  0.00  0.00    +0.000 A 
ATOM      7  N   UNL     1      36.201  29.430  51.037  0.00  0.00    +0.000 NA
ATOM      8  H   UNL     1      37.532  30.382  52.436  0.00  0.00    +0.000 HD
ATOM      9  H   UNL     1      38.976  31.363  50.746  0.00  0.00    +0.000 HD
ATOM     10  H   UNL     1      38.465  30.969  48.346  0.00  0.00    +0.000 HD
ENDBRANCH   1   6
BRANCH   1  13
ATOM     11 CL   UNL     1      33.192  26.053  47.377  0.00  0.00    +0.000 Cl
ATOM     12  C   UNL     1      34.515  25.535  48.368  0.00  0.00    +0.000 A 
ATOM     13  C   UNL     1      35.038  26.536  49.160  0.00  0.00    +0.000 A 
ATOM     14  C   UNL     1      36.112  26.259  50.014  0.00  0.00    +0.000 A 
ATOM     15  H   UNL     1      36.617  26.943  50.685  0.00  0.00    +0.000 HD
ATOM     16  C   UNL     1      36.661  24.974  50.069  0.00  0.00    +0.000 A 
ATOM     17  H   UNL     1      37.490  24.706  50.710  0.00  0.00    +0.000 HD
ATOM     18  C   UNL     1      36.129  23.982  49.271  0.00  0.00    +0.000 A 
ATOM     19  C   UNL     1      35.070  24.275  48.437  0.00  0.00    +0.000 A 
ENDBRANCH   1  13
TORSDOF 2
