
 OpenBabel03272504193D

 27 28  0  0  0  0  0  0  0  0999 V2000
   40.1090   32.2630   44.8630 O   0  0  0  0  0  0  0  0  0  0  0  0
   38.7420   31.6330   44.7030 P   0  0  2  0  0  0  0  0  0  0  0  0
   37.5890   32.8870   44.8890 O   0  0  0  0  0  0  0  0  0  0  0  0
   37.8800   33.7100   44.4480 H   0  0  0  0  0  0  0  0  0  0  0  0
   38.4940   30.4640   45.8870 O   0  0  0  0  0  0  0  0  0  0  0  0
   37.3280   30.7670   46.5410 C   0  0  0  0  0  0  0  0  0  0  0  0
   36.9530   31.8130   46.3430 H   0  0  0  0  0  0  0  0  0  0  0  0
   36.4890   30.1190   46.1640 H   0  0  0  0  0  0  0  0  0  0  0  0
   37.4170   30.6040   48.0120 C   0  0  0  0  0  0  0  0  0  0  0  0
   38.2520   31.4730   48.6960 C   0  0  0  0  0  0  0  0  0  0  0  0
   38.3590   31.3470   50.0900 C   0  0  0  0  0  0  0  0  0  0  0  0
   37.6280   30.3700   50.6830 N   0  0  0  0  0  0  0  0  0  0  0  0
   36.8220   29.5340   50.0010 C   0  0  0  0  0  0  0  0  0  0  0  0
   36.7260   29.6630   48.6720 N   0  0  0  0  0  0  0  0  0  0  0  0
   38.8520   32.2660   48.2620 H   0  0  0  0  0  0  0  0  0  0  0  0
   38.9750   31.9710   50.6960 H   0  0  0  0  0  0  0  0  0  0  0  0
   36.2400   28.7570   50.4690 H   0  0  0  0  0  0  0  0  0  0  0  0
   38.6260   30.9960   43.1500 O   0  0  0  0  0  0  0  0  0  0  0  0
   41.2510   29.8070   42.5370 Cl  0  0  0  0  0  0  0  0  0  0  0  0
   39.7200   28.9900   42.6860 C   0  0  0  0  0  0  0  0  0  0  0  0
   38.5120   29.6220   42.9800 C   0  0  0  0  0  0  0  0  0  0  0  0
   37.3320   28.8870   43.0800 C   0  0  0  0  0  0  0  0  0  0  0  0
   36.4360   29.4470   43.3110 H   0  0  0  0  0  0  0  0  0  0  0  0
   37.4150   27.5250   42.8780 C   0  0  0  0  0  0  0  0  0  0  0  0
   36.4500   27.0280   42.9750 H   0  0  0  0  0  0  0  0  0  0  0  0
   38.6020   26.8880   42.5880 C   0  0  0  0  0  3  0  0  0  0  0  0
   39.7670   27.6220   42.4890 C   0  0  0  0  0  3  0  0  0  0  0  0
  2  1  2  1  0  0  0
  2  3  1  0  0  0  0
  2  5  1  0  0  0  0
  4  3  1  0  0  0  0
  5  6  1  0  0  0  0
  6  9  1  0  0  0  0
  7  6  1  0  0  0  0
  8  6  1  0  0  0  0
  9 14  2  0  0  0  0
  9 10  1  0  0  0  0
 10 11  2  0  0  0  0
 11 12  1  0  0  0  0
 11 16  1  0  0  0  0
 13 17  1  0  0  0  0
 13 12  2  0  0  0  0
 14 13  1  0  0  0  0
 15 10  1  0  0  0  0
 18  2  1  0  0  0  0
 19 20  1  0  0  0  0
 20 21  1  0  0  0  0
 21 22  2  0  0  0  0
 21 18  1  0  0  0  0
 22 23  1  0  0  0  0
 24 25  1  0  0  0  0
 24 22  1  0  0  0  0
 26 24  2  0  0  0  0
 27 26  1  0  0  0  0
 27 20  2  0  0  0  0
M  END
>  <minimizedAffinity>
-4.65250683

>  <minimizedRMSD>
7.6668601

$$$$
