REMARK  Name = 
REMARK  2 active torsions:
REMARK  status: ('A' for Active; 'I' for Inactive)
REMARK    1  A    between atoms: C_5  and  S_7
REMARK    2  A    between atoms: S_7  and  C_13
REMARK                            x       y       z     vdW  Elec       q    Type
REMARK                         _______ _______ _______ _____ _____    ______ ____
ROOT
ATOM      1  S   UNL     1      34.542  28.247  49.294  0.00  0.00    +0.000 S 
ENDROOT
BRANCH   1   6
ATOM      2  C   UNL     1      37.267  30.180  51.419  0.00  0.00    +0.000 A 
ATOM      3  C   UNL     1      38.120  30.761  50.476  0.00  0.00    +0.000 A 
ATOM      4  C   UNL     1      37.846  30.549  49.108  0.00  0.00    +0.000 A 
ATOM      5  N   UNL     1      36.766  29.789  48.778  0.00  0.00    +0.000 NA
ATOM      6  C   UNL     1      35.962  29.243  49.722  0.00  0.00    +0.000 A 
ATOM      7  N   UNL     1      36.201  29.430  51.037  0.00  0.00    +0.000 NA
ATOM      8  H   UNL     1      37.532  30.382  52.436  0.00  0.00    +0.000 HD
ATOM      9  H   UNL     1      38.976  31.363  50.746  0.00  0.00    +0.000 HD
ATOM     10  H   UNL     1      38.465  30.969  48.346  0.00  0.00    +0.000 HD
ENDBRANCH   1   6
BRANCH   1  13
ATOM     11 CL   UNL     1      33.688  26.231  46.945  0.00  0.00    +0.000 Cl
ATOM     12  C   UNL     1      34.718  25.608  48.191  0.00  0.00    +0.000 A 
ATOM     13  C   UNL     1      35.038  26.536  49.160  0.00  0.00    +0.000 A 
ATOM     14  C   UNL     1      35.864  26.170  50.230  0.00  0.00    +0.000 A 
ATOM     15  H   UNL     1      36.193  26.791  51.054  0.00  0.00    +0.000 HD
ATOM     16  C   UNL     1      36.368  24.869  50.323  0.00  0.00    +0.000 A 
ATOM     17  H   UNL     1      37.009  24.535  51.128  0.00  0.00    +0.000 HD
ATOM     18  C   UNL     1      36.041  23.951  49.347  0.00  0.00    +0.000 A 
ATOM     19  C   UNL     1      35.226  24.331  48.302  0.00  0.00    +0.000 A 
ENDBRANCH   1  13
TORSDOF 2
