REMARK  Name = 
REMARK  2 active torsions:
REMARK  status: ('A' for Active; 'I' for Inactive)
REMARK    1  A    between atoms: C_5  and  S_7
REMARK    2  A    between atoms: S_7  and  C_13
REMARK                            x       y       z     vdW  Elec       q    Type
REMARK                         _______ _______ _______ _____ _____    ______ ____
ROOT
ATOM      1  S   UNL     1      34.542  28.247  49.294  0.00  0.00    +0.000 S 
ENDROOT
BRANCH   1   6
ATOM      2  C   UNL     1      37.267  30.180  51.419  0.00  0.00    +0.000 A 
ATOM      3  C   UNL     1      38.120  30.761  50.476  0.00  0.00    +0.000 A 
ATOM      4  C   UNL     1      37.846  30.549  49.108  0.00  0.00    +0.000 A 
ATOM      5  N   UNL     1      36.766  29.789  48.778  0.00  0.00    +0.000 NA
ATOM      6  C   UNL     1      35.962  29.243  49.722  0.00  0.00    +0.000 A 
ATOM      7  N   UNL     1      36.201  29.430  51.037  0.00  0.00    +0.000 NA
ATOM      8  H   UNL     1      37.532  30.382  52.436  0.00  0.00    +0.000 HD
ATOM      9  H   UNL     1      38.976  31.363  50.746  0.00  0.00    +0.000 HD
ATOM     10  H   UNL     1      38.465  30.969  48.346  0.00  0.00    +0.000 HD
ENDBRANCH   1   6
BRANCH   1  13
ATOM     11 CL   UNL     1      35.574  26.803  46.618  0.00  0.00    +0.000 Cl
ATOM     12  C   UNL     1      35.490  25.842  48.057  0.00  0.00    +0.000 A 
ATOM     13  C   UNL     1      35.038  26.536  49.160  0.00  0.00    +0.000 A 
ATOM     14  C   UNL     1      34.918  25.884  50.393  0.00  0.00    +0.000 A 
ATOM     15  H   UNL     1      34.580  26.302  51.333  0.00  0.00    +0.000 HD
ATOM     16  C   UNL     1      35.255  24.532  50.515  0.00  0.00    +0.000 A 
ATOM     17  H   UNL     1      35.181  23.980  51.443  0.00  0.00    +0.000 HD
ATOM     18  C   UNL     1      35.706  23.849  49.405  0.00  0.00    +0.000 A 
ATOM     19  C   UNL     1      35.816  24.510  48.199  0.00  0.00    +0.000 A 
ENDBRANCH   1  13
TORSDOF 2
