
 OpenBabel03272506403D

 19 20  0  0  0  0  0  0  0  0999 V2000
   33.2260   28.3360   49.0150 S   0  0  0  0  0  0  0  0  0  0  0  0
   36.9780   29.3850   49.7220 C   0  0  0  0  0  0  0  0  0  0  0  0
   37.3160   30.2530   48.6790 C   0  0  0  0  0  0  0  0  0  0  0  0
   36.3390   30.5340   47.7010 C   0  0  0  0  0  0  0  0  0  0  0  0
   35.1170   29.9450   47.8230 N   0  0  0  0  0  0  0  0  0  0  0  0
   34.8270   29.1090   48.8490 C   0  0  0  0  0  0  0  0  0  0  0  0
   35.7430   28.8230   49.7980 N   0  0  0  0  0  0  0  0  0  0  0  0
   37.7640   29.2160   50.4280 H   0  0  0  0  0  0  0  0  0  0  0  0
   38.2880   30.7160   48.5890 H   0  0  0  0  0  0  0  0  0  0  0  0
   36.5440   31.1900   46.8840 H   0  0  0  0  0  0  0  0  0  0  0  0
   30.7230   28.5820   47.0180 Cl  0  0  0  0  0  0  0  0  0  0  0  0
   31.8790   27.3330   46.6930 C   0  0  0  0  0  0  0  0  0  0  0  0
   32.9210   27.2950   47.5950 C   0  0  0  0  0  0  0  0  0  0  0  0
   33.9290   26.3340   47.4550 C   0  0  0  0  0  0  0  0  0  0  0  0
   34.7990   26.1910   48.0850 H   0  0  0  0  0  0  0  0  0  0  0  0
   33.8880   25.4110   46.4050 C   0  0  0  0  0  0  0  0  0  0  0  0
   34.6400   24.6490   46.2500 H   0  0  0  0  0  0  0  0  0  0  0  0
   32.8400   25.4600   45.5090 C   0  0  0  0  0  3  0  0  0  0  0  0
   31.8560   26.4150   45.6650 C   0  0  0  0  0  3  0  0  0  0  0  0
  2  7  1  0  0  0  0
  2  8  1  0  0  0  0
  3  2  2  0  0  0  0
  4  5  2  0  0  0  0
  4  3  1  0  0  0  0
  5  6  1  0  0  0  0
  6  1  1  0  0  0  0
  6  7  2  0  0  0  0
  9  3  1  0  0  0  0
 10  4  1  0  0  0  0
 12 11  1  0  0  0  0
 12 13  1  0  0  0  0
 13  1  1  0  0  0  0
 14 13  2  0  0  0  0
 14 15  1  0  0  0  0
 16 14  1  0  0  0  0
 17 16  1  0  0  0  0
 18 19  1  0  0  0  0
 18 16  2  0  0  0  0
 19 12  2  0  0  0  0
M  END
>  <minimizedAffinity>
-3.28628135

>  <minimizedRMSD>
3.12953615

$$$$
