REMARK  Name = 
REMARK  5 active torsions:
REMARK  status: ('A' for Active; 'I' for Inactive)
REMARK    1  A    between atoms: C_1  and  C_5
REMARK    2  A    between atoms: C_2  and  C_9
REMARK    3  A    between atoms: C_9  and  S_10
REMARK    4  A    between atoms: C_9  and  C_23
REMARK    5  A    between atoms: S_10  and  C_11
REMARK                            x       y       z     vdW  Elec       q    Type
REMARK                         _______ _______ _______ _____ _____    ______ ____
ROOT
ATOM      1  C   UNL     1      37.380  32.467  49.840  0.00  0.00    +0.000 C 
ATOM      2  H   UNL     1      38.159  32.179  50.676  0.00  0.00    +0.000 HD
ENDROOT
BRANCH   1   5
ATOM      3 CL   UNL     1      38.690  34.952  51.263  0.00  0.00    +0.000 Cl
ATOM      4  C   UNL     1      36.998  34.833  50.911  0.00  0.00    +0.000 A 
ATOM      5  C   UNL     1      36.696  33.643  50.292  0.00  0.00    +0.000 A 
ATOM      6  C   UNL     1      35.340  33.473  49.970  0.00  0.00    +0.000 A 
ATOM      7  H   UNL     1      34.825  32.630  49.483  0.00  0.00    +0.000 HD
ATOM      8  C   UNL     1      34.343  34.415  50.240  0.00  0.00    +0.000 A 
ATOM      9  H   UNL     1      33.287  34.369  50.028  0.00  0.00    +0.000 HD
ATOM     10  C   UNL     1      34.739  35.602  50.872  0.00  0.00    +0.000 A 
ATOM     11  C   UNL     1      36.054  35.797  51.199  0.00  0.00    +0.000 A 
ENDBRANCH   1   5
BRANCH   1  13
ATOM     12  C   UNL     1      38.284  31.564  47.813  0.00  0.00    +0.000 C 
ATOM     13  C   UNL     1      38.158  32.610  48.596  0.00  0.00    +0.000 C 
BRANCH  12  16
ATOM     14  C   UNL     1      40.576  32.742  45.144  0.00  0.00    +0.000 A 
ATOM     15  C   UNL     1      39.821  32.682  46.307  0.00  0.00    +0.000 A 
ATOM     16  C   UNL     1      39.036  31.579  46.593  0.00  0.00    +0.000 A 
ATOM     17  N   UNL     1      39.016  30.544  45.705  0.00  0.00    +0.000 NA
ATOM     18  C   UNL     1      39.761  30.634  44.587  0.00  0.00    +0.000 A 
ATOM     19  N   UNL     1      40.527  31.696  44.295  0.00  0.00    +0.000 NA
ATOM     20  H   UNL     1      41.198  33.577  44.878  0.00  0.00    +0.000 HD
ATOM     21  H   UNL     1      39.935  33.574  46.912  0.00  0.00    +0.000 HD
ATOM     22  H   UNL     1      39.660  29.744  43.965  0.00  0.00    +0.000 HD
ENDBRANCH  12  16
ENDBRANCH   1  13
BRANCH   1  23
ATOM     23  S   UNL     1      36.376  30.948  49.675  0.00  0.00    +0.000 S 
BRANCH  23  24
ATOM     24  C   UNL     1      36.718  29.815  51.015  0.00  0.00    +0.000 C 
ATOM     25  F   UNL     1      37.527  30.384  51.998  0.00  0.00    +0.000 F 
ATOM     26  F   UNL     1      35.583  29.240  51.538  0.00  0.00    +0.000 F 
ATOM     27  F   UNL     1      37.472  28.747  50.457  0.00  0.00    +0.000 F 
ENDBRANCH  23  24
ENDBRANCH   1  23
TORSDOF 5
