
 OpenBabel03272509403D

 35 37  0  0  1  0  0  0  0  0999 V2000
   37.0560   30.9500   49.0580 C   0  0  0  0  0  0  0  0  0  0  0  0
   36.7910   31.8670   50.0820 C   0  0  0  0  0  0  0  0  0  0  0  0
   37.3920   33.1190   50.1320 C   0  0  0  0  0  0  0  0  0  0  0  0
   38.2930   33.4850   49.1310 C   0  0  0  0  0  0  0  0  0  0  0  0
   38.5420   32.5800   48.1400 C   0  0  0  0  0  0  0  0  0  0  0  0
   37.9320   31.3440   48.1130 C   0  0  0  0  0  0  0  0  0  0  0  0
   36.0830   31.5700   50.8590 H   0  0  0  0  0  0  0  0  0  0  0  0
   37.1080   33.7480   50.9760 H   0  0  0  0  0  0  0  0  0  0  0  0
   38.7440   34.4650   49.1970 H   0  0  0  0  0  0  0  0  0  0  0  0
   39.2510   32.9460   47.4070 H   0  0  0  0  0  0  0  0  0  0  0  0
   36.3770   29.6700   49.0960 C   0  0  2  0  0  3  0  0  0  0  0  0
   36.9260   28.7990   49.8760 O   0  0  0  0  0  1  0  0  0  0  0  0
   33.6150   30.1640   46.8040 C   0  0  0  0  0  0  0  0  0  0  0  0
   32.9350   28.9570   46.8190 C   0  0  0  0  0  0  0  0  0  0  0  0
   33.4330   27.9440   47.6340 C   0  0  0  0  0  0  0  0  0  0  0  0
   34.5500   28.1620   48.3800 N   0  0  0  0  0  0  0  0  0  0  0  0
   35.1750   29.3320   48.3410 C   0  0  0  0  0  0  0  0  0  0  0  0
   34.6950   30.3220   47.5480 N   0  0  0  0  0  0  0  0  0  0  0  0
   33.1770   30.9080   46.1510 H   0  0  0  0  0  0  0  0  0  0  0  0
   32.0440   28.6910   46.2630 H   0  0  0  0  0  0  0  0  0  0  0  0
   32.9790   26.9590   47.7200 H   0  0  0  0  0  0  0  0  0  0  0  0
   38.3030   30.5010   47.0000 C   0  0  0  0  0  3  0  0  0  0  0  0
   38.9920   30.8460   45.9330 C   0  0  0  0  0  3  0  0  0  0  0  0
   39.4470   30.1070   44.7460 C   0  0  0  0  0  0  0  0  0  0  0  0
   38.8120   29.2030   44.6140 H   0  0  0  0  0  0  0  0  0  0  0  0
   40.5110   29.8400   44.8540 H   0  0  0  0  0  0  0  0  0  0  0  0
   41.2240   29.4920   42.3940 Cl  0  0  0  0  0  0  0  0  0  0  0  0
   40.0300   30.7950   42.3780 C   0  0  0  0  0  0  0  0  0  0  0  0
   39.2970   30.9460   43.5340 C   0  0  0  0  0  0  0  0  0  0  0  0
   38.3520   31.9780   43.5210 C   0  0  0  0  0  0  0  0  0  0  0  0
   37.7070   32.1950   44.3860 H   0  0  0  0  0  0  0  0  0  0  0  0
   38.2050   32.7630   42.3980 C   0  0  0  0  0  0  0  0  0  0  0  0
   37.4570   33.5570   42.4270 H   0  0  0  0  0  0  0  0  0  0  0  0
   38.9630   32.5660   41.2750 C   0  0  0  0  0  3  0  0  0  0  0  0
   39.9170   31.5540   41.2330 C   0  0  0  0  0  3  0  0  0  0  0  0
  1 11  1  0  0  0  0
  1  2  1  0  0  0  0
  2  3  2  0  0  0  0
  2  7  1  0  0  0  0
  3  8  1  0  0  0  0
  4  9  1  0  0  0  0
  4  3  1  0  0  0  0
  5  4  2  0  0  0  0
  6  5  1  0  0  0  0
  6  1  2  0  0  0  0
 10  5  1  0  0  0  0
 11 12  1  6  0  0  0
 13 14  2  0  0  0  0
 13 18  1  0  0  0  0
 14 15  1  0  0  0  0
 15 21  1  0  0  0  0
 15 16  2  0  0  0  0
 17 16  1  0  0  0  0
 17 11  1  0  0  0  0
 18 17  2  0  0  0  0
 19 13  1  0  0  0  0
 20 14  1  0  0  0  0
 22  6  1  0  0  0  0
 23 22  2  0  0  0  0
 24 26  1  0  0  0  0
 24 23  1  0  0  0  0
 25 24  1  0  0  0  0
 28 27  1  0  0  0  0
 28 29  1  0  0  0  0
 29 24  1  0  0  0  0
 30 29  2  0  0  0  0
 30 31  1  0  0  0  0
 32 33  1  0  0  0  0
 32 30  1  0  0  0  0
 34 32  2  0  0  0  0
 35 34  1  0  0  0  0
 35 28  2  0  0  0  0
M  END
>  <minimizedAffinity>
-6.19254303

>  <minimizedRMSD>
0.96892947

$$$$
