
 OpenBabel03272509403D

 35 37  0  0  1  0  0  0  0  0999 V2000
   37.0540   30.9540   49.0570 C   0  0  0  0  0  0  0  0  0  0  0  0
   36.8040   31.8810   50.0760 C   0  0  0  0  0  0  0  0  0  0  0  0
   37.4160   33.1270   50.1130 C   0  0  0  0  0  0  0  0  0  0  0  0
   38.3140   33.4780   49.1050 C   0  0  0  0  0  0  0  0  0  0  0  0
   38.5480   32.5650   48.1190 C   0  0  0  0  0  0  0  0  0  0  0  0
   37.9280   31.3340   48.1030 C   0  0  0  0  0  0  0  0  0  0  0  0
   36.0980   31.5950   50.8590 H   0  0  0  0  0  0  0  0  0  0  0  0
   37.1420   33.7640   50.9550 H   0  0  0  0  0  0  0  0  0  0  0  0
   38.7740   34.4550   49.1620 H   0  0  0  0  0  0  0  0  0  0  0  0
   39.2570   32.9190   47.3790 H   0  0  0  0  0  0  0  0  0  0  0  0
   36.3650   29.6810   49.1070 C   0  0  1  0  0  3  0  0  0  0  0  0
   36.8980   28.8170   49.9060 O   0  0  0  0  0  1  0  0  0  0  0  0
   33.6080   30.1730   46.8090 C   0  0  0  0  0  0  0  0  0  0  0  0
   32.9360   28.9620   46.8130 C   0  0  0  0  0  0  0  0  0  0  0  0
   33.4360   27.9470   47.6230 C   0  0  0  0  0  0  0  0  0  0  0  0
   34.5480   28.1660   48.3750 N   0  0  0  0  0  0  0  0  0  0  0  0
   35.1670   29.3410   48.3460 C   0  0  0  0  0  0  0  0  0  0  0  0
   34.6850   30.3330   47.5580 N   0  0  0  0  0  0  0  0  0  0  0  0
   33.1680   30.9190   46.1590 H   0  0  0  0  0  0  0  0  0  0  0  0
   32.0480   28.6950   46.2520 H   0  0  0  0  0  0  0  0  0  0  0  0
   32.9870   26.9590   47.7020 H   0  0  0  0  0  0  0  0  0  0  0  0
   38.2850   30.4800   46.9940 C   0  0  0  0  0  3  0  0  0  0  0  0
   38.9890   30.8060   45.9310 C   0  0  0  0  0  3  0  0  0  0  0  0
   39.4330   30.0540   44.7480 C   0  0  0  0  0  0  0  0  0  0  0  0
   38.9530   29.0490   44.7540 H   0  0  0  0  0  0  0  0  0  0  0  0
   40.5320   29.9770   44.7420 H   0  0  0  0  0  0  0  0  0  0  0  0
   36.9400   29.0650   43.3760 Cl  0  0  0  0  0  0  0  0  0  0  0  0
   37.8950   30.4220   42.7680 C   0  0  0  0  0  0  0  0  0  0  0  0
   39.0060   30.7500   43.5120 C   0  0  0  0  0  0  0  0  0  0  0  0
   39.7620   31.8250   43.0300 C   0  0  0  0  0  0  0  0  0  0  0  0
   40.6700   32.1790   43.5370 H   0  0  0  0  0  0  0  0  0  0  0  0
   39.3730   32.4790   41.8790 C   0  0  0  0  0  0  0  0  0  0  0  0
   39.9880   33.3120   41.5350 H   0  0  0  0  0  0  0  0  0  0  0  0
   38.2540   32.1080   41.1810 C   0  0  0  0  0  3  0  0  0  0  0  0
   37.4670   31.0470   41.6160 C   0  0  0  0  0  3  0  0  0  0  0  0
  1 11  1  0  0  0  0
  1  2  1  0  0  0  0
  2  3  2  0  0  0  0
  2  7  1  0  0  0  0
  3  8  1  0  0  0  0
  4  9  1  0  0  0  0
  4  3  1  0  0  0  0
  5  4  2  0  0  0  0
  6  5  1  0  0  0  0
  6  1  2  0  0  0  0
 10  5  1  0  0  0  0
 11 12  1  1  0  0  0
 13 14  2  0  0  0  0
 13 18  1  0  0  0  0
 14 15  1  0  0  0  0
 15 21  1  0  0  0  0
 15 16  2  0  0  0  0
 17 16  1  0  0  0  0
 17 11  1  0  0  0  0
 18 17  2  0  0  0  0
 19 13  1  0  0  0  0
 20 14  1  0  0  0  0
 22  6  1  0  0  0  0
 23 22  2  0  0  0  0
 24 25  1  0  0  0  0
 24 23  1  0  0  0  0
 26 24  1  0  0  0  0
 28 27  1  0  0  0  0
 28 29  1  0  0  0  0
 29 24  1  0  0  0  0
 30 29  2  0  0  0  0
 30 31  1  0  0  0  0
 32 30  1  0  0  0  0
 33 32  1  0  0  0  0
 34 35  1  0  0  0  0
 34 32  2  0  0  0  0
 35 28  2  0  0  0  0
M  END
>  <minimizedAffinity>
-5.97907686

>  <minimizedRMSD>
0.685076892

$$$$
