
 OpenBabel03272509593D

 46 49  0  0  0  0  0  0  0  0999 V2000
   37.7110   27.4830   35.3020 C   0  0  0  0  0  0  0  0  0  0  0  0
   37.8560   28.5440   35.5480 H   0  0  0  0  0  0  0  0  0  0  0  0
   36.8830   27.0910   35.9340 H   0  0  0  0  0  0  0  0  0  0  0  0
   38.9040   26.6110   35.5700 C   0  0  0  0  0  0  0  0  0  0  0  0
   39.6040   26.5910   34.7010 H   0  0  0  0  0  0  0  0  0  0  0  0
   39.4600   27.0020   36.4240 H   0  0  0  0  0  0  0  0  0  0  0  0
   38.5250   25.1880   35.8330 C   0  0  0  0  0  0  0  0  0  0  0  0
   38.0430   24.8850   37.1130 C   0  0  0  0  0  0  0  0  0  0  0  0
   37.6700   23.5980   37.4380 C   0  0  0  0  0  0  0  0  0  0  0  0
   37.7690   22.6380   36.5320 N   0  0  0  0  0  0  0  0  0  0  0  0
   38.2420   22.9570   35.2900 C   0  0  0  0  0  0  0  0  0  0  0  0
   38.6120   24.1910   34.9390 N   0  0  0  0  0  0  0  0  0  0  0  0
   37.9530   25.6540   37.8690 H   0  0  0  0  0  0  0  0  0  0  0  0
   37.2950   23.3900   38.4520 H   0  0  0  0  0  0  0  0  0  0  0  0
   38.3330   21.8370   34.3110 C   0  0  0  0  0  0  0  0  0  0  0  0
   39.3770   21.8550   33.9370 H   0  0  0  0  0  0  0  0  0  0  0  0
   38.2480   20.8850   34.8820 H   0  0  0  0  0  0  0  0  0  0  0  0
   35.6070   20.5520   34.7940 Cl  0  0  0  0  0  0  0  0  0  0  0  0
   36.0930   21.3840   33.3560 C   0  0  0  0  0  0  0  0  0  0  0  0
   37.3480   21.9370   33.2160 C   0  0  0  0  0  0  0  0  0  0  0  0
   37.7610   22.6140   32.0620 C   0  0  0  0  0  0  0  0  0  0  0  0
   38.7570   23.0300   32.0020 H   0  0  0  0  0  0  0  0  0  0  0  0
   36.8580   22.7340   31.0000 C   0  0  0  0  0  0  0  0  0  0  0  0
   37.2430   23.2680   30.1390 H   0  0  0  0  0  0  0  0  0  0  0  0
   35.5780   22.1890   31.0990 C   0  0  0  0  0  3  0  0  0  0  0  0
   35.2740   21.5450   32.2770 C   0  0  0  0  0  3  0  0  0  0  0  0
   37.2700   27.3440   33.9560 O   0  0  0  0  0  0  0  0  0  0  0  0
   35.3210   29.5050   31.8030 C   0  0  0  0  0  0  0  0  0  0  0  0
   34.7430   30.3480   32.7760 C   0  0  0  0  0  0  0  0  0  0  0  0
   35.0530   30.1290   34.1030 C   0  0  0  0  0  0  0  0  0  0  0  0
   35.9110   29.0880   34.3500 N   0  0  0  0  0  0  0  0  0  0  0  0
   36.4540   28.2950   33.4320 C   0  0  0  0  0  0  0  0  0  0  0  0
   36.1440   28.5200   32.1350 N   0  0  0  0  0  0  0  0  0  0  0  0
   35.0420   29.7240   30.7820 H   0  0  0  0  0  0  0  0  0  0  0  0
   34.0700   31.1660   32.6050 H   0  0  0  0  0  0  0  0  0  0  0  0
   36.5370   31.7620   35.9670 F   0  0  0  0  0  0  0  0  0  0  0  0
   35.2230   31.6560   36.1000 C   0  0  0  0  0  0  0  0  0  0  0  0
   34.5510   30.8940   35.2260 C   0  0  0  0  0  0  0  0  0  0  0  0
   33.1730   30.8470   35.4510 C   0  0  0  0  0  0  0  0  0  0  0  0
   32.5650   31.5200   36.4750 C   0  0  0  0  0  0  0  0  0  0  0  0
   33.3040   32.2900   37.3470 C   0  0  0  0  0  0  0  0  0  0  0  0
   34.6530   32.3480   37.1420 C   0  0  0  0  0  0  0  0  0  0  0  0
   32.4710   30.2740   34.8350 H   0  0  0  0  0  0  0  0  0  0  0  0
   31.4950   31.4910   36.6610 H   0  0  0  0  0  0  0  0  0  0  0  0
   32.8430   32.8320   38.1650 H   0  0  0  0  0  0  0  0  0  0  0  0
   35.2490   32.9490   37.8180 H   0  0  0  0  0  0  0  0  0  0  0  0
  1  2  1  0  0  0  0
  1  4  1  0  0  0  0
  1  3  1  0  0  0  0
  4  7  1  0  0  0  0
  4  6  1  0  0  0  0
  5  4  1  0  0  0  0
  7  8  1  0  0  0  0
  8  9  2  0  0  0  0
  8 13  1  0  0  0  0
  9 14  1  0  0  0  0
 10  9  1  0  0  0  0
 11 10  2  0  0  0  0
 12 11  1  0  0  0  0
 12  7  2  0  0  0  0
 15 17  1  0  0  0  0
 15 11  1  0  0  0  0
 16 15  1  0  0  0  0
 19 18  1  0  0  0  0
 20 19  1  0  0  0  0
 20 15  1  0  0  0  0
 21 20  2  0  0  0  0
 22 21  1  0  0  0  0
 23 25  2  0  0  0  0
 23 21  1  0  0  0  0
 24 23  1  0  0  0  0
 25 26  1  0  0  0  0
 26 19  2  0  0  0  0
 27  1  1  0  0  0  0
 28 33  2  0  0  0  0
 28 29  1  0  0  0  0
 29 30  2  0  0  0  0
 30 31  1  0  0  0  0
 30 38  1  0  0  0  0
 32 27  1  0  0  0  0
 32 31  2  0  0  0  0
 33 32  1  0  0  0  0
 34 28  1  0  0  0  0
 35 29  1  0  0  0  0
 36 37  1  0  0  0  0
 37 42  1  0  0  0  0
 38 39  1  0  0  0  0
 38 37  2  0  0  0  0
 39 40  2  0  0  0  0
 40 44  1  0  0  0  0
 40 41  1  0  0  0  0
 41 45  1  0  0  0  0
 42 41  2  0  0  0  0
 42 46  1  0  0  0  0
 43 39  1  0  0  0  0
M  END
>  <minimizedAffinity>
-6.88776922

$$$$

 OpenBabel03272509593D

 46 49  0  0  0  0  0  0  0  0999 V2000
   36.3780   26.3870   31.2500 C   0  0  0  0  0  0  0  0  0  0  0  0
   36.1300   26.9610   30.3460 H   0  0  0  0  0  0  0  0  0  0  0  0
   37.4840   26.2620   31.2900 H   0  0  0  0  0  0  0  0  0  0  0  0
   35.7900   25.0060   31.2950 C   0  0  0  0  0  0  0  0  0  0  0  0
   34.7740   25.0050   31.7570 H   0  0  0  0  0  0  0  0  0  0  0  0
   35.6840   24.6190   30.2800 H   0  0  0  0  0  0  0  0  0  0  0  0
   36.6170   24.0580   32.1040 C   0  0  0  0  0  0  0  0  0  0  0  0
   36.2540   22.7050   32.0630 C   0  0  0  0  0  0  0  0  0  0  0  0
   36.9630   21.7640   32.7780 C   0  0  0  0  0  0  0  0  0  0  0  0
   37.9990   22.1420   33.5130 N   0  0  0  0  0  0  0  0  0  0  0  0
   38.3340   23.4670   33.5380 C   0  0  0  0  0  0  0  0  0  0  0  0
   37.6700   24.4050   32.8580 N   0  0  0  0  0  0  0  0  0  0  0  0
   35.4120   22.3740   31.4690 H   0  0  0  0  0  0  0  0  0  0  0  0
   36.6560   20.7090   32.7270 H   0  0  0  0  0  0  0  0  0  0  0  0
   39.5060   23.8340   34.3810 C   0  0  0  0  0  0  0  0  0  0  0  0
   40.3350   23.1830   34.0350 H   0  0  0  0  0  0  0  0  0  0  0  0
   39.8120   24.8660   34.0970 H   0  0  0  0  0  0  0  0  0  0  0  0
   41.4780   22.1160   35.9520 Cl  0  0  0  0  0  0  0  0  0  0  0  0
   40.0990   22.9300   36.6080 C   0  0  0  0  0  0  0  0  0  0  0  0
   39.2530   23.6890   35.8280 C   0  0  0  0  0  0  0  0  0  0  0  0
   38.1320   24.3560   36.3390 C   0  0  0  0  0  0  0  0  0  0  0  0
   37.5000   24.9390   35.6830 H   0  0  0  0  0  0  0  0  0  0  0  0
   37.8580   24.2470   37.7060 C   0  0  0  0  0  0  0  0  0  0  0  0
   36.9770   24.7860   38.0330 H   0  0  0  0  0  0  0  0  0  0  0  0
   38.6860   23.4890   38.5330 C   0  0  0  0  0  3  0  0  0  0  0  0
   39.7610   22.8750   37.9300 C   0  0  0  0  0  3  0  0  0  0  0  0
   36.0300   27.1280   32.4150 O   0  0  0  0  0  0  0  0  0  0  0  0
   36.4020   30.6030   31.4720 C   0  0  0  0  0  0  0  0  0  0  0  0
   35.8460   31.2180   32.6150 C   0  0  0  0  0  0  0  0  0  0  0  0
   35.3800   30.4120   33.6330 C   0  0  0  0  0  0  0  0  0  0  0  0
   35.5060   29.0610   33.4290 N   0  0  0  0  0  0  0  0  0  0  0  0
   36.0300   28.4840   32.3530 C   0  0  0  0  0  0  0  0  0  0  0  0
   36.4840   29.2840   31.3620 N   0  0  0  0  0  0  0  0  0  0  0  0
   36.7490   31.2840   30.7080 H   0  0  0  0  0  0  0  0  0  0  0  0
   35.7380   32.2700   32.7940 H   0  0  0  0  0  0  0  0  0  0  0  0
   36.6150   31.9030   35.7780 F   0  0  0  0  0  0  0  0  0  0  0  0
   35.3380   31.5640   35.8740 C   0  0  0  0  0  0  0  0  0  0  0  0
   34.7820   30.8720   34.8690 C   0  0  0  0  0  0  0  0  0  0  0  0
   33.4330   30.5640   35.0660 C   0  0  0  0  0  0  0  0  0  0  0  0
   32.7430   30.9360   36.1880 C   0  0  0  0  0  0  0  0  0  0  0  0
   33.3640   31.6470   37.1920 C   0  0  0  0  0  0  0  0  0  0  0  0
   34.6820   31.9570   37.0170 C   0  0  0  0  0  0  0  0  0  0  0  0
   32.8220   30.0050   34.3500 H   0  0  0  0  0  0  0  0  0  0  0  0
   31.6960   30.7020   36.3530 H   0  0  0  0  0  0  0  0  0  0  0  0
   32.8360   31.9510   38.0880 H   0  0  0  0  0  0  0  0  0  0  0  0
   35.1860   32.5160   37.7960 H   0  0  0  0  0  0  0  0  0  0  0  0
  1  3  1  0  0  0  0
  1  4  1  0  0  0  0
  1 27  1  0  0  0  0
  2  1  1  0  0  0  0
  4  5  1  0  0  0  0
  4  7  1  0  0  0  0
  6  4  1  0  0  0  0
  7 12  1  0  0  0  0
  8  7  2  0  0  0  0
  8  9  1  0  0  0  0
  9 10  2  0  0  0  0
 10 11  1  0  0  0  0
 11 15  1  0  0  0  0
 12 11  2  0  0  0  0
 13  8  1  0  0  0  0
 14  9  1  0  0  0  0
 15 20  1  0  0  0  0
 16 15  1  0  0  0  0
 17 15  1  0  0  0  0
 18 19  1  0  0  0  0
 19 26  1  0  0  0  0
 20 21  1  0  0  0  0
 20 19  2  0  0  0  0
 21 23  2  0  0  0  0
 22 21  1  0  0  0  0
 23 24  1  0  0  0  0
 23 25  1  0  0  0  0
 26 25  2  0  0  0  0
 28 29  1  0  0  0  0
 29 35  1  0  0  0  0
 29 30  2  0  0  0  0
 30 38  1  0  0  0  0
 31 30  1  0  0  0  0
 32 27  1  0  0  0  0
 32 31  2  0  0  0  0
 33 28  2  0  0  0  0
 33 32  1  0  0  0  0
 34 28  1  0  0  0  0
 36 37  1  0  0  0  0
 37 42  1  0  0  0  0
 38 39  1  0  0  0  0
 38 37  2  0  0  0  0
 39 40  2  0  0  0  0
 40 44  1  0  0  0  0
 40 41  1  0  0  0  0
 41 45  1  0  0  0  0
 42 41  2  0  0  0  0
 42 46  1  0  0  0  0
 43 39  1  0  0  0  0
M  END
>  <minimizedAffinity>
-6.70128012

$$$$

 OpenBabel03272509593D

 46 49  0  0  0  0  0  0  0  0999 V2000
   38.1740   27.0680   34.2480 C   0  0  0  0  0  0  0  0  0  0  0  0
   38.9300   26.5170   33.6730 H   0  0  0  0  0  0  0  0  0  0  0  0
   38.5130   28.1240   34.3460 H   0  0  0  0  0  0  0  0  0  0  0  0
   37.9550   26.5580   35.6430 C   0  0  0  0  0  0  0  0  0  0  0  0
   38.6730   27.0130   36.3670 H   0  0  0  0  0  0  0  0  0  0  0  0
   36.9500   26.8200   35.9770 H   0  0  0  0  0  0  0  0  0  0  0  0
   38.1420   25.0770   35.7480 C   0  0  0  0  0  0  0  0  0  0  0  0
   38.1600   24.5290   37.0370 C   0  0  0  0  0  0  0  0  0  0  0  0
   38.3270   23.1730   37.2220 C   0  0  0  0  0  0  0  0  0  0  0  0
   38.4720   22.3800   36.1710 N   0  0  0  0  0  0  0  0  0  0  0  0
   38.4510   22.9370   34.9230 C   0  0  0  0  0  0  0  0  0  0  0  0
   38.2920   24.2450   34.7060 N   0  0  0  0  0  0  0  0  0  0  0  0
   38.0440   25.1580   37.9090 H   0  0  0  0  0  0  0  0  0  0  0  0
   38.3370   22.7700   38.2460 H   0  0  0  0  0  0  0  0  0  0  0  0
   38.6180   21.9990   33.7790 C   0  0  0  0  0  0  0  0  0  0  0  0
   39.3870   22.4620   33.1260 H   0  0  0  0  0  0  0  0  0  0  0  0
   39.0950   21.0730   34.1720 H   0  0  0  0  0  0  0  0  0  0  0  0
   38.2700   23.3850   31.0830 Cl  0  0  0  0  0  0  0  0  0  0  0  0
   37.1280   22.3180   31.8280 C   0  0  0  0  0  0  0  0  0  0  0  0
   37.3610   21.7310   33.0530 C   0  0  0  0  0  0  0  0  0  0  0  0
   36.4510   20.8670   33.6730 C   0  0  0  0  0  0  0  0  0  0  0  0
   36.6820   20.4320   34.6360 H   0  0  0  0  0  0  0  0  0  0  0  0
   35.2470   20.5840   33.0180 C   0  0  0  0  0  0  0  0  0  0  0  0
   34.5910   19.9090   33.5530 H   0  0  0  0  0  0  0  0  0  0  0  0
   34.9690   21.1560   31.7770 C   0  0  0  0  0  3  0  0  0  0  0  0
   35.9320   21.9920   31.2570 C   0  0  0  0  0  3  0  0  0  0  0  0
   36.9470   27.1210   33.5270 O   0  0  0  0  0  0  0  0  0  0  0  0
   36.0200   30.0820   31.6630 C   0  0  0  0  0  0  0  0  0  0  0  0
   35.4050   30.8260   32.6920 C   0  0  0  0  0  0  0  0  0  0  0  0
   35.3450   30.2740   33.9550 C   0  0  0  0  0  0  0  0  0  0  0  0
   35.9010   29.0270   34.0880 N   0  0  0  0  0  0  0  0  0  0  0  0
   36.4800   28.3290   33.1170 C   0  0  0  0  0  0  0  0  0  0  0  0
   36.5340   28.8800   31.8830 N   0  0  0  0  0  0  0  0  0  0  0  0
   36.0380   30.5650   30.6950 H   0  0  0  0  0  0  0  0  0  0  0  0
   34.9640   31.8010   32.6100 H   0  0  0  0  0  0  0  0  0  0  0  0
   36.6160   31.9470   35.9380 F   0  0  0  0  0  0  0  0  0  0  0  0
   35.3250   31.6730   36.0510 C   0  0  0  0  0  0  0  0  0  0  0  0
   34.7520   30.8950   35.1220 C   0  0  0  0  0  0  0  0  0  0  0  0
   33.3900   30.6650   35.3300 C   0  0  0  0  0  0  0  0  0  0  0  0
   32.7020   31.1880   36.3910 C   0  0  0  0  0  0  0  0  0  0  0  0
   33.3410   31.9830   37.3190 C   0  0  0  0  0  0  0  0  0  0  0  0
   34.6730   32.2190   37.1310 C   0  0  0  0  0  0  0  0  0  0  0  0
   32.7640   30.0540   34.6710 H   0  0  0  0  0  0  0  0  0  0  0  0
   31.6440   31.0170   36.5640 H   0  0  0  0  0  0  0  0  0  0  0  0
   32.8150   32.4080   38.1670 H   0  0  0  0  0  0  0  0  0  0  0  0
   35.1900   32.8410   37.8510 H   0  0  0  0  0  0  0  0  0  0  0  0
  1  3  1  0  0  0  0
  1  4  1  0  0  0  0
  2  1  1  0  0  0  0
  4  7  1  0  0  0  0
  4  6  1  0  0  0  0
  4  5  1  0  0  0  0
  7  8  1  0  0  0  0
  8  9  2  0  0  0  0
  8 13  1  0  0  0  0
  9 14  1  0  0  0  0
 10  9  1  0  0  0  0
 11 10  2  0  0  0  0
 12 11  1  0  0  0  0
 12  7  2  0  0  0  0
 15 17  1  0  0  0  0
 15 11  1  0  0  0  0
 16 15  1  0  0  0  0
 18 19  1  0  0  0  0
 19 20  1  0  0  0  0
 20 21  2  0  0  0  0
 20 15  1  0  0  0  0
 21 22  1  0  0  0  0
 23 24  1  0  0  0  0
 23 21  1  0  0  0  0
 25 23  2  0  0  0  0
 26 25  1  0  0  0  0
 26 19  2  0  0  0  0
 27  1  1  0  0  0  0
 28 33  2  0  0  0  0
 28 29  1  0  0  0  0
 29 30  2  0  0  0  0
 30 31  1  0  0  0  0
 30 38  1  0  0  0  0
 32 27  1  0  0  0  0
 32 31  2  0  0  0  0
 33 32  1  0  0  0  0
 34 28  1  0  0  0  0
 35 29  1  0  0  0  0
 36 37  1  0  0  0  0
 37 42  1  0  0  0  0
 38 39  1  0  0  0  0
 38 37  2  0  0  0  0
 39 40  2  0  0  0  0
 40 44  1  0  0  0  0
 40 41  1  0  0  0  0
 41 45  1  0  0  0  0
 42 41  2  0  0  0  0
 42 46  1  0  0  0  0
 43 39  1  0  0  0  0
M  END
>  <minimizedAffinity>
-6.66404057

$$$$

 OpenBabel03272509593D

 46 49  0  0  0  0  0  0  0  0999 V2000
   36.5960   21.9530   32.4400 C   0  0  0  0  0  0  0  0  0  0  0  0
   35.7300   21.4260   32.8620 H   0  0  0  0  0  0  0  0  0  0  0  0
   36.9120   22.7380   33.1640 H   0  0  0  0  0  0  0  0  0  0  0  0
   36.3290   22.6550   31.1400 C   0  0  0  0  0  0  0  0  0  0  0  0
   36.3880   21.9540   30.2730 H   0  0  0  0  0  0  0  0  0  0  0  0
   35.3210   23.0730   31.1490 H   0  0  0  0  0  0  0  0  0  0  0  0
   37.3160   23.7440   30.8630 C   0  0  0  0  0  0  0  0  0  0  0  0
   38.3610   23.4430   29.9790 C   0  0  0  0  0  0  0  0  0  0  0  0
   39.3140   24.3900   29.6680 C   0  0  0  0  0  0  0  0  0  0  0  0
   39.2410   25.5970   30.2100 N   0  0  0  0  0  0  0  0  0  0  0  0
   38.2130   25.8670   31.0690 C   0  0  0  0  0  0  0  0  0  0  0  0
   37.2730   24.9750   31.3930 N   0  0  0  0  0  0  0  0  0  0  0  0
   38.4400   22.4640   29.5250 H   0  0  0  0  0  0  0  0  0  0  0  0
   40.1240   24.1260   28.9710 H   0  0  0  0  0  0  0  0  0  0  0  0
   38.1810   27.2390   31.6490 C   0  0  0  0  0  0  0  0  0  0  0  0
   38.9810   27.8000   31.1230 H   0  0  0  0  0  0  0  0  0  0  0  0
   37.2310   27.7180   31.3230 H   0  0  0  0  0  0  0  0  0  0  0  0
   35.8330   28.2670   33.3040 Cl  0  0  0  0  0  0  0  0  0  0  0  0
   37.3460   27.7070   33.9320 C   0  0  0  0  0  0  0  0  0  0  0  0
   38.3600   27.2580   33.1140 C   0  0  0  0  0  0  0  0  0  0  0  0
   39.5910   26.8020   33.6010 C   0  0  0  0  0  0  0  0  0  0  0  0
   40.3540   26.4590   32.9160 H   0  0  0  0  0  0  0  0  0  0  0  0
   39.8010   26.8000   34.9840 C   0  0  0  0  0  0  0  0  0  0  0  0
   40.7740   26.4350   35.2920 H   0  0  0  0  0  0  0  0  0  0  0  0
   38.8030   27.2460   35.8490 C   0  0  0  0  0  3  0  0  0  0  0  0
   37.6310   27.6740   35.2660 C   0  0  0  0  0  3  0  0  0  0  0  0
   37.7040   21.0660   32.3230 O   0  0  0  0  0  0  0  0  0  0  0  0
   41.1080   21.4250   33.4990 C   0  0  0  0  0  0  0  0  0  0  0  0
   40.8630   22.0320   34.7490 C   0  0  0  0  0  0  0  0  0  0  0  0
   39.5560   22.2810   35.1130 C   0  0  0  0  0  0  0  0  0  0  0  0
   38.6020   21.9050   34.2020 N   0  0  0  0  0  0  0  0  0  0  0  0
   38.8350   21.3340   33.0250 C   0  0  0  0  0  0  0  0  0  0  0  0
   40.1200   21.0940   32.6800 N   0  0  0  0  0  0  0  0  0  0  0  0
   42.1510   21.2540   33.2680 H   0  0  0  0  0  0  0  0  0  0  0  0
   41.5930   22.3340   35.4750 H   0  0  0  0  0  0  0  0  0  0  0  0
   40.7030   21.9960   37.7490 F   0  0  0  0  0  0  0  0  0  0  0  0
   39.6440   22.7750   37.5820 C   0  0  0  0  0  0  0  0  0  0  0  0
   39.1260   22.8950   36.3520 C   0  0  0  0  0  0  0  0  0  0  0  0
   38.0130   23.7380   36.2810 C   0  0  0  0  0  0  0  0  0  0  0  0
   37.4990   24.3820   37.3740 C   0  0  0  0  0  0  0  0  0  0  0  0
   38.0710   24.2230   38.6170 C   0  0  0  0  0  0  0  0  0  0  0  0
   39.1600   23.4030   38.7060 C   0  0  0  0  0  0  0  0  0  0  0  0
   37.4640   23.9510   35.3580 H   0  0  0  0  0  0  0  0  0  0  0  0
   36.6350   25.0390   37.3310 H   0  0  0  0  0  0  0  0  0  0  0  0
   37.6810   24.7240   39.4950 H   0  0  0  0  0  0  0  0  0  0  0  0
   39.6220   23.2670   39.6760 H   0  0  0  0  0  0  0  0  0  0  0  0
  1  2  1  0  0  0  0
  1  3  1  0  0  0  0
  4  6  1  0  0  0  0
  4  1  1  0  0  0  0
  5  4  1  0  0  0  0
  7  4  1  0  0  0  0
  7 12  1  0  0  0  0
  8  7  2  0  0  0  0
  9  8  1  0  0  0  0
  9 10  2  0  0  0  0
 10 11  1  0  0  0  0
 11 12  2  0  0  0  0
 11 15  1  0  0  0  0
 13  8  1  0  0  0  0
 14  9  1  0  0  0  0
 15 20  1  0  0  0  0
 16 15  1  0  0  0  0
 17 15  1  0  0  0  0
 18 19  1  0  0  0  0
 19 26  1  0  0  0  0
 20 21  1  0  0  0  0
 20 19  2  0  0  0  0
 21 23  2  0  0  0  0
 22 21  1  0  0  0  0
 23 24  1  0  0  0  0
 23 25  1  0  0  0  0
 26 25  2  0  0  0  0
 27  1  1  0  0  0  0
 27 32  1  0  0  0  0
 28 29  1  0  0  0  0
 29 30  2  0  0  0  0
 29 35  1  0  0  0  0
 30 38  1  0  0  0  0
 31 30  1  0  0  0  0
 32 31  2  0  0  0  0
 33 32  1  0  0  0  0
 33 28  2  0  0  0  0
 34 28  1  0  0  0  0
 37 36  1  0  0  0  0
 37 42  1  0  0  0  0
 38 37  2  0  0  0  0
 39 38  1  0  0  0  0
 39 40  2  0  0  0  0
 40 41  1  0  0  0  0
 41 42  2  0  0  0  0
 41 45  1  0  0  0  0
 42 46  1  0  0  0  0
 43 39  1  0  0  0  0
 44 40  1  0  0  0  0
M  END
>  <minimizedAffinity>
-6.3778944

$$$$

 OpenBabel03272509593D

 46 49  0  0  0  0  0  0  0  0999 V2000
   36.0810   25.6340   31.5940 C   0  0  0  0  0  0  0  0  0  0  0  0
   35.5420   25.5360   32.5470 H   0  0  0  0  0  0  0  0  0  0  0  0
   35.4100   26.1420   30.8660 H   0  0  0  0  0  0  0  0  0  0  0  0
   36.4850   24.3300   30.9680 C   0  0  0  0  0  0  0  0  0  0  0  0
   35.6630   23.8990   30.3470 H   0  0  0  0  0  0  0  0  0  0  0  0
   37.3390   24.4900   30.3070 H   0  0  0  0  0  0  0  0  0  0  0  0
   36.8300   23.2890   31.9840 C   0  0  0  0  0  0  0  0  0  0  0  0
   35.9480   22.2070   32.1090 C   0  0  0  0  0  0  0  0  0  0  0  0
   36.1930   21.2020   33.0210 C   0  0  0  0  0  0  0  0  0  0  0  0
   37.2710   21.2600   33.7880 N   0  0  0  0  0  0  0  0  0  0  0  0
   38.1170   22.3240   33.6480 C   0  0  0  0  0  0  0  0  0  0  0  0
   37.9130   23.3150   32.7760 N   0  0  0  0  0  0  0  0  0  0  0  0
   35.0610   22.1400   31.4930 H   0  0  0  0  0  0  0  0  0  0  0  0
   35.4830   20.3650   33.0980 H   0  0  0  0  0  0  0  0  0  0  0  0
   39.3130   22.3370   34.5360 C   0  0  0  0  0  0  0  0  0  0  0  0
   39.6730   21.2880   34.5610 H   0  0  0  0  0  0  0  0  0  0  0  0
   40.1140   22.9040   34.0110 H   0  0  0  0  0  0  0  0  0  0  0  0
   41.2140   21.4780   36.7630 Cl  0  0  0  0  0  0  0  0  0  0  0  0
   39.8450   22.5210   36.9470 C   0  0  0  0  0  0  0  0  0  0  0  0
   39.0320   22.8610   35.8870 C   0  0  0  0  0  0  0  0  0  0  0  0
   37.9200   23.7020   36.0150 C   0  0  0  0  0  0  0  0  0  0  0  0
   37.3150   23.9390   35.1510 H   0  0  0  0  0  0  0  0  0  0  0  0
   37.6200   24.2230   37.2780 C   0  0  0  0  0  0  0  0  0  0  0  0
   36.7480   24.8660   37.3050 H   0  0  0  0  0  0  0  0  0  0  0  0
   38.4150   23.9050   38.3780 C   0  0  0  0  0  3  0  0  0  0  0  0
   39.4840   23.0700   38.1430 C   0  0  0  0  0  3  0  0  0  0  0  0
   37.2050   26.4940   31.7510 O   0  0  0  0  0  0  0  0  0  0  0  0
   37.5150   27.4980   35.2140 C   0  0  0  0  0  0  0  0  0  0  0  0
   38.8930   27.2610   35.4060 C   0  0  0  0  0  0  0  0  0  0  0  0
   39.6300   26.7740   34.3450 C   0  0  0  0  0  0  0  0  0  0  0  0
   38.9330   26.5650   33.1830 N   0  0  0  0  0  0  0  0  0  0  0  0
   37.6350   26.7890   33.0040 C   0  0  0  0  0  0  0  0  0  0  0  0
   36.9240   27.2660   34.0510 N   0  0  0  0  0  0  0  0  0  0  0  0
   36.9900   27.8780   36.0800 H   0  0  0  0  0  0  0  0  0  0  0  0
   39.4570   27.4170   36.3060 H   0  0  0  0  0  0  0  0  0  0  0  0
   41.7850   28.2010   33.0540 F   0  0  0  0  0  0  0  0  0  0  0  0
   42.0590   27.1240   33.7750 C   0  0  0  0  0  0  0  0  0  0  0  0
   41.0460   26.4750   34.3670 C   0  0  0  0  0  0  0  0  0  0  0  0
   41.4390   25.3540   35.1030 C   0  0  0  0  0  0  0  0  0  0  0  0
   42.7440   24.9550   35.2080 C   0  0  0  0  0  0  0  0  0  0  0  0
   43.7480   25.6600   34.5780 C   0  0  0  0  0  0  0  0  0  0  0  0
   43.3820   26.7590   33.8550 C   0  0  0  0  0  0  0  0  0  0  0  0
   40.7450   24.7070   35.6500 H   0  0  0  0  0  0  0  0  0  0  0  0
   43.0620   24.0860   35.7770 H   0  0  0  0  0  0  0  0  0  0  0  0
   44.7870   25.3610   34.6490 H   0  0  0  0  0  0  0  0  0  0  0  0
   44.1580   27.3240   33.3530 H   0  0  0  0  0  0  0  0  0  0  0  0
  1 27  1  0  0  0  0
  1  2  1  0  0  0  0
  3  1  1  0  0  0  0
  4  1  1  0  0  0  0
  4  7  1  0  0  0  0
  5  4  1  0  0  0  0
  6  4  1  0  0  0  0
  7  8  2  0  0  0  0
  7 12  1  0  0  0  0
  8  9  1  0  0  0  0
  9 14  1  0  0  0  0
  9 10  2  0  0  0  0
 11 10  1  0  0  0  0
 11 15  1  0  0  0  0
 12 11  2  0  0  0  0
 13  8  1  0  0  0  0
 15 16  1  0  0  0  0
 15 20  1  0  0  0  0
 17 15  1  0  0  0  0
 18 19  1  0  0  0  0
 19 26  1  0  0  0  0
 20 21  1  0  0  0  0
 20 19  2  0  0  0  0
 21 23  2  0  0  0  0
 22 21  1  0  0  0  0
 23 24  1  0  0  0  0
 23 25  1  0  0  0  0
 26 25  2  0  0  0  0
 27 32  1  0  0  0  0
 28 29  1  0  0  0  0
 28 34  1  0  0  0  0
 29 35  1  0  0  0  0
 30 38  1  0  0  0  0
 30 29  2  0  0  0  0
 31 30  1  0  0  0  0
 32 31  2  0  0  0  0
 32 33  1  0  0  0  0
 33 28  2  0  0  0  0
 36 37  1  0  0  0  0
 37 42  2  0  0  0  0
 37 38  1  0  0  0  0
 38 39  2  0  0  0  0
 39 40  1  0  0  0  0
 39 43  1  0  0  0  0
 40 44  1  0  0  0  0
 41 45  1  0  0  0  0
 41 40  2  0  0  0  0
 42 41  1  0  0  0  0
 46 42  1  0  0  0  0
M  END
>  <minimizedAffinity>
-6.37609339

$$$$

 OpenBabel03272509593D

 46 49  0  0  0  0  0  0  0  0999 V2000
   37.8850   21.6060   31.1220 C   0  0  0  0  0  0  0  0  0  0  0  0
   38.4660   22.3840   30.6080 H   0  0  0  0  0  0  0  0  0  0  0  0
   37.5620   20.8570   30.3660 H   0  0  0  0  0  0  0  0  0  0  0  0
   36.6380   22.1000   31.7960 C   0  0  0  0  0  0  0  0  0  0  0  0
   35.7270   21.5800   31.4120 H   0  0  0  0  0  0  0  0  0  0  0  0
   36.6960   21.9020   32.8680 H   0  0  0  0  0  0  0  0  0  0  0  0
   36.4070   23.5620   31.5730 C   0  0  0  0  0  0  0  0  0  0  0  0
   35.1480   23.9390   31.0880 C   0  0  0  0  0  0  0  0  0  0  0  0
   34.8520   25.2650   30.8560 C   0  0  0  0  0  0  0  0  0  0  0  0
   35.7670   26.1930   31.0950 N   0  0  0  0  0  0  0  0  0  0  0  0
   36.9870   25.8010   31.5680 C   0  0  0  0  0  0  0  0  0  0  0  0
   37.3090   24.5280   31.8040 N   0  0  0  0  0  0  0  0  0  0  0  0
   34.3860   23.1980   30.8860 H   0  0  0  0  0  0  0  0  0  0  0  0
   33.8550   25.5320   30.4740 H   0  0  0  0  0  0  0  0  0  0  0  0
   37.9760   26.8870   31.8180 C   0  0  0  0  0  0  0  0  0  0  0  0
   38.8340   26.6650   31.1500 H   0  0  0  0  0  0  0  0  0  0  0  0
   37.5420   27.8330   31.4250 H   0  0  0  0  0  0  0  0  0  0  0  0
   40.8460   26.0820   32.4760 Cl  0  0  0  0  0  0  0  0  0  0  0  0
   39.6670   26.6460   33.6110 C   0  0  0  0  0  0  0  0  0  0  0  0
   38.3870   26.9890   33.2320 C   0  0  0  0  0  0  0  0  0  0  0  0
   37.4190   27.4470   34.1350 C   0  0  0  0  0  0  0  0  0  0  0  0
   36.4280   27.7040   33.7860 H   0  0  0  0  0  0  0  0  0  0  0  0
   37.7670   27.5620   35.4850 C   0  0  0  0  0  0  0  0  0  0  0  0
   36.9710   27.9210   36.1270 H   0  0  0  0  0  0  0  0  0  0  0  0
   39.0510   27.2240   35.9130 C   0  0  0  0  0  3  0  0  0  0  0  0
   39.9250   26.7860   34.9440 C   0  0  0  0  0  3  0  0  0  0  0  0
   38.7130   20.8980   32.0390 O   0  0  0  0  0  0  0  0  0  0  0  0
   41.7110   22.5700   33.1880 C   0  0  0  0  0  0  0  0  0  0  0  0
   41.2660   23.0090   34.4540 C   0  0  0  0  0  0  0  0  0  0  0  0
   39.9750   22.7080   34.8360 C   0  0  0  0  0  0  0  0  0  0  0  0
   39.2350   21.9960   33.9270 N   0  0  0  0  0  0  0  0  0  0  0  0
   39.6560   21.5850   32.7360 C   0  0  0  0  0  0  0  0  0  0  0  0
   40.9230   21.8840   32.3720 N   0  0  0  0  0  0  0  0  0  0  0  0
   42.7300   22.8350   32.9430 H   0  0  0  0  0  0  0  0  0  0  0  0
   41.8280   23.5660   35.1790 H   0  0  0  0  0  0  0  0  0  0  0  0
   40.9380   22.2310   37.5180 F   0  0  0  0  0  0  0  0  0  0  0  0
   39.7890   22.8660   37.3440 C   0  0  0  0  0  0  0  0  0  0  0  0
   39.3580   23.0790   36.0930 C   0  0  0  0  0  0  0  0  0  0  0  0
   38.1370   23.7550   36.0160 C   0  0  0  0  0  0  0  0  0  0  0  0
   37.4450   24.1640   37.1230 C   0  0  0  0  0  0  0  0  0  0  0  0
   37.9340   23.9190   38.3890 C   0  0  0  0  0  0  0  0  0  0  0  0
   39.1250   23.2590   38.4830 C   0  0  0  0  0  0  0  0  0  0  0  0
   37.6380   24.0130   35.0760 H   0  0  0  0  0  0  0  0  0  0  0  0
   36.4960   24.6900   37.0770 H   0  0  0  0  0  0  0  0  0  0  0  0
   37.4010   24.2340   39.2790 H   0  0  0  0  0  0  0  0  0  0  0  0
   39.5240   23.0580   39.4690 H   0  0  0  0  0  0  0  0  0  0  0  0
  1  4  1  0  0  0  0
  1 27  1  0  0  0  0
  2  1  1  0  0  0  0
  3  1  1  0  0  0  0
  4  6  1  0  0  0  0
  5  4  1  0  0  0  0
  7  4  1  0  0  0  0
  7 12  1  0  0  0  0
  8  7  2  0  0  0  0
  9  8  1  0  0  0  0
  9 10  2  0  0  0  0
 10 11  1  0  0  0  0
 11 12  2  0  0  0  0
 11 15  1  0  0  0  0
 13  8  1  0  0  0  0
 14  9  1  0  0  0  0
 15 20  1  0  0  0  0
 16 15  1  0  0  0  0
 17 15  1  0  0  0  0
 18 19  1  0  0  0  0
 19 26  1  0  0  0  0
 20 19  2  0  0  0  0
 20 21  1  0  0  0  0
 21 23  2  0  0  0  0
 22 21  1  0  0  0  0
 23 25  1  0  0  0  0
 23 24  1  0  0  0  0
 26 25  2  0  0  0  0
 27 32  1  0  0  0  0
 28 29  1  0  0  0  0
 29 30  2  0  0  0  0
 29 35  1  0  0  0  0
 30 38  1  0  0  0  0
 31 30  1  0  0  0  0
 32 31  2  0  0  0  0
 33 32  1  0  0  0  0
 33 28  2  0  0  0  0
 34 28  1  0  0  0  0
 37 36  1  0  0  0  0
 37 42  1  0  0  0  0
 38 37  2  0  0  0  0
 39 38  1  0  0  0  0
 39 40  2  0  0  0  0
 40 41  1  0  0  0  0
 41 42  2  0  0  0  0
 41 45  1  0  0  0  0
 42 46  1  0  0  0  0
 43 39  1  0  0  0  0
 44 40  1  0  0  0  0
M  END
>  <minimizedAffinity>
-6.31921434

$$$$

 OpenBabel03272509593D

 46 49  0  0  0  0  0  0  0  0999 V2000
   37.7750   25.7540   36.1130 C   0  0  0  0  0  0  0  0  0  0  0  0
   36.9600   25.3090   35.5260 H   0  0  0  0  0  0  0  0  0  0  0  0
   37.4640   25.7720   37.1820 H   0  0  0  0  0  0  0  0  0  0  0  0
   38.1140   27.1680   35.7420 C   0  0  0  0  0  0  0  0  0  0  0  0
   38.0170   27.8580   36.6140 H   0  0  0  0  0  0  0  0  0  0  0  0
   39.1500   27.2210   35.4010 H   0  0  0  0  0  0  0  0  0  0  0  0
   37.2130   27.7130   34.6790 C   0  0  0  0  0  0  0  0  0  0  0  0
   37.0500   26.9340   33.5260 C   0  0  0  0  0  0  0  0  0  0  0  0
   36.2360   27.3620   32.4980 C   0  0  0  0  0  0  0  0  0  0  0  0
   35.6030   28.5200   32.6010 N   0  0  0  0  0  0  0  0  0  0  0  0
   35.7770   29.2630   33.7350 C   0  0  0  0  0  0  0  0  0  0  0  0
   36.5570   28.8810   34.7500 N   0  0  0  0  0  0  0  0  0  0  0  0
   37.5570   25.9840   33.4200 H   0  0  0  0  0  0  0  0  0  0  0  0
   36.1260   26.7290   31.6040 H   0  0  0  0  0  0  0  0  0  0  0  0
   35.0420   30.5560   33.7960 C   0  0  0  0  0  0  0  0  0  0  0  0
   35.8210   31.3430   33.7270 H   0  0  0  0  0  0  0  0  0  0  0  0
   34.4520   30.6510   32.8570 H   0  0  0  0  0  0  0  0  0  0  0  0
   36.0050   32.5630   35.8840 Cl  0  0  0  0  0  0  0  0  0  0  0  0
   34.5800   31.5880   36.0000 C   0  0  0  0  0  0  0  0  0  0  0  0
   34.2140   30.7010   35.0100 C   0  0  0  0  0  0  0  0  0  0  0  0
   33.0660   29.9030   35.0850 C   0  0  0  0  0  0  0  0  0  0  0  0
   32.8230   29.2220   34.2800 H   0  0  0  0  0  0  0  0  0  0  0  0
   32.2510   30.0100   36.2170 C   0  0  0  0  0  0  0  0  0  0  0  0
   31.3810   29.3650   36.2090 H   0  0  0  0  0  0  0  0  0  0  0  0
   32.5840   30.8950   37.2430 C   0  0  0  0  0  3  0  0  0  0  0  0
   33.7330   31.6320   37.0690 C   0  0  0  0  0  3  0  0  0  0  0  0
   38.9300   24.9220   36.0610 O   0  0  0  0  0  0  0  0  0  0  0  0
   40.5500   23.7090   33.0600 C   0  0  0  0  0  0  0  0  0  0  0  0
   39.4990   22.9360   32.5200 C   0  0  0  0  0  0  0  0  0  0  0  0
   38.3070   22.8760   33.2120 C   0  0  0  0  0  0  0  0  0  0  0  0
   38.2590   23.5910   34.3820 N   0  0  0  0  0  0  0  0  0  0  0  0
   39.2500   24.3180   34.8870 C   0  0  0  0  0  0  0  0  0  0  0  0
   40.4140   24.3700   34.2010 N   0  0  0  0  0  0  0  0  0  0  0  0
   41.4590   23.7190   32.4750 H   0  0  0  0  0  0  0  0  0  0  0  0
   39.5150   22.3700   31.6090 H   0  0  0  0  0  0  0  0  0  0  0  0
   36.8390   23.0550   30.7290 F   0  0  0  0  0  0  0  0  0  0  0  0
   36.4380   22.2030   31.6610 C   0  0  0  0  0  0  0  0  0  0  0  0
   37.1310   22.1330   32.8060 C   0  0  0  0  0  0  0  0  0  0  0  0
   36.6280   21.2060   33.7230 C   0  0  0  0  0  0  0  0  0  0  0  0
   35.5250   20.4370   33.4710 C   0  0  0  0  0  0  0  0  0  0  0  0
   34.8480   20.5490   32.2760 C   0  0  0  0  0  0  0  0  0  0  0  0
   35.3250   21.4500   31.3680 C   0  0  0  0  0  0  0  0  0  0  0  0
   37.0690   21.0180   34.7080 H   0  0  0  0  0  0  0  0  0  0  0  0
   35.1250   19.7140   34.1750 H   0  0  0  0  0  0  0  0  0  0  0  0
   33.9720   19.9500   32.0560 H   0  0  0  0  0  0  0  0  0  0  0  0
   34.8050   21.5510   30.4230 H   0  0  0  0  0  0  0  0  0  0  0  0
  1  3  1  0  0  0  0
  2  1  1  0  0  0  0
  4  1  1  0  0  0  0
  4  5  1  0  0  0  0
  6  4  1  0  0  0  0
  7 12  1  0  0  0  0
  7  4  1  0  0  0  0
  8  7  2  0  0  0  0
  9 10  2  0  0  0  0
  9  8  1  0  0  0  0
 10 11  1  0  0  0  0
 11 15  1  0  0  0  0
 11 12  2  0  0  0  0
 13  8  1  0  0  0  0
 14  9  1  0  0  0  0
 15 20  1  0  0  0  0
 16 15  1  0  0  0  0
 17 15  1  0  0  0  0
 18 19  1  0  0  0  0
 19 26  1  0  0  0  0
 20 21  1  0  0  0  0
 20 19  2  0  0  0  0
 21 23  2  0  0  0  0
 22 21  1  0  0  0  0
 23 25  1  0  0  0  0
 24 23  1  0  0  0  0
 26 25  2  0  0  0  0
 27  1  1  0  0  0  0
 28 33  1  0  0  0  0
 29 28  2  0  0  0  0
 29 30  1  0  0  0  0
 30 31  2  0  0  0  0
 31 32  1  0  0  0  0
 32 27  1  0  0  0  0
 33 32  2  0  0  0  0
 34 28  1  0  0  0  0
 35 29  1  0  0  0  0
 36 37  1  0  0  0  0
 37 38  1  0  0  0  0
 38 30  1  0  0  0  0
 38 39  2  0  0  0  0
 39 43  1  0  0  0  0
 40 39  1  0  0  0  0
 40 44  1  0  0  0  0
 41 40  2  0  0  0  0
 42 37  2  0  0  0  0
 42 41  1  0  0  0  0
 45 41  1  0  0  0  0
 46 42  1  0  0  0  0
M  END
>  <minimizedAffinity>
-6.24691963

$$$$

 OpenBabel03272509593D

 46 49  0  0  0  0  0  0  0  0999 V2000
   35.6450   22.4950   31.2150 C   0  0  0  0  0  0  0  0  0  0  0  0
   34.8670   22.1010   30.5460 H   0  0  0  0  0  0  0  0  0  0  0  0
   36.6140   22.4810   30.6660 H   0  0  0  0  0  0  0  0  0  0  0  0
   35.8530   21.6980   32.4700 C   0  0  0  0  0  0  0  0  0  0  0  0
   35.2530   22.1040   33.3200 H   0  0  0  0  0  0  0  0  0  0  0  0
   35.5300   20.6680   32.3090 H   0  0  0  0  0  0  0  0  0  0  0  0
   37.2780   21.7070   32.9250 C   0  0  0  0  0  0  0  0  0  0  0  0
   38.1980   20.9950   32.1440 C   0  0  0  0  0  0  0  0  0  0  0  0
   39.5310   20.9520   32.4910 C   0  0  0  0  0  0  0  0  0  0  0  0
   39.9480   21.5910   33.5740 N   0  0  0  0  0  0  0  0  0  0  0  0
   39.0330   22.2790   34.3200 C   0  0  0  0  0  0  0  0  0  0  0  0
   37.7350   22.3430   34.0140 N   0  0  0  0  0  0  0  0  0  0  0  0
   37.8790   20.4660   31.2550 H   0  0  0  0  0  0  0  0  0  0  0  0
   40.2310   20.3850   31.8590 H   0  0  0  0  0  0  0  0  0  0  0  0
   39.5580   22.9780   35.5260 C   0  0  0  0  0  0  0  0  0  0  0  0
   39.0460   22.5030   36.3890 H   0  0  0  0  0  0  0  0  0  0  0  0
   40.6290   22.6970   35.6370 H   0  0  0  0  0  0  0  0  0  0  0  0
   37.4790   24.1110   37.4520 Cl  0  0  0  0  0  0  0  0  0  0  0  0
   38.4290   25.0290   36.3320 C   0  0  0  0  0  0  0  0  0  0  0  0
   39.3490   24.4390   35.4930 C   0  0  0  0  0  0  0  0  0  0  0  0
   40.1260   25.1630   34.5800 C   0  0  0  0  0  0  0  0  0  0  0  0
   40.8350   24.6520   33.9430 H   0  0  0  0  0  0  0  0  0  0  0  0
   39.9620   26.5510   34.5180 C   0  0  0  0  0  0  0  0  0  0  0  0
   40.5940   27.0470   33.7910 H   0  0  0  0  0  0  0  0  0  0  0  0
   39.0420   27.1890   35.3480 C   0  0  0  0  0  3  0  0  0  0  0  0
   38.3290   26.3840   36.2090 C   0  0  0  0  0  3  0  0  0  0  0  0
   35.3900   23.8630   31.5150 O   0  0  0  0  0  0  0  0  0  0  0  0
   38.4820   25.5860   30.7620 C   0  0  0  0  0  0  0  0  0  0  0  0
   38.1610   26.8720   31.2470 C   0  0  0  0  0  0  0  0  0  0  0  0
   36.9120   27.0710   31.8000 C   0  0  0  0  0  0  0  0  0  0  0  0
   36.0890   25.9750   31.8230 N   0  0  0  0  0  0  0  0  0  0  0  0
   36.3940   24.7650   31.3650 C   0  0  0  0  0  0  0  0  0  0  0  0
   37.6210   24.5810   30.8260 N   0  0  0  0  0  0  0  0  0  0  0  0
   39.4740   25.4900   30.3400 H   0  0  0  0  0  0  0  0  0  0  0  0
   38.7880   27.7420   31.2380 H   0  0  0  0  0  0  0  0  0  0  0  0
   36.2910   29.5180   30.3940 F   0  0  0  0  0  0  0  0  0  0  0  0
   36.1250   29.4630   31.7070 C   0  0  0  0  0  0  0  0  0  0  0  0
   36.4180   28.3200   32.3420 C   0  0  0  0  0  0  0  0  0  0  0  0
   36.2090   28.3640   33.7230 C   0  0  0  0  0  0  0  0  0  0  0  0
   35.7460   29.4780   34.3690 C   0  0  0  0  0  0  0  0  0  0  0  0
   35.4600   30.6300   33.6660 C   0  0  0  0  0  0  0  0  0  0  0  0
   35.6580   30.6040   32.3150 C   0  0  0  0  0  0  0  0  0  0  0  0
   36.3960   27.5220   34.3980 H   0  0  0  0  0  0  0  0  0  0  0  0
   35.5800   29.5250   35.4410 H   0  0  0  0  0  0  0  0  0  0  0  0
   35.0920   31.5230   34.1570 H   0  0  0  0  0  0  0  0  0  0  0  0
   35.4380   31.5010   31.7480 H   0  0  0  0  0  0  0  0  0  0  0  0
  1 27  1  0  0  0  0
  1  4  1  0  0  0  0
  2  1  1  0  0  0  0
  3  1  1  0  0  0  0
  4  7  1  0  0  0  0
  4  5  1  0  0  0  0
  6  4  1  0  0  0  0
  7 12  1  0  0  0  0
  8  9  1  0  0  0  0
  8  7  2  0  0  0  0
  9 10  2  0  0  0  0
 10 11  1  0  0  0  0
 11 15  1  0  0  0  0
 12 11  2  0  0  0  0
 13  8  1  0  0  0  0
 14  9  1  0  0  0  0
 15 17  1  0  0  0  0
 15 16  1  0  0  0  0
 19 18  1  0  0  0  0
 20 15  1  0  0  0  0
 20 19  2  0  0  0  0
 21 20  1  0  0  0  0
 22 21  1  0  0  0  0
 23 21  2  0  0  0  0
 23 25  1  0  0  0  0
 24 23  1  0  0  0  0
 25 26  2  0  0  0  0
 26 19  1  0  0  0  0
 28 33  2  0  0  0  0
 28 29  1  0  0  0  0
 29 30  2  0  0  0  0
 30 31  1  0  0  0  0
 30 38  1  0  0  0  0
 32 27  1  0  0  0  0
 32 31  2  0  0  0  0
 33 32  1  0  0  0  0
 34 28  1  0  0  0  0
 35 29  1  0  0  0  0
 36 37  1  0  0  0  0
 37 42  2  0  0  0  0
 37 38  1  0  0  0  0
 38 39  2  0  0  0  0
 39 40  1  0  0  0  0
 39 43  1  0  0  0  0
 40 44  1  0  0  0  0
 41 45  1  0  0  0  0
 41 40  2  0  0  0  0
 42 41  1  0  0  0  0
 46 42  1  0  0  0  0
M  END
>  <minimizedAffinity>
-6.20323181

$$$$

 OpenBabel03272509593D

 46 49  0  0  0  0  0  0  0  0999 V2000
   37.9170   26.7600   32.4790 C   0  0  0  0  0  0  0  0  0  0  0  0
   38.4850   25.8600   32.2070 H   0  0  0  0  0  0  0  0  0  0  0  0
   38.5890   27.6410   32.3690 H   0  0  0  0  0  0  0  0  0  0  0  0
   37.4160   26.7800   33.8940 C   0  0  0  0  0  0  0  0  0  0  0  0
   37.8600   27.6210   34.4780 H   0  0  0  0  0  0  0  0  0  0  0  0
   36.3330   26.9190   33.8980 H   0  0  0  0  0  0  0  0  0  0  0  0
   37.7580   25.5290   34.6400 C   0  0  0  0  0  0  0  0  0  0  0  0
   37.9440   25.6460   36.0240 C   0  0  0  0  0  0  0  0  0  0  0  0
   38.2610   24.5420   36.7870 C   0  0  0  0  0  0  0  0  0  0  0  0
   38.3900   23.3580   36.2060 N   0  0  0  0  0  0  0  0  0  0  0  0
   38.2040   23.2690   34.8550 C   0  0  0  0  0  0  0  0  0  0  0  0
   37.8970   24.3150   34.0860 N   0  0  0  0  0  0  0  0  0  0  0  0
   37.8430   26.6030   36.5190 H   0  0  0  0  0  0  0  0  0  0  0  0
   38.4020   24.6630   37.8720 H   0  0  0  0  0  0  0  0  0  0  0  0
   38.3630   21.9140   34.2570 C   0  0  0  0  0  0  0  0  0  0  0  0
   39.3460   21.9310   33.7430 H   0  0  0  0  0  0  0  0  0  0  0  0
   38.4870   21.1900   35.0930 H   0  0  0  0  0  0  0  0  0  0  0  0
   35.8280   20.7910   35.5330 Cl  0  0  0  0  0  0  0  0  0  0  0  0
   36.0860   21.0350   33.8380 C   0  0  0  0  0  0  0  0  0  0  0  0
   37.2650   21.5480   33.3410 C   0  0  0  0  0  0  0  0  0  0  0  0
   37.4930   21.7520   31.9740 C   0  0  0  0  0  0  0  0  0  0  0  0
   38.4360   22.1580   31.6350 H   0  0  0  0  0  0  0  0  0  0  0  0
   36.4770   21.4210   31.0710 C   0  0  0  0  0  0  0  0  0  0  0  0
   36.7210   21.6050   30.0320 H   0  0  0  0  0  0  0  0  0  0  0  0
   35.2690   20.8990   31.5310 C   0  0  0  0  0  3  0  0  0  0  0  0
   35.1470   20.7380   32.8930 C   0  0  0  0  0  3  0  0  0  0  0  0
   36.8520   26.9690   31.5580 O   0  0  0  0  0  0  0  0  0  0  0  0
   35.9340   30.3730   30.7400 C   0  0  0  0  0  0  0  0  0  0  0  0
   34.8620   30.5520   31.6410 C   0  0  0  0  0  0  0  0  0  0  0  0
   34.5200   29.5030   32.4700 C   0  0  0  0  0  0  0  0  0  0  0  0
   35.2720   28.3640   32.3320 N   0  0  0  0  0  0  0  0  0  0  0  0
   36.2810   28.1980   31.4830 C   0  0  0  0  0  0  0  0  0  0  0  0
   36.6080   29.2330   30.6760 N   0  0  0  0  0  0  0  0  0  0  0  0
   36.1570   31.2280   30.1160 H   0  0  0  0  0  0  0  0  0  0  0  0
   34.2620   31.4320   31.7650 H   0  0  0  0  0  0  0  0  0  0  0  0
   34.6310   30.3200   35.2390 F   0  0  0  0  0  0  0  0  0  0  0  0
   33.4850   29.8870   34.7350 C   0  0  0  0  0  0  0  0  0  0  0  0
   33.4520   29.5130   33.4480 C   0  0  0  0  0  0  0  0  0  0  0  0
   32.1990   29.0730   33.0130 C   0  0  0  0  0  0  0  0  0  0  0  0
   31.1030   29.0290   33.8310 C   0  0  0  0  0  0  0  0  0  0  0  0
   31.1920   29.4260   35.1480 C   0  0  0  0  0  0  0  0  0  0  0  0
   32.4090   29.8590   35.5910 C   0  0  0  0  0  0  0  0  0  0  0  0
   31.9910   28.7300   31.9940 H   0  0  0  0  0  0  0  0  0  0  0  0
   30.1240   28.6900   33.5050 H   0  0  0  0  0  0  0  0  0  0  0  0
   30.3360   29.4000   35.8130 H   0  0  0  0  0  0  0  0  0  0  0  0
   32.4970   30.1750   36.6230 H   0  0  0  0  0  0  0  0  0  0  0  0
  1  4  1  0  0  0  0
  2  1  1  0  0  0  0
  3  1  1  0  0  0  0
  4  6  1  0  0  0  0
  4  5  1  0  0  0  0
  4  7  1  0  0  0  0
  7  8  1  0  0  0  0
  8 13  1  0  0  0  0
  8  9  2  0  0  0  0
  9 14  1  0  0  0  0
 10  9  1  0  0  0  0
 11 10  2  0  0  0  0
 12  7  2  0  0  0  0
 12 11  1  0  0  0  0
 15 11  1  0  0  0  0
 15 17  1  0  0  0  0
 16 15  1  0  0  0  0
 19 18  1  0  0  0  0
 20 19  1  0  0  0  0
 20 15  1  0  0  0  0
 21 20  2  0  0  0  0
 22 21  1  0  0  0  0
 23 25  2  0  0  0  0
 23 21  1  0  0  0  0
 24 23  1  0  0  0  0
 25 26  1  0  0  0  0
 26 19  2  0  0  0  0
 27  1  1  0  0  0  0
 28 29  1  0  0  0  0
 29 35  1  0  0  0  0
 29 30  2  0  0  0  0
 30 38  1  0  0  0  0
 31 30  1  0  0  0  0
 32 27  1  0  0  0  0
 32 31  2  0  0  0  0
 33 28  2  0  0  0  0
 33 32  1  0  0  0  0
 34 28  1  0  0  0  0
 37 36  1  0  0  0  0
 37 42  1  0  0  0  0
 38 37  2  0  0  0  0
 39 38  1  0  0  0  0
 39 40  2  0  0  0  0
 40 41  1  0  0  0  0
 41 42  2  0  0  0  0
 41 45  1  0  0  0  0
 42 46  1  0  0  0  0
 43 39  1  0  0  0  0
 44 40  1  0  0  0  0
M  END
>  <minimizedAffinity>
-6.17047167

$$$$
