
     RDKit          3D

 39 41  0  0  0  0  0  0  0  0999 V2000
   37.1322   30.9609   49.0125 C   0  0  0  0  0  0  0  0  0  0  0  0
   36.9190   31.9283   50.0015 C   0  0  0  0  0  0  0  0  0  0  0  0
   37.5587   33.1613   49.9860 C   0  0  0  0  0  0  0  0  0  0  0  0
   38.4476   33.4564   48.9522 C   0  0  0  0  0  0  0  0  0  0  0  0
   38.6460   32.5042   47.9951 C   0  0  0  0  0  0  0  0  0  0  0  0
   37.9978   31.2865   48.0333 C   0  0  0  0  0  0  0  0  0  0  0  0
   36.4159   29.7055   49.1190 C   0  0  0  0  0  0  0  0  0  0  0  0
   36.9321   28.8672   49.9539 O   0  0  0  0  0  0  0  0  0  0  0  0
   33.6295   30.1795   46.8517 C   0  0  0  0  0  0  0  0  0  0  0  0
   32.9614   28.9668   46.8699 C   0  0  0  0  0  0  0  0  0  0  0  0
   33.4743   27.9573   47.6793 C   0  0  0  0  0  0  0  0  0  0  0  0
   34.5954   28.1825   48.4165 N   0  0  0  0  0  0  0  0  0  0  0  0
   35.2102   29.3588   48.3739 C   0  0  0  0  0  0  0  0  0  0  0  0
   34.7147   30.3457   47.5872 N   0  0  0  0  0  0  0  0  0  0  0  0
   38.3181   30.3873   46.9487 C   0  0  0  0  0  0  0  0  0  0  0  0
   38.8133   30.7016   45.7712 C   0  0  0  0  0  0  0  0  0  0  0  0
   39.1927   29.9073   44.5940 C   0  0  0  0  0  0  0  0  0  0  0  0
   36.2202   31.6861   50.8061 H   0  0  0  0  0  0  0  0  0  0  0  0
   37.3131   33.8333   50.8086 H   0  0  0  0  0  0  0  0  0  0  0  0
   38.9304   34.4244   48.9670 H   0  0  0  0  0  0  0  0  0  0  0  0
   39.3505   32.8159   47.2323 H   0  0  0  0  0  0  0  0  0  0  0  0
   33.1804   30.9207   46.2037 H   0  0  0  0  0  0  0  0  0  0  0  0
   32.0670   28.6945   46.3211 H   0  0  0  0  0  0  0  0  0  0  0  0
   33.0293   26.9676   47.7683 H   0  0  0  0  0  0  0  0  0  0  0  0
   38.1742   29.2933   46.9962 H   0  0  0  0  0  0  0  0  0  0  0  0
   39.0253   31.7449   45.5316 H   0  0  0  0  0  0  0  0  0  0  0  0
   38.9513   28.8365   44.7826 H   0  0  0  0  0  0  0  0  0  0  0  0
   40.2635   30.0457   44.3760 H   0  0  0  0  0  0  0  0  0  0  0  0
   36.4094   30.9592   45.0622 Cl  0  0  0  0  0  0  0  0  0  0  0  0
   37.1339   30.8468   43.4545 C   0  0  0  0  0  0  0  0  0  0  0  0
   38.4148   30.3431   43.4109 C   0  0  0  0  0  0  0  0  0  0  0  0
   38.9874   30.2535   42.1372 C   0  0  0  0  0  0  0  0  0  0  0  0
   40.0044   29.8677   41.9759 H   0  0  0  0  0  0  0  0  0  0  0  0
   38.2709   30.6573   41.0301 C   0  0  0  0  0  0  0  0  0  0  0  0
   38.7516   30.5721   40.0542 H   0  0  0  0  0  0  0  0  0  0  0  0
   36.9978   31.1512   41.1350 C   0  0  0  0  0  0  0  0  0  0  0  0
   36.3812   31.2617   42.3770 C   0  0  0  0  0  0  0  0  0  0  0  0
   36.4278   31.4706   40.2721 H   0  0  0  0  0  0  0  0  0  0  0  0
   35.3711   31.6456   42.5319 H   0  0  0  0  0  0  0  0  0  0  0  0
  1  7  1  0
  1  2  2  0
  3  2  1  0
  4  3  2  0
  5  6  2  0
  5  4  1  0
  6  1  1  0
  7  8  2  0
  9 10  2  0
  9 14  1  0
 10 11  1  0
 11 12  2  0
 13 12  1  0
 13  7  1  0
 14 13  2  0
 15  6  1  0
 16 15  2  0
 17 16  1  0
  2 18  1  0
  3 19  1  0
  4 20  1  0
  5 21  1  0
  9 22  1  0
 10 23  1  0
 11 24  1  0
 15 25  1  0
 16 26  1  0
 17 27  1  0
 17 28  1  0
 29 30  1  0
 30 31  2  0
 31 32  1  0
 32 33  1  0
 32 34  2  0
 34 35  1  0
 34 36  1  0
 36 37  2  0
 37 30  1  0
 36 38  1  0
 37 39  1  0
 17 31  1  0
M  ISO  8  18  14  19  14  20  14  21  14  22  14  23  14  24  14  27   8
M  ISO  3  28   8  33  15  35  16
M  END
>  <DihAtoms>  (1) 
15,16,30,29

>  <DihDeg>  (1) 
-76.08431423056635

$$$$
