
 OpenBabel03272509403D

 35 37  0  0  1  0  0  0  0  0999 V2000
   37.0600   30.9530   49.0580 C   0  0  0  0  0  0  0  0  0  0  0  0
   36.7970   31.8710   50.0800 C   0  0  0  0  0  0  0  0  0  0  0  0
   37.3990   33.1230   50.1280 C   0  0  0  0  0  0  0  0  0  0  0  0
   38.2990   33.4860   49.1260 C   0  0  0  0  0  0  0  0  0  0  0  0
   38.5460   32.5810   48.1360 C   0  0  0  0  0  0  0  0  0  0  0  0
   37.9350   31.3440   48.1100 C   0  0  0  0  0  0  0  0  0  0  0  0
   36.0900   31.5760   50.8580 H   0  0  0  0  0  0  0  0  0  0  0  0
   37.1160   33.7530   50.9720 H   0  0  0  0  0  0  0  0  0  0  0  0
   38.7510   34.4670   49.1900 H   0  0  0  0  0  0  0  0  0  0  0  0
   39.2550   32.9450   47.4010 H   0  0  0  0  0  0  0  0  0  0  0  0
   36.3810   29.6740   49.0970 C   0  0  1  0  0  3  0  0  0  0  0  0
   36.9280   28.8040   49.8790 O   0  0  0  0  0  1  0  0  0  0  0  0
   33.6170   30.1650   46.8070 C   0  0  0  0  0  0  0  0  0  0  0  0
   32.9390   28.9570   46.8210 C   0  0  0  0  0  0  0  0  0  0  0  0
   33.4380   27.9450   47.6350 C   0  0  0  0  0  0  0  0  0  0  0  0
   34.5540   28.1630   48.3810 N   0  0  0  0  0  0  0  0  0  0  0  0
   35.1780   29.3350   48.3430 C   0  0  0  0  0  0  0  0  0  0  0  0
   34.6970   30.3240   47.5510 N   0  0  0  0  0  0  0  0  0  0  0  0
   33.1780   30.9090   46.1540 H   0  0  0  0  0  0  0  0  0  0  0  0
   32.0470   28.6910   46.2650 H   0  0  0  0  0  0  0  0  0  0  0  0
   32.9850   26.9590   47.7210 H   0  0  0  0  0  0  0  0  0  0  0  0
   38.3040   30.5000   46.9980 C   0  0  0  0  0  3  0  0  0  0  0  0
   38.9900   30.8440   45.9290 C   0  0  0  0  0  3  0  0  0  0  0  0
   39.4430   30.1030   44.7420 C   0  0  0  0  0  0  0  0  0  0  0  0
   38.8040   29.2010   44.6100 H   0  0  0  0  0  0  0  0  0  0  0  0
   40.5060   29.8330   44.8500 H   0  0  0  0  0  0  0  0  0  0  0  0
   41.2260   29.4900   42.3940 Cl  0  0  0  0  0  0  0  0  0  0  0  0
   40.0300   30.7910   42.3760 C   0  0  0  0  0  0  0  0  0  0  0  0
   39.2950   30.9420   43.5300 C   0  0  0  0  0  0  0  0  0  0  0  0
   38.3490   31.9730   43.5150 C   0  0  0  0  0  0  0  0  0  0  0  0
   37.7030   32.1900   44.3780 H   0  0  0  0  0  0  0  0  0  0  0  0
   38.2040   32.7590   42.3910 C   0  0  0  0  0  0  0  0  0  0  0  0
   37.4570   33.5530   42.4180 H   0  0  0  0  0  0  0  0  0  0  0  0
   38.9660   32.5620   41.2690 C   0  0  0  0  0  3  0  0  0  0  0  0
   39.9200   31.5510   41.2310 C   0  0  0  0  0  3  0  0  0  0  0  0
  1 11  1  0  0  0  0
  1  2  1  0  0  0  0
  2  3  2  0  0  0  0
  2  7  1  0  0  0  0
  3  8  1  0  0  0  0
  4  9  1  0  0  0  0
  4  3  1  0  0  0  0
  5  4  2  0  0  0  0
  6  5  1  0  0  0  0
  6  1  2  0  0  0  0
 10  5  1  0  0  0  0
 11 12  1  1  0  0  0
 13 14  2  0  0  0  0
 13 18  1  0  0  0  0
 14 15  1  0  0  0  0
 15 21  1  0  0  0  0
 15 16  2  0  0  0  0
 17 16  1  0  0  0  0
 17 11  1  0  0  0  0
 18 17  2  0  0  0  0
 19 13  1  0  0  0  0
 20 14  1  0  0  0  0
 22  6  1  0  0  0  0
 23 22  2  0  0  0  0
 24 26  1  0  0  0  0
 24 23  1  0  0  0  0
 25 24  1  0  0  0  0
 28 27  1  0  0  0  0
 28 29  1  0  0  0  0
 29 24  1  0  0  0  0
 30 29  2  0  0  0  0
 30 31  1  0  0  0  0
 32 33  1  0  0  0  0
 32 30  1  0  0  0  0
 34 32  2  0  0  0  0
 35 34  1  0  0  0  0
 35 28  2  0  0  0  0
M  END
>  <minimizedAffinity>
-6.19559336

>  <minimizedRMSD>
0.97150445

$$$$
