
     RDKit          3D

 36 38  0  0  0  0  0  0  0  0999 V2000
   35.9746   29.6296   48.8664 N   0  0  0  0  0  0  0  0  0  0  0  0
   36.5618   28.8523   49.9321 C   0  0  0  0  0  0  0  0  0  0  0  0
   37.0424   29.5756   51.1174 C   0  0  0  0  0  0  0  0  0  0  0  0
   37.4255   30.9970   50.9774 C   0  0  0  0  0  0  0  0  0  0  0  0
   36.8207   31.6813   49.7895 C   0  0  0  0  0  0  0  0  0  0  0  0
   36.8460   30.7494   48.5727 C   0  0  1  0  0  0  0  0  0  0  0  0
   34.7356   29.3258   48.2214 C   0  0  0  0  0  0  0  0  0  0  0  0
   34.2456   30.0126   47.0989 C   0  0  0  0  0  0  0  0  0  0  0  0
   33.0314   29.6160   46.5730 C   0  0  0  0  0  0  0  0  0  0  0  0
   32.3719   28.5871   47.1618 N   0  0  0  0  0  0  0  0  0  0  0  0
   32.8747   27.9557   48.2347 C   0  0  0  0  0  0  0  0  0  0  0  0
   34.0593   28.3238   48.7680 N   0  0  0  0  0  0  0  0  0  0  0  0
   38.1805   30.3498   48.4728 O   0  0  0  0  0  0  0  0  0  0  0  0
   37.3852   28.2555   49.4851 H   0  0  0  0  0  0  0  0  0  0  0  0
   35.7902   28.0864   50.2340 H   0  0  0  0  0  0  0  0  0  0  0  0
   37.9116   29.0246   51.5385 H   0  0  0  0  0  0  0  0  0  0  0  0
   36.2605   29.5058   51.9261 H   0  0  0  0  0  0  0  0  0  0  0  0
   38.5415   31.1314   50.9359 H   0  0  0  0  0  0  0  0  0  0  0  0
   37.1286   31.5880   51.8801 H   0  0  0  0  0  0  0  0  0  0  0  0
   37.4559   32.5626   49.5388 H   0  0  0  0  0  0  0  0  0  0  0  0
   35.7611   31.9934   49.9807 H   0  0  0  0  0  0  0  0  0  0  0  0
   36.5084   31.3576   47.7314 H   0  0  0  0  0  0  0  0  0  0  0  0
   34.8325   30.8028   46.7097 H   0  0  0  0  0  0  0  0  0  0  0  0
   32.6346   30.1307   45.7086 H   0  0  0  0  0  0  0  0  0  0  0  0
   32.3110   27.1376   48.6721 H   0  0  0  0  0  0  0  0  0  0  0  0
   36.8226   29.9532   45.9226 Cl  0  0  0  0  0  0  0  0  0  0  0  0
   38.4838   30.4883   46.1831 C   0  0  0  0  0  0  0  0  0  0  0  0
   39.0506   30.6505   47.4487 C   0  0  0  0  0  0  0  0  0  0  0  0
   40.3504   31.0714   47.5296 C   0  0  0  0  0  0  0  0  0  0  0  0
   40.7364   31.1794   48.5291 H   0  0  0  0  0  0  0  0  0  0  0  0
   41.0740   31.3265   46.3855 C   0  0  0  0  0  0  0  0  0  0  0  0
   42.0914   31.6552   46.4913 H   0  0  0  0  0  0  0  0  0  0  0  0
   40.5380   31.1744   45.1189 C   0  0  0  0  0  0  0  0  0  0  0  0
   39.2241   30.7487   45.0489 C   0  0  0  0  0  0  0  0  0  0  0  0
   41.1033   31.3740   44.2079 H   0  0  0  0  0  0  0  0  0  0  0  0
   38.8009   30.6285   44.0635 H   0  0  0  0  0  0  0  0  0  0  0  0
  1  2  1  0
  2  3  1  0
  4  3  1  0
  5  4  1  0
  6  1  1  0
  6  5  1  0
  7 12  1  0
  7  1  1  0
  8  7  2  0
  9  8  1  0
  9 10  2  0
 10 11  1  0
 11 12  2  0
 13  6  1  0
  2 14  1  0
  2 15  1  0
  3 16  1  0
  3 17  1  0
  4 18  1  0
  4 19  1  0
  5 20  1  0
  5 21  1  0
  6 22  1  6
  8 23  1  0
  9 24  1  0
 11 25  1  0
 26 27  1  0
 27 28  2  0
 28 29  1  0
 29 30  1  0
 29 31  2  0
 31 32  1  0
 31 33  1  0
 33 34  2  0
 34 27  1  0
 33 35  1  0
 34 36  1  0
 13 28  1  0
M  ISO  8  14  13  15  13  16  13  17  13  18  13  19  13  20  13  21  13
M  ISO  6  22  13  23  14  24  14  25  14  30  15  32  16
M  END
>  <DihAtoms>  (1) 
5,12,27,26

>  <DihDeg>  (1) 
179.99974121275346

$$$$
