
 OpenBabel03262521433D

 30 32  0  0  1  0  0  0  0  0999 V2000
   37.4430   30.4690   47.0690 C   0  0  1  0  0  0  0  0  0  0  0  0
   36.3970   29.4700   47.5810 C   0  0  2  0  0  0  0  0  0  0  0  0
   35.1980   30.1010   46.9100 C   0  0  0  0  0  0  0  0  0  0  0  0
   35.6110   30.3890   45.6180 O   0  0  0  0  0  0  0  0  0  0  0  0
   36.9690   30.5080   45.6010 C   0  0  0  0  0  0  0  0  0  0  0  0
   38.4370   30.0380   47.1500 H   0  0  0  0  0  0  0  0  0  0  0  0
   36.6380   28.4920   47.1180 H   0  0  0  0  0  0  0  0  0  0  0  0
   34.3050   29.4450   46.9360 H   0  0  0  0  0  0  0  0  0  0  0  0
   34.9830   31.0640   47.4340 H   0  0  0  0  0  0  0  0  0  0  0  0
   37.5220   29.7720   44.9980 H   0  0  0  0  0  0  0  0  0  0  0  0
   37.2100   31.5100   45.1610 H   0  0  0  0  0  0  0  0  0  0  0  0
   36.3330   29.4570   49.0490 C   0  0  0  0  0  0  0  0  0  0  0  0
   37.5130   29.4460   49.8080 C   0  0  0  0  0  0  0  0  0  0  0  0
   37.3750   29.4090   51.1990 C   0  0  0  0  0  0  0  0  0  0  0  0
   36.1160   29.3880   51.7390 N   0  0  0  0  0  0  0  0  0  0  0  0
   34.9870   29.4000   50.9650 C   0  0  0  0  0  0  0  0  0  0  0  0
   35.1150   29.4340   49.6180 N   0  0  0  0  0  0  0  0  0  0  0  0
   38.4680   29.4630   49.3420 H   0  0  0  0  0  0  0  0  0  0  0  0
   38.2360   29.3980   51.8490 H   0  0  0  0  0  0  0  0  0  0  0  0
   34.0330   29.3810   51.4310 H   0  0  0  0  0  0  0  0  0  0  0  0
   37.2470   31.7260   47.5410 O   0  0  0  0  0  0  0  0  0  0  0  0
   36.9430   32.8820   50.1790 Cl  0  0  0  0  0  0  0  0  0  0  0  0
   38.2060   33.1850   48.9760 C   0  0  0  0  0  0  0  0  0  0  0  0
   38.3080   32.5970   47.7100 C   0  0  0  0  0  0  0  0  0  0  0  0
   39.3720   32.9670   46.9140 C   0  0  0  0  0  0  0  0  0  0  0  0
   39.3400   32.4470   45.9680 H   0  0  0  0  0  0  0  0  0  0  0  0
   40.2900   33.8850   47.3730 C   0  0  0  0  0  0  0  0  0  0  0  0
   41.0750   34.0880   46.6530 H   0  0  0  0  0  0  0  0  0  0  0  0
   40.1940   34.4610   48.6100 C   0  0  0  0  0  0  0  0  0  0  0  0
   39.1430   34.1160   49.4340 C   0  0  0  0  0  0  0  0  0  0  0  0
  1  6  1  1  0  0  0
  1 21  1  0  0  0  0
  1  2  1  0  0  0  0
  2  7  1  6  0  0  0
  2 12  1  0  0  0  0
  3  8  1  0  0  0  0
  3  9  1  0  0  0  0
  3  2  1  0  0  0  0
  4  3  1  0  0  0  0
  5  4  1  0  0  0  0
  5  1  1  0  0  0  0
 10  5  1  0  0  0  0
 11  5  1  0  0  0  0
 12 17  2  0  0  0  0
 12 13  1  0  0  0  0
 13 14  2  0  0  0  0
 14 15  1  0  0  0  0
 14 19  1  0  0  0  0
 16 20  1  0  0  0  0
 16 15  2  0  0  0  0
 17 16  1  0  0  0  0
 18 13  1  0  0  0  0
 21 24  1  0  0  0  0
 23 30  1  0  0  0  0
 23 22  1  0  0  0  0
 24 23  2  0  0  0  0
 25 27  2  0  0  0  0
 25 24  1  0  0  0  0
 26 25  1  0  0  0  0
 27 29  1  0  0  0  0
 28 27  1  0  0  0  0
 29 30  2  0  0  0  0
M  END
>  <minimizedAffinity>
-4.44201517

>  <minimizedRMSD>
2.61350441

$$$$
