REMARK  Name = 
REMARK  3 active torsions:
REMARK  status: ('A' for Active; 'I' for Inactive)
REMARK    1  A    between atoms: C_2  and  C_10
REMARK    2  A    between atoms: C_3  and  C_16
REMARK    3  A    between atoms: C_16  and  C_27
REMARK                            x       y       z     vdW  Elec       q    Type
REMARK                         _______ _______ _______ _____ _____    ______ ____
ROOT
ATOM      1  C   UNL     1      37.819  30.498  50.179  0.00  0.00    +0.000 A 
ATOM      2  C   UNL     1      37.318  30.692  48.894  0.00  0.00    +0.000 A 
ATOM      3  C   UNL     1      35.998  30.282  48.578  0.00  0.00    +0.000 A 
ATOM      4  N   UNL     1      35.275  29.712  49.560  0.00  0.00    +0.000 NA
ATOM      5  C   UNL     1      35.800  29.532  50.829  0.00  0.00    +0.000 A 
ATOM      6  N   UNL     1      37.066  29.927  51.124  0.00  0.00    +0.000 NA
ATOM      7  N   UNL     1      34.971  28.924  51.817  0.00  0.00    +0.000 N 
ATOM      8  H   UNL     1      38.824  30.814  50.416  0.00  0.00    +0.000 HD
ATOM      9  H   UNL     1      34.800  29.508  52.682  0.00  0.00    +0.000 HD
ATOM     10  H   UNL     1      34.532  27.980  51.758  0.00  0.00    +0.000 HD
ENDROOT
BRANCH   2  13
ATOM     11 CL   UNL     1      38.223  33.576  49.206  0.00  0.00    +0.000 Cl
ATOM     12  C   UNL     1      38.714  32.604  47.867  0.00  0.00    +0.000 A 
ATOM     13  C   UNL     1      38.217  31.338  47.901  0.00  0.00    +0.000 A 
ATOM     14  C   UNL     1      38.566  30.454  46.853  0.00  0.00    +0.000 A 
ATOM     15  C   UNL     1      39.365  30.818  45.829  0.00  0.00    +0.000 A 
ATOM     16  C   UNL     1      39.864  32.120  45.812  0.00  0.00    +0.000 A 
ATOM     17 CL   UNL     1      40.907  32.677  44.539  0.00  0.00    +0.000 Cl
ATOM     18  C   UNL     1      39.529  32.977  46.826  0.00  0.00    +0.000 A 
ATOM     19  H   UNL     1      38.244  29.424  46.780  0.00  0.00    +0.000 HD
ATOM     20  H   UNL     1      39.665  30.192  45.002  0.00  0.00    +0.000 HD
ATOM     21  H   UNL     1      39.884  34.017  46.881  0.00  0.00    +0.000 HD
ENDBRANCH   2  13
BRANCH   3  22
ATOM     22  C   UNL     1      35.505  30.506  47.233  0.00  0.00    +0.000 C 
ATOM     23  H   UNL     1      35.925  31.481  46.870  0.00  0.00    +0.000 HD
ATOM     24  H   UNL     1      35.947  29.728  46.545  0.00  0.00    +0.000 HD
BRANCH  22  27
ATOM     25 CL   UNL     1      34.360  27.885  46.537  0.00  0.00    +0.000 Cl
ATOM     26  C   UNL     1      33.369  29.332  46.777  0.00  0.00    +0.000 A 
ATOM     27  C   UNL     1      34.027  30.495  47.099  0.00  0.00    +0.000 A 
ATOM     28  C   UNL     1      33.289  31.643  47.290  0.00  0.00    +0.000 A 
ATOM     29  H   UNL     1      33.725  32.585  47.543  0.00  0.00    +0.000 HD
ATOM     30  C   UNL     1      31.909  31.631  47.161  0.00  0.00    +0.000 A 
ATOM     31  H   UNL     1      31.293  32.534  47.307  0.00  0.00    +0.000 HD
ATOM     32  C   UNL     1      31.289  30.437  46.836  0.00  0.00    +0.000 A 
ATOM     33  C   UNL     1      31.987  29.245  46.630  0.00  0.00    +0.000 A 
ENDBRANCH  22  27
ENDBRANCH   3  22
TORSDOF 3
