
     RDKit          3D

 39 41  0  0  0  0  0  0  0  0999 V2000
   37.3456   30.1148   48.2930 O   0  0  0  0  0  0  0  0  0  0  0  0
   38.0646   31.3066   48.2242 C   0  0  0  0  0  0  0  0  0  0  0  0
   38.2174   32.0162   49.4008 C   0  0  0  0  0  0  0  0  0  0  0  0
   38.9296   33.2063   49.3574 C   0  0  0  0  0  0  0  0  0  0  0  0
   39.4432   33.6225   48.1710 N   0  0  0  0  0  0  0  0  0  0  0  0
   39.2865   32.9213   47.0332 C   0  0  0  0  0  0  0  0  0  0  0  0
   38.6033   31.7809   47.0794 N   0  0  0  0  0  0  0  0  0  0  0  0
   40.7657   32.4681   45.2381 C   0  0  0  0  0  0  0  0  0  0  0  0
   41.1357   31.3435   45.6950 O   0  0  0  0  0  0  0  0  0  0  0  0
   39.8330   33.3858   45.8054 N   0  0  0  0  0  0  0  0  0  0  0  0
   35.4755   28.6825   50.0562 O   0  0  0  0  0  0  0  0  0  0  0  0
   35.2615   29.0488   48.8936 C   0  0  0  0  0  0  0  0  0  0  0  0
   35.9237   30.2037   48.3298 C   0  0  2  0  0  0  0  0  0  0  0  0
   35.4545   30.1339   46.8424 C   0  0  0  0  0  0  0  0  0  0  0  0
   34.1534   29.3777   46.9415 C   0  0  0  0  0  0  0  0  0  0  0  0
   34.3653   28.3929   48.0074 N   0  0  0  0  0  0  0  0  0  0  0  0
   33.7544   27.0875   48.0326 C   0  0  0  0  0  0  0  0  0  0  0  0
   37.8167   31.7043   50.3591 H   0  0  0  0  0  0  0  0  0  0  0  0
   39.0497   33.7666   50.2845 H   0  0  0  0  0  0  0  0  0  0  0  0
   41.2479   32.7267   44.2882 H   0  0  0  0  0  0  0  0  0  0  0  0
   39.5779   34.2965   45.3687 H   0  0  0  0  0  0  0  0  0  0  0  0
   35.5500   31.1416   48.7600 H   0  0  0  0  0  0  0  0  0  0  0  0
   35.2463   31.1846   46.5663 H   0  0  0  0  0  0  0  0  0  0  0  0
   36.2044   29.6391   46.2332 H   0  0  0  0  0  0  0  0  0  0  0  0
   33.2784   29.9997   47.1194 H   0  0  0  0  0  0  0  0  0  0  0  0
   34.0218   28.8205   45.9959 H   0  0  0  0  0  0  0  0  0  0  0  0
   32.7329   27.1765   47.6677 H   0  0  0  0  0  0  0  0  0  0  0  0
   33.6912   26.8105   49.1167 H   0  0  0  0  0  0  0  0  0  0  0  0
   33.1396   23.9840   48.1275 Cl  0  0  0  0  0  0  0  0  0  0  0  0
   34.4608   24.6985   47.2590 C   0  0  0  0  0  0  0  0  0  0  0  0
   34.5468   26.0656   47.3300 C   0  0  0  0  0  0  0  0  0  0  0  0
   35.6078   26.6045   46.6076 C   0  0  0  0  0  0  0  0  0  0  0  0
   35.8260   27.6828   46.5547 H   0  0  0  0  0  0  0  0  0  0  0  0
   36.5130   25.8695   45.8752 C   0  0  0  0  0  0  0  0  0  0  0  0
   37.3336   26.2978   45.3169 H   0  0  0  0  0  0  0  0  0  0  0  0
   36.4090   24.5036   45.8178 C   0  0  0  0  0  0  0  0  0  0  0  0
   35.3634   23.9530   46.5272 C   0  0  0  0  0  0  0  0  0  0  0  0
   37.0083   23.7870   45.3114 H   0  0  0  0  0  0  0  0  0  0  0  0
   35.1668   22.8753   46.5654 H   0  0  0  0  0  0  0  0  0  0  0  0
  2  1  1  0
  2  3  2  0
  4  3  1  0
  5  4  2  0
  6  7  2  0
  6  5  1  0
  7  2  1  0
  8  9  2  0
  8 10  1  0
 10  6  1  0
 12 11  2  0
 13  1  1  0
 13 12  1  0
 14 15  1  0
 14 13  1  0
 15 16  1  0
 16 17  1  0
 16 12  1  0
  3 18  1  0
  4 19  1  0
  8 20  1  0
 10 21  1  0
 13 22  1  1
 14 23  1  0
 14 24  1  0
 15 25  1  0
 15 26  1  0
 17 27  1  0
 17 28  1  0
 29 30  1  0
 30 31  2  0
 31 32  1  0
 32 33  1  0
 32 34  2  0
 34 35  1  0
 34 36  1  0
 36 37  2  0
 37 30  1  0
 36 38  1  0
 37 39  1  0
 17 31  1  0
M  ISO  8  18  14  19  14  20   6  22  13  23  13  24  13  25  13  26  13
M  ISO  4  27   8  28   8  33  15  35  16
M  END
>  <DihAtoms>  (1) 
15,16,30,29

>  <DihDeg>  (1) 
79.36743517196354

$$$$
