
 OpenBabel03272504083D

 33 35  0  0  0  0  0  0  0  0999 V2000
   37.8490   30.3610   50.0950 C   0  0  0  0  0  0  0  0  0  0  0  0
   37.2840   30.6300   48.8500 C   0  0  0  0  0  0  0  0  0  0  0  0
   35.9180   30.3330   48.6130 C   0  0  0  0  0  0  0  0  0  0  0  0
   35.2160   29.7940   49.6280 N   0  0  0  0  0  0  0  0  0  0  0  0
   35.8050   29.5380   50.8550 C   0  0  0  0  0  0  0  0  0  0  0  0
   37.1150   29.8250   51.0740 N   0  0  0  0  0  0  0  0  0  0  0  0
   34.9950   28.9700   51.8810 N   0  0  0  0  0  0  0  0  0  0  0  0
   38.8890   30.5910   50.2720 H   0  0  0  0  0  0  0  0  0  0  0  0
   34.9270   29.5410   52.7690 H   0  0  0  0  0  0  0  0  0  0  0  0
   34.4790   28.0650   51.8300 H   0  0  0  0  0  0  0  0  0  0  0  0
   38.2910   33.4870   49.0820 Cl  0  0  0  0  0  0  0  0  0  0  0  0
   38.7010   32.4790   47.7420 C   0  0  0  0  0  0  0  0  0  0  0  0
   38.1660   31.2310   47.8150 C   0  0  0  0  0  0  0  0  0  0  0  0
   38.4480   30.3200   46.7700 C   0  0  0  0  0  0  0  0  0  0  0  0
   39.2210   30.6420   45.7120 C   0  0  0  0  0  0  0  0  0  0  0  0
   39.7600   31.9270   45.6550 C   0  0  0  0  0  0  0  0  0  0  0  0
   40.7730   32.4300   44.3370 Cl  0  0  0  0  0  0  0  0  0  0  0  0
   39.4890   32.8100   46.6660 C   0  0  0  0  0  0  0  0  0  0  0  0
   38.0910   29.3000   46.7260 H   0  0  0  0  0  0  0  0  0  0  0  0
   39.4700   29.9940   44.8850 H   0  0  0  0  0  0  0  0  0  0  0  0
   39.8790   33.8380   46.6910 H   0  0  0  0  0  0  0  0  0  0  0  0
   35.3590   30.6320   47.3090 C   0  0  0  0  0  0  0  0  0  0  0  0
   34.5830   31.4320   47.4420 H   0  0  0  0  0  0  0  0  0  0  0  0
   36.1560   31.1090   46.6680 H   0  0  0  0  0  0  0  0  0  0  0  0
   35.7780   30.6610   44.3950 Cl  0  0  0  0  0  0  0  0  0  0  0  0
   34.9150   29.3600   45.2270 C   0  0  0  0  0  0  0  0  0  0  0  0
   34.7860   29.4660   46.5920 C   0  0  0  0  0  0  0  0  0  0  0  0
   34.1170   28.4740   47.2740 C   0  0  0  0  0  0  0  0  0  0  0  0
   33.9750   28.4820   48.3330 H   0  0  0  0  0  0  0  0  0  0  0  0
   33.5800   27.3870   46.6030 C   0  0  0  0  0  0  0  0  0  0  0  0
   33.0390   26.5780   47.1220 H   0  0  0  0  0  0  0  0  0  0  0  0
   33.7330   27.3210   45.2290 C   0  0  0  0  0  0  0  0  0  0  0  0
   34.4020   28.2980   44.4870 C   0  0  0  0  0  0  0  0  0  0  0  0
  1  8  1  0  0  0  0
  1  6  1  0  0  0  0
  2  1  2  0  0  0  0
  3  2  1  0  0  0  0
  3  4  2  0  0  0  0
  4  5  1  0  0  0  0
  5  6  2  0  0  0  0
  5  7  1  0  0  0  0
  7  9  1  0  0  0  0
 10  7  1  0  0  0  0
 12 13  1  0  0  0  0
 12 11  1  0  0  0  0
 13  2  1  0  0  0  0
 14 13  2  0  0  0  0
 15 14  1  0  0  0  0
 16 15  2  0  0  0  0
 16 18  1  0  0  0  0
 17 16  1  0  0  0  0
 18 21  1  0  0  0  0
 18 12  2  0  0  0  0
 19 14  1  0  0  0  0
 20 15  1  0  0  0  0
 22 23  1  0  0  0  0
 22  3  1  0  0  0  0
 24 22  1  0  0  0  0
 25 26  1  0  0  0  0
 26 27  1  0  0  0  0
 27 28  2  0  0  0  0
 27 22  1  0  0  0  0
 28 29  1  0  0  0  0
 30 31  1  0  0  0  0
 30 28  1  0  0  0  0
 32 30  2  0  0  0  0
 33 26  2  0  0  0  0
 33 32  1  0  0  0  0
M  END
>  <minimizedAffinity>
-5.81626415

>  <minimizedRMSD>
1.6076386

$$$$
