
     RDKit          3D

 35 37  0  0  0  0  0  0  0  0999 V2000
   37.8188   30.4983   50.1789 C   0  0  0  0  0  0  0  0  0  0  0  0
   37.3175   30.6920   48.8938 C   0  0  0  0  0  0  0  0  0  0  0  0
   35.9985   30.2822   48.5785 C   0  0  0  0  0  0  0  0  0  0  0  0
   35.2747   29.7115   49.5599 N   0  0  0  0  0  0  0  0  0  0  0  0
   35.8003   29.5318   50.8292 C   0  0  0  0  0  0  0  0  0  0  0  0
   37.0664   29.9271   51.1238 N   0  0  0  0  0  0  0  0  0  0  0  0
   34.9709   28.9243   51.8172 N   0  0  0  0  0  0  0  0  0  0  0  0
   38.2231   33.5763   49.2061 Cl  0  0  0  0  0  0  0  0  0  0  0  0
   38.7144   32.6041   47.8666 C   0  0  0  0  0  0  0  0  0  0  0  0
   38.2172   31.3385   47.9014 C   0  0  0  0  0  0  0  0  0  0  0  0
   38.5663   30.4541   46.8531 C   0  0  0  0  0  0  0  0  0  0  0  0
   39.3650   30.8179   45.8293 C   0  0  0  0  0  0  0  0  0  0  0  0
   39.8645   32.1198   45.8115 C   0  0  0  0  0  0  0  0  0  0  0  0
   40.9074   32.6773   44.5388 Cl  0  0  0  0  0  0  0  0  0  0  0  0
   39.5288   32.9772   46.8256 C   0  0  0  0  0  0  0  0  0  0  0  0
   35.5052   30.5065   47.2335 C   0  0  0  0  0  0  0  0  0  0  0  0
   38.8243   30.8137   50.4158 H   0  0  0  0  0  0  0  0  0  0  0  0
   34.8003   29.5082   52.6820 H   0  0  0  0  0  0  0  0  0  0  0  0
   34.5318   27.9803   51.7584 H   0  0  0  0  0  0  0  0  0  0  0  0
   38.2442   29.4245   46.7796 H   0  0  0  0  0  0  0  0  0  0  0  0
   39.6653   30.1917   45.0019 H   0  0  0  0  0  0  0  0  0  0  0  0
   39.8844   34.0172   46.8806 H   0  0  0  0  0  0  0  0  0  0  0  0
   35.9254   31.4812   46.8697 H   0  0  0  0  0  0  0  0  0  0  0  0
   35.9465   29.7280   46.5452 H   0  0  0  0  0  0  0  0  0  0  0  0
   34.2971   27.8215   47.2303 Cl  0  0  0  0  0  0  0  0  0  0  0  0
   33.3413   29.3037   47.0842 C   0  0  0  0  0  0  0  0  0  0  0  0
   34.0273   30.4949   47.0990 C   0  0  0  0  0  0  0  0  0  0  0  0
   33.3167   31.6699   46.9841 C   0  0  0  0  0  0  0  0  0  0  0  0
   33.7749   32.6356   46.9876 H   0  0  0  0  0  0  0  0  0  0  0  0
   31.9369   31.6574   46.8558 C   0  0  0  0  0  0  0  0  0  0  0  0
   31.3422   32.5818   46.7604 H   0  0  0  0  0  0  0  0  0  0  0  0
   31.2881   30.4350   46.8454 C   0  0  0  0  0  0  0  0  0  0  0  0
   31.9578   29.2137   46.9581 C   0  0  0  0  0  0  0  0  0  0  0  0
   30.2027   30.4495   46.7442 H   0  0  0  0  0  0  0  0  0  0  0  0
   31.4599   28.2711   46.9510 H   0  0  0  0  0  0  0  0  0  0  0  0
  1  6  2  0
  2  1  1  0
  3  2  2  0
  3  4  1  0
  4  5  2  0
  5  6  1  0
  5  7  1  0
  9 10  2  0
  9  8  1  0
 10  2  1  0
 11 10  1  0
 12 11  2  0
 13 12  1  0
 13 15  2  0
 14 13  1  0
 15  9  1  0
 16  3  1  0
  1 17  1  0
  7 18  1  0
  7 19  1  0
 11 20  1  0
 12 21  1  0
 15 22  1  0
 16 23  1  0
 16 24  1  0
 25 26  1  0
 26 27  2  0
 27 28  1  0
 28 29  1  0
 28 30  2  0
 30 31  1  0
 30 32  1  0
 32 33  2  0
 33 26  1  0
 32 34  1  0
 33 35  1  0
 16 27  1  0
M  ISO  8  17  14  20  14  21  14  22  14  23   8  24   8  29  15  31  16
M  END
>  <DihAtoms>  (1) 
2,15,26,25

>  <DihDeg>  (1) 
-77.6746894680744

$$$$
