REMARK  Name = 
REMARK  2 active torsions:
REMARK  status: ('A' for Active; 'I' for Inactive)
REMARK    1  A    between atoms: C_2  and  C_8
REMARK    2  A    between atoms: C_3  and  C_17
REMARK                            x       y       z     vdW  Elec       q    Type
REMARK                         _______ _______ _______ _____ _____    ______ ____
ROOT
ATOM      1  C   UNL     1      35.636  29.000  50.175  0.00  0.00    +0.000 A 
ATOM      2  C   UNL     1      36.298  30.145  49.656  0.00  0.00    +0.000 A 
ATOM      3  C   UNL     1      36.040  30.506  48.350  0.00  0.00    +0.000 A 
ATOM      4  N   UNL     1      35.154  29.746  47.616  0.00  0.00    +0.000 NA
ATOM      5  C   UNL     1      34.541  28.659  48.143  0.00  0.00    +0.000 A 
ATOM      6  N   UNL     1      34.775  28.285  49.417  0.00  0.00    +0.000 NA
ATOM      7  N   UNL     1      33.681  28.038  47.200  0.00  0.00    +0.000 N 
ATOM      8  H   UNL     1      35.785  28.657  51.194  0.00  0.00    +0.000 HD
ATOM      9  H   UNL     1      34.328  27.383  46.646  0.00  0.00    +0.000 HD
ATOM     10  H   UNL     1      32.672  28.135  47.036  0.00  0.00    +0.000 HD
ENDROOT
BRANCH   3  13
ATOM     11 CL   UNL     1      37.126  30.109  45.635  0.00  0.00    +0.000 Cl
ATOM     12  C   UNL     1      37.239  31.681  46.432  0.00  0.00    +0.000 A 
ATOM     13  C   UNL     1      36.588  31.632  47.672  0.00  0.00    +0.000 A 
ATOM     14  C   UNL     1      36.573  32.820  48.430  0.00  0.00    +0.000 A 
ATOM     15  H   UNL     1      36.123  33.004  49.396  0.00  0.00    +0.000 HD
ATOM     16  C   UNL     1      37.172  33.973  47.969  0.00  0.00    +0.000 A 
ATOM     17  H   UNL     1      37.211  34.908  48.474  0.00  0.00    +0.000 HD
ATOM     18  C   UNL     1      37.805  33.961  46.735  0.00  0.00    +0.000 A 
ATOM     19  C   UNL     1      37.837  32.831  45.974  0.00  0.00    +0.000 A 
ENDBRANCH   3  13
BRANCH   2  20
ATOM     20  C   UNL     1      37.225  30.903  50.533  0.00  0.00    +0.000 C 
ATOM     21  F   UNL     1      38.526  30.792  50.107  0.00  0.00    +0.000 F 
ATOM     22  F   UNL     1      36.864  32.229  50.493  0.00  0.00    +0.000 F 
ATOM     23  F   UNL     1      37.173  30.488  51.854  0.00  0.00    +0.000 F 
ENDBRANCH   2  20
TORSDOF 2
