
 OpenBabel03272509483D

 25 26  0  0  0  0  0  0  0  0999 V2000
   37.7830   22.9770   33.8880 C   0  0  0  0  0  0  0  0  0  0  0  0
   37.4020   22.5040   32.9680 H   0  0  0  0  0  0  0  0  0  0  0  0
   36.8770   23.4540   34.3540 H   0  0  0  0  0  0  0  0  0  0  0  0
   38.7320   24.1070   33.6130 C   0  0  0  0  0  0  0  0  0  0  0  0
   38.8190   24.2380   32.4950 H   0  0  0  0  0  0  0  0  0  0  0  0
   39.7580   23.9000   33.9800 H   0  0  0  0  0  0  0  0  0  0  0  0
   36.5210   25.7360   32.1930 Cl  0  0  0  0  0  0  0  0  0  0  0  0
   37.3450   26.2510   33.6490 C   0  0  0  0  0  0  0  0  0  0  0  0
   38.3160   25.4110   34.1530 C   0  0  0  0  0  0  0  0  0  0  0  0
   38.9270   25.9020   35.3070 C   0  0  0  0  0  0  0  0  0  0  0  0
   39.7120   25.2720   35.7550 H   0  0  0  0  0  0  0  0  0  0  0  0
   38.6520   27.0920   35.9450 C   0  0  0  0  0  0  0  0  0  0  0  0
   39.1860   27.3730   36.8300 H   0  0  0  0  0  0  0  0  0  0  0  0
   37.6540   27.8590   35.3480 C   0  0  0  0  0  3  0  0  0  0  0  0
   36.9880   27.4610   34.2020 C   0  0  0  0  0  3  0  0  0  0  0  0
   38.3250   22.0280   34.7690 O   0  0  0  0  0  0  0  0  0  0  0  0
   40.0420   22.8090   37.8560 C   0  0  0  0  0  0  0  0  0  0  0  0
   38.9640   23.3080   38.6010 C   0  0  0  0  0  0  0  0  0  0  0  0
   37.7060   23.3540   38.0170 C   0  0  0  0  0  0  0  0  0  0  0  0
   37.6080   22.9000   36.7280 N   0  0  0  0  0  0  0  0  0  0  0  0
   38.6660   22.4250   36.0380 C   0  0  0  0  0  0  0  0  0  0  0  0
   39.8790   22.3880   36.6200 N   0  0  0  0  0  0  0  0  0  0  0  0
   40.9950   22.7980   38.3650 H   0  0  0  0  0  0  0  0  0  0  0  0
   39.0600   23.6640   39.6200 H   0  0  0  0  0  0  0  0  0  0  0  0
   36.8310   23.7280   38.5350 H   0  0  0  0  0  0  0  0  0  0  0  0
  1  3  1  0  0  0  0
  1 16  1  0  0  0  0
  2  1  1  0  0  0  0
  4  1  1  0  0  0  0
  4  6  1  0  0  0  0
  4  9  1  0  0  0  0
  5  4  1  0  0  0  0
  7  8  1  0  0  0  0
  8  9  2  0  0  0  0
  8 15  1  0  0  0  0
  9 10  1  0  0  0  0
 10 11  1  0  0  0  0
 10 12  2  0  0  0  0
 12 13  1  0  0  0  0
 14 12  1  0  0  0  0
 15 14  2  0  0  0  0
 16 21  1  0  0  0  0
 17 23  1  0  0  0  0
 17 18  1  0  0  0  0
 18 24  1  0  0  0  0
 19 25  1  0  0  0  0
 19 18  2  0  0  0  0
 20 19  1  0  0  0  0
 21 22  1  0  0  0  0
 21 20  2  0  0  0  0
 22 17  2  0  0  0  0
M  END
>  <minimizedAffinity>
-4.52161551

$$$$

 OpenBabel03272509483D

 25 26  0  0  0  0  0  0  0  0999 V2000
   36.8820   27.5650   34.5600 C   0  0  0  0  0  0  0  0  0  0  0  0
   36.2550   28.4640   34.6810 H   0  0  0  0  0  0  0  0  0  0  0  0
   36.2140   26.7130   34.8620 H   0  0  0  0  0  0  0  0  0  0  0  0
   38.0380   27.5260   35.5170 C   0  0  0  0  0  0  0  0  0  0  0  0
   37.6520   27.7530   36.5540 H   0  0  0  0  0  0  0  0  0  0  0  0
   38.8010   28.3010   35.2950 H   0  0  0  0  0  0  0  0  0  0  0  0
   40.6860   27.0710   33.9870 Cl  0  0  0  0  0  0  0  0  0  0  0  0
   39.9100   25.8690   34.9960 C   0  0  0  0  0  0  0  0  0  0  0  0
   38.7260   26.2290   35.6040 C   0  0  0  0  0  0  0  0  0  0  0  0
   38.1720   25.2100   36.3800 C   0  0  0  0  0  0  0  0  0  0  0  0
   37.2230   25.4400   36.8910 H   0  0  0  0  0  0  0  0  0  0  0  0
   38.6870   23.9470   36.5760 C   0  0  0  0  0  0  0  0  0  0  0  0
   38.1760   23.2380   37.1950 H   0  0  0  0  0  0  0  0  0  0  0  0
   39.8860   23.6960   35.9140 C   0  0  0  0  0  3  0  0  0  0  0  0
   40.5150   24.6380   35.1190 C   0  0  0  0  0  3  0  0  0  0  0  0
   37.2880   27.3990   33.2260 O   0  0  0  0  0  0  0  0  0  0  0  0
   35.1720   25.6140   30.8970 C   0  0  0  0  0  0  0  0  0  0  0  0
   35.6420   24.3100   31.1090 C   0  0  0  0  0  0  0  0  0  0  0  0
   36.6550   24.1020   32.0340 C   0  0  0  0  0  0  0  0  0  0  0  0
   37.1320   25.2090   32.6850 N   0  0  0  0  0  0  0  0  0  0  0  0
   36.6580   26.4520   32.4580 C   0  0  0  0  0  0  0  0  0  0  0  0
   35.6750   26.6360   31.5570 N   0  0  0  0  0  0  0  0  0  0  0  0
   34.3830   25.7120   30.1660 H   0  0  0  0  0  0  0  0  0  0  0  0
   35.2530   23.4450   30.5850 H   0  0  0  0  0  0  0  0  0  0  0  0
   37.0650   23.1220   32.2460 H   0  0  0  0  0  0  0  0  0  0  0  0
  1  2  1  0  0  0  0
  1  3  1  0  0  0  0
  1  4  1  0  0  0  0
  4  9  1  0  0  0  0
  4  5  1  0  0  0  0
  6  4  1  0  0  0  0
  7  8  1  0  0  0  0
  8 15  2  0  0  0  0
  8  9  1  0  0  0  0
  9 10  2  0  0  0  0
 10 12  1  0  0  0  0
 10 11  1  0  0  0  0
 12 13  1  0  0  0  0
 14 12  2  0  0  0  0
 15 14  1  0  0  0  0
 16  1  1  0  0  0  0
 17 18  2  0  0  0  0
 17 22  1  0  0  0  0
 18 19  1  0  0  0  0
 19 25  1  0  0  0  0
 19 20  2  0  0  0  0
 21 20  1  0  0  0  0
 21 16  1  0  0  0  0
 22 21  2  0  0  0  0
 23 17  1  0  0  0  0
 24 18  1  0  0  0  0
M  END
>  <minimizedAffinity>
-4.50478554

$$$$

 OpenBabel03272509483D

 25 26  0  0  0  0  0  0  0  0999 V2000
   35.6790   29.2530   32.9140 C   0  0  0  0  0  0  0  0  0  0  0  0
   35.5400   29.7710   31.9500 H   0  0  0  0  0  0  0  0  0  0  0  0
   36.5180   29.8110   33.4140 H   0  0  0  0  0  0  0  0  0  0  0  0
   36.1760   27.8460   32.7540 C   0  0  0  0  0  0  0  0  0  0  0  0
   36.4440   27.6820   31.6690 H   0  0  0  0  0  0  0  0  0  0  0  0
   35.4000   27.0910   32.9970 H   0  0  0  0  0  0  0  0  0  0  0  0
   38.8270   27.1860   31.3060 Cl  0  0  0  0  0  0  0  0  0  0  0  0
   38.6330   27.2170   33.0460 C   0  0  0  0  0  0  0  0  0  0  0  0
   37.3800   27.5220   33.5340 C   0  0  0  0  0  0  0  0  0  0  0  0
   37.3130   27.5160   34.9270 C   0  0  0  0  0  0  0  0  0  0  0  0
   36.3350   27.7530   35.3750 H   0  0  0  0  0  0  0  0  0  0  0  0
   38.3420   27.2450   35.8030 C   0  0  0  0  0  0  0  0  0  0  0  0
   38.1790   27.2670   36.8620 H   0  0  0  0  0  0  0  0  0  0  0  0
   39.5620   26.9510   35.1980 C   0  0  0  0  0  3  0  0  0  0  0  0
   39.7320   26.9300   33.8250 C   0  0  0  0  0  3  0  0  0  0  0  0
   34.5230   29.3240   33.7070 O   0  0  0  0  0  0  0  0  0  0  0  0
   33.5920   31.4130   36.5090 C   0  0  0  0  0  0  0  0  0  0  0  0
   34.8320   32.0100   36.7770 C   0  0  0  0  0  0  0  0  0  0  0  0
   35.9250   31.6720   35.9910 C   0  0  0  0  0  0  0  0  0  0  0  0
   35.7060   30.7610   34.9910 N   0  0  0  0  0  0  0  0  0  0  0  0
   34.4980   30.2050   34.7590 C   0  0  0  0  0  0  0  0  0  0  0  0
   33.4500   30.5440   35.5320 N   0  0  0  0  0  0  0  0  0  0  0  0
   32.7800   31.7170   37.1550 H   0  0  0  0  0  0  0  0  0  0  0  0
   34.9880   32.7290   37.5730 H   0  0  0  0  0  0  0  0  0  0  0  0
   36.9110   32.0930   36.1430 H   0  0  0  0  0  0  0  0  0  0  0  0
  1  3  1  0  0  0  0
  1 16  1  0  0  0  0
  2  1  1  0  0  0  0
  4  1  1  0  0  0  0
  4  6  1  0  0  0  0
  4  9  1  0  0  0  0
  5  4  1  0  0  0  0
  7  8  1  0  0  0  0
  8  9  2  0  0  0  0
  8 15  1  0  0  0  0
  9 10  1  0  0  0  0
 10 11  1  0  0  0  0
 10 12  2  0  0  0  0
 12 13  1  0  0  0  0
 14 12  1  0  0  0  0
 15 14  2  0  0  0  0
 16 21  1  0  0  0  0
 17 18  1  0  0  0  0
 17 23  1  0  0  0  0
 18 24  1  0  0  0  0
 19 25  1  0  0  0  0
 19 18  2  0  0  0  0
 20 19  1  0  0  0  0
 21 20  2  0  0  0  0
 21 22  1  0  0  0  0
 22 17  2  0  0  0  0
M  END
>  <minimizedAffinity>
-4.49958611

$$$$

 OpenBabel03272509483D

 25 26  0  0  0  0  0  0  0  0999 V2000
   36.9360   27.3900   34.6620 C   0  0  0  0  0  0  0  0  0  0  0  0
   36.1910   28.1840   34.8310 H   0  0  0  0  0  0  0  0  0  0  0  0
   36.4120   26.4440   34.9720 H   0  0  0  0  0  0  0  0  0  0  0  0
   38.1270   27.5020   35.5700 C   0  0  0  0  0  0  0  0  0  0  0  0
   37.7780   27.3660   36.6350 H   0  0  0  0  0  0  0  0  0  0  0  0
   38.6020   28.5030   35.5260 H   0  0  0  0  0  0  0  0  0  0  0  0
   37.6980   24.5850   36.5000 Cl  0  0  0  0  0  0  0  0  0  0  0  0
   39.1370   25.1600   35.6850 C   0  0  0  0  0  0  0  0  0  0  0  0
   39.1750   26.4950   35.3430 C   0  0  0  0  0  0  0  0  0  0  0  0
   40.3590   26.8700   34.7070 C   0  0  0  0  0  0  0  0  0  0  0  0
   40.4460   27.9270   34.4110 H   0  0  0  0  0  0  0  0  0  0  0  0
   41.4310   26.0560   34.4120 C   0  0  0  0  0  0  0  0  0  0  0  0
   42.2970   26.4500   33.9190 H   0  0  0  0  0  0  0  0  0  0  0  0
   41.2820   24.7280   34.8030 C   0  0  0  0  0  3  0  0  0  0  0  0
   40.1470   24.2570   35.4400 C   0  0  0  0  0  3  0  0  0  0  0  0
   37.3020   27.3070   33.3100 O   0  0  0  0  0  0  0  0  0  0  0  0
   35.2020   25.6020   30.9080 C   0  0  0  0  0  0  0  0  0  0  0  0
   35.6530   24.2870   31.0980 C   0  0  0  0  0  0  0  0  0  0  0  0
   36.6490   24.0460   32.0330 C   0  0  0  0  0  0  0  0  0  0  0  0
   37.1290   25.1330   32.7160 N   0  0  0  0  0  0  0  0  0  0  0  0
   36.6730   26.3860   32.5100 C   0  0  0  0  0  0  0  0  0  0  0  0
   35.7070   26.6020   31.5990 N   0  0  0  0  0  0  0  0  0  0  0  0
   34.4260   25.7260   30.1680 H   0  0  0  0  0  0  0  0  0  0  0  0
   35.2620   23.4390   30.5480 H   0  0  0  0  0  0  0  0  0  0  0  0
   37.0440   23.0570   32.2290 H   0  0  0  0  0  0  0  0  0  0  0  0
  1  2  1  0  0  0  0
  1  3  1  0  0  0  0
  1  4  1  0  0  0  0
  4  5  1  0  0  0  0
  6  4  1  0  0  0  0
  8  7  1  0  0  0  0
  9  4  1  0  0  0  0
  9  8  2  0  0  0  0
 10  9  1  0  0  0  0
 11 10  1  0  0  0  0
 12 10  2  0  0  0  0
 12 14  1  0  0  0  0
 13 12  1  0  0  0  0
 14 15  2  0  0  0  0
 15  8  1  0  0  0  0
 16  1  1  0  0  0  0
 17 18  2  0  0  0  0
 17 22  1  0  0  0  0
 18 19  1  0  0  0  0
 19 25  1  0  0  0  0
 19 20  2  0  0  0  0
 21 20  1  0  0  0  0
 21 16  1  0  0  0  0
 22 21  2  0  0  0  0
 23 17  1  0  0  0  0
 24 18  1  0  0  0  0
M  END
>  <minimizedAffinity>
-4.43639517

$$$$

 OpenBabel03272509483D

 25 26  0  0  0  0  0  0  0  0999 V2000
   35.6830   29.1630   32.8440 C   0  0  0  0  0  0  0  0  0  0  0  0
   36.4830   29.8510   33.1640 H   0  0  0  0  0  0  0  0  0  0  0  0
   35.5040   29.4230   31.7650 H   0  0  0  0  0  0  0  0  0  0  0  0
   34.3780   29.4230   33.5390 C   0  0  0  0  0  0  0  0  0  0  0  0
   33.9790   28.4410   33.9300 H   0  0  0  0  0  0  0  0  0  0  0  0
   33.6020   29.8200   32.8520 H   0  0  0  0  0  0  0  0  0  0  0  0
   31.8690   29.9720   35.2600 Cl  0  0  0  0  0  0  0  0  0  0  0  0
   33.4460   30.6680   35.5640 C   0  0  0  0  0  0  0  0  0  0  0  0
   34.4610   30.3270   34.6950 C   0  0  0  0  0  0  0  0  0  0  0  0
   35.6790   30.9330   35.0050 C   0  0  0  0  0  0  0  0  0  0  0  0
   36.5290   30.6980   34.3440 H   0  0  0  0  0  0  0  0  0  0  0  0
   35.9320   31.7940   36.0510 C   0  0  0  0  0  0  0  0  0  0  0  0
   36.9110   32.2040   36.1970 H   0  0  0  0  0  0  0  0  0  0  0  0
   34.8330   32.0660   36.8630 C   0  0  0  0  0  3  0  0  0  0  0  0
   33.5830   31.5160   36.6400 C   0  0  0  0  0  3  0  0  0  0  0  0
   36.0850   27.8220   32.9490 O   0  0  0  0  0  0  0  0  0  0  0  0
   39.4930   26.9550   33.7960 C   0  0  0  0  0  0  0  0  0  0  0  0
   39.4110   27.0300   35.1950 C   0  0  0  0  0  0  0  0  0  0  0  0
   38.2000   27.3710   35.7800 C   0  0  0  0  0  0  0  0  0  0  0  0
   37.1530   27.6160   34.9310 N   0  0  0  0  0  0  0  0  0  0  0  0
   37.2650   27.5350   33.5890 C   0  0  0  0  0  0  0  0  0  0  0  0
   38.4470   27.2030   33.0380 N   0  0  0  0  0  0  0  0  0  0  0  0
   40.4610   26.6840   33.4010 H   0  0  0  0  0  0  0  0  0  0  0  0
   40.2500   26.8330   35.8510 H   0  0  0  0  0  0  0  0  0  0  0  0
   38.0660   27.4480   36.8520 H   0  0  0  0  0  0  0  0  0  0  0  0
  1 16  1  0  0  0  0
  1  2  1  0  0  0  0
  1  4  1  0  0  0  0
  3  1  1  0  0  0  0
  4  5  1  0  0  0  0
  4  9  1  0  0  0  0
  6  4  1  0  0  0  0
  7  8  1  0  0  0  0
  8 15  1  0  0  0  0
  9 10  1  0  0  0  0
  9  8  2  0  0  0  0
 10 12  2  0  0  0  0
 11 10  1  0  0  0  0
 12 13  1  0  0  0  0
 12 14  1  0  0  0  0
 15 14  2  0  0  0  0
 16 21  1  0  0  0  0
 17 18  1  0  0  0  0
 18 19  2  0  0  0  0
 18 24  1  0  0  0  0
 19 25  1  0  0  0  0
 20 19  1  0  0  0  0
 21 20  2  0  0  0  0
 22 21  1  0  0  0  0
 22 17  2  0  0  0  0
 23 17  1  0  0  0  0
M  END
>  <minimizedAffinity>
-4.42656183

$$$$

 OpenBabel03272509483D

 25 26  0  0  0  0  0  0  0  0999 V2000
   38.5110   22.6250   33.4340 C   0  0  0  0  0  0  0  0  0  0  0  0
   38.8780   23.6450   33.6330 H   0  0  0  0  0  0  0  0  0  0  0  0
   39.1250   22.2720   32.5600 H   0  0  0  0  0  0  0  0  0  0  0  0
   37.0880   22.5970   32.9580 C   0  0  0  0  0  0  0  0  0  0  0  0
   36.9830   23.3240   32.0990 H   0  0  0  0  0  0  0  0  0  0  0  0
   36.3730   22.9340   33.7360 H   0  0  0  0  0  0  0  0  0  0  0  0
   35.5290   20.6850   34.8210 Cl  0  0  0  0  0  0  0  0  0  0  0  0
   35.9180   20.3360   33.1500 C   0  0  0  0  0  0  0  0  0  0  0  0
   36.6280   21.2930   32.4570 C   0  0  0  0  0  0  0  0  0  0  0  0
   36.9020   20.9300   31.1380 C   0  0  0  0  0  0  0  0  0  0  0  0
   37.4690   21.6570   30.5340 H   0  0  0  0  0  0  0  0  0  0  0  0
   36.5390   19.7580   30.5110 C   0  0  0  0  0  0  0  0  0  0  0  0
   36.8040   19.5800   29.4880 H   0  0  0  0  0  0  0  0  0  0  0  0
   35.8250   18.8650   31.3070 C   0  0  0  0  0  3  0  0  0  0  0  0
   35.5040   19.1310   32.6270 C   0  0  0  0  0  3  0  0  0  0  0  0
   38.7230   21.7780   34.5330 O   0  0  0  0  0  0  0  0  0  0  0  0
   37.8390   23.3790   37.6550 C   0  0  0  0  0  0  0  0  0  0  0  0
   39.0710   23.2890   38.3190 C   0  0  0  0  0  0  0  0  0  0  0  0
   40.1420   22.6880   37.6720 C   0  0  0  0  0  0  0  0  0  0  0  0
   39.9110   22.2170   36.4060 N   0  0  0  0  0  0  0  0  0  0  0  0
   38.7120   22.3200   35.7940 C   0  0  0  0  0  0  0  0  0  0  0  0
   37.6850   22.9050   36.4360 N   0  0  0  0  0  0  0  0  0  0  0  0
   37.0450   23.8580   38.2090 H   0  0  0  0  0  0  0  0  0  0  0  0
   39.2360   23.6670   39.3210 H   0  0  0  0  0  0  0  0  0  0  0  0
   41.1190   22.5840   38.1260 H   0  0  0  0  0  0  0  0  0  0  0  0
  1  2  1  0  0  0  0
  1 16  1  0  0  0  0
  3  1  1  0  0  0  0
  4  1  1  0  0  0  0
  4  6  1  0  0  0  0
  5  4  1  0  0  0  0
  8  7  1  0  0  0  0
  9  4  1  0  0  0  0
  9  8  2  0  0  0  0
 10  9  1  0  0  0  0
 11 10  1  0  0  0  0
 12 10  2  0  0  0  0
 12 14  1  0  0  0  0
 13 12  1  0  0  0  0
 14 15  2  0  0  0  0
 15  8  1  0  0  0  0
 16 21  1  0  0  0  0
 17 23  1  0  0  0  0
 17 18  1  0  0  0  0
 18 24  1  0  0  0  0
 19 25  1  0  0  0  0
 19 18  2  0  0  0  0
 20 19  1  0  0  0  0
 21 20  2  0  0  0  0
 21 22  1  0  0  0  0
 22 17  2  0  0  0  0
M  END
>  <minimizedAffinity>
-4.41033363

$$$$

 OpenBabel03272509483D

 25 26  0  0  0  0  0  0  0  0999 V2000
   38.2500   26.4000   34.8090 C   0  0  0  0  0  0  0  0  0  0  0  0
   38.9440   26.7360   35.5970 H   0  0  0  0  0  0  0  0  0  0  0  0
   38.8080   26.5790   33.8490 H   0  0  0  0  0  0  0  0  0  0  0  0
   37.0160   27.2500   34.7170 C   0  0  0  0  0  0  0  0  0  0  0  0
   37.0840   28.0650   35.4960 H   0  0  0  0  0  0  0  0  0  0  0  0
   36.0900   26.6820   34.9450 H   0  0  0  0  0  0  0  0  0  0  0  0
   34.7530   29.3290   34.3760 Cl  0  0  0  0  0  0  0  0  0  0  0  0
   35.8760   28.8760   33.1120 C   0  0  0  0  0  0  0  0  0  0  0  0
   36.8240   27.9250   33.4240 C   0  0  0  0  0  0  0  0  0  0  0  0
   37.6700   27.6170   32.3590 C   0  0  0  0  0  0  0  0  0  0  0  0
   38.4490   26.8620   32.5500 H   0  0  0  0  0  0  0  0  0  0  0  0
   37.6350   28.1590   31.0920 C   0  0  0  0  0  0  0  0  0  0  0  0
   38.3360   27.8480   30.3450 H   0  0  0  0  0  0  0  0  0  0  0  0
   36.6370   29.1100   30.8910 C   0  0  0  0  0  3  0  0  0  0  0  0
   35.7470   29.4840   31.8830 C   0  0  0  0  0  3  0  0  0  0  0  0
   37.9500   25.0350   34.9350 O   0  0  0  0  0  0  0  0  0  0  0  0
   39.7540   22.9020   37.2330 C   0  0  0  0  0  0  0  0  0  0  0  0
   39.0600   23.1950   38.4150 C   0  0  0  0  0  0  0  0  0  0  0  0
   38.0120   24.1030   38.3730 C   0  0  0  0  0  0  0  0  0  0  0  0
   37.7280   24.6590   37.1540 N   0  0  0  0  0  0  0  0  0  0  0  0
   38.4160   24.3550   36.0330 C   0  0  0  0  0  0  0  0  0  0  0  0
   39.4290   23.4720   36.0920 N   0  0  0  0  0  0  0  0  0  0  0  0
   40.5590   22.1870   37.3290 H   0  0  0  0  0  0  0  0  0  0  0  0
   39.2990   22.7460   39.3720 H   0  0  0  0  0  0  0  0  0  0  0  0
   37.4350   24.3760   39.2480 H   0  0  0  0  0  0  0  0  0  0  0  0
  1 16  1  0  0  0  0
  1  2  1  0  0  0  0
  3  1  1  0  0  0  0
  4  1  1  0  0  0  0
  4  6  1  0  0  0  0
  4  5  1  0  0  0  0
  8  9  1  0  0  0  0
  8  7  1  0  0  0  0
  9  4  1  0  0  0  0
 10 11  1  0  0  0  0
 10  9  2  0  0  0  0
 12 10  1  0  0  0  0
 13 12  1  0  0  0  0
 14 12  2  0  0  0  0
 14 15  1  0  0  0  0
 15  8  2  0  0  0  0
 16 21  1  0  0  0  0
 17 23  1  0  0  0  0
 17 18  1  0  0  0  0
 18 24  1  0  0  0  0
 19 18  2  0  0  0  0
 19 25  1  0  0  0  0
 20 19  1  0  0  0  0
 21 22  1  0  0  0  0
 21 20  2  0  0  0  0
 22 17  2  0  0  0  0
M  END
>  <minimizedAffinity>
-4.38731623

$$$$

 OpenBabel03272509483D

 25 26  0  0  0  0  0  0  0  0999 V2000
   39.2060   24.2610   33.7040 C   0  0  0  0  0  0  0  0  0  0  0  0
   40.1050   23.6230   33.7200 H   0  0  0  0  0  0  0  0  0  0  0  0
   38.8240   24.1820   32.6490 H   0  0  0  0  0  0  0  0  0  0  0  0
   39.5180   25.7160   33.9070 C   0  0  0  0  0  0  0  0  0  0  0  0
   40.2760   26.0310   33.1310 H   0  0  0  0  0  0  0  0  0  0  0  0
   39.9840   25.9170   34.8930 H   0  0  0  0  0  0  0  0  0  0  0  0
   38.4130   27.2340   36.3630 Cl  0  0  0  0  0  0  0  0  0  0  0  0
   37.7660   27.3750   34.7420 C   0  0  0  0  0  0  0  0  0  0  0  0
   38.3690   26.6220   33.7570 C   0  0  0  0  0  0  0  0  0  0  0  0
   37.7860   26.7870   32.5000 C   0  0  0  0  0  0  0  0  0  0  0  0
   38.2260   26.2090   31.6730 H   0  0  0  0  0  0  0  0  0  0  0  0
   36.7170   27.5970   32.1860 C   0  0  0  0  0  0  0  0  0  0  0  0
   36.3460   27.6490   31.1820 H   0  0  0  0  0  0  0  0  0  0  0  0
   36.1880   28.3110   33.2590 C   0  0  0  0  0  3  0  0  0  0  0  0
   36.6940   28.2160   34.5440 C   0  0  0  0  0  3  0  0  0  0  0  0
   38.2290   23.7960   34.5970 O   0  0  0  0  0  0  0  0  0  0  0  0
   39.8840   22.8010   37.6560 C   0  0  0  0  0  0  0  0  0  0  0  0
   38.9560   23.2840   38.5900 C   0  0  0  0  0  0  0  0  0  0  0  0
   37.8120   23.9240   38.1330 C   0  0  0  0  0  0  0  0  0  0  0  0
   37.6730   24.0400   36.7750 N   0  0  0  0  0  0  0  0  0  0  0  0
   38.5850   23.5630   35.9020 C   0  0  0  0  0  0  0  0  0  0  0  0
   39.6880   22.9450   36.3630 N   0  0  0  0  0  0  0  0  0  0  0  0
   40.7520   22.3110   38.0730 H   0  0  0  0  0  0  0  0  0  0  0  0
   39.0830   23.1840   39.6620 H   0  0  0  0  0  0  0  0  0  0  0  0
   37.0560   24.3210   38.7980 H   0  0  0  0  0  0  0  0  0  0  0  0
  1  2  1  0  0  0  0
  1  4  1  0  0  0  0
  1 16  1  0  0  0  0
  3  1  1  0  0  0  0
  4  6  1  0  0  0  0
  5  4  1  0  0  0  0
  8  7  1  0  0  0  0
  9  4  1  0  0  0  0
  9  8  2  0  0  0  0
 10  9  1  0  0  0  0
 11 10  1  0  0  0  0
 12 10  2  0  0  0  0
 12 14  1  0  0  0  0
 13 12  1  0  0  0  0
 14 15  2  0  0  0  0
 15  8  1  0  0  0  0
 16 21  1  0  0  0  0
 17 23  1  0  0  0  0
 17 18  1  0  0  0  0
 18 24  1  0  0  0  0
 19 18  2  0  0  0  0
 19 25  1  0  0  0  0
 20 19  1  0  0  0  0
 21 22  1  0  0  0  0
 21 20  2  0  0  0  0
 22 17  2  0  0  0  0
M  END
>  <minimizedAffinity>
-4.36478615

$$$$

 OpenBabel03272509483D

 25 26  0  0  0  0  0  0  0  0999 V2000
   39.2330   22.2230   34.4610 C   0  0  0  0  0  0  0  0  0  0  0  0
   39.8310   21.3460   34.1640 H   0  0  0  0  0  0  0  0  0  0  0  0
   39.2910   22.9150   33.5760 H   0  0  0  0  0  0  0  0  0  0  0  0
   39.8390   22.9840   35.6040 C   0  0  0  0  0  0  0  0  0  0  0  0
   40.9630   22.9560   35.4970 H   0  0  0  0  0  0  0  0  0  0  0  0
   39.6110   22.5270   36.5890 H   0  0  0  0  0  0  0  0  0  0  0  0
   37.4820   23.8820   37.3920 Cl  0  0  0  0  0  0  0  0  0  0  0  0
   38.4520   24.9670   36.4200 C   0  0  0  0  0  0  0  0  0  0  0  0
   39.4630   24.4050   35.6700 C   0  0  0  0  0  0  0  0  0  0  0  0
   40.1790   25.3380   34.9190 C   0  0  0  0  0  0  0  0  0  0  0  0
   41.0010   24.9460   34.2990 H   0  0  0  0  0  0  0  0  0  0  0  0
   39.9660   26.6990   34.8720 C   0  0  0  0  0  0  0  0  0  0  0  0
   40.5780   27.3270   34.2570 H   0  0  0  0  0  0  0  0  0  0  0  0
   38.9190   27.1550   35.6700 C   0  0  0  0  0  3  0  0  0  0  0  0
   38.1490   26.3100   36.4500 C   0  0  0  0  0  3  0  0  0  0  0  0
   37.8950   21.8750   34.7020 O   0  0  0  0  0  0  0  0  0  0  0  0
   35.2290   21.0580   32.3970 C   0  0  0  0  0  0  0  0  0  0  0  0
   35.5240   21.9670   31.3700 C   0  0  0  0  0  0  0  0  0  0  0  0
   36.6150   22.8130   31.5130 C   0  0  0  0  0  0  0  0  0  0  0  0
   37.3380   22.6950   32.6710 N   0  0  0  0  0  0  0  0  0  0  0  0
   37.0280   21.8090   33.6400 C   0  0  0  0  0  0  0  0  0  0  0  0
   35.9670   20.9960   33.4850 N   0  0  0  0  0  0  0  0  0  0  0  0
   34.3690   20.4260   32.2280 H   0  0  0  0  0  0  0  0  0  0  0  0
   34.9400   22.0470   30.4610 H   0  0  0  0  0  0  0  0  0  0  0  0
   36.8980   23.5380   30.7600 H   0  0  0  0  0  0  0  0  0  0  0  0
  1 16  1  0  0  0  0
  1  4  1  0  0  0  0
  2  1  1  0  0  0  0
  3  1  1  0  0  0  0
  4  9  1  0  0  0  0
  4  6  1  0  0  0  0
  5  4  1  0  0  0  0
  8 15  1  0  0  0  0
  8  7  1  0  0  0  0
  9  8  2  0  0  0  0
 10  9  1  0  0  0  0
 11 10  1  0  0  0  0
 12 10  2  0  0  0  0
 12 14  1  0  0  0  0
 13 12  1  0  0  0  0
 14 15  2  0  0  0  0
 17 22  1  0  0  0  0
 18 19  1  0  0  0  0
 18 17  2  0  0  0  0
 19 20  2  0  0  0  0
 20 21  1  0  0  0  0
 21 16  1  0  0  0  0
 22 21  2  0  0  0  0
 23 17  1  0  0  0  0
 24 18  1  0  0  0  0
 25 19  1  0  0  0  0
M  END
>  <minimizedAffinity>
-4.35080719

$$$$
