
 OpenBabel03272509463D

 25 26  0  0  0  0  0  0  0  0999 V2000
   33.8050   28.7170   49.4200 C   0  0  0  0  0  0  0  0  0  0  0  0
   33.3470   28.9390   50.3980 H   0  0  0  0  0  0  0  0  0  0  0  0
   33.8260   29.7090   48.8890 H   0  0  0  0  0  0  0  0  0  0  0  0
   32.9540   27.8240   48.5650 C   0  0  0  0  0  0  0  0  0  0  0  0
   31.9180   28.2700   48.5020 H   0  0  0  0  0  0  0  0  0  0  0  0
   32.8290   26.8120   48.9990 H   0  0  0  0  0  0  0  0  0  0  0  0
   33.3250   24.9960   47.3710 Cl  0  0  0  0  0  0  0  0  0  0  0  0
   33.6290   26.4850   46.4980 C   0  0  0  0  0  0  0  0  0  0  0  0
   33.4220   27.6650   47.1790 C   0  0  0  0  0  0  0  0  0  0  0  0
   33.6960   28.7990   46.4130 C   0  0  0  0  0  0  0  0  0  0  0  0
   33.5500   29.7730   46.9060 H   0  0  0  0  0  0  0  0  0  0  0  0
   34.1310   28.8280   45.1070 C   0  0  0  0  0  0  0  0  0  0  0  0
   34.3130   29.7600   44.6110 H   0  0  0  0  0  0  0  0  0  0  0  0
   34.3050   27.5770   44.5210 C   0  0  0  0  0  3  0  0  0  0  0  0
   34.0600   26.3920   45.1940 C   0  0  0  0  0  3  0  0  0  0  0  0
   35.1130   28.2290   49.5640 O   0  0  0  0  0  0  0  0  0  0  0  0
   37.4570   30.3150   51.3630 C   0  0  0  0  0  0  0  0  0  0  0  0
   38.1450   30.8800   50.2790 C   0  0  0  0  0  0  0  0  0  0  0  0
   37.7770   30.5230   48.9890 C   0  0  0  0  0  0  0  0  0  0  0  0
   36.7490   29.6260   48.8680 N   0  0  0  0  0  0  0  0  0  0  0  0
   36.1060   29.1010   49.9330 C   0  0  0  0  0  0  0  0  0  0  0  0
   36.4760   29.4580   51.1760 N   0  0  0  0  0  0  0  0  0  0  0  0
   37.7890   30.6330   52.3410 H   0  0  0  0  0  0  0  0  0  0  0  0
   38.9580   31.5880   50.3940 H   0  0  0  0  0  0  0  0  0  0  0  0
   38.2660   30.9190   48.1080 H   0  0  0  0  0  0  0  0  0  0  0  0
  1 16  1  0  0  0  0
  1  2  1  0  0  0  0
  3  1  1  0  0  0  0
  4  6  1  0  0  0  0
  4  1  1  0  0  0  0
  5  4  1  0  0  0  0
  8  9  1  0  0  0  0
  8  7  1  0  0  0  0
  9  4  1  0  0  0  0
 10 11  1  0  0  0  0
 10  9  2  0  0  0  0
 12 10  1  0  0  0  0
 13 12  1  0  0  0  0
 14 12  2  0  0  0  0
 14 15  1  0  0  0  0
 15  8  2  0  0  0  0
 16 21  1  0  0  0  0
 17 23  1  0  0  0  0
 18 24  1  0  0  0  0
 18 17  2  0  0  0  0
 19 18  1  0  0  0  0
 20 19  2  0  0  0  0
 20 21  1  0  0  0  0
 21 22  2  0  0  0  0
 22 17  1  0  0  0  0
 25 19  1  0  0  0  0
M  END
>  <minimizedAffinity>
-4.19348049

>  <minimizedRMSD>
3.15145636

$$$$
