
 OpenBabel03272507593D

 32 34  0  0  0  0  0  0  0  0999 V2000
   36.6110   27.6540   32.6530 C   0  0  0  0  0  0  0  0  0  0  0  0
   36.9190   28.2520   31.4460 C   0  0  0  0  0  0  0  0  0  0  0  0
   36.6460   29.6010   31.2710 C   0  0  0  0  0  0  0  0  0  0  0  0
   36.0710   30.3210   32.3100 C   0  0  0  0  0  0  0  0  0  0  0  0
   35.7810   29.6890   33.4940 C   0  0  0  0  0  0  0  0  0  0  0  0
   36.0590   28.3840   33.6250 N   0  0  0  0  0  0  0  0  0  0  0  0
   37.3710   27.7940   30.5590 H   0  0  0  0  0  0  0  0  0  0  0  0
   36.8630   30.1280   30.3490 H   0  0  0  0  0  0  0  0  0  0  0  0
   35.8710   31.3610   32.1500 H   0  0  0  0  0  0  0  0  0  0  0  0
   38.3980   24.4200   33.3730 C   0  0  0  0  0  0  0  0  0  0  0  0
   38.0880   25.8080   33.3750 C   0  0  0  0  0  0  0  0  0  0  0  0
   36.9580   26.2340   32.6740 C   0  0  0  0  0  0  0  0  0  0  0  0
   36.2130   25.2900   32.0260 N   0  0  0  0  0  0  0  0  0  0  0  0
   36.5480   23.9700   32.0530 C   0  0  0  0  0  0  0  0  0  0  0  0
   37.6240   23.5420   32.7170 N   0  0  0  0  0  0  0  0  0  0  0  0
   35.6230   23.1920   31.3100 N   0  0  0  0  0  0  0  0  0  0  0  0
   39.2770   24.0810   33.9180 H   0  0  0  0  0  0  0  0  0  0  0  0
   35.9770   23.0470   30.3360 H   0  0  0  0  0  0  0  0  0  0  0  0
   34.7340   22.8660   31.7860 H   0  0  0  0  0  0  0  0  0  0  0  0
   38.9770   26.7400   34.1190 C   0  0  0  0  0  0  0  0  0  0  0  0
   38.2850   27.4330   35.0920 F   0  0  0  0  0  0  0  0  0  0  0  0
   39.9610   26.0020   34.7320 F   0  0  0  0  0  0  0  0  0  0  0  0
   39.6000   27.6550   33.3000 F   0  0  0  0  0  0  0  0  0  0  0  0
   32.8500   29.3920   33.6920 Cl  0  0  0  0  0  0  0  0  0  0  0  0
   33.8150   30.3450   34.8300 C   0  0  0  0  0  0  0  0  0  0  0  0
   35.1770   30.3980   34.6160 C   0  0  0  0  0  0  0  0  0  0  0  0
   35.8630   31.1560   35.5390 C   0  0  0  0  0  0  0  0  0  0  0  0
   36.9350   31.2430   35.4350 H   0  0  0  0  0  0  0  0  0  0  0  0
   35.2460   31.8070   36.5840 C   0  0  0  0  0  0  0  0  0  0  0  0
   35.8740   32.3840   37.2620 H   0  0  0  0  0  0  0  0  0  0  0  0
   33.8830   31.7240   36.7540 C   0  0  0  0  0  3  0  0  0  0  0  0
   33.1600   30.9760   35.8530 C   0  0  0  0  0  3  0  0  0  0  0  0
  1 12  1  0  0  0  0
  1  6  1  0  0  0  0
  2  1  2  0  0  0  0
  3  2  1  0  0  0  0
  3  4  2  0  0  0  0
  4  5  1  0  0  0  0
  5  6  2  0  0  0  0
  5 26  1  0  0  0  0
  7  2  1  0  0  0  0
  8  3  1  0  0  0  0
  9  4  1  0  0  0  0
 10 11  1  0  0  0  0
 10 17  1  0  0  0  0
 11 20  1  0  0  0  0
 12 11  2  0  0  0  0
 13 14  2  0  0  0  0
 13 12  1  0  0  0  0
 14 15  1  0  0  0  0
 15 10  2  0  0  0  0
 16 19  1  0  0  0  0
 16 14  1  0  0  0  0
 18 16  1  0  0  0  0
 20 22  1  0  0  0  0
 20 21  1  0  0  0  0
 23 20  1  0  0  0  0
 24 25  1  0  0  0  0
 25 32  1  0  0  0  0
 26 25  2  0  0  0  0
 26 27  1  0  0  0  0
 27 29  2  0  0  0  0
 28 27  1  0  0  0  0
 29 31  1  0  0  0  0
 29 30  1  0  0  0  0
 32 31  2  0  0  0  0
M  END
>  <minimizedAffinity>
-5.95925283

$$$$

 OpenBabel03272507593D

 32 34  0  0  0  0  0  0  0  0999 V2000
   37.7520   22.4410   32.4650 C   0  0  0  0  0  0  0  0  0  0  0  0
   37.7220   23.6310   31.7650 C   0  0  0  0  0  0  0  0  0  0  0  0
   37.9300   24.8220   32.4450 C   0  0  0  0  0  0  0  0  0  0  0  0
   38.1640   24.7930   33.8140 C   0  0  0  0  0  0  0  0  0  0  0  0
   38.1860   23.5890   34.4730 C   0  0  0  0  0  0  0  0  0  0  0  0
   37.9800   22.4590   33.7800 N   0  0  0  0  0  0  0  0  0  0  0  0
   37.5500   23.7830   30.6930 H   0  0  0  0  0  0  0  0  0  0  0  0
   37.9190   25.7880   31.9540 H   0  0  0  0  0  0  0  0  0  0  0  0
   38.3220   25.7260   34.3170 H   0  0  0  0  0  0  0  0  0  0  0  0
   36.0630   19.5470   30.7510 C   0  0  0  0  0  0  0  0  0  0  0  0
   36.2590   20.6700   31.6000 C   0  0  0  0  0  0  0  0  0  0  0  0
   37.5140   21.2840   31.6040 C   0  0  0  0  0  0  0  0  0  0  0  0
   38.4810   20.7690   30.7880 N   0  0  0  0  0  0  0  0  0  0  0  0
   38.2460   19.6900   29.9910 C   0  0  0  0  0  0  0  0  0  0  0  0
   37.0550   19.0890   29.9730 N   0  0  0  0  0  0  0  0  0  0  0  0
   39.4010   19.3470   29.2400 N   0  0  0  0  0  0  0  0  0  0  0  0
   35.0870   19.0630   30.7430 H   0  0  0  0  0  0  0  0  0  0  0  0
   39.9410   18.6000   29.7350 H   0  0  0  0  0  0  0  0  0  0  0  0
   39.5800   19.8500   28.3250 H   0  0  0  0  0  0  0  0  0  0  0  0
   35.1280   21.1400   32.4430 C   0  0  0  0  0  0  0  0  0  0  0  0
   34.8650   22.4800   32.2390 F   0  0  0  0  0  0  0  0  0  0  0  0
   34.0070   20.4230   32.1000 F   0  0  0  0  0  0  0  0  0  0  0  0
   35.3440   20.9440   33.7880 F   0  0  0  0  0  0  0  0  0  0  0  0
   40.8100   22.4490   35.2030 Cl  0  0  0  0  0  0  0  0  0  0  0  0
   39.6140   22.9880   36.3910 C   0  0  0  0  0  0  0  0  0  0  0  0
   38.4280   23.5020   35.9090 C   0  0  0  0  0  0  0  0  0  0  0  0
   37.5470   23.9020   36.8890 C   0  0  0  0  0  0  0  0  0  0  0  0
   36.5950   24.3150   36.5850 H   0  0  0  0  0  0  0  0  0  0  0  0
   37.8230   23.7990   38.2330 C   0  0  0  0  0  0  0  0  0  0  0  0
   37.0610   24.1420   38.9340 H   0  0  0  0  0  0  0  0  0  0  0  0
   39.0220   23.2800   38.6660 C   0  0  0  0  0  3  0  0  0  0  0  0
   39.9300   22.8680   37.7180 C   0  0  0  0  0  3  0  0  0  0  0  0
  1  6  1  0  0  0  0
  2  3  1  0  0  0  0
  2  1  2  0  0  0  0
  3  4  2  0  0  0  0
  4  9  1  0  0  0  0
  4  5  1  0  0  0  0
  5 26  1  0  0  0  0
  6  5  2  0  0  0  0
  7  2  1  0  0  0  0
  8  3  1  0  0  0  0
 10 11  1  0  0  0  0
 11 12  2  0  0  0  0
 11 20  1  0  0  0  0
 12  1  1  0  0  0  0
 13 12  1  0  0  0  0
 14 13  2  0  0  0  0
 15 14  1  0  0  0  0
 15 10  2  0  0  0  0
 16 18  1  0  0  0  0
 16 14  1  0  0  0  0
 17 10  1  0  0  0  0
 19 16  1  0  0  0  0
 20 23  1  0  0  0  0
 21 20  1  0  0  0  0
 22 20  1  0  0  0  0
 24 25  1  0  0  0  0
 25 32  1  0  0  0  0
 26 25  2  0  0  0  0
 26 27  1  0  0  0  0
 27 29  2  0  0  0  0
 28 27  1  0  0  0  0
 29 31  1  0  0  0  0
 29 30  1  0  0  0  0
 32 31  2  0  0  0  0
M  END
>  <minimizedAffinity>
-5.91416883

$$$$

 OpenBabel03272507593D

 32 34  0  0  0  0  0  0  0  0999 V2000
   37.7320   25.3940   32.4000 C   0  0  0  0  0  0  0  0  0  0  0  0
   36.8470   26.3180   31.8770 C   0  0  0  0  0  0  0  0  0  0  0  0
   35.6770   25.8720   31.2790 C   0  0  0  0  0  0  0  0  0  0  0  0
   35.4200   24.5090   31.2190 C   0  0  0  0  0  0  0  0  0  0  0  0
   36.3240   23.6220   31.7500 C   0  0  0  0  0  0  0  0  0  0  0  0
   37.4440   24.0930   32.3200 N   0  0  0  0  0  0  0  0  0  0  0  0
   36.9370   27.4100   31.8650 H   0  0  0  0  0  0  0  0  0  0  0  0
   34.9440   26.5450   30.8510 H   0  0  0  0  0  0  0  0  0  0  0  0
   34.5090   24.1890   30.7520 H   0  0  0  0  0  0  0  0  0  0  0  0
   40.1450   26.8120   34.9160 C   0  0  0  0  0  0  0  0  0  0  0  0
   38.9850   26.1930   34.3750 C   0  0  0  0  0  0  0  0  0  0  0  0
   38.9100   26.0250   32.9900 C   0  0  0  0  0  0  0  0  0  0  0  0
   39.9580   26.4660   32.2340 N   0  0  0  0  0  0  0  0  0  0  0  0
   41.0510   27.0540   32.7980 C   0  0  0  0  0  0  0  0  0  0  0  0
   41.1420   27.2230   34.1180 N   0  0  0  0  0  0  0  0  0  0  0  0
   42.0000   27.4220   31.8090 N   0  0  0  0  0  0  0  0  0  0  0  0
   40.2100   26.9450   35.9950 H   0  0  0  0  0  0  0  0  0  0  0  0
   41.8640   28.4230   31.5360 H   0  0  0  0  0  0  0  0  0  0  0  0
   42.6960   26.6960   31.4760 H   0  0  0  0  0  0  0  0  0  0  0  0
   37.9080   25.7530   35.3010 C   0  0  0  0  0  0  0  0  0  0  0  0
   37.7310   24.3850   35.2610 F   0  0  0  0  0  0  0  0  0  0  0  0
   38.2680   26.1050   36.5800 F   0  0  0  0  0  0  0  0  0  0  0  0
   36.6970   26.3520   35.0370 F   0  0  0  0  0  0  0  0  0  0  0  0
   38.3240   22.1190   30.1820 Cl  0  0  0  0  0  0  0  0  0  0  0  0
   36.9620   21.3560   31.0170 C   0  0  0  0  0  0  0  0  0  0  0  0
   36.1030   22.1820   31.7130 C   0  0  0  0  0  0  0  0  0  0  0  0
   35.0680   21.5200   32.3380 C   0  0  0  0  0  0  0  0  0  0  0  0
   34.3550   22.1030   32.9030 H   0  0  0  0  0  0  0  0  0  0  0  0
   34.9030   20.1550   32.2730 C   0  0  0  0  0  0  0  0  0  0  0  0
   34.0520   19.7230   32.8000 H   0  0  0  0  0  0  0  0  0  0  0  0
   35.7870   19.3740   31.5650 C   0  0  0  0  0  3  0  0  0  0  0  0
   36.8350   19.9970   30.9260 C   0  0  0  0  0  3  0  0  0  0  0  0
  1 12  1  0  0  0  0
  2  1  2  0  0  0  0
  3  2  1  0  0  0  0
  4  3  2  0  0  0  0
  4  5  1  0  0  0  0
  5  6  2  0  0  0  0
  6  1  1  0  0  0  0
  7  2  1  0  0  0  0
  8  3  1  0  0  0  0
  9  4  1  0  0  0  0
 10 17  1  0  0  0  0
 11 10  1  0  0  0  0
 11 20  1  0  0  0  0
 12 11  2  0  0  0  0
 13 14  2  0  0  0  0
 13 12  1  0  0  0  0
 14 15  1  0  0  0  0
 15 10  2  0  0  0  0
 16 14  1  0  0  0  0
 18 16  1  0  0  0  0
 19 16  1  0  0  0  0
 20 22  1  0  0  0  0
 21 20  1  0  0  0  0
 23 20  1  0  0  0  0
 24 25  1  0  0  0  0
 25 26  1  0  0  0  0
 26  5  1  0  0  0  0
 26 27  2  0  0  0  0
 27 28  1  0  0  0  0
 29 27  1  0  0  0  0
 29 30  1  0  0  0  0
 31 29  2  0  0  0  0
 32 25  2  0  0  0  0
 32 31  1  0  0  0  0
M  END
>  <minimizedAffinity>
-5.84916878

$$$$

 OpenBabel03272507593D

 32 34  0  0  0  0  0  0  0  0999 V2000
   35.2090   29.2550   33.6130 C   0  0  0  0  0  0  0  0  0  0  0  0
   35.2880   29.7990   32.3460 C   0  0  0  0  0  0  0  0  0  0  0  0
   36.2890   29.3700   31.4860 C   0  0  0  0  0  0  0  0  0  0  0  0
   37.1890   28.4040   31.9160 C   0  0  0  0  0  0  0  0  0  0  0  0
   37.0760   27.8880   33.1840 C   0  0  0  0  0  0  0  0  0  0  0  0
   36.0950   28.3290   33.9850 N   0  0  0  0  0  0  0  0  0  0  0  0
   34.6420   30.5600   31.8940 H   0  0  0  0  0  0  0  0  0  0  0  0
   36.4040   29.7580   30.4800 H   0  0  0  0  0  0  0  0  0  0  0  0
   37.9530   28.0890   31.2340 H   0  0  0  0  0  0  0  0  0  0  0  0
   33.2540   31.3490   36.0550 C   0  0  0  0  0  0  0  0  0  0  0  0
   34.3530   30.8280   35.3160 C   0  0  0  0  0  0  0  0  0  0  0  0
   34.1040   29.8140   34.3890 C   0  0  0  0  0  0  0  0  0  0  0  0
   32.8170   29.3790   34.2450 N   0  0  0  0  0  0  0  0  0  0  0  0
   31.7960   29.9080   34.9760 C   0  0  0  0  0  0  0  0  0  0  0  0
   32.0120   30.8780   35.8660 N   0  0  0  0  0  0  0  0  0  0  0  0
   30.5600   29.2950   34.6460 N   0  0  0  0  0  0  0  0  0  0  0  0
   33.4410   32.1400   36.7790 H   0  0  0  0  0  0  0  0  0  0  0  0
   30.3560   28.5170   35.3140 H   0  0  0  0  0  0  0  0  0  0  0  0
   30.0140   29.6630   33.8160 H   0  0  0  0  0  0  0  0  0  0  0  0
   35.7100   31.3840   35.5610 C   0  0  0  0  0  0  0  0  0  0  0  0
   36.1870   32.0640   34.4580 F   0  0  0  0  0  0  0  0  0  0  0  0
   35.6320   32.2660   36.6110 F   0  0  0  0  0  0  0  0  0  0  0  0
   36.6300   30.4190   35.9020 F   0  0  0  0  0  0  0  0  0  0  0  0
   36.4830   25.1460   32.2650 Cl  0  0  0  0  0  0  0  0  0  0  0  0
   37.8350   25.5460   33.3350 C   0  0  0  0  0  0  0  0  0  0  0  0
   37.9940   26.8720   33.6850 C   0  0  0  0  0  0  0  0  0  0  0  0
   39.0650   27.1090   34.5180 C   0  0  0  0  0  0  0  0  0  0  0  0
   39.2520   28.1260   34.8340 H   0  0  0  0  0  0  0  0  0  0  0  0
   39.9050   26.1140   34.9640 C   0  0  0  0  0  0  0  0  0  0  0  0
   40.7250   26.4010   35.6210 H   0  0  0  0  0  0  0  0  0  0  0  0
   39.7040   24.8060   34.5860 C   0  0  0  0  0  3  0  0  0  0  0  0
   38.6440   24.5260   33.7540 C   0  0  0  0  0  3  0  0  0  0  0  0
  1  6  1  0  0  0  0
  1 12  1  0  0  0  0
  2  1  2  0  0  0  0
  3  4  2  0  0  0  0
  3  2  1  0  0  0  0
  4  5  1  0  0  0  0
  5 26  1  0  0  0  0
  5  6  2  0  0  0  0
  7  2  1  0  0  0  0
  8  3  1  0  0  0  0
  9  4  1  0  0  0  0
 10 17  1  0  0  0  0
 11 20  1  0  0  0  0
 11 10  2  0  0  0  0
 12 11  1  0  0  0  0
 13 12  2  0  0  0  0
 13 14  1  0  0  0  0
 14 15  2  0  0  0  0
 15 10  1  0  0  0  0
 16 14  1  0  0  0  0
 16 18  1  0  0  0  0
 19 16  1  0  0  0  0
 20 23  1  0  0  0  0
 20 22  1  0  0  0  0
 21 20  1  0  0  0  0
 24 25  1  0  0  0  0
 25 26  2  0  0  0  0
 25 32  1  0  0  0  0
 26 27  1  0  0  0  0
 27 28  1  0  0  0  0
 27 29  2  0  0  0  0
 29 30  1  0  0  0  0
 31 29  1  0  0  0  0
 32 31  2  0  0  0  0
M  END
>  <minimizedAffinity>
-5.79162169

$$$$

 OpenBabel03272507593D

 32 34  0  0  0  0  0  0  0  0999 V2000
   35.1110   29.8340   33.1080 C   0  0  0  0  0  0  0  0  0  0  0  0
   35.7240   30.7280   32.2530 C   0  0  0  0  0  0  0  0  0  0  0  0
   36.5060   30.2430   31.2130 C   0  0  0  0  0  0  0  0  0  0  0  0
   36.6540   28.8720   31.0550 C   0  0  0  0  0  0  0  0  0  0  0  0
   36.0270   28.0160   31.9280 C   0  0  0  0  0  0  0  0  0  0  0  0
   35.2810   28.5240   32.9190 N   0  0  0  0  0  0  0  0  0  0  0  0
   35.6830   31.8230   32.2730 H   0  0  0  0  0  0  0  0  0  0  0  0
   37.0130   30.8920   30.5090 H   0  0  0  0  0  0  0  0  0  0  0  0
   37.2620   28.5220   30.2450 H   0  0  0  0  0  0  0  0  0  0  0  0
   32.2140   31.2720   35.0340 C   0  0  0  0  0  0  0  0  0  0  0  0
   32.9440   30.6120   34.0070 C   0  0  0  0  0  0  0  0  0  0  0  0
   34.3290   30.5050   34.1450 C   0  0  0  0  0  0  0  0  0  0  0  0
   34.9040   31.0410   35.2620 N   0  0  0  0  0  0  0  0  0  0  0  0
   34.1640   31.6640   36.2210 C   0  0  0  0  0  0  0  0  0  0  0  0
   32.8390   31.7780   36.1070 N   0  0  0  0  0  0  0  0  0  0  0  0
   34.9860   32.1330   37.2780 N   0  0  0  0  0  0  0  0  0  0  0  0
   31.1330   31.3590   34.9320 H   0  0  0  0  0  0  0  0  0  0  0  0
   35.2390   33.1350   37.1180 H   0  0  0  0  0  0  0  0  0  0  0  0
   35.2400   31.4650   38.0600 H   0  0  0  0  0  0  0  0  0  0  0  0
   32.2040   30.0680   32.8370 C   0  0  0  0  0  0  0  0  0  0  0  0
   32.3280   28.6960   32.7510 F   0  0  0  0  0  0  0  0  0  0  0  0
   30.8730   30.3730   32.9880 F   0  0  0  0  0  0  0  0  0  0  0  0
   32.6170   30.6130   31.6420 F   0  0  0  0  0  0  0  0  0  0  0  0
   38.2720   26.8490   33.4490 Cl  0  0  0  0  0  0  0  0  0  0  0  0
   37.1550   25.8900   32.4660 C   0  0  0  0  0  0  0  0  0  0  0  0
   36.1500   26.5680   31.8070 C   0  0  0  0  0  0  0  0  0  0  0  0
   35.3200   25.7590   31.0630 C   0  0  0  0  0  0  0  0  0  0  0  0
   34.5080   26.2210   30.5180 H   0  0  0  0  0  0  0  0  0  0  0  0
   35.4770   24.3940   30.9810 C   0  0  0  0  0  0  0  0  0  0  0  0
   34.7690   23.8390   30.3650 H   0  0  0  0  0  0  0  0  0  0  0  0
   36.4960   23.7640   31.6570 C   0  0  0  0  0  3  0  0  0  0  0  0
   37.3490   24.5370   32.4130 C   0  0  0  0  0  3  0  0  0  0  0  0
  1 12  1  0  0  0  0
  2  7  1  0  0  0  0
  2  1  2  0  0  0  0
  3  2  1  0  0  0  0
  4  3  2  0  0  0  0
  4  5  1  0  0  0  0
  5  6  2  0  0  0  0
  6  1  1  0  0  0  0
  8  3  1  0  0  0  0
  9  4  1  0  0  0  0
 10 15  1  0  0  0  0
 11 12  1  0  0  0  0
 11 10  2  0  0  0  0
 12 13  2  0  0  0  0
 13 14  1  0  0  0  0
 14 16  1  0  0  0  0
 15 14  2  0  0  0  0
 16 19  1  0  0  0  0
 17 10  1  0  0  0  0
 18 16  1  0  0  0  0
 20 22  1  0  0  0  0
 20 11  1  0  0  0  0
 21 20  1  0  0  0  0
 23 20  1  0  0  0  0
 25 24  1  0  0  0  0
 26  5  1  0  0  0  0
 26 25  2  0  0  0  0
 27 26  1  0  0  0  0
 28 27  1  0  0  0  0
 29 27  2  0  0  0  0
 29 31  1  0  0  0  0
 30 29  1  0  0  0  0
 31 32  2  0  0  0  0
 32 25  1  0  0  0  0
M  END
>  <minimizedAffinity>
-5.75943327

$$$$

 OpenBabel03272507593D

 32 34  0  0  0  0  0  0  0  0999 V2000
   36.6740   28.0840   32.9000 C   0  0  0  0  0  0  0  0  0  0  0  0
   36.9330   28.7380   31.7110 C   0  0  0  0  0  0  0  0  0  0  0  0
   36.5210   30.0550   31.5600 C   0  0  0  0  0  0  0  0  0  0  0  0
   35.8590   30.6860   32.6050 C   0  0  0  0  0  0  0  0  0  0  0  0
   35.6220   30.0010   33.7710 C   0  0  0  0  0  0  0  0  0  0  0  0
   36.0350   28.7290   33.8780 N   0  0  0  0  0  0  0  0  0  0  0  0
   37.4430   28.3510   30.8220 H   0  0  0  0  0  0  0  0  0  0  0  0
   36.6930   30.6220   30.6530 H   0  0  0  0  0  0  0  0  0  0  0  0
   35.5510   31.7030   32.4630 H   0  0  0  0  0  0  0  0  0  0  0  0
   37.0460   24.4200   32.1250 C   0  0  0  0  0  0  0  0  0  0  0  0
   36.5380   25.7480   32.1040 C   0  0  0  0  0  0  0  0  0  0  0  0
   37.1700   26.7090   32.8960 C   0  0  0  0  0  0  0  0  0  0  0  0
   38.2420   26.3170   33.6460 N   0  0  0  0  0  0  0  0  0  0  0  0
   38.6940   25.0320   33.6330 C   0  0  0  0  0  0  0  0  0  0  0  0
   38.1040   24.0980   32.8840 N   0  0  0  0  0  0  0  0  0  0  0  0
   39.8140   24.8750   34.4900 N   0  0  0  0  0  0  0  0  0  0  0  0
   36.5590   23.6650   31.5090 H   0  0  0  0  0  0  0  0  0  0  0  0
   39.5030   24.5350   35.4290 H   0  0  0  0  0  0  0  0  0  0  0  0
   40.7780   25.1040   34.1140 H   0  0  0  0  0  0  0  0  0  0  0  0
   35.3640   26.0540   31.2450 C   0  0  0  0  0  0  0  0  0  0  0  0
   34.4610   26.8740   31.8910 F   0  0  0  0  0  0  0  0  0  0  0  0
   35.8090   26.7040   30.1200 F   0  0  0  0  0  0  0  0  0  0  0  0
   34.6960   24.9240   30.8280 F   0  0  0  0  0  0  0  0  0  0  0  0
   32.7420   29.3710   33.9310 Cl  0  0  0  0  0  0  0  0  0  0  0  0
   33.5820   30.4060   35.0950 C   0  0  0  0  0  0  0  0  0  0  0  0
   34.9310   30.6160   34.8980 C   0  0  0  0  0  0  0  0  0  0  0  0
   35.5190   31.4300   35.8410 C   0  0  0  0  0  0  0  0  0  0  0  0
   36.5750   31.6390   35.7510 H   0  0  0  0  0  0  0  0  0  0  0  0
   34.8230   31.9880   36.8900 C   0  0  0  0  0  0  0  0  0  0  0  0
   35.3750   32.6200   37.5850 H   0  0  0  0  0  0  0  0  0  0  0  0
   33.4760   31.7480   37.0440 C   0  0  0  0  0  3  0  0  0  0  0  0
   32.8510   30.9400   36.1220 C   0  0  0  0  0  3  0  0  0  0  0  0
  1  6  1  0  0  0  0
  2  1  2  0  0  0  0
  3  2  1  0  0  0  0
  3  4  2  0  0  0  0
  4  5  1  0  0  0  0
  5  6  2  0  0  0  0
  5 26  1  0  0  0  0
  7  2  1  0  0  0  0
  8  3  1  0  0  0  0
  9  4  1  0  0  0  0
 10 15  1  0  0  0  0
 11 10  2  0  0  0  0
 11 12  1  0  0  0  0
 12  1  1  0  0  0  0
 12 13  2  0  0  0  0
 14 13  1  0  0  0  0
 14 16  1  0  0  0  0
 15 14  2  0  0  0  0
 16 18  1  0  0  0  0
 17 10  1  0  0  0  0
 19 16  1  0  0  0  0
 20 21  1  0  0  0  0
 20 11  1  0  0  0  0
 22 20  1  0  0  0  0
 23 20  1  0  0  0  0
 24 25  1  0  0  0  0
 25 32  1  0  0  0  0
 26 25  2  0  0  0  0
 26 27  1  0  0  0  0
 27 29  2  0  0  0  0
 28 27  1  0  0  0  0
 29 31  1  0  0  0  0
 29 30  1  0  0  0  0
 32 31  2  0  0  0  0
M  END
>  <minimizedAffinity>
-5.70914364

$$$$

 OpenBabel03272507593D

 32 34  0  0  0  0  0  0  0  0999 V2000
   37.5070   24.6610   32.7610 C   0  0  0  0  0  0  0  0  0  0  0  0
   36.6720   25.4490   31.9920 C   0  0  0  0  0  0  0  0  0  0  0  0
   35.6670   24.8470   31.2500 C   0  0  0  0  0  0  0  0  0  0  0  0
   35.5200   23.4670   31.2950 C   0  0  0  0  0  0  0  0  0  0  0  0
   36.3710   22.7190   32.0720 C   0  0  0  0  0  0  0  0  0  0  0  0
   37.3300   23.3390   32.7740 N   0  0  0  0  0  0  0  0  0  0  0  0
   36.6870   26.5390   31.8760 H   0  0  0  0  0  0  0  0  0  0  0  0
   34.9800   25.4090   30.6280 H   0  0  0  0  0  0  0  0  0  0  0  0
   34.7360   23.0250   30.7130 H   0  0  0  0  0  0  0  0  0  0  0  0
   40.7840   26.2210   33.7580 C   0  0  0  0  0  0  0  0  0  0  0  0
   39.8350   25.4450   33.0380 C   0  0  0  0  0  0  0  0  0  0  0  0
   38.5100   25.4480   33.4770 C   0  0  0  0  0  0  0  0  0  0  0  0
   38.2000   26.2000   34.5740 N   0  0  0  0  0  0  0  0  0  0  0  0
   39.1450   26.9290   35.2330 C   0  0  0  0  0  0  0  0  0  0  0  0
   40.4170   26.9380   34.8300 N   0  0  0  0  0  0  0  0  0  0  0  0
   38.5790   27.6210   36.3350 N   0  0  0  0  0  0  0  0  0  0  0  0
   41.8200   26.2230   33.4210 H   0  0  0  0  0  0  0  0  0  0  0  0
   38.7010   27.0630   37.2110 H   0  0  0  0  0  0  0  0  0  0  0  0
   38.1250   28.5640   36.1650 H   0  0  0  0  0  0  0  0  0  0  0  0
   40.2930   24.6670   31.8550 C   0  0  0  0  0  0  0  0  0  0  0  0
   39.5630   24.9830   30.7270 F   0  0  0  0  0  0  0  0  0  0  0  0
   41.6100   24.9780   31.6180 F   0  0  0  0  0  0  0  0  0  0  0  0
   40.2200   23.3060   32.0480 F   0  0  0  0  0  0  0  0  0  0  0  0
   38.1800   21.2510   30.2590 Cl  0  0  0  0  0  0  0  0  0  0  0  0
   37.0480   20.4560   31.3640 C   0  0  0  0  0  0  0  0  0  0  0  0
   36.2610   21.2670   32.1550 C   0  0  0  0  0  0  0  0  0  0  0  0
   35.4060   20.5810   32.9900 C   0  0  0  0  0  0  0  0  0  0  0  0
   34.7580   21.1520   33.6400 H   0  0  0  0  0  0  0  0  0  0  0  0
   35.3400   19.2070   33.0320 C   0  0  0  0  0  0  0  0  0  0  0  0
   34.6300   18.7550   33.7250 H   0  0  0  0  0  0  0  0  0  0  0  0
   36.1470   18.4410   32.2210 C   0  0  0  0  0  3  0  0  0  0  0  0
   37.0160   19.0880   31.3720 C   0  0  0  0  0  3  0  0  0  0  0  0
  1  6  1  0  0  0  0
  1 12  1  0  0  0  0
  2  1  2  0  0  0  0
  3  4  2  0  0  0  0
  3  2  1  0  0  0  0
  4  5  1  0  0  0  0
  5 26  1  0  0  0  0
  5  6  2  0  0  0  0
  7  2  1  0  0  0  0
  8  3  1  0  0  0  0
  9  4  1  0  0  0  0
 10 15  1  0  0  0  0
 11 12  1  0  0  0  0
 11 10  2  0  0  0  0
 12 13  2  0  0  0  0
 13 14  1  0  0  0  0
 14 16  1  0  0  0  0
 15 14  2  0  0  0  0
 16 18  1  0  0  0  0
 17 10  1  0  0  0  0
 19 16  1  0  0  0  0
 20 23  1  0  0  0  0
 20 11  1  0  0  0  0
 21 20  1  0  0  0  0
 22 20  1  0  0  0  0
 24 25  1  0  0  0  0
 25 32  2  0  0  0  0
 25 26  1  0  0  0  0
 26 27  2  0  0  0  0
 27 29  1  0  0  0  0
 27 28  1  0  0  0  0
 29 30  1  0  0  0  0
 31 29  2  0  0  0  0
 32 31  1  0  0  0  0
M  END
>  <minimizedAffinity>
-5.70502329

$$$$

 OpenBabel03272507593D

 32 34  0  0  0  0  0  0  0  0999 V2000
   36.8050   26.6070   32.0070 C   0  0  0  0  0  0  0  0  0  0  0  0
   37.8270   26.8580   31.1120 C   0  0  0  0  0  0  0  0  0  0  0  0
   38.4490   25.7920   30.4780 C   0  0  0  0  0  0  0  0  0  0  0  0
   38.0320   24.4970   30.7550 C   0  0  0  0  0  0  0  0  0  0  0  0
   37.0130   24.2890   31.6520 C   0  0  0  0  0  0  0  0  0  0  0  0
   36.4370   25.3460   32.2440 N   0  0  0  0  0  0  0  0  0  0  0  0
   38.2410   27.8270   30.8110 H   0  0  0  0  0  0  0  0  0  0  0  0
   39.2550   25.9230   29.7660 H   0  0  0  0  0  0  0  0  0  0  0  0
   38.5280   23.6910   30.2530 H   0  0  0  0  0  0  0  0  0  0  0  0
   36.0220   29.3730   34.4360 C   0  0  0  0  0  0  0  0  0  0  0  0
   36.5700   28.1740   33.9050 C   0  0  0  0  0  0  0  0  0  0  0  0
   36.2600   27.8330   32.5860 C   0  0  0  0  0  0  0  0  0  0  0  0
   35.4470   28.6740   31.8820 N   0  0  0  0  0  0  0  0  0  0  0  0
   34.9450   29.8150   32.4340 C   0  0  0  0  0  0  0  0  0  0  0  0
   35.2290   30.1580   33.6920 N   0  0  0  0  0  0  0  0  0  0  0  0
   34.1330   30.5170   31.5060 N   0  0  0  0  0  0  0  0  0  0  0  0
   36.2600   29.6450   35.4640 H   0  0  0  0  0  0  0  0  0  0  0  0
   33.1280   30.2590   31.6420 H   0  0  0  0  0  0  0  0  0  0  0  0
   34.5970   31.1800   30.8230 H   0  0  0  0  0  0  0  0  0  0  0  0
   37.4450   27.3390   34.7700 C   0  0  0  0  0  0  0  0  0  0  0  0
   38.6280   27.0150   34.1360 F   0  0  0  0  0  0  0  0  0  0  0  0
   37.7450   28.0570   35.9020 F   0  0  0  0  0  0  0  0  0  0  0  0
   36.8400   26.1700   35.1740 F   0  0  0  0  0  0  0  0  0  0  0  0
   38.2030   23.1330   34.0940 Cl  0  0  0  0  0  0  0  0  0  0  0  0
   37.0090   22.2900   33.0950 C   0  0  0  0  0  0  0  0  0  0  0  0
   36.5370   22.9500   31.9800 C   0  0  0  0  0  0  0  0  0  0  0  0
   35.6110   22.2360   31.2520 C   0  0  0  0  0  0  0  0  0  0  0  0
   35.1970   22.6900   30.3630 H   0  0  0  0  0  0  0  0  0  0  0  0
   35.1930   20.9720   31.6030 C   0  0  0  0  0  0  0  0  0  0  0  0
   34.4580   20.4860   30.9630 H   0  0  0  0  0  0  0  0  0  0  0  0
   35.6950   20.3550   32.7270 C   0  0  0  0  0  3  0  0  0  0  0  0
   36.6220   21.0360   33.4820 C   0  0  0  0  0  3  0  0  0  0  0  0
  1  6  1  0  0  0  0
  1 12  1  0  0  0  0
  2  1  2  0  0  0  0
  3  4  2  0  0  0  0
  3  2  1  0  0  0  0
  4  5  1  0  0  0  0
  5 26  1  0  0  0  0
  5  6  2  0  0  0  0
  7  2  1  0  0  0  0
  8  3  1  0  0  0  0
  9  4  1  0  0  0  0
 10 17  1  0  0  0  0
 11 10  1  0  0  0  0
 11 20  1  0  0  0  0
 12 11  2  0  0  0  0
 13 14  2  0  0  0  0
 13 12  1  0  0  0  0
 14 15  1  0  0  0  0
 15 10  2  0  0  0  0
 16 18  1  0  0  0  0
 16 14  1  0  0  0  0
 19 16  1  0  0  0  0
 20 23  1  0  0  0  0
 20 22  1  0  0  0  0
 21 20  1  0  0  0  0
 25 32  1  0  0  0  0
 25 24  1  0  0  0  0
 26 25  2  0  0  0  0
 27 29  2  0  0  0  0
 27 26  1  0  0  0  0
 28 27  1  0  0  0  0
 29 31  1  0  0  0  0
 30 29  1  0  0  0  0
 31 32  2  0  0  0  0
M  END
>  <minimizedAffinity>
-5.70418453

$$$$

 OpenBabel03272507593D

 32 34  0  0  0  0  0  0  0  0999 V2000
   36.4250   23.1690   31.6160 C   0  0  0  0  0  0  0  0  0  0  0  0
   35.4930   23.7980   30.8140 C   0  0  0  0  0  0  0  0  0  0  0  0
   35.2940   25.1650   30.9510 C   0  0  0  0  0  0  0  0  0  0  0  0
   36.0340   25.8700   31.8910 C   0  0  0  0  0  0  0  0  0  0  0  0
   36.9510   25.2070   32.6690 C   0  0  0  0  0  0  0  0  0  0  0  0
   37.1140   23.8860   32.5060 N   0  0  0  0  0  0  0  0  0  0  0  0
   34.8540   23.3550   30.0420 H   0  0  0  0  0  0  0  0  0  0  0  0
   34.5790   25.7160   30.3520 H   0  0  0  0  0  0  0  0  0  0  0  0
   35.8620   26.9240   31.9780 H   0  0  0  0  0  0  0  0  0  0  0  0
   37.6890   19.8180   30.4580 C   0  0  0  0  0  0  0  0  0  0  0  0
   37.6380   21.2180   30.7040 C   0  0  0  0  0  0  0  0  0  0  0  0
   36.5110   21.7350   31.3470 C   0  0  0  0  0  0  0  0  0  0  0  0
   35.5210   20.8640   31.7030 N   0  0  0  0  0  0  0  0  0  0  0  0
   35.6140   19.5290   31.4460 C   0  0  0  0  0  0  0  0  0  0  0  0
   36.6820   19.0150   30.8330 N   0  0  0  0  0  0  0  0  0  0  0  0
   34.4650   18.8380   31.9110 N   0  0  0  0  0  0  0  0  0  0  0  0
   38.5650   19.4080   29.9570 H   0  0  0  0  0  0  0  0  0  0  0  0
   33.7750   18.7260   31.1340 H   0  0  0  0  0  0  0  0  0  0  0  0
   34.4320   18.5310   32.9250 H   0  0  0  0  0  0  0  0  0  0  0  0
   38.7810   22.0650   30.2700 C   0  0  0  0  0  0  0  0  0  0  0  0
   39.5630   22.4500   31.3400 F   0  0  0  0  0  0  0  0  0  0  0  0
   39.5590   21.3310   29.4070 F   0  0  0  0  0  0  0  0  0  0  0  0
   38.3820   23.1990   29.5990 F   0  0  0  0  0  0  0  0  0  0  0  0
   39.6940   25.8610   31.7940 Cl  0  0  0  0  0  0  0  0  0  0  0  0
   39.0560   26.2660   33.3950 C   0  0  0  0  0  0  0  0  0  0  0  0
   37.7540   25.9000   33.6700 C   0  0  0  0  0  0  0  0  0  0  0  0
   37.3260   26.2470   34.9320 C   0  0  0  0  0  0  0  0  0  0  0  0
   36.3150   25.9920   35.2180 H   0  0  0  0  0  0  0  0  0  0  0  0
   38.1240   26.9020   35.8420 C   0  0  0  0  0  0  0  0  0  0  0  0
   37.6950   27.1340   36.8170 H   0  0  0  0  0  0  0  0  0  0  0  0
   39.4170   27.2470   35.5210 C   0  0  0  0  0  3  0  0  0  0  0  0
   39.8840   26.9170   34.2690 C   0  0  0  0  0  3  0  0  0  0  0  0
  1  6  1  0  0  0  0
  2  3  1  0  0  0  0
  2  1  2  0  0  0  0
  3  4  2  0  0  0  0
  4  9  1  0  0  0  0
  4  5  1  0  0  0  0
  5 26  1  0  0  0  0
  6  5  2  0  0  0  0
  7  2  1  0  0  0  0
  8  3  1  0  0  0  0
 10 11  2  0  0  0  0
 10 15  1  0  0  0  0
 11 12  1  0  0  0  0
 12  1  1  0  0  0  0
 12 13  2  0  0  0  0
 14 13  1  0  0  0  0
 14 16  1  0  0  0  0
 15 14  2  0  0  0  0
 16 19  1  0  0  0  0
 17 10  1  0  0  0  0
 18 16  1  0  0  0  0
 20 11  1  0  0  0  0
 20 21  1  0  0  0  0
 22 20  1  0  0  0  0
 23 20  1  0  0  0  0
 24 25  1  0  0  0  0
 25 26  2  0  0  0  0
 25 32  1  0  0  0  0
 26 27  1  0  0  0  0
 27 28  1  0  0  0  0
 27 29  2  0  0  0  0
 29 30  1  0  0  0  0
 31 29  1  0  0  0  0
 32 31  2  0  0  0  0
M  END
>  <minimizedAffinity>
-5.65954447

$$$$
