
 OpenBabel03272509253D

 24 25  0  0  0  0  0  0  0  0999 V2000
   37.1400   30.7610   47.7590 C   0  0  0  0  0  0  0  0  0  0  0  0
   37.1200   29.9820   46.9680 H   0  0  0  0  0  0  0  0  0  0  0  0
   36.3010   31.4480   47.4550 H   0  0  0  0  0  0  0  0  0  0  0  0
   37.2440   29.8350   51.4240 C   0  0  0  0  0  0  0  0  0  0  0  0
   37.6430   30.3080   50.1520 C   0  0  0  0  0  0  0  0  0  0  0  0
   36.7510   30.2760   49.0970 C   0  0  0  0  0  0  0  0  0  0  0  0
   35.5140   29.7840   49.3310 N   0  0  0  0  0  0  0  0  0  0  0  0
   35.1270   29.3330   50.5300 C   0  0  0  0  0  0  0  0  0  0  0  0
   35.9920   29.3570   51.5860 N   0  0  0  0  0  0  0  0  0  0  0  0
   37.9430   29.8560   52.2640 H   0  0  0  0  0  0  0  0  0  0  0  0
   38.6360   30.6680   50.0910 H   0  0  0  0  0  0  0  0  0  0  0  0
   34.0960   28.9570   50.5970 H   0  0  0  0  0  0  0  0  0  0  0  0
   38.4320   31.5370   47.7650 C   0  0  0  0  0  0  0  0  0  0  0  0
   39.1180   31.3300   48.5780 H   0  0  0  0  0  0  0  0  0  0  0  0
   38.1590   32.6130   47.8770 H   0  0  0  0  0  0  0  0  0  0  0  0
   40.1240   33.9120   47.2530 Cl  0  0  0  0  0  0  0  0  0  0  0  0
   39.9170   32.5730   46.1750 C   0  0  0  0  0  0  0  0  0  0  0  0
   39.1240   31.4710   46.4260 C   0  0  0  0  0  0  0  0  0  0  0  0
   38.9860   30.4210   45.5380 C   0  0  0  0  0  0  0  0  0  0  0  0
   38.3390   29.6020   45.8320 H   0  0  0  0  0  0  0  0  0  0  0  0
   39.6820   30.4950   44.3480 C   0  0  0  0  0  0  0  0  0  0  0  0
   39.5550   29.6600   43.6730 H   0  0  0  0  0  0  0  0  0  0  0  0
   40.4930   31.5620   44.0240 C   0  0  0  0  0  0  0  0  0  0  0  0
   40.6000   32.5980   44.9560 C   0  0  0  0  0  0  0  0  0  0  0  0
  1 13  1  0  0  0  0
  1  6  1  0  0  0  0
  2  1  1  0  0  0  0
  3  1  1  0  0  0  0
  4  9  1  0  0  0  0
  4 10  1  0  0  0  0
  5  4  2  0  0  0  0
  6  7  2  0  0  0  0
  6  5  1  0  0  0  0
  7  8  1  0  0  0  0
  8 12  1  0  0  0  0
  8  9  2  0  0  0  0
 11  5  1  0  0  0  0
 13 15  1  0  0  0  0
 13 14  1  0  0  0  0
 17 18  1  0  0  0  0
 17 16  1  0  0  0  0
 18 13  1  0  0  0  0
 19 20  1  0  0  0  0
 19 18  2  0  0  0  0
 21 19  1  0  0  0  0
 22 21  1  0  0  0  0
 23 21  2  0  0  0  0
 23 24  1  0  0  0  0
 24 17  2  0  0  0  0
M  END
>  <minimizedAffinity>
-5.2063098

>  <minimizedRMSD>
2.00108647

$$$$
