
 OpenBabel03272501553D

 24 25  0  0  0  0  0  0  0  0999 V2000
   34.8300   28.2970   49.5230 C   0  0  0  0  0  0  0  0  0  0  0  0
   35.2260   27.2540   49.6960 H   0  0  0  0  0  0  0  0  0  0  0  0
   33.9790   28.4530   50.2020 H   0  0  0  0  0  0  0  0  0  0  0  0
   37.3410   30.2410   51.4250 C   0  0  0  0  0  0  0  0  0  0  0  0
   38.1410   30.7970   50.4320 C   0  0  0  0  0  0  0  0  0  0  0  0
   37.7980   30.4870   49.1070 C   0  0  0  0  0  0  0  0  0  0  0  0
   36.7300   29.6800   48.8570 N   0  0  0  0  0  0  0  0  0  0  0  0
   35.9930   29.1730   49.8690 C   0  0  0  0  0  0  0  0  0  0  0  0
   36.2970   29.4520   51.1430 N   0  0  0  0  0  0  0  0  0  0  0  0
   37.6410   30.5070   52.4490 H   0  0  0  0  0  0  0  0  0  0  0  0
   38.9990   31.4450   50.6030 H   0  0  0  0  0  0  0  0  0  0  0  0
   38.3560   30.8680   48.2640 H   0  0  0  0  0  0  0  0  0  0  0  0
   34.4810   28.4700   48.0820 C   0  0  0  0  0  0  0  0  0  0  0  0
   35.0280   27.7320   47.4550 H   0  0  0  0  0  0  0  0  0  0  0  0
   34.8340   29.4740   47.7740 H   0  0  0  0  0  0  0  0  0  0  0  0
   33.3110   29.6140   45.4830 Cl  0  0  0  0  0  0  0  0  0  0  0  0
   32.3400   28.8260   46.7040 C   0  0  0  0  0  0  0  0  0  0  0  0
   33.0190   28.3710   47.8140 C   0  0  0  0  0  0  0  0  0  0  0  0
   32.2140   27.7470   48.7730 C   0  0  0  0  0  0  0  0  0  0  0  0
   32.7120   27.3640   49.6760 H   0  0  0  0  0  0  0  0  0  0  0  0
   30.8580   27.5660   48.6880 C   0  0  0  0  0  0  0  0  0  0  0  0
   30.3390   27.0620   49.5030 H   0  0  0  0  0  0  0  0  0  0  0  0
   30.2190   28.0280   47.5810 C   0  0  0  0  0  0  0  0  0  0  0  0
   30.9680   28.6510   46.6080 C   0  0  0  0  0  0  0  0  0  0  0  0
  1  2  1  0  0  0  0
  1  8  1  0  0  0  0
  1  3  1  0  0  0  0
  4 10  1  0  0  0  0
  5 11  1  0  0  0  0
  5  4  2  0  0  0  0
  6  5  1  0  0  0  0
  7  6  2  0  0  0  0
  7  8  1  0  0  0  0
  8  9  2  0  0  0  0
  9  4  1  0  0  0  0
 12  6  1  0  0  0  0
 13  1  1  0  0  0  0
 14 13  1  0  0  0  0
 15 13  1  0  0  0  0
 16 17  1  0  0  0  0
 17 18  1  0  0  0  0
 18 13  1  0  0  0  0
 18 19  2  0  0  0  0
 19 20  1  0  0  0  0
 21 19  1  0  0  0  0
 21 22  1  0  0  0  0
 23 21  2  0  0  0  0
 24 17  2  0  0  0  0
 24 23  1  0  0  0  0
M  END
>  <minimizedAffinity>
-4.65848684

>  <minimizedRMSD>
1.04927075

$$$$
