
 OpenBabel03272510303D

 28 30  0  0  0  0  0  0  0  0999 V2000
   37.3440   31.3820   49.2640 C   0  0  0  0  0  0  0  0  0  0  0  0
   37.6480   32.6770   49.6970 C   0  0  0  0  0  0  0  0  0  0  0  0
   38.5350   33.3790   48.9130 C   0  0  0  0  0  0  0  0  0  0  0  0
   39.0520   32.8020   47.8000 N   0  0  0  0  0  0  0  0  0  0  0  0
   38.7440   31.5470   47.3960 C   0  0  0  0  0  0  0  0  0  0  0  0
   37.8630   30.8220   48.1580 N   0  0  0  0  0  0  0  0  0  0  0  0
   37.1800   33.0360   50.5970 H   0  0  0  0  0  0  0  0  0  0  0  0
   38.7990   34.3860   49.2140 H   0  0  0  0  0  0  0  0  0  0  0  0
   36.3520   30.5930   50.0820 C   0  0  0  0  0  0  0  0  0  0  0  0
   36.2690   29.1560   50.0240 C   0  0  0  0  0  0  0  0  0  0  0  0
   37.0290   29.7670   51.1840 C   0  0  0  0  0  0  0  0  0  0  0  0
   35.4700   31.1750   50.4920 H   0  0  0  0  0  0  0  0  0  0  0  0
   36.9090   28.6450   49.2470 H   0  0  0  0  0  0  0  0  0  0  0  0
   35.3280   28.6270   50.1910 H   0  0  0  0  0  0  0  0  0  0  0  0
   36.5060   29.6550   52.1600 H   0  0  0  0  0  0  0  0  0  0  0  0
   38.1260   29.6580   51.1630 H   0  0  0  0  0  0  0  0  0  0  0  0
   39.2680   30.8930   46.1990 C   0  0  0  0  0  0  0  0  0  0  0  0
   38.9340   29.8230   46.2020 H   0  0  0  0  0  0  0  0  0  0  0  0
   40.3740   30.8860   46.2630 H   0  0  0  0  0  0  0  0  0  0  0  0
   36.5510   30.2950   44.9580 Cl  0  0  0  0  0  0  0  0  0  0  0  0
   37.7220   31.3920   44.2560 C   0  0  0  0  0  0  0  0  0  0  0  0
   38.9110   31.5610   44.9340 C   0  0  0  0  0  0  0  0  0  0  0  0
   39.7910   32.4500   44.3090 C   0  0  0  0  0  0  0  0  0  0  0  0
   40.7460   32.6110   44.8160 H   0  0  0  0  0  0  0  0  0  0  0  0
   39.5660   33.1320   43.1280 C   0  0  0  0  0  0  0  0  0  0  0  0
   40.3440   33.7900   42.7640 H   0  0  0  0  0  0  0  0  0  0  0  0
   38.3450   32.9070   42.5080 C   0  0  0  0  0  3  0  0  0  0  0  0
   37.4180   32.0340   43.0730 C   0  0  0  0  0  3  0  0  0  0  0  0
  1  2  1  0  0  0  0
  1  9  1  0  0  0  0
  2  7  1  0  0  0  0
  3  8  1  0  0  0  0
  3  2  2  0  0  0  0
  4  3  1  0  0  0  0
  5  4  2  0  0  0  0
  5  6  1  0  0  0  0
  6  1  2  0  0  0  0
  9 12  1  0  0  0  0
  9 11  1  0  0  0  0
 10  9  1  0  0  0  0
 10 14  1  0  0  0  0
 10 11  1  0  0  0  0
 11 15  1  0  0  0  0
 13 10  1  0  0  0  0
 16 11  1  0  0  0  0
 17 18  1  0  0  0  0
 17 19  1  0  0  0  0
 17  5  1  0  0  0  0
 21 22  1  0  0  0  0
 21 20  1  0  0  0  0
 22 17  1  0  0  0  0
 23 24  1  0  0  0  0
 23 22  2  0  0  0  0
 25 23  1  0  0  0  0
 26 25  1  0  0  0  0
 27 28  1  0  0  0  0
 27 25  2  0  0  0  0
 28 21  2  0  0  0  0
M  END
>  <minimizedAffinity>
-5.49148989

>  <minimizedRMSD>
1.14292133

$$$$
