
 OpenBabel03272506313D

 40 42  0  0  1  0  0  0  0  0999 V2000
   34.2120   29.4310   48.7790 C   0  0  1  0  0  0  0  0  0  0  0  0
   33.9110   29.9850   50.0820 C   0  0  0  0  0  0  0  0  0  0  0  0
   34.7580   29.4960   51.2410 C   0  0  0  0  0  0  0  0  0  0  0  0
   36.1950   29.2760   50.9420 C   0  0  0  0  0  0  0  0  0  0  0  0
   36.5290   28.7280   49.6010 C   0  0  0  0  0  0  0  0  0  0  0  0
   35.6950   29.3220   48.5240 C   0  0  2  0  0  0  0  0  0  0  0  0
   33.8820   30.1660   47.9810 H   0  0  0  0  0  0  0  0  0  0  0  0
   32.8820   29.9770   50.4260 H   0  0  0  0  0  0  0  0  0  0  0  0
   34.1660   31.0840   50.0300 H   0  0  0  0  0  0  0  0  0  0  0  0
   34.2940   28.5570   51.5840 H   0  0  0  0  0  0  0  0  0  0  0  0
   34.6670   30.2320   52.0680 H   0  0  0  0  0  0  0  0  0  0  0  0
   36.7530   30.2080   51.1610 H   0  0  0  0  0  0  0  0  0  0  0  0
   36.5670   28.5250   51.6880 H   0  0  0  0  0  0  0  0  0  0  0  0
   37.5740   28.9270   49.3680 H   0  0  0  0  0  0  0  0  0  0  0  0
   36.3150   27.6250   49.6250 H   0  0  0  0  0  0  0  0  0  0  0  0
   35.9340   28.8630   47.5580 H   0  0  0  0  0  0  0  0  0  0  0  0
   32.1670   27.8920   48.8330 C   0  0  0  0  0  0  0  0  0  0  0  0
   33.4930   28.1980   48.3990 C   0  0  0  0  0  0  0  0  0  0  0  0
   34.0950   27.2500   47.5860 C   0  0  0  0  0  0  0  0  0  0  0  0
   33.4070   26.1060   47.2500 N   0  0  0  0  0  0  0  0  0  0  0  0
   32.1580   25.8780   47.6920 C   0  0  0  0  0  0  0  0  0  0  0  0
   31.5360   26.7790   48.4880 N   0  0  0  0  0  0  0  0  0  0  0  0
   31.6780   28.6180   49.4680 H   0  0  0  0  0  0  0  0  0  0  0  0
   35.0830   27.3610   47.1960 H   0  0  0  0  0  0  0  0  0  0  0  0
   31.6820   24.9570   47.3870 H   0  0  0  0  0  0  0  0  0  0  0  0
   36.1700   30.7900   48.4050 C   0  0  0  0  0  0  0  0  0  0  0  0
   36.3600   31.2190   49.3870 H   0  0  0  0  0  0  0  0  0  0  0  0
   35.4250   31.4130   47.8760 H   0  0  0  0  0  0  0  0  0  0  0  0
   37.4580   30.8490   47.5800 C   0  0  0  0  0  0  0  0  0  0  0  0
   37.1900   30.8680   46.4830 H   0  0  0  0  0  0  0  0  0  0  0  0
   38.0150   29.9260   47.7250 H   0  0  0  0  0  0  0  0  0  0  0  0
   36.9960   32.3670   50.1880 Cl  0  0  0  0  0  0  0  0  0  0  0  0
   38.1940   32.8410   48.9970 C   0  0  0  0  0  0  0  0  0  0  0  0
   38.2670   32.0480   47.8760 C   0  0  0  0  0  0  0  0  0  0  0  0
   39.2100   32.4010   46.9030 C   0  0  0  0  0  0  0  0  0  0  0  0
   39.3140   31.8060   45.9900 H   0  0  0  0  0  0  0  0  0  0  0  0
   40.0410   33.5000   47.0510 C   0  0  0  0  0  0  0  0  0  0  0  0
   40.7540   33.7170   46.2570 H   0  0  0  0  0  0  0  0  0  0  0  0
   39.9300   34.2760   48.2070 C   0  0  0  0  0  0  0  0  0  0  0  0
   39.0040   33.9450   49.1830 C   0  0  0  0  0  0  0  0  0  0  0  0
  1  7  1  6  0  0  0
  1  2  1  0  0  0  0
  2  8  1  0  0  0  0
  2  3  1  0  0  0  0
  3 10  1  0  0  0  0
  3 11  1  0  0  0  0
  4 12  1  0  0  0  0
  4  3  1  0  0  0  0
  4 13  1  0  0  0  0
  5 15  1  0  0  0  0
  5  4  1  0  0  0  0
  6 16  1  6  0  0  0
  6  1  1  0  0  0  0
  6  5  1  0  0  0  0
  9  2  1  0  0  0  0
 14  5  1  0  0  0  0
 17 23  1  0  0  0  0
 18  1  1  0  0  0  0
 18 17  2  0  0  0  0
 19 18  1  0  0  0  0
 20 19  2  0  0  0  0
 20 21  1  0  0  0  0
 21 22  2  0  0  0  0
 22 17  1  0  0  0  0
 24 19  1  0  0  0  0
 25 21  1  0  0  0  0
 26  6  1  0  0  0  0
 26 27  1  0  0  0  0
 28 26  1  0  0  0  0
 29 31  1  0  0  0  0
 29 34  1  0  0  0  0
 29 26  1  0  0  0  0
 30 29  1  0  0  0  0
 33 40  1  0  0  0  0
 33 32  1  0  0  0  0
 34 33  2  0  0  0  0
 35 37  2  0  0  0  0
 35 34  1  0  0  0  0
 36 35  1  0  0  0  0
 37 39  1  0  0  0  0
 38 37  1  0  0  0  0
 39 40  2  0  0  0  0
M  END
>  <minimizedAffinity>
-6.00231409

>  <minimizedRMSD>
2.87136841

$$$$
