
 OpenBabel03272510293D

 28 30  0  0  0  0  0  0  0  0999 V2000
   37.1840   31.3170   49.2050 C   0  0  0  0  0  0  0  0  0  0  0  0
   37.3640   32.5780   49.7810 C   0  0  0  0  0  0  0  0  0  0  0  0
   38.3110   33.3810   49.1870 C   0  0  0  0  0  0  0  0  0  0  0  0
   38.9990   32.9250   48.1110 N   0  0  0  0  0  0  0  0  0  0  0  0
   38.8110   31.7000   47.5660 C   0  0  0  0  0  0  0  0  0  0  0  0
   37.8730   30.8780   48.1380 N   0  0  0  0  0  0  0  0  0  0  0  0
   36.7630   32.8380   50.6360 H   0  0  0  0  0  0  0  0  0  0  0  0
   38.4830   34.3660   49.6030 H   0  0  0  0  0  0  0  0  0  0  0  0
   36.1330   30.4220   49.8120 C   0  0  0  0  0  0  0  0  0  0  0  0
   36.1290   28.9930   49.6240 C   0  0  0  0  0  0  0  0  0  0  0  0
   36.6970   29.5270   50.9230 C   0  0  0  0  0  0  0  0  0  0  0  0
   35.1760   30.9300   50.1440 H   0  0  0  0  0  0  0  0  0  0  0  0
   36.8910   28.5780   48.9020 H   0  0  0  0  0  0  0  0  0  0  0  0
   35.2010   28.4160   49.6160 H   0  0  0  0  0  0  0  0  0  0  0  0
   36.0550   29.3080   51.8060 H   0  0  0  0  0  0  0  0  0  0  0  0
   37.7910   29.4610   51.0440 H   0  0  0  0  0  0  0  0  0  0  0  0
   39.5200   31.1760   46.4010 C   0  0  0  0  0  0  0  0  0  0  0  0
   39.7290   30.0880   46.5720 H   0  0  0  0  0  0  0  0  0  0  0  0
   40.5010   31.6860   46.3340 H   0  0  0  0  0  0  0  0  0  0  0  0
   40.0990   33.7370   44.8590 Cl  0  0  0  0  0  0  0  0  0  0  0  0
   38.9890   32.4990   44.3090 C   0  0  0  0  0  0  0  0  0  0  0  0
   38.8290   31.3930   45.1170 C   0  0  0  0  0  0  0  0  0  0  0  0
   37.9270   30.4530   44.6090 C   0  0  0  0  0  0  0  0  0  0  0  0
   37.7730   29.5620   45.2220 H   0  0  0  0  0  0  0  0  0  0  0  0
   37.2240   30.5480   43.4230 C   0  0  0  0  0  0  0  0  0  0  0  0
   36.5590   29.7380   43.1590 H   0  0  0  0  0  0  0  0  0  0  0  0
   37.4410   31.6930   42.6680 C   0  0  0  0  0  3  0  0  0  0  0  0
   38.3270   32.6730   43.1110 C   0  0  0  0  0  3  0  0  0  0  0  0
  1  2  1  0  0  0  0
  1  9  1  0  0  0  0
  2  7  1  0  0  0  0
  3  8  1  0  0  0  0
  3  2  2  0  0  0  0
  4  3  1  0  0  0  0
  5  4  2  0  0  0  0
  5  6  1  0  0  0  0
  6  1  2  0  0  0  0
  9 12  1  0  0  0  0
  9 11  1  0  0  0  0
 10  9  1  0  0  0  0
 10 11  1  0  0  0  0
 11 16  1  0  0  0  0
 11 15  1  0  0  0  0
 13 10  1  0  0  0  0
 14 10  1  0  0  0  0
 17 18  1  0  0  0  0
 17  5  1  0  0  0  0
 19 17  1  0  0  0  0
 21 20  1  0  0  0  0
 21 22  1  0  0  0  0
 22 17  1  0  0  0  0
 23 22  2  0  0  0  0
 23 24  1  0  0  0  0
 25 23  1  0  0  0  0
 26 25  1  0  0  0  0
 27 28  1  0  0  0  0
 27 25  2  0  0  0  0
 28 21  2  0  0  0  0
M  END
>  <minimizedAffinity>
-5.63802719

>  <minimizedRMSD>
0.628539383

$$$$
