
 OpenBabel03272510293D

 28 30  0  0  0  0  0  0  0  0999 V2000
   37.3440   31.3820   49.2650 C   0  0  0  0  0  0  0  0  0  0  0  0
   37.6490   32.6770   49.6970 C   0  0  0  0  0  0  0  0  0  0  0  0
   38.5360   33.3800   48.9130 C   0  0  0  0  0  0  0  0  0  0  0  0
   39.0520   32.8020   47.8000 N   0  0  0  0  0  0  0  0  0  0  0  0
   38.7450   31.5470   47.3960 C   0  0  0  0  0  0  0  0  0  0  0  0
   37.8640   30.8230   48.1580 N   0  0  0  0  0  0  0  0  0  0  0  0
   37.1810   33.0360   50.5970 H   0  0  0  0  0  0  0  0  0  0  0  0
   38.8000   34.3860   49.2140 H   0  0  0  0  0  0  0  0  0  0  0  0
   36.3530   30.5940   50.0820 C   0  0  0  0  0  0  0  0  0  0  0  0
   36.2700   29.1560   50.0250 C   0  0  0  0  0  0  0  0  0  0  0  0
   37.0300   29.7680   51.1850 C   0  0  0  0  0  0  0  0  0  0  0  0
   35.4710   31.1750   50.4920 H   0  0  0  0  0  0  0  0  0  0  0  0
   36.9100   28.6460   49.2480 H   0  0  0  0  0  0  0  0  0  0  0  0
   35.3290   28.6270   50.1910 H   0  0  0  0  0  0  0  0  0  0  0  0
   36.5070   29.6560   52.1610 H   0  0  0  0  0  0  0  0  0  0  0  0
   38.1270   29.6590   51.1640 H   0  0  0  0  0  0  0  0  0  0  0  0
   39.2680   30.8940   46.1990 C   0  0  0  0  0  0  0  0  0  0  0  0
   38.9340   29.8240   46.2020 H   0  0  0  0  0  0  0  0  0  0  0  0
   40.3750   30.8860   46.2630 H   0  0  0  0  0  0  0  0  0  0  0  0
   36.5520   30.2950   44.9590 Cl  0  0  0  0  0  0  0  0  0  0  0  0
   37.7220   31.3930   44.2560 C   0  0  0  0  0  0  0  0  0  0  0  0
   38.9120   31.5620   44.9340 C   0  0  0  0  0  0  0  0  0  0  0  0
   39.7910   32.4510   44.3080 C   0  0  0  0  0  0  0  0  0  0  0  0
   40.7460   32.6120   44.8160 H   0  0  0  0  0  0  0  0  0  0  0  0
   39.5660   33.1330   43.1280 C   0  0  0  0  0  0  0  0  0  0  0  0
   40.3430   33.7910   42.7640 H   0  0  0  0  0  0  0  0  0  0  0  0
   38.3460   32.9070   42.5080 C   0  0  0  0  0  3  0  0  0  0  0  0
   37.4170   32.0340   43.0730 C   0  0  0  0  0  3  0  0  0  0  0  0
  1  2  1  0  0  0  0
  1  9  1  0  0  0  0
  2  7  1  0  0  0  0
  3  8  1  0  0  0  0
  3  2  2  0  0  0  0
  4  3  1  0  0  0  0
  5  4  2  0  0  0  0
  5  6  1  0  0  0  0
  6  1  2  0  0  0  0
  9 12  1  0  0  0  0
  9 11  1  0  0  0  0
 10  9  1  0  0  0  0
 10 14  1  0  0  0  0
 10 11  1  0  0  0  0
 11 15  1  0  0  0  0
 13 10  1  0  0  0  0
 16 11  1  0  0  0  0
 17 18  1  0  0  0  0
 17 19  1  0  0  0  0
 17  5  1  0  0  0  0
 21 22  1  0  0  0  0
 21 20  1  0  0  0  0
 22 17  1  0  0  0  0
 23 24  1  0  0  0  0
 23 22  2  0  0  0  0
 25 23  1  0  0  0  0
 26 25  1  0  0  0  0
 27 28  1  0  0  0  0
 27 25  2  0  0  0  0
 28 21  2  0  0  0  0
M  END
>  <minimizedAffinity>
-5.49153185

>  <minimizedRMSD>
1.07630193

$$$$
