
 OpenBabel03272505263D

 31 33  0  0  0  0  0  0  0  0999 V2000
   37.3880   31.0570   47.1360 N   0  0  0  0  0  0  0  0  0  0  0  0
   36.8080   30.7220   45.9520 C   0  0  0  0  0  0  0  0  0  0  0  0
   37.2690   31.1960   44.7340 C   0  0  0  0  0  0  0  0  0  0  0  0
   38.3820   32.0540   44.7670 C   0  0  0  0  0  0  0  0  0  0  0  0
   38.8380   32.5090   43.6950 O   0  0  0  0  0  0  0  0  0  0  0  0
   38.9680   32.3930   45.9550 N   0  0  0  0  0  0  0  0  0  0  0  0
   38.4270   31.8680   47.0610 C   0  0  0  0  0  0  0  0  0  0  0  0
   38.9880   32.2040   48.1250 O   0  0  0  0  0  0  0  0  0  0  0  0
   35.9450   30.0570   45.9180 H   0  0  0  0  0  0  0  0  0  0  0  0
   37.2370   29.4820   50.4930 C   0  0  0  0  0  0  0  0  0  0  0  0
   37.7370   29.9600   49.2670 C   0  0  0  0  0  0  0  0  0  0  0  0
   36.9110   30.5710   48.3570 C   0  0  0  0  0  0  0  0  0  0  0  0
   35.5890   30.7020   48.6720 N   0  0  0  0  0  0  0  0  0  0  0  0
   35.0860   30.2460   49.8550 C   0  0  0  0  0  0  0  0  0  0  0  0
   35.9060   29.6390   50.7590 N   0  0  0  0  0  0  0  0  0  0  0  0
   37.8340   28.9940   51.2500 H   0  0  0  0  0  0  0  0  0  0  0  0
   38.7720   29.7650   49.1880 H   0  0  0  0  0  0  0  0  0  0  0  0
   34.0260   30.3900   50.0250 H   0  0  0  0  0  0  0  0  0  0  0  0
   38.3780   28.7840   43.2800 Cl  0  0  0  0  0  0  0  0  0  0  0  0
   37.0210   29.7510   42.6830 C   0  0  0  0  0  0  0  0  0  0  0  0
   36.6340   30.8260   43.4720 C   0  0  0  0  0  0  0  0  0  0  0  0
   35.5770   31.6280   43.0640 C   0  0  0  0  0  0  0  0  0  0  0  0
   35.2310   32.4830   43.6390 H   0  0  0  0  0  0  0  0  0  0  0  0
   34.8930   31.3720   41.8730 C   0  0  0  0  0  0  0  0  0  0  0  0
   34.0610   32.0080   41.5590 H   0  0  0  0  0  0  0  0  0  0  0  0
   35.3010   30.2890   41.1030 C   0  0  0  0  0  0  0  0  0  0  0  0
   36.3430   29.4890   41.4950 C   0  0  0  0  0  0  0  0  0  0  0  0
   40.1100   33.2740   45.9760 C   0  0  0  0  0  0  0  0  0  0  0  0
   39.9640   34.2570   45.0470 F   0  0  0  0  0  0  0  0  0  0  0  0
   41.3030   32.6240   45.7040 F   0  0  0  0  0  0  0  0  0  0  0  0
   40.1760   33.8840   47.2300 F   0  0  0  0  0  0  0  0  0  0  0  0
  1 12  1  0  0  0  0
  2  1  1  0  0  0  0
  3  4  1  0  0  0  0
  3  2  2  0  0  0  0
  4  6  1  0  0  0  0
  5  4  2  0  0  0  0
  6 28  1  0  0  0  0
  6  7  1  0  0  0  0
  7  1  1  0  0  0  0
  7  8  2  0  0  0  0
  9  2  1  0  0  0  0
 10 15  1  0  0  0  0
 10 16  1  0  0  0  0
 11 10  2  0  0  0  0
 12 13  2  0  0  0  0
 12 11  1  0  0  0  0
 13 14  1  0  0  0  0
 14 18  1  0  0  0  0
 14 15  2  0  0  0  0
 17 11  1  0  0  0  0
 20 19  1  0  0  0  0
 20 21  1  0  0  0  0
 21  3  1  0  0  0  0
 22 21  2  0  0  0  0
 22 23  1  0  0  0  0
 24 22  1  0  0  0  0
 25 24  1  0  0  0  0
 26 27  1  0  0  0  0
 26 24  2  0  0  0  0
 27 20  2  0  0  0  0
 28 31  1  0  0  0  0
 29 28  1  0  0  0  0
 30 28  1  0  0  0  0
M  END
>  <minimizedAffinity>
-6.24819994

>  <minimizedRMSD>
0.2746647

$$$$
