
 OpenBabel03272510293D

 28 30  0  0  0  0  0  0  0  0999 V2000
   37.4800   31.4490   49.4490 C   0  0  0  0  0  0  0  0  0  0  0  0
   37.9180   32.7240   49.8190 C   0  0  0  0  0  0  0  0  0  0  0  0
   38.7350   33.3660   48.9160 C   0  0  0  0  0  0  0  0  0  0  0  0
   39.0620   32.7510   47.7520 N   0  0  0  0  0  0  0  0  0  0  0  0
   38.6280   31.5150   47.4090 C   0  0  0  0  0  0  0  0  0  0  0  0
   37.8130   30.8520   48.2910 N   0  0  0  0  0  0  0  0  0  0  0  0
   37.5960   33.1170   50.7680 H   0  0  0  0  0  0  0  0  0  0  0  0
   39.0970   34.3560   49.1650 H   0  0  0  0  0  0  0  0  0  0  0  0
   36.5590   30.7290   50.4010 C   0  0  0  0  0  0  0  0  0  0  0  0
   36.4950   29.2910   50.4790 C   0  0  0  0  0  0  0  0  0  0  0  0
   37.3230   30.0130   51.5240 C   0  0  0  0  0  0  0  0  0  0  0  0
   35.6980   31.3360   50.8170 H   0  0  0  0  0  0  0  0  0  0  0  0
   37.0890   28.7180   49.7090 H   0  0  0  0  0  0  0  0  0  0  0  0
   35.5760   28.7700   50.7580 H   0  0  0  0  0  0  0  0  0  0  0  0
   36.8690   29.9850   52.5400 H   0  0  0  0  0  0  0  0  0  0  0  0
   38.4170   29.9130   51.4370 H   0  0  0  0  0  0  0  0  0  0  0  0
   38.9460   30.8240   46.1630 C   0  0  0  0  0  0  0  0  0  0  0  0
   38.7510   29.7290   46.3030 H   0  0  0  0  0  0  0  0  0  0  0  0
   40.0320   30.9360   45.9720 H   0  0  0  0  0  0  0  0  0  0  0  0
   40.3380   32.9300   44.4590 Cl  0  0  0  0  0  0  0  0  0  0  0  0
   38.7420   32.2970   44.1140 C   0  0  0  0  0  0  0  0  0  0  0  0
   38.2410   31.3460   44.9780 C   0  0  0  0  0  0  0  0  0  0  0  0
   36.9650   30.8930   44.6350 C   0  0  0  0  0  0  0  0  0  0  0  0
   36.5330   30.1380   45.2970 H   0  0  0  0  0  0  0  0  0  0  0  0
   36.2100   31.3080   43.5530 C   0  0  0  0  0  0  0  0  0  0  0  0
   35.2330   30.8650   43.4140 H   0  0  0  0  0  0  0  0  0  0  0  0
   36.7850   32.2670   42.7320 C   0  0  0  0  0  3  0  0  0  0  0  0
   38.0560   32.7660   43.0120 C   0  0  0  0  0  3  0  0  0  0  0  0
  1  2  1  0  0  0  0
  1  9  1  0  0  0  0
  2  7  1  0  0  0  0
  3  8  1  0  0  0  0
  3  2  2  0  0  0  0
  4  3  1  0  0  0  0
  5  4  2  0  0  0  0
  5  6  1  0  0  0  0
  6  1  2  0  0  0  0
  9 10  1  0  0  0  0
  9 12  1  0  0  0  0
  9 11  1  0  0  0  0
 10 14  1  0  0  0  0
 10 11  1  0  0  0  0
 11 15  1  0  0  0  0
 13 10  1  0  0  0  0
 16 11  1  0  0  0  0
 17 18  1  0  0  0  0
 17  5  1  0  0  0  0
 19 17  1  0  0  0  0
 21 20  1  0  0  0  0
 21 22  1  0  0  0  0
 22 17  1  0  0  0  0
 23 22  2  0  0  0  0
 23 24  1  0  0  0  0
 25 23  1  0  0  0  0
 26 25  1  0  0  0  0
 27 28  1  0  0  0  0
 27 25  2  0  0  0  0
 28 21  2  0  0  0  0
M  END
>  <minimizedAffinity>
-5.50810671

>  <minimizedRMSD>
0.608752608

$$$$
