
     RDKit          3D

 23 24  0  0  0  0  0  0  0  0999 V2000
   38.3065   31.2329   50.1234 C   0  0  0  0  0  0  0  0  0  0  0  0
   38.2863   31.6061   48.7582 C   0  0  0  0  0  0  0  0  0  0  0  0
   37.1966   31.2228   47.9915 C   0  0  0  0  0  0  0  0  0  0  0  0
   36.2230   30.5111   48.6165 N   0  0  0  0  0  0  0  0  0  0  0  0
   36.2621   30.1695   49.9057 C   0  0  0  0  0  0  0  0  0  0  0  0
   37.3012   30.5320   50.6494 N   0  0  0  0  0  0  0  0  0  0  0  0
   35.1285   29.3889   50.4416 C   0  0  0  0  0  0  0  0  0  0  0  0
   35.2576   29.1257   51.8027 F   0  0  0  0  0  0  0  0  0  0  0  0
   33.9281   30.0589   50.2945 F   0  0  0  0  0  0  0  0  0  0  0  0
   34.9590   28.1641   49.8203 F   0  0  0  0  0  0  0  0  0  0  0  0
   39.1399   31.5134   50.7548 H   0  0  0  0  0  0  0  0  0  0  0  0
   39.0820   32.1666   48.3210 H   0  0  0  0  0  0  0  0  0  0  0  0
   39.6747   30.7961   46.2834 Cl  0  0  0  0  0  0  0  0  0  0  0  0
   38.1303   31.3839   45.7371 C   0  0  0  0  0  0  0  0  0  0  0  0
   37.0616   31.5469   46.5787 C   0  0  0  0  0  0  0  0  0  0  0  0
   35.9025   32.0205   46.0060 C   0  0  0  0  0  0  0  0  0  0  0  0
   35.0245   32.1704   46.6181 H   0  0  0  0  0  0  0  0  0  0  0  0
   35.8009   32.3199   44.6653 C   0  0  0  0  0  0  0  0  0  0  0  0
   34.8641   32.6913   44.2596 H   0  0  0  0  0  0  0  0  0  0  0  0
   36.8833   32.1526   43.8240 C   0  0  0  0  0  0  0  0  0  0  0  0
   38.0747   31.6732   44.3753 C   0  0  0  0  0  0  0  0  0  0  0  0
   36.7436   32.4042   42.7811 H   0  0  0  0  0  0  0  0  0  0  0  0
   38.8993   31.5520   43.7031 H   0  0  0  0  0  0  0  0  0  0  0  0
  1  6  2  0
  2  1  1  0
  3  4  1  0
  3  2  2  0
  4  5  2  0
  5  7  1  0
  5  6  1  0
  7  8  1  0
  9  7  1  0
 10  7  1  0
  1 11  1  0
  2 12  1  0
 13 14  1  0
 14 15  2  0
 15 16  1  0
 16 17  1  0
 16 18  2  0
 18 19  1  0
 18 20  1  0
 20 21  2  0
 21 14  1  0
 20 22  1  0
 21 23  1  0
  3 15  1  0
M  ISO  4  11  14  12  14  17  15  19  16
M  END
>  <DihAtoms>  (1) 
3,2,14,13

>  <DihDeg>  (1) 
0.0049961559325213765

$$$$
