
 OpenBabel03272504293D

 42 45  0  0  0  0  0  0  0  0999 V2000
   38.0700   25.7030   33.5860 C   0  0  0  0  0  0  0  0  0  0  0  0
   37.9840   26.8840   34.2320 C   0  0  0  0  0  0  0  0  0  0  0  0
   38.9260   27.2730   35.0960 C   0  0  0  0  0  0  0  0  0  0  0  0
   39.9840   26.4510   35.3160 N   0  0  0  0  0  0  0  0  0  0  0  0
   40.0700   25.2900   34.6800 C   0  0  0  0  0  0  0  0  0  0  0  0
   39.1230   24.9030   33.8150 N   0  0  0  0  0  0  0  0  0  0  0  0
   37.1210   27.4970   34.0180 H   0  0  0  0  0  0  0  0  0  0  0  0
   38.8090   28.2330   35.5900 H   0  0  0  0  0  0  0  0  0  0  0  0
   41.2080   23.5270   35.9550 C   0  0  0  0  0  0  0  0  0  0  0  0
   41.2510   24.5210   34.9740 C   0  0  0  0  0  0  0  0  0  0  0  0
   42.3880   24.8570   34.2560 C   0  0  0  0  0  0  0  0  0  0  0  0
   43.5640   24.1780   34.5190 C   0  0  0  0  0  0  0  0  0  0  0  0
   43.6150   23.1840   35.4720 C   0  0  0  0  0  0  0  0  0  0  0  0
   42.4470   22.9250   36.1230 C   0  0  0  0  0  0  0  0  0  0  0  0
   42.3720   25.6330   33.5040 H   0  0  0  0  0  0  0  0  0  0  0  0
   44.4480   24.4460   33.9560 H   0  0  0  0  0  0  0  0  0  0  0  0
   44.5160   22.6400   35.6980 H   0  0  0  0  0  0  0  0  0  0  0  0
   42.4900   22.1370   36.8780 H   0  0  0  0  0  0  0  0  0  0  0  0
   39.8420   23.0830   36.8050 S   0  0  0  0  0  0  0  0  0  0  0  0
   40.5820   22.2430   37.9020 O   0  0  0  0  0  0  0  0  0  0  0  0
   39.0610   22.1400   35.9250 O   0  0  0  0  0  0  0  0  0  0  0  0
   38.6940   23.3520   37.8800 C   0  0  0  0  0  0  0  0  0  0  0  0
   37.3740   22.8580   37.8050 F   0  0  0  0  0  0  0  0  0  0  0  0
   38.1860   24.7320   37.7260 F   0  0  0  0  0  0  0  0  0  0  0  0
   39.0020   23.7140   39.2220 F   0  0  0  0  0  0  0  0  0  0  0  0
   35.3820   25.6350   31.0930 C   0  0  0  0  0  0  0  0  0  0  0  0
   35.2070   24.2550   30.8770 C   0  0  0  0  0  0  0  0  0  0  0  0
   36.0120   23.3840   31.5930 C   0  0  0  0  0  0  0  0  0  0  0  0
   36.9050   23.9340   32.4430 N   0  0  0  0  0  0  0  0  0  0  0  0
   37.0620   25.2590   32.6380 C   0  0  0  0  0  0  0  0  0  0  0  0
   36.2890   26.0980   31.9520 N   0  0  0  0  0  0  0  0  0  0  0  0
   34.7500   26.3070   30.5310 H   0  0  0  0  0  0  0  0  0  0  0  0
   34.4990   23.8870   30.1840 H   0  0  0  0  0  0  0  0  0  0  0  0
   38.3230   21.7830   30.1980 Cl  0  0  0  0  0  0  0  0  0  0  0  0
   36.9320   21.0800   30.9760 C   0  0  0  0  0  0  0  0  0  0  0  0
   36.0270   21.9490   31.5250 C   0  0  0  0  0  0  0  0  0  0  0  0
   34.9560   21.2510   32.0790 C   0  0  0  0  0  0  0  0  0  0  0  0
   34.1110   21.7580   32.5740 H   0  0  0  0  0  0  0  0  0  0  0  0
   34.8270   19.8830   32.0750 C   0  0  0  0  0  0  0  0  0  0  0  0
   33.9770   19.3890   32.5190 H   0  0  0  0  0  0  0  0  0  0  0  0
   35.7940   19.0930   31.4980 C   0  0  0  0  0  3  0  0  0  0  0  0
   36.8590   19.7280   30.9440 C   0  0  0  0  0  3  0  0  0  0  0  0
  1  6  2  0  0  0  0
  1  2  1  0  0  0  0
  2  3  2  0  0  0  0
  3  4  1  0  0  0  0
  3  8  1  0  0  0  0
  5 10  1  0  0  0  0
  5  4  2  0  0  0  0
  6  5  1  0  0  0  0
  7  2  1  0  0  0  0
  9 14  1  0  0  0  0
  9 19  1  0  0  0  0
 10  9  2  0  0  0  0
 11 12  2  0  0  0  0
 11 10  1  0  0  0  0
 12 13  1  0  0  0  0
 13 17  1  0  0  0  0
 13 14  2  0  0  0  0
 14 18  1  0  0  0  0
 15 11  1  0  0  0  0
 16 12  1  0  0  0  0
 19 22  1  0  0  0  0
 19 20  2  0  0  0  0
 21 19  2  0  0  0  0
 22 25  1  0  0  0  0
 23 22  1  0  0  0  0
 24 22  1  0  0  0  0
 26 31  1  0  0  0  0
 27 26  2  0  0  0  0
 27 28  1  0  0  0  0
 28 29  2  0  0  0  0
 29 30  1  0  0  0  0
 30  1  1  0  0  0  0
 31 30  2  0  0  0  0
 32 26  1  0  0  0  0
 33 27  1  0  0  0  0
 34 35  1  0  0  0  0
 35 36  1  0  0  0  0
 36 28  1  0  0  0  0
 36 37  2  0  0  0  0
 37 38  1  0  0  0  0
 39 37  1  0  0  0  0
 39 40  1  0  0  0  0
 41 39  2  0  0  0  0
 42 35  2  0  0  0  0
 42 41  1  0  0  0  0
M  END
>  <minimizedAffinity>
-7.59764433

$$$$

 OpenBabel03272504293D

 42 45  0  0  0  0  0  0  0  0999 V2000
   39.8490   25.7550   33.7470 C   0  0  0  0  0  0  0  0  0  0  0  0
   40.8070   26.7050   33.7280 C   0  0  0  0  0  0  0  0  0  0  0  0
   41.9700   26.5300   34.3630 C   0  0  0  0  0  0  0  0  0  0  0  0
   42.1740   25.3680   35.0350 N   0  0  0  0  0  0  0  0  0  0  0  0
   41.2320   24.4340   35.0530 C   0  0  0  0  0  0  0  0  0  0  0  0
   40.0670   24.6130   34.4170 N   0  0  0  0  0  0  0  0  0  0  0  0
   40.5900   27.6080   33.1770 H   0  0  0  0  0  0  0  0  0  0  0  0
   42.7080   27.3250   34.3160 H   0  0  0  0  0  0  0  0  0  0  0  0
   40.7080   22.7360   36.7480 C   0  0  0  0  0  0  0  0  0  0  0  0
   41.5760   23.2360   35.7740 C   0  0  0  0  0  0  0  0  0  0  0  0
   42.8000   22.6690   35.4570 C   0  0  0  0  0  0  0  0  0  0  0  0
   43.2040   21.5360   36.1410 C   0  0  0  0  0  0  0  0  0  0  0  0
   42.4130   20.9750   37.1200 C   0  0  0  0  0  0  0  0  0  0  0  0
   41.2280   21.6040   37.3580 C   0  0  0  0  0  0  0  0  0  0  0  0
   43.4380   23.0910   34.6940 H   0  0  0  0  0  0  0  0  0  0  0  0
   44.1600   21.0980   35.8900 H   0  0  0  0  0  0  0  0  0  0  0  0
   42.7010   20.0950   37.6690 H   0  0  0  0  0  0  0  0  0  0  0  0
   40.6020   21.1570   38.1340 H   0  0  0  0  0  0  0  0  0  0  0  0
   39.2150   23.3840   37.1190 S   0  0  0  0  0  0  0  0  0  0  0  0
   39.2220   22.9850   38.6350 O   0  0  0  0  0  0  0  0  0  0  0  0
   38.1810   22.5480   36.4090 O   0  0  0  0  0  0  0  0  0  0  0  0
   38.2580   24.5980   37.5120 C   0  0  0  0  0  0  0  0  0  0  0  0
   37.7310   24.8380   38.8000 F   0  0  0  0  0  0  0  0  0  0  0  0
   36.8940   24.3370   37.0040 F   0  0  0  0  0  0  0  0  0  0  0  0
   38.2170   25.7930   36.7400 F   0  0  0  0  0  0  0  0  0  0  0  0
   36.8380   25.1540   31.7410 C   0  0  0  0  0  0  0  0  0  0  0  0
   36.1660   26.3880   31.8300 C   0  0  0  0  0  0  0  0  0  0  0  0
   36.7630   27.3950   32.5720 C   0  0  0  0  0  0  0  0  0  0  0  0
   37.9470   27.1060   33.1540 N   0  0  0  0  0  0  0  0  0  0  0  0
   38.5780   25.9180   33.0610 C   0  0  0  0  0  0  0  0  0  0  0  0
   38.0070   24.9500   32.3480 N   0  0  0  0  0  0  0  0  0  0  0  0
   36.3660   24.3760   31.1600 H   0  0  0  0  0  0  0  0  0  0  0  0
   35.2310   26.5470   31.3630 H   0  0  0  0  0  0  0  0  0  0  0  0
   36.6980   29.6170   30.3580 Cl  0  0  0  0  0  0  0  0  0  0  0  0
   36.1430   29.8080   31.9990 C   0  0  0  0  0  0  0  0  0  0  0  0
   36.2600   28.7170   32.8190 C   0  0  0  0  0  0  0  0  0  0  0  0
   35.8110   29.0240   34.1020 C   0  0  0  0  0  0  0  0  0  0  0  0
   35.8180   28.2880   34.9240 H   0  0  0  0  0  0  0  0  0  0  0  0
   35.3210   30.2470   34.4890 C   0  0  0  0  0  0  0  0  0  0  0  0
   34.9840   30.4350   35.4960 H   0  0  0  0  0  0  0  0  0  0  0  0
   35.2410   31.2830   33.5870 C   0  0  0  0  0  3  0  0  0  0  0  0
   35.6670   31.0330   32.3220 C   0  0  0  0  0  3  0  0  0  0  0  0
  1  6  1  0  0  0  0
  2  1  2  0  0  0  0
  2  3  1  0  0  0  0
  3  4  2  0  0  0  0
  4  5  1  0  0  0  0
  5 10  1  0  0  0  0
  6  5  2  0  0  0  0
  7  2  1  0  0  0  0
  8  3  1  0  0  0  0
  9 19  1  0  0  0  0
  9 14  1  0  0  0  0
 10  9  2  0  0  0  0
 11 10  1  0  0  0  0
 11 12  2  0  0  0  0
 12 13  1  0  0  0  0
 13 14  2  0  0  0  0
 13 17  1  0  0  0  0
 14 18  1  0  0  0  0
 15 11  1  0  0  0  0
 16 12  1  0  0  0  0
 19 22  1  0  0  0  0
 19 20  2  0  0  0  0
 21 19  2  0  0  0  0
 22 23  1  0  0  0  0
 24 22  1  0  0  0  0
 25 22  1  0  0  0  0
 26 27  2  0  0  0  0
 26 31  1  0  0  0  0
 27 28  1  0  0  0  0
 28 36  1  0  0  0  0
 28 29  2  0  0  0  0
 30 29  1  0  0  0  0
 30  1  1  0  0  0  0
 31 30  2  0  0  0  0
 32 26  1  0  0  0  0
 33 27  1  0  0  0  0
 34 35  1  0  0  0  0
 35 42  2  0  0  0  0
 35 36  1  0  0  0  0
 36 37  2  0  0  0  0
 37 39  1  0  0  0  0
 37 38  1  0  0  0  0
 39 40  1  0  0  0  0
 41 39  2  0  0  0  0
 42 41  1  0  0  0  0
M  END
>  <minimizedAffinity>
-7.1141839

$$$$

 OpenBabel03272504293D

 42 45  0  0  0  0  0  0  0  0999 V2000
   36.4540   28.2260   33.2290 C   0  0  0  0  0  0  0  0  0  0  0  0
   36.0750   28.6280   31.9980 C   0  0  0  0  0  0  0  0  0  0  0  0
   35.2670   29.6790   31.8300 C   0  0  0  0  0  0  0  0  0  0  0  0
   34.8280   30.3430   32.9300 N   0  0  0  0  0  0  0  0  0  0  0  0
   35.2020   29.9480   34.1400 C   0  0  0  0  0  0  0  0  0  0  0  0
   36.0110   28.8940   34.3050 N   0  0  0  0  0  0  0  0  0  0  0  0
   36.4550   28.0620   31.1600 H   0  0  0  0  0  0  0  0  0  0  0  0
   34.9920   29.9620   30.8180 H   0  0  0  0  0  0  0  0  0  0  0  0
   33.3800   30.5760   35.6620 C   0  0  0  0  0  0  0  0  0  0  0  0
   34.6960   30.7490   35.2240 C   0  0  0  0  0  0  0  0  0  0  0  0
   35.5730   31.6840   35.7490 C   0  0  0  0  0  0  0  0  0  0  0  0
   35.1340   32.5080   36.7690 C   0  0  0  0  0  0  0  0  0  0  0  0
   33.8520   32.4100   37.2620 C   0  0  0  0  0  0  0  0  0  0  0  0
   33.0640   31.4600   36.6840 C   0  0  0  0  0  0  0  0  0  0  0  0
   36.5840   31.7800   35.3780 H   0  0  0  0  0  0  0  0  0  0  0  0
   35.8240   33.2370   37.1740 H   0  0  0  0  0  0  0  0  0  0  0  0
   33.4820   33.0380   38.0550 H   0  0  0  0  0  0  0  0  0  0  0  0
   32.0480   31.3840   37.0770 H   0  0  0  0  0  0  0  0  0  0  0  0
   32.3190   29.4330   35.0690 S   0  0  0  0  0  0  0  0  0  0  0  0
   31.0630   30.3690   35.0130 O   0  0  0  0  0  0  0  0  0  0  0  0
   32.1090   28.4140   36.1600 O   0  0  0  0  0  0  0  0  0  0  0  0
   31.6610   28.5940   33.8810 C   0  0  0  0  0  0  0  0  0  0  0  0
   32.2250   28.4150   32.6000 F   0  0  0  0  0  0  0  0  0  0  0  0
   30.5520   29.3680   33.2840 F   0  0  0  0  0  0  0  0  0  0  0  0
   30.6950   27.5790   34.1330 F   0  0  0  0  0  0  0  0  0  0  0  0
   39.2820   26.1110   34.2170 C   0  0  0  0  0  0  0  0  0  0  0  0
   38.8810   24.8400   33.7650 C   0  0  0  0  0  0  0  0  0  0  0  0
   37.6530   24.7410   33.1300 C   0  0  0  0  0  0  0  0  0  0  0  0
   36.9380   25.8790   32.9990 N   0  0  0  0  0  0  0  0  0  0  0  0
   37.3350   27.0900   33.4390 C   0  0  0  0  0  0  0  0  0  0  0  0
   38.5150   27.1880   34.0490 N   0  0  0  0  0  0  0  0  0  0  0  0
   40.2410   26.1790   34.7100 H   0  0  0  0  0  0  0  0  0  0  0  0
   39.4810   23.9820   33.9110 H   0  0  0  0  0  0  0  0  0  0  0  0
   35.5000   24.8340   30.8480 Cl  0  0  0  0  0  0  0  0  0  0  0  0
   36.0900   23.3900   31.6240 C   0  0  0  0  0  0  0  0  0  0  0  0
   37.0300   23.5570   32.6060 C   0  0  0  0  0  0  0  0  0  0  0  0
   37.3810   22.3270   33.1570 C   0  0  0  0  0  0  0  0  0  0  0  0
   38.1250   22.2320   33.9670 H   0  0  0  0  0  0  0  0  0  0  0  0
   36.8590   21.1180   32.7700 C   0  0  0  0  0  0  0  0  0  0  0  0
   37.1660   20.1910   33.2280 H   0  0  0  0  0  0  0  0  0  0  0  0
   35.9170   21.0530   31.7690 C   0  0  0  0  0  3  0  0  0  0  0  0
   35.5410   22.2270   31.2000 C   0  0  0  0  0  3  0  0  0  0  0  0
  1 30  1  0  0  0  0
  1  6  1  0  0  0  0
  2  1  2  0  0  0  0
  3  2  1  0  0  0  0
  3  4  2  0  0  0  0
  4  5  1  0  0  0  0
  5  6  2  0  0  0  0
  5 10  1  0  0  0  0
  7  2  1  0  0  0  0
  8  3  1  0  0  0  0
  9 14  1  0  0  0  0
 10  9  2  0  0  0  0
 10 11  1  0  0  0  0
 11 12  2  0  0  0  0
 12 16  1  0  0  0  0
 12 13  1  0  0  0  0
 13 17  1  0  0  0  0
 14 18  1  0  0  0  0
 14 13  2  0  0  0  0
 15 11  1  0  0  0  0
 19  9  1  0  0  0  0
 19 21  2  0  0  0  0
 20 19  2  0  0  0  0
 22 25  1  0  0  0  0
 22 19  1  0  0  0  0
 23 22  1  0  0  0  0
 24 22  1  0  0  0  0
 26 32  1  0  0  0  0
 27 33  1  0  0  0  0
 27 26  2  0  0  0  0
 28 27  1  0  0  0  0
 29 28  2  0  0  0  0
 29 30  1  0  0  0  0
 30 31  2  0  0  0  0
 31 26  1  0  0  0  0
 34 35  1  0  0  0  0
 35 36  1  0  0  0  0
 36 28  1  0  0  0  0
 36 37  2  0  0  0  0
 37 38  1  0  0  0  0
 39 37  1  0  0  0  0
 39 40  1  0  0  0  0
 41 39  2  0  0  0  0
 42 35  2  0  0  0  0
 42 41  1  0  0  0  0
M  END
>  <minimizedAffinity>
-7.06262827

$$$$

 OpenBabel03272504293D

 42 45  0  0  0  0  0  0  0  0999 V2000
   36.0660   28.8720   32.3780 C   0  0  0  0  0  0  0  0  0  0  0  0
   35.5760   29.5220   31.3010 C   0  0  0  0  0  0  0  0  0  0  0  0
   34.7780   30.5850   31.4370 C   0  0  0  0  0  0  0  0  0  0  0  0
   34.4640   31.0060   32.6890 N   0  0  0  0  0  0  0  0  0  0  0  0
   34.9460   30.3680   33.7470 C   0  0  0  0  0  0  0  0  0  0  0  0
   35.7450   29.3020   33.6080 N   0  0  0  0  0  0  0  0  0  0  0  0
   35.8590   29.1430   30.3310 H   0  0  0  0  0  0  0  0  0  0  0  0
   34.4100   31.0720   30.5380 H   0  0  0  0  0  0  0  0  0  0  0  0
   33.3330   30.5920   35.5850 C   0  0  0  0  0  0  0  0  0  0  0  0
   34.5670   30.9250   35.0190 C   0  0  0  0  0  0  0  0  0  0  0  0
   35.4720   31.8050   35.5900 C   0  0  0  0  0  0  0  0  0  0  0  0
   35.1490   32.4020   36.7950 C   0  0  0  0  0  0  0  0  0  0  0  0
   33.9530   32.1340   37.4250 C   0  0  0  0  0  0  0  0  0  0  0  0
   33.1300   31.2550   36.7870 C   0  0  0  0  0  0  0  0  0  0  0  0
   36.4160   32.0320   35.1140 H   0  0  0  0  0  0  0  0  0  0  0  0
   35.8590   33.0880   37.2350 H   0  0  0  0  0  0  0  0  0  0  0  0
   33.6740   32.5830   38.3630 H   0  0  0  0  0  0  0  0  0  0  0  0
   32.1830   31.0430   37.2880 H   0  0  0  0  0  0  0  0  0  0  0  0
   32.2450   29.5070   34.9320 S   0  0  0  0  0  0  0  0  0  0  0  0
   30.9770   30.4160   35.0860 O   0  0  0  0  0  0  0  0  0  0  0  0
   32.1310   28.3570   35.9000 O   0  0  0  0  0  0  0  0  0  0  0  0
   31.5120   28.8080   33.7000 C   0  0  0  0  0  0  0  0  0  0  0  0
   31.0230   27.4830   33.6870 F   0  0  0  0  0  0  0  0  0  0  0  0
   32.5100   28.4480   32.6700 F   0  0  0  0  0  0  0  0  0  0  0  0
   30.8740   29.5720   32.6830 F   0  0  0  0  0  0  0  0  0  0  0  0
   38.3630   26.3260   31.0790 C   0  0  0  0  0  0  0  0  0  0  0  0
   38.5660   25.5030   32.2020 C   0  0  0  0  0  0  0  0  0  0  0  0
   37.9080   25.8390   33.3750 C   0  0  0  0  0  0  0  0  0  0  0  0
   37.1230   26.9370   33.3420 N   0  0  0  0  0  0  0  0  0  0  0  0
   36.9400   27.7180   32.2580 C   0  0  0  0  0  0  0  0  0  0  0  0
   37.5700   27.3960   31.1310 N   0  0  0  0  0  0  0  0  0  0  0  0
   38.8800   26.0560   30.1690 H   0  0  0  0  0  0  0  0  0  0  0  0
   39.2070   24.6620   32.1670 H   0  0  0  0  0  0  0  0  0  0  0  0
   38.1490   27.3820   36.0960 Cl  0  0  0  0  0  0  0  0  0  0  0  0
   38.0750   25.6500   35.9190 C   0  0  0  0  0  0  0  0  0  0  0  0
   37.9760   25.1650   34.6410 C   0  0  0  0  0  0  0  0  0  0  0  0
   37.9610   23.7720   34.6500 C   0  0  0  0  0  0  0  0  0  0  0  0
   37.8870   23.1750   33.7250 H   0  0  0  0  0  0  0  0  0  0  0  0
   38.0350   22.9950   35.7800 C   0  0  0  0  0  0  0  0  0  0  0  0
   38.0190   21.9180   35.7340 H   0  0  0  0  0  0  0  0  0  0  0  0
   38.1310   23.5790   37.0230 C   0  0  0  0  0  3  0  0  0  0  0  0
   38.1500   24.9360   37.0660 C   0  0  0  0  0  3  0  0  0  0  0  0
  1  6  1  0  0  0  0
  2  3  1  0  0  0  0
  2  1  2  0  0  0  0
  3  4  2  0  0  0  0
  4  5  1  0  0  0  0
  5 10  1  0  0  0  0
  6  5  2  0  0  0  0
  7  2  1  0  0  0  0
  8  3  1  0  0  0  0
  9 14  1  0  0  0  0
 10  9  2  0  0  0  0
 10 11  1  0  0  0  0
 11 12  2  0  0  0  0
 12 16  1  0  0  0  0
 12 13  1  0  0  0  0
 13 17  1  0  0  0  0
 14 18  1  0  0  0  0
 14 13  2  0  0  0  0
 15 11  1  0  0  0  0
 19 20  2  0  0  0  0
 19  9  1  0  0  0  0
 19 21  2  0  0  0  0
 22 19  1  0  0  0  0
 23 22  1  0  0  0  0
 24 22  1  0  0  0  0
 25 22  1  0  0  0  0
 26 31  2  0  0  0  0
 26 27  1  0  0  0  0
 27 28  2  0  0  0  0
 28 36  1  0  0  0  0
 29 28  1  0  0  0  0
 30  1  1  0  0  0  0
 30 29  2  0  0  0  0
 31 30  1  0  0  0  0
 32 26  1  0  0  0  0
 33 27  1  0  0  0  0
 35 34  1  0  0  0  0
 35 42  1  0  0  0  0
 36 37  1  0  0  0  0
 36 35  2  0  0  0  0
 37 39  2  0  0  0  0
 38 37  1  0  0  0  0
 39 41  1  0  0  0  0
 40 39  1  0  0  0  0
 41 42  2  0  0  0  0
M  END
>  <minimizedAffinity>
-7.04514122

$$$$

 OpenBabel03272504293D

 42 45  0  0  0  0  0  0  0  0999 V2000
   37.6750   27.3240   33.5840 C   0  0  0  0  0  0  0  0  0  0  0  0
   38.8670   27.2210   32.9620 C   0  0  0  0  0  0  0  0  0  0  0  0
   39.7910   26.3480   33.3730 C   0  0  0  0  0  0  0  0  0  0  0  0
   39.5080   25.5560   34.4390 N   0  0  0  0  0  0  0  0  0  0  0  0
   38.3350   25.6570   35.0500 C   0  0  0  0  0  0  0  0  0  0  0  0
   37.4110   26.5340   34.6360 N   0  0  0  0  0  0  0  0  0  0  0  0
   39.0370   27.8750   32.1200 H   0  0  0  0  0  0  0  0  0  0  0  0
   40.7350   26.3050   32.8370 H   0  0  0  0  0  0  0  0  0  0  0  0
   37.9230   23.3890   35.8970 C   0  0  0  0  0  0  0  0  0  0  0  0
   38.1410   24.7460   36.1480 C   0  0  0  0  0  0  0  0  0  0  0  0
   38.1540   25.3100   37.4140 C   0  0  0  0  0  0  0  0  0  0  0  0
   37.9370   24.4920   38.5080 C   0  0  0  0  0  0  0  0  0  0  0  0
   37.7110   23.1420   38.3550 C   0  0  0  0  0  0  0  0  0  0  0  0
   37.7190   22.6810   37.0730 C   0  0  0  0  0  0  0  0  0  0  0  0
   38.3280   26.3670   37.5590 H   0  0  0  0  0  0  0  0  0  0  0  0
   37.9470   24.9390   39.4930 H   0  0  0  0  0  0  0  0  0  0  0  0
   37.5380   22.4810   39.1870 H   0  0  0  0  0  0  0  0  0  0  0  0
   37.5400   21.6100   36.9530 H   0  0  0  0  0  0  0  0  0  0  0  0
   37.9390   22.6840   34.3840 S   0  0  0  0  0  0  0  0  0  0  0  0
   36.9240   21.5350   34.7140 O   0  0  0  0  0  0  0  0  0  0  0  0
   39.3050   22.0760   34.1930 O   0  0  0  0  0  0  0  0  0  0  0  0
   37.4580   22.5810   32.8660 C   0  0  0  0  0  0  0  0  0  0  0  0
   38.2590   22.1540   31.7850 F   0  0  0  0  0  0  0  0  0  0  0  0
   37.3860   23.9350   32.2770 F   0  0  0  0  0  0  0  0  0  0  0  0
   36.0810   22.4610   32.5290 F   0  0  0  0  0  0  0  0  0  0  0  0
   35.4170   29.3620   31.5360 C   0  0  0  0  0  0  0  0  0  0  0  0
   34.6770   30.0610   32.5090 C   0  0  0  0  0  0  0  0  0  0  0  0
   34.9720   29.8180   33.8410 C   0  0  0  0  0  0  0  0  0  0  0  0
   35.9510   28.9240   34.0970 N   0  0  0  0  0  0  0  0  0  0  0  0
   36.6510   28.2610   33.1540 C   0  0  0  0  0  0  0  0  0  0  0  0
   36.3690   28.4930   31.8740 N   0  0  0  0  0  0  0  0  0  0  0  0
   35.1800   29.5590   30.5010 H   0  0  0  0  0  0  0  0  0  0  0  0
   33.9100   30.7390   32.2430 H   0  0  0  0  0  0  0  0  0  0  0  0
   36.3590   32.0140   35.6030 Cl  0  0  0  0  0  0  0  0  0  0  0  0
   34.7720   31.3500   35.8780 C   0  0  0  0  0  0  0  0  0  0  0  0
   34.3430   30.3930   34.9970 C   0  0  0  0  0  0  0  0  0  0  0  0
   33.0790   29.9310   35.3590 C   0  0  0  0  0  0  0  0  0  0  0  0
   32.5460   29.1550   34.7840 H   0  0  0  0  0  0  0  0  0  0  0  0
   32.3650   30.3740   36.4450 C   0  0  0  0  0  0  0  0  0  0  0  0
   31.3870   29.9840   36.6820 H   0  0  0  0  0  0  0  0  0  0  0  0
   32.8830   31.3430   37.2720 C   0  0  0  0  0  3  0  0  0  0  0  0
   34.1140   31.8250   36.9610 C   0  0  0  0  0  3  0  0  0  0  0  0
  1  6  1  0  0  0  0
  2  3  1  0  0  0  0
  2  1  2  0  0  0  0
  3  4  2  0  0  0  0
  4  5  1  0  0  0  0
  5 10  1  0  0  0  0
  6  5  2  0  0  0  0
  7  2  1  0  0  0  0
  8  3  1  0  0  0  0
  9 10  2  0  0  0  0
  9 14  1  0  0  0  0
 10 11  1  0  0  0  0
 11 15  1  0  0  0  0
 11 12  2  0  0  0  0
 12 16  1  0  0  0  0
 13 12  1  0  0  0  0
 13 17  1  0  0  0  0
 14 13  2  0  0  0  0
 18 14  1  0  0  0  0
 19 20  2  0  0  0  0
 19  9  1  0  0  0  0
 21 19  2  0  0  0  0
 22 19  1  0  0  0  0
 23 22  1  0  0  0  0
 24 22  1  0  0  0  0
 25 22  1  0  0  0  0
 26 31  2  0  0  0  0
 26 27  1  0  0  0  0
 27 28  2  0  0  0  0
 28 29  1  0  0  0  0
 28 36  1  0  0  0  0
 30  1  1  0  0  0  0
 30 29  2  0  0  0  0
 31 30  1  0  0  0  0
 32 26  1  0  0  0  0
 33 27  1  0  0  0  0
 34 35  1  0  0  0  0
 35 42  1  0  0  0  0
 36 37  1  0  0  0  0
 36 35  2  0  0  0  0
 37 39  2  0  0  0  0
 38 37  1  0  0  0  0
 39 40  1  0  0  0  0
 39 41  1  0  0  0  0
 42 41  2  0  0  0  0
M  END
>  <minimizedAffinity>
-6.83933878

$$$$

 OpenBabel03272504293D

 42 45  0  0  0  0  0  0  0  0999 V2000
   37.6790   27.1580   34.1170 C   0  0  0  0  0  0  0  0  0  0  0  0
   38.5130   27.5650   35.0960 C   0  0  0  0  0  0  0  0  0  0  0  0
   39.5150   26.7900   35.5200 C   0  0  0  0  0  0  0  0  0  0  0  0
   39.6820   25.5720   34.9450 N   0  0  0  0  0  0  0  0  0  0  0  0
   38.8620   25.1720   33.9820 C   0  0  0  0  0  0  0  0  0  0  0  0
   37.8580   25.9510   33.5590 N   0  0  0  0  0  0  0  0  0  0  0  0
   38.3330   28.5430   35.5170 H   0  0  0  0  0  0  0  0  0  0  0  0
   40.1580   27.1650   36.3110 H   0  0  0  0  0  0  0  0  0  0  0  0
   38.9050   22.7250   34.1820 C   0  0  0  0  0  0  0  0  0  0  0  0
   39.1580   23.8750   33.4300 C   0  0  0  0  0  0  0  0  0  0  0  0
   39.7200   23.8690   32.1630 C   0  0  0  0  0  0  0  0  0  0  0  0
   40.0600   22.6550   31.5940 C   0  0  0  0  0  0  0  0  0  0  0  0
   39.8490   21.4700   32.2630 C   0  0  0  0  0  0  0  0  0  0  0  0
   39.2900   21.5780   33.5010 C   0  0  0  0  0  0  0  0  0  0  0  0
   39.8960   24.7860   31.6190 H   0  0  0  0  0  0  0  0  0  0  0  0
   40.4990   22.6570   30.6050 H   0  0  0  0  0  0  0  0  0  0  0  0
   40.1040   20.5110   31.8450 H   0  0  0  0  0  0  0  0  0  0  0  0
   39.1230   20.6380   34.0290 H   0  0  0  0  0  0  0  0  0  0  0  0
   38.1970   22.7080   35.6930 S   0  0  0  0  0  0  0  0  0  0  0  0
   39.4440   22.1590   36.4660 O   0  0  0  0  0  0  0  0  0  0  0  0
   37.1350   21.6380   35.6720 O   0  0  0  0  0  0  0  0  0  0  0  0
   37.7480   23.4120   37.0520 C   0  0  0  0  0  0  0  0  0  0  0  0
   37.4830   24.7900   37.2090 F   0  0  0  0  0  0  0  0  0  0  0  0
   38.9130   23.5350   37.9540 F   0  0  0  0  0  0  0  0  0  0  0  0
   37.1300   22.6760   38.1020 F   0  0  0  0  0  0  0  0  0  0  0  0
   35.0830   28.6680   32.0120 C   0  0  0  0  0  0  0  0  0  0  0  0
   34.5070   29.6160   32.8780 C   0  0  0  0  0  0  0  0  0  0  0  0
   35.0240   29.7160   34.1600 C   0  0  0  0  0  0  0  0  0  0  0  0
   36.0440   28.8890   34.4740 N   0  0  0  0  0  0  0  0  0  0  0  0
   36.5850   27.9840   33.6330 C   0  0  0  0  0  0  0  0  0  0  0  0
   36.0900   27.8870   32.4010 N   0  0  0  0  0  0  0  0  0  0  0  0
   34.6740   28.5980   31.0150 H   0  0  0  0  0  0  0  0  0  0  0  0
   33.6980   30.2260   32.5760 H   0  0  0  0  0  0  0  0  0  0  0  0
   32.1670   29.5220   35.4420 Cl  0  0  0  0  0  0  0  0  0  0  0  0
   33.4050   30.6590   35.8990 C   0  0  0  0  0  0  0  0  0  0  0  0
   34.5900   30.5880   35.2150 C   0  0  0  0  0  0  0  0  0  0  0  0
   35.4680   31.5740   35.6610 C   0  0  0  0  0  0  0  0  0  0  0  0
   36.4820   31.6960   35.2430 H   0  0  0  0  0  0  0  0  0  0  0  0
   35.1860   32.4860   36.6470 C   0  0  0  0  0  0  0  0  0  0  0  0
   35.9020   33.2300   36.9590 H   0  0  0  0  0  0  0  0  0  0  0  0
   33.9630   32.4750   37.2790 C   0  0  0  0  0  3  0  0  0  0  0  0
   33.0720   31.5320   36.8780 C   0  0  0  0  0  3  0  0  0  0  0  0
  1  2  1  0  0  0  0
  2  7  1  0  0  0  0
  2  3  2  0  0  0  0
  3  8  1  0  0  0  0
  4  3  1  0  0  0  0
  5  4  2  0  0  0  0
  6  5  1  0  0  0  0
  6  1  2  0  0  0  0
  9 19  1  0  0  0  0
 10  5  1  0  0  0  0
 10  9  2  0  0  0  0
 11 10  1  0  0  0  0
 12 11  2  0  0  0  0
 12 13  1  0  0  0  0
 13 14  2  0  0  0  0
 14 18  1  0  0  0  0
 14  9  1  0  0  0  0
 15 11  1  0  0  0  0
 16 12  1  0  0  0  0
 17 13  1  0  0  0  0
 19 20  2  0  0  0  0
 19 22  1  0  0  0  0
 21 19  2  0  0  0  0
 22 23  1  0  0  0  0
 22 24  1  0  0  0  0
 22 25  1  0  0  0  0
 26 31  2  0  0  0  0
 26 27  1  0  0  0  0
 27 28  2  0  0  0  0
 28 29  1  0  0  0  0
 28 36  1  0  0  0  0
 30  1  1  0  0  0  0
 30 29  2  0  0  0  0
 31 30  1  0  0  0  0
 32 26  1  0  0  0  0
 33 27  1  0  0  0  0
 34 35  1  0  0  0  0
 35 42  1  0  0  0  0
 36 37  1  0  0  0  0
 36 35  2  0  0  0  0
 37 39  2  0  0  0  0
 38 37  1  0  0  0  0
 39 40  1  0  0  0  0
 39 41  1  0  0  0  0
 42 41  2  0  0  0  0
M  END
>  <minimizedAffinity>
-6.80503845

$$$$

 OpenBabel03272504293D

 42 45  0  0  0  0  0  0  0  0999 V2000
   35.6730   29.2740   32.0460 C   0  0  0  0  0  0  0  0  0  0  0  0
   35.4160   30.2470   31.1470 C   0  0  0  0  0  0  0  0  0  0  0  0
   34.3250   31.0130   31.2480 C   0  0  0  0  0  0  0  0  0  0  0  0
   33.4700   30.7920   32.2790 N   0  0  0  0  0  0  0  0  0  0  0  0
   33.7230   29.8360   33.1620 C   0  0  0  0  0  0  0  0  0  0  0  0
   34.8170   29.0700   33.0580 N   0  0  0  0  0  0  0  0  0  0  0  0
   36.1310   30.3780   30.3490 H   0  0  0  0  0  0  0  0  0  0  0  0
   34.1640   31.7830   30.4990 H   0  0  0  0  0  0  0  0  0  0  0  0
   32.9140   30.4710   35.3920 C   0  0  0  0  0  0  0  0  0  0  0  0
   32.7590   29.7180   34.2250 C   0  0  0  0  0  0  0  0  0  0  0  0
   31.7330   28.8110   34.0150 C   0  0  0  0  0  0  0  0  0  0  0  0
   30.7950   28.6250   35.0150 C   0  0  0  0  0  0  0  0  0  0  0  0
   30.8700   29.3230   36.2000 C   0  0  0  0  0  0  0  0  0  0  0  0
   31.9130   30.1930   36.3120 C   0  0  0  0  0  0  0  0  0  0  0  0
   31.6540   28.2510   33.0940 H   0  0  0  0  0  0  0  0  0  0  0  0
   29.9970   27.9150   34.8450 H   0  0  0  0  0  0  0  0  0  0  0  0
   30.1550   29.1990   36.9960 H   0  0  0  0  0  0  0  0  0  0  0  0
   31.9700   30.7450   37.2520 H   0  0  0  0  0  0  0  0  0  0  0  0
   34.1210   31.5940   35.6500 S   0  0  0  0  0  0  0  0  0  0  0  0
   34.0070   31.6180   37.2140 O   0  0  0  0  0  0  0  0  0  0  0  0
   33.6230   32.9110   35.1130 O   0  0  0  0  0  0  0  0  0  0  0  0
   35.6510   32.0110   35.8220 C   0  0  0  0  0  0  0  0  0  0  0  0
   36.1100   33.2980   36.1800 F   0  0  0  0  0  0  0  0  0  0  0  0
   36.2760   32.1600   34.4900 F   0  0  0  0  0  0  0  0  0  0  0  0
   36.6610   31.0440   36.0860 F   0  0  0  0  0  0  0  0  0  0  0  0
   38.8260   27.7430   30.9670 C   0  0  0  0  0  0  0  0  0  0  0  0
   39.0400   26.7650   31.9570 C   0  0  0  0  0  0  0  0  0  0  0  0
   38.0970   26.6530   32.9660 C   0  0  0  0  0  0  0  0  0  0  0  0
   37.0450   27.4980   32.9170 N   0  0  0  0  0  0  0  0  0  0  0  0
   36.8550   28.4320   31.9630 C   0  0  0  0  0  0  0  0  0  0  0  0
   37.7590   28.5410   30.9920 N   0  0  0  0  0  0  0  0  0  0  0  0
   39.5660   27.8230   30.1850 H   0  0  0  0  0  0  0  0  0  0  0  0
   39.8940   26.1420   31.9480 H   0  0  0  0  0  0  0  0  0  0  0  0
   38.3480   27.6430   35.9330 Cl  0  0  0  0  0  0  0  0  0  0  0  0
   38.2060   25.9810   35.4300 C   0  0  0  0  0  0  0  0  0  0  0  0
   38.1110   25.7500   34.0830 C   0  0  0  0  0  0  0  0  0  0  0  0
   38.0390   24.3820   33.8280 C   0  0  0  0  0  0  0  0  0  0  0  0
   37.9580   23.9750   32.8060 H   0  0  0  0  0  0  0  0  0  0  0  0
   38.0590   23.4040   34.7910 C   0  0  0  0  0  0  0  0  0  0  0  0
   37.9980   22.3560   34.5420 H   0  0  0  0  0  0  0  0  0  0  0  0
   38.1550   23.7370   36.1220 C   0  0  0  0  0  3  0  0  0  0  0  0
   38.2290   25.0600   36.4220 C   0  0  0  0  0  3  0  0  0  0  0  0
  1  6  1  0  0  0  0
  2  3  1  0  0  0  0
  2  1  2  0  0  0  0
  3  4  2  0  0  0  0
  4  5  1  0  0  0  0
  5 10  1  0  0  0  0
  6  5  2  0  0  0  0
  7  2  1  0  0  0  0
  8  3  1  0  0  0  0
  9 19  1  0  0  0  0
  9 14  1  0  0  0  0
 10  9  2  0  0  0  0
 11 10  1  0  0  0  0
 11 12  2  0  0  0  0
 12 13  1  0  0  0  0
 13 14  2  0  0  0  0
 13 17  1  0  0  0  0
 14 18  1  0  0  0  0
 15 11  1  0  0  0  0
 16 12  1  0  0  0  0
 19 22  1  0  0  0  0
 19 20  2  0  0  0  0
 21 19  2  0  0  0  0
 22 25  1  0  0  0  0
 22 23  1  0  0  0  0
 24 22  1  0  0  0  0
 26 31  2  0  0  0  0
 26 27  1  0  0  0  0
 27 28  2  0  0  0  0
 28 36  1  0  0  0  0
 29 28  1  0  0  0  0
 30  1  1  0  0  0  0
 30 29  2  0  0  0  0
 31 30  1  0  0  0  0
 32 26  1  0  0  0  0
 33 27  1  0  0  0  0
 35 34  1  0  0  0  0
 35 42  1  0  0  0  0
 36 35  2  0  0  0  0
 37 36  1  0  0  0  0
 37 39  2  0  0  0  0
 38 37  1  0  0  0  0
 39 41  1  0  0  0  0
 40 39  1  0  0  0  0
 41 42  2  0  0  0  0
M  END
>  <minimizedAffinity>
-6.77661562

$$$$

 OpenBabel03272504293D

 42 45  0  0  0  0  0  0  0  0999 V2000
   35.6620   28.8840   31.6830 C   0  0  0  0  0  0  0  0  0  0  0  0
   36.7160   29.3740   31.0000 C   0  0  0  0  0  0  0  0  0  0  0  0
   37.7300   28.5860   30.6310 C   0  0  0  0  0  0  0  0  0  0  0  0
   37.6820   27.2700   30.9590 N   0  0  0  0  0  0  0  0  0  0  0  0
   36.6450   26.7880   31.6310 C   0  0  0  0  0  0  0  0  0  0  0  0
   35.6310   27.5810   32.0000 N   0  0  0  0  0  0  0  0  0  0  0  0
   36.7000   30.4280   30.7650 H   0  0  0  0  0  0  0  0  0  0  0  0
   38.5550   29.0310   30.0810 H   0  0  0  0  0  0  0  0  0  0  0  0
   37.3950   24.8970   33.0060 C   0  0  0  0  0  0  0  0  0  0  0  0
   36.6950   25.3730   31.8950 C   0  0  0  0  0  0  0  0  0  0  0  0
   36.0480   24.5620   30.9770 C   0  0  0  0  0  0  0  0  0  0  0  0
   36.0900   23.1910   31.1560 C   0  0  0  0  0  0  0  0  0  0  0  0
   36.7600   22.6320   32.2220 C   0  0  0  0  0  0  0  0  0  0  0  0
   37.3630   23.5110   33.0710 C   0  0  0  0  0  0  0  0  0  0  0  0
   35.5170   24.9780   30.1320 H   0  0  0  0  0  0  0  0  0  0  0  0
   35.5840   22.5630   30.4350 H   0  0  0  0  0  0  0  0  0  0  0  0
   36.8100   21.5690   32.3860 H   0  0  0  0  0  0  0  0  0  0  0  0
   37.8930   23.0660   33.9160 H   0  0  0  0  0  0  0  0  0  0  0  0
   38.1510   25.8580   34.1430 S   0  0  0  0  0  0  0  0  0  0  0  0
   39.0780   24.7390   34.7300 O   0  0  0  0  0  0  0  0  0  0  0  0
   37.1150   26.2160   35.1780 O   0  0  0  0  0  0  0  0  0  0  0  0
   39.2570   26.9170   34.5890 C   0  0  0  0  0  0  0  0  0  0  0  0
   40.1490   27.5810   33.7190 F   0  0  0  0  0  0  0  0  0  0  0  0
   40.3960   26.2080   35.2130 F   0  0  0  0  0  0  0  0  0  0  0  0
   39.1510   27.6320   35.8150 F   0  0  0  0  0  0  0  0  0  0  0  0
   33.1660   31.5640   31.8760 C   0  0  0  0  0  0  0  0  0  0  0  0
   32.3940   31.1770   32.9880 C   0  0  0  0  0  0  0  0  0  0  0  0
   32.7500   30.0100   33.6450 C   0  0  0  0  0  0  0  0  0  0  0  0
   33.8140   29.3350   33.1600 N   0  0  0  0  0  0  0  0  0  0  0  0
   34.5440   29.7180   32.0920 C   0  0  0  0  0  0  0  0  0  0  0  0
   34.2040   30.8390   31.4600 N   0  0  0  0  0  0  0  0  0  0  0  0
   32.8810   32.4750   31.3710 H   0  0  0  0  0  0  0  0  0  0  0  0
   31.5610   31.7420   33.3110 H   0  0  0  0  0  0  0  0  0  0  0  0
   33.2250   31.0150   36.5800 Cl  0  0  0  0  0  0  0  0  0  0  0  0
   32.1750   29.7040   36.1170 C   0  0  0  0  0  0  0  0  0  0  0  0
   32.1060   29.4120   34.7810 C   0  0  0  0  0  0  0  0  0  0  0  0
   31.2610   28.3250   34.5640 C   0  0  0  0  0  0  0  0  0  0  0  0
   31.0620   27.9220   33.5560 H   0  0  0  0  0  0  0  0  0  0  0  0
   30.5910   27.6450   35.5510 C   0  0  0  0  0  0  0  0  0  0  0  0
   29.9460   26.8090   35.3310 H   0  0  0  0  0  0  0  0  0  0  0  0
   30.7250   28.0170   36.8690 C   0  0  0  0  0  3  0  0  0  0  0  0
   31.5400   29.0710   37.1310 C   0  0  0  0  0  3  0  0  0  0  0  0
  1  6  1  0  0  0  0
  1 30  1  0  0  0  0
  2  1  2  0  0  0  0
  3  4  2  0  0  0  0
  3  2  1  0  0  0  0
  4  5  1  0  0  0  0
  5 10  1  0  0  0  0
  5  6  2  0  0  0  0
  7  2  1  0  0  0  0
  8  3  1  0  0  0  0
  9 14  1  0  0  0  0
  9 19  1  0  0  0  0
 10  9  2  0  0  0  0
 11 12  2  0  0  0  0
 11 10  1  0  0  0  0
 12 13  1  0  0  0  0
 13 17  1  0  0  0  0
 13 14  2  0  0  0  0
 14 18  1  0  0  0  0
 15 11  1  0  0  0  0
 16 12  1  0  0  0  0
 19 22  1  0  0  0  0
 19 20  2  0  0  0  0
 19 21  2  0  0  0  0
 22 24  1  0  0  0  0
 22 25  1  0  0  0  0
 23 22  1  0  0  0  0
 26 27  1  0  0  0  0
 27 33  1  0  0  0  0
 27 28  2  0  0  0  0
 28 36  1  0  0  0  0
 29 28  1  0  0  0  0
 30 29  2  0  0  0  0
 31 26  2  0  0  0  0
 31 30  1  0  0  0  0
 32 26  1  0  0  0  0
 35 34  1  0  0  0  0
 35 42  1  0  0  0  0
 36 35  2  0  0  0  0
 37 36  1  0  0  0  0
 37 39  2  0  0  0  0
 38 37  1  0  0  0  0
 39 41  1  0  0  0  0
 40 39  1  0  0  0  0
 41 42  2  0  0  0  0
M  END
>  <minimizedAffinity>
-6.68430281

$$$$

 OpenBabel03272504293D

 42 45  0  0  0  0  0  0  0  0999 V2000
   35.6480   29.1670   32.2240 C   0  0  0  0  0  0  0  0  0  0  0  0
   35.2770   29.9710   31.2060 C   0  0  0  0  0  0  0  0  0  0  0  0
   34.6200   31.1130   31.4290 C   0  0  0  0  0  0  0  0  0  0  0  0
   34.3280   31.4550   32.7090 N   0  0  0  0  0  0  0  0  0  0  0  0
   34.6930   30.6650   33.7100 C   0  0  0  0  0  0  0  0  0  0  0  0
   35.3510   29.5200   33.4840 N   0  0  0  0  0  0  0  0  0  0  0  0
   35.5370   29.6490   30.2090 H   0  0  0  0  0  0  0  0  0  0  0  0
   34.3450   31.7250   30.5740 H   0  0  0  0  0  0  0  0  0  0  0  0
   33.1660   30.7320   35.6320 C   0  0  0  0  0  0  0  0  0  0  0  0
   34.3530   31.1480   35.0230 C   0  0  0  0  0  0  0  0  0  0  0  0
   35.2450   32.0450   35.5890 C   0  0  0  0  0  0  0  0  0  0  0  0
   34.9550   32.5730   36.8340 C   0  0  0  0  0  0  0  0  0  0  0  0
   33.8060   32.2220   37.5080 C   0  0  0  0  0  0  0  0  0  0  0  0
   32.9940   31.3330   36.8710 C   0  0  0  0  0  0  0  0  0  0  0  0
   36.1520   32.3370   35.0790 H   0  0  0  0  0  0  0  0  0  0  0  0
   35.6550   33.2740   37.2700 H   0  0  0  0  0  0  0  0  0  0  0  0
   33.5550   32.6170   38.4770 H   0  0  0  0  0  0  0  0  0  0  0  0
   32.0840   31.0550   37.4070 H   0  0  0  0  0  0  0  0  0  0  0  0
   32.0970   29.6260   34.9840 S   0  0  0  0  0  0  0  0  0  0  0  0
   30.8030   30.4830   35.2020 O   0  0  0  0  0  0  0  0  0  0  0  0
   32.0560   28.4480   35.9230 O   0  0  0  0  0  0  0  0  0  0  0  0
   31.3500   28.9330   33.7570 C   0  0  0  0  0  0  0  0  0  0  0  0
   30.9920   27.5690   33.6850 F   0  0  0  0  0  0  0  0  0  0  0  0
   32.3040   28.7390   32.6430 F   0  0  0  0  0  0  0  0  0  0  0  0
   30.5710   29.6890   32.8370 F   0  0  0  0  0  0  0  0  0  0  0  0
   36.4880   25.6890   31.4180 C   0  0  0  0  0  0  0  0  0  0  0  0
   37.8770   25.6550   31.6460 C   0  0  0  0  0  0  0  0  0  0  0  0
   38.4890   26.8220   32.0720 C   0  0  0  0  0  0  0  0  0  0  0  0
   37.6980   27.9040   32.2340 N   0  0  0  0  0  0  0  0  0  0  0  0
   36.3680   27.9230   32.0100 C   0  0  0  0  0  0  0  0  0  0  0  0
   35.7780   26.8020   31.6020 N   0  0  0  0  0  0  0  0  0  0  0  0
   36.0200   24.7740   31.0870 H   0  0  0  0  0  0  0  0  0  0  0  0
   38.4450   24.7770   31.4860 H   0  0  0  0  0  0  0  0  0  0  0  0
   39.6400   26.9170   34.9910 Cl  0  0  0  0  0  0  0  0  0  0  0  0
   40.5720   27.0980   33.5300 C   0  0  0  0  0  0  0  0  0  0  0  0
   39.8840   27.0310   32.3470 C   0  0  0  0  0  0  0  0  0  0  0  0
   40.7470   27.2260   31.2710 C   0  0  0  0  0  0  0  0  0  0  0  0
   40.3990   27.2130   30.2240 H   0  0  0  0  0  0  0  0  0  0  0  0
   42.0970   27.4530   31.3810 C   0  0  0  0  0  0  0  0  0  0  0  0
   42.7230   27.5970   30.5150 H   0  0  0  0  0  0  0  0  0  0  0  0
   42.6980   27.5000   32.6180 C   0  0  0  0  0  3  0  0  0  0  0  0
   41.8970   27.3160   33.6990 C   0  0  0  0  0  3  0  0  0  0  0  0
  1  6  1  0  0  0  0
  2  3  1  0  0  0  0
  2  1  2  0  0  0  0
  3  4  2  0  0  0  0
  4  5  1  0  0  0  0
  5 10  1  0  0  0  0
  6  5  2  0  0  0  0
  7  2  1  0  0  0  0
  8  3  1  0  0  0  0
  9 14  1  0  0  0  0
 10 11  1  0  0  0  0
 10  9  2  0  0  0  0
 11 12  2  0  0  0  0
 12 16  1  0  0  0  0
 12 13  1  0  0  0  0
 13 17  1  0  0  0  0
 14 18  1  0  0  0  0
 14 13  2  0  0  0  0
 15 11  1  0  0  0  0
 19 20  2  0  0  0  0
 19  9  1  0  0  0  0
 19 21  2  0  0  0  0
 22 19  1  0  0  0  0
 23 22  1  0  0  0  0
 24 22  1  0  0  0  0
 25 22  1  0  0  0  0
 26 31  2  0  0  0  0
 26 27  1  0  0  0  0
 27 28  2  0  0  0  0
 28 29  1  0  0  0  0
 28 36  1  0  0  0  0
 30  1  1  0  0  0  0
 30 29  2  0  0  0  0
 31 30  1  0  0  0  0
 32 26  1  0  0  0  0
 33 27  1  0  0  0  0
 35 42  1  0  0  0  0
 35 34  1  0  0  0  0
 36 35  2  0  0  0  0
 37 39  2  0  0  0  0
 37 36  1  0  0  0  0
 38 37  1  0  0  0  0
 39 41  1  0  0  0  0
 40 39  1  0  0  0  0
 41 42  2  0  0  0  0
M  END
>  <minimizedAffinity>
-6.68179607

$$$$
