
 OpenBabel03262522413D

 41 45  0  0  0  0  0  0  0  0999 V2000
   37.0840   26.9640   32.6250 C   0  0  0  0  0  0  0  0  0  0  0  0
   37.4780   27.5900   31.4630 C   0  0  0  0  0  0  0  0  0  0  0  0
   37.1450   28.8890   31.1480 C   0  0  0  0  0  0  0  0  0  0  0  0
   36.3840   29.6240   32.0140 C   0  0  0  0  0  0  0  0  0  0  0  0
   36.0010   28.9790   33.1700 C   0  0  0  0  0  0  0  0  0  0  0  0
   36.3340   27.7280   33.4500 N   0  0  0  0  0  0  0  0  0  0  0  0
   38.0800   27.0460   30.7490 H   0  0  0  0  0  0  0  0  0  0  0  0
   37.4690   29.3660   30.2210 H   0  0  0  0  0  0  0  0  0  0  0  0
   36.0980   30.6310   31.8230 H   0  0  0  0  0  0  0  0  0  0  0  0
   33.8510   29.4930   34.3560 C   0  0  0  0  0  0  0  0  0  0  0  0
   35.1910   29.6940   34.1390 C   0  0  0  0  0  0  0  0  0  0  0  0
   35.7330   30.6840   34.9630 C   0  0  0  0  0  0  0  0  0  0  0  0
   35.0410   31.4070   35.9020 C   0  0  0  0  0  0  0  0  0  0  0  0
   35.3730   32.3730   36.7680 N   0  0  0  0  0  0  0  0  0  0  0  0
   34.2700   32.7210   37.4620 C   0  0  0  0  0  0  0  0  0  0  0  0
   33.1880   31.9690   37.0450 C   0  0  0  0  0  0  0  0  0  0  0  0
   33.7000   31.1460   36.0600 C   0  0  0  0  0  0  0  0  0  0  0  0
   33.0970   30.1810   35.2810 C   0  0  0  0  0  0  0  0  0  0  0  0
   33.3470   28.7360   33.7550 H   0  0  0  0  0  0  0  0  0  0  0  0
   36.7850   30.9310   34.8820 H   0  0  0  0  0  0  0  0  0  0  0  0
   36.3280   32.7670   36.8640 H   0  0  0  0  0  0  0  0  0  0  0  0
   34.3190   33.4990   38.2240 H   0  0  0  0  0  0  0  0  0  0  0  0
   32.1830   32.0470   37.4370 H   0  0  0  0  0  0  0  0  0  0  0  0
   32.0430   29.9850   35.4140 H   0  0  0  0  0  0  0  0  0  0  0  0
   37.7990   23.2720   32.4730 C   0  0  0  0  0  0  0  0  0  0  0  0
   37.4500   24.5570   32.0290 C   0  0  0  0  0  0  0  0  0  0  0  0
   37.4290   25.5930   32.9650 C   0  0  0  0  0  0  0  0  0  0  0  0
   37.7450   25.2970   34.2310 N   0  0  0  0  0  0  0  0  0  0  0  0
   38.0810   24.0560   34.6500 C   0  0  0  0  0  0  0  0  0  0  0  0
   38.1020   23.0580   33.7580 N   0  0  0  0  0  0  0  0  0  0  0  0
   37.7780   22.5620   31.6570 H   0  0  0  0  0  0  0  0  0  0  0  0
   37.1910   24.8010   30.9920 H   0  0  0  0  0  0  0  0  0  0  0  0
   40.7100   22.6550   35.0980 Cl  0  0  0  0  0  0  0  0  0  0  0  0
   39.6050   23.1640   36.3570 C   0  0  0  0  0  0  0  0  0  0  0  0
   38.4140   23.8050   36.0520 C   0  0  0  0  0  0  0  0  0  0  0  0
   37.5410   24.2090   37.0400 C   0  0  0  0  0  0  0  0  0  0  0  0
   36.5960   24.7150   36.8250 H   0  0  0  0  0  0  0  0  0  0  0  0
   37.9120   23.9420   38.3410 C   0  0  0  0  0  0  0  0  0  0  0  0
   37.2050   24.2700   39.1130 H   0  0  0  0  0  0  0  0  0  0  0  0
   39.0580   23.3190   38.7410 C   0  0  0  0  0  3  0  0  0  0  0  0
   39.9000   22.9370   37.6990 C   0  0  0  0  0  3  0  0  0  0  0  0
  1 27  1  0  0  0  0
  1  6  1  0  0  0  0
  2  1  2  0  0  0  0
  3  2  1  0  0  0  0
  3  4  2  0  0  0  0
  4  5  1  0  0  0  0
  5  6  2  0  0  0  0
  5 11  1  0  0  0  0
  7  2  1  0  0  0  0
  8  3  1  0  0  0  0
  9  4  1  0  0  0  0
 10 18  1  0  0  0  0
 11 10  2  0  0  0  0
 11 12  1  0  0  0  0
 12 13  2  0  0  0  0
 13 17  1  0  0  0  0
 13 14  1  0  0  0  0
 14 21  1  0  0  0  0
 14 15  1  0  0  0  0
 15 22  1  0  0  0  0
 16 23  1  0  0  0  0
 16 15  2  0  0  0  0
 17 16  1  0  0  0  0
 18 24  1  0  0  0  0
 18 17  2  0  0  0  0
 19 10  1  0  0  0  0
 20 12  1  0  0  0  0
 25 30  1  0  0  0  0
 26 25  2  0  0  0  0
 26 27  1  0  0  0  0
 27 28  2  0  0  0  0
 28 29  1  0  0  0  0
 29 35  1  0  0  0  0
 30 29  2  0  0  0  0
 31 25  1  0  0  0  0
 32 26  1  0  0  0  0
 33 34  1  0  0  0  0
 34 41  1  0  0  0  0
 35 34  2  0  0  0  0
 35 36  1  0  0  0  0
 36 38  2  0  0  0  0
 37 36  1  0  0  0  0
 38 40  1  0  0  0  0
 38 39  1  0  0  0  0
 41 40  2  0  0  0  0
M  END
>  <minimizedAffinity>
-7.48549414

$$$$

 OpenBabel03262522413D

 41 45  0  0  0  0  0  0  0  0999 V2000
   36.9380   27.1250   32.6520 C   0  0  0  0  0  0  0  0  0  0  0  0
   37.2320   27.7270   31.4480 C   0  0  0  0  0  0  0  0  0  0  0  0
   36.9450   29.0440   31.1660 C   0  0  0  0  0  0  0  0  0  0  0  0
   36.3370   29.8240   32.1100 C   0  0  0  0  0  0  0  0  0  0  0  0
   36.0510   29.2020   33.3070 C   0  0  0  0  0  0  0  0  0  0  0  0
   36.3380   27.9330   33.5540 N   0  0  0  0  0  0  0  0  0  0  0  0
   37.7140   27.1480   30.6730 H   0  0  0  0  0  0  0  0  0  0  0  0
   37.1880   29.5010   30.2050 H   0  0  0  0  0  0  0  0  0  0  0  0
   36.0920   30.8460   31.9470 H   0  0  0  0  0  0  0  0  0  0  0  0
   36.0410   30.8130   35.2300 C   0  0  0  0  0  0  0  0  0  0  0  0
   35.4040   29.9650   34.3590 C   0  0  0  0  0  0  0  0  0  0  0  0
   34.0260   29.8950   34.5770 C   0  0  0  0  0  0  0  0  0  0  0  0
   33.3370   30.5790   35.5460 C   0  0  0  0  0  0  0  0  0  0  0  0
   32.0470   30.6440   35.9040 N   0  0  0  0  0  0  0  0  0  0  0  0
   31.9380   31.4960   36.9450 C   0  0  0  0  0  0  0  0  0  0  0  0
   33.1790   32.0040   37.2780 C   0  0  0  0  0  0  0  0  0  0  0  0
   34.0460   31.4100   36.3800 C   0  0  0  0  0  0  0  0  0  0  0  0
   35.4110   31.5300   36.2240 C   0  0  0  0  0  0  0  0  0  0  0  0
   37.1210   30.9290   35.1310 H   0  0  0  0  0  0  0  0  0  0  0  0
   33.4170   29.2560   33.9490 H   0  0  0  0  0  0  0  0  0  0  0  0
   31.2860   30.1150   35.4410 H   0  0  0  0  0  0  0  0  0  0  0  0
   30.9650   31.6950   37.3960 H   0  0  0  0  0  0  0  0  0  0  0  0
   33.3730   32.7080   38.0750 H   0  0  0  0  0  0  0  0  0  0  0  0
   35.9580   32.1860   36.8850 H   0  0  0  0  0  0  0  0  0  0  0  0
   37.4520   23.4040   32.4260 C   0  0  0  0  0  0  0  0  0  0  0  0
   37.1390   24.7090   32.0170 C   0  0  0  0  0  0  0  0  0  0  0  0
   37.2360   25.7360   32.9580 C   0  0  0  0  0  0  0  0  0  0  0  0
   37.6250   25.4110   34.1970 N   0  0  0  0  0  0  0  0  0  0  0  0
   37.9250   24.1510   34.5830 C   0  0  0  0  0  0  0  0  0  0  0  0
   37.8330   23.1620   33.6860 N   0  0  0  0  0  0  0  0  0  0  0  0
   37.3380   22.7040   31.6090 H   0  0  0  0  0  0  0  0  0  0  0  0
   36.8200   24.9760   31.0010 H   0  0  0  0  0  0  0  0  0  0  0  0
   40.6420   22.8740   34.8480 Cl  0  0  0  0  0  0  0  0  0  0  0  0
   39.5780   23.2810   36.1780 C   0  0  0  0  0  0  0  0  0  0  0  0
   38.3430   23.8700   35.9560 C   0  0  0  0  0  0  0  0  0  0  0  0
   37.5030   24.1920   37.0010 C   0  0  0  0  0  0  0  0  0  0  0  0
   36.5240   24.6560   36.8520 H   0  0  0  0  0  0  0  0  0  0  0  0
   37.9530   23.9010   38.2710 C   0  0  0  0  0  0  0  0  0  0  0  0
   37.2710   24.1640   39.0890 H   0  0  0  0  0  0  0  0  0  0  0  0
   39.1480   23.3250   38.5900 C   0  0  0  0  0  3  0  0  0  0  0  0
   39.9530   23.0230   37.4940 C   0  0  0  0  0  3  0  0  0  0  0  0
  1 27  1  0  0  0  0
  1  6  1  0  0  0  0
  2  1  2  0  0  0  0
  3  2  1  0  0  0  0
  3  4  2  0  0  0  0
  4  5  1  0  0  0  0
  5  6  2  0  0  0  0
  5 11  1  0  0  0  0
  7  2  1  0  0  0  0
  8  3  1  0  0  0  0
  9  4  1  0  0  0  0
 10 18  1  0  0  0  0
 11 12  1  0  0  0  0
 11 10  2  0  0  0  0
 12 13  2  0  0  0  0
 13 14  1  0  0  0  0
 13 17  1  0  0  0  0
 14 15  1  0  0  0  0
 15 16  2  0  0  0  0
 15 22  1  0  0  0  0
 16 23  1  0  0  0  0
 17 16  1  0  0  0  0
 18 17  2  0  0  0  0
 18 24  1  0  0  0  0
 19 10  1  0  0  0  0
 20 12  1  0  0  0  0
 21 14  1  0  0  0  0
 25 30  1  0  0  0  0
 26 25  2  0  0  0  0
 26 27  1  0  0  0  0
 27 28  2  0  0  0  0
 28 29  1  0  0  0  0
 29 35  1  0  0  0  0
 30 29  2  0  0  0  0
 31 25  1  0  0  0  0
 32 26  1  0  0  0  0
 33 34  1  0  0  0  0
 34 41  1  0  0  0  0
 35 34  2  0  0  0  0
 35 36  1  0  0  0  0
 36 38  2  0  0  0  0
 37 36  1  0  0  0  0
 38 40  1  0  0  0  0
 38 39  1  0  0  0  0
 41 40  2  0  0  0  0
M  END
>  <minimizedAffinity>
-7.34108877

$$$$

 OpenBabel03262522413D

 41 45  0  0  0  0  0  0  0  0999 V2000
   36.6800   27.0140   32.3170 C   0  0  0  0  0  0  0  0  0  0  0  0
   36.4630   26.1880   31.2360 C   0  0  0  0  0  0  0  0  0  0  0  0
   36.7670   24.8440   31.2340 C   0  0  0  0  0  0  0  0  0  0  0  0
   37.3140   24.2690   32.3470 C   0  0  0  0  0  0  0  0  0  0  0  0
   37.5210   25.1140   33.4170 C   0  0  0  0  0  0  0  0  0  0  0  0
   37.2210   26.4040   33.3940 N   0  0  0  0  0  0  0  0  0  0  0  0
   36.0330   26.5990   30.3350 H   0  0  0  0  0  0  0  0  0  0  0  0
   36.5870   24.2070   30.3660 H   0  0  0  0  0  0  0  0  0  0  0  0
   37.5670   23.2370   32.4010 H   0  0  0  0  0  0  0  0  0  0  0  0
   37.7790   24.9770   35.9090 C   0  0  0  0  0  0  0  0  0  0  0  0
   38.0990   24.5770   34.6350 C   0  0  0  0  0  0  0  0  0  0  0  0
   39.0660   23.5680   34.6080 C   0  0  0  0  0  0  0  0  0  0  0  0
   39.6610   23.0060   35.7090 C   0  0  0  0  0  0  0  0  0  0  0  0
   40.5850   22.0520   35.8860 N   0  0  0  0  0  0  0  0  0  0  0  0
   40.7950   21.9030   37.2100 C   0  0  0  0  0  0  0  0  0  0  0  0
   39.9930   22.7750   37.9210 C   0  0  0  0  0  0  0  0  0  0  0  0
   39.2860   23.4620   36.9520 C   0  0  0  0  0  0  0  0  0  0  0  0
   38.3370   24.4560   37.0550 C   0  0  0  0  0  0  0  0  0  0  0  0
   37.0300   25.7620   36.0220 H   0  0  0  0  0  0  0  0  0  0  0  0
   39.3980   23.1720   33.6570 H   0  0  0  0  0  0  0  0  0  0  0  0
   41.0440   21.5350   35.1130 H   0  0  0  0  0  0  0  0  0  0  0  0
   41.5160   21.1720   37.5760 H   0  0  0  0  0  0  0  0  0  0  0  0
   39.9640   22.8620   38.9990 H   0  0  0  0  0  0  0  0  0  0  0  0
   38.0500   24.8050   38.0360 H   0  0  0  0  0  0  0  0  0  0  0  0
   36.2460   30.6290   31.3630 C   0  0  0  0  0  0  0  0  0  0  0  0
   36.5920   29.2750   31.2380 C   0  0  0  0  0  0  0  0  0  0  0  0
   36.3630   28.4330   32.3290 C   0  0  0  0  0  0  0  0  0  0  0  0
   35.8260   28.9710   33.4290 N   0  0  0  0  0  0  0  0  0  0  0  0
   35.4960   30.2770   33.5420 C   0  0  0  0  0  0  0  0  0  0  0  0
   35.7120   31.0890   32.5010 N   0  0  0  0  0  0  0  0  0  0  0  0
   36.4710   31.1720   30.4550 H   0  0  0  0  0  0  0  0  0  0  0  0
   37.0320   28.8320   30.3350 H   0  0  0  0  0  0  0  0  0  0  0  0
   32.5850   29.6110   33.9500 Cl  0  0  0  0  0  0  0  0  0  0  0  0
   33.5770   30.5410   35.0530 C   0  0  0  0  0  0  0  0  0  0  0  0
   34.9120   30.7960   34.7780 C   0  0  0  0  0  0  0  0  0  0  0  0
   35.6970   31.5280   35.6450 C   0  0  0  0  0  0  0  0  0  0  0  0
   36.7510   31.7430   35.4500 H   0  0  0  0  0  0  0  0  0  0  0  0
   35.0880   31.9910   36.7920 C   0  0  0  0  0  0  0  0  0  0  0  0
   35.7280   32.5710   37.4680 H   0  0  0  0  0  0  0  0  0  0  0  0
   33.7860   31.7930   37.1500 C   0  0  0  0  0  3  0  0  0  0  0  0
   33.0450   31.0470   36.2370 C   0  0  0  0  0  3  0  0  0  0  0  0
  1 27  1  0  0  0  0
  1  6  1  0  0  0  0
  2  1  2  0  0  0  0
  3  2  1  0  0  0  0
  3  4  2  0  0  0  0
  4  9  1  0  0  0  0
  4  5  1  0  0  0  0
  5 11  1  0  0  0  0
  6  5  2  0  0  0  0
  7  2  1  0  0  0  0
  8  3  1  0  0  0  0
 10 19  1  0  0  0  0
 10 18  1  0  0  0  0
 11 10  2  0  0  0  0
 12 11  1  0  0  0  0
 12 13  2  0  0  0  0
 13 14  1  0  0  0  0
 13 17  1  0  0  0  0
 14 15  1  0  0  0  0
 15 22  1  0  0  0  0
 15 16  2  0  0  0  0
 16 23  1  0  0  0  0
 17 18  2  0  0  0  0
 17 16  1  0  0  0  0
 18 24  1  0  0  0  0
 20 12  1  0  0  0  0
 21 14  1  0  0  0  0
 25 30  1  0  0  0  0
 26 25  2  0  0  0  0
 26 27  1  0  0  0  0
 27 28  2  0  0  0  0
 28 29  1  0  0  0  0
 29 35  1  0  0  0  0
 30 29  2  0  0  0  0
 31 25  1  0  0  0  0
 32 26  1  0  0  0  0
 33 34  1  0  0  0  0
 34 41  1  0  0  0  0
 35 34  2  0  0  0  0
 35 36  1  0  0  0  0
 36 38  2  0  0  0  0
 37 36  1  0  0  0  0
 38 40  1  0  0  0  0
 38 39  1  0  0  0  0
 41 40  2  0  0  0  0
M  END
>  <minimizedAffinity>
-7.17259264

$$$$

 OpenBabel03262522413D

 41 45  0  0  0  0  0  0  0  0999 V2000
   37.2250   27.1850   32.3300 C   0  0  0  0  0  0  0  0  0  0  0  0
   37.3610   27.7800   31.0960 C   0  0  0  0  0  0  0  0  0  0  0  0
   36.7920   28.9920   30.7690 C   0  0  0  0  0  0  0  0  0  0  0  0
   36.0480   29.6650   31.6970 C   0  0  0  0  0  0  0  0  0  0  0  0
   35.9250   29.0520   32.9250 C   0  0  0  0  0  0  0  0  0  0  0  0
   36.4820   27.8850   33.2150 N   0  0  0  0  0  0  0  0  0  0  0  0
   37.9410   27.2840   30.3310 H   0  0  0  0  0  0  0  0  0  0  0  0
   36.9140   29.4460   29.7840 H   0  0  0  0  0  0  0  0  0  0  0  0
   35.5870   30.6030   31.5000 H   0  0  0  0  0  0  0  0  0  0  0  0
   33.8250   29.4640   34.2350 C   0  0  0  0  0  0  0  0  0  0  0  0
   35.1490   29.7050   33.9630 C   0  0  0  0  0  0  0  0  0  0  0  0
   35.7100   30.6700   34.8040 C   0  0  0  0  0  0  0  0  0  0  0  0
   35.0500   31.3340   35.8060 C   0  0  0  0  0  0  0  0  0  0  0  0
   35.4040   32.2690   36.6980 N   0  0  0  0  0  0  0  0  0  0  0  0
   34.3290   32.5620   37.4590 C   0  0  0  0  0  0  0  0  0  0  0  0
   33.2440   31.8040   37.0610 C   0  0  0  0  0  0  0  0  0  0  0  0
   33.7240   31.0370   36.0160 C   0  0  0  0  0  0  0  0  0  0  0  0
   33.1030   30.0930   35.2250 C   0  0  0  0  0  0  0  0  0  0  0  0
   33.3080   28.7230   33.6250 H   0  0  0  0  0  0  0  0  0  0  0  0
   36.7510   30.9440   34.6830 H   0  0  0  0  0  0  0  0  0  0  0  0
   36.3540   32.6800   36.7660 H   0  0  0  0  0  0  0  0  0  0  0  0
   34.4000   33.3050   38.2520 H   0  0  0  0  0  0  0  0  0  0  0  0
   32.2580   31.8420   37.5040 H   0  0  0  0  0  0  0  0  0  0  0  0
   32.0620   29.8680   35.3990 H   0  0  0  0  0  0  0  0  0  0  0  0
   39.5930   24.4940   33.4790 C   0  0  0  0  0  0  0  0  0  0  0  0
   39.1240   25.7800   33.1690 C   0  0  0  0  0  0  0  0  0  0  0  0
   37.8200   25.9060   32.6840 C   0  0  0  0  0  0  0  0  0  0  0  0
   37.0960   24.7900   32.5440 N   0  0  0  0  0  0  0  0  0  0  0  0
   37.5550   23.5550   32.8450 C   0  0  0  0  0  0  0  0  0  0  0  0
   38.8040   23.4260   33.3100 N   0  0  0  0  0  0  0  0  0  0  0  0
   40.6110   24.5300   33.8420 H   0  0  0  0  0  0  0  0  0  0  0  0
   39.7170   26.6960   33.2830 H   0  0  0  0  0  0  0  0  0  0  0  0
   37.2840   21.8030   35.2820 Cl  0  0  0  0  0  0  0  0  0  0  0  0
   36.5220   21.5110   33.7330 C   0  0  0  0  0  0  0  0  0  0  0  0
   36.7060   22.3780   32.6660 C   0  0  0  0  0  0  0  0  0  0  0  0
   36.1070   22.1520   31.4450 C   0  0  0  0  0  0  0  0  0  0  0  0
   36.2370   22.8200   30.5890 H   0  0  0  0  0  0  0  0  0  0  0  0
   35.3200   21.0250   31.3400 C   0  0  0  0  0  0  0  0  0  0  0  0
   34.8520   20.8620   30.3610 H   0  0  0  0  0  0  0  0  0  0  0  0
   35.0780   20.1150   32.3280 C   0  0  0  0  0  3  0  0  0  0  0  0
   35.7090   20.3970   33.5380 C   0  0  0  0  0  3  0  0  0  0  0  0
  1 27  1  0  0  0  0
  1  6  1  0  0  0  0
  2  1  2  0  0  0  0
  3  2  1  0  0  0  0
  3  4  2  0  0  0  0
  4  5  1  0  0  0  0
  5  6  2  0  0  0  0
  5 11  1  0  0  0  0
  7  2  1  0  0  0  0
  8  3  1  0  0  0  0
  9  4  1  0  0  0  0
 10 18  1  0  0  0  0
 11 10  2  0  0  0  0
 11 12  1  0  0  0  0
 12 13  2  0  0  0  0
 13 17  1  0  0  0  0
 13 14  1  0  0  0  0
 14 21  1  0  0  0  0
 14 15  1  0  0  0  0
 15 22  1  0  0  0  0
 16 15  2  0  0  0  0
 16 23  1  0  0  0  0
 17 16  1  0  0  0  0
 18 24  1  0  0  0  0
 18 17  2  0  0  0  0
 19 10  1  0  0  0  0
 20 12  1  0  0  0  0
 25 31  1  0  0  0  0
 26 32  1  0  0  0  0
 26 25  2  0  0  0  0
 27 26  1  0  0  0  0
 28 27  2  0  0  0  0
 28 29  1  0  0  0  0
 29 30  2  0  0  0  0
 30 25  1  0  0  0  0
 34 33  1  0  0  0  0
 35 29  1  0  0  0  0
 35 34  2  0  0  0  0
 36 35  1  0  0  0  0
 37 36  1  0  0  0  0
 38 36  2  0  0  0  0
 38 40  1  0  0  0  0
 39 38  1  0  0  0  0
 40 41  2  0  0  0  0
 41 34  1  0  0  0  0
M  END
>  <minimizedAffinity>
-7.07831097

$$$$

 OpenBabel03262522413D

 41 45  0  0  0  0  0  0  0  0999 V2000
   37.3260   28.0390   32.3370 C   0  0  0  0  0  0  0  0  0  0  0  0
   38.1750   27.8010   31.2790 C   0  0  0  0  0  0  0  0  0  0  0  0
   39.1570   26.8360   31.2950 C   0  0  0  0  0  0  0  0  0  0  0  0
   39.3250   26.0550   32.4040 C   0  0  0  0  0  0  0  0  0  0  0  0
   38.4640   26.3090   33.4510 C   0  0  0  0  0  0  0  0  0  0  0  0
   37.5270   27.2450   33.4120 N   0  0  0  0  0  0  0  0  0  0  0  0
   38.0790   28.3950   30.3820 H   0  0  0  0  0  0  0  0  0  0  0  0
   39.8200   26.6630   30.4440 H   0  0  0  0  0  0  0  0  0  0  0  0
   40.0660   25.2950   32.4720 H   0  0  0  0  0  0  0  0  0  0  0  0
   37.7340   25.5950   35.7430 C   0  0  0  0  0  0  0  0  0  0  0  0
   38.5810   25.5210   34.6650 C   0  0  0  0  0  0  0  0  0  0  0  0
   39.6040   24.5860   34.8390 C   0  0  0  0  0  0  0  0  0  0  0  0
   39.7860   23.8030   35.9500 C   0  0  0  0  0  0  0  0  0  0  0  0
   40.6830   22.8700   36.2990 N   0  0  0  0  0  0  0  0  0  0  0  0
   40.3720   22.4200   37.5310 C   0  0  0  0  0  0  0  0  0  0  0  0
   39.2460   23.0670   38.0050 C   0  0  0  0  0  0  0  0  0  0  0  0
   38.8950   23.9350   36.9890 C   0  0  0  0  0  0  0  0  0  0  0  0
   37.8590   24.8390   36.8870 C   0  0  0  0  0  0  0  0  0  0  0  0
   36.9050   26.3010   35.6910 H   0  0  0  0  0  0  0  0  0  0  0  0
   40.3340   24.4400   34.0520 H   0  0  0  0  0  0  0  0  0  0  0  0
   41.4740   22.5690   35.6990 H   0  0  0  0  0  0  0  0  0  0  0  0
   40.9800   21.6510   38.0080 H   0  0  0  0  0  0  0  0  0  0  0  0
   38.7840   22.8940   38.9670 H   0  0  0  0  0  0  0  0  0  0  0  0
   37.1650   24.9340   37.7090 H   0  0  0  0  0  0  0  0  0  0  0  0
   34.8620   30.6820   31.2860 C   0  0  0  0  0  0  0  0  0  0  0  0
   35.8750   29.7180   31.1720 C   0  0  0  0  0  0  0  0  0  0  0  0
   36.2870   29.0560   32.3310 C   0  0  0  0  0  0  0  0  0  0  0  0
   35.6880   29.3830   33.4810 N   0  0  0  0  0  0  0  0  0  0  0  0
   34.7120   30.3130   33.5820 C   0  0  0  0  0  0  0  0  0  0  0  0
   34.3130   30.9510   32.4760 N   0  0  0  0  0  0  0  0  0  0  0  0
   34.6340   31.1210   30.3230 H   0  0  0  0  0  0  0  0  0  0  0  0
   36.3670   29.4500   30.2290 H   0  0  0  0  0  0  0  0  0  0  0  0
   36.2000   32.3430   35.2390 Cl  0  0  0  0  0  0  0  0  0  0  0  0
   34.7160   31.5410   35.7090 C   0  0  0  0  0  0  0  0  0  0  0  0
   34.1020   30.6190   34.8760 C   0  0  0  0  0  0  0  0  0  0  0  0
   32.9330   29.9860   35.2420 C   0  0  0  0  0  0  0  0  0  0  0  0
   32.4310   29.2540   34.6040 H   0  0  0  0  0  0  0  0  0  0  0  0
   32.4100   30.3170   36.4740 C   0  0  0  0  0  0  0  0  0  0  0  0
   31.4800   29.8030   36.7480 H   0  0  0  0  0  0  0  0  0  0  0  0
   32.9370   31.2090   37.3610 C   0  0  0  0  0  3  0  0  0  0  0  0
   34.1160   31.8160   36.9350 C   0  0  0  0  0  3  0  0  0  0  0  0
  1  6  1  0  0  0  0
  2  3  1  0  0  0  0
  2  1  2  0  0  0  0
  3  4  2  0  0  0  0
  4  9  1  0  0  0  0
  4  5  1  0  0  0  0
  5 11  1  0  0  0  0
  6  5  2  0  0  0  0
  7  2  1  0  0  0  0
  8  3  1  0  0  0  0
 10 18  1  0  0  0  0
 11 12  1  0  0  0  0
 11 10  2  0  0  0  0
 12 13  2  0  0  0  0
 13 14  1  0  0  0  0
 13 17  1  0  0  0  0
 14 15  1  0  0  0  0
 15 16  2  0  0  0  0
 15 22  1  0  0  0  0
 16 23  1  0  0  0  0
 17 16  1  0  0  0  0
 18 17  2  0  0  0  0
 18 24  1  0  0  0  0
 19 10  1  0  0  0  0
 20 12  1  0  0  0  0
 21 14  1  0  0  0  0
 25 30  1  0  0  0  0
 26 25  2  0  0  0  0
 26 27  1  0  0  0  0
 27  1  1  0  0  0  0
 27 28  2  0  0  0  0
 28 29  1  0  0  0  0
 29 35  1  0  0  0  0
 30 29  2  0  0  0  0
 31 25  1  0  0  0  0
 32 26  1  0  0  0  0
 33 34  1  0  0  0  0
 34 41  1  0  0  0  0
 35 36  1  0  0  0  0
 35 34  2  0  0  0  0
 36 38  2  0  0  0  0
 37 36  1  0  0  0  0
 38 39  1  0  0  0  0
 38 40  1  0  0  0  0
 41 40  2  0  0  0  0
M  END
>  <minimizedAffinity>
-7.05933619

$$$$

 OpenBabel03262522413D

 41 45  0  0  0  0  0  0  0  0999 V2000
   37.4170   26.7270   33.6050 C   0  0  0  0  0  0  0  0  0  0  0  0
   38.3940   26.6130   34.5690 C   0  0  0  0  0  0  0  0  0  0  0  0
   38.9980   25.4210   34.9020 C   0  0  0  0  0  0  0  0  0  0  0  0
   38.6330   24.2710   34.2600 C   0  0  0  0  0  0  0  0  0  0  0  0
   37.6540   24.4070   33.2990 C   0  0  0  0  0  0  0  0  0  0  0  0
   37.0870   25.5660   32.9970 N   0  0  0  0  0  0  0  0  0  0  0  0
   38.7150   27.4960   35.1030 H   0  0  0  0  0  0  0  0  0  0  0  0
   39.7720   25.3530   35.6700 H   0  0  0  0  0  0  0  0  0  0  0  0
   39.0660   23.3230   34.4760 H   0  0  0  0  0  0  0  0  0  0  0  0
   36.0820   23.1550   31.7970 C   0  0  0  0  0  0  0  0  0  0  0  0
   37.2110   23.2310   32.5730 C   0  0  0  0  0  0  0  0  0  0  0  0
   37.9290   22.0320   32.6080 C   0  0  0  0  0  0  0  0  0  0  0  0
   37.5820   20.8770   31.9550 C   0  0  0  0  0  0  0  0  0  0  0  0
   38.1260   19.6550   31.8650 N   0  0  0  0  0  0  0  0  0  0  0  0
   37.3440   18.8990   31.0680 C   0  0  0  0  0  0  0  0  0  0  0  0
   36.2630   19.6360   30.6230 C   0  0  0  0  0  0  0  0  0  0  0  0
   36.4350   20.8810   31.1960 C   0  0  0  0  0  0  0  0  0  0  0  0
   35.6770   22.0300   31.1140 C   0  0  0  0  0  0  0  0  0  0  0  0
   35.4620   24.0480   31.7130 H   0  0  0  0  0  0  0  0  0  0  0  0
   38.8400   21.9720   33.1910 H   0  0  0  0  0  0  0  0  0  0  0  0
   39.0020   19.3710   32.3420 H   0  0  0  0  0  0  0  0  0  0  0  0
   37.6060   17.8610   30.8620 H   0  0  0  0  0  0  0  0  0  0  0  0
   35.4820   19.2690   29.9700 H   0  0  0  0  0  0  0  0  0  0  0  0
   34.7780   22.0210   30.5150 H   0  0  0  0  0  0  0  0  0  0  0  0
   36.0980   29.7030   31.7170 C   0  0  0  0  0  0  0  0  0  0  0  0
   36.7520   28.4830   31.9450 C   0  0  0  0  0  0  0  0  0  0  0  0
   36.7720   27.9800   33.2480 C   0  0  0  0  0  0  0  0  0  0  0  0
   36.1660   28.6950   34.2020 N   0  0  0  0  0  0  0  0  0  0  0  0
   35.5380   29.8710   33.9740 C   0  0  0  0  0  0  0  0  0  0  0  0
   35.5150   30.3590   32.7280 N   0  0  0  0  0  0  0  0  0  0  0  0
   36.1520   29.9830   30.6730 H   0  0  0  0  0  0  0  0  0  0  0  0
   37.2490   27.8950   31.1630 H   0  0  0  0  0  0  0  0  0  0  0  0
   32.5950   29.3190   34.3110 Cl  0  0  0  0  0  0  0  0  0  0  0  0
   33.5420   30.4110   35.2990 C   0  0  0  0  0  0  0  0  0  0  0  0
   34.8960   30.5990   35.0670 C   0  0  0  0  0  0  0  0  0  0  0  0
   35.6460   31.4580   35.8440 C   0  0  0  0  0  0  0  0  0  0  0  0
   36.7140   31.6240   35.6800 H   0  0  0  0  0  0  0  0  0  0  0  0
   34.9820   32.1160   36.8570 C   0  0  0  0  0  0  0  0  0  0  0  0
   35.5950   32.7950   37.4630 H   0  0  0  0  0  0  0  0  0  0  0  0
   33.6580   31.9980   37.1640 C   0  0  0  0  0  3  0  0  0  0  0  0
   32.9540   31.1170   36.3470 C   0  0  0  0  0  3  0  0  0  0  0  0
  1  2  1  0  0  0  0
  2  3  2  0  0  0  0
  2  7  1  0  0  0  0
  3  8  1  0  0  0  0
  4  9  1  0  0  0  0
  4  3  1  0  0  0  0
  5  4  2  0  0  0  0
  6  5  1  0  0  0  0
  6  1  2  0  0  0  0
 10 11  1  0  0  0  0
 11 12  2  0  0  0  0
 11  5  1  0  0  0  0
 12 20  1  0  0  0  0
 13 12  1  0  0  0  0
 14 13  1  0  0  0  0
 14 21  1  0  0  0  0
 15 14  1  0  0  0  0
 16 15  2  0  0  0  0
 16 17  1  0  0  0  0
 17 13  2  0  0  0  0
 18 17  1  0  0  0  0
 18 10  2  0  0  0  0
 19 10  1  0  0  0  0
 22 15  1  0  0  0  0
 23 16  1  0  0  0  0
 24 18  1  0  0  0  0
 25 26  2  0  0  0  0
 25 30  1  0  0  0  0
 26 27  1  0  0  0  0
 27  1  1  0  0  0  0
 27 28  2  0  0  0  0
 29 28  1  0  0  0  0
 29 35  1  0  0  0  0
 30 29  2  0  0  0  0
 31 25  1  0  0  0  0
 32 26  1  0  0  0  0
 33 34  1  0  0  0  0
 34 41  1  0  0  0  0
 35 34  2  0  0  0  0
 35 36  1  0  0  0  0
 36 38  2  0  0  0  0
 37 36  1  0  0  0  0
 38 40  1  0  0  0  0
 38 39  1  0  0  0  0
 41 40  2  0  0  0  0
M  END
>  <minimizedAffinity>
-6.97965431

$$$$

 OpenBabel03262522413D

 41 45  0  0  0  0  0  0  0  0999 V2000
   37.2830   27.1040   33.4940 C   0  0  0  0  0  0  0  0  0  0  0  0
   38.3870   27.0750   34.3180 C   0  0  0  0  0  0  0  0  0  0  0  0
   39.1160   25.9340   34.5710 C   0  0  0  0  0  0  0  0  0  0  0  0
   38.7540   24.7520   33.9900 C   0  0  0  0  0  0  0  0  0  0  0  0
   37.6470   24.8030   33.1690 C   0  0  0  0  0  0  0  0  0  0  0  0
   36.9610   25.9130   32.9420 N   0  0  0  0  0  0  0  0  0  0  0  0
   38.7100   27.9860   34.7990 H   0  0  0  0  0  0  0  0  0  0  0  0
   39.9890   25.9340   35.2270 H   0  0  0  0  0  0  0  0  0  0  0  0
   39.2810   23.8420   34.1490 H   0  0  0  0  0  0  0  0  0  0  0  0
   36.0790   23.4750   31.7300 C   0  0  0  0  0  0  0  0  0  0  0  0
   37.1990   23.5870   32.5160 C   0  0  0  0  0  0  0  0  0  0  0  0
   37.9010   22.3850   32.6380 C   0  0  0  0  0  0  0  0  0  0  0  0
   37.5480   21.1940   32.0560 C   0  0  0  0  0  0  0  0  0  0  0  0
   38.0770   19.9630   32.0530 N   0  0  0  0  0  0  0  0  0  0  0  0
   37.2960   19.1650   31.2970 C   0  0  0  0  0  0  0  0  0  0  0  0
   36.2300   19.8840   30.7890 C   0  0  0  0  0  0  0  0  0  0  0  0
   36.4110   21.1620   31.2830 C   0  0  0  0  0  0  0  0  0  0  0  0
   35.6680   22.3120   31.1170 C   0  0  0  0  0  0  0  0  0  0  0  0
   35.4710   24.3680   31.5810 H   0  0  0  0  0  0  0  0  0  0  0  0
   38.8040   22.3520   33.2350 H   0  0  0  0  0  0  0  0  0  0  0  0
   38.9430   19.7000   32.5590 H   0  0  0  0  0  0  0  0  0  0  0  0
   37.5470   18.1130   31.1620 H   0  0  0  0  0  0  0  0  0  0  0  0
   35.4530   19.4850   30.1520 H   0  0  0  0  0  0  0  0  0  0  0  0
   34.7770   22.2750   30.5070 H   0  0  0  0  0  0  0  0  0  0  0  0
   35.7090   30.0900   31.8310 C   0  0  0  0  0  0  0  0  0  0  0  0
   36.4990   28.9400   31.9790 C   0  0  0  0  0  0  0  0  0  0  0  0
   36.5050   28.3010   33.2210 C   0  0  0  0  0  0  0  0  0  0  0  0
   35.7550   28.8270   34.1970 N   0  0  0  0  0  0  0  0  0  0  0  0
   34.9970   29.9350   34.0450 C   0  0  0  0  0  0  0  0  0  0  0  0
   34.9860   30.5530   32.8580 N   0  0  0  0  0  0  0  0  0  0  0  0
   35.7900   30.4890   30.8290 H   0  0  0  0  0  0  0  0  0  0  0  0
   37.1140   28.5080   31.1800 H   0  0  0  0  0  0  0  0  0  0  0  0
   36.3650   32.0420   35.7100 Cl  0  0  0  0  0  0  0  0  0  0  0  0
   34.7480   31.4270   35.9810 C   0  0  0  0  0  0  0  0  0  0  0  0
   34.2010   30.4540   35.1580 C   0  0  0  0  0  0  0  0  0  0  0  0
   32.9280   29.9670   35.3680 C   0  0  0  0  0  0  0  0  0  0  0  0
   32.4760   29.2000   34.7330 H   0  0  0  0  0  0  0  0  0  0  0  0
   32.2310   30.4960   36.4330 C   0  0  0  0  0  0  0  0  0  0  0  0
   31.2200   30.0960   36.5830 H   0  0  0  0  0  0  0  0  0  0  0  0
   32.6800   31.4520   37.2960 C   0  0  0  0  0  3  0  0  0  0  0  0
   33.9710   31.9050   37.0340 C   0  0  0  0  0  3  0  0  0  0  0  0
  1  2  1  0  0  0  0
  2  3  2  0  0  0  0
  2  7  1  0  0  0  0
  3  8  1  0  0  0  0
  4  9  1  0  0  0  0
  4  3  1  0  0  0  0
  5  4  2  0  0  0  0
  6  5  1  0  0  0  0
  6  1  2  0  0  0  0
 10 11  1  0  0  0  0
 11 12  2  0  0  0  0
 11  5  1  0  0  0  0
 12 20  1  0  0  0  0
 13 12  1  0  0  0  0
 14 13  1  0  0  0  0
 14 21  1  0  0  0  0
 15 14  1  0  0  0  0
 16 17  1  0  0  0  0
 16 15  2  0  0  0  0
 17 13  2  0  0  0  0
 18 17  1  0  0  0  0
 18 10  2  0  0  0  0
 19 10  1  0  0  0  0
 22 15  1  0  0  0  0
 23 16  1  0  0  0  0
 24 18  1  0  0  0  0
 25 26  2  0  0  0  0
 25 30  1  0  0  0  0
 26 27  1  0  0  0  0
 27  1  1  0  0  0  0
 27 28  2  0  0  0  0
 29 28  1  0  0  0  0
 29 35  1  0  0  0  0
 30 29  2  0  0  0  0
 31 25  1  0  0  0  0
 32 26  1  0  0  0  0
 33 34  1  0  0  0  0
 34 41  1  0  0  0  0
 35 36  1  0  0  0  0
 35 34  2  0  0  0  0
 36 38  2  0  0  0  0
 37 36  1  0  0  0  0
 38 39  1  0  0  0  0
 38 40  1  0  0  0  0
 41 40  2  0  0  0  0
M  END
>  <minimizedAffinity>
-6.9159441

$$$$

 OpenBabel03262522413D

 41 45  0  0  0  0  0  0  0  0999 V2000
   36.9480   27.1410   32.9570 C   0  0  0  0  0  0  0  0  0  0  0  0
   37.0620   27.6020   31.6640 C   0  0  0  0  0  0  0  0  0  0  0  0
   36.6220   28.8420   31.2570 C   0  0  0  0  0  0  0  0  0  0  0  0
   36.0380   29.6860   32.1600 C   0  0  0  0  0  0  0  0  0  0  0  0
   35.9340   29.2060   33.4480 C   0  0  0  0  0  0  0  0  0  0  0  0
   36.3650   28.0080   33.8150 N   0  0  0  0  0  0  0  0  0  0  0  0
   37.5170   26.9690   30.9160 H   0  0  0  0  0  0  0  0  0  0  0  0
   36.7230   29.1880   30.2260 H   0  0  0  0  0  0  0  0  0  0  0  0
   35.6810   30.6550   31.9020 H   0  0  0  0  0  0  0  0  0  0  0  0
   36.0040   30.8690   35.3250 C   0  0  0  0  0  0  0  0  0  0  0  0
   35.3240   30.0440   34.4640 C   0  0  0  0  0  0  0  0  0  0  0  0
   33.9400   30.0790   34.6550 C   0  0  0  0  0  0  0  0  0  0  0  0
   33.2840   30.8400   35.5890 C   0  0  0  0  0  0  0  0  0  0  0  0
   31.9960   31.0080   35.9190 N   0  0  0  0  0  0  0  0  0  0  0  0
   31.9290   31.8960   36.9320 C   0  0  0  0  0  0  0  0  0  0  0  0
   33.1970   32.3230   37.2770 C   0  0  0  0  0  0  0  0  0  0  0  0
   34.0360   31.6420   36.4150 C   0  0  0  0  0  0  0  0  0  0  0  0
   35.4090   31.6590   36.2840 C   0  0  0  0  0  0  0  0  0  0  0  0
   37.0910   30.9040   35.2450 H   0  0  0  0  0  0  0  0  0  0  0  0
   33.2990   29.4670   34.0320 H   0  0  0  0  0  0  0  0  0  0  0  0
   31.2080   30.5220   35.4540 H   0  0  0  0  0  0  0  0  0  0  0  0
   30.9660   32.1770   37.3570 H   0  0  0  0  0  0  0  0  0  0  0  0
   33.4270   33.0350   38.0580 H   0  0  0  0  0  0  0  0  0  0  0  0
   35.9890   32.2930   36.9380 H   0  0  0  0  0  0  0  0  0  0  0  0
   38.5720   24.3340   34.8670 C   0  0  0  0  0  0  0  0  0  0  0  0
   38.1860   25.6440   34.5400 C   0  0  0  0  0  0  0  0  0  0  0  0
   37.4080   25.8340   33.3960 C   0  0  0  0  0  0  0  0  0  0  0  0
   37.0760   24.7530   32.6800 N   0  0  0  0  0  0  0  0  0  0  0  0
   37.4510   23.4960   33.0030 C   0  0  0  0  0  0  0  0  0  0  0  0
   38.1980   23.3060   34.0970 N   0  0  0  0  0  0  0  0  0  0  0  0
   39.1690   24.3210   35.7690 H   0  0  0  0  0  0  0  0  0  0  0  0
   38.4580   26.5300   35.1250 H   0  0  0  0  0  0  0  0  0  0  0  0
   39.5400   22.5590   31.0430 Cl  0  0  0  0  0  0  0  0  0  0  0  0
   37.9470   21.8590   31.2400 C   0  0  0  0  0  0  0  0  0  0  0  0
   37.0510   22.3600   32.1720 C   0  0  0  0  0  0  0  0  0  0  0  0
   35.7960   21.8120   32.3300 C   0  0  0  0  0  0  0  0  0  0  0  0
   35.0720   22.1890   33.0570 H   0  0  0  0  0  0  0  0  0  0  0  0
   35.4790   20.7450   31.5170 C   0  0  0  0  0  0  0  0  0  0  0  0
   34.4770   20.3220   31.6570 H   0  0  0  0  0  0  0  0  0  0  0  0
   36.2890   20.1810   30.5730 C   0  0  0  0  0  3  0  0  0  0  0  0
   37.5420   20.7770   30.4610 C   0  0  0  0  0  3  0  0  0  0  0  0
  1 27  1  0  0  0  0
  1  6  1  0  0  0  0
  2  1  2  0  0  0  0
  3  2  1  0  0  0  0
  3  4  2  0  0  0  0
  4  5  1  0  0  0  0
  5  6  2  0  0  0  0
  5 11  1  0  0  0  0
  7  2  1  0  0  0  0
  8  3  1  0  0  0  0
  9  4  1  0  0  0  0
 10 18  1  0  0  0  0
 11 12  1  0  0  0  0
 11 10  2  0  0  0  0
 12 13  2  0  0  0  0
 13 14  1  0  0  0  0
 13 17  1  0  0  0  0
 14 15  1  0  0  0  0
 15 16  2  0  0  0  0
 15 22  1  0  0  0  0
 16 23  1  0  0  0  0
 17 16  1  0  0  0  0
 18 17  2  0  0  0  0
 18 24  1  0  0  0  0
 19 10  1  0  0  0  0
 20 12  1  0  0  0  0
 21 14  1  0  0  0  0
 25 31  1  0  0  0  0
 26 25  1  0  0  0  0
 26 32  1  0  0  0  0
 27 26  2  0  0  0  0
 28 29  2  0  0  0  0
 28 27  1  0  0  0  0
 29 30  1  0  0  0  0
 30 25  2  0  0  0  0
 33 34  1  0  0  0  0
 34 35  1  0  0  0  0
 35 36  2  0  0  0  0
 35 29  1  0  0  0  0
 36 37  1  0  0  0  0
 38 39  1  0  0  0  0
 38 36  1  0  0  0  0
 40 38  2  0  0  0  0
 41 40  1  0  0  0  0
 41 34  2  0  0  0  0
M  END
>  <minimizedAffinity>
-6.81037712

$$$$

 OpenBabel03262522413D

 41 45  0  0  0  0  0  0  0  0999 V2000
   36.5390   27.3040   32.1150 C   0  0  0  0  0  0  0  0  0  0  0  0
   36.8380   27.9850   30.9560 C   0  0  0  0  0  0  0  0  0  0  0  0
   36.6440   29.3400   30.7980 C   0  0  0  0  0  0  0  0  0  0  0  0
   36.1290   30.0770   31.8270 C   0  0  0  0  0  0  0  0  0  0  0  0
   35.8370   29.3760   32.9780 C   0  0  0  0  0  0  0  0  0  0  0  0
   36.0330   28.0720   33.1050 N   0  0  0  0  0  0  0  0  0  0  0  0
   37.2470   27.4430   30.1160 H   0  0  0  0  0  0  0  0  0  0  0  0
   36.8890   29.8600   29.8690 H   0  0  0  0  0  0  0  0  0  0  0  0
   35.9600   31.1250   31.7610 H   0  0  0  0  0  0  0  0  0  0  0  0
   36.0100   30.8420   35.0070 C   0  0  0  0  0  0  0  0  0  0  0  0
   35.2860   30.0900   34.1160 C   0  0  0  0  0  0  0  0  0  0  0  0
   33.9190   30.0690   34.4050 C   0  0  0  0  0  0  0  0  0  0  0  0
   33.3180   30.7130   35.4560 C   0  0  0  0  0  0  0  0  0  0  0  0
   32.0540   30.8130   35.8910 N   0  0  0  0  0  0  0  0  0  0  0  0
   32.0430   31.5910   36.9930 C   0  0  0  0  0  0  0  0  0  0  0  0
   33.3250   32.0140   37.2900 C   0  0  0  0  0  0  0  0  0  0  0  0
   34.1120   31.4470   36.3060 C   0  0  0  0  0  0  0  0  0  0  0  0
   35.4710   31.5130   36.0820 C   0  0  0  0  0  0  0  0  0  0  0  0
   37.0880   30.9130   34.8550 H   0  0  0  0  0  0  0  0  0  0  0  0
   33.2470   29.5070   33.7690 H   0  0  0  0  0  0  0  0  0  0  0  0
   31.2440   30.3550   35.4350 H   0  0  0  0  0  0  0  0  0  0  0  0
   31.1080   31.8020   37.5100 H   0  0  0  0  0  0  0  0  0  0  0  0
   33.5970   32.6490   38.1230 H   0  0  0  0  0  0  0  0  0  0  0  0
   36.0850   32.0930   36.7560 H   0  0  0  0  0  0  0  0  0  0  0  0
   36.4140   23.5630   31.7290 C   0  0  0  0  0  0  0  0  0  0  0  0
   36.1490   24.9150   31.4650 C   0  0  0  0  0  0  0  0  0  0  0  0
   36.7390   25.8750   32.2910 C   0  0  0  0  0  0  0  0  0  0  0  0
   37.5230   25.4450   33.2860 N   0  0  0  0  0  0  0  0  0  0  0  0
   37.7730   24.1400   33.5340 C   0  0  0  0  0  0  0  0  0  0  0  0
   37.2110   23.2140   32.7470 N   0  0  0  0  0  0  0  0  0  0  0  0
   35.9020   22.9220   31.0230 H   0  0  0  0  0  0  0  0  0  0  0  0
   35.5070   25.2690   30.6490 H   0  0  0  0  0  0  0  0  0  0  0  0
   40.6980   23.9230   32.8410 Cl  0  0  0  0  0  0  0  0  0  0  0  0
   40.0030   23.6150   34.4180 C   0  0  0  0  0  0  0  0  0  0  0  0
   38.6410   23.7430   34.6420 C   0  0  0  0  0  0  0  0  0  0  0  0
   38.0900   23.5020   35.8830 C   0  0  0  0  0  0  0  0  0  0  0  0
   37.0200   23.5950   36.0840 H   0  0  0  0  0  0  0  0  0  0  0  0
   38.9610   23.1300   36.8850 C   0  0  0  0  0  0  0  0  0  0  0  0
   38.5040   22.9430   37.8650 H   0  0  0  0  0  0  0  0  0  0  0  0
   40.3120   22.9780   36.7650 C   0  0  0  0  0  3  0  0  0  0  0  0
   40.8090   23.2360   35.4900 C   0  0  0  0  0  3  0  0  0  0  0  0
  1 27  1  0  0  0  0
  1  6  1  0  0  0  0
  2  1  2  0  0  0  0
  3  2  1  0  0  0  0
  3  4  2  0  0  0  0
  4  5  1  0  0  0  0
  5  6  2  0  0  0  0
  5 11  1  0  0  0  0
  7  2  1  0  0  0  0
  8  3  1  0  0  0  0
  9  4  1  0  0  0  0
 10 18  1  0  0  0  0
 11 12  1  0  0  0  0
 11 10  2  0  0  0  0
 12 13  2  0  0  0  0
 13 14  1  0  0  0  0
 13 17  1  0  0  0  0
 14 15  1  0  0  0  0
 15 16  2  0  0  0  0
 15 22  1  0  0  0  0
 16 23  1  0  0  0  0
 17 16  1  0  0  0  0
 18 17  2  0  0  0  0
 18 24  1  0  0  0  0
 19 10  1  0  0  0  0
 20 12  1  0  0  0  0
 21 14  1  0  0  0  0
 25 30  1  0  0  0  0
 26 25  2  0  0  0  0
 26 27  1  0  0  0  0
 27 28  2  0  0  0  0
 28 29  1  0  0  0  0
 29 35  1  0  0  0  0
 30 29  2  0  0  0  0
 31 25  1  0  0  0  0
 32 26  1  0  0  0  0
 33 34  1  0  0  0  0
 34 35  2  0  0  0  0
 34 41  1  0  0  0  0
 35 36  1  0  0  0  0
 36 37  1  0  0  0  0
 36 38  2  0  0  0  0
 38 39  1  0  0  0  0
 40 38  1  0  0  0  0
 41 40  2  0  0  0  0
M  END
>  <minimizedAffinity>
-6.71888208

$$$$
