
 OpenBabel03272510013D

 21 22  0  0  0  0  0  0  0  0999 V2000
   38.3110   31.1360   50.3350 C   0  0  0  0  0  0  0  0  0  0  0  0
   38.4320   31.4140   48.9530 C   0  0  0  0  0  0  0  0  0  0  0  0
   37.4190   30.9900   48.1090 C   0  0  0  0  0  0  0  0  0  0  0  0
   36.3760   30.3320   48.6800 N   0  0  0  0  0  0  0  0  0  0  0  0
   36.2810   30.0790   49.9860 C   0  0  0  0  0  0  0  0  0  0  0  0
   37.2470   30.4820   50.8030 N   0  0  0  0  0  0  0  0  0  0  0  0
   39.0820   31.4510   51.0270 H   0  0  0  0  0  0  0  0  0  0  0  0
   39.2770   31.9360   48.5610 H   0  0  0  0  0  0  0  0  0  0  0  0
   39.4300   33.0330   47.0980 Cl  0  0  0  0  0  0  0  0  0  0  0  0
   38.3050   32.1220   46.1300 C   0  0  0  0  0  0  0  0  0  0  0  0
   37.4300   31.2170   46.6710 C   0  0  0  0  0  0  0  0  0  0  0  0
   36.5980   30.5700   45.7840 C   0  0  0  0  0  0  0  0  0  0  0  0
   35.8850   29.8450   46.1490 H   0  0  0  0  0  0  0  0  0  0  0  0
   36.6300   30.8040   44.4260 C   0  0  0  0  0  0  0  0  0  0  0  0
   35.9530   30.2680   43.7660 H   0  0  0  0  0  0  0  0  0  0  0  0
   37.5160   31.7180   43.8910 C   0  0  0  0  0  3  0  0  0  0  0  0
   38.3730   32.3910   44.7650 C   0  0  0  0  0  3  0  0  0  0  0  0
   35.0880   29.3480   50.4580 C   0  0  0  0  0  0  0  0  0  0  0  0
   35.1370   29.0690   51.8210 F   0  0  0  0  0  0  0  0  0  0  0  0
   33.9280   30.0740   50.2570 F   0  0  0  0  0  0  0  0  0  0  0  0
   34.8940   28.1370   49.8160 F   0  0  0  0  0  0  0  0  0  0  0  0
  1  6  1  0  0  0  0
  1  7  1  0  0  0  0
  2  1  2  0  0  0  0
  3  4  2  0  0  0  0
  3  2  1  0  0  0  0
  4  5  1  0  0  0  0
  5 18  1  0  0  0  0
  5  6  2  0  0  0  0
  8  2  1  0  0  0  0
 10 11  1  0  0  0  0
 10  9  1  0  0  0  0
 11  3  1  0  0  0  0
 12 13  1  0  0  0  0
 12 11  2  0  0  0  0
 14 12  1  0  0  0  0
 15 14  1  0  0  0  0
 16 14  2  0  0  0  0
 16 17  1  0  0  0  0
 17 10  2  0  0  0  0
 18 19  1  0  0  0  0
 20 18  1  0  0  0  0
 21 18  1  0  0  0  0
M  END
>  <minimizedAffinity>
-5.7720418

>  <minimizedRMSD>
0.459898114

$$$$
