
 OpenBabel03272508353D

 31 33  0  0  0  0  0  0  0  0999 V2000
   36.1910   23.3630   31.2670 C   0  0  0  0  0  0  0  0  0  0  0  0
   35.1710   24.2650   31.2220 C   0  0  0  0  0  0  0  0  0  0  0  0
   35.6960   25.5410   31.1070 C   0  0  0  0  0  0  0  0  0  0  0  0
   37.0370   25.3770   31.0840 N   0  0  0  0  0  0  0  0  0  0  0  0
   37.3150   24.0790   31.1800 N   0  0  0  0  0  0  0  0  0  0  0  0
   34.0880   24.0900   31.2650 H   0  0  0  0  0  0  0  0  0  0  0  0
   35.1280   26.4490   31.0500 H   0  0  0  0  0  0  0  0  0  0  0  0
   34.8260   19.9860   32.2180 C   0  0  0  0  0  0  0  0  0  0  0  0
   34.9660   21.3690   32.1590 C   0  0  0  0  0  0  0  0  0  0  0  0
   35.9790   21.9420   31.3840 C   0  0  0  0  0  0  0  0  0  0  0  0
   36.7820   21.0760   30.7210 N   0  0  0  0  0  0  0  0  0  0  0  0
   36.6250   19.7390   30.7950 C   0  0  0  0  0  0  0  0  0  0  0  0
   35.6540   19.2020   31.5380 N   0  0  0  0  0  0  0  0  0  0  0  0
   33.9980   19.6690   32.8580 H   0  0  0  0  0  0  0  0  0  0  0  0
   34.3340   22.0970   32.6820 H   0  0  0  0  0  0  0  0  0  0  0  0
   37.2790   19.0790   30.2580 H   0  0  0  0  0  0  0  0  0  0  0  0
   37.9680   26.4900   30.9650 C   0  0  0  0  0  0  0  0  0  0  0  0
   38.9110   26.1580   31.4430 H   0  0  0  0  0  0  0  0  0  0  0  0
   38.1060   26.7570   29.9000 H   0  0  0  0  0  0  0  0  0  0  0  0
   37.4620   27.6710   31.7700 C   0  0  0  0  0  0  0  0  0  0  0  0
   37.9090   28.5880   31.3490 H   0  0  0  0  0  0  0  0  0  0  0  0
   36.3550   27.7220   31.7690 H   0  0  0  0  0  0  0  0  0  0  0  0
   35.7070   28.5290   34.1350 Cl  0  0  0  0  0  0  0  0  0  0  0  0
   37.2940   27.8130   34.3040 C   0  0  0  0  0  0  0  0  0  0  0  0
   37.9710   27.4760   33.1520 C   0  0  0  0  0  0  0  0  0  0  0  0
   39.2370   26.9040   33.3320 C   0  0  0  0  0  0  0  0  0  0  0  0
   39.7900   26.6280   32.4360 H   0  0  0  0  0  0  0  0  0  0  0  0
   39.8180   26.6720   34.5730 C   0  0  0  0  0  0  0  0  0  0  0  0
   40.7980   26.2260   34.5900 H   0  0  0  0  0  0  0  0  0  0  0  0
   39.1280   27.0140   35.6950 C   0  0  0  0  0  3  0  0  0  0  0  0
   37.8810   27.5770   35.5270 C   0  0  0  0  0  3  0  0  0  0  0  0
  1 10  1  0  0  0  0
  2  6  1  0  0  0  0
  2  1  1  0  0  0  0
  3  2  2  0  0  0  0
  4  3  1  0  0  0  0
  4  5  1  0  0  0  0
  5  1  2  0  0  0  0
  7  3  1  0  0  0  0
  8 14  1  0  0  0  0
  9  8  1  0  0  0  0
  9 15  1  0  0  0  0
 10  9  2  0  0  0  0
 11 12  2  0  0  0  0
 11 10  1  0  0  0  0
 12 13  1  0  0  0  0
 13  8  2  0  0  0  0
 16 12  1  0  0  0  0
 17  4  1  0  0  0  0
 17 18  1  0  0  0  0
 17 20  1  0  0  0  0
 19 17  1  0  0  0  0
 20 25  1  0  0  0  0
 21 20  1  0  0  0  0
 22 20  1  0  0  0  0
 23 24  1  0  0  0  0
 24 31  1  0  0  0  0
 25 26  1  0  0  0  0
 25 24  2  0  0  0  0
 26 28  2  0  0  0  0
 27 26  1  0  0  0  0
 28 29  1  0  0  0  0
 28 30  1  0  0  0  0
 31 30  2  0  0  0  0
M  END
>  <minimizedAffinity>
-5.31044006

$$$$

 OpenBabel03272508353D

 31 33  0  0  0  0  0  0  0  0999 V2000
   38.0590   25.6000   35.3530 C   0  0  0  0  0  0  0  0  0  0  0  0
   37.8920   26.9070   35.6980 C   0  0  0  0  0  0  0  0  0  0  0  0
   37.3150   27.5880   34.6380 C   0  0  0  0  0  0  0  0  0  0  0  0
   37.1450   26.6640   33.6680 N   0  0  0  0  0  0  0  0  0  0  0  0
   37.5910   25.4900   34.1070 N   0  0  0  0  0  0  0  0  0  0  0  0
   38.1470   27.4150   36.6380 H   0  0  0  0  0  0  0  0  0  0  0  0
   37.0680   28.6310   34.6260 H   0  0  0  0  0  0  0  0  0  0  0  0
   38.7380   23.3570   38.2990 C   0  0  0  0  0  0  0  0  0  0  0  0
   38.1220   24.3180   37.5030 C   0  0  0  0  0  0  0  0  0  0  0  0
   38.6370   24.6210   36.2390 C   0  0  0  0  0  0  0  0  0  0  0  0
   39.7410   23.9310   35.8650 N   0  0  0  0  0  0  0  0  0  0  0  0
   40.3190   23.0030   36.6550 C   0  0  0  0  0  0  0  0  0  0  0  0
   39.8190   22.7210   37.8610 N   0  0  0  0  0  0  0  0  0  0  0  0
   38.2370   23.2160   39.2600 H   0  0  0  0  0  0  0  0  0  0  0  0
   37.2300   24.8940   37.7750 H   0  0  0  0  0  0  0  0  0  0  0  0
   41.1930   22.4730   36.3300 H   0  0  0  0  0  0  0  0  0  0  0  0
   36.5540   26.9760   32.3740 C   0  0  0  0  0  0  0  0  0  0  0  0
   37.3930   27.0050   31.6500 H   0  0  0  0  0  0  0  0  0  0  0  0
   35.7950   26.2150   32.1110 H   0  0  0  0  0  0  0  0  0  0  0  0
   35.9540   28.3680   32.4060 C   0  0  0  0  0  0  0  0  0  0  0  0
   34.8590   28.2700   32.3070 H   0  0  0  0  0  0  0  0  0  0  0  0
   36.2300   28.9120   33.3310 H   0  0  0  0  0  0  0  0  0  0  0  0
   35.9880   31.4350   32.3830 Cl  0  0  0  0  0  0  0  0  0  0  0  0
   36.5620   30.4410   31.0630 C   0  0  0  0  0  0  0  0  0  0  0  0
   36.4870   29.0730   31.2120 C   0  0  0  0  0  0  0  0  0  0  0  0
   36.9590   28.3140   30.1330 C   0  0  0  0  0  0  0  0  0  0  0  0
   36.9100   27.2310   30.2280 H   0  0  0  0  0  0  0  0  0  0  0  0
   37.4790   28.8590   28.9650 C   0  0  0  0  0  0  0  0  0  0  0  0
   37.8120   28.1770   28.2010 H   0  0  0  0  0  0  0  0  0  0  0  0
   37.5430   30.2130   28.8440 C   0  0  0  0  0  3  0  0  0  0  0  0
   37.0810   30.9680   29.9010 C   0  0  0  0  0  3  0  0  0  0  0  0
  1  2  1  0  0  0  0
  1 10  1  0  0  0  0
  2  6  1  0  0  0  0
  3  2  2  0  0  0  0
  4  5  1  0  0  0  0
  4  3  1  0  0  0  0
  5  1  2  0  0  0  0
  7  3  1  0  0  0  0
  8 14  1  0  0  0  0
  9 15  1  0  0  0  0
  9  8  2  0  0  0  0
 10  9  1  0  0  0  0
 11 10  2  0  0  0  0
 11 12  1  0  0  0  0
 12 13  2  0  0  0  0
 13  8  1  0  0  0  0
 16 12  1  0  0  0  0
 17 20  1  0  0  0  0
 17  4  1  0  0  0  0
 18 17  1  0  0  0  0
 19 17  1  0  0  0  0
 20 22  1  0  0  0  0
 21 20  1  0  0  0  0
 24 25  1  0  0  0  0
 24 23  1  0  0  0  0
 25 20  1  0  0  0  0
 26 27  1  0  0  0  0
 26 25  2  0  0  0  0
 28 26  1  0  0  0  0
 29 28  1  0  0  0  0
 30 28  2  0  0  0  0
 30 31  1  0  0  0  0
 31 24  2  0  0  0  0
M  END
>  <minimizedAffinity>
-5.11767435

$$$$

 OpenBabel03272508353D

 31 33  0  0  0  0  0  0  0  0999 V2000
   36.2560   28.4650   33.9560 C   0  0  0  0  0  0  0  0  0  0  0  0
   36.4460   27.9200   32.7220 C   0  0  0  0  0  0  0  0  0  0  0  0
   37.4380   26.9570   32.7980 C   0  0  0  0  0  0  0  0  0  0  0  0
   37.8260   26.9420   34.0920 N   0  0  0  0  0  0  0  0  0  0  0  0
   37.1160   27.8430   34.7660 N   0  0  0  0  0  0  0  0  0  0  0  0
   35.9400   28.1510   31.7760 H   0  0  0  0  0  0  0  0  0  0  0  0
   37.7980   26.3640   31.9810 H   0  0  0  0  0  0  0  0  0  0  0  0
   34.5600   31.5880   35.2000 C   0  0  0  0  0  0  0  0  0  0  0  0
   35.5490   30.6300   34.9980 C   0  0  0  0  0  0  0  0  0  0  0  0
   35.2870   29.5020   34.2160 C   0  0  0  0  0  0  0  0  0  0  0  0
   34.0420   29.4170   33.6910 N   0  0  0  0  0  0  0  0  0  0  0  0
   33.1000   30.3590   33.9010 C   0  0  0  0  0  0  0  0  0  0  0  0
   33.3600   31.4340   34.6490 N   0  0  0  0  0  0  0  0  0  0  0  0
   34.8920   32.4180   35.8280 H   0  0  0  0  0  0  0  0  0  0  0  0
   36.5650   30.6680   35.4070 H   0  0  0  0  0  0  0  0  0  0  0  0
   32.1220   30.2630   33.4710 H   0  0  0  0  0  0  0  0  0  0  0  0
   38.8610   26.0510   34.5970 C   0  0  0  0  0  0  0  0  0  0  0  0
   39.6760   26.0650   33.8460 H   0  0  0  0  0  0  0  0  0  0  0  0
   39.1990   26.3900   35.5950 H   0  0  0  0  0  0  0  0  0  0  0  0
   38.3350   24.6290   34.6460 C   0  0  0  0  0  0  0  0  0  0  0  0
   37.2440   24.6630   34.4810 H   0  0  0  0  0  0  0  0  0  0  0  0
   38.8380   23.9810   33.9020 H   0  0  0  0  0  0  0  0  0  0  0  0
   40.5830   22.5900   35.0920 Cl  0  0  0  0  0  0  0  0  0  0  0  0
   39.5740   23.2270   36.3700 C   0  0  0  0  0  0  0  0  0  0  0  0
   38.6000   24.1400   36.0240 C   0  0  0  0  0  0  0  0  0  0  0  0
   37.8160   24.6260   37.0770 C   0  0  0  0  0  0  0  0  0  0  0  0
   37.0410   25.3490   36.8280 H   0  0  0  0  0  0  0  0  0  0  0  0
   37.9690   24.2430   38.4050 C   0  0  0  0  0  0  0  0  0  0  0  0
   37.3070   24.6840   39.1310 H   0  0  0  0  0  0  0  0  0  0  0  0
   38.9380   23.3410   38.7200 C   0  0  0  0  0  3  0  0  0  0  0  0
   39.7150   22.8580   37.6890 C   0  0  0  0  0  3  0  0  0  0  0  0
  1 10  1  0  0  0  0
  1  5  2  0  0  0  0
  2  3  2  0  0  0  0
  2  1  1  0  0  0  0
  3  4  1  0  0  0  0
  4 17  1  0  0  0  0
  4  5  1  0  0  0  0
  6  2  1  0  0  0  0
  7  3  1  0  0  0  0
  8 14  1  0  0  0  0
  9  8  1  0  0  0  0
  9 15  1  0  0  0  0
 10  9  2  0  0  0  0
 11 12  2  0  0  0  0
 11 10  1  0  0  0  0
 12 13  1  0  0  0  0
 13  8  2  0  0  0  0
 16 12  1  0  0  0  0
 17 20  1  0  0  0  0
 17 19  1  0  0  0  0
 18 17  1  0  0  0  0
 20 25  1  0  0  0  0
 21 20  1  0  0  0  0
 22 20  1  0  0  0  0
 23 24  1  0  0  0  0
 24 31  1  0  0  0  0
 25 24  2  0  0  0  0
 25 26  1  0  0  0  0
 26 28  2  0  0  0  0
 27 26  1  0  0  0  0
 28 30  1  0  0  0  0
 28 29  1  0  0  0  0
 31 30  2  0  0  0  0
M  END
>  <minimizedAffinity>
-5.09806824

$$$$

 OpenBabel03272508353D

 31 33  0  0  0  0  0  0  0  0999 V2000
   36.6240   22.9520   31.4910 C   0  0  0  0  0  0  0  0  0  0  0  0
   37.7160   23.2350   30.7270 C   0  0  0  0  0  0  0  0  0  0  0  0
   37.8300   24.6080   30.5850 C   0  0  0  0  0  0  0  0  0  0  0  0
   36.7930   25.1270   31.2770 N   0  0  0  0  0  0  0  0  0  0  0  0
   36.0860   24.1330   31.8080 N   0  0  0  0  0  0  0  0  0  0  0  0
   38.4350   22.5460   30.2640 H   0  0  0  0  0  0  0  0  0  0  0  0
   38.5960   25.1180   30.0350 H   0  0  0  0  0  0  0  0  0  0  0  0
   35.7810   19.2880   31.3090 C   0  0  0  0  0  0  0  0  0  0  0  0
   36.1730   20.5600   30.9040 C   0  0  0  0  0  0  0  0  0  0  0  0
   36.2260   21.6080   31.8270 C   0  0  0  0  0  0  0  0  0  0  0  0
   35.8780   21.2980   33.0990 N   0  0  0  0  0  0  0  0  0  0  0  0
   35.5010   20.0570   33.4670 C   0  0  0  0  0  0  0  0  0  0  0  0
   35.4540   19.0620   32.5770 N   0  0  0  0  0  0  0  0  0  0  0  0
   35.7820   18.5620   30.4920 H   0  0  0  0  0  0  0  0  0  0  0  0
   36.4610   20.8430   29.8850 H   0  0  0  0  0  0  0  0  0  0  0  0
   35.2310   19.8440   34.4830 H   0  0  0  0  0  0  0  0  0  0  0  0
   36.5520   26.5590   31.3830 C   0  0  0  0  0  0  0  0  0  0  0  0
   36.0940   26.8690   30.4220 H   0  0  0  0  0  0  0  0  0  0  0  0
   35.8970   26.7700   32.2500 H   0  0  0  0  0  0  0  0  0  0  0  0
   37.8730   27.2950   31.4970 C   0  0  0  0  0  0  0  0  0  0  0  0
   38.6270   26.7330   30.9190 H   0  0  0  0  0  0  0  0  0  0  0  0
   37.7900   28.3420   31.1440 H   0  0  0  0  0  0  0  0  0  0  0  0
   40.7450   26.5520   32.2770 Cl  0  0  0  0  0  0  0  0  0  0  0  0
   39.4890   26.9440   33.4300 C   0  0  0  0  0  0  0  0  0  0  0  0
   38.2420   27.2600   32.9350 C   0  0  0  0  0  0  0  0  0  0  0  0
   37.2660   27.5690   33.8910 C   0  0  0  0  0  0  0  0  0  0  0  0
   36.2730   27.8230   33.5240 H   0  0  0  0  0  0  0  0  0  0  0  0
   37.4900   27.5700   35.2630 C   0  0  0  0  0  0  0  0  0  0  0  0
   36.6630   27.8240   35.9040 H   0  0  0  0  0  0  0  0  0  0  0  0
   38.7310   27.2550   35.7250 C   0  0  0  0  0  3  0  0  0  0  0  0
   39.6980   26.9500   34.7910 C   0  0  0  0  0  3  0  0  0  0  0  0
  1  5  2  0  0  0  0
  1 10  1  0  0  0  0
  2  1  1  0  0  0  0
  3  2  2  0  0  0  0
  3  4  1  0  0  0  0
  4 17  1  0  0  0  0
  4  5  1  0  0  0  0
  6  2  1  0  0  0  0
  7  3  1  0  0  0  0
  8 13  1  0  0  0  0
  9  8  2  0  0  0  0
  9 10  1  0  0  0  0
 10 11  2  0  0  0  0
 11 12  1  0  0  0  0
 12 16  1  0  0  0  0
 13 12  2  0  0  0  0
 14  8  1  0  0  0  0
 15  9  1  0  0  0  0
 17 20  1  0  0  0  0
 17 19  1  0  0  0  0
 18 17  1  0  0  0  0
 20 25  1  0  0  0  0
 21 20  1  0  0  0  0
 22 20  1  0  0  0  0
 23 24  1  0  0  0  0
 24 31  1  0  0  0  0
 25 24  2  0  0  0  0
 25 26  1  0  0  0  0
 26 28  2  0  0  0  0
 27 26  1  0  0  0  0
 28 30  1  0  0  0  0
 28 29  1  0  0  0  0
 31 30  2  0  0  0  0
M  END
>  <minimizedAffinity>
-5.09532356

$$$$

 OpenBabel03272508353D

 31 33  0  0  0  0  0  0  0  0999 V2000
   36.4880   26.3900   31.9550 C   0  0  0  0  0  0  0  0  0  0  0  0
   36.0460   25.3280   31.2270 C   0  0  0  0  0  0  0  0  0  0  0  0
   36.5310   24.1580   31.7870 C   0  0  0  0  0  0  0  0  0  0  0  0
   37.2620   24.5470   32.8540 N   0  0  0  0  0  0  0  0  0  0  0  0
   37.2270   25.8740   32.9400 N   0  0  0  0  0  0  0  0  0  0  0  0
   35.4090   25.3160   30.3320 H   0  0  0  0  0  0  0  0  0  0  0  0
   36.3440   23.1660   31.4250 H   0  0  0  0  0  0  0  0  0  0  0  0
   36.3670   29.7860   30.3330 C   0  0  0  0  0  0  0  0  0  0  0  0
   36.7420   28.4690   30.5810 C   0  0  0  0  0  0  0  0  0  0  0  0
   36.1580   27.7560   31.6320 C   0  0  0  0  0  0  0  0  0  0  0  0
   35.2330   28.4240   32.3620 N   0  0  0  0  0  0  0  0  0  0  0  0
   34.8860   29.7010   32.1010 C   0  0  0  0  0  0  0  0  0  0  0  0
   35.4500   30.3730   31.0940 N   0  0  0  0  0  0  0  0  0  0  0  0
   36.8980   30.2270   29.4850 H   0  0  0  0  0  0  0  0  0  0  0  0
   37.4860   27.9000   30.0110 H   0  0  0  0  0  0  0  0  0  0  0  0
   34.1500   30.2020   32.6980 H   0  0  0  0  0  0  0  0  0  0  0  0
   37.9470   23.6060   33.7300 C   0  0  0  0  0  0  0  0  0  0  0  0
   37.2340   23.3650   34.5440 H   0  0  0  0  0  0  0  0  0  0  0  0
   38.2530   22.7100   33.1570 H   0  0  0  0  0  0  0  0  0  0  0  0
   39.1390   24.2820   34.3780 C   0  0  0  0  0  0  0  0  0  0  0  0
   40.0560   23.8450   33.9460 H   0  0  0  0  0  0  0  0  0  0  0  0
   39.1110   25.3810   34.2400 H   0  0  0  0  0  0  0  0  0  0  0  0
   41.2000   22.3280   35.5380 Cl  0  0  0  0  0  0  0  0  0  0  0  0
   39.9290   23.0790   36.4750 C   0  0  0  0  0  0  0  0  0  0  0  0
   39.0720   23.9390   35.8220 C   0  0  0  0  0  0  0  0  0  0  0  0
   38.0700   24.5190   36.6100 C   0  0  0  0  0  0  0  0  0  0  0  0
   37.3820   25.2030   36.1150 H   0  0  0  0  0  0  0  0  0  0  0  0
   37.9070   24.2760   37.9680 C   0  0  0  0  0  0  0  0  0  0  0  0
   37.0990   24.7790   38.4720 H   0  0  0  0  0  0  0  0  0  0  0  0
   38.7660   23.4230   38.5900 C   0  0  0  0  0  3  0  0  0  0  0  0
   39.7560   22.8480   37.8220 C   0  0  0  0  0  3  0  0  0  0  0  0
  1  5  2  0  0  0  0
  2  3  2  0  0  0  0
  2  1  1  0  0  0  0
  3  4  1  0  0  0  0
  4  5  1  0  0  0  0
  4 17  1  0  0  0  0
  6  2  1  0  0  0  0
  7  3  1  0  0  0  0
  8  9  2  0  0  0  0
  8 13  1  0  0  0  0
  9 10  1  0  0  0  0
 10  1  1  0  0  0  0
 10 11  2  0  0  0  0
 12 11  1  0  0  0  0
 12 16  1  0  0  0  0
 13 12  2  0  0  0  0
 14  8  1  0  0  0  0
 15  9  1  0  0  0  0
 17 20  1  0  0  0  0
 17 18  1  0  0  0  0
 19 17  1  0  0  0  0
 20 25  1  0  0  0  0
 21 20  1  0  0  0  0
 22 20  1  0  0  0  0
 23 24  1  0  0  0  0
 24 31  1  0  0  0  0
 25 24  2  0  0  0  0
 25 26  1  0  0  0  0
 26 28  2  0  0  0  0
 27 26  1  0  0  0  0
 28 29  1  0  0  0  0
 28 30  1  0  0  0  0
 31 30  2  0  0  0  0
M  END
>  <minimizedAffinity>
-5.09478951

$$$$

 OpenBabel03272508353D

 31 33  0  0  0  0  0  0  0  0999 V2000
   37.5060   25.9780   34.6320 C   0  0  0  0  0  0  0  0  0  0  0  0
   37.3170   25.6960   33.3130 C   0  0  0  0  0  0  0  0  0  0  0  0
   36.7690   26.8020   32.6850 C   0  0  0  0  0  0  0  0  0  0  0  0
   36.6400   27.7370   33.6510 N   0  0  0  0  0  0  0  0  0  0  0  0
   37.0810   27.2330   34.8010 N   0  0  0  0  0  0  0  0  0  0  0  0
   37.5360   24.7710   32.7630 H   0  0  0  0  0  0  0  0  0  0  0  0
   36.5140   26.8680   31.6460 H   0  0  0  0  0  0  0  0  0  0  0  0
   38.3170   24.0490   37.7620 C   0  0  0  0  0  0  0  0  0  0  0  0
   37.7360   24.9970   36.9250 C   0  0  0  0  0  0  0  0  0  0  0  0
   38.0630   25.0320   35.5670 C   0  0  0  0  0  0  0  0  0  0  0  0
   38.9570   24.1050   35.1450 N   0  0  0  0  0  0  0  0  0  0  0  0
   39.5060   23.1970   35.9770 C   0  0  0  0  0  0  0  0  0  0  0  0
   39.1870   23.1710   37.2730 N   0  0  0  0  0  0  0  0  0  0  0  0
   37.9770   24.1300   38.7970 H   0  0  0  0  0  0  0  0  0  0  0  0
   37.0110   25.7590   37.2330 H   0  0  0  0  0  0  0  0  0  0  0  0
   40.2120   22.4750   35.6130 H   0  0  0  0  0  0  0  0  0  0  0  0
   36.1010   29.0660   33.3990 C   0  0  0  0  0  0  0  0  0  0  0  0
   36.6600   29.7580   34.0600 H   0  0  0  0  0  0  0  0  0  0  0  0
   36.2120   29.3230   32.3280 H   0  0  0  0  0  0  0  0  0  0  0  0
   34.6490   29.1210   33.8330 C   0  0  0  0  0  0  0  0  0  0  0  0
   34.0450   29.4340   32.9640 H   0  0  0  0  0  0  0  0  0  0  0  0
   34.3050   28.1480   34.2370 H   0  0  0  0  0  0  0  0  0  0  0  0
   31.9640   29.6440   35.2210 Cl  0  0  0  0  0  0  0  0  0  0  0  0
   33.4370   30.5140   35.5830 C   0  0  0  0  0  0  0  0  0  0  0  0
   34.5720   30.1730   34.8790 C   0  0  0  0  0  0  0  0  0  0  0  0
   35.7300   30.8930   35.2010 C   0  0  0  0  0  0  0  0  0  0  0  0
   36.6400   30.6400   34.6590 H   0  0  0  0  0  0  0  0  0  0  0  0
   35.7830   31.8980   36.1600 C   0  0  0  0  0  0  0  0  0  0  0  0
   36.7300   32.3840   36.3230 H   0  0  0  0  0  0  0  0  0  0  0  0
   34.6480   32.2150   36.8400 C   0  0  0  0  0  3  0  0  0  0  0  0
   33.5040   31.5110   36.5310 C   0  0  0  0  0  3  0  0  0  0  0  0
  1  5  2  0  0  0  0
  1 10  1  0  0  0  0
  2  1  1  0  0  0  0
  3  2  2  0  0  0  0
  3  4  1  0  0  0  0
  4  5  1  0  0  0  0
  6  2  1  0  0  0  0
  7  3  1  0  0  0  0
  8 14  1  0  0  0  0
  9 15  1  0  0  0  0
  9  8  2  0  0  0  0
 10  9  1  0  0  0  0
 11 10  2  0  0  0  0
 11 12  1  0  0  0  0
 12 13  2  0  0  0  0
 13  8  1  0  0  0  0
 16 12  1  0  0  0  0
 17  4  1  0  0  0  0
 17 20  1  0  0  0  0
 17 18  1  0  0  0  0
 19 17  1  0  0  0  0
 20 22  1  0  0  0  0
 20 25  1  0  0  0  0
 21 20  1  0  0  0  0
 23 24  1  0  0  0  0
 24 31  1  0  0  0  0
 25 26  1  0  0  0  0
 25 24  2  0  0  0  0
 26 28  2  0  0  0  0
 27 26  1  0  0  0  0
 28 29  1  0  0  0  0
 28 30  1  0  0  0  0
 31 30  2  0  0  0  0
M  END
>  <minimizedAffinity>
-5.03039026

$$$$

 OpenBabel03272508353D

 31 33  0  0  0  0  0  0  0  0999 V2000
   38.0900   25.8250   35.6510 C   0  0  0  0  0  0  0  0  0  0  0  0
   38.2100   27.1380   35.9900 C   0  0  0  0  0  0  0  0  0  0  0  0
   37.6240   27.9180   35.0070 C   0  0  0  0  0  0  0  0  0  0  0  0
   37.1560   27.0460   34.0880 N   0  0  0  0  0  0  0  0  0  0  0  0
   37.4410   25.8080   34.4840 N   0  0  0  0  0  0  0  0  0  0  0  0
   38.6790   27.5860   36.8760 H   0  0  0  0  0  0  0  0  0  0  0  0
   37.5680   28.9890   35.0080 H   0  0  0  0  0  0  0  0  0  0  0  0
   38.6460   23.3830   38.4620 C   0  0  0  0  0  0  0  0  0  0  0  0
   38.1000   24.4370   37.7350 C   0  0  0  0  0  0  0  0  0  0  0  0
   38.5990   24.7520   36.4690 C   0  0  0  0  0  0  0  0  0  0  0  0
   39.6180   23.9790   36.0210 N   0  0  0  0  0  0  0  0  0  0  0  0
   40.1300   22.9630   36.7450 C   0  0  0  0  0  0  0  0  0  0  0  0
   39.6450   22.6700   37.9540 N   0  0  0  0  0  0  0  0  0  0  0  0
   38.1670   23.2430   39.4340 H   0  0  0  0  0  0  0  0  0  0  0  0
   37.2770   25.0810   38.0670 H   0  0  0  0  0  0  0  0  0  0  0  0
   40.9370   22.3690   36.3630 H   0  0  0  0  0  0  0  0  0  0  0  0
   36.4580   27.4670   32.8820 C   0  0  0  0  0  0  0  0  0  0  0  0
   35.5310   26.8590   32.8320 H   0  0  0  0  0  0  0  0  0  0  0  0
   36.2490   28.5520   32.9240 H   0  0  0  0  0  0  0  0  0  0  0  0
   37.2810   27.1100   31.6600 C   0  0  0  0  0  0  0  0  0  0  0  0
   36.8990   27.6970   30.8070 H   0  0  0  0  0  0  0  0  0  0  0  0
   38.3610   27.2920   31.8270 H   0  0  0  0  0  0  0  0  0  0  0  0
   39.6710   25.2640   31.1160 Cl  0  0  0  0  0  0  0  0  0  0  0  0
   38.0070   24.7260   31.1450 C   0  0  0  0  0  0  0  0  0  0  0  0
   37.0330   25.6670   31.4030 C   0  0  0  0  0  0  0  0  0  0  0  0
   35.7150   25.1940   31.4190 C   0  0  0  0  0  0  0  0  0  0  0  0
   34.9290   25.9200   31.6220 H   0  0  0  0  0  0  0  0  0  0  0  0
   35.3590   23.8700   31.1940 C   0  0  0  0  0  0  0  0  0  0  0  0
   34.3110   23.6210   31.2310 H   0  0  0  0  0  0  0  0  0  0  0  0
   36.3390   22.9610   30.9420 C   0  0  0  0  0  3  0  0  0  0  0  0
   37.6400   23.4170   30.9250 C   0  0  0  0  0  3  0  0  0  0  0  0
  1  2  1  0  0  0  0
  1 10  1  0  0  0  0
  2  6  1  0  0  0  0
  3  7  1  0  0  0  0
  3  2  2  0  0  0  0
  4  5  1  0  0  0  0
  4  3  1  0  0  0  0
  5  1  2  0  0  0  0
  8 14  1  0  0  0  0
  9 15  1  0  0  0  0
  9  8  2  0  0  0  0
 10  9  1  0  0  0  0
 11 10  2  0  0  0  0
 11 12  1  0  0  0  0
 12 13  2  0  0  0  0
 13  8  1  0  0  0  0
 16 12  1  0  0  0  0
 17 19  1  0  0  0  0
 17  4  1  0  0  0  0
 18 17  1  0  0  0  0
 20 22  1  0  0  0  0
 20 17  1  0  0  0  0
 21 20  1  0  0  0  0
 23 24  1  0  0  0  0
 24 25  1  0  0  0  0
 25 26  2  0  0  0  0
 25 20  1  0  0  0  0
 26 27  1  0  0  0  0
 28 29  1  0  0  0  0
 28 26  1  0  0  0  0
 30 28  2  0  0  0  0
 31 30  1  0  0  0  0
 31 24  2  0  0  0  0
M  END
>  <minimizedAffinity>
-4.9770999

$$$$

 OpenBabel03272508353D

 31 33  0  0  0  0  0  0  0  0999 V2000
   37.6610   27.8320   31.8410 C   0  0  0  0  0  0  0  0  0  0  0  0
   36.6640   28.5270   32.4570 C   0  0  0  0  0  0  0  0  0  0  0  0
   36.4780   28.0220   33.7330 C   0  0  0  0  0  0  0  0  0  0  0  0
   37.3790   27.0240   33.8590 N   0  0  0  0  0  0  0  0  0  0  0  0
   38.0720   26.9230   32.7290 N   0  0  0  0  0  0  0  0  0  0  0  0
   36.0600   29.3610   32.0740 H   0  0  0  0  0  0  0  0  0  0  0  0
   35.7600   28.3760   34.4470 H   0  0  0  0  0  0  0  0  0  0  0  0
   39.6120   27.8920   28.6220 C   0  0  0  0  0  0  0  0  0  0  0  0
   39.2570   27.5730   29.9300 C   0  0  0  0  0  0  0  0  0  0  0  0
   38.1000   28.1130   30.4970 C   0  0  0  0  0  0  0  0  0  0  0  0
   37.3790   28.9400   29.7030 N   0  0  0  0  0  0  0  0  0  0  0  0
   37.7440   29.2340   28.4390 C   0  0  0  0  0  0  0  0  0  0  0  0
   38.8520   28.7120   27.9060 N   0  0  0  0  0  0  0  0  0  0  0  0
   40.5360   27.4040   28.3010 H   0  0  0  0  0  0  0  0  0  0  0  0
   39.8180   26.9080   30.5970 H   0  0  0  0  0  0  0  0  0  0  0  0
   37.1510   29.8930   27.8360 H   0  0  0  0  0  0  0  0  0  0  0  0
   37.5140   26.2300   35.0730 C   0  0  0  0  0  0  0  0  0  0  0  0
   38.1080   26.8440   35.7800 H   0  0  0  0  0  0  0  0  0  0  0  0
   36.5140   25.9740   35.4710 H   0  0  0  0  0  0  0  0  0  0  0  0
   38.3290   24.9850   34.7830 C   0  0  0  0  0  0  0  0  0  0  0  0
   37.7060   24.3010   34.1810 H   0  0  0  0  0  0  0  0  0  0  0  0
   39.2790   25.2280   34.2660 H   0  0  0  0  0  0  0  0  0  0  0  0
   40.6100   22.9460   35.0120 Cl  0  0  0  0  0  0  0  0  0  0  0  0
   39.5910   23.4280   36.3500 C   0  0  0  0  0  0  0  0  0  0  0  0
   38.6030   24.3560   36.1010 C   0  0  0  0  0  0  0  0  0  0  0  0
   37.8110   24.7150   37.1990 C   0  0  0  0  0  0  0  0  0  0  0  0
   37.0240   25.4480   37.0260 H   0  0  0  0  0  0  0  0  0  0  0  0
   37.9710   24.1960   38.4780 C   0  0  0  0  0  0  0  0  0  0  0  0
   37.3020   24.5470   39.2460 H   0  0  0  0  0  0  0  0  0  0  0  0
   38.9540   23.2820   38.6980 C   0  0  0  0  0  3  0  0  0  0  0  0
   39.7390   22.9230   37.6230 C   0  0  0  0  0  3  0  0  0  0  0  0
  1  2  1  0  0  0  0
  1  5  2  0  0  0  0
  2  3  2  0  0  0  0
  3  4  1  0  0  0  0
  3  7  1  0  0  0  0
  4 17  1  0  0  0  0
  5  4  1  0  0  0  0
  6  2  1  0  0  0  0
  8  9  1  0  0  0  0
  9 10  2  0  0  0  0
  9 15  1  0  0  0  0
 10  1  1  0  0  0  0
 11 10  1  0  0  0  0
 12 11  2  0  0  0  0
 13 12  1  0  0  0  0
 13  8  2  0  0  0  0
 14  8  1  0  0  0  0
 16 12  1  0  0  0  0
 17 19  1  0  0  0  0
 17 18  1  0  0  0  0
 20 17  1  0  0  0  0
 20 25  1  0  0  0  0
 21 20  1  0  0  0  0
 22 20  1  0  0  0  0
 23 24  1  0  0  0  0
 24 31  1  0  0  0  0
 25 24  2  0  0  0  0
 25 26  1  0  0  0  0
 26 28  2  0  0  0  0
 27 26  1  0  0  0  0
 28 30  1  0  0  0  0
 28 29  1  0  0  0  0
 31 30  2  0  0  0  0
M  END
>  <minimizedAffinity>
-4.97286558

$$$$

 OpenBabel03272508353D

 31 33  0  0  0  0  0  0  0  0999 V2000
   38.3070   23.9080   34.5800 C   0  0  0  0  0  0  0  0  0  0  0  0
   38.8550   24.9160   33.8450 C   0  0  0  0  0  0  0  0  0  0  0  0
   38.4670   24.7790   32.5230 C   0  0  0  0  0  0  0  0  0  0  0  0
   37.6830   23.6800   32.4900 N   0  0  0  0  0  0  0  0  0  0  0  0
   37.5980   23.1740   33.7180 N   0  0  0  0  0  0  0  0  0  0  0  0
   39.5060   25.7370   34.1720 H   0  0  0  0  0  0  0  0  0  0  0  0
   38.7480   25.4300   31.7180 H   0  0  0  0  0  0  0  0  0  0  0  0
   37.9960   24.1980   38.3200 C   0  0  0  0  0  0  0  0  0  0  0  0
   37.7280   24.3890   36.9680 C   0  0  0  0  0  0  0  0  0  0  0  0
   38.5180   23.7650   35.9990 C   0  0  0  0  0  0  0  0  0  0  0  0
   39.5270   22.9890   36.4620 N   0  0  0  0  0  0  0  0  0  0  0  0
   39.7670   22.8200   37.7780 C   0  0  0  0  0  0  0  0  0  0  0  0
   39.0060   23.4200   38.6970 N   0  0  0  0  0  0  0  0  0  0  0  0
   37.3070   24.7400   38.9720 H   0  0  0  0  0  0  0  0  0  0  0  0
   36.9210   25.0080   36.5600 H   0  0  0  0  0  0  0  0  0  0  0  0
   40.5740   22.1990   38.1140 H   0  0  0  0  0  0  0  0  0  0  0  0
   37.0600   23.1880   31.2700 C   0  0  0  0  0  0  0  0  0  0  0  0
   36.0100   22.9480   31.5330 H   0  0  0  0  0  0  0  0  0  0  0  0
   37.1310   23.9540   30.4730 H   0  0  0  0  0  0  0  0  0  0  0  0
   37.7140   21.8880   30.8470 C   0  0  0  0  0  0  0  0  0  0  0  0
   37.7160   21.8500   29.7430 H   0  0  0  0  0  0  0  0  0  0  0  0
   38.7380   21.7930   31.2580 H   0  0  0  0  0  0  0  0  0  0  0  0
   38.9960   19.2310   31.6890 Cl  0  0  0  0  0  0  0  0  0  0  0  0
   37.2810   19.5610   31.7800 C   0  0  0  0  0  0  0  0  0  0  0  0
   36.8440   20.8010   31.3670 C   0  0  0  0  0  0  0  0  0  0  0  0
   35.4640   21.0250   31.4570 C   0  0  0  0  0  0  0  0  0  0  0  0
   35.0960   21.9980   31.1370 H   0  0  0  0  0  0  0  0  0  0  0  0
   34.5520   20.0870   31.9270 C   0  0  0  0  0  0  0  0  0  0  0  0
   33.5130   20.3710   31.9510 H   0  0  0  0  0  0  0  0  0  0  0  0
   35.0090   18.8710   32.3290 C   0  0  0  0  0  3  0  0  0  0  0  0
   36.3660   18.6420   32.2440 C   0  0  0  0  0  3  0  0  0  0  0  0
  1 10  1  0  0  0  0
  2  6  1  0  0  0  0
  2  1  1  0  0  0  0
  3  2  2  0  0  0  0
  4  3  1  0  0  0  0
  4  5  1  0  0  0  0
  5  1  2  0  0  0  0
  7  3  1  0  0  0  0
  8 13  1  0  0  0  0
  8 14  1  0  0  0  0
  9  8  2  0  0  0  0
 10 11  2  0  0  0  0
 10  9  1  0  0  0  0
 11 12  1  0  0  0  0
 12 16  1  0  0  0  0
 12 13  2  0  0  0  0
 15  9  1  0  0  0  0
 17 18  1  0  0  0  0
 17  4  1  0  0  0  0
 19 17  1  0  0  0  0
 20 22  1  0  0  0  0
 20 17  1  0  0  0  0
 20 25  1  0  0  0  0
 21 20  1  0  0  0  0
 23 24  1  0  0  0  0
 24 31  1  0  0  0  0
 25 26  1  0  0  0  0
 25 24  2  0  0  0  0
 26 28  2  0  0  0  0
 27 26  1  0  0  0  0
 28 29  1  0  0  0  0
 28 30  1  0  0  0  0
 31 30  2  0  0  0  0
M  END
>  <minimizedAffinity>
-4.94462347

$$$$
