
 OpenBabel03272510013D

 21 22  0  0  0  0  0  0  0  0999 V2000
   38.6100   32.7930   49.2380 C   0  0  0  0  0  0  0  0  0  0  0  0
   38.4910   32.4700   47.8660 C   0  0  0  0  0  0  0  0  0  0  0  0
   37.9640   31.2340   47.5290 C   0  0  0  0  0  0  0  0  0  0  0  0
   37.5990   30.4190   48.5540 N   0  0  0  0  0  0  0  0  0  0  0  0
   37.7210   30.7430   49.8420 C   0  0  0  0  0  0  0  0  0  0  0  0
   38.2240   31.9260   50.1750 N   0  0  0  0  0  0  0  0  0  0  0  0
   39.0180   33.7500   49.5420 H   0  0  0  0  0  0  0  0  0  0  0  0
   38.7960   33.1520   47.1030 H   0  0  0  0  0  0  0  0  0  0  0  0
   40.5060   30.9840   45.8800 Cl  0  0  0  0  0  0  0  0  0  0  0  0
   38.8860   30.6480   45.3410 C   0  0  0  0  0  0  0  0  0  0  0  0
   37.7920   30.7880   46.1540 C   0  0  0  0  0  0  0  0  0  0  0  0
   36.5720   30.4850   45.5910 C   0  0  0  0  0  0  0  0  0  0  0  0
   35.6720   30.5760   46.1820 H   0  0  0  0  0  0  0  0  0  0  0  0
   36.4360   30.0640   44.2860 C   0  0  0  0  0  0  0  0  0  0  0  0
   35.4510   29.8390   43.8870 H   0  0  0  0  0  0  0  0  0  0  0  0
   37.5440   29.9270   43.4740 C   0  0  0  0  0  3  0  0  0  0  0  0
   38.7970   30.2260   44.0150 C   0  0  0  0  0  3  0  0  0  0  0  0
   37.2850   29.7490   50.8420 C   0  0  0  0  0  0  0  0  0  0  0  0
   37.5150   30.1700   52.1490 F   0  0  0  0  0  0  0  0  0  0  0  0
   35.9280   29.4950   50.7560 F   0  0  0  0  0  0  0  0  0  0  0  0
   37.9100   28.5220   50.7090 F   0  0  0  0  0  0  0  0  0  0  0  0
  1  7  1  0  0  0  0
  1  6  1  0  0  0  0
  2  1  2  0  0  0  0
  3  2  1  0  0  0  0
  3  4  2  0  0  0  0
  4  5  1  0  0  0  0
  5  6  2  0  0  0  0
  5 18  1  0  0  0  0
  8  2  1  0  0  0  0
 10  9  1  0  0  0  0
 10 11  1  0  0  0  0
 11  3  1  0  0  0  0
 12 11  2  0  0  0  0
 12 13  1  0  0  0  0
 14 12  1  0  0  0  0
 15 14  1  0  0  0  0
 16 17  1  0  0  0  0
 16 14  2  0  0  0  0
 17 10  2  0  0  0  0
 18 19  1  0  0  0  0
 20 18  1  0  0  0  0
 21 18  1  0  0  0  0
M  END
>  <minimizedAffinity>
-5.70421791

>  <minimizedRMSD>
1.95856619

$$$$
