
 OpenBabel03272510013D

 21 22  0  0  0  0  0  0  0  0999 V2000
   38.3190   31.2070   50.3420 C   0  0  0  0  0  0  0  0  0  0  0  0
   38.4490   31.5010   48.9640 C   0  0  0  0  0  0  0  0  0  0  0  0
   37.4490   31.0730   48.1070 C   0  0  0  0  0  0  0  0  0  0  0  0
   36.4100   30.3950   48.6620 N   0  0  0  0  0  0  0  0  0  0  0  0
   36.3070   30.1280   49.9650 C   0  0  0  0  0  0  0  0  0  0  0  0
   37.2600   30.5350   50.7950 N   0  0  0  0  0  0  0  0  0  0  0  0
   39.0800   31.5250   51.0450 H   0  0  0  0  0  0  0  0  0  0  0  0
   39.2900   32.0380   48.5850 H   0  0  0  0  0  0  0  0  0  0  0  0
   35.3120   29.6450   46.4830 Cl  0  0  0  0  0  0  0  0  0  0  0  0
   36.5420   30.7110   45.8650 C   0  0  0  0  0  0  0  0  0  0  0  0
   37.4700   31.3150   46.6720 C   0  0  0  0  0  0  0  0  0  0  0  0
   38.3810   32.1320   46.0430 C   0  0  0  0  0  0  0  0  0  0  0  0
   39.1390   32.6380   46.6260 H   0  0  0  0  0  0  0  0  0  0  0  0
   38.3800   32.3460   44.6820 C   0  0  0  0  0  0  0  0  0  0  0  0
   39.1210   33.0000   44.2320 H   0  0  0  0  0  0  0  0  0  0  0  0
   37.4400   31.7320   43.8760 C   0  0  0  0  0  3  0  0  0  0  0  0
   36.5010   30.8960   44.4840 C   0  0  0  0  0  3  0  0  0  0  0  0
   35.1190   29.3770   50.4180 C   0  0  0  0  0  0  0  0  0  0  0  0
   35.1560   29.0900   51.7800 F   0  0  0  0  0  0  0  0  0  0  0  0
   33.9510   30.0880   50.2100 F   0  0  0  0  0  0  0  0  0  0  0  0
   34.9480   28.1680   49.7660 F   0  0  0  0  0  0  0  0  0  0  0  0
  1  6  1  0  0  0  0
  1  7  1  0  0  0  0
  2  1  2  0  0  0  0
  3  4  2  0  0  0  0
  3  2  1  0  0  0  0
  4  5  1  0  0  0  0
  5 18  1  0  0  0  0
  5  6  2  0  0  0  0
  8  2  1  0  0  0  0
 10  9  1  0  0  0  0
 10 11  1  0  0  0  0
 11  3  1  0  0  0  0
 12 13  1  0  0  0  0
 12 11  2  0  0  0  0
 14 12  1  0  0  0  0
 15 14  1  0  0  0  0
 16 17  1  0  0  0  0
 16 14  2  0  0  0  0
 17 10  2  0  0  0  0
 18 19  1  0  0  0  0
 20 18  1  0  0  0  0
 21 18  1  0  0  0  0
M  END
>  <minimizedAffinity>
-5.48529005

>  <minimizedRMSD>
0.478978306

$$$$
