REMARK  Name = 
REMARK  2 active torsions:
REMARK  status: ('A' for Active; 'I' for Inactive)
REMARK    1  A    between atoms: C_3  and  C_15
REMARK    2  A    between atoms: C_5  and  C_7
REMARK                            x       y       z     vdW  Elec       q    Type
REMARK                         _______ _______ _______ _____ _____    ______ ____
ROOT
ATOM      1  C   UNL     1      38.306  31.233  50.123  0.00  0.00    +0.000 A 
ATOM      2  C   UNL     1      38.286  31.606  48.758  0.00  0.00    +0.000 A 
ATOM      3  C   UNL     1      37.197  31.223  47.992  0.00  0.00    +0.000 A 
ATOM      4  N   UNL     1      36.223  30.511  48.617  0.00  0.00    +0.000 NA
ATOM      5  C   UNL     1      36.262  30.169  49.906  0.00  0.00    +0.000 A 
ATOM      6  N   UNL     1      37.301  30.532  50.649  0.00  0.00    +0.000 NA
ATOM      7  H   UNL     1      39.140  31.513  50.755  0.00  0.00    +0.000 HD
ATOM      8  H   UNL     1      39.082  32.167  48.321  0.00  0.00    +0.000 HD
ENDROOT
BRANCH   3  11
ATOM      9 CL   UNL     1      35.084  29.661  46.462  0.00  0.00    +0.000 Cl
ATOM     10  C   UNL     1      36.133  30.890  45.815  0.00  0.00    +0.000 A 
ATOM     11  C   UNL     1      37.062  31.547  46.579  0.00  0.00    +0.000 A 
ATOM     12  C   UNL     1      37.822  32.495  45.931  0.00  0.00    +0.000 A 
ATOM     13  H   UNL     1      38.572  33.047  46.480  0.00  0.00    +0.000 HD
ATOM     14  C   UNL     1      37.674  32.783  44.593  0.00  0.00    +0.000 A 
ATOM     15  H   UNL     1      38.298  33.540  44.126  0.00  0.00    +0.000 HD
ATOM     16  C   UNL     1      36.736  32.116  43.830  0.00  0.00    +0.000 A 
ATOM     17  C   UNL     1      35.948  31.148  44.458  0.00  0.00    +0.000 A 
ENDBRANCH   3  11
BRANCH   5  18
ATOM     18  C   UNL     1      35.129  29.389  50.442  0.00  0.00    +0.000 C 
ATOM     19  F   UNL     1      35.258  29.126  51.803  0.00  0.00    +0.000 F 
ATOM     20  F   UNL     1      33.928  30.059  50.294  0.00  0.00    +0.000 F 
ATOM     21  F   UNL     1      34.959  28.164  49.820  0.00  0.00    +0.000 F 
ENDBRANCH   5  18
TORSDOF 2
