
     RDKit          3D

 23 24  0  0  0  0  0  0  0  0999 V2000
   38.3065   31.2329   50.1234 C   0  0  0  0  0  0  0  0  0  0  0  0
   38.2863   31.6061   48.7582 C   0  0  0  0  0  0  0  0  0  0  0  0
   37.1966   31.2228   47.9915 C   0  0  0  0  0  0  0  0  0  0  0  0
   36.2230   30.5111   48.6165 N   0  0  0  0  0  0  0  0  0  0  0  0
   36.2621   30.1695   49.9057 C   0  0  0  0  0  0  0  0  0  0  0  0
   37.3012   30.5320   50.6494 N   0  0  0  0  0  0  0  0  0  0  0  0
   35.1285   29.3889   50.4416 C   0  0  0  0  0  0  0  0  0  0  0  0
   35.2576   29.1257   51.8027 F   0  0  0  0  0  0  0  0  0  0  0  0
   33.9281   30.0589   50.2945 F   0  0  0  0  0  0  0  0  0  0  0  0
   34.9590   28.1641   49.8203 F   0  0  0  0  0  0  0  0  0  0  0  0
   39.1399   31.5134   50.7548 H   0  0  0  0  0  0  0  0  0  0  0  0
   39.0820   32.1666   48.3210 H   0  0  0  0  0  0  0  0  0  0  0  0
   37.1670   34.1828   47.2999 Cl  0  0  0  0  0  0  0  0  0  0  0  0
   37.0393   32.8573   46.1793 C   0  0  0  0  0  0  0  0  0  0  0  0
   37.0616   31.5469   46.5787 C   0  0  0  0  0  0  0  0  0  0  0  0
   36.9511   30.6045   45.5809 C   0  0  0  0  0  0  0  0  0  0  0  0
   36.9621   29.5535   45.8326 H   0  0  0  0  0  0  0  0  0  0  0  0
   36.8243   30.9379   44.2505 C   0  0  0  0  0  0  0  0  0  0  0  0
   36.7400   30.1577   43.4991 H   0  0  0  0  0  0  0  0  0  0  0  0
   36.8026   32.2614   43.8567 C   0  0  0  0  0  0  0  0  0  0  0  0
   36.9129   33.2421   44.8462 C   0  0  0  0  0  0  0  0  0  0  0  0
   36.7010   32.4617   42.7984 H   0  0  0  0  0  0  0  0  0  0  0  0
   36.8936   34.2605   44.5161 H   0  0  0  0  0  0  0  0  0  0  0  0
  1  6  2  0
  2  1  1  0
  3  4  1  0
  3  2  2  0
  4  5  2  0
  5  7  1  0
  5  6  1  0
  7  8  1  0
  9  7  1  0
 10  7  1  0
  1 11  1  0
  2 12  1  0
 13 14  1  0
 14 15  2  0
 15 16  1  0
 16 17  1  0
 16 18  2  0
 18 19  1  0
 18 20  1  0
 20 21  2  0
 21 14  1  0
 20 22  1  0
 21 23  1  0
  3 15  1  0
M  ISO  4  11  14  12  14  17  15  19  16
M  END
>  <DihAtoms>  (1) 
3,2,14,13

>  <DihDeg>  (1) 
0.0049961559325213765

$$$$
