
     RDKit          3D

 42 46  0  0  0  0  0  0  0  0999 V2000
   35.8520   29.1282   49.8112 C   0  0  0  0  0  0  0  0  0  0  0  0
   34.8241   29.6165   50.5520 C   0  0  0  0  0  0  0  0  0  0  0  0
   33.6582   29.0332   50.0526 C   0  0  0  0  0  0  0  0  0  0  0  0
   34.0695   28.1995   49.0042 C   0  0  0  0  0  0  0  0  0  0  0  0
   35.3583   28.3088   48.9254 O   0  0  0  0  0  0  0  0  0  0  0  0
   33.5291   26.4327   47.3449 C   0  0  0  0  0  0  0  0  0  0  0  0
   33.1145   27.4155   48.2347 C   0  0  0  0  0  0  0  0  0  0  0  0
   31.7787   27.6825   48.4275 C   0  0  0  0  0  0  0  0  0  0  0  0
   30.8619   26.9430   47.7094 C   0  0  0  0  0  0  0  0  0  0  0  0
   29.5151   26.9897   47.7062 N   0  0  0  0  0  0  0  0  0  0  0  0
   29.0849   26.0659   46.8430 N   0  0  0  0  0  0  0  0  0  0  0  0
   30.1431   25.4453   46.3090 C   0  0  0  0  0  0  0  0  0  0  0  0
   31.3164   25.9805   46.8403 C   0  0  0  0  0  0  0  0  0  0  0  0
   32.6425   25.6892   46.6242 C   0  0  0  0  0  0  0  0  0  0  0  0
   37.2317   29.5233   50.0546 C   0  0  0  0  0  0  0  0  0  0  0  0
   37.8757   28.9613   50.9694 O   0  0  0  0  0  0  0  0  0  0  0  0
   37.7805   30.5567   49.2108 C   0  0  0  0  0  0  0  0  0  0  0  0
   38.1229   31.7655   49.8197 C   0  0  0  0  0  0  0  0  0  0  0  0
   38.6559   32.7981   49.0573 C   0  0  0  0  0  0  0  0  0  0  0  0
   38.8074   32.5361   47.7222 N   0  0  0  0  0  0  0  0  0  0  0  0
   38.4807   31.3866   47.1490 C   0  0  0  0  0  0  0  0  0  0  0  0
   37.9661   30.3998   47.9056 N   0  0  0  0  0  0  0  0  0  0  0  0
   34.8595   30.3244   51.3802 H   0  0  0  0  0  0  0  0  0  0  0  0
   32.6838   29.2479   50.4624 H   0  0  0  0  0  0  0  0  0  0  0  0
   34.5943   26.2633   47.2309 H   0  0  0  0  0  0  0  0  0  0  0  0
   31.3865   28.4387   49.1085 H   0  0  0  0  0  0  0  0  0  0  0  0
   28.8824   27.6289   48.2717 H   0  0  0  0  0  0  0  0  0  0  0  0
   30.0627   24.6409   45.5674 H   0  0  0  0  0  0  0  0  0  0  0  0
   32.9214   24.9181   45.9241 H   0  0  0  0  0  0  0  0  0  0  0  0
   37.9848   31.9261   50.8797 H   0  0  0  0  0  0  0  0  0  0  0  0
   38.9376   33.7531   49.4790 H   0  0  0  0  0  0  0  0  0  0  0  0
   36.0178   31.4980   45.3469 Cl  0  0  0  0  0  0  0  0  0  0  0  0
   37.6621   31.2670   44.7985 C   0  0  0  0  0  0  0  0  0  0  0  0
   38.6926   31.2347   45.7136 C   0  0  0  0  0  0  0  0  0  0  0  0
   39.9854   31.0518   45.2677 C   0  0  0  0  0  0  0  0  0  0  0  0
   40.8260   31.0211   45.9651 H   0  0  0  0  0  0  0  0  0  0  0  0
   40.2570   30.9016   43.9243 C   0  0  0  0  0  0  0  0  0  0  0  0
   41.2753   30.7617   43.6209 H   0  0  0  0  0  0  0  0  0  0  0  0
   39.2424   30.9315   43.0047 C   0  0  0  0  0  0  0  0  0  0  0  0
   37.9298   31.1165   43.4476 C   0  0  0  0  0  0  0  0  0  0  0  0
   39.5297   30.8073   41.9703 H   0  0  0  0  0  0  0  0  0  0  0  0
   37.1560   31.1345   42.6921 H   0  0  0  0  0  0  0  0  0  0  0  0
  1 15  1  0
  1  2  2  0
  3  2  1  0
  4  3  2  0
  5  4  1  0
  5  1  1  0
  6  7  2  0
  7  8  1  0
  7  4  1  0
  9  8  2  0
 10  9  1  0
 11 10  1  0
 12 13  1  0
 12 11  2  0
 13  9  1  0
 14 13  2  0
 14  6  1  0
 15 16  2  0
 17 18  2  0
 17 15  1  0
 19 18  1  0
 20 19  2  0
 21 20  1  0
 21 22  2  0
 22 17  1  0
  2 23  1  0
  3 24  1  0
  6 25  1  0
  8 26  1  0
 10 27  1  0
 12 28  1  0
 14 29  1  0
 18 30  1  0
 19 31  1  0
 32 33  1  0
 33 34  2  0
 34 35  1  0
 35 36  1  0
 35 37  2  0
 37 38  1  0
 37 39  1  0
 39 40  2  0
 40 33  1  0
 39 41  1  0
 40 42  1  0
 21 34  1  0
M  ISO  8  23  14  24  14  25  14  26  14  27   9  28  14  29  14  30  14
M  ISO  3  31  14  36  15  38  16
M  END
>  <DihAtoms>  (1) 
19,20,33,32

>  <DihDeg>  (1) 
179.99722672811473

$$$$
