REMARK  Name = 
REMARK  3 active torsions:
REMARK  status: ('A' for Active; 'I' for Inactive)
REMARK    1  A    between atoms: N_1  and  C_17
REMARK    2  A    between atoms: C_6  and  C_8
REMARK    3  A    between atoms: C_18  and  C_41
REMARK                            x       y       z     vdW  Elec       q    Type
REMARK                         _______ _______ _______ _____ _____    ______ ____
ROOT
ATOM      1  N   UNL     1      34.322  29.775  46.081  0.00  0.00    +0.000 N 
ATOM      2  C   UNL     1      33.017  29.997  45.524  0.00  0.00    +0.000 C 
ATOM      3  C   UNL     1      32.999  29.827  44.032  0.00  0.00    +0.000 C 
ATOM      4  N   UNL     1      34.076  28.969  43.608  0.00  0.00    +0.000 NA
ATOM      5  C   UNL     1      35.305  29.729  43.826  0.00  0.00    +0.000 C 
ATOM      6  C   UNL     1      35.587  29.641  45.281  0.00  0.00    +0.000 C 
ATOM      7  H   UNL     1      32.292  29.296  45.971  0.00  0.00    +0.000 HD
ATOM      8  H   UNL     1      32.625  31.035  45.654  0.00  0.00    +0.000 HD
ATOM      9  H   UNL     1      33.233  30.825  43.547  0.00  0.00    +0.000 HD
ATOM     10  H   UNL     1      32.018  29.555  43.611  0.00  0.00    +0.000 HD
ATOM     11  H   UNL     1      34.003  28.932  42.545  0.00  0.00    +0.000 HD
ATOM     12  H   UNL     1      35.188  30.750  43.422  0.00  0.00    +0.000 HD
ATOM     13  H   UNL     1      36.099  29.161  43.266  0.00  0.00    +0.000 HD
ATOM     14  H   UNL     1      35.923  28.614  45.534  0.00  0.00    +0.000 HD
ENDROOT
BRANCH   6  16
ATOM     15  C   UNL     1      37.248  31.505  44.897  0.00  0.00    +0.000 A 
ATOM     16  C   UNL     1      36.631  30.557  45.740  0.00  0.00    +0.000 A 
ATOM     17  C   UNL     1      36.961  30.508  47.069  0.00  0.00    +0.000 A 
ATOM     18  C   UNL     1      37.866  31.411  47.531  0.00  0.00    +0.000 A 
ATOM     19  C   UNL     1      38.487  32.355  46.696  0.00  0.00    +0.000 A 
ATOM     20  C   UNL     1      38.188  32.418  45.322  0.00  0.00    +0.000 A 
ATOM     21  O   UNL     1      39.389  33.164  47.410  0.00  0.00    +0.000 OA
ATOM     22  C   UNL     1      39.064  32.978  48.763  0.00  0.00    +0.000 C 
ATOM     23  O   UNL     1      38.427  31.686  48.795  0.00  0.00    +0.000 OA
ATOM     24  H   UNL     1      37.005  31.534  43.850  0.00  0.00    +0.000 HD
ATOM     25  H   UNL     1      36.767  29.821  47.846  0.00  0.00    +0.000 HD
ATOM     26  H   UNL     1      38.680  33.105  44.665  0.00  0.00    +0.000 HD
ATOM     27  H   UNL     1      40.001  32.870  49.341  0.00  0.00    +0.000 HD
ATOM     28  H   UNL     1      38.406  33.782  49.120  0.00  0.00    +0.000 HD
ENDBRANCH   6  16
BRANCH   1  30
ATOM     29  C   UNL     1      34.712  28.377  48.064  0.00  0.00    +0.000 A 
ATOM     30  C   UNL     1      34.436  29.666  47.497  0.00  0.00    +0.000 A 
ATOM     31  C   UNL     1      34.345  30.707  48.357  0.00  0.00    +0.000 A 
ATOM     32  N   UNL     1      34.536  30.564  49.693  0.00  0.00    +0.000 NA
ATOM     33  C   UNL     1      34.798  29.323  50.188  0.00  0.00    +0.000 A 
ATOM     34  N   UNL     1      34.889  28.232  49.393  0.00  0.00    +0.000 NA
ATOM     35  N   UNL     1      34.958  29.120  51.594  0.00  0.00    +0.000 N 
ATOM     36  H   UNL     1      34.783  27.532  47.407  0.00  0.00    +0.000 HD
ATOM     37  H   UNL     1      35.857  29.023  52.090  0.00  0.00    +0.000 HD
ATOM     38  H   UNL     1      34.034  29.073  52.094  0.00  0.00    +0.000 HD
BRANCH  31  41
ATOM     39 CL   UNL     1      32.490  33.221  49.418  0.00  0.00    +0.000 Cl
ATOM     40  C   UNL     1      32.945  33.008  47.776  0.00  0.00    +0.000 A 
ATOM     41  C   UNL     1      33.726  31.899  47.827  0.00  0.00    +0.000 A 
ATOM     42  C   UNL     1      34.103  31.657  46.383  0.00  0.00    +0.000 A 
ATOM     43  H   UNL     1      34.726  30.857  45.926  0.00  0.00    +0.000 HD
ATOM     44  C   UNL     1      33.784  32.302  45.222  0.00  0.00    +0.000 A 
ATOM     45  H   UNL     1      33.952  32.133  44.172  0.00  0.00    +0.000 HD
ATOM     46  C   UNL     1      32.963  33.432  45.315  0.00  0.00    +0.000 A 
ATOM     47  C   UNL     1      32.594  33.705  46.658  0.00  0.00    +0.000 A 
ENDBRANCH  31  41
ENDBRANCH   1  30
TORSDOF 3
