
 OpenBabel03272501493D

 20 21  0  0  0  0  0  0  0  0999 V2000
   37.2190   29.5870   50.9030 C   0  0  0  0  0  0  0  0  0  0  0  0
   38.0980   30.0930   49.9160 C   0  0  0  0  0  0  0  0  0  0  0  0
   37.5350   30.7240   48.7960 C   0  0  0  0  0  0  0  0  0  0  0  0
   36.1720   30.8070   48.7330 N   0  0  0  0  0  0  0  0  0  0  0  0
   35.3810   30.3130   49.6930 C   0  0  0  0  0  0  0  0  0  0  0  0
   35.8710   29.7000   50.7860 N   0  0  0  0  0  0  0  0  0  0  0  0
   33.9970   30.4970   49.4490 N   0  0  0  0  0  0  0  0  0  0  0  0
   37.6200   29.0980   51.7750 H   0  0  0  0  0  0  0  0  0  0  0  0
   39.1650   29.9920   50.0280 H   0  0  0  0  0  0  0  0  0  0  0  0
   33.5750   30.4750   48.4950 H   0  0  0  0  0  0  0  0  0  0  0  0
   33.3670   30.6630   50.2670 H   0  0  0  0  0  0  0  0  0  0  0  0
   38.4940   33.4480   49.3690 Cl  0  0  0  0  0  0  0  0  0  0  0  0
   38.8770   32.5440   47.9040 C   0  0  0  0  0  0  0  0  0  0  0  0
   38.3740   31.2700   47.7370 C   0  0  0  0  0  0  0  0  0  0  0  0
   38.7090   30.6350   46.5880 C   0  0  0  0  0  0  0  0  0  0  0  0
   38.3440   29.6480   46.4120 H   0  0  0  0  0  0  0  0  0  0  0  0
   39.5180   31.2150   45.6120 C   0  0  0  0  0  0  0  0  0  0  0  0
   39.7530   30.6510   44.7060 H   0  0  0  0  0  0  0  0  0  0  0  0
   40.0010   32.4950   45.8220 C   0  0  0  0  0  0  0  0  0  0  0  0
   39.6780   33.1650   46.9760 C   0  0  0  0  0  0  0  0  0  0  0  0
  1  8  1  0  0  0  0
  2  9  1  0  0  0  0
  2  1  2  0  0  0  0
  3  2  1  0  0  0  0
  4  3  2  0  0  0  0
  4  5  1  0  0  0  0
  5  6  2  0  0  0  0
  6  1  1  0  0  0  0
  7  5  1  0  0  0  0
  7 11  1  0  0  0  0
 10  7  1  0  0  0  0
 13 12  1  0  0  0  0
 14 13  1  0  0  0  0
 14  3  1  0  0  0  0
 15 14  2  0  0  0  0
 16 15  1  0  0  0  0
 17 19  2  0  0  0  0
 17 15  1  0  0  0  0
 18 17  1  0  0  0  0
 19 20  1  0  0  0  0
 20 13  2  0  0  0  0
M  END
>  <minimizedAffinity>
-5.7090416

>  <minimizedRMSD>
1.09822106

$$$$
