
 OpenBabel03272509133D

 40 43  0  0  1  0  0  0  0  0999 V2000
   37.1760   31.7730   48.2040 N   0  0  0  0  0  0  0  0  0  0  0  0
   38.2840   32.7070   48.5350 C   0  0  0  0  0  0  0  0  0  0  0  0
   38.8890   32.0240   49.7570 C   0  0  0  0  0  0  0  0  0  0  0  0
   37.6940   31.4350   50.4650 C   0  0  0  0  0  0  0  0  0  0  0  0
   36.5370   31.6200   49.5020 C   0  0  2  0  0  0  0  0  0  0  0  0
   37.8520   33.6930   48.7770 H   0  0  0  0  0  0  0  0  0  0  0  0
   39.0150   32.7410   47.7100 H   0  0  0  0  0  0  0  0  0  0  0  0
   39.5760   31.2410   49.4050 H   0  0  0  0  0  0  0  0  0  0  0  0
   39.3810   32.7780   50.4030 H   0  0  0  0  0  0  0  0  0  0  0  0
   37.8470   30.3420   50.5820 H   0  0  0  0  0  0  0  0  0  0  0  0
   37.5040   31.9470   51.4340 H   0  0  0  0  0  0  0  0  0  0  0  0
   36.0520   32.5820   49.7250 H   0  0  0  0  0  0  0  0  0  0  0  0
   37.9440   29.0520   49.8270 Cl  0  0  0  0  0  0  0  0  0  0  0  0
   36.1850   29.2170   49.7350 C   0  0  0  0  0  0  0  0  0  0  0  0
   35.5950   30.4810   49.5880 C   0  0  0  0  0  0  0  0  0  0  0  0
   34.2210   30.4850   49.5270 C   0  0  0  0  0  0  0  0  0  0  0  0
   33.7750   31.4510   49.4090 H   0  0  0  0  0  0  0  0  0  0  0  0
   33.5090   29.3060   49.6100 C   0  0  0  0  0  0  0  0  0  0  0  0
   32.4360   29.4370   49.5510 H   0  0  0  0  0  0  0  0  0  0  0  0
   34.1100   28.0720   49.7550 C   0  0  0  0  0  3  0  0  0  0  0  0
   35.4880   28.0420   49.8170 C   0  0  0  0  0  3  0  0  0  0  0  0
   35.3950   30.5340   47.1890 C   0  0  0  0  0  0  0  0  0  0  0  0
   36.7000   31.1010   47.0490 C   0  0  0  0  0  0  0  0  0  0  0  0
   37.3560   30.9090   45.8320 C   0  0  0  0  0  0  0  0  0  0  0  0
   36.7390   30.2020   44.8450 N   0  0  0  0  0  0  0  0  0  0  0  0
   35.5040   29.6840   45.0270 C   0  0  0  0  0  0  0  0  0  0  0  0
   34.8420   29.8460   46.1770 N   0  0  0  0  0  0  0  0  0  0  0  0
   34.8150   30.6390   48.0920 H   0  0  0  0  0  0  0  0  0  0  0  0
   35.0890   29.1350   44.1920 H   0  0  0  0  0  0  0  0  0  0  0  0
   38.6640   31.4520   45.5850 C   0  0  0  0  0  0  0  0  0  0  0  0
   38.7790   32.7100   45.0410 C   0  0  0  0  0  0  0  0  0  0  0  0
   39.9960   33.3100   44.7740 C   0  0  0  0  0  0  0  0  0  0  0  0
   41.1330   32.5790   45.0810 C   0  0  0  0  0  0  0  0  0  0  0  0
   41.0950   31.3050   45.6310 C   0  0  0  0  0  0  0  0  0  0  0  0
   39.8210   30.7720   45.8710 C   0  0  0  0  0  0  0  0  0  0  0  0
   37.8920   33.2560   44.8120 H   0  0  0  0  0  0  0  0  0  0  0  0
   40.0470   34.3050   44.3440 H   0  0  0  0  0  0  0  0  0  0  0  0
   42.0770   33.0590   44.8670 H   0  0  0  0  0  0  0  0  0  0  0  0
   42.0050   30.7810   45.8510 H   0  0  0  0  0  0  0  0  0  0  0  0
   39.7450   29.7670   46.3060 H   0  0  0  0  0  0  0  0  0  0  0  0
  1  2  1  0  0  0  0
  1  5  1  0  0  0  0
  2  6  1  0  0  0  0
  2  3  1  0  0  0  0
  3  9  1  0  0  0  0
  3  4  1  0  0  0  0
  4 10  1  0  0  0  0
  4 11  1  0  0  0  0
  5 15  1  0  0  0  0
  5 12  1  1  0  0  0
  5  4  1  0  0  0  0
  7  2  1  0  0  0  0
  8  3  1  0  0  0  0
 14 21  1  0  0  0  0
 14 13  1  0  0  0  0
 15 14  2  0  0  0  0
 16 15  1  0  0  0  0
 16 18  2  0  0  0  0
 17 16  1  0  0  0  0
 18 20  1  0  0  0  0
 19 18  1  0  0  0  0
 20 21  2  0  0  0  0
 22 28  1  0  0  0  0
 23 22  1  0  0  0  0
 23  1  1  0  0  0  0
 24 23  2  0  0  0  0
 25 26  2  0  0  0  0
 25 24  1  0  0  0  0
 26 27  1  0  0  0  0
 27 22  2  0  0  0  0
 29 26  1  0  0  0  0
 30 24  1  0  0  0  0
 30 35  1  0  0  0  0
 31 30  2  0  0  0  0
 32 31  1  0  0  0  0
 32 33  2  0  0  0  0
 33 34  1  0  0  0  0
 34 39  1  0  0  0  0
 34 35  2  0  0  0  0
 35 40  1  0  0  0  0
 36 31  1  0  0  0  0
 37 32  1  0  0  0  0
 38 33  1  0  0  0  0
M  END
>  <minimizedAffinity>
-5.40877819

>  <minimizedRMSD>
1.35092342

$$$$
