
 OpenBabel03262523133D

 29 31  0  0  0  0  0  0  0  0999 V2000
   35.0950   29.3480   48.4010 C   0  0  0  0  0  0  0  0  0  0  0  0
   34.5960   28.1760   48.8660 C   0  0  0  0  0  0  0  0  0  0  0  0
   33.5420   27.6630   48.1590 C   0  0  0  0  0  0  0  0  0  0  0  0
   33.0190   28.2920   47.0510 C   0  0  0  0  0  0  0  0  0  0  0  0
   33.5670   29.4810   46.6230 C   0  0  0  0  0  0  0  0  0  0  0  0
   34.6040   29.9790   47.3240 N   0  0  0  0  0  0  0  0  0  0  0  0
   34.9740   27.6480   49.7300 H   0  0  0  0  0  0  0  0  0  0  0  0
   33.0890   26.7170   48.4790 H   0  0  0  0  0  0  0  0  0  0  0  0
   32.2090   27.8630   46.5620 H   0  0  0  0  0  0  0  0  0  0  0  0
   35.0780   29.4250   43.8680 Cl  0  0  0  0  0  0  0  0  0  0  0  0
   33.6920   30.3820   44.2480 C   0  0  0  0  0  0  0  0  0  0  0  0
   33.1490   30.2970   45.5010 C   0  0  0  0  0  0  0  0  0  0  0  0
   32.0740   31.1450   45.6590 C   0  0  0  0  0  0  0  0  0  0  0  0
   31.5130   31.2140   46.5960 H   0  0  0  0  0  0  0  0  0  0  0  0
   31.5880   31.9840   44.6830 C   0  0  0  0  0  0  0  0  0  0  0  0
   30.7490   32.6280   44.8460 H   0  0  0  0  0  0  0  0  0  0  0  0
   32.1760   32.0230   43.4400 C   0  0  0  0  0  0  0  0  0  0  0  0
   33.2560   31.1950   43.2310 C   0  0  0  0  0  0  0  0  0  0  0  0
   37.6400   30.1450   50.9140 C   0  0  0  0  0  0  0  0  0  0  0  0
   38.3480   31.2010   50.3330 C   0  0  0  0  0  0  0  0  0  0  0  0
   37.9470   31.6340   49.0760 C   0  0  0  0  0  0  0  0  0  0  0  0
   36.8970   31.0030   48.5040 N   0  0  0  0  0  0  0  0  0  0  0  0
   36.2240   29.9850   49.0800 C   0  0  0  0  0  0  0  0  0  0  0  0
   36.6180   29.5650   50.3060 N   0  0  0  0  0  0  0  0  0  0  0  0
   39.1720   31.6490   50.8520 H   0  0  0  0  0  0  0  0  0  0  0  0
   38.4570   32.4460   48.5780 H   0  0  0  0  0  0  0  0  0  0  0  0
   37.9840   29.6300   52.2120 N   0  0  0  0  0  0  0  0  0  0  0  0
   37.5430   29.7750   53.1520 H   0  0  0  0  0  0  0  0  0  0  0  0
   38.8330   29.0020   52.1690 H   0  0  0  0  0  0  0  0  0  0  0  0
  1  2  1  0  0  0  0
  1 23  1  0  0  0  0
  2  7  1  0  0  0  0
  3  8  1  0  0  0  0
  3  2  2  0  0  0  0
  4  3  1  0  0  0  0
  5  4  2  0  0  0  0
  5  6  1  0  0  0  0
  6  1  2  0  0  0  0
  9  4  1  0  0  0  0
 10 11  1  0  0  0  0
 11 12  1  0  0  0  0
 12 13  2  0  0  0  0
 12  5  1  0  0  0  0
 13 14  1  0  0  0  0
 15 16  1  0  0  0  0
 15 13  1  0  0  0  0
 17 15  2  0  0  0  0
 18 17  1  0  0  0  0
 18 11  2  0  0  0  0
 19 27  1  0  0  0  0
 20 25  1  0  0  0  0
 20 19  1  0  0  0  0
 21 20  2  0  0  0  0
 22 21  1  0  0  0  0
 22 23  2  0  0  0  0
 23 24  1  0  0  0  0
 24 19  2  0  0  0  0
 26 21  1  0  0  0  0
 27 28  1  0  0  0  0
 29 27  1  0  0  0  0
M  END
>  <minimizedAffinity>
-5.56337118

>  <minimizedRMSD>
0.774323165

$$$$
