
 OpenBabel03272508463D

 27 29  0  0  0  0  0  0  0  0999 V2000
   36.5970   28.6640   32.7030 C   0  0  0  0  0  0  0  0  0  0  0  0
   36.3100   29.7090   31.8350 C   0  0  0  0  0  0  0  0  0  0  0  0
   35.5850   30.5760   32.6450 C   0  0  0  0  0  0  0  0  0  0  0  0
   35.4690   30.0470   33.9040 C   0  0  0  0  0  0  0  0  0  0  0  0
   36.0890   28.8970   33.9050 O   0  0  0  0  0  0  0  0  0  0  0  0
   36.5730   29.8300   30.8000 H   0  0  0  0  0  0  0  0  0  0  0  0
   35.1860   31.5330   32.2750 H   0  0  0  0  0  0  0  0  0  0  0  0
   32.5280   29.3160   34.2660 Cl  0  0  0  0  0  0  0  0  0  0  0  0
   33.4530   30.4000   35.2840 C   0  0  0  0  0  0  0  0  0  0  0  0
   34.7800   30.6620   35.0320 C   0  0  0  0  0  0  0  0  0  0  0  0
   35.4530   31.5250   35.8710 C   0  0  0  0  0  0  0  0  0  0  0  0
   36.4950   31.7050   35.6370 H   0  0  0  0  0  0  0  0  0  0  0  0
   34.8870   32.1520   36.9580 C   0  0  0  0  0  0  0  0  0  0  0  0
   35.5260   32.8090   37.5400 H   0  0  0  0  0  0  0  0  0  0  0  0
   33.5410   31.8740   37.1990 C   0  0  0  0  0  3  0  0  0  0  0  0
   32.8480   31.0140   36.3730 C   0  0  0  0  0  3  0  0  0  0  0  0
   37.3640   27.4680   32.3150 C   0  0  0  0  0  0  0  0  0  0  0  0
   38.6210   27.5400   32.3370 O   0  0  0  0  0  0  0  0  0  0  0  0
   36.6000   23.9290   31.9850 C   0  0  0  0  0  0  0  0  0  0  0  0
   35.4030   23.9300   31.2410 C   0  0  0  0  0  0  0  0  0  0  0  0
   34.8560   25.1560   30.8500 C   0  0  0  0  0  0  0  0  0  0  0  0
   35.5180   26.2760   31.2170 N   0  0  0  0  0  0  0  0  0  0  0  0
   36.6590   26.2570   31.9270 C   0  0  0  0  0  0  0  0  0  0  0  0
   37.1880   25.0870   32.3040 N   0  0  0  0  0  0  0  0  0  0  0  0
   37.0510   22.9990   32.3040 H   0  0  0  0  0  0  0  0  0  0  0  0
   34.9400   22.9970   30.9900 H   0  0  0  0  0  0  0  0  0  0  0  0
   33.9370   25.1900   30.2780 H   0  0  0  0  0  0  0  0  0  0  0  0
  1  5  1  0  0  0  0
  2  3  1  0  0  0  0
  2  1  2  0  0  0  0
  3  4  2  0  0  0  0
  4  5  1  0  0  0  0
  4 10  1  0  0  0  0
  6  2  1  0  0  0  0
  7  3  1  0  0  0  0
  8  9  1  0  0  0  0
  9 16  1  0  0  0  0
 10  9  2  0  0  0  0
 10 11  1  0  0  0  0
 11 13  2  0  0  0  0
 12 11  1  0  0  0  0
 13 15  1  0  0  0  0
 13 14  1  0  0  0  0
 16 15  2  0  0  0  0
 17 18  2  0  0  0  0
 17  1  1  0  0  0  0
 19 25  1  0  0  0  0
 19 24  1  0  0  0  0
 20 19  2  0  0  0  0
 21 22  2  0  0  0  0
 21 20  1  0  0  0  0
 22 23  1  0  0  0  0
 23 24  2  0  0  0  0
 23 17  1  0  0  0  0
 26 20  1  0  0  0  0
 27 21  1  0  0  0  0
M  END
>  <minimizedAffinity>
-5.49769497

$$$$

 OpenBabel03272508463D

 27 29  0  0  0  0  0  0  0  0999 V2000
   37.9120   23.9580   33.6660 C   0  0  0  0  0  0  0  0  0  0  0  0
   37.2470   24.5660   32.6090 C   0  0  0  0  0  0  0  0  0  0  0  0
   36.6440   23.4840   31.9780 C   0  0  0  0  0  0  0  0  0  0  0  0
   36.9540   22.3260   32.6440 C   0  0  0  0  0  0  0  0  0  0  0  0
   37.7170   22.6470   33.6540 O   0  0  0  0  0  0  0  0  0  0  0  0
   37.2010   25.6050   32.3360 H   0  0  0  0  0  0  0  0  0  0  0  0
   36.0210   23.5990   31.0770 H   0  0  0  0  0  0  0  0  0  0  0  0
   35.5710   20.7170   34.8380 Cl  0  0  0  0  0  0  0  0  0  0  0  0
   35.8740   20.1770   33.2000 C   0  0  0  0  0  0  0  0  0  0  0  0
   36.5080   20.9860   32.2850 C   0  0  0  0  0  0  0  0  0  0  0  0
   36.7170   20.5020   31.0100 C   0  0  0  0  0  0  0  0  0  0  0  0
   37.2200   21.1690   30.3210 H   0  0  0  0  0  0  0  0  0  0  0  0
   36.3320   19.2520   30.5800 C   0  0  0  0  0  0  0  0  0  0  0  0
   36.5550   18.9910   29.5500 H   0  0  0  0  0  0  0  0  0  0  0  0
   35.6910   18.4460   31.5220 C   0  0  0  0  0  3  0  0  0  0  0  0
   35.4710   18.9080   32.8020 C   0  0  0  0  0  3  0  0  0  0  0  0
   38.7190   24.6950   34.6530 C   0  0  0  0  0  0  0  0  0  0  0  0
   39.3080   25.7400   34.2730 O   0  0  0  0  0  0  0  0  0  0  0  0
   37.9490   24.2780   38.1820 C   0  0  0  0  0  0  0  0  0  0  0  0
   38.9030   23.3340   38.6060 C   0  0  0  0  0  0  0  0  0  0  0  0
   39.8180   22.8370   37.6740 C   0  0  0  0  0  0  0  0  0  0  0  0
   39.7270   23.3010   36.4070 N   0  0  0  0  0  0  0  0  0  0  0  0
   38.8090   24.2020   36.0180 C   0  0  0  0  0  0  0  0  0  0  0  0
   37.9300   24.6810   36.9070 N   0  0  0  0  0  0  0  0  0  0  0  0
   37.2250   24.6840   38.8770 H   0  0  0  0  0  0  0  0  0  0  0  0
   38.9100   23.0170   39.6300 H   0  0  0  0  0  0  0  0  0  0  0  0
   40.5650   22.1100   37.9690 H   0  0  0  0  0  0  0  0  0  0  0  0
  1 17  1  0  0  0  0
  2  1  2  0  0  0  0
  3  2  1  0  0  0  0
  3  4  2  0  0  0  0
  4  5  1  0  0  0  0
  5  1  1  0  0  0  0
  6  2  1  0  0  0  0
  7  3  1  0  0  0  0
  9  8  1  0  0  0  0
 10  4  1  0  0  0  0
 10  9  2  0  0  0  0
 11 10  1  0  0  0  0
 12 11  1  0  0  0  0
 13 11  2  0  0  0  0
 13 15  1  0  0  0  0
 14 13  1  0  0  0  0
 15 16  2  0  0  0  0
 16  9  1  0  0  0  0
 17 23  1  0  0  0  0
 18 17  2  0  0  0  0
 19 20  1  0  0  0  0
 19 25  1  0  0  0  0
 20 26  1  0  0  0  0
 21 27  1  0  0  0  0
 21 20  2  0  0  0  0
 22 21  1  0  0  0  0
 23 22  2  0  0  0  0
 23 24  1  0  0  0  0
 24 19  2  0  0  0  0
M  END
>  <minimizedAffinity>
-5.48617649

$$$$

 OpenBabel03272508463D

 27 29  0  0  0  0  0  0  0  0999 V2000
   36.3140   28.6630   32.8460 C   0  0  0  0  0  0  0  0  0  0  0  0
   36.0090   29.7160   31.9940 C   0  0  0  0  0  0  0  0  0  0  0  0
   35.1930   30.5120   32.7890 C   0  0  0  0  0  0  0  0  0  0  0  0
   35.0450   29.9370   34.0250 C   0  0  0  0  0  0  0  0  0  0  0  0
   35.7330   28.8270   34.0250 O   0  0  0  0  0  0  0  0  0  0  0  0
   36.3170   29.8870   30.9780 H   0  0  0  0  0  0  0  0  0  0  0  0
   34.7550   31.4560   32.4270 H   0  0  0  0  0  0  0  0  0  0  0  0
   36.4140   32.0340   35.7720 Cl  0  0  0  0  0  0  0  0  0  0  0  0
   34.7860   31.4230   35.9800 C   0  0  0  0  0  0  0  0  0  0  0  0
   34.2630   30.4740   35.1320 C   0  0  0  0  0  0  0  0  0  0  0  0
   32.9740   30.0330   35.3490 C   0  0  0  0  0  0  0  0  0  0  0  0
   32.6000   29.2850   34.6610 H   0  0  0  0  0  0  0  0  0  0  0  0
   32.1610   30.4800   36.3670 C   0  0  0  0  0  0  0  0  0  0  0  0
   31.1640   30.0530   36.4290 H   0  0  0  0  0  0  0  0  0  0  0  0
   32.7080   31.4430   37.2160 C   0  0  0  0  0  3  0  0  0  0  0  0
   33.9940   31.8980   37.0180 C   0  0  0  0  0  3  0  0  0  0  0  0
   37.1720   27.5280   32.4640 C   0  0  0  0  0  0  0  0  0  0  0  0
   38.4190   27.6790   32.5390 O   0  0  0  0  0  0  0  0  0  0  0  0
   36.6370   23.9570   32.0450 C   0  0  0  0  0  0  0  0  0  0  0  0
   35.4860   23.9000   31.2360 C   0  0  0  0  0  0  0  0  0  0  0  0
   34.8900   25.0970   30.8310 C   0  0  0  0  0  0  0  0  0  0  0  0
   35.4630   26.2480   31.2480 N   0  0  0  0  0  0  0  0  0  0  0  0
   36.5620   26.2850   32.0210 C   0  0  0  0  0  0  0  0  0  0  0  0
   37.1370   25.1410   32.4120 N   0  0  0  0  0  0  0  0  0  0  0  0
   37.1250   23.0490   32.3770 H   0  0  0  0  0  0  0  0  0  0  0  0
   35.0930   22.9450   30.9470 H   0  0  0  0  0  0  0  0  0  0  0  0
   34.0030   25.0870   30.2080 H   0  0  0  0  0  0  0  0  0  0  0  0
  1  5  1  0  0  0  0
  2  3  1  0  0  0  0
  2  1  2  0  0  0  0
  3  4  2  0  0  0  0
  4 10  1  0  0  0  0
  5  4  1  0  0  0  0
  6  2  1  0  0  0  0
  7  3  1  0  0  0  0
  8  9  1  0  0  0  0
  9 16  1  0  0  0  0
 10 11  1  0  0  0  0
 10  9  2  0  0  0  0
 11 13  2  0  0  0  0
 12 11  1  0  0  0  0
 13 14  1  0  0  0  0
 13 15  1  0  0  0  0
 16 15  2  0  0  0  0
 17 18  2  0  0  0  0
 17  1  1  0  0  0  0
 19 25  1  0  0  0  0
 19 24  1  0  0  0  0
 20 19  2  0  0  0  0
 21 20  1  0  0  0  0
 21 22  2  0  0  0  0
 22 23  1  0  0  0  0
 23 24  2  0  0  0  0
 23 17  1  0  0  0  0
 26 20  1  0  0  0  0
 27 21  1  0  0  0  0
M  END
>  <minimizedAffinity>
-5.46415758

$$$$

 OpenBabel03272508463D

 27 29  0  0  0  0  0  0  0  0999 V2000
   38.1000   25.5060   35.8120 C   0  0  0  0  0  0  0  0  0  0  0  0
   38.3530   26.7100   36.4560 C   0  0  0  0  0  0  0  0  0  0  0  0
   38.0680   27.6410   35.4640 C   0  0  0  0  0  0  0  0  0  0  0  0
   37.6750   26.9950   34.3200 C   0  0  0  0  0  0  0  0  0  0  0  0
   37.7060   25.7120   34.5640 O   0  0  0  0  0  0  0  0  0  0  0  0
   38.6840   26.8920   37.4630 H   0  0  0  0  0  0  0  0  0  0  0  0
   38.1620   28.7260   35.6290 H   0  0  0  0  0  0  0  0  0  0  0  0
   39.7150   26.8670   32.0530 Cl  0  0  0  0  0  0  0  0  0  0  0  0
   38.1410   27.6310   31.9800 C   0  0  0  0  0  0  0  0  0  0  0  0
   37.2940   27.6310   33.0650 C   0  0  0  0  0  0  0  0  0  0  0  0
   36.0670   28.2500   32.9440 C   0  0  0  0  0  0  0  0  0  0  0  0
   35.4310   28.2290   33.8210 H   0  0  0  0  0  0  0  0  0  0  0  0
   35.6210   28.8750   31.8020 C   0  0  0  0  0  0  0  0  0  0  0  0
   34.6330   29.3250   31.8360 H   0  0  0  0  0  0  0  0  0  0  0  0
   36.4920   28.8650   30.7120 C   0  0  0  0  0  3  0  0  0  0  0  0
   37.7240   28.2520   30.8100 C   0  0  0  0  0  3  0  0  0  0  0  0
   38.2580   24.1900   36.4530 C   0  0  0  0  0  0  0  0  0  0  0  0
   37.2410   23.6590   36.9720 O   0  0  0  0  0  0  0  0  0  0  0  0
   40.9530   21.9710   37.4700 C   0  0  0  0  0  0  0  0  0  0  0  0
   41.9870   22.2930   36.5690 C   0  0  0  0  0  0  0  0  0  0  0  0
   41.7560   23.2790   35.6050 C   0  0  0  0  0  0  0  0  0  0  0  0
   40.5390   23.8680   35.6000 N   0  0  0  0  0  0  0  0  0  0  0  0
   39.5640   23.5490   36.4670 C   0  0  0  0  0  0  0  0  0  0  0  0
   39.7790   22.6060   37.3920 N   0  0  0  0  0  0  0  0  0  0  0  0
   41.0970   21.2130   38.2280 H   0  0  0  0  0  0  0  0  0  0  0  0
   42.9250   21.7790   36.6390 H   0  0  0  0  0  0  0  0  0  0  0  0
   42.5310   23.5490   34.8980 H   0  0  0  0  0  0  0  0  0  0  0  0
  1 17  1  0  0  0  0
  1  2  2  0  0  0  0
  2  6  1  0  0  0  0
  3  7  1  0  0  0  0
  3  2  1  0  0  0  0
  4  5  1  0  0  0  0
  4  3  2  0  0  0  0
  5  1  1  0  0  0  0
  9  8  1  0  0  0  0
  9 10  1  0  0  0  0
 10  4  1  0  0  0  0
 11 10  2  0  0  0  0
 11 12  1  0  0  0  0
 13 14  1  0  0  0  0
 13 11  1  0  0  0  0
 15 16  1  0  0  0  0
 15 13  2  0  0  0  0
 16  9  2  0  0  0  0
 17 23  1  0  0  0  0
 17 18  2  0  0  0  0
 19 25  1  0  0  0  0
 20 26  1  0  0  0  0
 20 19  2  0  0  0  0
 21 20  1  0  0  0  0
 22 21  2  0  0  0  0
 22 23  1  0  0  0  0
 23 24  2  0  0  0  0
 24 19  1  0  0  0  0
 27 21  1  0  0  0  0
M  END
>  <minimizedAffinity>
-5.44543934

$$$$

 OpenBabel03272508463D

 27 29  0  0  0  0  0  0  0  0999 V2000
   37.5930   23.9910   32.7050 C   0  0  0  0  0  0  0  0  0  0  0  0
   38.0520   25.2990   32.7870 C   0  0  0  0  0  0  0  0  0  0  0  0
   38.4650   25.3840   34.1120 C   0  0  0  0  0  0  0  0  0  0  0  0
   38.2490   24.1860   34.7440 C   0  0  0  0  0  0  0  0  0  0  0  0
   37.7250   23.3710   33.8680 O   0  0  0  0  0  0  0  0  0  0  0  0
   38.0860   26.0610   32.0300 H   0  0  0  0  0  0  0  0  0  0  0  0
   38.8930   26.3040   34.5380 H   0  0  0  0  0  0  0  0  0  0  0  0
   40.6330   22.3480   35.2520 Cl  0  0  0  0  0  0  0  0  0  0  0  0
   39.6070   23.0670   36.4760 C   0  0  0  0  0  0  0  0  0  0  0  0
   38.5530   23.8850   36.1370 C   0  0  0  0  0  0  0  0  0  0  0  0
   37.7820   24.4210   37.1480 C   0  0  0  0  0  0  0  0  0  0  0  0
   36.9630   25.0590   36.8390 H   0  0  0  0  0  0  0  0  0  0  0  0
   37.9920   24.1940   38.4890 C   0  0  0  0  0  0  0  0  0  0  0  0
   37.3130   24.6760   39.1860 H   0  0  0  0  0  0  0  0  0  0  0  0
   39.0650   23.3620   38.8140 C   0  0  0  0  0  3  0  0  0  0  0  0
   39.8490   22.8150   37.8200 C   0  0  0  0  0  3  0  0  0  0  0  0
   37.0400   23.3970   31.4760 C   0  0  0  0  0  0  0  0  0  0  0  0
   37.0630   24.0880   30.4240 O   0  0  0  0  0  0  0  0  0  0  0  0
   34.7590   20.6660   32.2230 C   0  0  0  0  0  0  0  0  0  0  0  0
   35.3890   19.5540   31.6320 C   0  0  0  0  0  0  0  0  0  0  0  0
   36.6070   19.7440   30.9730 C   0  0  0  0  0  0  0  0  0  0  0  0
   37.1080   21.0000   30.9440 N   0  0  0  0  0  0  0  0  0  0  0  0
   36.4930   22.0500   31.5130 C   0  0  0  0  0  0  0  0  0  0  0  0
   35.3260   21.8740   32.1450 N   0  0  0  0  0  0  0  0  0  0  0  0
   33.8150   20.5560   32.7410 H   0  0  0  0  0  0  0  0  0  0  0  0
   34.9260   18.5900   31.6990 H   0  0  0  0  0  0  0  0  0  0  0  0
   37.1170   18.9090   30.5080 H   0  0  0  0  0  0  0  0  0  0  0  0
  1  2  2  0  0  0  0
  1  5  1  0  0  0  0
  2  3  1  0  0  0  0
  3  7  1  0  0  0  0
  3  4  2  0  0  0  0
  4 10  1  0  0  0  0
  5  4  1  0  0  0  0
  6  2  1  0  0  0  0
  8  9  1  0  0  0  0
  9 16  1  0  0  0  0
 10  9  2  0  0  0  0
 10 11  1  0  0  0  0
 11 13  2  0  0  0  0
 12 11  1  0  0  0  0
 13 15  1  0  0  0  0
 13 14  1  0  0  0  0
 16 15  2  0  0  0  0
 17 23  1  0  0  0  0
 17  1  1  0  0  0  0
 18 17  2  0  0  0  0
 19 25  1  0  0  0  0
 20 26  1  0  0  0  0
 20 19  2  0  0  0  0
 21 20  1  0  0  0  0
 22 21  2  0  0  0  0
 22 23  1  0  0  0  0
 23 24  2  0  0  0  0
 24 19  1  0  0  0  0
 27 21  1  0  0  0  0
M  END
>  <minimizedAffinity>
-5.31166077

$$$$

 OpenBabel03272508463D

 27 29  0  0  0  0  0  0  0  0999 V2000
   36.1960   25.8160   31.8500 C   0  0  0  0  0  0  0  0  0  0  0  0
   35.1550   25.7410   30.9340 C   0  0  0  0  0  0  0  0  0  0  0  0
   34.9970   24.3680   30.7770 C   0  0  0  0  0  0  0  0  0  0  0  0
   35.9020   23.7040   31.5640 C   0  0  0  0  0  0  0  0  0  0  0  0
   36.6070   24.6040   32.1960 O   0  0  0  0  0  0  0  0  0  0  0  0
   34.6030   26.5310   30.4590 H   0  0  0  0  0  0  0  0  0  0  0  0
   34.2400   23.9350   30.1050 H   0  0  0  0  0  0  0  0  0  0  0  0
   38.4020   22.4850   30.3060 Cl  0  0  0  0  0  0  0  0  0  0  0  0
   37.1350   21.6080   31.1380 C   0  0  0  0  0  0  0  0  0  0  0  0
   36.0460   22.2580   31.6710 C   0  0  0  0  0  0  0  0  0  0  0  0
   35.0810   21.5100   32.3140 C   0  0  0  0  0  0  0  0  0  0  0  0
   34.2400   22.0580   32.7190 H   0  0  0  0  0  0  0  0  0  0  0  0
   35.1300   20.1420   32.4640 C   0  0  0  0  0  0  0  0  0  0  0  0
   34.3060   19.6710   32.9930 H   0  0  0  0  0  0  0  0  0  0  0  0
   36.2420   19.5000   31.9180 C   0  0  0  0  0  3  0  0  0  0  0  0
   37.2190   20.2280   31.2700 C   0  0  0  0  0  3  0  0  0  0  0  0
   36.7490   27.0840   32.3530 C   0  0  0  0  0  0  0  0  0  0  0  0
   36.3650   28.1530   31.8100 O   0  0  0  0  0  0  0  0  0  0  0  0
   38.0390   27.1090   35.7520 C   0  0  0  0  0  0  0  0  0  0  0  0
   39.4330   27.0360   35.5640 C   0  0  0  0  0  0  0  0  0  0  0  0
   39.9330   26.9800   34.2600 C   0  0  0  0  0  0  0  0  0  0  0  0
   39.0350   26.9970   33.2490 N   0  0  0  0  0  0  0  0  0  0  0  0
   37.7070   27.0660   33.4470 C   0  0  0  0  0  0  0  0  0  0  0  0
   37.2230   27.1200   34.6930 N   0  0  0  0  0  0  0  0  0  0  0  0
   37.6170   27.1540   36.7470 H   0  0  0  0  0  0  0  0  0  0  0  0
   40.0800   27.0280   36.4190 H   0  0  0  0  0  0  0  0  0  0  0  0
   41.0000   26.9230   34.0820 H   0  0  0  0  0  0  0  0  0  0  0  0
  1  5  1  0  0  0  0
  1 17  1  0  0  0  0
  2  1  2  0  0  0  0
  3  2  1  0  0  0  0
  3  4  2  0  0  0  0
  4 10  1  0  0  0  0
  4  5  1  0  0  0  0
  6  2  1  0  0  0  0
  7  3  1  0  0  0  0
  8  9  1  0  0  0  0
  9 16  2  0  0  0  0
  9 10  1  0  0  0  0
 10 11  2  0  0  0  0
 11 13  1  0  0  0  0
 11 12  1  0  0  0  0
 13 14  1  0  0  0  0
 15 13  2  0  0  0  0
 16 15  1  0  0  0  0
 17 23  1  0  0  0  0
 18 17  2  0  0  0  0
 19 25  1  0  0  0  0
 20 19  1  0  0  0  0
 20 26  1  0  0  0  0
 21 20  2  0  0  0  0
 22 23  2  0  0  0  0
 22 21  1  0  0  0  0
 23 24  1  0  0  0  0
 24 19  2  0  0  0  0
 27 21  1  0  0  0  0
M  END
>  <minimizedAffinity>
-5.2565918

$$$$

 OpenBabel03272508463D

 27 29  0  0  0  0  0  0  0  0999 V2000
   36.4760   28.2430   33.1740 C   0  0  0  0  0  0  0  0  0  0  0  0
   36.1040   29.0940   32.1420 C   0  0  0  0  0  0  0  0  0  0  0  0
   35.4100   30.0910   32.8170 C   0  0  0  0  0  0  0  0  0  0  0  0
   35.3900   29.8160   34.1600 C   0  0  0  0  0  0  0  0  0  0  0  0
   36.0410   28.6970   34.3400 O   0  0  0  0  0  0  0  0  0  0  0  0
   36.2970   29.0160   31.0870 H   0  0  0  0  0  0  0  0  0  0  0  0
   34.9610   30.9520   32.2980 H   0  0  0  0  0  0  0  0  0  0  0  0
   32.4060   29.3610   34.6150 Cl  0  0  0  0  0  0  0  0  0  0  0  0
   33.4170   30.5010   35.4770 C   0  0  0  0  0  0  0  0  0  0  0  0
   34.7580   30.6280   35.1920 C   0  0  0  0  0  0  0  0  0  0  0  0
   35.5010   31.5450   35.9070 C   0  0  0  0  0  0  0  0  0  0  0  0
   36.5510   31.6140   35.6520 H   0  0  0  0  0  0  0  0  0  0  0  0
   34.9920   32.3540   36.8980 C   0  0  0  0  0  0  0  0  0  0  0  0
   35.6830   33.0350   37.3860 H   0  0  0  0  0  0  0  0  0  0  0  0
   33.6310   32.2120   37.1730 C   0  0  0  0  0  3  0  0  0  0  0  0
   32.8690   31.3020   36.4710 C   0  0  0  0  0  3  0  0  0  0  0  0
   37.2500   27.0060   32.9720 C   0  0  0  0  0  0  0  0  0  0  0  0
   36.6480   26.0010   32.5110 O   0  0  0  0  0  0  0  0  0  0  0  0
   40.8530   27.2270   32.5430 C   0  0  0  0  0  0  0  0  0  0  0  0
   41.3450   26.9600   33.8360 C   0  0  0  0  0  0  0  0  0  0  0  0
   40.4310   26.7020   34.8620 C   0  0  0  0  0  0  0  0  0  0  0  0
   39.1170   26.7260   34.5440 N   0  0  0  0  0  0  0  0  0  0  0  0
   38.6660   26.9830   33.3040 C   0  0  0  0  0  0  0  0  0  0  0  0
   39.5350   27.2310   32.3180 N   0  0  0  0  0  0  0  0  0  0  0  0
   41.5320   27.4300   31.7250 H   0  0  0  0  0  0  0  0  0  0  0  0
   42.4030   26.9590   34.0060 H   0  0  0  0  0  0  0  0  0  0  0  0
   40.7770   26.4930   35.8670 H   0  0  0  0  0  0  0  0  0  0  0  0
  1  5  1  0  0  0  0
  2  3  1  0  0  0  0
  2  1  2  0  0  0  0
  3  4  2  0  0  0  0
  4  5  1  0  0  0  0
  4 10  1  0  0  0  0
  6  2  1  0  0  0  0
  7  3  1  0  0  0  0
  8  9  1  0  0  0  0
  9 16  1  0  0  0  0
 10  9  2  0  0  0  0
 10 11  1  0  0  0  0
 11 13  2  0  0  0  0
 12 11  1  0  0  0  0
 13 15  1  0  0  0  0
 13 14  1  0  0  0  0
 16 15  2  0  0  0  0
 17  1  1  0  0  0  0
 17 23  1  0  0  0  0
 18 17  2  0  0  0  0
 19 20  1  0  0  0  0
 20 26  1  0  0  0  0
 20 21  2  0  0  0  0
 21 27  1  0  0  0  0
 22 21  1  0  0  0  0
 23 22  2  0  0  0  0
 24 19  2  0  0  0  0
 24 23  1  0  0  0  0
 25 19  1  0  0  0  0
M  END
>  <minimizedAffinity>
-5.22329998

$$$$

 OpenBabel03272508463D

 27 29  0  0  0  0  0  0  0  0999 V2000
   38.1470   25.2690   34.0140 C   0  0  0  0  0  0  0  0  0  0  0  0
   39.2150   25.9060   33.3940 C   0  0  0  0  0  0  0  0  0  0  0  0
   38.6640   27.1330   33.0430 C   0  0  0  0  0  0  0  0  0  0  0  0
   37.3530   27.1850   33.4440 C   0  0  0  0  0  0  0  0  0  0  0  0
   37.0750   26.0480   34.0240 O   0  0  0  0  0  0  0  0  0  0  0  0
   40.2160   25.5530   33.2230 H   0  0  0  0  0  0  0  0  0  0  0  0
   39.2410   27.9110   32.5200 H   0  0  0  0  0  0  0  0  0  0  0  0
   36.4310   27.7230   30.5840 Cl  0  0  0  0  0  0  0  0  0  0  0  0
   35.9680   28.6360   32.0050 C   0  0  0  0  0  0  0  0  0  0  0  0
   36.4430   28.3080   33.2540 C   0  0  0  0  0  0  0  0  0  0  0  0
   36.0410   29.0660   34.3340 C   0  0  0  0  0  0  0  0  0  0  0  0
   36.4390   28.7760   35.2990 H   0  0  0  0  0  0  0  0  0  0  0  0
   35.1870   30.1430   34.2520 C   0  0  0  0  0  0  0  0  0  0  0  0
   34.9480   30.6580   35.1790 H   0  0  0  0  0  0  0  0  0  0  0  0
   34.7150   30.4610   32.9780 C   0  0  0  0  0  3  0  0  0  0  0  0
   35.1030   29.7170   31.8850 C   0  0  0  0  0  3  0  0  0  0  0  0
   38.2230   23.9100   34.5750 C   0  0  0  0  0  0  0  0  0  0  0  0
   38.0810   22.9370   33.7890 O   0  0  0  0  0  0  0  0  0  0  0  0
   39.8090   22.8050   37.6550 C   0  0  0  0  0  0  0  0  0  0  0  0
   38.9780   23.3500   38.6540 C   0  0  0  0  0  0  0  0  0  0  0  0
   37.8650   24.1010   38.2660 C   0  0  0  0  0  0  0  0  0  0  0  0
   37.6550   24.2600   36.9400 N   0  0  0  0  0  0  0  0  0  0  0  0
   38.4580   23.7340   36.0000 C   0  0  0  0  0  0  0  0  0  0  0  0
   39.5250   23.0130   36.3650 N   0  0  0  0  0  0  0  0  0  0  0  0
   40.6780   22.2180   37.9190 H   0  0  0  0  0  0  0  0  0  0  0  0
   39.2130   23.1770   39.6850 H   0  0  0  0  0  0  0  0  0  0  0  0
   37.2070   24.5330   39.0100 H   0  0  0  0  0  0  0  0  0  0  0  0
  1  5  1  0  0  0  0
  1 17  1  0  0  0  0
  2  1  2  0  0  0  0
  3  2  1  0  0  0  0
  3  4  2  0  0  0  0
  4  5  1  0  0  0  0
  6  2  1  0  0  0  0
  7  3  1  0  0  0  0
  8  9  1  0  0  0  0
  9 10  1  0  0  0  0
 10  4  1  0  0  0  0
 10 11  2  0  0  0  0
 11 12  1  0  0  0  0
 13 11  1  0  0  0  0
 13 14  1  0  0  0  0
 15 13  2  0  0  0  0
 16  9  2  0  0  0  0
 16 15  1  0  0  0  0
 17 23  1  0  0  0  0
 18 17  2  0  0  0  0
 19 25  1  0  0  0  0
 19 20  1  0  0  0  0
 20 26  1  0  0  0  0
 21 20  2  0  0  0  0
 21 27  1  0  0  0  0
 22 21  1  0  0  0  0
 23 24  1  0  0  0  0
 23 22  2  0  0  0  0
 24 19  2  0  0  0  0
M  END
>  <minimizedAffinity>
-5.22100067

$$$$

 OpenBabel03272508463D

 27 29  0  0  0  0  0  0  0  0999 V2000
   36.1100   28.5280   33.0280 C   0  0  0  0  0  0  0  0  0  0  0  0
   35.8180   29.5400   32.1230 C   0  0  0  0  0  0  0  0  0  0  0  0
   35.0560   30.4130   32.8910 C   0  0  0  0  0  0  0  0  0  0  0  0
   34.9250   29.9190   34.1630 C   0  0  0  0  0  0  0  0  0  0  0  0
   35.5700   28.7840   34.2110 O   0  0  0  0  0  0  0  0  0  0  0  0
   36.1020   29.6380   31.0910 H   0  0  0  0  0  0  0  0  0  0  0  0
   34.6440   31.3490   32.4840 H   0  0  0  0  0  0  0  0  0  0  0  0
   36.4250   32.0550   35.7450 Cl  0  0  0  0  0  0  0  0  0  0  0  0
   34.7810   31.5250   36.0330 C   0  0  0  0  0  0  0  0  0  0  0  0
   34.1970   30.5500   35.2570 C   0  0  0  0  0  0  0  0  0  0  0  0
   32.8980   30.1760   35.5340 C   0  0  0  0  0  0  0  0  0  0  0  0
   32.4760   29.4050   34.9000 H   0  0  0  0  0  0  0  0  0  0  0  0
   32.1330   30.7140   36.5440 C   0  0  0  0  0  0  0  0  0  0  0  0
   31.1220   30.3320   36.6580 H   0  0  0  0  0  0  0  0  0  0  0  0
   32.7410   31.7010   37.3200 C   0  0  0  0  0  3  0  0  0  0  0  0
   34.0380   32.0910   37.0620 C   0  0  0  0  0  3  0  0  0  0  0  0
   36.9130   27.3400   32.6920 C   0  0  0  0  0  0  0  0  0  0  0  0
   36.4140   26.4930   31.9060 O   0  0  0  0  0  0  0  0  0  0  0  0
   40.5360   27.1090   32.8860 C   0  0  0  0  0  0  0  0  0  0  0  0
   40.7680   26.9010   34.2600 C   0  0  0  0  0  0  0  0  0  0  0  0
   39.6720   26.8390   35.1250 C   0  0  0  0  0  0  0  0  0  0  0  0
   38.4430   26.9860   34.5810 N   0  0  0  0  0  0  0  0  0  0  0  0
   38.2390   27.1840   33.2680 C   0  0  0  0  0  0  0  0  0  0  0  0
   39.2850   27.2440   32.4340 N   0  0  0  0  0  0  0  0  0  0  0  0
   41.3600   27.1620   32.1880 H   0  0  0  0  0  0  0  0  0  0  0  0
   41.7750   26.7930   34.6120 H   0  0  0  0  0  0  0  0  0  0  0  0
   39.8180   26.6800   36.1860 H   0  0  0  0  0  0  0  0  0  0  0  0
  1  5  1  0  0  0  0
  2  3  1  0  0  0  0
  2  1  2  0  0  0  0
  3  4  2  0  0  0  0
  4  5  1  0  0  0  0
  4 10  1  0  0  0  0
  6  2  1  0  0  0  0
  7  3  1  0  0  0  0
  8  9  1  0  0  0  0
  9 16  1  0  0  0  0
 10 11  1  0  0  0  0
 10  9  2  0  0  0  0
 11 13  2  0  0  0  0
 12 11  1  0  0  0  0
 13 14  1  0  0  0  0
 13 15  1  0  0  0  0
 16 15  2  0  0  0  0
 17  1  1  0  0  0  0
 17 23  1  0  0  0  0
 18 17  2  0  0  0  0
 19 20  1  0  0  0  0
 20 26  1  0  0  0  0
 20 21  2  0  0  0  0
 21 27  1  0  0  0  0
 22 21  1  0  0  0  0
 23 22  2  0  0  0  0
 24 19  2  0  0  0  0
 24 23  1  0  0  0  0
 25 19  1  0  0  0  0
M  END
>  <minimizedAffinity>
-5.18316555

$$$$
