
 OpenBabel03262523143D

 29 31  0  0  0  0  0  0  0  0999 V2000
   37.1540   25.3320   32.4470 C   0  0  0  0  0  0  0  0  0  0  0  0
   36.3340   26.2120   31.8210 C   0  0  0  0  0  0  0  0  0  0  0  0
   35.3400   25.6550   31.0640 C   0  0  0  0  0  0  0  0  0  0  0  0
   35.1780   24.2930   30.9430 C   0  0  0  0  0  0  0  0  0  0  0  0
   36.0410   23.4460   31.6020 C   0  0  0  0  0  0  0  0  0  0  0  0
   37.0170   24.0020   32.3450 N   0  0  0  0  0  0  0  0  0  0  0  0
   36.4240   27.2880   31.8870 H   0  0  0  0  0  0  0  0  0  0  0  0
   34.6400   26.3090   30.5300 H   0  0  0  0  0  0  0  0  0  0  0  0
   34.4140   23.9260   30.3420 H   0  0  0  0  0  0  0  0  0  0  0  0
   38.3340   21.8070   30.2110 Cl  0  0  0  0  0  0  0  0  0  0  0  0
   36.9660   21.1460   31.0320 C   0  0  0  0  0  0  0  0  0  0  0  0
   36.0470   21.9960   31.5840 C   0  0  0  0  0  0  0  0  0  0  0  0
   34.9990   21.3190   32.1700 C   0  0  0  0  0  0  0  0  0  0  0  0
   34.1690   21.8340   32.6620 H   0  0  0  0  0  0  0  0  0  0  0  0
   34.8740   19.9490   32.2060 C   0  0  0  0  0  0  0  0  0  0  0  0
   34.0440   19.4610   32.6720 H   0  0  0  0  0  0  0  0  0  0  0  0
   35.8330   19.1450   31.6330 C   0  0  0  0  0  3  0  0  0  0  0  0
   36.9010   19.7740   31.0330 C   0  0  0  0  0  3  0  0  0  0  0  0
   38.9960   26.9540   35.1680 C   0  0  0  0  0  0  0  0  0  0  0  0
   40.3340   26.7230   34.8350 C   0  0  0  0  0  0  0  0  0  0  0  0
   40.5960   26.0070   33.6750 C   0  0  0  0  0  0  0  0  0  0  0  0
   39.5380   25.5860   32.9480 N   0  0  0  0  0  0  0  0  0  0  0  0
   38.2510   25.8190   33.2830 C   0  0  0  0  0  0  0  0  0  0  0  0
   37.9990   26.5170   34.4160 N   0  0  0  0  0  0  0  0  0  0  0  0
   41.1190   27.0900   35.4670 H   0  0  0  0  0  0  0  0  0  0  0  0
   41.6110   25.7970   33.3690 H   0  0  0  0  0  0  0  0  0  0  0  0
   38.6280   27.6850   36.3510 N   0  0  0  0  0  0  0  0  0  0  0  0
   38.3030   28.6740   36.4780 H   0  0  0  0  0  0  0  0  0  0  0  0
   38.7130   27.0890   37.2190 H   0  0  0  0  0  0  0  0  0  0  0  0
  1 23  1  0  0  0  0
  2  7  1  0  0  0  0
  2  1  2  0  0  0  0
  3  2  1  0  0  0  0
  4  3  2  0  0  0  0
  4  5  1  0  0  0  0
  5  6  2  0  0  0  0
  6  1  1  0  0  0  0
  8  3  1  0  0  0  0
  9  4  1  0  0  0  0
 10 11  1  0  0  0  0
 11 18  2  0  0  0  0
 11 12  1  0  0  0  0
 12  5  1  0  0  0  0
 12 13  2  0  0  0  0
 13 15  1  0  0  0  0
 13 14  1  0  0  0  0
 15 16  1  0  0  0  0
 17 15  2  0  0  0  0
 18 17  1  0  0  0  0
 19 27  1  0  0  0  0
 20 19  1  0  0  0  0
 20 25  1  0  0  0  0
 21 20  2  0  0  0  0
 22 23  2  0  0  0  0
 22 21  1  0  0  0  0
 23 24  1  0  0  0  0
 24 19  2  0  0  0  0
 26 21  1  0  0  0  0
 27 28  1  0  0  0  0
 27 29  1  0  0  0  0
M  END
>  <minimizedAffinity>
-5.9809103

$$$$

 OpenBabel03262523143D

 29 31  0  0  0  0  0  0  0  0999 V2000
   38.1500   24.1050   34.6180 C   0  0  0  0  0  0  0  0  0  0  0  0
   38.3120   25.3500   34.1050 C   0  0  0  0  0  0  0  0  0  0  0  0
   38.0000   25.4850   32.7790 C   0  0  0  0  0  0  0  0  0  0  0  0
   37.5520   24.4310   32.0140 C   0  0  0  0  0  0  0  0  0  0  0  0
   37.4060   23.1880   32.5890 C   0  0  0  0  0  0  0  0  0  0  0  0
   37.7160   23.0630   33.8940 N   0  0  0  0  0  0  0  0  0  0  0  0
   38.6600   26.2040   34.6670 H   0  0  0  0  0  0  0  0  0  0  0  0
   38.1070   26.4640   32.2990 H   0  0  0  0  0  0  0  0  0  0  0  0
   37.3440   24.5890   31.0090 H   0  0  0  0  0  0  0  0  0  0  0  0
   39.1400   21.7430   30.4020 Cl  0  0  0  0  0  0  0  0  0  0  0  0
   37.6070   21.2150   30.9970 C   0  0  0  0  0  0  0  0  0  0  0  0
   36.9720   21.9610   31.9510 C   0  0  0  0  0  0  0  0  0  0  0  0
   35.7470   21.4300   32.2950 C   0  0  0  0  0  0  0  0  0  0  0  0
   35.0950   21.8920   33.0440 H   0  0  0  0  0  0  0  0  0  0  0  0
   35.2100   20.2850   31.7530 C   0  0  0  0  0  0  0  0  0  0  0  0
   34.2540   19.9040   32.0480 H   0  0  0  0  0  0  0  0  0  0  0  0
   35.8980   19.5760   30.7960 C   0  0  0  0  0  3  0  0  0  0  0  0
   37.1280   20.0660   30.4170 C   0  0  0  0  0  3  0  0  0  0  0  0
   39.6670   22.7130   37.6500 C   0  0  0  0  0  0  0  0  0  0  0  0
   39.0020   23.3840   38.6810 C   0  0  0  0  0  0  0  0  0  0  0  0
   38.0350   24.3150   38.3270 C   0  0  0  0  0  0  0  0  0  0  0  0
   37.8030   24.5050   37.0090 N   0  0  0  0  0  0  0  0  0  0  0  0
   38.4540   23.8480   36.0260 C   0  0  0  0  0  0  0  0  0  0  0  0
   39.3980   22.9400   36.3750 N   0  0  0  0  0  0  0  0  0  0  0  0
   39.2450   23.1760   39.7050 H   0  0  0  0  0  0  0  0  0  0  0  0
   37.4890   24.8640   39.0810 H   0  0  0  0  0  0  0  0  0  0  0  0
   40.6840   21.7330   37.9200 N   0  0  0  0  0  0  0  0  0  0  0  0
   40.6560   20.6850   37.9000 H   0  0  0  0  0  0  0  0  0  0  0  0
   41.6020   22.1860   38.1810 H   0  0  0  0  0  0  0  0  0  0  0  0
  1 23  1  0  0  0  0
  2  1  1  0  0  0  0
  2  7  1  0  0  0  0
  3  2  2  0  0  0  0
  4  5  2  0  0  0  0
  4  3  1  0  0  0  0
  5  6  1  0  0  0  0
  6  1  2  0  0  0  0
  8  3  1  0  0  0  0
  9  4  1  0  0  0  0
 10 11  1  0  0  0  0
 11 12  1  0  0  0  0
 12 13  2  0  0  0  0
 12  5  1  0  0  0  0
 13 14  1  0  0  0  0
 15 16  1  0  0  0  0
 15 13  1  0  0  0  0
 17 15  2  0  0  0  0
 18 17  1  0  0  0  0
 18 11  2  0  0  0  0
 19 27  1  0  0  0  0
 19 20  1  0  0  0  0
 20 25  1  0  0  0  0
 21 20  2  0  0  0  0
 21 26  1  0  0  0  0
 22 21  1  0  0  0  0
 23 24  1  0  0  0  0
 23 22  2  0  0  0  0
 24 19  2  0  0  0  0
 27 29  1  0  0  0  0
 28 27  1  0  0  0  0
M  END
>  <minimizedAffinity>
-5.77952051

$$$$

 OpenBabel03262523143D

 29 31  0  0  0  0  0  0  0  0999 V2000
   37.4030   24.7820   32.7420 C   0  0  0  0  0  0  0  0  0  0  0  0
   37.3090   23.7780   31.8360 C   0  0  0  0  0  0  0  0  0  0  0  0
   37.6240   22.5310   32.3040 C   0  0  0  0  0  0  0  0  0  0  0  0
   38.0120   22.3070   33.6070 C   0  0  0  0  0  0  0  0  0  0  0  0
   38.0900   23.3660   34.4840 C   0  0  0  0  0  0  0  0  0  0  0  0
   37.7780   24.5900   34.0160 N   0  0  0  0  0  0  0  0  0  0  0  0
   37.0090   23.9080   30.8060 H   0  0  0  0  0  0  0  0  0  0  0  0
   37.5690   21.6720   31.6260 H   0  0  0  0  0  0  0  0  0  0  0  0
   38.2530   21.3410   33.9030 H   0  0  0  0  0  0  0  0  0  0  0  0
   40.8180   22.1020   35.4010 Cl  0  0  0  0  0  0  0  0  0  0  0  0
   39.6390   22.8340   36.4300 C   0  0  0  0  0  0  0  0  0  0  0  0
   38.4940   23.3370   35.8760 C   0  0  0  0  0  0  0  0  0  0  0  0
   37.6400   23.8530   36.8280 C   0  0  0  0  0  0  0  0  0  0  0  0
   36.6740   24.2990   36.5700 H   0  0  0  0  0  0  0  0  0  0  0  0
   37.8930   23.8700   38.1790 C   0  0  0  0  0  0  0  0  0  0  0  0
   37.2040   24.2820   38.8870 H   0  0  0  0  0  0  0  0  0  0  0  0
   39.0660   23.3500   38.6770 C   0  0  0  0  0  3  0  0  0  0  0  0
   39.9530   22.8200   37.7670 C   0  0  0  0  0  3  0  0  0  0  0  0
   36.8110   27.7650   30.6970 C   0  0  0  0  0  0  0  0  0  0  0  0
   36.4930   28.7460   31.6410 C   0  0  0  0  0  0  0  0  0  0  0  0
   36.4830   28.3750   32.9790 C   0  0  0  0  0  0  0  0  0  0  0  0
   36.7830   27.0910   33.2740 N   0  0  0  0  0  0  0  0  0  0  0  0
   37.0880   26.1560   32.3500 C   0  0  0  0  0  0  0  0  0  0  0  0
   37.0970   26.5210   31.0450 N   0  0  0  0  0  0  0  0  0  0  0  0
   36.2650   29.7450   31.3250 H   0  0  0  0  0  0  0  0  0  0  0  0
   36.2440   29.0910   33.7520 H   0  0  0  0  0  0  0  0  0  0  0  0
   36.8460   28.0550   29.2890 N   0  0  0  0  0  0  0  0  0  0  0  0
   37.6510   28.2230   28.6380 H   0  0  0  0  0  0  0  0  0  0  0  0
   35.8750   28.1000   28.8760 H   0  0  0  0  0  0  0  0  0  0  0  0
  1  6  1  0  0  0  0
  2  3  1  0  0  0  0
  2  1  2  0  0  0  0
  3  4  2  0  0  0  0
  4  9  1  0  0  0  0
  4  5  1  0  0  0  0
  5 12  1  0  0  0  0
  6  5  2  0  0  0  0
  7  2  1  0  0  0  0
  8  3  1  0  0  0  0
 10 11  1  0  0  0  0
 11 18  1  0  0  0  0
 12 11  2  0  0  0  0
 12 13  1  0  0  0  0
 13 15  2  0  0  0  0
 14 13  1  0  0  0  0
 15 17  1  0  0  0  0
 15 16  1  0  0  0  0
 18 17  2  0  0  0  0
 19 24  2  0  0  0  0
 19 20  1  0  0  0  0
 20 21  2  0  0  0  0
 21 22  1  0  0  0  0
 21 26  1  0  0  0  0
 23  1  1  0  0  0  0
 23 22  2  0  0  0  0
 24 23  1  0  0  0  0
 25 20  1  0  0  0  0
 27 19  1  0  0  0  0
 28 27  1  0  0  0  0
 29 27  1  0  0  0  0
M  END
>  <minimizedAffinity>
-5.68378448

$$$$

 OpenBabel03262523143D

 29 31  0  0  0  0  0  0  0  0999 V2000
   36.7340   27.8900   33.2810 C   0  0  0  0  0  0  0  0  0  0  0  0
   36.9260   28.2770   31.9960 C   0  0  0  0  0  0  0  0  0  0  0  0
   36.4130   29.5020   31.6670 C   0  0  0  0  0  0  0  0  0  0  0  0
   35.7440   30.2920   32.5760 C   0  0  0  0  0  0  0  0  0  0  0  0
   35.5790   29.8470   33.8690 C   0  0  0  0  0  0  0  0  0  0  0  0
   36.0870   28.6400   34.1850 N   0  0  0  0  0  0  0  0  0  0  0  0
   37.4440   27.6910   31.2490 H   0  0  0  0  0  0  0  0  0  0  0  0
   36.5320   29.8780   30.6440 H   0  0  0  0  0  0  0  0  0  0  0  0
   35.3630   31.2070   32.2660 H   0  0  0  0  0  0  0  0  0  0  0  0
   32.5250   29.3850   34.4510 Cl  0  0  0  0  0  0  0  0  0  0  0  0
   33.5850   30.4190   35.3400 C   0  0  0  0  0  0  0  0  0  0  0  0
   34.8940   30.5170   34.9570 C   0  0  0  0  0  0  0  0  0  0  0  0
   35.5990   31.4060   35.7410 C   0  0  0  0  0  0  0  0  0  0  0  0
   36.6620   31.6140   35.5820 H   0  0  0  0  0  0  0  0  0  0  0  0
   35.0660   32.1190   36.7890 C   0  0  0  0  0  0  0  0  0  0  0  0
   35.6490   32.8000   37.3740 H   0  0  0  0  0  0  0  0  0  0  0  0
   33.7400   31.9770   37.1270 C   0  0  0  0  0  3  0  0  0  0  0  0
   32.9910   31.1010   36.3740 C   0  0  0  0  0  3  0  0  0  0  0  0
   37.9090   25.1950   35.4680 C   0  0  0  0  0  0  0  0  0  0  0  0
   38.2010   24.1580   34.5760 C   0  0  0  0  0  0  0  0  0  0  0  0
   37.9900   24.3920   33.2240 C   0  0  0  0  0  0  0  0  0  0  0  0
   37.5190   25.6070   32.8660 N   0  0  0  0  0  0  0  0  0  0  0  0
   37.2430   26.5970   33.7410 C   0  0  0  0  0  0  0  0  0  0  0  0
   37.4490   26.3660   35.0600 N   0  0  0  0  0  0  0  0  0  0  0  0
   38.5720   23.2210   34.9410 H   0  0  0  0  0  0  0  0  0  0  0  0
   38.1980   23.6280   32.4890 H   0  0  0  0  0  0  0  0  0  0  0  0
   38.0950   25.0450   36.8870 N   0  0  0  0  0  0  0  0  0  0  0  0
   38.8530   25.3900   37.5240 H   0  0  0  0  0  0  0  0  0  0  0  0
   37.3140   24.4830   37.3240 H   0  0  0  0  0  0  0  0  0  0  0  0
  1 23  1  0  0  0  0
  1  6  1  0  0  0  0
  2  1  2  0  0  0  0
  3  2  1  0  0  0  0
  3  4  2  0  0  0  0
  4  5  1  0  0  0  0
  5  6  2  0  0  0  0
  5 12  1  0  0  0  0
  7  2  1  0  0  0  0
  8  3  1  0  0  0  0
  9  4  1  0  0  0  0
 10 11  1  0  0  0  0
 11 18  1  0  0  0  0
 12 11  2  0  0  0  0
 12 13  1  0  0  0  0
 13 15  2  0  0  0  0
 14 13  1  0  0  0  0
 15 17  1  0  0  0  0
 15 16  1  0  0  0  0
 18 17  2  0  0  0  0
 19 27  1  0  0  0  0
 20 25  1  0  0  0  0
 20 19  2  0  0  0  0
 21 20  1  0  0  0  0
 22 21  2  0  0  0  0
 22 23  1  0  0  0  0
 23 24  2  0  0  0  0
 24 19  1  0  0  0  0
 26 21  1  0  0  0  0
 27 29  1  0  0  0  0
 27 28  1  0  0  0  0
M  END
>  <minimizedAffinity>
-5.65401411

$$$$

 OpenBabel03262523143D

 29 31  0  0  0  0  0  0  0  0999 V2000
   36.4870   28.1660   33.2520 C   0  0  0  0  0  0  0  0  0  0  0  0
   36.6730   28.6500   31.9990 C   0  0  0  0  0  0  0  0  0  0  0  0
   36.0980   29.8650   31.7460 C   0  0  0  0  0  0  0  0  0  0  0  0
   35.3770   30.5540   32.6970 C   0  0  0  0  0  0  0  0  0  0  0  0
   35.2210   30.0140   33.9540 C   0  0  0  0  0  0  0  0  0  0  0  0
   35.7900   28.8170   34.1950 N   0  0  0  0  0  0  0  0  0  0  0  0
   37.2300   28.1450   31.2230 H   0  0  0  0  0  0  0  0  0  0  0  0
   36.2080   30.3170   30.7530 H   0  0  0  0  0  0  0  0  0  0  0  0
   34.9500   31.4660   32.4440 H   0  0  0  0  0  0  0  0  0  0  0  0
   36.4410   32.2450   35.8010 Cl  0  0  0  0  0  0  0  0  0  0  0  0
   34.8730   31.5400   35.9590 C   0  0  0  0  0  0  0  0  0  0  0  0
   34.4880   30.5700   35.0740 C   0  0  0  0  0  0  0  0  0  0  0  0
   33.2280   30.0830   35.3530 C   0  0  0  0  0  0  0  0  0  0  0  0
   32.7540   29.3020   34.7510 H   0  0  0  0  0  0  0  0  0  0  0  0
   32.4370   30.5100   36.3940 C   0  0  0  0  0  0  0  0  0  0  0  0
   31.4630   30.1060   36.5770 H   0  0  0  0  0  0  0  0  0  0  0  0
   32.8800   31.4910   37.2510 C   0  0  0  0  0  3  0  0  0  0  0  0
   34.1330   32.0100   37.0160 C   0  0  0  0  0  3  0  0  0  0  0  0
   37.8640   25.4290   35.2620 C   0  0  0  0  0  0  0  0  0  0  0  0
   38.1380   24.4370   34.3150 C   0  0  0  0  0  0  0  0  0  0  0  0
   37.8450   24.7160   32.9860 C   0  0  0  0  0  0  0  0  0  0  0  0
   37.3170   25.9280   32.7040 N   0  0  0  0  0  0  0  0  0  0  0  0
   37.0600   26.8740   33.6310 C   0  0  0  0  0  0  0  0  0  0  0  0
   37.3460   26.5990   34.9270 N   0  0  0  0  0  0  0  0  0  0  0  0
   38.5570   23.4990   34.6200 H   0  0  0  0  0  0  0  0  0  0  0  0
   38.0340   23.9880   32.2110 H   0  0  0  0  0  0  0  0  0  0  0  0
   38.1330   25.2300   36.6610 N   0  0  0  0  0  0  0  0  0  0  0  0
   38.9140   25.5750   37.2700 H   0  0  0  0  0  0  0  0  0  0  0  0
   37.3960   24.6270   37.1180 H   0  0  0  0  0  0  0  0  0  0  0  0
  1 23  1  0  0  0  0
  1  6  1  0  0  0  0
  2  1  2  0  0  0  0
  3  2  1  0  0  0  0
  3  4  2  0  0  0  0
  4  5  1  0  0  0  0
  5  6  2  0  0  0  0
  5 12  1  0  0  0  0
  7  2  1  0  0  0  0
  8  3  1  0  0  0  0
  9  4  1  0  0  0  0
 10 11  1  0  0  0  0
 11 18  1  0  0  0  0
 12 13  1  0  0  0  0
 12 11  2  0  0  0  0
 13 15  2  0  0  0  0
 14 13  1  0  0  0  0
 15 16  1  0  0  0  0
 15 17  1  0  0  0  0
 18 17  2  0  0  0  0
 19 27  1  0  0  0  0
 20 25  1  0  0  0  0
 20 19  2  0  0  0  0
 21 20  1  0  0  0  0
 22 21  2  0  0  0  0
 22 23  1  0  0  0  0
 23 24  2  0  0  0  0
 24 19  1  0  0  0  0
 26 21  1  0  0  0  0
 27 29  1  0  0  0  0
 27 28  1  0  0  0  0
M  END
>  <minimizedAffinity>
-5.55404139

$$$$

 OpenBabel03262523143D

 29 31  0  0  0  0  0  0  0  0999 V2000
   38.8450   23.2190   34.0410 C   0  0  0  0  0  0  0  0  0  0  0  0
   38.7390   22.3870   32.9760 C   0  0  0  0  0  0  0  0  0  0  0  0
   38.0400   22.8820   31.9090 C   0  0  0  0  0  0  0  0  0  0  0  0
   37.4770   24.1400   31.9130 C   0  0  0  0  0  0  0  0  0  0  0  0
   37.6170   24.9420   33.0240 C   0  0  0  0  0  0  0  0  0  0  0  0
   38.3070   24.4480   34.0690 N   0  0  0  0  0  0  0  0  0  0  0  0
   39.1640   21.3940   32.9290 H   0  0  0  0  0  0  0  0  0  0  0  0
   37.9150   22.2630   31.0130 H   0  0  0  0  0  0  0  0  0  0  0  0
   36.9440   24.4570   31.0800 H   0  0  0  0  0  0  0  0  0  0  0  0
   37.8200   26.4130   35.7940 Cl  0  0  0  0  0  0  0  0  0  0  0  0
   37.1010   27.0460   34.3570 C   0  0  0  0  0  0  0  0  0  0  0  0
   37.0870   26.2760   33.2260 C   0  0  0  0  0  0  0  0  0  0  0  0
   36.4480   26.9050   32.1790 C   0  0  0  0  0  0  0  0  0  0  0  0
   36.3400   26.4400   31.1940 H   0  0  0  0  0  0  0  0  0  0  0  0
   35.8860   28.1580   32.2440 C   0  0  0  0  0  0  0  0  0  0  0  0
   35.3990   28.6120   31.4050 H   0  0  0  0  0  0  0  0  0  0  0  0
   35.9330   28.8850   33.4110 C   0  0  0  0  0  3  0  0  0  0  0  0
   36.5600   28.3010   34.4880 C   0  0  0  0  0  3  0  0  0  0  0  0
   39.7350   22.6360   37.5480 C   0  0  0  0  0  0  0  0  0  0  0  0
   40.9660   21.9780   37.4640 C   0  0  0  0  0  0  0  0  0  0  0  0
   41.4840   21.7360   36.1980 C   0  0  0  0  0  0  0  0  0  0  0  0
   40.7600   22.1570   35.1370 N   0  0  0  0  0  0  0  0  0  0  0  0
   39.5730   22.7920   35.2360 C   0  0  0  0  0  0  0  0  0  0  0  0
   39.0710   23.0260   36.4720 N   0  0  0  0  0  0  0  0  0  0  0  0
   41.4780   21.6750   38.3560 H   0  0  0  0  0  0  0  0  0  0  0  0
   42.4300   21.2310   36.0720 H   0  0  0  0  0  0  0  0  0  0  0  0
   39.1210   22.9290   38.8150 N   0  0  0  0  0  0  0  0  0  0  0  0
   39.0610   23.8200   39.3650 H   0  0  0  0  0  0  0  0  0  0  0  0
   38.6620   22.0730   39.2320 H   0  0  0  0  0  0  0  0  0  0  0  0
  1  6  1  0  0  0  0
  1 23  1  0  0  0  0
  2  1  2  0  0  0  0
  3  4  2  0  0  0  0
  3  2  1  0  0  0  0
  4  5  1  0  0  0  0
  5 12  1  0  0  0  0
  5  6  2  0  0  0  0
  7  2  1  0  0  0  0
  8  3  1  0  0  0  0
  9  4  1  0  0  0  0
 11 18  1  0  0  0  0
 11 10  1  0  0  0  0
 12 11  2  0  0  0  0
 13 15  2  0  0  0  0
 13 12  1  0  0  0  0
 14 13  1  0  0  0  0
 15 17  1  0  0  0  0
 16 15  1  0  0  0  0
 17 18  2  0  0  0  0
 19 27  1  0  0  0  0
 20 19  1  0  0  0  0
 20 25  1  0  0  0  0
 21 20  2  0  0  0  0
 22 23  2  0  0  0  0
 22 21  1  0  0  0  0
 23 24  1  0  0  0  0
 24 19  2  0  0  0  0
 26 21  1  0  0  0  0
 27 29  1  0  0  0  0
 27 28  1  0  0  0  0
M  END
>  <minimizedAffinity>
-5.53231049

$$$$

 OpenBabel03262523143D

 29 31  0  0  0  0  0  0  0  0999 V2000
   36.0960   28.3380   31.8560 C   0  0  0  0  0  0  0  0  0  0  0  0
   36.4890   29.0460   30.7680 C   0  0  0  0  0  0  0  0  0  0  0  0
   36.3720   30.4050   30.8760 C   0  0  0  0  0  0  0  0  0  0  0  0
   35.8870   31.0180   32.0110 C   0  0  0  0  0  0  0  0  0  0  0  0
   35.5030   30.2480   33.0860 C   0  0  0  0  0  0  0  0  0  0  0  0
   35.6220   28.9110   32.9720 N   0  0  0  0  0  0  0  0  0  0  0  0
   36.8750   28.6080   29.8580 H   0  0  0  0  0  0  0  0  0  0  0  0
   36.6710   31.0400   30.0330 H   0  0  0  0  0  0  0  0  0  0  0  0
   35.8060   32.0530   32.0300 H   0  0  0  0  0  0  0  0  0  0  0  0
   32.4810   29.8220   33.8380 Cl  0  0  0  0  0  0  0  0  0  0  0  0
   33.6760   30.5860   34.8230 C   0  0  0  0  0  0  0  0  0  0  0  0
   34.9550   30.7000   34.3500 C   0  0  0  0  0  0  0  0  0  0  0  0
   35.7790   31.3620   35.2340 C   0  0  0  0  0  0  0  0  0  0  0  0
   36.8370   31.5470   35.0250 H   0  0  0  0  0  0  0  0  0  0  0  0
   35.3810   31.8570   36.4540 C   0  0  0  0  0  0  0  0  0  0  0  0
   36.0540   32.3660   37.1130 H   0  0  0  0  0  0  0  0  0  0  0  0
   34.0800   31.7110   36.8770 C   0  0  0  0  0  3  0  0  0  0  0  0
   33.2160   31.0560   36.0290 C   0  0  0  0  0  3  0  0  0  0  0  0
   37.1490   24.9130   32.6230 C   0  0  0  0  0  0  0  0  0  0  0  0
   36.3160   24.1310   31.8170 C   0  0  0  0  0  0  0  0  0  0  0  0
   35.3940   24.7870   31.0130 C   0  0  0  0  0  0  0  0  0  0  0  0
   35.3680   26.1380   31.0660 N   0  0  0  0  0  0  0  0  0  0  0  0
   36.1810   26.8770   31.8500 C   0  0  0  0  0  0  0  0  0  0  0  0
   37.0790   26.2340   32.6330 N   0  0  0  0  0  0  0  0  0  0  0  0
   36.3990   23.0620   31.8320 H   0  0  0  0  0  0  0  0  0  0  0  0
   34.7240   24.2340   30.3700 H   0  0  0  0  0  0  0  0  0  0  0  0
   38.1340   24.3220   33.4880 N   0  0  0  0  0  0  0  0  0  0  0  0
   39.1730   24.2230   33.3860 H   0  0  0  0  0  0  0  0  0  0  0  0
   37.6960   23.9300   34.3660 H   0  0  0  0  0  0  0  0  0  0  0  0
  1  6  1  0  0  0  0
  2  3  1  0  0  0  0
  2  1  2  0  0  0  0
  3  4  2  0  0  0  0
  4  9  1  0  0  0  0
  4  5  1  0  0  0  0
  5 12  1  0  0  0  0
  6  5  2  0  0  0  0
  7  2  1  0  0  0  0
  8  3  1  0  0  0  0
 10 11  1  0  0  0  0
 11 18  1  0  0  0  0
 12 11  2  0  0  0  0
 12 13  1  0  0  0  0
 13 15  2  0  0  0  0
 14 13  1  0  0  0  0
 15 17  1  0  0  0  0
 15 16  1  0  0  0  0
 18 17  2  0  0  0  0
 19 24  1  0  0  0  0
 19 27  1  0  0  0  0
 20 25  1  0  0  0  0
 20 19  2  0  0  0  0
 21 22  2  0  0  0  0
 21 20  1  0  0  0  0
 22 23  1  0  0  0  0
 23  1  1  0  0  0  0
 23 24  2  0  0  0  0
 26 21  1  0  0  0  0
 27 29  1  0  0  0  0
 28 27  1  0  0  0  0
M  END
>  <minimizedAffinity>
-5.49068785

$$$$

 OpenBabel03262523143D

 29 31  0  0  0  0  0  0  0  0999 V2000
   35.2440   29.7420   33.8500 C   0  0  0  0  0  0  0  0  0  0  0  0
   35.2430   30.3180   32.6230 C   0  0  0  0  0  0  0  0  0  0  0  0
   36.0560   29.7270   31.6950 C   0  0  0  0  0  0  0  0  0  0  0  0
   36.8250   28.6210   31.9830 C   0  0  0  0  0  0  0  0  0  0  0  0
   36.7850   28.0770   33.2470 C   0  0  0  0  0  0  0  0  0  0  0  0
   35.9830   28.6650   34.1560 N   0  0  0  0  0  0  0  0  0  0  0  0
   34.6570   31.1850   32.3530 H   0  0  0  0  0  0  0  0  0  0  0  0
   36.1050   30.1410   30.6810 H   0  0  0  0  0  0  0  0  0  0  0  0
   37.4350   28.2230   31.2420 H   0  0  0  0  0  0  0  0  0  0  0  0
   36.3580   25.1790   32.1070 Cl  0  0  0  0  0  0  0  0  0  0  0  0
   37.4640   25.6280   33.3550 C   0  0  0  0  0  0  0  0  0  0  0  0
   37.5290   26.9370   33.7470 C   0  0  0  0  0  0  0  0  0  0  0  0
   38.4290   27.1280   34.7730 C   0  0  0  0  0  0  0  0  0  0  0  0
   38.6150   28.1110   35.2160 H   0  0  0  0  0  0  0  0  0  0  0  0
   39.1820   26.1310   35.3490 C   0  0  0  0  0  0  0  0  0  0  0  0
   39.8720   26.3210   36.1450 H   0  0  0  0  0  0  0  0  0  0  0  0
   39.0730   24.8320   34.9110 C   0  0  0  0  0  3  0  0  0  0  0  0
   38.1860   24.5880   33.8860 C   0  0  0  0  0  3  0  0  0  0  0  0
   34.1520   31.6950   36.7530 C   0  0  0  0  0  0  0  0  0  0  0  0
   32.8180   31.3090   36.9190 C   0  0  0  0  0  0  0  0  0  0  0  0
   32.3000   30.3780   36.0290 C   0  0  0  0  0  0  0  0  0  0  0  0
   33.1240   29.9090   35.0650 N   0  0  0  0  0  0  0  0  0  0  0  0
   34.4100   30.2920   34.9200 C   0  0  0  0  0  0  0  0  0  0  0  0
   34.9120   31.2010   35.7890 N   0  0  0  0  0  0  0  0  0  0  0  0
   32.2300   31.7290   37.7110 H   0  0  0  0  0  0  0  0  0  0  0  0
   31.2760   30.0430   36.1090 H   0  0  0  0  0  0  0  0  0  0  0  0
   34.7750   32.6530   37.6260 N   0  0  0  0  0  0  0  0  0  0  0  0
   35.4400   32.5290   38.4270 H   0  0  0  0  0  0  0  0  0  0  0  0
   34.4870   33.6420   37.3870 H   0  0  0  0  0  0  0  0  0  0  0  0
  1  6  1  0  0  0  0
  1 23  1  0  0  0  0
  2  1  2  0  0  0  0
  3  4  2  0  0  0  0
  3  2  1  0  0  0  0
  4  5  1  0  0  0  0
  5 12  1  0  0  0  0
  5  6  2  0  0  0  0
  7  2  1  0  0  0  0
  8  3  1  0  0  0  0
  9  4  1  0  0  0  0
 10 11  1  0  0  0  0
 11 12  2  0  0  0  0
 11 18  1  0  0  0  0
 12 13  1  0  0  0  0
 13 14  1  0  0  0  0
 13 15  2  0  0  0  0
 15 16  1  0  0  0  0
 17 15  1  0  0  0  0
 18 17  2  0  0  0  0
 19 20  1  0  0  0  0
 19 27  1  0  0  0  0
 20 25  1  0  0  0  0
 21 26  1  0  0  0  0
 21 20  2  0  0  0  0
 22 21  1  0  0  0  0
 23 22  2  0  0  0  0
 23 24  1  0  0  0  0
 24 19  2  0  0  0  0
 27 28  1  0  0  0  0
 29 27  1  0  0  0  0
M  END
>  <minimizedAffinity>
-5.44367027

$$$$

 OpenBabel03262523143D

 29 31  0  0  0  0  0  0  0  0999 V2000
   36.1620   28.7070   32.5650 C   0  0  0  0  0  0  0  0  0  0  0  0
   36.3050   29.3940   31.4050 C   0  0  0  0  0  0  0  0  0  0  0  0
   35.8070   30.6680   31.4090 C   0  0  0  0  0  0  0  0  0  0  0  0
   35.2000   31.2200   32.5150 C   0  0  0  0  0  0  0  0  0  0  0  0
   35.0830   30.4760   33.6680 C   0  0  0  0  0  0  0  0  0  0  0  0
   35.5760   29.2220   33.6550 N   0  0  0  0  0  0  0  0  0  0  0  0
   36.7740   29.0010   30.5140 H   0  0  0  0  0  0  0  0  0  0  0  0
   35.8890   31.2810   30.5040 H   0  0  0  0  0  0  0  0  0  0  0  0
   34.8270   32.1880   32.4560 H   0  0  0  0  0  0  0  0  0  0  0  0
   36.4920   32.4360   35.6810 Cl  0  0  0  0  0  0  0  0  0  0  0  0
   34.9390   31.7090   35.8880 C   0  0  0  0  0  0  0  0  0  0  0  0
   34.4640   30.8690   34.9190 C   0  0  0  0  0  0  0  0  0  0  0  0
   33.2320   30.3420   35.2460 C   0  0  0  0  0  0  0  0  0  0  0  0
   32.6970   29.6490   34.5900 H   0  0  0  0  0  0  0  0  0  0  0  0
   32.5470   30.6170   36.4070 C   0  0  0  0  0  0  0  0  0  0  0  0
   31.5910   30.1880   36.6240 H   0  0  0  0  0  0  0  0  0  0  0  0
   33.0770   31.4720   37.3450 C   0  0  0  0  0  3  0  0  0  0  0  0
   34.3070   32.0250   37.0660 C   0  0  0  0  0  3  0  0  0  0  0  0
   37.1080   25.2750   31.6990 C   0  0  0  0  0  0  0  0  0  0  0  0
   37.6030   24.7620   32.9020 C   0  0  0  0  0  0  0  0  0  0  0  0
   37.6090   25.6020   34.0080 C   0  0  0  0  0  0  0  0  0  0  0  0
   37.1350   26.8570   33.8410 N   0  0  0  0  0  0  0  0  0  0  0  0
   36.6610   27.3350   32.6720 C   0  0  0  0  0  0  0  0  0  0  0  0
   36.6560   26.5130   31.5950 N   0  0  0  0  0  0  0  0  0  0  0  0
   37.9620   23.7530   32.9520 H   0  0  0  0  0  0  0  0  0  0  0  0
   37.9800   25.2600   34.9630 H   0  0  0  0  0  0  0  0  0  0  0  0
   37.0630   24.4790   30.5020 N   0  0  0  0  0  0  0  0  0  0  0  0
   36.2680   23.9830   30.0310 H   0  0  0  0  0  0  0  0  0  0  0  0
   38.0150   24.4030   30.0480 H   0  0  0  0  0  0  0  0  0  0  0  0
  1 23  1  0  0  0  0
  1  6  1  0  0  0  0
  2  3  1  0  0  0  0
  2  1  2  0  0  0  0
  3  4  2  0  0  0  0
  4  5  1  0  0  0  0
  5 12  1  0  0  0  0
  6  5  2  0  0  0  0
  7  2  1  0  0  0  0
  8  3  1  0  0  0  0
  9  4  1  0  0  0  0
 10 11  1  0  0  0  0
 11 18  1  0  0  0  0
 12 13  1  0  0  0  0
 12 11  2  0  0  0  0
 13 15  2  0  0  0  0
 14 13  1  0  0  0  0
 15 16  1  0  0  0  0
 15 17  1  0  0  0  0
 18 17  2  0  0  0  0
 19 20  1  0  0  0  0
 20 25  1  0  0  0  0
 20 21  2  0  0  0  0
 21 26  1  0  0  0  0
 22 21  1  0  0  0  0
 23 22  2  0  0  0  0
 24 19  2  0  0  0  0
 24 23  1  0  0  0  0
 27 19  1  0  0  0  0
 28 27  1  0  0  0  0
 29 27  1  0  0  0  0
M  END
>  <minimizedAffinity>
-5.415277

$$$$
