
 OpenBabel03272508073D

 35 38  0  0  0  0  0  0  0  0999 V2000
   37.3770   26.3470   34.2550 C   0  0  0  0  0  0  0  0  0  0  0  0
   37.3060   26.6160   32.9150 C   0  0  0  0  0  0  0  0  0  0  0  0
   36.7030   27.8400   32.6910 C   0  0  0  0  0  0  0  0  0  0  0  0
   36.4220   28.2840   33.9270 N   0  0  0  0  0  0  0  0  0  0  0  0
   36.8120   27.4160   34.8550 N   0  0  0  0  0  0  0  0  0  0  0  0
   37.6690   25.9670   32.1080 H   0  0  0  0  0  0  0  0  0  0  0  0
   36.4830   28.3670   31.7750 H   0  0  0  0  0  0  0  0  0  0  0  0
   37.9400   25.1630   34.8970 C   0  0  0  0  0  0  0  0  0  0  0  0
   37.8370   25.0580   36.3070 C   0  0  0  0  0  0  0  0  0  0  0  0
   38.3770   23.9280   36.9090 C   0  0  0  0  0  0  0  0  0  0  0  0
   38.9750   22.9870   36.1110 N   0  0  0  0  0  0  0  0  0  0  0  0
   39.0590   23.1140   34.7700 C   0  0  0  0  0  0  0  0  0  0  0  0
   38.5400   24.2050   34.1730 N   0  0  0  0  0  0  0  0  0  0  0  0
   37.3450   25.8540   36.8550 H   0  0  0  0  0  0  0  0  0  0  0  0
   39.5420   22.3430   34.1810 H   0  0  0  0  0  0  0  0  0  0  0  0
   38.2750   23.8020   38.3950 C   0  0  0  0  0  0  0  0  0  0  0  0
   39.5200   23.3900   38.8090 F   0  0  0  0  0  0  0  0  0  0  0  0
   37.9980   25.0130   39.0050 F   0  0  0  0  0  0  0  0  0  0  0  0
   37.3280   22.8660   38.7740 F   0  0  0  0  0  0  0  0  0  0  0  0
   35.7820   29.5310   34.3290 C   0  0  0  0  0  0  0  0  0  0  0  0
   34.6820   30.0570   33.6440 C   0  0  0  0  0  0  0  0  0  0  0  0
   34.1110   31.1970   34.0150 C   0  0  0  0  0  0  0  0  0  0  0  0
   34.6350   31.8980   35.1400 C   0  0  0  0  0  0  0  0  0  0  0  0
   36.0330   30.7730   35.6270 S   0  0  0  0  0  0  0  0  0  0  0  0
   34.2360   29.5560   32.7680 H   0  0  0  0  0  0  0  0  0  0  0  0
   33.2970   31.7620   33.6540 H   0  0  0  0  0  0  0  0  0  0  0  0
   32.7160   31.5580   37.5030 Cl  0  0  0  0  0  0  0  0  0  0  0  0
   33.5070   33.0120   36.9420 C   0  0  0  0  0  0  0  0  0  0  0  0
   34.3580   33.1190   35.8800 C   0  0  0  0  0  0  0  0  0  0  0  0
   34.9820   34.2300   35.4240 C   0  0  0  0  0  0  0  0  0  0  0  0
   35.6450   34.2260   34.5700 H   0  0  0  0  0  0  0  0  0  0  0  0
   34.7450   35.4160   36.1000 C   0  0  0  0  0  0  0  0  0  0  0  0
   35.1880   36.3620   35.8260 H   0  0  0  0  0  0  0  0  0  0  0  0
   33.8900   35.4040   37.1970 C   0  0  0  0  0  3  0  0  0  0  0  0
   33.2780   34.2200   37.6130 C   0  0  0  0  0  3  0  0  0  0  0  0
  1  5  2  0  0  0  0
  1  8  1  0  0  0  0
  2  1  1  0  0  0  0
  3  2  2  0  0  0  0
  3  4  1  0  0  0  0
  4 20  1  0  0  0  0
  4  5  1  0  0  0  0
  6  2  1  0  0  0  0
  7  3  1  0  0  0  0
  8  9  1  0  0  0  0
  9 14  1  0  0  0  0
  9 10  2  0  0  0  0
 10 16  1  0  0  0  0
 11 10  1  0  0  0  0
 12 11  2  0  0  0  0
 13 12  1  0  0  0  0
 13  8  2  0  0  0  0
 15 12  1  0  0  0  0
 16 19  1  0  0  0  0
 16 17  1  0  0  0  0
 16 18  1  0  0  0  0
 20 24  1  0  0  0  0
 21 22  1  0  0  0  0
 21 20  2  0  0  0  0
 22 23  2  0  0  0  0
 23 24  1  0  0  0  0
 23 29  1  0  0  0  0
 25 21  1  0  0  0  0
 26 22  1  0  0  0  0
 28 27  1  0  0  0  0
 28 35  1  0  0  0  0
 29 28  2  0  0  0  0
 30 29  1  0  0  0  0
 30 32  2  0  0  0  0
 31 30  1  0  0  0  0
 32 34  1  0  0  0  0
 33 32  1  0  0  0  0
 34 35  2  0  0  0  0
M  END
>  <minimizedAffinity>
-6.48992538

$$$$

 OpenBabel03272508073D

 35 38  0  0  0  0  0  0  0  0999 V2000
   37.5080   24.3210   31.3630 C   0  0  0  0  0  0  0  0  0  0  0  0
   38.3590   25.1180   30.6470 C   0  0  0  0  0  0  0  0  0  0  0  0
   38.1500   26.4520   30.9450 C   0  0  0  0  0  0  0  0  0  0  0  0
   37.1590   26.4210   31.8510 N   0  0  0  0  0  0  0  0  0  0  0  0
   36.7720   25.1750   32.1050 N   0  0  0  0  0  0  0  0  0  0  0  0
   39.1130   24.7730   29.9290 H   0  0  0  0  0  0  0  0  0  0  0  0
   38.6290   27.3460   30.5770 H   0  0  0  0  0  0  0  0  0  0  0  0
   37.4160   22.8640   31.3340 C   0  0  0  0  0  0  0  0  0  0  0  0
   36.4540   22.2410   32.1690 C   0  0  0  0  0  0  0  0  0  0  0  0
   36.3750   20.8540   32.1340 C   0  0  0  0  0  0  0  0  0  0  0  0
   37.2240   20.1730   31.3010 N   0  0  0  0  0  0  0  0  0  0  0  0
   38.1300   20.7930   30.5170 C   0  0  0  0  0  0  0  0  0  0  0  0
   38.2190   22.1370   30.5410 N   0  0  0  0  0  0  0  0  0  0  0  0
   35.8250   22.8640   32.7950 H   0  0  0  0  0  0  0  0  0  0  0  0
   38.7810   20.2120   29.8740 H   0  0  0  0  0  0  0  0  0  0  0  0
   35.3660   20.1820   33.0080 C   0  0  0  0  0  0  0  0  0  0  0  0
   34.1670   20.3200   32.3480 F   0  0  0  0  0  0  0  0  0  0  0  0
   35.6210   18.8310   33.1600 F   0  0  0  0  0  0  0  0  0  0  0  0
   35.2780   20.7800   34.2540 F   0  0  0  0  0  0  0  0  0  0  0  0
   36.5100   27.5320   32.5370 C   0  0  0  0  0  0  0  0  0  0  0  0
   35.7580   28.4920   31.8530 C   0  0  0  0  0  0  0  0  0  0  0  0
   35.1770   29.5030   32.4880 C   0  0  0  0  0  0  0  0  0  0  0  0
   35.3260   29.6080   33.9020 C   0  0  0  0  0  0  0  0  0  0  0  0
   36.3830   28.1180   34.2490 S   0  0  0  0  0  0  0  0  0  0  0  0
   35.6090   28.4590   30.7600 H   0  0  0  0  0  0  0  0  0  0  0  0
   34.5820   30.3180   32.1820 H   0  0  0  0  0  0  0  0  0  0  0  0
   32.4050   29.2650   34.7570 Cl  0  0  0  0  0  0  0  0  0  0  0  0
   33.6020   30.3750   35.3850 C   0  0  0  0  0  0  0  0  0  0  0  0
   34.8970   30.4940   34.9730 C   0  0  0  0  0  0  0  0  0  0  0  0
   35.8430   31.3430   35.4400 C   0  0  0  0  0  0  0  0  0  0  0  0
   36.8520   31.3720   35.0540 H   0  0  0  0  0  0  0  0  0  0  0  0
   35.4760   32.2050   36.4610 C   0  0  0  0  0  0  0  0  0  0  0  0
   36.1470   32.9230   36.9100 H   0  0  0  0  0  0  0  0  0  0  0  0
   34.1740   32.1550   36.9460 C   0  0  0  0  0  3  0  0  0  0  0  0
   33.2480   31.2530   36.4170 C   0  0  0  0  0  3  0  0  0  0  0  0
  1  5  2  0  0  0  0
  2  3  2  0  0  0  0
  2  1  1  0  0  0  0
  3  4  1  0  0  0  0
  4  5  1  0  0  0  0
  4 20  1  0  0  0  0
  6  2  1  0  0  0  0
  7  3  1  0  0  0  0
  8  1  1  0  0  0  0
  8  9  1  0  0  0  0
  9 14  1  0  0  0  0
 10  9  2  0  0  0  0
 10 16  1  0  0  0  0
 11 10  1  0  0  0  0
 12 13  1  0  0  0  0
 12 11  2  0  0  0  0
 13  8  2  0  0  0  0
 15 12  1  0  0  0  0
 16 18  1  0  0  0  0
 16 19  1  0  0  0  0
 17 16  1  0  0  0  0
 20 24  1  0  0  0  0
 21 22  1  0  0  0  0
 21 20  2  0  0  0  0
 22 23  2  0  0  0  0
 23 24  1  0  0  0  0
 23 29  1  0  0  0  0
 25 21  1  0  0  0  0
 26 22  1  0  0  0  0
 27 28  1  0  0  0  0
 28 35  1  0  0  0  0
 29 28  2  0  0  0  0
 29 30  1  0  0  0  0
 30 32  2  0  0  0  0
 31 30  1  0  0  0  0
 32 33  1  0  0  0  0
 32 34  1  0  0  0  0
 35 34  2  0  0  0  0
M  END
>  <minimizedAffinity>
-6.46643972

$$$$

 OpenBabel03272508073D

 35 38  0  0  0  0  0  0  0  0999 V2000
   35.5440   29.3400   31.9800 C   0  0  0  0  0  0  0  0  0  0  0  0
   36.1640   29.3530   30.7600 C   0  0  0  0  0  0  0  0  0  0  0  0
   36.5440   28.0750   30.3900 C   0  0  0  0  0  0  0  0  0  0  0  0
   36.1340   27.3140   31.4170 N   0  0  0  0  0  0  0  0  0  0  0  0
   35.5450   28.0440   32.3580 N   0  0  0  0  0  0  0  0  0  0  0  0
   36.3470   30.2390   30.1410 H   0  0  0  0  0  0  0  0  0  0  0  0
   37.0490   27.7120   29.5070 H   0  0  0  0  0  0  0  0  0  0  0  0
   34.9980   30.4780   32.7130 C   0  0  0  0  0  0  0  0  0  0  0  0
   35.5170   30.7490   34.0050 C   0  0  0  0  0  0  0  0  0  0  0  0
   34.9900   31.8340   34.6950 C   0  0  0  0  0  0  0  0  0  0  0  0
   34.0070   32.5750   34.0920 N   0  0  0  0  0  0  0  0  0  0  0  0
   33.5320   32.2940   32.8610 C   0  0  0  0  0  0  0  0  0  0  0  0
   34.0330   31.2440   32.1810 N   0  0  0  0  0  0  0  0  0  0  0  0
   36.2960   30.1060   34.4000 H   0  0  0  0  0  0  0  0  0  0  0  0
   32.7530   32.9090   32.4250 H   0  0  0  0  0  0  0  0  0  0  0  0
   35.5280   32.1330   36.0570 C   0  0  0  0  0  0  0  0  0  0  0  0
   36.6850   31.3970   36.1580 F   0  0  0  0  0  0  0  0  0  0  0  0
   35.8530   33.4690   36.2110 F   0  0  0  0  0  0  0  0  0  0  0  0
   34.6490   31.7520   37.0570 F   0  0  0  0  0  0  0  0  0  0  0  0
   36.2560   25.8710   31.5930 C   0  0  0  0  0  0  0  0  0  0  0  0
   37.2200   25.3040   32.4340 C   0  0  0  0  0  0  0  0  0  0  0  0
   37.3260   23.9890   32.5820 C   0  0  0  0  0  0  0  0  0  0  0  0
   36.4330   23.1380   31.8660 C   0  0  0  0  0  0  0  0  0  0  0  0
   35.4170   24.3980   30.9500 S   0  0  0  0  0  0  0  0  0  0  0  0
   37.9350   25.9150   33.0120 H   0  0  0  0  0  0  0  0  0  0  0  0
   37.9600   23.3620   33.1450 H   0  0  0  0  0  0  0  0  0  0  0  0
   38.4910   21.6440   30.1570 Cl  0  0  0  0  0  0  0  0  0  0  0  0
   37.0750   21.0090   30.9630 C   0  0  0  0  0  0  0  0  0  0  0  0
   36.1810   21.7140   31.7170 C   0  0  0  0  0  0  0  0  0  0  0  0
   35.0790   21.2480   32.3490 C   0  0  0  0  0  0  0  0  0  0  0  0
   34.4210   21.8800   32.9300 H   0  0  0  0  0  0  0  0  0  0  0  0
   34.8020   19.8960   32.2330 C   0  0  0  0  0  0  0  0  0  0  0  0
   33.9520   19.4160   32.6940 H   0  0  0  0  0  0  0  0  0  0  0  0
   35.6590   19.0970   31.4830 C   0  0  0  0  0  3  0  0  0  0  0  0
   36.7800   19.6440   30.8550 C   0  0  0  0  0  3  0  0  0  0  0  0
  1  5  2  0  0  0  0
  1  8  1  0  0  0  0
  2  1  1  0  0  0  0
  3  2  2  0  0  0  0
  3  4  1  0  0  0  0
  4 20  1  0  0  0  0
  4  5  1  0  0  0  0
  6  2  1  0  0  0  0
  7  3  1  0  0  0  0
  8  9  1  0  0  0  0
  9 14  1  0  0  0  0
  9 10  2  0  0  0  0
 10 16  1  0  0  0  0
 11 10  1  0  0  0  0
 12 11  2  0  0  0  0
 13  8  2  0  0  0  0
 13 12  1  0  0  0  0
 15 12  1  0  0  0  0
 16 17  1  0  0  0  0
 16 18  1  0  0  0  0
 16 19  1  0  0  0  0
 20 21  2  0  0  0  0
 21 22  1  0  0  0  0
 21 25  1  0  0  0  0
 22 26  1  0  0  0  0
 23 22  2  0  0  0  0
 24 20  1  0  0  0  0
 24 23  1  0  0  0  0
 27 28  1  0  0  0  0
 28 29  1  0  0  0  0
 29 23  1  0  0  0  0
 29 30  2  0  0  0  0
 30 31  1  0  0  0  0
 32 30  1  0  0  0  0
 32 33  1  0  0  0  0
 34 32  2  0  0  0  0
 35 28  2  0  0  0  0
 35 34  1  0  0  0  0
M  END
>  <minimizedAffinity>
-6.29864597

$$$$

 OpenBabel03272508073D

 35 38  0  0  0  0  0  0  0  0999 V2000
   35.3850   29.6060   33.3450 C   0  0  0  0  0  0  0  0  0  0  0  0
   35.8410   29.4350   32.0660 C   0  0  0  0  0  0  0  0  0  0  0  0
   36.7030   28.3560   31.9920 C   0  0  0  0  0  0  0  0  0  0  0  0
   36.7430   27.8980   33.2540 N   0  0  0  0  0  0  0  0  0  0  0  0
   35.9740   28.6230   34.0590 N   0  0  0  0  0  0  0  0  0  0  0  0
   35.5750   30.0540   31.2000 H   0  0  0  0  0  0  0  0  0  0  0  0
   37.2430   27.9340   31.1580 H   0  0  0  0  0  0  0  0  0  0  0  0
   34.4630   30.6270   33.8330 C   0  0  0  0  0  0  0  0  0  0  0  0
   34.4110   30.8640   35.2300 C   0  0  0  0  0  0  0  0  0  0  0  0
   33.5280   31.8380   35.6850 C   0  0  0  0  0  0  0  0  0  0  0  0
   32.7660   32.5070   34.7630 N   0  0  0  0  0  0  0  0  0  0  0  0
   32.8370   32.2600   33.4390 C   0  0  0  0  0  0  0  0  0  0  0  0
   33.6860   31.3190   32.9840 N   0  0  0  0  0  0  0  0  0  0  0  0
   35.0540   30.2840   35.8820 H   0  0  0  0  0  0  0  0  0  0  0  0
   32.2120   32.8150   32.7480 H   0  0  0  0  0  0  0  0  0  0  0  0
   33.4630   32.0990   37.1540 C   0  0  0  0  0  0  0  0  0  0  0  0
   34.7730   32.1780   37.5660 F   0  0  0  0  0  0  0  0  0  0  0  0
   32.8470   33.3040   37.4440 F   0  0  0  0  0  0  0  0  0  0  0  0
   32.8250   31.0770   37.8360 F   0  0  0  0  0  0  0  0  0  0  0  0
   37.4880   26.7660   33.7930 C   0  0  0  0  0  0  0  0  0  0  0  0
   37.4440   25.4980   33.2040 C   0  0  0  0  0  0  0  0  0  0  0  0
   38.1210   24.4730   33.7070 C   0  0  0  0  0  0  0  0  0  0  0  0
   38.9120   24.6750   34.8770 C   0  0  0  0  0  0  0  0  0  0  0  0
   38.5980   26.4790   35.1980 S   0  0  0  0  0  0  0  0  0  0  0  0
   36.8500   25.2870   32.2980 H   0  0  0  0  0  0  0  0  0  0  0  0
   38.2300   23.4600   33.4350 H   0  0  0  0  0  0  0  0  0  0  0  0
   37.5380   23.5120   37.3560 Cl  0  0  0  0  0  0  0  0  0  0  0  0
   39.2080   23.3570   36.8610 C   0  0  0  0  0  0  0  0  0  0  0  0
   39.7790   23.8940   35.7440 C   0  0  0  0  0  0  0  0  0  0  0  0
   41.0670   23.7900   35.3380 C   0  0  0  0  0  0  0  0  0  0  0  0
   41.4390   24.2500   34.4330 H   0  0  0  0  0  0  0  0  0  0  0  0
   41.9290   23.0540   36.1360 C   0  0  0  0  0  0  0  0  0  0  0  0
   42.9740   22.9040   35.9100 H   0  0  0  0  0  0  0  0  0  0  0  0
   41.4330   22.4690   37.2960 C   0  0  0  0  0  3  0  0  0  0  0  0
   40.0920   22.6170   37.6560 C   0  0  0  0  0  3  0  0  0  0  0  0
  1  8  1  0  0  0  0
  1  5  2  0  0  0  0
  2  1  1  0  0  0  0
  3  2  2  0  0  0  0
  3  4  1  0  0  0  0
  4 20  1  0  0  0  0
  4  5  1  0  0  0  0
  6  2  1  0  0  0  0
  7  3  1  0  0  0  0
  8  9  1  0  0  0  0
  9 10  2  0  0  0  0
  9 14  1  0  0  0  0
 10 16  1  0  0  0  0
 11 10  1  0  0  0  0
 12 11  2  0  0  0  0
 13 12  1  0  0  0  0
 13  8  2  0  0  0  0
 15 12  1  0  0  0  0
 16 18  1  0  0  0  0
 16 17  1  0  0  0  0
 16 19  1  0  0  0  0
 20 24  1  0  0  0  0
 21 22  1  0  0  0  0
 21 20  2  0  0  0  0
 22 23  2  0  0  0  0
 23 24  1  0  0  0  0
 23 29  1  0  0  0  0
 25 21  1  0  0  0  0
 26 22  1  0  0  0  0
 28 27  1  0  0  0  0
 28 35  1  0  0  0  0
 29 28  2  0  0  0  0
 30 29  1  0  0  0  0
 30 32  2  0  0  0  0
 31 30  1  0  0  0  0
 32 34  1  0  0  0  0
 33 32  1  0  0  0  0
 34 35  2  0  0  0  0
M  END
>  <minimizedAffinity>
-6.27553225

$$$$

 OpenBabel03272508073D

 35 38  0  0  0  0  0  0  0  0999 V2000
   37.4570   26.4300   34.3270 C   0  0  0  0  0  0  0  0  0  0  0  0
   37.5560   26.8300   33.0220 C   0  0  0  0  0  0  0  0  0  0  0  0
   36.8490   28.0010   32.8130 C   0  0  0  0  0  0  0  0  0  0  0  0
   36.3340   28.2780   34.0220 N   0  0  0  0  0  0  0  0  0  0  0  0
   36.6840   27.3630   34.9200 N   0  0  0  0  0  0  0  0  0  0  0  0
   38.1120   26.3130   32.2300 H   0  0  0  0  0  0  0  0  0  0  0  0
   36.7060   28.5950   31.9230 H   0  0  0  0  0  0  0  0  0  0  0  0
   38.0580   25.2520   34.9440 C   0  0  0  0  0  0  0  0  0  0  0  0
   37.9150   25.0880   36.3460 C   0  0  0  0  0  0  0  0  0  0  0  0
   38.4910   23.9640   36.9250 C   0  0  0  0  0  0  0  0  0  0  0  0
   39.1600   23.0830   36.1140 N   0  0  0  0  0  0  0  0  0  0  0  0
   39.2810   23.2650   34.7820 C   0  0  0  0  0  0  0  0  0  0  0  0
   38.7280   24.3510   34.2080 N   0  0  0  0  0  0  0  0  0  0  0  0
   37.3670   25.8390   36.9050 H   0  0  0  0  0  0  0  0  0  0  0  0
   39.8200   22.5410   34.1820 H   0  0  0  0  0  0  0  0  0  0  0  0
   38.3480   23.7770   38.4000 C   0  0  0  0  0  0  0  0  0  0  0  0
   37.9900   25.0130   38.8870 F   0  0  0  0  0  0  0  0  0  0  0  0
   37.3430   22.8820   38.7200 F   0  0  0  0  0  0  0  0  0  0  0  0
   39.5330   23.3740   38.9910 F   0  0  0  0  0  0  0  0  0  0  0  0
   35.4940   29.4000   34.4230 C   0  0  0  0  0  0  0  0  0  0  0  0
   35.9940   30.4750   35.1660 C   0  0  0  0  0  0  0  0  0  0  0  0
   35.2180   31.4890   35.5310 C   0  0  0  0  0  0  0  0  0  0  0  0
   33.8430   31.4780   35.1540 C   0  0  0  0  0  0  0  0  0  0  0  0
   33.7550   29.8720   34.2210 S   0  0  0  0  0  0  0  0  0  0  0  0
   37.0490   30.5350   35.4840 H   0  0  0  0  0  0  0  0  0  0  0  0
   35.3780   32.3760   36.0780 H   0  0  0  0  0  0  0  0  0  0  0  0
   33.3230   33.4090   32.8330 Cl  0  0  0  0  0  0  0  0  0  0  0  0
   32.4010   33.1970   34.3040 C   0  0  0  0  0  0  0  0  0  0  0  0
   32.6700   32.3220   35.3160 C   0  0  0  0  0  0  0  0  0  0  0  0
   31.9750   32.1380   36.4630 C   0  0  0  0  0  0  0  0  0  0  0  0
   32.2600   31.4180   37.2160 H   0  0  0  0  0  0  0  0  0  0  0  0
   30.8490   32.9230   36.6570 C   0  0  0  0  0  0  0  0  0  0  0  0
   30.2200   32.8620   37.5330 H   0  0  0  0  0  0  0  0  0  0  0  0
   30.4970   33.8450   35.6780 C   0  0  0  0  0  3  0  0  0  0  0  0
   31.2600   33.9820   34.5160 C   0  0  0  0  0  3  0  0  0  0  0  0
  1  5  2  0  0  0  0
  1  8  1  0  0  0  0
  2  1  1  0  0  0  0
  3  2  2  0  0  0  0
  3  4  1  0  0  0  0
  4 20  1  0  0  0  0
  4  5  1  0  0  0  0
  6  2  1  0  0  0  0
  7  3  1  0  0  0  0
  8  9  1  0  0  0  0
  9 14  1  0  0  0  0
  9 10  2  0  0  0  0
 10 16  1  0  0  0  0
 11 10  1  0  0  0  0
 12 11  2  0  0  0  0
 13 12  1  0  0  0  0
 13  8  2  0  0  0  0
 15 12  1  0  0  0  0
 16 18  1  0  0  0  0
 16 17  1  0  0  0  0
 16 19  1  0  0  0  0
 20 21  2  0  0  0  0
 21 25  1  0  0  0  0
 21 22  1  0  0  0  0
 22 26  1  0  0  0  0
 23 29  1  0  0  0  0
 23 22  2  0  0  0  0
 24 20  1  0  0  0  0
 24 23  1  0  0  0  0
 27 28  1  0  0  0  0
 28 35  2  0  0  0  0
 28 29  1  0  0  0  0
 29 30  2  0  0  0  0
 30 32  1  0  0  0  0
 30 31  1  0  0  0  0
 32 33  1  0  0  0  0
 34 32  2  0  0  0  0
 35 34  1  0  0  0  0
M  END
>  <minimizedAffinity>
-6.15905476

$$$$

 OpenBabel03272508073D

 35 38  0  0  0  0  0  0  0  0999 V2000
   37.7150   25.3810   33.7580 C   0  0  0  0  0  0  0  0  0  0  0  0
   37.7440   25.3850   32.3900 C   0  0  0  0  0  0  0  0  0  0  0  0
   37.2000   26.5540   31.8900 C   0  0  0  0  0  0  0  0  0  0  0  0
   36.8510   27.2360   32.9930 N   0  0  0  0  0  0  0  0  0  0  0  0
   37.1470   26.5580   34.0970 N   0  0  0  0  0  0  0  0  0  0  0  0
   38.1390   24.5840   31.7530 H   0  0  0  0  0  0  0  0  0  0  0  0
   37.0600   26.8960   30.8760 H   0  0  0  0  0  0  0  0  0  0  0  0
   38.1930   24.3350   34.6560 C   0  0  0  0  0  0  0  0  0  0  0  0
   38.0190   24.5240   36.0510 C   0  0  0  0  0  0  0  0  0  0  0  0
   38.4780   23.5220   36.8980 C   0  0  0  0  0  0  0  0  0  0  0  0
   39.0680   22.4170   36.3410 N   0  0  0  0  0  0  0  0  0  0  0  0
   39.2210   22.2640   35.0090 C   0  0  0  0  0  0  0  0  0  0  0  0
   38.7810   23.2280   34.1760 N   0  0  0  0  0  0  0  0  0  0  0  0
   37.5390   25.4320   36.3990 H   0  0  0  0  0  0  0  0  0  0  0  0
   39.6950   21.3730   34.6150 H   0  0  0  0  0  0  0  0  0  0  0  0
   38.3010   23.7070   38.3700 C   0  0  0  0  0  0  0  0  0  0  0  0
   39.5270   23.4140   38.9210 F   0  0  0  0  0  0  0  0  0  0  0  0
   37.9830   25.0130   38.6990 F   0  0  0  0  0  0  0  0  0  0  0  0
   37.3450   22.8520   38.8900 F   0  0  0  0  0  0  0  0  0  0  0  0
   36.2270   28.5500   33.0980 C   0  0  0  0  0  0  0  0  0  0  0  0
   36.3370   29.5080   32.0850 C   0  0  0  0  0  0  0  0  0  0  0  0
   35.7700   30.7040   32.1940 C   0  0  0  0  0  0  0  0  0  0  0  0
   35.0320   31.0140   33.3730 C   0  0  0  0  0  0  0  0  0  0  0  0
   35.2220   29.4280   34.3250 S   0  0  0  0  0  0  0  0  0  0  0  0
   36.8950   29.3210   31.1510 H   0  0  0  0  0  0  0  0  0  0  0  0
   35.7260   31.5550   31.5730 H   0  0  0  0  0  0  0  0  0  0  0  0
   36.5320   32.6880   35.4550 Cl  0  0  0  0  0  0  0  0  0  0  0  0
   34.9080   32.9050   34.8450 C   0  0  0  0  0  0  0  0  0  0  0  0
   34.2760   32.1320   33.9140 C   0  0  0  0  0  0  0  0  0  0  0  0
   33.0220   32.2780   33.4260 C   0  0  0  0  0  0  0  0  0  0  0  0
   32.5970   31.6150   32.6850 H   0  0  0  0  0  0  0  0  0  0  0  0
   32.2670   33.3310   33.9160 C   0  0  0  0  0  0  0  0  0  0  0  0
   31.2560   33.5430   33.5990 H   0  0  0  0  0  0  0  0  0  0  0  0
   32.8280   34.1740   34.8690 C   0  0  0  0  0  3  0  0  0  0  0  0
   34.1300   33.9650   35.3290 C   0  0  0  0  0  3  0  0  0  0  0  0
  1  5  2  0  0  0  0
  1  8  1  0  0  0  0
  2  1  1  0  0  0  0
  3  2  2  0  0  0  0
  3  4  1  0  0  0  0
  4 20  1  0  0  0  0
  4  5  1  0  0  0  0
  6  2  1  0  0  0  0
  7  3  1  0  0  0  0
  8  9  1  0  0  0  0
  9 14  1  0  0  0  0
  9 10  2  0  0  0  0
 10 16  1  0  0  0  0
 11 10  1  0  0  0  0
 12 11  2  0  0  0  0
 13  8  2  0  0  0  0
 13 12  1  0  0  0  0
 15 12  1  0  0  0  0
 16 18  1  0  0  0  0
 16 19  1  0  0  0  0
 16 17  1  0  0  0  0
 20 24  1  0  0  0  0
 21 22  1  0  0  0  0
 21 20  2  0  0  0  0
 22 23  2  0  0  0  0
 23 29  1  0  0  0  0
 23 24  1  0  0  0  0
 25 21  1  0  0  0  0
 26 22  1  0  0  0  0
 28 35  1  0  0  0  0
 28 27  1  0  0  0  0
 29 28  2  0  0  0  0
 30 29  1  0  0  0  0
 30 32  2  0  0  0  0
 31 30  1  0  0  0  0
 32 34  1  0  0  0  0
 33 32  1  0  0  0  0
 34 35  2  0  0  0  0
M  END
>  <minimizedAffinity>
-6.11154175

$$$$

 OpenBabel03272508073D

 35 38  0  0  0  0  0  0  0  0999 V2000
   35.3240   29.5730   33.3170 C   0  0  0  0  0  0  0  0  0  0  0  0
   35.7090   29.3570   32.0220 C   0  0  0  0  0  0  0  0  0  0  0  0
   36.5650   28.2740   31.9380 C   0  0  0  0  0  0  0  0  0  0  0  0
   36.6730   27.8580   33.2100 N   0  0  0  0  0  0  0  0  0  0  0  0
   35.9490   28.6130   34.0310 N   0  0  0  0  0  0  0  0  0  0  0  0
   35.3970   29.9480   31.1520 H   0  0  0  0  0  0  0  0  0  0  0  0
   37.0580   27.8230   31.0910 H   0  0  0  0  0  0  0  0  0  0  0  0
   34.4300   30.6120   33.8200 C   0  0  0  0  0  0  0  0  0  0  0  0
   34.4270   30.8700   35.2140 C   0  0  0  0  0  0  0  0  0  0  0  0
   33.5720   31.8610   35.6830 C   0  0  0  0  0  0  0  0  0  0  0  0
   32.7880   32.5270   34.7770 N   0  0  0  0  0  0  0  0  0  0  0  0
   32.8120   32.2600   33.4540 C   0  0  0  0  0  0  0  0  0  0  0  0
   33.6360   31.3010   32.9860 N   0  0  0  0  0  0  0  0  0  0  0  0
   35.0830   30.2900   35.8540 H   0  0  0  0  0  0  0  0  0  0  0  0
   32.1730   32.8130   32.7760 H   0  0  0  0  0  0  0  0  0  0  0  0
   33.5570   32.1440   37.1500 C   0  0  0  0  0  0  0  0  0  0  0  0
   34.8780   32.1370   37.5320 F   0  0  0  0  0  0  0  0  0  0  0  0
   33.0320   33.3920   37.4370 F   0  0  0  0  0  0  0  0  0  0  0  0
   32.8650   31.1770   37.8590 F   0  0  0  0  0  0  0  0  0  0  0  0
   37.4450   26.7430   33.7460 C   0  0  0  0  0  0  0  0  0  0  0  0
   37.6070   25.5450   33.0440 C   0  0  0  0  0  0  0  0  0  0  0  0
   38.3070   24.5340   33.5440 C   0  0  0  0  0  0  0  0  0  0  0  0
   38.9060   24.6780   34.8300 C   0  0  0  0  0  0  0  0  0  0  0  0
   38.3750   26.4050   35.2660 S   0  0  0  0  0  0  0  0  0  0  0  0
   37.1660   25.3800   32.0450 H   0  0  0  0  0  0  0  0  0  0  0  0
   38.5510   23.5680   33.2000 H   0  0  0  0  0  0  0  0  0  0  0  0
   41.7920   24.2280   33.9060 Cl  0  0  0  0  0  0  0  0  0  0  0  0
   41.0140   23.6630   35.3660 C   0  0  0  0  0  0  0  0  0  0  0  0
   39.7200   23.8870   35.7390 C   0  0  0  0  0  0  0  0  0  0  0  0
   39.0930   23.4610   36.8610 C   0  0  0  0  0  0  0  0  0  0  0  0
   38.0590   23.6860   37.0800 H   0  0  0  0  0  0  0  0  0  0  0  0
   39.8330   22.7040   37.7550 C   0  0  0  0  0  0  0  0  0  0  0  0
   39.4370   22.3120   38.6800 H   0  0  0  0  0  0  0  0  0  0  0  0
   41.1620   22.4240   37.4580 C   0  0  0  0  0  3  0  0  0  0  0  0
   41.7470   22.8960   36.2810 C   0  0  0  0  0  3  0  0  0  0  0  0
  1  8  1  0  0  0  0
  1  5  2  0  0  0  0
  2  1  1  0  0  0  0
  3  2  2  0  0  0  0
  3  4  1  0  0  0  0
  4 20  1  0  0  0  0
  4  5  1  0  0  0  0
  6  2  1  0  0  0  0
  7  3  1  0  0  0  0
  8  9  1  0  0  0  0
  9 10  2  0  0  0  0
  9 14  1  0  0  0  0
 10 16  1  0  0  0  0
 11 10  1  0  0  0  0
 12 11  2  0  0  0  0
 13 12  1  0  0  0  0
 13  8  2  0  0  0  0
 15 12  1  0  0  0  0
 16 18  1  0  0  0  0
 16 17  1  0  0  0  0
 16 19  1  0  0  0  0
 20 24  1  0  0  0  0
 21 22  1  0  0  0  0
 21 20  2  0  0  0  0
 22 23  2  0  0  0  0
 23 24  1  0  0  0  0
 23 29  1  0  0  0  0
 25 21  1  0  0  0  0
 26 22  1  0  0  0  0
 27 28  1  0  0  0  0
 28 29  2  0  0  0  0
 28 35  1  0  0  0  0
 29 30  1  0  0  0  0
 30 31  1  0  0  0  0
 30 32  2  0  0  0  0
 32 33  1  0  0  0  0
 34 32  1  0  0  0  0
 35 34  2  0  0  0  0
M  END
>  <minimizedAffinity>
-6.04765749

$$$$

 OpenBabel03272508073D

 35 38  0  0  0  0  0  0  0  0999 V2000
   36.2870   28.1190   33.2710 C   0  0  0  0  0  0  0  0  0  0  0  0
   36.4760   27.5520   32.0400 C   0  0  0  0  0  0  0  0  0  0  0  0
   37.4550   26.5760   32.0940 C   0  0  0  0  0  0  0  0  0  0  0  0
   37.8370   26.5840   33.3820 N   0  0  0  0  0  0  0  0  0  0  0  0
   37.1590   27.4860   34.0840 N   0  0  0  0  0  0  0  0  0  0  0  0
   35.9390   27.8160   31.1210 H   0  0  0  0  0  0  0  0  0  0  0  0
   37.8600   25.9330   31.3280 H   0  0  0  0  0  0  0  0  0  0  0  0
   35.3480   29.1780   33.6290 C   0  0  0  0  0  0  0  0  0  0  0  0
   35.7260   30.0850   34.6510 C   0  0  0  0  0  0  0  0  0  0  0  0
   34.8250   31.0890   34.9860 C   0  0  0  0  0  0  0  0  0  0  0  0
   33.6320   31.1440   34.3130 N   0  0  0  0  0  0  0  0  0  0  0  0
   33.2990   30.2670   33.3430 C   0  0  0  0  0  0  0  0  0  0  0  0
   34.1630   29.2880   33.0100 N   0  0  0  0  0  0  0  0  0  0  0  0
   36.6930   29.9620   35.1270 H   0  0  0  0  0  0  0  0  0  0  0  0
   32.3430   30.3500   32.8400 H   0  0  0  0  0  0  0  0  0  0  0  0
   35.2090   32.0540   36.0610 C   0  0  0  0  0  0  0  0  0  0  0  0
   36.5770   31.9520   36.1640 F   0  0  0  0  0  0  0  0  0  0  0  0
   34.8980   33.3600   35.7270 F   0  0  0  0  0  0  0  0  0  0  0  0
   34.6280   31.7350   37.2760 F   0  0  0  0  0  0  0  0  0  0  0  0
   38.8430   25.7610   34.0430 C   0  0  0  0  0  0  0  0  0  0  0  0
   40.0510   26.2930   34.5060 C   0  0  0  0  0  0  0  0  0  0  0  0
   40.9630   25.5330   35.1020 C   0  0  0  0  0  0  0  0  0  0  0  0
   40.6990   24.1420   35.2710 C   0  0  0  0  0  0  0  0  0  0  0  0
   39.0150   24.0130   34.4960 S   0  0  0  0  0  0  0  0  0  0  0  0
   40.3060   27.3620   34.4030 H   0  0  0  0  0  0  0  0  0  0  0  0
   41.9150   25.7170   35.5160 H   0  0  0  0  0  0  0  0  0  0  0  0
   39.4960   23.1270   37.8990 Cl  0  0  0  0  0  0  0  0  0  0  0  0
   40.8570   22.4900   37.0050 C   0  0  0  0  0  0  0  0  0  0  0  0
   41.3620   22.9770   35.8340 C   0  0  0  0  0  0  0  0  0  0  0  0
   42.4130   22.5040   35.1230 C   0  0  0  0  0  0  0  0  0  0  0  0
   42.7480   22.9520   34.1980 H   0  0  0  0  0  0  0  0  0  0  0  0
   43.0730   21.3940   35.6240 C   0  0  0  0  0  0  0  0  0  0  0  0
   43.9220   20.9330   35.1420 H   0  0  0  0  0  0  0  0  0  0  0  0
   42.6280   20.8290   36.8150 C   0  0  0  0  0  3  0  0  0  0  0  0
   41.5360   21.3690   37.4980 C   0  0  0  0  0  3  0  0  0  0  0  0
  1  8  1  0  0  0  0
  1  5  2  0  0  0  0
  2  3  2  0  0  0  0
  2  1  1  0  0  0  0
  3  4  1  0  0  0  0
  4 20  1  0  0  0  0
  4  5  1  0  0  0  0
  6  2  1  0  0  0  0
  7  3  1  0  0  0  0
  8  9  1  0  0  0  0
  9 10  2  0  0  0  0
  9 14  1  0  0  0  0
 10 16  1  0  0  0  0
 11 10  1  0  0  0  0
 12 11  2  0  0  0  0
 13 12  1  0  0  0  0
 13  8  2  0  0  0  0
 15 12  1  0  0  0  0
 16 17  1  0  0  0  0
 16 19  1  0  0  0  0
 18 16  1  0  0  0  0
 20 24  1  0  0  0  0
 20 21  2  0  0  0  0
 21 22  1  0  0  0  0
 22 23  2  0  0  0  0
 22 26  1  0  0  0  0
 23 29  1  0  0  0  0
 24 23  1  0  0  0  0
 25 21  1  0  0  0  0
 28 35  1  0  0  0  0
 28 27  1  0  0  0  0
 29 28  2  0  0  0  0
 30 32  2  0  0  0  0
 30 29  1  0  0  0  0
 31 30  1  0  0  0  0
 32 34  1  0  0  0  0
 33 32  1  0  0  0  0
 34 35  2  0  0  0  0
M  END
>  <minimizedAffinity>
-6.0276432

$$$$

 OpenBabel03272508073D

 35 38  0  0  0  0  0  0  0  0999 V2000
   37.6090   26.6320   34.0180 C   0  0  0  0  0  0  0  0  0  0  0  0
   37.6390   26.9590   32.6900 C   0  0  0  0  0  0  0  0  0  0  0  0
   36.8210   28.0440   32.4330 C   0  0  0  0  0  0  0  0  0  0  0  0
   36.3110   28.3470   33.6380 N   0  0  0  0  0  0  0  0  0  0  0  0
   36.7650   27.5240   34.5780 N   0  0  0  0  0  0  0  0  0  0  0  0
   38.2220   26.4480   31.9150 H   0  0  0  0  0  0  0  0  0  0  0  0
   36.6020   28.5670   31.5150 H   0  0  0  0  0  0  0  0  0  0  0  0
   38.3310   25.5540   34.6860 C   0  0  0  0  0  0  0  0  0  0  0  0
   37.9760   25.2420   36.0240 C   0  0  0  0  0  0  0  0  0  0  0  0
   38.6700   24.2150   36.6520 C   0  0  0  0  0  0  0  0  0  0  0  0
   39.6510   23.5660   35.9470 N   0  0  0  0  0  0  0  0  0  0  0  0
   39.9680   23.8840   34.6750 C   0  0  0  0  0  0  0  0  0  0  0  0
   39.3040   24.8780   34.0540 N   0  0  0  0  0  0  0  0  0  0  0  0
   37.1850   25.8120   36.4990 H   0  0  0  0  0  0  0  0  0  0  0  0
   40.7530   23.3430   34.1590 H   0  0  0  0  0  0  0  0  0  0  0  0
   38.3070   23.8750   38.0600 C   0  0  0  0  0  0  0  0  0  0  0  0
   37.1880   23.0810   37.9630 F   0  0  0  0  0  0  0  0  0  0  0  0
   39.2970   23.1470   38.6960 F   0  0  0  0  0  0  0  0  0  0  0  0
   38.0100   25.0030   38.8070 F   0  0  0  0  0  0  0  0  0  0  0  0
   35.3790   29.4090   33.9970 C   0  0  0  0  0  0  0  0  0  0  0  0
   35.8050   30.7170   34.2540 C   0  0  0  0  0  0  0  0  0  0  0  0
   34.9480   31.6750   34.5850 C   0  0  0  0  0  0  0  0  0  0  0  0
   33.5610   31.3590   34.6820 C   0  0  0  0  0  0  0  0  0  0  0  0
   33.5890   29.5510   34.2510 S   0  0  0  0  0  0  0  0  0  0  0  0
   36.8650   31.0170   34.1920 H   0  0  0  0  0  0  0  0  0  0  0  0
   35.0450   32.7000   34.8160 H   0  0  0  0  0  0  0  0  0  0  0  0
   32.5360   30.9070   37.5330 Cl  0  0  0  0  0  0  0  0  0  0  0  0
   31.8230   31.8670   36.2570 C   0  0  0  0  0  0  0  0  0  0  0  0
   32.3160   32.0410   34.9960 C   0  0  0  0  0  0  0  0  0  0  0  0
   31.7840   32.7760   33.9910 C   0  0  0  0  0  0  0  0  0  0  0  0
   32.2430   32.8610   33.0160 H   0  0  0  0  0  0  0  0  0  0  0  0
   30.5970   33.4420   34.2480 C   0  0  0  0  0  0  0  0  0  0  0  0
   30.0840   34.0570   33.5230 H   0  0  0  0  0  0  0  0  0  0  0  0
   30.0200   33.3230   35.5080 C   0  0  0  0  0  3  0  0  0  0  0  0
   30.6230   32.5460   36.5000 C   0  0  0  0  0  3  0  0  0  0  0  0
  1  5  2  0  0  0  0
  1  8  1  0  0  0  0
  2  1  1  0  0  0  0
  3  2  2  0  0  0  0
  3  4  1  0  0  0  0
  4 20  1  0  0  0  0
  4  5  1  0  0  0  0
  6  2  1  0  0  0  0
  7  3  1  0  0  0  0
  8  9  1  0  0  0  0
  9 14  1  0  0  0  0
  9 10  2  0  0  0  0
 10 16  1  0  0  0  0
 11 10  1  0  0  0  0
 12 11  2  0  0  0  0
 13 12  1  0  0  0  0
 13  8  2  0  0  0  0
 15 12  1  0  0  0  0
 16 18  1  0  0  0  0
 16 19  1  0  0  0  0
 17 16  1  0  0  0  0
 20 24  1  0  0  0  0
 20 21  2  0  0  0  0
 21 22  1  0  0  0  0
 22 23  2  0  0  0  0
 22 26  1  0  0  0  0
 23 29  1  0  0  0  0
 24 23  1  0  0  0  0
 25 21  1  0  0  0  0
 28 35  1  0  0  0  0
 28 27  1  0  0  0  0
 29 28  2  0  0  0  0
 30 32  2  0  0  0  0
 30 29  1  0  0  0  0
 31 30  1  0  0  0  0
 32 34  1  0  0  0  0
 33 32  1  0  0  0  0
 34 35  2  0  0  0  0
M  END
>  <minimizedAffinity>
-6.02295828

$$$$
