
 OpenBabel03272508333D

 47 51  0  0  1  0  0  0  0  0999 V2000
   33.9910   28.1010   44.7760 N   0  0  0  0  0  0  0  0  0  0  0  0
   33.8330   26.6750   44.8440 C   0  0  0  0  0  0  0  0  0  0  0  0
   33.7170   26.0500   43.4830 C   0  0  0  0  0  0  0  0  0  0  0  0
   34.3380   26.8880   42.4880 N   0  0  0  0  0  0  0  0  0  0  0  0
   33.4850   28.0690   42.3690 C   0  0  0  0  0  0  0  0  0  0  0  0
   33.8120   28.9280   43.5340 C   0  0  1  0  0  0  0  0  0  0  0  0
   34.6910   26.2250   45.3710 H   0  0  0  0  0  0  0  0  0  0  0  0
   32.8960   26.3340   45.3470 H   0  0  0  0  0  0  0  0  0  0  0  0
   32.6240   26.0270   43.1830 H   0  0  0  0  0  0  0  0  0  0  0  0
   34.0250   24.9940   43.4340 H   0  0  0  0  0  0  0  0  0  0  0  0
   34.1810   26.3850   41.5610 H   0  0  0  0  0  0  0  0  0  0  0  0
   32.4290   27.7580   42.2840 H   0  0  0  0  0  0  0  0  0  0  0  0
   33.8320   28.5820   41.4290 H   0  0  0  0  0  0  0  0  0  0  0  0
   34.8180   29.3760   43.3970 H   0  0  0  0  0  0  0  0  0  0  0  0
   31.5730   29.8560   44.2470 C   0  0  0  0  0  0  0  0  0  0  0  0
   32.8760   30.0340   43.7370 C   0  0  0  0  0  0  0  0  0  0  0  0
   33.3370   31.2960   43.4670 C   0  0  0  0  0  0  0  0  0  0  0  0
   32.5110   32.3430   43.7320 C   0  0  0  0  0  0  0  0  0  0  0  0
   31.2110   32.1720   44.2360 C   0  0  0  0  0  0  0  0  0  0  0  0
   30.6980   30.8880   44.5040 C   0  0  0  0  0  0  0  0  0  0  0  0
   30.5580   33.4040   44.4130 O   0  0  0  0  0  0  0  0  0  0  0  0
   31.5740   34.3720   44.3730 C   0  0  0  0  0  0  0  0  0  0  0  0
   32.6260   33.7430   43.6160 O   0  0  0  0  0  0  0  0  0  0  0  0
   31.2020   28.8660   44.4430 H   0  0  0  0  0  0  0  0  0  0  0  0
   34.1800   31.6730   42.9560 H   0  0  0  0  0  0  0  0  0  0  0  0
   29.6970   30.7380   44.8510 H   0  0  0  0  0  0  0  0  0  0  0  0
   31.2270   35.2260   43.7610 H   0  0  0  0  0  0  0  0  0  0  0  0
   31.8910   34.6470   45.3880 H   0  0  0  0  0  0  0  0  0  0  0  0
   35.4760   29.6830   45.9300 C   0  0  0  0  0  0  0  0  0  0  0  0
   34.3520   28.7920   45.9690 C   0  0  0  0  0  0  0  0  0  0  0  0
   33.6800   28.7040   47.1400 C   0  0  0  0  0  0  0  0  0  0  0  0
   34.0180   29.4420   48.2280 N   0  0  0  0  0  0  0  0  0  0  0  0
   35.0910   30.2760   48.1460 C   0  0  0  0  0  0  0  0  0  0  0  0
   35.8210   30.4060   47.0150 N   0  0  0  0  0  0  0  0  0  0  0  0
   35.5110   31.0340   49.2830 N   0  0  0  0  0  0  0  0  0  0  0  0
   36.0320   29.7680   45.0160 H   0  0  0  0  0  0  0  0  0  0  0  0
   35.3090   32.0310   49.4500 H   0  0  0  0  0  0  0  0  0  0  0  0
   36.0720   30.4550   49.9590 H   0  0  0  0  0  0  0  0  0  0  0  0
   33.8910   25.4270   47.4550 Cl  0  0  0  0  0  0  0  0  0  0  0  0
   32.4020   26.2710   47.3240 C   0  0  0  0  0  0  0  0  0  0  0  0
   32.8000   27.5670   47.2680 C   0  0  0  0  0  0  0  0  0  0  0  0
   31.5080   28.3340   47.1030 C   0  0  0  0  0  0  0  0  0  0  0  0
   31.3270   29.4270   47.0020 H   0  0  0  0  0  0  0  0  0  0  0  0
   30.2040   27.9410   46.9970 C   0  0  0  0  0  0  0  0  0  0  0  0
   29.2630   28.4260   46.7990 H   0  0  0  0  0  0  0  0  0  0  0  0
   29.9360   26.5690   47.0660 C   0  0  0  0  0  3  0  0  0  0  0  0
   31.1220   25.8080   47.2340 C   0  0  0  0  0  3  0  0  0  0  0  0
  1  2  1  0  0  0  0
  1 30  1  0  0  0  0
  2  8  1  0  0  0  0
  2  7  1  0  0  0  0
  3  2  1  0  0  0  0
  4  3  1  0  0  0  0
  5  4  1  0  0  0  0
  5  6  1  0  0  0  0
  6 14  1  6  0  0  0
  6 16  1  0  0  0  0
  6  1  1  0  0  0  0
  9  3  1  0  0  0  0
 10  3  1  0  0  0  0
 11  4  1  0  0  0  0
 12  5  1  0  0  0  0
 13  5  1  0  0  0  0
 15 24  1  0  0  0  0
 15 20  1  0  0  0  0
 16 15  2  0  0  0  0
 17 18  2  0  0  0  0
 17 16  1  0  0  0  0
 18 19  1  0  0  0  0
 19 21  1  0  0  0  0
 19 20  2  0  0  0  0
 20 26  1  0  0  0  0
 22 21  1  0  0  0  0
 22 28  1  0  0  0  0
 23 18  1  0  0  0  0
 23 22  1  0  0  0  0
 25 17  1  0  0  0  0
 27 22  1  0  0  0  0
 29 30  2  0  0  0  0
 29 34  1  0  0  0  0
 30 31  1  0  0  0  0
 31 41  1  0  0  0  0
 31 32  2  0  0  0  0
 33 32  1  0  0  0  0
 33 35  1  0  0  0  0
 34 33  2  0  0  0  0
 35 37  1  0  0  0  0
 35 38  1  0  0  0  0
 36 29  1  0  0  0  0
 40 39  1  0  0  0  0
 41 40  1  0  0  0  0
 42 41  2  0  0  0  0
 43 42  1  0  0  0  0
 44 46  2  0  0  0  0
 44 42  1  0  0  0  0
 45 44  1  0  0  0  0
 46 47  1  0  0  0  0
 47 40  2  0  0  0  0
M  END
>  <minimizedAffinity>
-4.08901978

>  <minimizedRMSD>
5.50611448

$$$$
