
 OpenBabel03272502553D

 42 45  0  0  0  0  0  0  0  0999 V2000
   36.4310   30.2880   48.9160 C   0  0  0  0  0  0  0  0  0  0  0  0
   36.4970   30.0830   50.2970 C   0  0  0  0  0  0  0  0  0  0  0  0
   35.5430   29.3150   50.9410 C   0  0  0  0  0  0  0  0  0  0  0  0
   34.5490   28.7810   50.1410 C   0  0  0  0  0  0  0  0  0  0  0  0
   34.4780   28.9770   48.7790 C   0  0  0  0  0  0  0  0  0  0  0  0
   35.4340   29.7370   48.1920 N   0  0  0  0  0  0  0  0  0  0  0  0
   33.4160   28.3780   48.0710 N   0  0  0  0  0  0  0  0  0  0  0  0
   32.2930   27.8580   48.8040 C   0  0  0  0  0  0  0  0  0  0  0  0
   31.3790   27.1770   47.8110 C   0  0  0  0  0  0  0  0  0  0  0  0
   30.9430   28.1620   46.7460 C   0  0  0  0  0  0  0  0  0  0  0  0
   32.1110   28.8450   46.1100 C   0  0  0  0  0  0  0  0  0  0  0  0
   33.3920   28.2510   46.6200 C   0  0  0  0  0  0  0  0  0  0  0  0
   37.3090   30.5390   50.8440 H   0  0  0  0  0  0  0  0  0  0  0  0
   35.6210   29.1760   52.0060 H   0  0  0  0  0  0  0  0  0  0  0  0
   33.8390   28.1870   50.7410 H   0  0  0  0  0  0  0  0  0  0  0  0
   32.6030   27.0890   49.5630 H   0  0  0  0  0  0  0  0  0  0  0  0
   31.6760   28.6520   49.2980 H   0  0  0  0  0  0  0  0  0  0  0  0
   31.8170   26.2570   47.3790 H   0  0  0  0  0  0  0  0  0  0  0  0
   30.4420   26.8660   48.3480 H   0  0  0  0  0  0  0  0  0  0  0  0
   30.1790   28.8500   47.1450 H   0  0  0  0  0  0  0  0  0  0  0  0
   30.4180   27.5700   45.9510 H   0  0  0  0  0  0  0  0  0  0  0  0
   32.1250   28.7120   44.9940 H   0  0  0  0  0  0  0  0  0  0  0  0
   32.1120   29.9470   46.2880 H   0  0  0  0  0  0  0  0  0  0  0  0
   33.3690   27.1600   46.4060 H   0  0  0  0  0  0  0  0  0  0  0  0
   34.2820   28.7360   46.1690 H   0  0  0  0  0  0  0  0  0  0  0  0
   38.9080   32.9160   48.3210 C   0  0  0  0  0  0  0  0  0  0  0  0
   39.3730   32.6020   47.0250 C   0  0  0  0  0  0  0  0  0  0  0  0
   38.8390   31.5100   46.3830 C   0  0  0  0  0  0  0  0  0  0  0  0
   37.8840   30.7950   47.0490 N   0  0  0  0  0  0  0  0  0  0  0  0
   37.4470   31.0990   48.2790 C   0  0  0  0  0  0  0  0  0  0  0  0
   37.9680   32.1590   48.8990 N   0  0  0  0  0  0  0  0  0  0  0  0
   39.3490   33.7860   48.8070 H   0  0  0  0  0  0  0  0  0  0  0  0
   40.1320   33.2040   46.5450 H   0  0  0  0  0  0  0  0  0  0  0  0
   39.9960   33.6330   44.6750 Cl  0  0  0  0  0  0  0  0  0  0  0  0
   39.7750   31.9550   44.1650 C   0  0  0  0  0  0  0  0  0  0  0  0
   39.2270   31.0870   45.0660 C   0  0  0  0  0  0  0  0  0  0  0  0
   39.0790   29.7960   44.6090 C   0  0  0  0  0  0  0  0  0  0  0  0
   38.6600   29.0340   45.2340 H   0  0  0  0  0  0  0  0  0  0  0  0
   39.4370   29.3460   43.3560 C   0  0  0  0  0  0  0  0  0  0  0  0
   39.3070   28.3260   43.0330 H   0  0  0  0  0  0  0  0  0  0  0  0
   39.9950   30.2710   42.4690 C   0  0  0  0  0  0  0  0  0  0  0  0
   40.1560   31.5660   42.8870 C   0  0  0  0  0  0  0  0  0  0  0  0
  1  2  1  0  0  0  0
  2 13  1  0  0  0  0
  2  3  2  0  0  0  0
  3 14  1  0  0  0  0
  4 15  1  0  0  0  0
  4  3  1  0  0  0  0
  5  4  2  0  0  0  0
  6  5  1  0  0  0  0
  6  1  2  0  0  0  0
  7  5  1  0  0  0  0
  7  8  1  0  0  0  0
  8 17  1  0  0  0  0
  8 16  1  0  0  0  0
  9 19  1  0  0  0  0
  9  8  1  0  0  0  0
 10 20  1  0  0  0  0
 10  9  1  0  0  0  0
 11 23  1  0  0  0  0
 11 12  1  0  0  0  0
 11 10  1  0  0  0  0
 12  7  1  0  0  0  0
 18  9  1  0  0  0  0
 21 10  1  0  0  0  0
 22 11  1  0  0  0  0
 24 12  1  0  0  0  0
 25 12  1  0  0  0  0
 26 32  1  0  0  0  0
 26 31  1  0  0  0  0
 27 26  2  0  0  0  0
 28 27  1  0  0  0  0
 28 29  2  0  0  0  0
 29 30  1  0  0  0  0
 30 31  2  0  0  0  0
 30  1  1  0  0  0  0
 33 27  1  0  0  0  0
 35 34  1  0  0  0  0
 35 36  1  0  0  0  0
 36 28  1  0  0  0  0
 37 36  2  0  0  0  0
 37 38  1  0  0  0  0
 39 37  1  0  0  0  0
 40 39  1  0  0  0  0
 41 42  1  0  0  0  0
 41 39  2  0  0  0  0
 42 35  2  0  0  0  0
M  END
>  <minimizedAffinity>
-7.16543007

>  <minimizedRMSD>
1.78002465

$$$$
