REMARK  Name = 
REMARK  2 active torsions:
REMARK  status: ('A' for Active; 'I' for Inactive)
REMARK    1  A    between atoms: C_2  and  C_12
REMARK    2  A    between atoms: C_20  and  C_38
REMARK                            x       y       z     vdW  Elec       q    Type
REMARK                         _______ _______ _______ _____ _____    ______ ____
ROOT
ATOM      1  C   UNL     1      36.837  31.120  48.538  0.00  0.00    +0.000 A 
ATOM      2  N   UNL     1      36.795  32.007  49.566  0.00  0.00    +0.000 NA
ATOM      3  C   UNL     1      37.684  33.017  49.608  0.00  0.00    +0.000 A 
ATOM      4  N   UNL     1      38.658  33.228  48.669  0.00  0.00    +0.000 NA
ATOM      5  C   UNL     1      38.721  32.365  47.641  0.00  0.00    +0.000 A 
ATOM      6  C   UNL     1      39.675  32.478  46.644  0.00  0.00    +0.000 A 
ATOM      7  C   UNL     1      39.722  31.548  45.591  0.00  0.00    +0.000 A 
ATOM      8  C   UNL     1      38.793  30.503  45.562  0.00  0.00    +0.000 A 
ATOM      9  C   UNL     1      37.857  30.437  46.585  0.00  0.00    +0.000 A 
ATOM     10  C   UNL     1      37.815  31.341  47.604  0.00  0.00    +0.000 A 
ATOM     11  H   UNL     1      37.723  33.776  50.400  0.00  0.00    +0.000 HD
ATOM     12  H   UNL     1      40.340  33.317  46.764  0.00  0.00    +0.000 HD
ATOM     13  H   UNL     1      40.509  31.767  44.903  0.00  0.00    +0.000 HD
ATOM     14  H   UNL     1      39.016  29.931  44.691  0.00  0.00    +0.000 HD
ENDROOT
BRANCH   1  16
ATOM     15  C   UNL     1      35.841  28.919  49.377  0.00  0.00    +0.000 A 
ATOM     16  C   UNL     1      35.852  30.098  48.585  0.00  0.00    +0.000 A 
ATOM     17  C   UNL     1      34.775  30.312  47.714  0.00  0.00    +0.000 A 
ATOM     18  N   UNL     1      33.763  29.409  47.635  0.00  0.00    +0.000 NA
ATOM     19  C   UNL     1      33.811  28.289  48.420  0.00  0.00    +0.000 A 
ATOM     20  N   UNL     1      34.820  28.051  49.269  0.00  0.00    +0.000 NA
ATOM     21  N   UNL     1      32.735  27.339  48.279  0.00  0.00    +0.000 N 
ATOM     22  C   UNL     1      31.358  27.633  48.541  0.00  0.00    +0.000 C 
ATOM     23  C   UNL     1      30.612  26.450  48.006  0.00  0.00    +0.000 C 
ATOM     24  C   UNL     1      31.608  25.603  47.240  0.00  0.00    +0.000 C 
ATOM     25  C   UNL     1      32.909  25.938  47.846  0.00  0.00    +0.000 C 
ATOM     26  H   UNL     1      36.699  28.825  50.026  0.00  0.00    +0.000 HD
ATOM     27  H   UNL     1      34.633  31.139  47.069  0.00  0.00    +0.000 HD
ATOM     28  H   UNL     1      31.213  27.686  49.636  0.00  0.00    +0.000 HD
ATOM     29  H   UNL     1      31.021  28.586  48.074  0.00  0.00    +0.000 HD
ATOM     30  H   UNL     1      29.809  26.765  47.318  0.00  0.00    +0.000 HD
ATOM     31  H   UNL     1      30.236  25.814  48.841  0.00  0.00    +0.000 HD
ATOM     32  H   UNL     1      31.624  25.891  46.153  0.00  0.00    +0.000 HD
ATOM     33  H   UNL     1      31.396  24.505  47.371  0.00  0.00    +0.000 HD
ATOM     34  H   UNL     1      33.732  25.885  47.112  0.00  0.00    +0.000 HD
ATOM     35  H   UNL     1      33.171  25.310  48.728  0.00  0.00    +0.000 HD
ENDBRANCH   1  16
BRANCH   9  38
ATOM     36 CL   UNL     1      37.724  30.232  43.668  0.00  0.00    +0.000 Cl
ATOM     37  C   UNL     1      36.945  29.075  44.764  0.00  0.00    +0.000 A 
ATOM     38  C   UNL     1      37.066  29.289  46.166  0.00  0.00    +0.000 A 
ATOM     39  C   UNL     1      36.418  28.304  46.894  0.00  0.00    +0.000 A 
ATOM     40  H   UNL     1      36.526  28.492  47.977  0.00  0.00    +0.000 HD
ATOM     41  C   UNL     1      35.729  27.232  46.385  0.00  0.00    +0.000 A 
ATOM     42  H   UNL     1      35.287  26.564  47.081  0.00  0.00    +0.000 HD
ATOM     43  C   UNL     1      35.687  27.142  45.011  0.00  0.00    +0.000 A 
ATOM     44  C   UNL     1      36.279  28.037  44.149  0.00  0.00    +0.000 A 
ENDBRANCH   9  38
TORSDOF 2
