REMARK  Name = 
REMARK  3 active torsions:
REMARK  status: ('A' for Active; 'I' for Inactive)
REMARK    1  A    between atoms: C_1  and  C_7
REMARK    2  A    between atoms: C_1  and  C_9
REMARK    3  A    between atoms: C_12  and  C_21
REMARK                            x       y       z     vdW  Elec       q    Type
REMARK                         _______ _______ _______ _____ _____    ______ ____
ROOT
ATOM      1  C   UNL     1      36.518  30.899  49.422  0.00  0.00    +0.000 A 
ATOM      2  C   UNL     1      37.311  30.211  50.331  0.00  0.00    +0.000 A 
ATOM      3  C   UNL     1      38.432  31.028  50.423  0.00  0.00    +0.000 A 
ATOM      4  C   UNL     1      38.279  32.120  49.608  0.00  0.00    +0.000 A 
ATOM      5  O   UNL     1      37.117  32.011  49.021  0.00  0.00    +0.000 OA
ATOM      6  H   UNL     1      37.121  29.284  50.841  0.00  0.00    +0.000 HD
ATOM      7  H   UNL     1      39.288  30.784  51.071  0.00  0.00    +0.000 HD
ENDROOT
BRANCH   4  10
ATOM      8 CL   UNL     1      40.742  31.491  47.918  0.00  0.00    +0.000 Cl
ATOM      9  C   UNL     1      40.386  33.023  48.691  0.00  0.00    +0.000 A 
ATOM     10  C   UNL     1      39.241  33.201  49.434  0.00  0.00    +0.000 A 
ATOM     11  C   UNL     1      39.019  34.430  50.017  0.00  0.00    +0.000 A 
ATOM     12  H   UNL     1      38.107  34.530  50.594  0.00  0.00    +0.000 HD
ATOM     13  C   UNL     1      39.869  35.508  49.908  0.00  0.00    +0.000 A 
ATOM     14  H   UNL     1      39.578  36.422  50.416  0.00  0.00    +0.000 HD
ATOM     15  C   UNL     1      41.024  35.309  49.151  0.00  0.00    +0.000 A 
ATOM     16  C   UNL     1      41.268  34.088  48.559  0.00  0.00    +0.000 A 
ENDBRANCH   4  10
BRANCH   1  17
ATOM     17  C   UNL     1      35.193  30.433  48.980  0.00  0.00    +0.000 C 
ATOM     18  O   UNL     1      34.332  30.178  49.862  0.00  0.00    +0.000 OA
BRANCH  17  23
ATOM     19  C   UNL     1      33.307  30.096  45.890  0.00  0.00    +0.000 A 
ATOM     20  C   UNL     1      34.315  30.008  44.910  0.00  0.00    +0.000 A 
ATOM     21  C   UNL     1      35.652  30.064  45.314  0.00  0.00    +0.000 A 
ATOM     22  N   UNL     1      35.895  30.202  46.637  0.00  0.00    +0.000 NA
ATOM     23  C   UNL     1      34.921  30.285  47.559  0.00  0.00    +0.000 A 
ATOM     24  N   UNL     1      33.639  30.232  47.178  0.00  0.00    +0.000 NA
ATOM     25  H   UNL     1      32.262  30.056  45.613  0.00  0.00    +0.000 HD
ATOM     26  H   UNL     1      34.039  29.899  43.880  0.00  0.00    +0.000 HD
ATOM     27  H   UNL     1      36.450  29.999  44.585  0.00  0.00    +0.000 HD
ENDBRANCH  17  23
ENDBRANCH   1  17
TORSDOF 3
