
     RDKit          3D

 49 53  0  0  0  0  0  0  0  0999 V2000
   34.3224   29.7746   46.0806 N   0  0  0  0  0  0  0  0  0  0  0  0
   33.0172   29.9967   45.5239 C   0  0  0  0  0  0  0  0  0  0  0  0
   32.9995   29.8272   44.0316 C   0  0  0  0  0  0  0  0  0  0  0  0
   34.0760   28.9694   43.6080 N   0  0  0  0  0  0  0  0  0  0  0  0
   35.3054   29.7286   43.8264 C   0  0  0  0  0  0  0  0  0  0  0  0
   35.5870   29.6414   45.2806 C   0  0  1  0  0  0  0  0  0  0  0  0
   37.2483   31.5052   44.8974 C   0  0  0  0  0  0  0  0  0  0  0  0
   36.6312   30.5566   45.7396 C   0  0  0  0  0  0  0  0  0  0  0  0
   36.9613   30.5077   47.0687 C   0  0  0  0  0  0  0  0  0  0  0  0
   37.8660   31.4107   47.5314 C   0  0  0  0  0  0  0  0  0  0  0  0
   38.4866   32.3555   46.6956 C   0  0  0  0  0  0  0  0  0  0  0  0
   38.1876   32.4177   45.3225 C   0  0  0  0  0  0  0  0  0  0  0  0
   39.3887   33.1644   47.4102 O   0  0  0  0  0  0  0  0  0  0  0  0
   39.0637   32.9782   48.7630 C   0  0  0  0  0  0  0  0  0  0  0  0
   38.4274   31.6856   48.7947 O   0  0  0  0  0  0  0  0  0  0  0  0
   34.7123   28.3773   48.0640 C   0  0  0  0  0  0  0  0  0  0  0  0
   34.4359   29.6660   47.4971 C   0  0  0  0  0  0  0  0  0  0  0  0
   34.3447   30.7066   48.3568 C   0  0  0  0  0  0  0  0  0  0  0  0
   34.5364   30.5644   49.6925 N   0  0  0  0  0  0  0  0  0  0  0  0
   34.7977   29.3234   50.1875 C   0  0  0  0  0  0  0  0  0  0  0  0
   34.8887   28.2322   49.3934 N   0  0  0  0  0  0  0  0  0  0  0  0
   34.9578   29.1196   51.5936 N   0  0  0  0  0  0  0  0  0  0  0  0
   32.2923   29.2961   45.9710 H   0  0  0  0  0  0  0  0  0  0  0  0
   32.6249   31.0351   45.6541 H   0  0  0  0  0  0  0  0  0  0  0  0
   33.2332   30.8249   43.5466 H   0  0  0  0  0  0  0  0  0  0  0  0
   32.0176   29.5549   43.6108 H   0  0  0  0  0  0  0  0  0  0  0  0
   34.0034   28.9317   42.5451 H   0  0  0  0  0  0  0  0  0  0  0  0
   35.1877   30.7500   43.4225 H   0  0  0  0  0  0  0  0  0  0  0  0
   36.0989   29.1610   43.2661 H   0  0  0  0  0  0  0  0  0  0  0  0
   35.9230   28.6145   45.5342 H   0  0  0  0  0  0  0  0  0  0  0  0
   37.0045   31.5342   43.8505 H   0  0  0  0  0  0  0  0  0  0  0  0
   36.7674   29.8208   47.8460 H   0  0  0  0  0  0  0  0  0  0  0  0
   38.6801   33.1051   44.6647 H   0  0  0  0  0  0  0  0  0  0  0  0
   40.0010   32.8695   49.3408 H   0  0  0  0  0  0  0  0  0  0  0  0
   38.4064   33.7823   49.1204 H   0  0  0  0  0  0  0  0  0  0  0  0
   34.7826   27.5321   47.4066 H   0  0  0  0  0  0  0  0  0  0  0  0
   35.8568   29.0226   52.0902 H   0  0  0  0  0  0  0  0  0  0  0  0
   34.0336   29.0728   52.0936 H   0  0  0  0  0  0  0  0  0  0  0  0
   32.4896   33.2214   49.4184 Cl  0  0  0  0  0  0  0  0  0  0  0  0
   32.9449   33.0077   47.7765 C   0  0  0  0  0  0  0  0  0  0  0  0
   33.7257   31.8986   47.8272 C   0  0  0  0  0  0  0  0  0  0  0  0
   34.1029   31.6567   46.3834 C   0  0  0  0  0  0  0  0  0  0  0  0
   34.7261   30.8565   45.9261 H   0  0  0  0  0  0  0  0  0  0  0  0
   33.7836   32.3021   45.2223 C   0  0  0  0  0  0  0  0  0  0  0  0
   33.9519   32.1325   44.1724 H   0  0  0  0  0  0  0  0  0  0  0  0
   32.9629   33.4318   45.3146 C   0  0  0  0  0  0  0  0  0  0  0  0
   32.5936   33.7052   46.6582 C   0  0  0  0  0  0  0  0  0  0  0  0
   32.5244   34.1148   44.6570 H   0  0  0  0  0  0  0  0  0  0  0  0
   32.0131   34.6175   46.9518 H   0  0  0  0  0  0  0  0  0  0  0  0
  1 17  1  0
  2  1  1  0
  3  2  1  0
  4  5  1  0
  4  3  1  0
  5  6  1  0
  6  8  1  0
  6  1  1  0
  7 12  2  0
  7  8  1  0
  8  9  2  0
  9 10  1  0
 10 15  1  0
 11 13  1  0
 11 10  2  0
 12 11  1  0
 13 14  1  0
 14 15  1  0
 16 21  2  0
 17 16  1  0
 17 18  2  0
 18 19  1  0
 19 20  2  0
 20 22  1  0
 21 20  1  0
  2 23  1  0
  2 24  1  0
  3 25  1  0
  3 26  1  0
  4 27  1  0
  5 28  1  0
  5 29  1  0
  6 30  1  6
  7 31  1  0
  9 32  1  0
 12 33  1  0
 14 34  1  0
 14 35  1  0
 16 36  1  0
 22 37  1  0
 22 38  1  0
 39 40  1  0
 40 41  2  0
 41 42  1  0
 42 43  1  0
 42 44  2  0
 44 45  1  0
 44 46  1  0
 46 47  2  0
 47 40  1  0
 46 48  1  0
 47 49  1  0
 18 41  1  0
M  ISO  8  23  13  24  13  25  13  26  13  27   5  28  13  29  13  30  13
M  ISO  8  31  14  32  14  33  14  34  13  35  13  36  14  43  15  45  16
M  END
>  <DihAtoms>  (1) 
16,17,40,39

>  <DihDeg>  (1) 
-101.23802947922837

$$$$
