
 OpenBabel03272509133D

 40 43  0  0  1  0  0  0  0  0999 V2000
   35.9140   30.5960   47.8540 N   0  0  0  0  0  0  0  0  0  0  0  0
   37.0120   31.3160   48.5520 C   0  0  0  0  0  0  0  0  0  0  0  0
   37.7630   30.1540   49.1930 C   0  0  0  0  0  0  0  0  0  0  0  0
   36.6700   29.1820   49.5640 C   0  0  0  0  0  0  0  0  0  0  0  0
   35.4160   29.7380   48.9170 C   0  0  2  0  0  0  0  0  0  0  0  0
   36.5670   31.9910   49.3030 H   0  0  0  0  0  0  0  0  0  0  0  0
   37.6540   31.8350   47.8220 H   0  0  0  0  0  0  0  0  0  0  0  0
   38.4430   29.7290   48.4400 H   0  0  0  0  0  0  0  0  0  0  0  0
   38.2870   30.5030   50.1050 H   0  0  0  0  0  0  0  0  0  0  0  0
   36.8770   28.2040   49.0800 H   0  0  0  0  0  0  0  0  0  0  0  0
   36.5590   29.0990   50.6670 H   0  0  0  0  0  0  0  0  0  0  0  0
   34.9180   30.3990   49.6420 H   0  0  0  0  0  0  0  0  0  0  0  0
   32.9340   29.5810   50.4990 Cl  0  0  0  0  0  0  0  0  0  0  0  0
   33.3330   28.4920   49.1630 C   0  0  0  0  0  0  0  0  0  0  0  0
   34.5330   28.6420   48.4550 C   0  0  0  0  0  0  0  0  0  0  0  0
   34.7350   27.7380   47.4380 C   0  0  0  0  0  0  0  0  0  0  0  0
   35.6570   27.8510   46.9050 H   0  0  0  0  0  0  0  0  0  0  0  0
   33.7950   26.7650   47.1650 C   0  0  0  0  0  0  0  0  0  0  0  0
   34.0650   26.1140   46.3430 H   0  0  0  0  0  0  0  0  0  0  0  0
   32.6180   26.6350   47.8740 C   0  0  0  0  0  3  0  0  0  0  0  0
   32.3940   27.5310   48.9000 C   0  0  0  0  0  3  0  0  0  0  0  0
   33.9430   30.3420   46.5170 C   0  0  0  0  0  0  0  0  0  0  0  0
   35.3510   30.5810   46.5520 C   0  0  0  0  0  0  0  0  0  0  0  0
   36.0060   30.7410   45.3290 C   0  0  0  0  0  0  0  0  0  0  0  0
   35.2890   30.6620   44.1730 N   0  0  0  0  0  0  0  0  0  0  0  0
   33.9580   30.4320   44.1930 C   0  0  0  0  0  0  0  0  0  0  0  0
   33.2950   30.2750   45.3430 N   0  0  0  0  0  0  0  0  0  0  0  0
   33.3580   30.2130   47.4150 H   0  0  0  0  0  0  0  0  0  0  0  0
   33.4670   30.3830   43.2310 H   0  0  0  0  0  0  0  0  0  0  0  0
   37.4170   31.0010   45.2560 C   0  0  0  0  0  0  0  0  0  0  0  0
   37.8580   32.3000   45.1540 C   0  0  0  0  0  0  0  0  0  0  0  0
   39.1960   32.6400   45.0810 C   0  0  0  0  0  0  0  0  0  0  0  0
   40.1090   31.5980   45.1150 C   0  0  0  0  0  0  0  0  0  0  0  0
   39.7390   30.2640   45.2160 C   0  0  0  0  0  0  0  0  0  0  0  0
   38.3620   30.0070   45.2860 C   0  0  0  0  0  0  0  0  0  0  0  0
   37.1400   33.0880   45.1300 H   0  0  0  0  0  0  0  0  0  0  0  0
   39.5060   33.6770   45.0010 H   0  0  0  0  0  0  0  0  0  0  0  0
   41.1510   31.8780   45.0570 H   0  0  0  0  0  0  0  0  0  0  0  0
   40.4860   29.4940   45.2390 H   0  0  0  0  0  0  0  0  0  0  0  0
   38.0260   28.9650   45.3670 H   0  0  0  0  0  0  0  0  0  0  0  0
  1  2  1  0  0  0  0
  1  5  1  0  0  0  0
  2  3  1  0  0  0  0
  2  6  1  0  0  0  0
  3  4  1  0  0  0  0
  3  9  1  0  0  0  0
  4 11  1  0  0  0  0
  5  4  1  0  0  0  0
  5 12  1  1  0  0  0
  7  2  1  0  0  0  0
  8  3  1  0  0  0  0
 10  4  1  0  0  0  0
 14 13  1  0  0  0  0
 15  5  1  0  0  0  0
 15 14  2  0  0  0  0
 16 15  1  0  0  0  0
 17 16  1  0  0  0  0
 18 16  2  0  0  0  0
 18 20  1  0  0  0  0
 19 18  1  0  0  0  0
 20 21  2  0  0  0  0
 21 14  1  0  0  0  0
 22 23  1  0  0  0  0
 22 28  1  0  0  0  0
 23  1  1  0  0  0  0
 24 23  2  0  0  0  0
 25 26  2  0  0  0  0
 25 24  1  0  0  0  0
 26 27  1  0  0  0  0
 27 22  2  0  0  0  0
 29 26  1  0  0  0  0
 30 35  1  0  0  0  0
 30 24  1  0  0  0  0
 31 30  2  0  0  0  0
 32 33  2  0  0  0  0
 32 31  1  0  0  0  0
 33 34  1  0  0  0  0
 34 39  1  0  0  0  0
 34 35  2  0  0  0  0
 35 40  1  0  0  0  0
 36 31  1  0  0  0  0
 37 32  1  0  0  0  0
 38 33  1  0  0  0  0
M  END
>  <minimizedAffinity>
-4.45549774

>  <minimizedRMSD>
2.09991026

$$$$
