
 OpenBabel03272508043D

 35 38  0  0  0  0  0  0  0  0999 V2000
   38.8310   31.0990   45.6560 C   0  0  0  0  0  0  0  0  0  0  0  0
   39.8710   31.9790   45.7810 C   0  0  0  0  0  0  0  0  0  0  0  0
   40.7050   31.9130   44.6790 C   0  0  0  0  0  0  0  0  0  0  0  0
   40.1310   30.9760   43.9060 N   0  0  0  0  0  0  0  0  0  0  0  0
   39.0300   30.4900   44.4680 N   0  0  0  0  0  0  0  0  0  0  0  0
   40.0450   32.6540   46.6270 H   0  0  0  0  0  0  0  0  0  0  0  0
   41.6080   32.4520   44.4380 H   0  0  0  0  0  0  0  0  0  0  0  0
   37.7410   30.8690   46.6000 C   0  0  0  0  0  0  0  0  0  0  0  0
   37.9890   31.1130   47.9750 C   0  0  0  0  0  0  0  0  0  0  0  0
   36.9450   30.8910   48.8660 C   0  0  0  0  0  0  0  0  0  0  0  0
   35.7460   30.4510   48.3680 N   0  0  0  0  0  0  0  0  0  0  0  0
   35.5390   30.2270   47.0530 C   0  0  0  0  0  0  0  0  0  0  0  0
   36.5420   30.4380   46.1790 N   0  0  0  0  0  0  0  0  0  0  0  0
   38.9710   31.4610   48.2740 H   0  0  0  0  0  0  0  0  0  0  0  0
   34.5730   29.8780   46.7070 H   0  0  0  0  0  0  0  0  0  0  0  0
   37.1900   31.1440   50.3180 C   0  0  0  0  0  0  0  0  0  0  0  0
   36.6640   32.3920   50.5600 F   0  0  0  0  0  0  0  0  0  0  0  0
   36.5320   30.2350   51.1260 F   0  0  0  0  0  0  0  0  0  0  0  0
   38.5400   31.1450   50.6240 F   0  0  0  0  0  0  0  0  0  0  0  0
   40.5590   30.4760   42.6040 C   0  0  0  0  0  0  0  0  0  0  0  0
   40.2420   31.1350   41.4130 C   0  0  0  0  0  0  0  0  0  0  0  0
   40.6320   30.6670   40.2330 C   0  0  0  0  0  0  0  0  0  0  0  0
   41.3930   29.4630   40.1850 C   0  0  0  0  0  0  0  0  0  0  0  0
   41.5040   29.0530   41.9950 S   0  0  0  0  0  0  0  0  0  0  0  0
   39.6560   32.0710   41.3920 H   0  0  0  0  0  0  0  0  0  0  0  0
   40.5080   30.9910   39.2370 H   0  0  0  0  0  0  0  0  0  0  0  0
   39.7970   26.9430   39.4820 Cl  0  0  0  0  0  0  0  0  0  0  0  0
   41.3320   27.4780   38.8370 C   0  0  0  0  0  0  0  0  0  0  0  0
   42.0100   28.6120   39.1800 C   0  0  0  0  0  0  0  0  0  0  0  0
   43.1970   29.0490   38.6970 C   0  0  0  0  0  0  0  0  0  0  0  0
   43.6670   29.9660   39.0260 H   0  0  0  0  0  0  0  0  0  0  0  0
   43.8200   28.2680   37.7370 C   0  0  0  0  0  0  0  0  0  0  0  0
   44.7660   28.5170   37.2820 H   0  0  0  0  0  0  0  0  0  0  0  0
   43.2010   27.0920   37.3240 C   0  0  0  0  0  3  0  0  0  0  0  0
   41.9760   26.7000   37.8650 C   0  0  0  0  0  3  0  0  0  0  0  0
  1  2  1  0  0  0  0
  1  8  1  0  0  0  0
  2  6  1  0  0  0  0
  3  2  2  0  0  0  0
  4  5  1  0  0  0  0
  4  3  1  0  0  0  0
  5  1  2  0  0  0  0
  7  3  1  0  0  0  0
  8  9  1  0  0  0  0
  9 14  1  0  0  0  0
  9 10  2  0  0  0  0
 10 16  1  0  0  0  0
 11 10  1  0  0  0  0
 12 11  2  0  0  0  0
 13  8  2  0  0  0  0
 13 12  1  0  0  0  0
 15 12  1  0  0  0  0
 16 17  1  0  0  0  0
 16 19  1  0  0  0  0
 16 18  1  0  0  0  0
 20  4  1  0  0  0  0
 21 20  2  0  0  0  0
 22 21  1  0  0  0  0
 23 22  2  0  0  0  0
 23 24  1  0  0  0  0
 24 20  1  0  0  0  0
 25 21  1  0  0  0  0
 26 22  1  0  0  0  0
 28 29  1  0  0  0  0
 28 27  1  0  0  0  0
 29 23  1  0  0  0  0
 30 31  1  0  0  0  0
 30 29  2  0  0  0  0
 32 30  1  0  0  0  0
 33 32  1  0  0  0  0
 34 32  2  0  0  0  0
 34 35  1  0  0  0  0
 35 28  2  0  0  0  0
M  END
>  <minimizedAffinity>
-6.41070652

>  <minimizedRMSD>
0.482007921

$$$$
