
 OpenBabel03262523393D

 45 48  0  0  1  0  0  0  0  0999 V2000
   37.7440   25.1560   35.4560 C   0  0  2  0  0  0  0  0  0  0  0  0
   38.0110   24.8720   34.0180 C   0  0  0  0  0  0  0  0  0  0  0  0
   38.8330   25.9600   33.3280 C   0  0  2  0  0  0  0  0  0  0  0  0
   38.0290   27.2370   33.3560 C   0  0  0  0  0  0  0  0  0  0  0  0
   37.5240   27.5620   34.7510 C   0  0  0  0  0  0  0  0  0  0  0  0
   38.0480   26.6010   35.7860 C   0  0  0  0  0  0  0  0  0  0  0  0
   36.6660   25.0020   35.7570 H   0  0  0  0  0  0  0  0  0  0  0  0
   38.3110   23.9170   33.6870 H   0  0  0  0  0  0  0  0  0  0  0  0
   36.9820   25.0250   33.5210 H   0  0  0  0  0  0  0  0  0  0  0  0
   39.7140   26.1240   33.9810 H   0  0  0  0  0  0  0  0  0  0  0  0
   38.5860   28.0550   32.8840 H   0  0  0  0  0  0  0  0  0  0  0  0
   37.1240   27.0490   32.7400 H   0  0  0  0  0  0  0  0  0  0  0  0
   37.9820   28.5540   35.0110 H   0  0  0  0  0  0  0  0  0  0  0  0
   36.4310   27.7060   34.7990 H   0  0  0  0  0  0  0  0  0  0  0  0
   39.1380   26.7170   35.8680 H   0  0  0  0  0  0  0  0  0  0  0  0
   37.5330   26.8360   36.7360 H   0  0  0  0  0  0  0  0  0  0  0  0
   39.3160   25.5530   32.0030 C   0  0  2  0  0  0  0  0  0  0  0  0
   40.2310   26.5230   31.3030 C   0  0  0  0  0  0  0  0  0  0  0  0
   40.2410   25.8790   29.9130 C   0  0  0  0  0  0  0  0  0  0  0  0
   38.9790   25.3540   29.7400 O   0  0  0  0  0  0  0  0  0  0  0  0
   38.3040   25.3120   30.9590 C   0  0  1  0  0  0  0  0  0  0  0  0
   39.9140   24.6250   32.1200 H   0  0  0  0  0  0  0  0  0  0  0  0
   41.2620   26.4890   31.7160 H   0  0  0  0  0  0  0  0  0  0  0  0
   39.8260   27.5520   31.2670 H   0  0  0  0  0  0  0  0  0  0  0  0
   40.3230   26.7380   29.2090 H   0  0  0  0  0  0  0  0  0  0  0  0
   41.0790   25.1990   29.7920 H   0  0  0  0  0  0  0  0  0  0  0  0
   37.5300   26.0870   30.8480 H   0  0  0  0  0  0  0  0  0  0  0  0
   35.2030   25.2910   31.1980 Cl  0  0  0  0  0  0  0  0  0  0  0  0
   36.2100   23.8630   31.1040 C   0  0  0  0  0  0  0  0  0  0  0  0
   37.5770   24.0340   31.0050 C   0  0  0  0  0  0  0  0  0  0  0  0
   38.2610   22.8460   30.9420 C   0  0  0  0  0  0  0  0  0  0  0  0
   39.3130   22.7680   30.8630 H   0  0  0  0  0  0  0  0  0  0  0  0
   37.6450   21.6070   30.9750 C   0  0  0  0  0  0  0  0  0  0  0  0
   38.1810   20.6550   30.9250 H   0  0  0  0  0  0  0  0  0  0  0  0
   36.2720   21.5050   31.0740 C   0  0  0  0  0  3  0  0  0  0  0  0
   35.5610   22.6600   31.1390 C   0  0  0  0  0  3  0  0  0  0  0  0
   38.5580   24.3210   36.3670 C   0  0  0  0  0  0  0  0  0  0  0  0
   38.0750   24.1990   37.6710 C   0  0  0  0  0  0  0  0  0  0  0  0
   38.7770   23.4160   38.5590 C   0  0  0  0  0  0  0  0  0  0  0  0
   39.9270   22.7840   38.1290 N   0  0  0  0  0  0  0  0  0  0  0  0
   40.3770   22.9230   36.8440 C   0  0  0  0  0  0  0  0  0  0  0  0
   39.6840   23.6830   36.0040 N   0  0  0  0  0  0  0  0  0  0  0  0
   37.2450   24.5680   38.2480 H   0  0  0  0  0  0  0  0  0  0  0  0
   38.6250   23.1610   39.5940 H   0  0  0  0  0  0  0  0  0  0  0  0
   41.2710   22.4300   36.5160 H   0  0  0  0  0  0  0  0  0  0  0  0
  1  7  1  1  0  0  0
  1  6  1  0  0  0  0
  1 37  1  0  0  0  0
  2  1  1  0  0  0  0
  3  4  1  0  0  0  0
  3 10  1  1  0  0  0
  3  2  1  0  0  0  0
  4  5  1  0  0  0  0
  5 14  1  0  0  0  0
  5 13  1  0  0  0  0
  5  6  1  0  0  0  0
  6 15  1  0  0  0  0
  6 16  1  0  0  0  0
  8  2  1  0  0  0  0
  9  2  1  0  0  0  0
 11  4  1  0  0  0  0
 12  4  1  0  0  0  0
 17 22  1  1  0  0  0
 17  3  1  0  0  0  0
 18 23  1  0  0  0  0
 18 17  1  0  0  0  0
 19 18  1  0  0  0  0
 20 19  1  0  0  0  0
 20 21  1  0  0  0  0
 21 27  1  1  0  0  0
 21 30  1  0  0  0  0
 21 17  1  0  0  0  0
 24 18  1  0  0  0  0
 25 19  1  0  0  0  0
 26 19  1  0  0  0  0
 29 36  1  0  0  0  0
 29 28  1  0  0  0  0
 30 29  2  0  0  0  0
 31 33  2  0  0  0  0
 31 30  1  0  0  0  0
 32 31  1  0  0  0  0
 33 35  1  0  0  0  0
 34 33  1  0  0  0  0
 35 36  2  0  0  0  0
 37 38  1  0  0  0  0
 38 43  1  0  0  0  0
 38 39  2  0  0  0  0
 39 44  1  0  0  0  0
 40 39  1  0  0  0  0
 41 40  2  0  0  0  0
 42 37  2  0  0  0  0
 42 41  1  0  0  0  0
 45 41  1  0  0  0  0
M  END
>  <minimizedAffinity>
-6.09475136

$$$$

 OpenBabel03262523393D

 45 48  0  0  1  0  0  0  0  0999 V2000
   36.6180   23.8790   30.8330 C   0  0  2  0  0  0  0  0  0  0  0  0
   37.7110   24.6290   31.5130 C   0  0  0  0  0  0  0  0  0  0  0  0
   37.2060   25.6010   32.5790 C   0  0  2  0  0  0  0  0  0  0  0  0
   36.3550   26.6410   31.8930 C   0  0  0  0  0  0  0  0  0  0  0  0
   35.2960   26.0140   31.0020 C   0  0  0  0  0  0  0  0  0  0  0  0
   35.2720   24.5120   31.1140 C   0  0  0  0  0  0  0  0  0  0  0  0
   36.7100   23.8630   29.7070 H   0  0  0  0  0  0  0  0  0  0  0  0
   38.5930   24.1510   31.8380 H   0  0  0  0  0  0  0  0  0  0  0  0
   38.0760   25.3610   30.7010 H   0  0  0  0  0  0  0  0  0  0  0  0
   36.5260   25.0070   33.2230 H   0  0  0  0  0  0  0  0  0  0  0  0
   35.9550   27.3560   32.6210 H   0  0  0  0  0  0  0  0  0  0  0  0
   37.0330   27.2000   31.2130 H   0  0  0  0  0  0  0  0  0  0  0  0
   34.3120   26.3570   31.4220 H   0  0  0  0  0  0  0  0  0  0  0  0
   35.3290   26.3750   29.9600 H   0  0  0  0  0  0  0  0  0  0  0  0
   34.9620   24.2300   32.1300 H   0  0  0  0  0  0  0  0  0  0  0  0
   34.5680   24.1410   30.3470 H   0  0  0  0  0  0  0  0  0  0  0  0
   38.2850   26.1310   33.4210 C   0  0  2  0  0  0  0  0  0  0  0  0
   39.2930   27.0130   32.7330 C   0  0  0  0  0  0  0  0  0  0  0  0
   40.3450   27.0830   33.8440 C   0  0  0  0  0  0  0  0  0  0  0  0
   40.3140   25.8510   34.4600 O   0  0  0  0  0  0  0  0  0  0  0  0
   39.1680   25.1530   34.0840 C   0  0  1  0  0  0  0  0  0  0  0  0
   37.8310   26.7700   34.2080 H   0  0  0  0  0  0  0  0  0  0  0  0
   38.8940   28.0350   32.5580 H   0  0  0  0  0  0  0  0  0  0  0  0
   39.7080   26.5610   31.8130 H   0  0  0  0  0  0  0  0  0  0  0  0
   41.3170   27.1390   33.3040 H   0  0  0  0  0  0  0  0  0  0  0  0
   40.2040   27.9550   34.4760 H   0  0  0  0  0  0  0  0  0  0  0  0
   39.5580   24.3460   33.4460 H   0  0  0  0  0  0  0  0  0  0  0  0
   38.7180   22.0760   34.0920 Cl  0  0  0  0  0  0  0  0  0  0  0  0
   38.4080   23.1370   35.4490 C   0  0  0  0  0  0  0  0  0  0  0  0
   38.6530   24.4870   35.2900 C   0  0  0  0  0  0  0  0  0  0  0  0
   38.3680   25.2180   36.4170 C   0  0  0  0  0  0  0  0  0  0  0  0
   38.4920   26.2660   36.4930 H   0  0  0  0  0  0  0  0  0  0  0  0
   37.8870   24.6600   37.5880 C   0  0  0  0  0  0  0  0  0  0  0  0
   37.6580   25.2330   38.4900 H   0  0  0  0  0  0  0  0  0  0  0  0
   37.6640   23.3010   37.6810 C   0  0  0  0  0  3  0  0  0  0  0  0
   37.9330   22.5450   36.5860 C   0  0  0  0  0  3  0  0  0  0  0  0
   36.5330   22.4670   31.2670 C   0  0  0  0  0  0  0  0  0  0  0  0
   35.4830   22.1620   32.1360 C   0  0  0  0  0  0  0  0  0  0  0  0
   35.3380   20.8590   32.5560 C   0  0  0  0  0  0  0  0  0  0  0  0
   36.2320   19.9080   32.1050 N   0  0  0  0  0  0  0  0  0  0  0  0
   37.2530   20.2370   31.2550 C   0  0  0  0  0  0  0  0  0  0  0  0
   37.3730   21.5000   30.8620 N   0  0  0  0  0  0  0  0  0  0  0  0
   34.6800   22.6850   32.6250 H   0  0  0  0  0  0  0  0  0  0  0  0
   34.6330   20.3710   33.2070 H   0  0  0  0  0  0  0  0  0  0  0  0
   37.9430   19.4940   30.9080 H   0  0  0  0  0  0  0  0  0  0  0  0
  1  7  1  6  0  0  0
  1  6  1  0  0  0  0
  1 37  1  0  0  0  0
  1  2  1  0  0  0  0
  2  8  1  0  0  0  0
  2  3  1  0  0  0  0
  3 10  1  1  0  0  0
  3 17  1  0  0  0  0
  4  3  1  0  0  0  0
  4 11  1  0  0  0  0
  5  6  1  0  0  0  0
  5 13  1  0  0  0  0
  5  4  1  0  0  0  0
  6 15  1  0  0  0  0
  9  2  1  0  0  0  0
 12  4  1  0  0  0  0
 14  5  1  0  0  0  0
 16  6  1  0  0  0  0
 17 21  1  0  0  0  0
 17 22  1  1  0  0  0
 18 17  1  0  0  0  0
 18 19  1  0  0  0  0
 19 20  1  0  0  0  0
 19 26  1  0  0  0  0
 21 27  1  6  0  0  0
 21 20  1  0  0  0  0
 21 30  1  0  0  0  0
 23 18  1  0  0  0  0
 24 18  1  0  0  0  0
 25 19  1  0  0  0  0
 28 29  1  0  0  0  0
 29 36  1  0  0  0  0
 30 29  2  0  0  0  0
 30 31  1  0  0  0  0
 31 32  1  0  0  0  0
 31 33  2  0  0  0  0
 33 35  1  0  0  0  0
 33 34  1  0  0  0  0
 36 35  2  0  0  0  0
 37 38  1  0  0  0  0
 38 39  2  0  0  0  0
 38 43  1  0  0  0  0
 39 44  1  0  0  0  0
 40 39  1  0  0  0  0
 41 40  2  0  0  0  0
 42 41  1  0  0  0  0
 42 37  2  0  0  0  0
 45 41  1  0  0  0  0
M  END
>  <minimizedAffinity>
-5.94545507

$$$$

 OpenBabel03262523393D

 45 48  0  0  1  0  0  0  0  0999 V2000
   34.9750   30.7510   32.4780 C   0  0  2  0  0  0  0  0  0  0  0  0
   35.1230   29.3050   32.1520 C   0  0  0  0  0  0  0  0  0  0  0  0
   36.5520   28.9110   31.7790 C   0  0  2  0  0  0  0  0  0  0  0  0
   36.9270   29.6580   30.5230 C   0  0  0  0  0  0  0  0  0  0  0  0
   36.6510   31.1480   30.6440 C   0  0  0  0  0  0  0  0  0  0  0  0
   36.1880   31.5340   32.0230 C   0  0  0  0  0  0  0  0  0  0  0  0
   34.0950   31.2430   31.9680 H   0  0  0  0  0  0  0  0  0  0  0  0
   34.6760   28.5540   32.7420 H   0  0  0  0  0  0  0  0  0  0  0  0
   34.5940   29.2060   31.1320 H   0  0  0  0  0  0  0  0  0  0  0  0
   37.1910   29.3130   32.5920 H   0  0  0  0  0  0  0  0  0  0  0  0
   37.9540   29.4200   30.2230 H   0  0  0  0  0  0  0  0  0  0  0  0
   36.2500   29.2860   29.7250 H   0  0  0  0  0  0  0  0  0  0  0  0
   37.6500   31.6470   30.5170 H   0  0  0  0  0  0  0  0  0  0  0  0
   36.0070   31.5410   29.8380 H   0  0  0  0  0  0  0  0  0  0  0  0
   37.0020   31.3590   32.7410 H   0  0  0  0  0  0  0  0  0  0  0  0
   35.8940   32.5980   31.9800 H   0  0  0  0  0  0  0  0  0  0  0  0
   36.7440   27.4570   31.7240 C   0  0  2  0  0  0  0  0  0  0  0  0
   35.5250   26.6380   31.3920 C   0  0  0  0  0  0  0  0  0  0  0  0
   36.0750   25.2480   31.7280 C   0  0  0  0  0  0  0  0  0  0  0  0
   36.9240   25.4340   32.7960 O   0  0  0  0  0  0  0  0  0  0  0  0
   37.2110   26.7890   32.9530 C   0  0  1  0  0  0  0  0  0  0  0  0
   37.4720   27.2320   30.9150 H   0  0  0  0  0  0  0  0  0  0  0  0
   35.2880   26.6720   30.3070 H   0  0  0  0  0  0  0  0  0  0  0  0
   34.6500   26.8880   32.0220 H   0  0  0  0  0  0  0  0  0  0  0  0
   35.1960   24.6880   32.1190 H   0  0  0  0  0  0  0  0  0  0  0  0
   36.4860   24.7560   30.8510 H   0  0  0  0  0  0  0  0  0  0  0  0
   36.6800   27.0570   33.8790 H   0  0  0  0  0  0  0  0  0  0  0  0
   38.1600   26.5730   35.9060 Cl  0  0  0  0  0  0  0  0  0  0  0  0
   39.2150   26.8110   34.5300 C   0  0  0  0  0  0  0  0  0  0  0  0
   38.6430   26.8920   33.2760 C   0  0  0  0  0  0  0  0  0  0  0  0
   39.5650   27.0840   32.2790 C   0  0  0  0  0  0  0  0  0  0  0  0
   39.3230   27.1700   31.2520 H   0  0  0  0  0  0  0  0  0  0  0  0
   40.9270   27.1850   32.5060 C   0  0  0  0  0  0  0  0  0  0  0  0
   41.6700   27.3370   31.7190 H   0  0  0  0  0  0  0  0  0  0  0  0
   41.4350   27.0940   33.7860 C   0  0  0  0  0  3  0  0  0  0  0  0
   40.5520   26.9050   34.8000 C   0  0  0  0  0  3  0  0  0  0  0  0
   34.8150   31.0000   33.9270 C   0  0  0  0  0  0  0  0  0  0  0  0
   35.9220   31.5530   34.5740 C   0  0  0  0  0  0  0  0  0  0  0  0
   35.8250   31.8300   35.9180 C   0  0  0  0  0  0  0  0  0  0  0  0
   34.6430   31.5510   36.5750 N   0  0  0  0  0  0  0  0  0  0  0  0
   33.5730   31.0080   35.9150 C   0  0  0  0  0  0  0  0  0  0  0  0
   33.6890   30.7500   34.6170 N   0  0  0  0  0  0  0  0  0  0  0  0
   36.9230   31.8540   34.3160 H   0  0  0  0  0  0  0  0  0  0  0  0
   36.5130   32.2470   36.6340 H   0  0  0  0  0  0  0  0  0  0  0  0
   32.6580   30.7940   36.4300 H   0  0  0  0  0  0  0  0  0  0  0  0
  1  7  1  6  0  0  0
  1 37  1  0  0  0  0
  2  1  1  0  0  0  0
  2  8  1  0  0  0  0
  3  2  1  0  0  0  0
  3 10  1  1  0  0  0
  4  5  1  0  0  0  0
  4  3  1  0  0  0  0
  5  6  1  0  0  0  0
  6  1  1  0  0  0  0
  6 15  1  0  0  0  0
  9  2  1  0  0  0  0
 11  4  1  0  0  0  0
 12  4  1  0  0  0  0
 13  5  1  0  0  0  0
 14  5  1  0  0  0  0
 16  6  1  0  0  0  0
 17 22  1  6  0  0  0
 17  3  1  0  0  0  0
 17 21  1  0  0  0  0
 18 17  1  0  0  0  0
 18 19  1  0  0  0  0
 18 24  1  0  0  0  0
 19 25  1  0  0  0  0
 19 20  1  0  0  0  0
 20 21  1  0  0  0  0
 21 30  1  0  0  0  0
 21 27  1  1  0  0  0
 23 18  1  0  0  0  0
 26 19  1  0  0  0  0
 29 36  1  0  0  0  0
 29 28  1  0  0  0  0
 30 29  2  0  0  0  0
 31 33  2  0  0  0  0
 31 30  1  0  0  0  0
 32 31  1  0  0  0  0
 33 35  1  0  0  0  0
 34 33  1  0  0  0  0
 35 36  2  0  0  0  0
 37 38  2  0  0  0  0
 37 42  1  0  0  0  0
 38 39  1  0  0  0  0
 39 40  2  0  0  0  0
 39 44  1  0  0  0  0
 41 45  1  0  0  0  0
 41 40  1  0  0  0  0
 42 41  2  0  0  0  0
 43 38  1  0  0  0  0
M  END
>  <minimizedAffinity>
-5.90427589

$$$$

 OpenBabel03262523393D

 45 48  0  0  1  0  0  0  0  0999 V2000
   36.5290   27.9370   31.4440 C   0  0  2  0  0  0  0  0  0  0  0  0
   35.4750   28.6010   32.2600 C   0  0  0  0  0  0  0  0  0  0  0  0
   35.9910   29.1400   33.5940 C   0  0  2  0  0  0  0  0  0  0  0  0
   36.4720   27.9680   34.4140 C   0  0  0  0  0  0  0  0  0  0  0  0
   37.4280   27.0820   33.6330 C   0  0  0  0  0  0  0  0  0  0  0  0
   37.7590   27.6510   32.2790 C   0  0  0  0  0  0  0  0  0  0  0  0
   36.2150   26.9360   31.0240 H   0  0  0  0  0  0  0  0  0  0  0  0
   34.7840   29.2730   31.8340 H   0  0  0  0  0  0  0  0  0  0  0  0
   34.8210   27.7210   32.6170 H   0  0  0  0  0  0  0  0  0  0  0  0
   36.8880   29.7420   33.3430 H   0  0  0  0  0  0  0  0  0  0  0  0
   36.8680   28.3060   35.3780 H   0  0  0  0  0  0  0  0  0  0  0  0
   35.5770   27.3430   34.6200 H   0  0  0  0  0  0  0  0  0  0  0  0
   38.3940   27.1060   34.2080 H   0  0  0  0  0  0  0  0  0  0  0  0
   37.1170   26.0240   33.6000 H   0  0  0  0  0  0  0  0  0  0  0  0
   38.3170   28.5900   32.4080 H   0  0  0  0  0  0  0  0  0  0  0  0
   38.3500   26.8870   31.7420 H   0  0  0  0  0  0  0  0  0  0  0  0
   35.0250   30.0180   34.2640 C   0  0  2  0  0  0  0  0  0  0  0  0
   33.6170   29.4960   34.3730 C   0  0  0  0  0  0  0  0  0  0  0  0
   32.9220   30.7820   34.8310 C   0  0  0  0  0  0  0  0  0  0  0  0
   33.5880   31.8080   34.1980 O   0  0  0  0  0  0  0  0  0  0  0  0
   34.7910   31.3460   33.6680 C   0  0  1  0  0  0  0  0  0  0  0  0
   35.3590   30.1690   35.3130 H   0  0  0  0  0  0  0  0  0  0  0  0
   33.5200   28.7350   35.1780 H   0  0  0  0  0  0  0  0  0  0  0  0
   33.2100   29.1410   33.4070 H   0  0  0  0  0  0  0  0  0  0  0  0
   31.9100   30.7310   34.3690 H   0  0  0  0  0  0  0  0  0  0  0  0
   32.8490   30.8350   35.9130 H   0  0  0  0  0  0  0  0  0  0  0  0
   34.6150   31.3630   32.5810 H   0  0  0  0  0  0  0  0  0  0  0  0
   35.5010   32.1530   36.5860 Cl  0  0  0  0  0  0  0  0  0  0  0  0
   36.2240   32.8470   35.1510 C   0  0  0  0  0  0  0  0  0  0  0  0
   35.8000   32.3870   33.9200 C   0  0  0  0  0  0  0  0  0  0  0  0
   36.4320   33.0070   32.8710 C   0  0  0  0  0  0  0  0  0  0  0  0
   36.2460   32.7910   31.8520 H   0  0  0  0  0  0  0  0  0  0  0  0
   37.3940   33.9880   33.0310 C   0  0  0  0  0  0  0  0  0  0  0  0
   37.9040   34.4870   32.2030 H   0  0  0  0  0  0  0  0  0  0  0  0
   37.7740   34.4030   34.2910 C   0  0  0  0  0  3  0  0  0  0  0  0
   37.1690   33.8130   35.3550 C   0  0  0  0  0  3  0  0  0  0  0  0
   36.9670   28.7570   30.2930 C   0  0  0  0  0  0  0  0  0  0  0  0
   36.5960   30.1030   30.3320 C   0  0  0  0  0  0  0  0  0  0  0  0
   36.9950   30.9220   29.3000 C   0  0  0  0  0  0  0  0  0  0  0  0
   37.7420   30.3850   28.2700 N   0  0  0  0  0  0  0  0  0  0  0  0
   38.0900   29.0610   28.2590 C   0  0  0  0  0  0  0  0  0  0  0  0
   37.6950   28.2900   29.2650 N   0  0  0  0  0  0  0  0  0  0  0  0
   36.0390   30.7540   30.9820 H   0  0  0  0  0  0  0  0  0  0  0  0
   36.8470   31.9690   29.0930 H   0  0  0  0  0  0  0  0  0  0  0  0
   38.6700   28.6500   27.4570 H   0  0  0  0  0  0  0  0  0  0  0  0
  1  7  1  6  0  0  0
  1  2  1  0  0  0  0
  1  6  1  0  0  0  0
  2  9  1  0  0  0  0
  2  3  1  0  0  0  0
  3 10  1  6  0  0  0
  3 17  1  0  0  0  0
  3  4  1  0  0  0  0
  4 12  1  0  0  0  0
  4 11  1  0  0  0  0
  5 13  1  0  0  0  0
  5  4  1  0  0  0  0
  6 15  1  0  0  0  0
  6  5  1  0  0  0  0
  8  2  1  0  0  0  0
 14  5  1  0  0  0  0
 16  6  1  0  0  0  0
 17 18  1  0  0  0  0
 17 22  1  1  0  0  0
 18 19  1  0  0  0  0
 18 23  1  0  0  0  0
 19 26  1  0  0  0  0
 20 19  1  0  0  0  0
 21 27  1  6  0  0  0
 21 30  1  0  0  0  0
 21 20  1  0  0  0  0
 21 17  1  0  0  0  0
 24 18  1  0  0  0  0
 25 19  1  0  0  0  0
 29 36  1  0  0  0  0
 29 28  1  0  0  0  0
 30 29  2  0  0  0  0
 31 33  2  0  0  0  0
 31 30  1  0  0  0  0
 32 31  1  0  0  0  0
 33 35  1  0  0  0  0
 34 33  1  0  0  0  0
 35 36  2  0  0  0  0
 37 38  1  0  0  0  0
 37  1  1  0  0  0  0
 38 43  1  0  0  0  0
 39 38  2  0  0  0  0
 40 39  1  0  0  0  0
 41 40  2  0  0  0  0
 41 42  1  0  0  0  0
 42 37  2  0  0  0  0
 44 39  1  0  0  0  0
 45 41  1  0  0  0  0
M  END
>  <minimizedAffinity>
-5.89379454

$$$$

 OpenBabel03262523393D

 45 48  0  0  1  0  0  0  0  0999 V2000
   37.8820   26.3100   33.4360 C   0  0  2  0  0  0  0  0  0  0  0  0
   38.5890   25.1850   34.1100 C   0  0  0  0  0  0  0  0  0  0  0  0
   38.1390   24.9660   35.5540 C   0  0  2  0  0  0  0  0  0  0  0  0
   38.4860   26.2040   36.3420 C   0  0  0  0  0  0  0  0  0  0  0  0
   37.9810   27.4690   35.6670 C   0  0  0  0  0  0  0  0  0  0  0  0
   37.1540   27.1720   34.4440 C   0  0  0  0  0  0  0  0  0  0  0  0
   38.5720   27.0150   32.8840 H   0  0  0  0  0  0  0  0  0  0  0  0
   38.7480   24.2610   33.6280 H   0  0  0  0  0  0  0  0  0  0  0  0
   39.6530   25.5990   34.2720 H   0  0  0  0  0  0  0  0  0  0  0  0
   37.0320   24.9130   35.5140 H   0  0  0  0  0  0  0  0  0  0  0  0
   38.1670   26.1010   37.3860 H   0  0  0  0  0  0  0  0  0  0  0  0
   39.5940   26.2780   36.3370 H   0  0  0  0  0  0  0  0  0  0  0  0
   37.2670   27.9330   36.4010 H   0  0  0  0  0  0  0  0  0  0  0  0
   38.7720   28.2170   35.4910 H   0  0  0  0  0  0  0  0  0  0  0  0
   36.2340   26.6510   34.7460 H   0  0  0  0  0  0  0  0  0  0  0  0
   36.9410   28.1400   33.9550 H   0  0  0  0  0  0  0  0  0  0  0  0
   38.6350   23.7050   36.1180 C   0  0  2  0  0  0  0  0  0  0  0  0
   39.9140   23.7890   36.9080 C   0  0  0  0  0  0  0  0  0  0  0  0
   40.2120   22.2920   37.0380 C   0  0  0  0  0  0  0  0  0  0  0  0
   39.7700   21.7250   35.8630 O   0  0  0  0  0  0  0  0  0  0  0  0
   38.9560   22.6200   35.1720 C   0  0  1  0  0  0  0  0  0  0  0  0
   37.8780   23.3210   36.8340 H   0  0  0  0  0  0  0  0  0  0  0  0
   39.7440   24.2050   37.9250 H   0  0  0  0  0  0  0  0  0  0  0  0
   40.7240   24.3160   36.3690 H   0  0  0  0  0  0  0  0  0  0  0  0
   41.3240   22.2270   37.0190 H   0  0  0  0  0  0  0  0  0  0  0  0
   39.8180   21.8830   37.9630 H   0  0  0  0  0  0  0  0  0  0  0  0
   39.5690   22.9040   34.3030 H   0  0  0  0  0  0  0  0  0  0  0  0
   39.0140   21.6690   32.2120 Cl  0  0  0  0  0  0  0  0  0  0  0  0
   37.7140   21.3530   33.3410 C   0  0  0  0  0  0  0  0  0  0  0  0
   37.8310   21.8470   34.6250 C   0  0  0  0  0  0  0  0  0  0  0  0
   36.7520   21.5410   35.4150 C   0  0  0  0  0  0  0  0  0  0  0  0
   36.6550   21.8290   36.4290 H   0  0  0  0  0  0  0  0  0  0  0  0
   35.6610   20.8130   34.9710 C   0  0  0  0  0  0  0  0  0  0  0  0
   34.7970   20.5640   35.5930 H   0  0  0  0  0  0  0  0  0  0  0  0
   35.6070   20.3470   33.6740 C   0  0  0  0  0  3  0  0  0  0  0  0
   36.6570   20.6310   32.8600 C   0  0  0  0  0  3  0  0  0  0  0  0
   36.8780   25.8500   32.4510 C   0  0  0  0  0  0  0  0  0  0  0  0
   36.8500   24.4740   32.2120 C   0  0  0  0  0  0  0  0  0  0  0  0
   35.9200   23.9840   31.3240 C   0  0  0  0  0  0  0  0  0  0  0  0
   35.0550   24.8640   30.7050 N   0  0  0  0  0  0  0  0  0  0  0  0
   35.1070   26.2080   30.9590 C   0  0  0  0  0  0  0  0  0  0  0  0
   36.0110   26.6600   31.8210 N   0  0  0  0  0  0  0  0  0  0  0  0
   37.3860   23.6010   32.5390 H   0  0  0  0  0  0  0  0  0  0  0  0
   35.6940   22.9910   30.9700 H   0  0  0  0  0  0  0  0  0  0  0  0
   34.4330   26.8870   30.4770 H   0  0  0  0  0  0  0  0  0  0  0  0
  1  7  1  6  0  0  0
  1  2  1  0  0  0  0
  1  6  1  0  0  0  0
  2  9  1  0  0  0  0
  2  3  1  0  0  0  0
  3 10  1  6  0  0  0
  3 17  1  0  0  0  0
  3  4  1  0  0  0  0
  4 11  1  0  0  0  0
  5  4  1  0  0  0  0
  5 13  1  0  0  0  0
  6 15  1  0  0  0  0
  6  5  1  0  0  0  0
  8  2  1  0  0  0  0
 12  4  1  0  0  0  0
 14  5  1  0  0  0  0
 16  6  1  0  0  0  0
 17 22  1  1  0  0  0
 17 18  1  0  0  0  0
 18 19  1  0  0  0  0
 18 23  1  0  0  0  0
 19 26  1  0  0  0  0
 20 19  1  0  0  0  0
 21 27  1  6  0  0  0
 21 20  1  0  0  0  0
 21 17  1  0  0  0  0
 24 18  1  0  0  0  0
 25 19  1  0  0  0  0
 28 29  1  0  0  0  0
 29 30  1  0  0  0  0
 30 21  1  0  0  0  0
 30 31  2  0  0  0  0
 31 32  1  0  0  0  0
 33 31  1  0  0  0  0
 33 34  1  0  0  0  0
 35 33  2  0  0  0  0
 36 29  2  0  0  0  0
 36 35  1  0  0  0  0
 37  1  1  0  0  0  0
 38 37  1  0  0  0  0
 38 43  1  0  0  0  0
 39 38  2  0  0  0  0
 40 41  2  0  0  0  0
 40 39  1  0  0  0  0
 41 42  1  0  0  0  0
 42 37  2  0  0  0  0
 44 39  1  0  0  0  0
 45 41  1  0  0  0  0
M  END
>  <minimizedAffinity>
-5.8670454

$$$$

 OpenBabel03262523393D

 45 48  0  0  1  0  0  0  0  0999 V2000
   38.5930   26.2900   35.0890 C   0  0  2  0  0  0  0  0  0  0  0  0
   37.5610   26.2370   34.0150 C   0  0  0  0  0  0  0  0  0  0  0  0
   38.1230   25.8250   32.6550 C   0  0  2  0  0  0  0  0  0  0  0  0
   39.1140   26.8770   32.2240 C   0  0  0  0  0  0  0  0  0  0  0  0
   40.1360   27.1750   33.3090 C   0  0  0  0  0  0  0  0  0  0  0  0
   39.9870   26.2650   34.4990 C   0  0  0  0  0  0  0  0  0  0  0  0
   38.5500   27.2300   35.7140 H   0  0  0  0  0  0  0  0  0  0  0  0
   36.6170   25.7950   34.1740 H   0  0  0  0  0  0  0  0  0  0  0  0
   37.3180   27.3480   33.8260 H   0  0  0  0  0  0  0  0  0  0  0  0
   38.7020   24.8980   32.8430 H   0  0  0  0  0  0  0  0  0  0  0  0
   39.5590   26.6170   31.2560 H   0  0  0  0  0  0  0  0  0  0  0  0
   38.5350   27.8140   32.0850 H   0  0  0  0  0  0  0  0  0  0  0  0
   41.1320   26.9130   32.8600 H   0  0  0  0  0  0  0  0  0  0  0  0
   40.1910   28.2430   33.5770 H   0  0  0  0  0  0  0  0  0  0  0  0
   40.2180   25.2330   34.1980 H   0  0  0  0  0  0  0  0  0  0  0  0
   40.6790   26.6340   35.2780 H   0  0  0  0  0  0  0  0  0  0  0  0
   37.0730   25.5160   31.6770 C   0  0  2  0  0  0  0  0  0  0  0  0
   35.9000   26.4590   31.6420 C   0  0  0  0  0  0  0  0  0  0  0  0
   34.9600   25.6370   30.7540 C   0  0  0  0  0  0  0  0  0  0  0  0
   35.2060   24.3200   31.0760 O   0  0  0  0  0  0  0  0  0  0  0  0
   36.3890   24.2160   31.8060 C   0  0  1  0  0  0  0  0  0  0  0  0
   37.5170   25.5690   30.6600 H   0  0  0  0  0  0  0  0  0  0  0  0
   36.1470   27.4050   31.1130 H   0  0  0  0  0  0  0  0  0  0  0  0
   35.4570   26.6380   32.6400 H   0  0  0  0  0  0  0  0  0  0  0  0
   33.9410   25.8690   31.1380 H   0  0  0  0  0  0  0  0  0  0  0  0
   35.0510   25.9140   29.7080 H   0  0  0  0  0  0  0  0  0  0  0  0
   36.0430   23.9510   32.8170 H   0  0  0  0  0  0  0  0  0  0  0  0
   35.4150   21.3730   32.6070 Cl  0  0  0  0  0  0  0  0  0  0  0  0
   36.7860   21.7080   31.5710 C   0  0  0  0  0  0  0  0  0  0  0  0
   37.0990   23.0270   31.3090 C   0  0  0  0  0  0  0  0  0  0  0  0
   38.1920   23.1650   30.4920 C   0  0  0  0  0  0  0  0  0  0  0  0
   38.5870   24.0950   30.1770 H   0  0  0  0  0  0  0  0  0  0  0  0
   38.9050   22.0930   29.9820 C   0  0  0  0  0  0  0  0  0  0  0  0
   39.7770   22.1930   29.3300 H   0  0  0  0  0  0  0  0  0  0  0  0
   38.5390   20.7970   30.2820 C   0  0  0  0  0  3  0  0  0  0  0  0
   37.4610   20.6210   31.0900 C   0  0  0  0  0  3  0  0  0  0  0  0
   38.5000   25.1530   36.0320 C   0  0  0  0  0  0  0  0  0  0  0  0
   38.9820   23.9310   35.5590 C   0  0  0  0  0  0  0  0  0  0  0  0
   38.9440   22.8430   36.4000 C   0  0  0  0  0  0  0  0  0  0  0  0
   38.4320   22.9980   37.6720 N   0  0  0  0  0  0  0  0  0  0  0  0
   37.9650   24.2090   38.1090 C   0  0  0  0  0  0  0  0  0  0  0  0
   38.0130   25.2460   37.2810 N   0  0  0  0  0  0  0  0  0  0  0  0
   39.4120   23.5460   34.6510 H   0  0  0  0  0  0  0  0  0  0  0  0
   39.2450   21.8150   36.2850 H   0  0  0  0  0  0  0  0  0  0  0  0
   37.5690   24.3240   39.0980 H   0  0  0  0  0  0  0  0  0  0  0  0
  1  7  1  1  0  0  0
  1 37  1  0  0  0  0
  2  8  1  0  0  0  0
  2  1  1  0  0  0  0
  3 10  1  1  0  0  0
  3  2  1  0  0  0  0
  4  3  1  0  0  0  0
  4  5  1  0  0  0  0
  5 14  1  0  0  0  0
  5  6  1  0  0  0  0
  6  1  1  0  0  0  0
  6 16  1  0  0  0  0
  9  2  1  0  0  0  0
 11  4  1  0  0  0  0
 12  4  1  0  0  0  0
 13  5  1  0  0  0  0
 15  6  1  0  0  0  0
 17 22  1  6  0  0  0
 17 21  1  0  0  0  0
 17  3  1  0  0  0  0
 18 17  1  0  0  0  0
 18 24  1  0  0  0  0
 19 20  1  0  0  0  0
 19 25  1  0  0  0  0
 19 18  1  0  0  0  0
 20 21  1  0  0  0  0
 21 27  1  1  0  0  0
 23 18  1  0  0  0  0
 26 19  1  0  0  0  0
 29 28  1  0  0  0  0
 30 29  1  0  0  0  0
 30 21  1  0  0  0  0
 31 30  2  0  0  0  0
 32 31  1  0  0  0  0
 33 35  2  0  0  0  0
 33 31  1  0  0  0  0
 34 33  1  0  0  0  0
 35 36  1  0  0  0  0
 36 29  2  0  0  0  0
 37 42  1  0  0  0  0
 38 37  2  0  0  0  0
 38 39  1  0  0  0  0
 39 40  2  0  0  0  0
 40 41  1  0  0  0  0
 41 45  1  0  0  0  0
 42 41  2  0  0  0  0
 43 38  1  0  0  0  0
 44 39  1  0  0  0  0
M  END
>  <minimizedAffinity>
-5.819561

$$$$

 OpenBabel03262523393D

 45 48  0  0  1  0  0  0  0  0999 V2000
   38.1890   21.7610   34.3580 C   0  0  2  0  0  0  0  0  0  0  0  0
   38.5850   22.7290   33.2970 C   0  0  0  0  0  0  0  0  0  0  0  0
   37.3930   23.3930   32.6080 C   0  0  2  0  0  0  0  0  0  0  0  0
   36.6000   22.3160   31.9110 C   0  0  0  0  0  0  0  0  0  0  0  0
   36.2770   21.1570   32.8390 C   0  0  0  0  0  0  0  0  0  0  0  0
   36.7190   21.4170   34.2540 C   0  0  0  0  0  0  0  0  0  0  0  0
   38.7320   20.7720   34.2960 H   0  0  0  0  0  0  0  0  0  0  0  0
   39.3630   23.4260   33.4430 H   0  0  0  0  0  0  0  0  0  0  0  0
   38.9770   22.0500   32.4510 H   0  0  0  0  0  0  0  0  0  0  0  0
   36.7550   23.7790   33.4290 H   0  0  0  0  0  0  0  0  0  0  0  0
   35.7210   22.7430   31.4140 H   0  0  0  0  0  0  0  0  0  0  0  0
   37.2620   21.9010   31.1230 H   0  0  0  0  0  0  0  0  0  0  0  0
   35.1550   21.1130   32.8830 H   0  0  0  0  0  0  0  0  0  0  0  0
   36.6070   20.1790   32.4490 H   0  0  0  0  0  0  0  0  0  0  0  0
   36.1370   22.2530   34.6680 H   0  0  0  0  0  0  0  0  0  0  0  0
   36.5610   20.4810   34.8200 H   0  0  0  0  0  0  0  0  0  0  0  0
   37.7850   24.5280   31.7640 C   0  0  2  0  0  0  0  0  0  0  0  0
   38.5480   24.1900   30.5100 C   0  0  0  0  0  0  0  0  0  0  0  0
   38.9970   25.6010   30.1180 C   0  0  0  0  0  0  0  0  0  0  0  0
   39.2200   26.2620   31.3060 O   0  0  0  0  0  0  0  0  0  0  0  0
   38.6640   25.5480   32.3660 C   0  0  1  0  0  0  0  0  0  0  0  0
   36.8630   25.0370   31.4120 H   0  0  0  0  0  0  0  0  0  0  0  0
   37.8800   23.7970   29.7140 H   0  0  0  0  0  0  0  0  0  0  0  0
   39.4160   23.5290   30.6950 H   0  0  0  0  0  0  0  0  0  0  0  0
   39.9960   25.4550   29.6480 H   0  0  0  0  0  0  0  0  0  0  0  0
   38.3060   26.0630   29.4190 H   0  0  0  0  0  0  0  0  0  0  0  0
   39.5440   25.1680   32.9080 H   0  0  0  0  0  0  0  0  0  0  0  0
   36.2180   27.2100   31.4050 Cl  0  0  0  0  0  0  0  0  0  0  0  0
   36.9530   27.3330   32.9890 C   0  0  0  0  0  0  0  0  0  0  0  0
   38.0410   26.5290   33.2670 C   0  0  0  0  0  0  0  0  0  0  0  0
   38.5330   26.7170   34.5340 C   0  0  0  0  0  0  0  0  0  0  0  0
   39.3620   26.1930   34.9340 H   0  0  0  0  0  0  0  0  0  0  0  0
   37.9960   27.6160   35.4380 C   0  0  0  0  0  0  0  0  0  0  0  0
   38.3810   27.7730   36.4490 H   0  0  0  0  0  0  0  0  0  0  0  0
   36.9060   28.3910   35.0970 C   0  0  0  0  0  3  0  0  0  0  0  0
   36.3910   28.2340   33.8500 C   0  0  0  0  0  3  0  0  0  0  0  0
   38.4190   22.2810   35.7240 C   0  0  0  0  0  0  0  0  0  0  0  0
   39.7320   22.2000   36.1920 C   0  0  0  0  0  0  0  0  0  0  0  0
   40.0120   22.6900   37.4470 C   0  0  0  0  0  0  0  0  0  0  0  0
   38.9890   23.2400   38.1940 N   0  0  0  0  0  0  0  0  0  0  0  0
   37.7100   23.3050   37.7100 C   0  0  0  0  0  0  0  0  0  0  0  0
   37.4630   22.8270   36.4950 N   0  0  0  0  0  0  0  0  0  0  0  0
   40.6790   21.8340   35.8360 H   0  0  0  0  0  0  0  0  0  0  0  0
   40.9170   22.7490   38.0280 H   0  0  0  0  0  0  0  0  0  0  0  0
   36.9200   23.7330   38.2940 H   0  0  0  0  0  0  0  0  0  0  0  0
  1  7  1  6  0  0  0
  1 37  1  0  0  0  0
  2  8  1  0  0  0  0
  2  1  1  0  0  0  0
  3  2  1  0  0  0  0
  3 10  1  1  0  0  0
  4  3  1  0  0  0  0
  4  5  1  0  0  0  0
  5 13  1  0  0  0  0
  5  6  1  0  0  0  0
  6  1  1  0  0  0  0
  6 15  1  0  0  0  0
  6 16  1  0  0  0  0
  9  2  1  0  0  0  0
 11  4  1  0  0  0  0
 12  4  1  0  0  0  0
 14  5  1  0  0  0  0
 17 22  1  6  0  0  0
 17 21  1  0  0  0  0
 17  3  1  0  0  0  0
 18 24  1  0  0  0  0
 18 17  1  0  0  0  0
 19 18  1  0  0  0  0
 19 20  1  0  0  0  0
 20 21  1  0  0  0  0
 21 27  1  1  0  0  0
 21 30  1  0  0  0  0
 23 18  1  0  0  0  0
 25 19  1  0  0  0  0
 26 19  1  0  0  0  0
 28 29  1  0  0  0  0
 29 30  2  0  0  0  0
 29 36  1  0  0  0  0
 30 31  1  0  0  0  0
 31 32  1  0  0  0  0
 31 33  2  0  0  0  0
 33 34  1  0  0  0  0
 35 33  1  0  0  0  0
 36 35  2  0  0  0  0
 37 38  2  0  0  0  0
 37 42  1  0  0  0  0
 38 39  1  0  0  0  0
 39 44  1  0  0  0  0
 39 40  2  0  0  0  0
 41 40  1  0  0  0  0
 41 45  1  0  0  0  0
 42 41  2  0  0  0  0
 43 38  1  0  0  0  0
M  END
>  <minimizedAffinity>
-5.74605799

$$$$

 OpenBabel03262523393D

 45 48  0  0  1  0  0  0  0  0999 V2000
   39.2390   25.8700   34.9660 C   0  0  2  0  0  0  0  0  0  0  0  0
   37.9780   26.1830   34.2370 C   0  0  0  0  0  0  0  0  0  0  0  0
   37.9190   25.5670   32.8390 C   0  0  2  0  0  0  0  0  0  0  0  0
   39.0320   26.1690   32.0180 C   0  0  0  0  0  0  0  0  0  0  0  0
   40.3720   26.0880   32.7290 C   0  0  0  0  0  0  0  0  0  0  0  0
   40.2870   25.3210   34.0220 C   0  0  0  0  0  0  0  0  0  0  0  0
   39.7190   26.7710   35.4510 H   0  0  0  0  0  0  0  0  0  0  0  0
   37.0370   26.1240   34.7060 H   0  0  0  0  0  0  0  0  0  0  0  0
   38.0900   27.3010   33.9800 H   0  0  0  0  0  0  0  0  0  0  0  0
   38.1680   24.4950   32.9770 H   0  0  0  0  0  0  0  0  0  0  0  0
   39.0400   25.7460   31.0070 H   0  0  0  0  0  0  0  0  0  0  0  0
   38.8000   27.2520   31.9250 H   0  0  0  0  0  0  0  0  0  0  0  0
   41.0280   25.4680   32.0600 H   0  0  0  0  0  0  0  0  0  0  0  0
   40.8730   27.0660   32.8320 H   0  0  0  0  0  0  0  0  0  0  0  0
   40.0420   24.2710   33.8040 H   0  0  0  0  0  0  0  0  0  0  0  0
   41.2670   25.4230   34.5240 H   0  0  0  0  0  0  0  0  0  0  0  0
   36.5820   25.6500   32.2390 C   0  0  2  0  0  0  0  0  0  0  0  0
   36.0320   24.3720   31.6630 C   0  0  0  0  0  0  0  0  0  0  0  0
   34.8280   24.9490   30.9120 C   0  0  0  0  0  0  0  0  0  0  0  0
   35.2330   26.1850   30.4580 O   0  0  0  0  0  0  0  0  0  0  0  0
   36.4080   26.5730   31.1020 C   0  0  1  0  0  0  0  0  0  0  0  0
   35.8610   25.9440   33.0310 H   0  0  0  0  0  0  0  0  0  0  0  0
   35.6590   23.6890   32.4570 H   0  0  0  0  0  0  0  0  0  0  0  0
   36.7350   23.8690   30.9720 H   0  0  0  0  0  0  0  0  0  0  0  0
   34.7260   24.3020   30.0100 H   0  0  0  0  0  0  0  0  0  0  0  0
   33.9250   24.9160   31.5140 H   0  0  0  0  0  0  0  0  0  0  0  0
   37.1670   26.5090   30.3080 H   0  0  0  0  0  0  0  0  0  0  0  0
   37.4140   28.6970   29.0670 Cl  0  0  0  0  0  0  0  0  0  0  0  0
   36.6710   29.0610   30.6090 C   0  0  0  0  0  0  0  0  0  0  0  0
   36.2780   28.0060   31.4090 C   0  0  0  0  0  0  0  0  0  0  0  0
   35.7140   28.4120   32.5910 C   0  0  0  0  0  0  0  0  0  0  0  0
   35.3500   27.7530   33.3350 H   0  0  0  0  0  0  0  0  0  0  0  0
   35.5540   29.7410   32.9450 C   0  0  0  0  0  0  0  0  0  0  0  0
   35.1060   30.0750   33.8840 H   0  0  0  0  0  0  0  0  0  0  0  0
   35.9680   30.7490   32.0990 C   0  0  0  0  0  3  0  0  0  0  0  0
   36.5330   30.3850   30.9180 C   0  0  0  0  0  3  0  0  0  0  0  0
   39.0500   24.8660   36.0370 C   0  0  0  0  0  0  0  0  0  0  0  0
   39.9150   23.7710   36.0010 C   0  0  0  0  0  0  0  0  0  0  0  0
   39.8030   22.8160   36.9850 C   0  0  0  0  0  0  0  0  0  0  0  0
   38.8450   22.9750   37.9660 N   0  0  0  0  0  0  0  0  0  0  0  0
   38.0100   24.0600   37.9750 C   0  0  0  0  0  0  0  0  0  0  0  0
   38.1360   24.9700   37.0160 N   0  0  0  0  0  0  0  0  0  0  0  0
   40.7150   23.4110   35.3770 H   0  0  0  0  0  0  0  0  0  0  0  0
   40.3330   21.8980   37.1830 H   0  0  0  0  0  0  0  0  0  0  0  0
   37.2680   24.1780   38.7400 H   0  0  0  0  0  0  0  0  0  0  0  0
  1  7  1  1  0  0  0
  1 37  1  0  0  0  0
  2  8  1  0  0  0  0
  2  1  1  0  0  0  0
  3 10  1  1  0  0  0
  3  2  1  0  0  0  0
  4  5  1  0  0  0  0
  4  3  1  0  0  0  0
  5 14  1  0  0  0  0
  5  6  1  0  0  0  0
  6 16  1  0  0  0  0
  6  1  1  0  0  0  0
  9  2  1  0  0  0  0
 11  4  1  0  0  0  0
 12  4  1  0  0  0  0
 13  5  1  0  0  0  0
 15  6  1  0  0  0  0
 17  3  1  0  0  0  0
 17 22  1  1  0  0  0
 18 17  1  0  0  0  0
 18 23  1  0  0  0  0
 19 26  1  0  0  0  0
 19 18  1  0  0  0  0
 20 19  1  0  0  0  0
 20 21  1  0  0  0  0
 21 27  1  6  0  0  0
 21 30  1  0  0  0  0
 21 17  1  0  0  0  0
 24 18  1  0  0  0  0
 25 19  1  0  0  0  0
 28 29  1  0  0  0  0
 29 36  2  0  0  0  0
 29 30  1  0  0  0  0
 30 31  2  0  0  0  0
 31 33  1  0  0  0  0
 31 32  1  0  0  0  0
 33 34  1  0  0  0  0
 35 33  2  0  0  0  0
 36 35  1  0  0  0  0
 37 42  1  0  0  0  0
 38 37  2  0  0  0  0
 38 39  1  0  0  0  0
 39 44  1  0  0  0  0
 39 40  2  0  0  0  0
 40 41  1  0  0  0  0
 41 45  1  0  0  0  0
 42 41  2  0  0  0  0
 43 38  1  0  0  0  0
M  END
>  <minimizedAffinity>
-5.74149227

$$$$

 OpenBabel03262523393D

 45 48  0  0  1  0  0  0  0  0999 V2000
   38.3780   21.7800   34.2970 C   0  0  2  0  0  0  0  0  0  0  0  0
   38.6970   22.7610   33.2220 C   0  0  0  0  0  0  0  0  0  0  0  0
   37.4590   23.4320   32.6280 C   0  0  2  0  0  0  0  0  0  0  0  0
   36.6190   22.3630   31.9750 C   0  0  0  0  0  0  0  0  0  0  0  0
   36.3630   21.1920   32.9090 C   0  0  0  0  0  0  0  0  0  0  0  0
   36.9040   21.4350   34.2920 C   0  0  0  0  0  0  0  0  0  0  0  0
   38.9150   20.7920   34.1840 H   0  0  0  0  0  0  0  0  0  0  0  0
   39.4830   23.4570   33.3210 H   0  0  0  0  0  0  0  0  0  0  0  0
   39.0290   22.0930   32.3420 H   0  0  0  0  0  0  0  0  0  0  0  0
   36.8810   23.8070   33.4960 H   0  0  0  0  0  0  0  0  0  0  0  0
   35.7070   22.7950   31.5460 H   0  0  0  0  0  0  0  0  0  0  0  0
   37.2240   21.9580   31.1370 H   0  0  0  0  0  0  0  0  0  0  0  0
   35.2470   21.1460   33.0320 H   0  0  0  0  0  0  0  0  0  0  0  0
   36.6650   20.2190   32.4850 H   0  0  0  0  0  0  0  0  0  0  0  0
   36.3520   22.2660   34.7560 H   0  0  0  0  0  0  0  0  0  0  0  0
   36.7870   20.4920   34.8570 H   0  0  0  0  0  0  0  0  0  0  0  0
   37.7900   24.5780   31.7710 C   0  0  2  0  0  0  0  0  0  0  0  0
   38.5220   24.2620   30.4940 C   0  0  0  0  0  0  0  0  0  0  0  0
   38.9150   25.6850   30.0880 C   0  0  0  0  0  0  0  0  0  0  0  0
   39.1570   26.3530   31.2680 O   0  0  0  0  0  0  0  0  0  0  0  0
   38.6570   25.6230   32.3450 C   0  0  1  0  0  0  0  0  0  0  0  0
   36.8420   25.0590   31.4500 H   0  0  0  0  0  0  0  0  0  0  0  0
   37.8400   23.8490   29.7190 H   0  0  0  0  0  0  0  0  0  0  0  0
   39.4140   23.6260   30.6500 H   0  0  0  0  0  0  0  0  0  0  0  0
   39.9030   25.5690   29.5850 H   0  0  0  0  0  0  0  0  0  0  0  0
   38.1890   26.1260   29.4120 H   0  0  0  0  0  0  0  0  0  0  0  0
   39.5650   25.2690   32.8580 H   0  0  0  0  0  0  0  0  0  0  0  0
   39.6400   25.8190   35.2890 Cl  0  0  0  0  0  0  0  0  0  0  0  0
   38.3630   26.7930   34.5920 C   0  0  0  0  0  0  0  0  0  0  0  0
   38.0350   26.5860   33.2670 C   0  0  0  0  0  0  0  0  0  0  0  0
   37.0200   27.4020   32.8340 C   0  0  0  0  0  0  0  0  0  0  0  0
   36.6280   27.3940   31.8510 H   0  0  0  0  0  0  0  0  0  0  0  0
   36.3920   28.3340   33.6410 C   0  0  0  0  0  0  0  0  0  0  0  0
   35.5830   28.9880   33.3060 H   0  0  0  0  0  0  0  0  0  0  0  0
   36.7680   28.4920   34.9590 C   0  0  0  0  0  3  0  0  0  0  0  0
   37.7700   27.7010   35.4240 C   0  0  0  0  0  3  0  0  0  0  0  0
   38.7030   22.2840   35.6490 C   0  0  0  0  0  0  0  0  0  0  0  0
   37.6600   22.9190   36.3270 C   0  0  0  0  0  0  0  0  0  0  0  0
   37.8950   23.3880   37.5990 C   0  0  0  0  0  0  0  0  0  0  0  0
   39.1460   23.2150   38.1550 N   0  0  0  0  0  0  0  0  0  0  0  0
   40.1510   22.5890   37.4660 C   0  0  0  0  0  0  0  0  0  0  0  0
   39.9010   22.1440   36.2400 N   0  0  0  0  0  0  0  0  0  0  0  0
   36.6330   23.1800   36.1370 H   0  0  0  0  0  0  0  0  0  0  0  0
   37.2790   23.9000   38.3190 H   0  0  0  0  0  0  0  0  0  0  0  0
   41.1210   22.4570   37.9030 H   0  0  0  0  0  0  0  0  0  0  0  0
  1  7  1  6  0  0  0
  1 37  1  0  0  0  0
  2  8  1  0  0  0  0
  2  1  1  0  0  0  0
  3  2  1  0  0  0  0
  3 10  1  1  0  0  0
  4  3  1  0  0  0  0
  4  5  1  0  0  0  0
  5 13  1  0  0  0  0
  5  6  1  0  0  0  0
  6  1  1  0  0  0  0
  6 15  1  0  0  0  0
  6 16  1  0  0  0  0
  9  2  1  0  0  0  0
 11  4  1  0  0  0  0
 12  4  1  0  0  0  0
 14  5  1  0  0  0  0
 17 22  1  6  0  0  0
 17 21  1  0  0  0  0
 17  3  1  0  0  0  0
 18 24  1  0  0  0  0
 18 17  1  0  0  0  0
 19 18  1  0  0  0  0
 19 20  1  0  0  0  0
 20 21  1  0  0  0  0
 21 27  1  1  0  0  0
 21 30  1  0  0  0  0
 23 18  1  0  0  0  0
 25 19  1  0  0  0  0
 26 19  1  0  0  0  0
 29 28  1  0  0  0  0
 29 36  1  0  0  0  0
 30 29  2  0  0  0  0
 31 30  1  0  0  0  0
 31 33  2  0  0  0  0
 32 31  1  0  0  0  0
 33 35  1  0  0  0  0
 34 33  1  0  0  0  0
 35 36  2  0  0  0  0
 37 42  2  0  0  0  0
 37 38  1  0  0  0  0
 38 39  2  0  0  0  0
 39 40  1  0  0  0  0
 39 44  1  0  0  0  0
 41 45  1  0  0  0  0
 41 40  2  0  0  0  0
 42 41  1  0  0  0  0
 43 38  1  0  0  0  0
M  END
>  <minimizedAffinity>
-5.68381119

$$$$
