
 OpenBabel03272502123D

 26 28  0  0  0  0  0  0  0  0999 V2000
   36.6750   27.8220   33.5450 C   0  0  0  0  0  0  0  0  0  0  0  0
   36.7680   28.3440   32.2660 C   0  0  0  0  0  0  0  0  0  0  0  0
   36.2660   29.6000   31.8940 C   0  0  0  0  0  0  0  0  0  0  0  0
   35.6570   30.3270   32.8690 N   0  0  0  0  0  0  0  0  0  0  0  0
   35.5620   29.8270   34.1180 C   0  0  0  0  0  0  0  0  0  0  0  0
   36.0570   28.6240   34.4180 N   0  0  0  0  0  0  0  0  0  0  0  0
   37.2540   27.7600   31.4910 H   0  0  0  0  0  0  0  0  0  0  0  0
   36.3720   29.9510   30.8740 H   0  0  0  0  0  0  0  0  0  0  0  0
   37.4410   25.5040   32.9760 C   0  0  0  0  0  0  0  0  0  0  0  0
   37.1960   26.5400   33.8890 C   0  0  0  0  0  0  0  0  0  0  0  0
   37.4880   26.2860   35.2370 C   0  0  0  0  0  0  0  0  0  0  0  0
   37.9860   25.0600   35.5660 N   0  0  0  0  0  0  0  0  0  0  0  0
   38.2070   24.0940   34.6500 C   0  0  0  0  0  0  0  0  0  0  0  0
   37.9320   24.3200   33.3550 N   0  0  0  0  0  0  0  0  0  0  0  0
   37.1900   25.7730   31.9440 H   0  0  0  0  0  0  0  0  0  0  0  0
   37.3440   27.0030   36.0390 H   0  0  0  0  0  0  0  0  0  0  0  0
   38.6020   23.1230   34.9180 H   0  0  0  0  0  0  0  0  0  0  0  0
   32.5620   29.3870   34.4200 Cl  0  0  0  0  0  0  0  0  0  0  0  0
   33.5490   30.5010   35.3550 C   0  0  0  0  0  0  0  0  0  0  0  0
   34.9020   30.6300   35.1450 C   0  0  0  0  0  0  0  0  0  0  0  0
   35.6090   31.5280   35.9210 C   0  0  0  0  0  0  0  0  0  0  0  0
   36.6830   31.6000   35.7210 H   0  0  0  0  0  0  0  0  0  0  0  0
   35.0320   32.3020   36.8940 C   0  0  0  0  0  0  0  0  0  0  0  0
   35.6190   32.9960   37.4840 H   0  0  0  0  0  0  0  0  0  0  0  0
   33.6770   32.1510   37.0810 C   0  0  0  0  0  3  0  0  0  0  0  0
   32.9040   31.2640   36.3340 C   0  0  0  0  0  3  0  0  0  0  0  0
  1 10  1  0  0  0  0
  1  6  1  0  0  0  0
  2  1  2  0  0  0  0
  3  2  1  0  0  0  0
  3  4  2  0  0  0  0
  4  5  1  0  0  0  0
  5  6  2  0  0  0  0
  5 20  1  0  0  0  0
  7  2  1  0  0  0  0
  8  3  1  0  0  0  0
  9 14  2  0  0  0  0
  9 10  1  0  0  0  0
 10 11  2  0  0  0  0
 11 12  1  0  0  0  0
 11 16  1  0  0  0  0
 13 17  1  0  0  0  0
 13 12  2  0  0  0  0
 14 13  1  0  0  0  0
 15  9  1  0  0  0  0
 18 19  1  0  0  0  0
 19 26  1  0  0  0  0
 20 19  2  0  0  0  0
 20 21  1  0  0  0  0
 21 23  2  0  0  0  0
 22 21  1  0  0  0  0
 23 25  1  0  0  0  0
 23 24  1  0  0  0  0
 26 25  2  0  0  0  0
M  END
>  <minimizedAffinity>
-5.34148502

$$$$

 OpenBabel03272502123D

 26 28  0  0  0  0  0  0  0  0999 V2000
   36.0510   23.0710   31.8660 C   0  0  0  0  0  0  0  0  0  0  0  0
   35.2850   23.8310   31.0010 C   0  0  0  0  0  0  0  0  0  0  0  0
   35.3340   25.2320   30.9350 C   0  0  0  0  0  0  0  0  0  0  0  0
   36.1970   25.8530   31.7840 N   0  0  0  0  0  0  0  0  0  0  0  0
   36.9480   25.1200   32.6320 C   0  0  0  0  0  0  0  0  0  0  0  0
   36.8610   23.7880   32.6530 N   0  0  0  0  0  0  0  0  0  0  0  0
   34.5980   23.3320   30.3250 H   0  0  0  0  0  0  0  0  0  0  0  0
   34.7070   25.7690   30.2330 H   0  0  0  0  0  0  0  0  0  0  0  0
   36.2470   20.7990   30.8240 C   0  0  0  0  0  0  0  0  0  0  0  0
   35.9760   21.6470   31.9080 C   0  0  0  0  0  0  0  0  0  0  0  0
   35.6040   21.0400   33.1160 C   0  0  0  0  0  0  0  0  0  0  0  0
   35.5330   19.6790   33.1550 N   0  0  0  0  0  0  0  0  0  0  0  0
   35.8050   18.9040   32.0840 C   0  0  0  0  0  0  0  0  0  0  0  0
   36.1620   19.4690   30.9180 N   0  0  0  0  0  0  0  0  0  0  0  0
   36.5300   21.3420   29.9140 H   0  0  0  0  0  0  0  0  0  0  0  0
   35.3700   21.5830   34.0260 H   0  0  0  0  0  0  0  0  0  0  0  0
   35.7450   17.8240   32.1220 H   0  0  0  0  0  0  0  0  0  0  0  0
   39.7760   25.5350   31.5790 Cl  0  0  0  0  0  0  0  0  0  0  0  0
   39.1630   26.0470   33.1450 C   0  0  0  0  0  0  0  0  0  0  0  0
   37.8650   25.8140   33.5330 C   0  0  0  0  0  0  0  0  0  0  0  0
   37.4590   26.2480   34.7800 C   0  0  0  0  0  0  0  0  0  0  0  0
   36.4170   26.0410   35.0490 H   0  0  0  0  0  0  0  0  0  0  0  0
   38.2840   26.9010   35.6560 C   0  0  0  0  0  0  0  0  0  0  0  0
   37.9300   27.2270   36.6280 H   0  0  0  0  0  0  0  0  0  0  0  0
   39.5780   27.1210   35.2420 C   0  0  0  0  0  3  0  0  0  0  0  0
   40.0530   26.7110   33.9970 C   0  0  0  0  0  3  0  0  0  0  0  0
  1 10  1  0  0  0  0
  1  6  1  0  0  0  0
  2  1  2  0  0  0  0
  3  2  1  0  0  0  0
  3  4  2  0  0  0  0
  4  5  1  0  0  0  0
  5  6  2  0  0  0  0
  5 20  1  0  0  0  0
  7  2  1  0  0  0  0
  8  3  1  0  0  0  0
  9 14  2  0  0  0  0
  9 10  1  0  0  0  0
 10 11  2  0  0  0  0
 11 12  1  0  0  0  0
 11 16  1  0  0  0  0
 13 17  1  0  0  0  0
 13 12  2  0  0  0  0
 14 13  1  0  0  0  0
 15  9  1  0  0  0  0
 18 19  1  0  0  0  0
 19 20  2  0  0  0  0
 19 26  1  0  0  0  0
 20 21  1  0  0  0  0
 21 22  1  0  0  0  0
 21 23  2  0  0  0  0
 23 24  1  0  0  0  0
 25 23  1  0  0  0  0
 26 25  2  0  0  0  0
M  END
>  <minimizedAffinity>
-5.15793085

$$$$

 OpenBabel03272502123D

 26 28  0  0  0  0  0  0  0  0999 V2000
   38.3010   25.6770   33.2130 C   0  0  0  0  0  0  0  0  0  0  0  0
   39.0400   26.8480   33.1930 C   0  0  0  0  0  0  0  0  0  0  0  0
   40.1800   27.0680   33.9810 C   0  0  0  0  0  0  0  0  0  0  0  0
   40.5590   26.0530   34.8030 N   0  0  0  0  0  0  0  0  0  0  0  0
   39.8450   24.9090   34.8300 C   0  0  0  0  0  0  0  0  0  0  0  0
   38.7670   24.7520   34.0590 N   0  0  0  0  0  0  0  0  0  0  0  0
   38.7340   27.6550   32.5350 H   0  0  0  0  0  0  0  0  0  0  0  0
   40.7140   28.0090   33.9170 H   0  0  0  0  0  0  0  0  0  0  0  0
   36.6620   24.2380   31.9780 C   0  0  0  0  0  0  0  0  0  0  0  0
   37.1460   25.4860   32.3990 C   0  0  0  0  0  0  0  0  0  0  0  0
   36.4350   26.6200   31.9840 C   0  0  0  0  0  0  0  0  0  0  0  0
   35.3310   26.4370   31.2050 N   0  0  0  0  0  0  0  0  0  0  0  0
   34.9020   25.2150   30.8260 C   0  0  0  0  0  0  0  0  0  0  0  0
   35.5720   24.1170   31.2140 N   0  0  0  0  0  0  0  0  0  0  0  0
   37.2660   23.3990   32.3390 H   0  0  0  0  0  0  0  0  0  0  0  0
   36.7060   27.6400   32.2420 H   0  0  0  0  0  0  0  0  0  0  0  0
   34.0250   25.0760   30.2080 H   0  0  0  0  0  0  0  0  0  0  0  0
   38.1200   24.4740   37.3040 Cl  0  0  0  0  0  0  0  0  0  0  0  0
   39.5600   23.5660   36.8670 C   0  0  0  0  0  0  0  0  0  0  0  0
   40.2760   23.8370   35.7240 C   0  0  0  0  0  0  0  0  0  0  0  0
   41.3970   23.0780   35.4500 C   0  0  0  0  0  0  0  0  0  0  0  0
   41.9370   23.3260   34.5310 H   0  0  0  0  0  0  0  0  0  0  0  0
   41.8370   22.0640   36.2600 C   0  0  0  0  0  0  0  0  0  0  0  0
   42.7220   21.4880   36.0130 H   0  0  0  0  0  0  0  0  0  0  0  0
   41.1020   21.8150   37.3960 C   0  0  0  0  0  3  0  0  0  0  0  0
   39.9600   22.5420   37.7320 C   0  0  0  0  0  3  0  0  0  0  0  0
  1  6  1  0  0  0  0
  2  1  2  0  0  0  0
  2  3  1  0  0  0  0
  3  4  2  0  0  0  0
  4  5  1  0  0  0  0
  5 20  1  0  0  0  0
  6  5  2  0  0  0  0
  7  2  1  0  0  0  0
  8  3  1  0  0  0  0
  9 15  1  0  0  0  0
  9 10  1  0  0  0  0
 10  1  1  0  0  0  0
 11 16  1  0  0  0  0
 11 10  2  0  0  0  0
 12 11  1  0  0  0  0
 13 12  2  0  0  0  0
 13 14  1  0  0  0  0
 14  9  2  0  0  0  0
 17 13  1  0  0  0  0
 19 18  1  0  0  0  0
 19 26  1  0  0  0  0
 20 19  2  0  0  0  0
 21 20  1  0  0  0  0
 21 23  2  0  0  0  0
 22 21  1  0  0  0  0
 23 25  1  0  0  0  0
 24 23  1  0  0  0  0
 25 26  2  0  0  0  0
M  END
>  <minimizedAffinity>
-5.1284771

$$$$

 OpenBabel03272502123D

 26 28  0  0  0  0  0  0  0  0999 V2000
   36.0470   28.0060   32.0480 C   0  0  0  0  0  0  0  0  0  0  0  0
   36.3210   28.8390   30.9760 C   0  0  0  0  0  0  0  0  0  0  0  0
   36.1620   30.2320   31.0060 C   0  0  0  0  0  0  0  0  0  0  0  0
   35.7110   30.7700   32.1710 N   0  0  0  0  0  0  0  0  0  0  0  0
   35.4400   29.9670   33.2200 C   0  0  0  0  0  0  0  0  0  0  0  0
   35.6090   28.6460   33.1380 N   0  0  0  0  0  0  0  0  0  0  0  0
   36.6810   28.4050   30.0480 H   0  0  0  0  0  0  0  0  0  0  0  0
   36.3950   30.8280   30.1310 H   0  0  0  0  0  0  0  0  0  0  0  0
   37.1140   25.8580   32.7750 C   0  0  0  0  0  0  0  0  0  0  0  0
   36.2190   26.5920   31.9840 C   0  0  0  0  0  0  0  0  0  0  0  0
   35.4410   25.8730   31.0650 C   0  0  0  0  0  0  0  0  0  0  0  0
   35.6060   24.5210   31.0050 N   0  0  0  0  0  0  0  0  0  0  0  0
   36.4810   23.8580   31.7890 C   0  0  0  0  0  0  0  0  0  0  0  0
   37.2350   24.5310   32.6740 N   0  0  0  0  0  0  0  0  0  0  0  0
   37.6880   26.4850   33.4680 H   0  0  0  0  0  0  0  0  0  0  0  0
   34.7130   26.3220   30.3970 H   0  0  0  0  0  0  0  0  0  0  0  0
   36.6070   22.7840   31.7350 H   0  0  0  0  0  0  0  0  0  0  0  0
   32.4740   29.5940   33.8060 Cl  0  0  0  0  0  0  0  0  0  0  0  0
   33.6310   30.4580   34.8080 C   0  0  0  0  0  0  0  0  0  0  0  0
   34.9560   30.5730   34.4580 C   0  0  0  0  0  0  0  0  0  0  0  0
   35.8040   31.2680   35.2990 C   0  0  0  0  0  0  0  0  0  0  0  0
   36.8500   31.3370   34.9840 H   0  0  0  0  0  0  0  0  0  0  0  0
   35.3930   31.8530   36.4680 C   0  0  0  0  0  0  0  0  0  0  0  0
   36.0880   32.3910   37.1040 H   0  0  0  0  0  0  0  0  0  0  0  0
   34.0630   31.7210   36.7920 C   0  0  0  0  0  3  0  0  0  0  0  0
   33.1530   31.0330   35.9900 C   0  0  0  0  0  3  0  0  0  0  0  0
  1  6  1  0  0  0  0
  2  3  1  0  0  0  0
  2  1  2  0  0  0  0
  3  4  2  0  0  0  0
  4  5  1  0  0  0  0
  5 20  1  0  0  0  0
  6  5  2  0  0  0  0
  7  2  1  0  0  0  0
  8  3  1  0  0  0  0
  9 15  1  0  0  0  0
 10  1  1  0  0  0  0
 10  9  2  0  0  0  0
 11 10  1  0  0  0  0
 12 11  2  0  0  0  0
 12 13  1  0  0  0  0
 13 14  2  0  0  0  0
 14  9  1  0  0  0  0
 16 11  1  0  0  0  0
 17 13  1  0  0  0  0
 18 19  1  0  0  0  0
 19 26  1  0  0  0  0
 20 19  2  0  0  0  0
 20 21  1  0  0  0  0
 21 23  2  0  0  0  0
 22 21  1  0  0  0  0
 23 25  1  0  0  0  0
 23 24  1  0  0  0  0
 26 25  2  0  0  0  0
M  END
>  <minimizedAffinity>
-5.1213975

$$$$

 OpenBabel03272502123D

 26 28  0  0  0  0  0  0  0  0999 V2000
   36.5820   28.1440   33.6380 C   0  0  0  0  0  0  0  0  0  0  0  0
   36.4740   28.6110   32.3390 C   0  0  0  0  0  0  0  0  0  0  0  0
   35.6320   29.6650   31.9540 C   0  0  0  0  0  0  0  0  0  0  0  0
   34.8890   30.2440   32.9350 N   0  0  0  0  0  0  0  0  0  0  0  0
   34.9880   29.7950   34.2040 C   0  0  0  0  0  0  0  0  0  0  0  0
   35.8050   28.7880   34.5160 N   0  0  0  0  0  0  0  0  0  0  0  0
   37.0680   28.1460   31.5590 H   0  0  0  0  0  0  0  0  0  0  0  0
   35.5940   29.9830   30.9180 H   0  0  0  0  0  0  0  0  0  0  0  0
   38.4490   27.1400   34.9770 C   0  0  0  0  0  0  0  0  0  0  0  0
   37.4480   27.0690   33.9960 C   0  0  0  0  0  0  0  0  0  0  0  0
   37.2960   25.8470   33.3260 C   0  0  0  0  0  0  0  0  0  0  0  0
   38.1240   24.8200   33.6690 N   0  0  0  0  0  0  0  0  0  0  0  0
   39.0730   24.9360   34.6210 C   0  0  0  0  0  0  0  0  0  0  0  0
   39.2330   26.1000   35.2730 N   0  0  0  0  0  0  0  0  0  0  0  0
   38.5090   28.1230   35.4570 H   0  0  0  0  0  0  0  0  0  0  0  0
   36.5600   25.6630   32.5490 H   0  0  0  0  0  0  0  0  0  0  0  0
   39.7280   24.1160   34.8880 H   0  0  0  0  0  0  0  0  0  0  0  0
   36.3610   32.0140   35.7760 Cl  0  0  0  0  0  0  0  0  0  0  0  0
   34.7120   31.4490   35.9990 C   0  0  0  0  0  0  0  0  0  0  0  0
   34.1780   30.4360   35.2370 C   0  0  0  0  0  0  0  0  0  0  0  0
   32.8730   30.0480   35.4730 C   0  0  0  0  0  0  0  0  0  0  0  0
   32.4870   29.2390   34.8440 H   0  0  0  0  0  0  0  0  0  0  0  0
   32.0780   30.6210   36.4310 C   0  0  0  0  0  0  0  0  0  0  0  0
   31.0580   30.2900   36.5880 H   0  0  0  0  0  0  0  0  0  0  0  0
   32.6390   31.6310   37.1780 C   0  0  0  0  0  3  0  0  0  0  0  0
   33.9490   32.0720   36.9920 C   0  0  0  0  0  3  0  0  0  0  0  0
  1 10  1  0  0  0  0
  1  6  1  0  0  0  0
  2  1  2  0  0  0  0
  3  2  1  0  0  0  0
  3  4  2  0  0  0  0
  4  5  1  0  0  0  0
  5  6  2  0  0  0  0
  5 20  1  0  0  0  0
  7  2  1  0  0  0  0
  8  3  1  0  0  0  0
  9 14  1  0  0  0  0
  9 15  1  0  0  0  0
 10  9  2  0  0  0  0
 11 12  2  0  0  0  0
 11 10  1  0  0  0  0
 12 13  1  0  0  0  0
 13 17  1  0  0  0  0
 13 14  2  0  0  0  0
 16 11  1  0  0  0  0
 18 19  1  0  0  0  0
 19 26  1  0  0  0  0
 20 21  1  0  0  0  0
 20 19  2  0  0  0  0
 21 23  2  0  0  0  0
 22 21  1  0  0  0  0
 23 24  1  0  0  0  0
 23 25  1  0  0  0  0
 26 25  2  0  0  0  0
M  END
>  <minimizedAffinity>
-5.07378197

$$$$

 OpenBabel03272502123D

 26 28  0  0  0  0  0  0  0  0999 V2000
   37.3050   21.8150   33.0580 C   0  0  0  0  0  0  0  0  0  0  0  0
   37.4550   22.9190   32.2360 C   0  0  0  0  0  0  0  0  0  0  0  0
   37.9150   24.1680   32.6800 C   0  0  0  0  0  0  0  0  0  0  0  0
   38.2240   24.2720   34.0000 N   0  0  0  0  0  0  0  0  0  0  0  0
   38.0810   23.2020   34.8080 C   0  0  0  0  0  0  0  0  0  0  0  0
   37.6390   22.0350   34.3340 N   0  0  0  0  0  0  0  0  0  0  0  0
   37.2070   22.8320   31.1830 H   0  0  0  0  0  0  0  0  0  0  0  0
   38.0100   24.9940   31.9830 H   0  0  0  0  0  0  0  0  0  0  0  0
   37.4170   19.8360   31.5220 C   0  0  0  0  0  0  0  0  0  0  0  0
   36.8350   20.5580   32.5750 C   0  0  0  0  0  0  0  0  0  0  0  0
   35.7080   19.9940   33.1900 C   0  0  0  0  0  0  0  0  0  0  0  0
   35.2590   18.7930   32.7280 N   0  0  0  0  0  0  0  0  0  0  0  0
   35.8540   18.1340   31.7110 C   0  0  0  0  0  0  0  0  0  0  0  0
   36.9340   18.6610   31.1100 N   0  0  0  0  0  0  0  0  0  0  0  0
   38.2910   20.3370   31.0900 H   0  0  0  0  0  0  0  0  0  0  0  0
   35.1680   20.4510   34.0130 H   0  0  0  0  0  0  0  0  0  0  0  0
   35.4910   17.1810   31.3490 H   0  0  0  0  0  0  0  0  0  0  0  0
   40.7330   21.9700   35.6620 Cl  0  0  0  0  0  0  0  0  0  0  0  0
   39.5980   22.8180   36.7010 C   0  0  0  0  0  0  0  0  0  0  0  0
   38.4200   23.3420   36.2220 C   0  0  0  0  0  0  0  0  0  0  0  0
   37.5810   23.9960   37.1030 C   0  0  0  0  0  0  0  0  0  0  0  0
   36.6540   24.3980   36.6800 H   0  0  0  0  0  0  0  0  0  0  0  0
   37.8590   24.1510   38.4350 C   0  0  0  0  0  0  0  0  0  0  0  0
   37.1750   24.6700   39.0980 H   0  0  0  0  0  0  0  0  0  0  0  0
   39.0430   23.6160   38.8870 C   0  0  0  0  0  3  0  0  0  0  0  0
   39.9370   22.9460   38.0530 C   0  0  0  0  0  3  0  0  0  0  0  0
  1  6  1  0  0  0  0
  2  3  1  0  0  0  0
  2  1  2  0  0  0  0
  3  4  2  0  0  0  0
  4  5  1  0  0  0  0
  5 20  1  0  0  0  0
  6  5  2  0  0  0  0
  7  2  1  0  0  0  0
  8  3  1  0  0  0  0
  9 10  1  0  0  0  0
 10  1  1  0  0  0  0
 10 11  2  0  0  0  0
 11 16  1  0  0  0  0
 12 11  1  0  0  0  0
 13 12  2  0  0  0  0
 14  9  2  0  0  0  0
 14 13  1  0  0  0  0
 15  9  1  0  0  0  0
 17 13  1  0  0  0  0
 18 19  1  0  0  0  0
 19 26  1  0  0  0  0
 20 19  2  0  0  0  0
 20 21  1  0  0  0  0
 21 23  2  0  0  0  0
 22 21  1  0  0  0  0
 23 25  1  0  0  0  0
 23 24  1  0  0  0  0
 26 25  2  0  0  0  0
M  END
>  <minimizedAffinity>
-5.06513357

$$$$

 OpenBabel03272502123D

 26 28  0  0  0  0  0  0  0  0999 V2000
   37.3360   25.2350   32.8790 C   0  0  0  0  0  0  0  0  0  0  0  0
   37.3110   24.1100   32.0710 C   0  0  0  0  0  0  0  0  0  0  0  0
   37.6340   22.8190   32.5170 C   0  0  0  0  0  0  0  0  0  0  0  0
   37.9880   22.6950   33.8240 N   0  0  0  0  0  0  0  0  0  0  0  0
   38.0160   23.7850   34.6180 C   0  0  0  0  0  0  0  0  0  0  0  0
   37.7000   24.9920   34.1420 N   0  0  0  0  0  0  0  0  0  0  0  0
   37.0280   24.2130   31.0290 H   0  0  0  0  0  0  0  0  0  0  0  0
   37.5940   21.9800   31.8320 H   0  0  0  0  0  0  0  0  0  0  0  0
   36.7400   27.6480   33.2050 C   0  0  0  0  0  0  0  0  0  0  0  0
   37.0030   26.5340   32.3940 C   0  0  0  0  0  0  0  0  0  0  0  0
   36.9300   26.7230   31.0060 C   0  0  0  0  0  0  0  0  0  0  0  0
   36.6120   27.9650   30.5440 N   0  0  0  0  0  0  0  0  0  0  0  0
   36.3670   29.0080   31.3640 C   0  0  0  0  0  0  0  0  0  0  0  0
   36.4320   28.8440   32.6960 N   0  0  0  0  0  0  0  0  0  0  0  0
   36.8140   27.4260   34.2760 H   0  0  0  0  0  0  0  0  0  0  0  0
   37.1120   25.9430   30.2730 H   0  0  0  0  0  0  0  0  0  0  0  0
   36.1140   29.9910   30.9900 H   0  0  0  0  0  0  0  0  0  0  0  0
   40.7020   22.4310   35.1020 Cl  0  0  0  0  0  0  0  0  0  0  0  0
   39.5970   23.0210   36.3350 C   0  0  0  0  0  0  0  0  0  0  0  0
   38.4010   23.6210   36.0170 C   0  0  0  0  0  0  0  0  0  0  0  0
   37.5880   24.0590   37.0440 C   0  0  0  0  0  0  0  0  0  0  0  0
   36.6450   24.5310   36.7470 H   0  0  0  0  0  0  0  0  0  0  0  0
   37.9090   23.9250   38.3690 C   0  0  0  0  0  0  0  0  0  0  0  0
   37.2440   24.2810   39.1490 H   0  0  0  0  0  0  0  0  0  0  0  0
   39.1100   23.3200   38.6580 C   0  0  0  0  0  3  0  0  0  0  0  0
   39.9800   22.8570   37.6710 C   0  0  0  0  0  3  0  0  0  0  0  0
  1  6  1  0  0  0  0
  2  3  1  0  0  0  0
  2  1  2  0  0  0  0
  3  4  2  0  0  0  0
  4  5  1  0  0  0  0
  5 20  1  0  0  0  0
  6  5  2  0  0  0  0
  7  2  1  0  0  0  0
  8  3  1  0  0  0  0
  9 15  1  0  0  0  0
 10  1  1  0  0  0  0
 10  9  2  0  0  0  0
 11 10  1  0  0  0  0
 12 11  2  0  0  0  0
 12 13  1  0  0  0  0
 13 14  2  0  0  0  0
 14  9  1  0  0  0  0
 16 11  1  0  0  0  0
 17 13  1  0  0  0  0
 18 19  1  0  0  0  0
 19 26  1  0  0  0  0
 20 19  2  0  0  0  0
 20 21  1  0  0  0  0
 21 23  2  0  0  0  0
 22 21  1  0  0  0  0
 23 25  1  0  0  0  0
 23 24  1  0  0  0  0
 26 25  2  0  0  0  0
M  END
>  <minimizedAffinity>
-5.0546422

$$$$

 OpenBabel03272502123D

 26 28  0  0  0  0  0  0  0  0999 V2000
   36.2310   23.6410   31.6820 C   0  0  0  0  0  0  0  0  0  0  0  0
   35.3080   24.5210   31.1420 C   0  0  0  0  0  0  0  0  0  0  0  0
   35.4570   25.9160   31.1560 C   0  0  0  0  0  0  0  0  0  0  0  0
   36.5840   26.4040   31.7410 N   0  0  0  0  0  0  0  0  0  0  0  0
   37.4880   25.5540   32.2700 C   0  0  0  0  0  0  0  0  0  0  0  0
   37.2960   24.2340   32.2290 N   0  0  0  0  0  0  0  0  0  0  0  0
   34.4110   24.1280   30.6770 H   0  0  0  0  0  0  0  0  0  0  0  0
   34.6970   26.5510   30.7160 H   0  0  0  0  0  0  0  0  0  0  0  0
   35.0080   21.5390   32.2930 C   0  0  0  0  0  0  0  0  0  0  0  0
   36.0490   22.2260   31.6510 C   0  0  0  0  0  0  0  0  0  0  0  0
   36.9720   21.4570   30.9290 C   0  0  0  0  0  0  0  0  0  0  0  0
   36.7980   20.1050   30.9010 N   0  0  0  0  0  0  0  0  0  0  0  0
   35.7780   19.4880   31.5350 C   0  0  0  0  0  0  0  0  0  0  0  0
   34.8850   20.2100   32.2310 N   0  0  0  0  0  0  0  0  0  0  0  0
   34.3260   22.2040   32.8370 H   0  0  0  0  0  0  0  0  0  0  0  0
   37.8200   21.8680   30.3900 H   0  0  0  0  0  0  0  0  0  0  0  0
   35.6460   18.4150   31.5080 H   0  0  0  0  0  0  0  0  0  0  0  0
   37.3000   26.0930   35.2630 Cl  0  0  0  0  0  0  0  0  0  0  0  0
   38.6990   26.3840   34.2390 C   0  0  0  0  0  0  0  0  0  0  0  0
   38.6880   26.1080   32.8910 C   0  0  0  0  0  0  0  0  0  0  0  0
   39.8280   26.3650   32.1540 C   0  0  0  0  0  0  0  0  0  0  0  0
   39.7760   26.1300   31.0860 H   0  0  0  0  0  0  0  0  0  0  0  0
   40.9750   26.8830   32.6950 C   0  0  0  0  0  0  0  0  0  0  0  0
   41.8510   27.0720   32.0850 H   0  0  0  0  0  0  0  0  0  0  0  0
   40.9570   27.1500   34.0450 C   0  0  0  0  0  3  0  0  0  0  0  0
   39.8410   26.9140   34.8480 C   0  0  0  0  0  3  0  0  0  0  0  0
  1  6  1  0  0  0  0
  2  3  1  0  0  0  0
  2  1  2  0  0  0  0
  3  4  2  0  0  0  0
  4  5  1  0  0  0  0
  5 20  1  0  0  0  0
  6  5  2  0  0  0  0
  7  2  1  0  0  0  0
  8  3  1  0  0  0  0
  9 15  1  0  0  0  0
 10  1  1  0  0  0  0
 10  9  2  0  0  0  0
 11 10  1  0  0  0  0
 12 11  2  0  0  0  0
 12 13  1  0  0  0  0
 13 14  2  0  0  0  0
 14  9  1  0  0  0  0
 16 11  1  0  0  0  0
 17 13  1  0  0  0  0
 19 26  1  0  0  0  0
 19 18  1  0  0  0  0
 20 19  2  0  0  0  0
 21 23  2  0  0  0  0
 21 20  1  0  0  0  0
 22 21  1  0  0  0  0
 23 25  1  0  0  0  0
 24 23  1  0  0  0  0
 25 26  2  0  0  0  0
M  END
>  <minimizedAffinity>
-5.05020046

$$$$

 OpenBabel03272502123D

 26 28  0  0  0  0  0  0  0  0999 V2000
   36.8560   25.3080   32.6940 C   0  0  0  0  0  0  0  0  0  0  0  0
   36.1020   26.0210   31.7780 C   0  0  0  0  0  0  0  0  0  0  0  0
   35.3080   25.4250   30.7860 C   0  0  0  0  0  0  0  0  0  0  0  0
   35.2990   24.0660   30.7460 N   0  0  0  0  0  0  0  0  0  0  0  0
   36.0310   23.3640   31.6340 C   0  0  0  0  0  0  0  0  0  0  0  0
   36.7700   23.9810   32.5590 N   0  0  0  0  0  0  0  0  0  0  0  0
   36.1120   27.1050   31.8130 H   0  0  0  0  0  0  0  0  0  0  0  0
   34.7400   26.0410   30.0980 H   0  0  0  0  0  0  0  0  0  0  0  0
   37.1810   26.9000   34.6040 C   0  0  0  0  0  0  0  0  0  0  0  0
   37.6530   25.9450   33.6910 C   0  0  0  0  0  0  0  0  0  0  0  0
   39.0100   25.5990   33.7730 C   0  0  0  0  0  0  0  0  0  0  0  0
   39.7710   26.2080   34.7260 N   0  0  0  0  0  0  0  0  0  0  0  0
   39.2710   27.1210   35.5840 C   0  0  0  0  0  0  0  0  0  0  0  0
   37.9740   27.4650   35.5190 N   0  0  0  0  0  0  0  0  0  0  0  0
   36.1150   27.1210   34.4810 H   0  0  0  0  0  0  0  0  0  0  0  0
   39.4960   24.8750   33.1260 H   0  0  0  0  0  0  0  0  0  0  0  0
   39.8810   27.6010   36.3380 H   0  0  0  0  0  0  0  0  0  0  0  0
   38.4120   22.0540   30.2560 Cl  0  0  0  0  0  0  0  0  0  0  0  0
   37.0330   21.2240   30.9630 C   0  0  0  0  0  0  0  0  0  0  0  0
   36.0020   21.9040   31.5660 C   0  0  0  0  0  0  0  0  0  0  0  0
   34.9530   21.1800   32.0990 C   0  0  0  0  0  0  0  0  0  0  0  0
   34.1530   21.7610   32.5700 H   0  0  0  0  0  0  0  0  0  0  0  0
   34.8840   19.8120   32.0580 C   0  0  0  0  0  0  0  0  0  0  0  0
   34.0450   19.2770   32.4870 H   0  0  0  0  0  0  0  0  0  0  0  0
   35.9290   19.1580   31.4470 C   0  0  0  0  0  3  0  0  0  0  0  0
   37.0190   19.8270   30.8900 C   0  0  0  0  0  3  0  0  0  0  0  0
  1 10  1  0  0  0  0
  2  7  1  0  0  0  0
  2  1  2  0  0  0  0
  3  2  1  0  0  0  0
  4  3  2  0  0  0  0
  4  5  1  0  0  0  0
  5  6  2  0  0  0  0
  6  1  1  0  0  0  0
  8  3  1  0  0  0  0
  9 14  1  0  0  0  0
 10 11  1  0  0  0  0
 10  9  2  0  0  0  0
 11 12  2  0  0  0  0
 12 13  1  0  0  0  0
 13 17  1  0  0  0  0
 14 13  2  0  0  0  0
 15  9  1  0  0  0  0
 16 11  1  0  0  0  0
 18 19  1  0  0  0  0
 19 20  1  0  0  0  0
 20  5  1  0  0  0  0
 20 21  2  0  0  0  0
 21 22  1  0  0  0  0
 23 21  1  0  0  0  0
 23 24  1  0  0  0  0
 25 23  2  0  0  0  0
 26 19  2  0  0  0  0
 26 25  1  0  0  0  0
M  END
>  <minimizedAffinity>
-5.0426631

$$$$
