
 OpenBabel03272509543D

 43 46  0  0  0  0  0  0  0  0999 V2000
   34.2290   29.4020   48.1080 C   0  0  0  0  0  0  0  0  0  0  0  0
   35.0960   29.6070   47.4480 H   0  0  0  0  0  0  0  0  0  0  0  0
   33.3250   29.7560   47.5410 H   0  0  0  0  0  0  0  0  0  0  0  0
   34.0910   27.9590   48.5000 C   0  0  0  0  0  0  0  0  0  0  0  0
   34.7480   27.3800   47.7920 H   0  0  0  0  0  0  0  0  0  0  0  0
   34.4510   27.7200   49.5070 H   0  0  0  0  0  0  0  0  0  0  0  0
   32.7230   27.4390   48.2680 C   0  0  0  0  0  0  0  0  0  0  0  0
   32.5210   26.5700   47.2120 C   0  0  0  0  0  0  0  0  0  0  0  0
   31.3070   26.0330   46.9110 C   0  0  0  0  0  0  0  0  0  0  0  0
   30.2560   26.3600   47.6680 N   0  0  0  0  0  0  0  0  0  0  0  0
   30.4500   27.2110   48.7030 C   0  0  0  0  0  0  0  0  0  0  0  0
   31.6420   27.7640   49.0330 N   0  0  0  0  0  0  0  0  0  0  0  0
   33.3520   26.2680   46.5580 H   0  0  0  0  0  0  0  0  0  0  0  0
   31.1640   25.3530   46.0800 H   0  0  0  0  0  0  0  0  0  0  0  0
   28.6170   29.3720   47.5680 Cl  0  0  0  0  0  0  0  0  0  0  0  0
   28.3760   28.5160   49.0760 C   0  0  0  0  0  0  0  0  0  0  0  0
   29.2750   27.5420   49.5070 C   0  0  0  0  0  0  0  0  0  0  0  0
   29.0530   26.8880   50.7000 C   0  0  0  0  0  0  0  0  0  0  0  0
   29.7430   26.1290   51.0490 H   0  0  0  0  0  0  0  0  0  0  0  0
   27.9410   27.1850   51.4830 C   0  0  0  0  0  0  0  0  0  0  0  0
   27.8230   26.6360   52.4090 H   0  0  0  0  0  0  0  0  0  0  0  0
   27.0260   28.1390   51.0970 C   0  0  0  0  0  0  0  0  0  0  0  0
   27.3010   28.7510   49.9090 C   0  0  0  0  0  0  0  0  0  0  0  0
   34.3970   30.2130   49.2680 O   0  0  0  0  0  0  0  0  0  0  0  0
   37.3390   30.0350   51.3530 C   0  0  0  0  0  0  0  0  0  0  0  0
   38.2520   30.7560   50.5540 C   0  0  0  0  0  0  0  0  0  0  0  0
   37.8040   31.2640   49.3380 C   0  0  0  0  0  0  0  0  0  0  0  0
   36.4840   31.0090   49.0290 N   0  0  0  0  0  0  0  0  0  0  0  0
   35.6480   30.3300   49.7940 C   0  0  0  0  0  0  0  0  0  0  0  0
   36.0830   29.8340   50.9790 N   0  0  0  0  0  0  0  0  0  0  0  0
   37.7830   29.6880   52.2630 H   0  0  0  0  0  0  0  0  0  0  0  0
   39.2720   30.9780   50.7480 H   0  0  0  0  0  0  0  0  0  0  0  0
   38.9320   33.9020   49.6910 F   0  0  0  0  0  0  0  0  0  0  0  0
   39.1130   33.2580   48.5370 C   0  0  0  0  0  0  0  0  0  0  0  0
   38.5730   32.0180   48.3940 C   0  0  0  0  0  0  0  0  0  0  0  0
   38.8260   31.4510   47.1550 C   0  0  0  0  0  0  0  0  0  0  0  0
   39.5520   32.0770   46.1670 C   0  0  0  0  0  0  0  0  0  0  0  0
   40.0760   33.3310   46.3610 C   0  0  0  0  0  0  0  0  0  0  0  0
   39.8460   33.9310   47.5840 C   0  0  0  0  0  0  0  0  0  0  0  0
   38.4770   30.4690   46.8590 H   0  0  0  0  0  0  0  0  0  0  0  0
   39.7540   31.6410   45.1970 H   0  0  0  0  0  0  0  0  0  0  0  0
   40.6450   33.8470   45.6160 H   0  0  0  0  0  0  0  0  0  0  0  0
   40.2490   34.9180   47.7600 H   0  0  0  0  0  0  0  0  0  0  0  0
  1  4  1  0  0  0  0
  1 24  1  0  0  0  0
  2  1  1  0  0  0  0
  3  1  1  0  0  0  0
  4  6  1  0  0  0  0
  5  4  1  0  0  0  0
  7  4  1  0  0  0  0
  7 12  1  0  0  0  0
  8  7  2  0  0  0  0
  9  8  1  0  0  0  0
  9 10  2  0  0  0  0
 10 11  1  0  0  0  0
 11 12  2  0  0  0  0
 11 17  1  0  0  0  0
 13  8  1  0  0  0  0
 14  9  1  0  0  0  0
 15 16  1  0  0  0  0
 16 17  2  0  0  0  0
 16 23  1  0  0  0  0
 17 18  1  0  0  0  0
 18 19  1  0  0  0  0
 18 20  2  0  0  0  0
 20 21  1  0  0  0  0
 22 20  1  0  0  0  0
 23 22  2  0  0  0  0
 24 29  1  0  0  0  0
 25 31  1  0  0  0  0
 26 32  1  0  0  0  0
 26 25  2  0  0  0  0
 27 26  1  0  0  0  0
 28 27  2  0  0  0  0
 28 29  1  0  0  0  0
 29 30  2  0  0  0  0
 30 25  1  0  0  0  0
 34 33  1  0  0  0  0
 35 34  1  0  0  0  0
 35 27  1  0  0  0  0
 36 35  2  0  0  0  0
 37 38  2  0  0  0  0
 37 36  1  0  0  0  0
 38 39  1  0  0  0  0
 39 43  1  0  0  0  0
 39 34  2  0  0  0  0
 40 36  1  0  0  0  0
 41 37  1  0  0  0  0
 42 38  1  0  0  0  0
M  END
>  <minimizedAffinity>
-7.99996901

>  <minimizedRMSD>
3.29821491

$$$$
