REMARK  Name = 
REMARK  2 active torsions:
REMARK  status: ('A' for Active; 'I' for Inactive)
REMARK    1  A    between atoms: C_5  and  C_7
REMARK    2  A    between atoms: C_12  and  C_22
REMARK                            x       y       z     vdW  Elec       q    Type
REMARK                         _______ _______ _______ _____ _____    ______ ____
ROOT
ATOM      1  C   UNL     1      36.102  30.137  48.598  0.00  0.00    +0.000 A 
ATOM      2  C   UNL     1      35.289  29.950  47.515  0.00  0.00    +0.000 A 
ATOM      3  C   UNL     1      34.297  28.980  47.510  0.00  0.00    +0.000 A 
ATOM      4  C   UNL     1      34.145  28.195  48.636  0.00  0.00    +0.000 A 
ATOM      5  C   UNL     1      34.955  28.361  49.751  0.00  0.00    +0.000 A 
ATOM      6  C   UNL     1      35.933  29.339  49.717  0.00  0.00    +0.000 A 
ATOM      7  H   UNL     1      35.405  30.565  46.627  0.00  0.00    +0.000 HD
ATOM      8  H   UNL     1      33.680  28.876  46.623  0.00  0.00    +0.000 HD
ATOM      9  H   UNL     1      33.359  27.450  48.590  0.00  0.00    +0.000 HD
ATOM     10  H   UNL     1      34.793  27.714  50.615  0.00  0.00    +0.000 HD
ENDROOT
BRANCH   1  15
ATOM     11  C   UNL     1      38.007  33.103  49.486  0.00  0.00    +0.000 A 
ATOM     12  C   UNL     1      38.968  33.219  48.483  0.00  0.00    +0.000 A 
ATOM     13  C   UNL     1      38.950  32.228  47.464  0.00  0.00    +0.000 A 
ATOM     14  N   UNL     1      38.014  31.235  47.516  0.00  0.00    +0.000 NA
ATOM     15  C   UNL     1      37.110  31.175  48.511  0.00  0.00    +0.000 A 
ATOM     16  N   UNL     1      37.117  32.113  49.487  0.00  0.00    +0.000 NA
ATOM     17  H   UNL     1      38.049  33.872  50.244  0.00  0.00    +0.000 HD
ATOM     18  H   UNL     1      39.714  33.974  48.404  0.00  0.00    +0.000 HD
ATOM     19  H   UNL     1      39.641  32.197  46.622  0.00  0.00    +0.000 HD
ENDBRANCH   1  15
BRANCH   6  22
ATOM     20 CL   UNL     1      35.264  31.793  51.210  0.00  0.00    +0.000 Cl
ATOM     21  C   UNL     1      36.546  30.660  51.629  0.00  0.00    +0.000 A 
ATOM     22  C   UNL     1      36.797  29.532  50.877  0.00  0.00    +0.000 A 
ATOM     23  C   UNL     1      37.816  28.654  51.231  0.00  0.00    +0.000 A 
ATOM     24  H   UNL     1      37.960  27.796  50.605  0.00  0.00    +0.000 HD
ATOM     25  C   UNL     1      38.558  28.947  52.343  0.00  0.00    +0.000 A 
ATOM     26  H   UNL     1      39.356  28.287  52.645  0.00  0.00    +0.000 HD
ATOM     27  C   UNL     1      38.337  30.051  53.106  0.00  0.00    +0.000 A 
ATOM     28  C   UNL     1      37.318  30.922  52.746  0.00  0.00    +0.000 A 
ENDBRANCH   6  22
TORSDOF 2
