REMARK  Name = 
REMARK  4 active torsions:
REMARK  status: ('A' for Active; 'I' for Inactive)
REMARK    1  A    between atoms: C_1  and  C_15
REMARK    2  A    between atoms: C_4  and  C_7
REMARK    3  A    between atoms: C_15  and  C_21
REMARK    4  A    between atoms: C_19  and  C_34
REMARK                            x       y       z     vdW  Elec       q    Type
REMARK                         _______ _______ _______ _____ _____    ______ ____
ROOT
ATOM      1  C   UNL     1      35.546  29.696  49.809  0.00  0.00    +0.000 A 
ATOM      2  C   UNL     1      36.538  29.533  50.754  0.00  0.00    +0.000 A 
ATOM      3  C   UNL     1      37.667  30.080  50.145  0.00  0.00    +0.000 A 
ATOM      4  C   UNL     1      37.321  30.538  48.891  0.00  0.00    +0.000 A 
ATOM      5  O   UNL     1      36.042  30.288  48.730  0.00  0.00    +0.000 OA
ATOM      6  H   UNL     1      36.532  29.103  51.740  0.00  0.00    +0.000 HD
ATOM      7  H   UNL     1      38.685  30.167  50.528  0.00  0.00    +0.000 HD
ENDROOT
BRANCH   4   9
ATOM      8  C   UNL     1      38.621  32.465  48.133  0.00  0.00    +0.000 A 
ATOM      9  C   UNL     1      38.193  31.175  47.926  0.00  0.00    +0.000 A 
ATOM     10  C   UNL     1      38.584  30.455  46.793  0.00  0.00    +0.000 A 
ATOM     11  C   UNL     1      39.416  31.034  45.853  0.00  0.00    +0.000 A 
ATOM     12  N   UNL     1      39.959  30.620  44.688  0.00  0.00    +0.000 N 
ATOM     13  N   UNL     1      40.686  31.622  44.211  0.00  0.00    +0.000 NA
ATOM     14  C   UNL     1      40.617  32.670  45.053  0.00  0.00    +0.000 A 
ATOM     15  C   UNL     1      39.810  32.326  46.115  0.00  0.00    +0.000 A 
ATOM     16  C   UNL     1      39.468  33.092  47.202  0.00  0.00    +0.000 A 
ATOM     17  H   UNL     1      38.312  33.022  49.020  0.00  0.00    +0.000 HD
ATOM     18  H   UNL     1      38.272  29.432  46.585  0.00  0.00    +0.000 HD
ATOM     19  H   UNL     1      39.788  29.667  44.300  0.00  0.00    +0.000 HD
ATOM     20  H   UNL     1      41.126  33.635  44.903  0.00  0.00    +0.000 HD
ATOM     21  H   UNL     1      39.827  34.104  47.327  0.00  0.00    +0.000 HD
ENDBRANCH   4   9
BRANCH   1  22
ATOM     22  C   UNL     1      34.173  29.274  49.989  0.00  0.00    +0.000 C 
ATOM     23  O   UNL     1      33.503  29.807  50.903  0.00  0.00    +0.000 OA
BRANCH  22  28
ATOM     24  C   UNL     1      31.692  27.160  48.360  0.00  0.00    +0.000 A 
ATOM     25  C   UNL     1      32.459  26.369  47.524  0.00  0.00    +0.000 A 
ATOM     26  C   UNL     1      33.830  26.538  47.498  0.00  0.00    +0.000 A 
ATOM     27  N   UNL     1      34.355  27.482  48.303  0.00  0.00    +0.000 NA
ATOM     28  C   UNL     1      33.596  28.248  49.115  0.00  0.00    +0.000 A 
ATOM     29  N   UNL     1      32.268  28.076  49.133  0.00  0.00    +0.000 NA
ATOM     30  H   UNL     1      30.607  27.072  48.423  0.00  0.00    +0.000 HD
ATOM     31  H   UNL     1      31.972  25.637  46.910  0.00  0.00    +0.000 HD
BRANCH  26  34
ATOM     32 CL   UNL     1      34.349  27.677  44.816  0.00  0.00    +0.000 Cl
ATOM     33  C   UNL     1      35.003  26.177  45.378  0.00  0.00    +0.000 A 
ATOM     34  C   UNL     1      34.698  25.738  46.644  0.00  0.00    +0.000 A 
ATOM     35  C   UNL     1      35.262  24.535  47.010  0.00  0.00    +0.000 A 
ATOM     36  H   UNL     1      35.059  24.139  47.994  0.00  0.00    +0.000 HD
ATOM     37  C   UNL     1      36.078  23.807  46.179  0.00  0.00    +0.000 A 
ATOM     38  H   UNL     1      36.512  22.857  46.496  0.00  0.00    +0.000 HD
ATOM     39  C   UNL     1      36.361  24.281  44.916  0.00  0.00    +0.000 A 
ATOM     40  C   UNL     1      35.822  25.477  44.501  0.00  0.00    +0.000 A 
ENDBRANCH  26  34
ENDBRANCH  22  28
ENDBRANCH   1  22
TORSDOF 4
