
 OpenBabel03272501323D

 27 29  0  0  1  0  0  0  0  0999 V2000
   37.8040   31.5370   47.1560 C   0  0  2  0  0  0  0  0  0  0  0  0
   39.3260   31.1990   46.9190 C   0  0  0  0  0  0  0  0  0  0  0  0
   38.5930   32.3380   46.2320 C   0  0  1  0  0  0  0  0  0  0  0  0
   37.2950   30.5520   46.9800 H   0  0  0  0  0  0  0  0  0  0  0  0
   39.5760   30.3890   46.2440 H   0  0  0  0  0  0  0  0  0  0  0  0
   40.0250   31.3720   47.7290 H   0  0  0  0  0  0  0  0  0  0  0  0
   38.9240   33.3280   46.6740 H   0  0  0  0  0  0  0  0  0  0  0  0
   36.3440   30.7220   44.8410 Cl  0  0  0  0  0  0  0  0  0  0  0  0
   37.4950   31.6650   43.9650 C   0  0  0  0  0  0  0  0  0  0  0  0
   38.4160   32.3130   44.7610 C   0  0  0  0  0  0  0  0  0  0  0  0
   39.3810   33.1000   44.1340 C   0  0  0  0  0  0  0  0  0  0  0  0
   40.1760   33.6760   44.6220 H   0  0  0  0  0  0  0  0  0  0  0  0
   39.4210   33.2300   42.7510 C   0  0  0  0  0  0  0  0  0  0  0  0
   40.1610   33.8360   42.2290 H   0  0  0  0  0  0  0  0  0  0  0  0
   38.5090   32.5850   41.9730 C   0  0  0  0  0  0  0  0  0  0  0  0
   37.5670   31.8170   42.5960 C   0  0  0  0  0  0  0  0  0  0  0  0
   37.6360   31.9730   48.5790 C   0  0  2  0  0  0  0  0  0  0  0  0
   38.0600   33.1410   48.9080 O   0  0  0  0  0  0  0  0  0  0  0  0
   37.1120   29.8180   51.5950 C   0  0  0  0  0  0  0  0  0  0  0  0
   37.6660   30.6920   50.6750 C   0  0  0  0  0  0  0  0  0  0  0  0
   37.0180   31.0800   49.5270 C   0  0  0  0  0  0  0  0  0  0  0  0
   35.8050   30.5590   49.3430 N   0  0  0  0  0  0  0  0  0  0  0  0
   35.2510   29.7050   50.2320 C   0  0  0  0  0  0  0  0  0  0  0  0
   35.8830   29.3270   51.3520 N   0  0  0  0  0  0  0  0  0  0  0  0
   37.6740   29.5520   52.4820 H   0  0  0  0  0  0  0  0  0  0  0  0
   38.6610   31.0690   50.9040 H   0  0  0  0  0  0  0  0  0  0  0  0
   34.2480   29.3660   49.9330 H   0  0  0  0  0  0  0  0  0  0  0  0
  1  4  1  6  0  0  0
  1 17  1  0  0  0  0
  2  1  1  0  0  0  0
  2  6  1  0  0  0  0
  3  7  1  1  0  0  0
  3  2  1  0  0  0  0
  3  1  1  0  0  0  0
  5  2  1  0  0  0  0
  9 10  1  0  0  0  0
  9  8  1  0  0  0  0
 10  3  1  0  0  0  0
 11 12  1  0  0  0  0
 11 10  2  0  0  0  0
 13 11  1  0  0  0  0
 14 13  1  0  0  0  0
 15 16  1  0  0  0  0
 15 13  2  0  0  0  0
 16  9  2  0  0  0  0
 17 18  1  1  0  0  0
 17 21  1  0  0  0  0
 19 25  1  0  0  0  0
 20 26  1  0  0  0  0
 20 19  2  0  0  0  0
 21 20  1  0  0  0  0
 22 21  2  0  0  0  0
 22 23  1  0  0  0  0
 23 24  2  0  0  0  0
 24 19  1  0  0  0  0
 27 23  1  0  0  0  0
M  END
>  <minimizedAffinity>
-5.33227348

>  <minimizedRMSD>
1.25296485

$$$$
