
 OpenBabel03272510333D

 28 30  0  0  0  0  0  0  0  0999 V2000
   36.0400   30.1820   47.1810 C   0  0  0  0  0  0  0  0  0  0  0  0
   35.4260   30.1720   45.9600 C   0  0  0  0  0  0  0  0  0  0  0  0
   34.3400   29.3480   45.6990 C   0  0  0  0  0  0  0  0  0  0  0  0
   33.8850   28.5260   46.7120 C   0  0  0  0  0  0  0  0  0  0  0  0
   34.4880   28.5140   47.9620 C   0  0  0  0  0  0  0  0  0  0  0  0
   35.5680   29.3500   48.1830 C   0  0  0  0  0  0  0  0  0  0  0  0
   35.7800   30.8160   45.1600 H   0  0  0  0  0  0  0  0  0  0  0  0
   33.8910   29.3820   44.7120 H   0  0  0  0  0  0  0  0  0  0  0  0
   33.0360   27.9000   46.4660 H   0  0  0  0  0  0  0  0  0  0  0  0
   34.0890   27.8460   48.7270 H   0  0  0  0  0  0  0  0  0  0  0  0
   38.0900   32.8150   48.6230 C   0  0  0  0  0  0  0  0  0  0  0  0
   39.2340   32.8460   47.8290 C   0  0  0  0  0  0  0  0  0  0  0  0
   39.2920   31.9170   46.7550 C   0  0  0  0  0  0  0  0  0  0  0  0
   38.2480   31.0590   46.5590 N   0  0  0  0  0  0  0  0  0  0  0  0
   37.1670   31.0760   47.3600 C   0  0  0  0  0  0  0  0  0  0  0  0
   37.1000   31.9570   48.3860 N   0  0  0  0  0  0  0  0  0  0  0  0
   38.0780   33.5340   49.4300 H   0  0  0  0  0  0  0  0  0  0  0  0
   40.0700   33.4960   47.9460 H   0  0  0  0  0  0  0  0  0  0  0  0
   40.1250   31.8320   46.0570 H   0  0  0  0  0  0  0  0  0  0  0  0
   33.6520   29.7880   50.3810 Cl  0  0  0  0  0  0  0  0  0  0  0  0
   35.3870   29.5550   50.5710 C   0  0  0  0  0  0  0  0  0  0  0  0
   36.2180   29.3540   49.4890 C   0  0  0  0  0  0  0  0  0  0  0  0
   37.5850   29.1720   49.6680 C   0  0  0  0  0  0  0  0  0  0  0  0
   38.1770   29.0210   48.7860 H   0  0  0  0  0  0  0  0  0  0  0  0
   38.0750   29.1980   50.9460 C   0  0  0  0  0  0  0  0  0  0  0  0
   39.1310   29.0590   51.1200 H   0  0  0  0  0  0  0  0  0  0  0  0
   37.2820   29.3930   52.0340 C   0  0  0  0  0  3  0  0  0  0  0  0
   35.9190   29.5740   51.8470 C   0  0  0  0  0  3  0  0  0  0  0  0
  1 15  1  0  0  0  0
  1  6  1  0  0  0  0
  2  1  2  0  0  0  0
  3  2  1  0  0  0  0
  3  4  2  0  0  0  0
  4  5  1  0  0  0  0
  5  6  2  0  0  0  0
  5 10  1  0  0  0  0
  6 22  1  0  0  0  0
  7  2  1  0  0  0  0
  8  3  1  0  0  0  0
  9  4  1  0  0  0  0
 11 17  1  0  0  0  0
 12 18  1  0  0  0  0
 12 11  2  0  0  0  0
 13 12  1  0  0  0  0
 14 13  2  0  0  0  0
 14 15  1  0  0  0  0
 15 16  2  0  0  0  0
 16 11  1  0  0  0  0
 19 13  1  0  0  0  0
 20 21  1  0  0  0  0
 21 28  1  0  0  0  0
 22 23  1  0  0  0  0
 22 21  2  0  0  0  0
 23 25  2  0  0  0  0
 24 23  1  0  0  0  0
 25 26  1  0  0  0  0
 25 27  1  0  0  0  0
 28 27  2  0  0  0  0
M  END
>  <minimizedAffinity>
-4.84511566

>  <minimizedRMSD>
1.53153527

$$$$
