
 OpenBabel03272507113D

 27 29  0  0  0  0  0  0  0  0999 V2000
   36.6420   28.6610   32.6350 C   0  0  0  0  0  0  0  0  0  0  0  0
   36.3570   29.6940   31.7810 C   0  0  0  0  0  0  0  0  0  0  0  0
   35.6250   30.6350   32.5170 C   0  0  0  0  0  0  0  0  0  0  0  0
   35.5120   30.1030   33.7870 C   0  0  0  0  0  0  0  0  0  0  0  0
   36.1250   28.9520   33.7960 O   0  0  0  0  0  0  0  0  0  0  0  0
   36.5740   29.8990   30.7380 H   0  0  0  0  0  0  0  0  0  0  0  0
   35.1820   31.5910   32.3000 H   0  0  0  0  0  0  0  0  0  0  0  0
   32.6160   29.2810   34.0980 Cl  0  0  0  0  0  0  0  0  0  0  0  0
   33.5220   30.3460   35.1670 C   0  0  0  0  0  0  0  0  0  0  0  0
   34.8440   30.6730   34.9550 C   0  0  0  0  0  0  0  0  0  0  0  0
   35.5460   31.5120   35.8040 C   0  0  0  0  0  0  0  0  0  0  0  0
   36.5780   31.7620   35.6320 H   0  0  0  0  0  0  0  0  0  0  0  0
   34.8770   32.0390   36.9090 C   0  0  0  0  0  0  0  0  0  0  0  0
   35.3470   32.7000   37.6210 H   0  0  0  0  0  0  0  0  0  0  0  0
   33.5550   31.6900   37.0920 C   0  0  0  0  0  3  0  0  0  0  0  0
   32.8300   30.8540   36.2600 C   0  0  0  0  0  3  0  0  0  0  0  0
   37.3950   27.5000   32.2060 C   0  0  0  0  0  0  0  0  0  0  0  0
   38.6470   27.5840   32.1460 O   0  0  0  0  0  0  0  0  0  0  0  0
   36.6550   26.3050   31.8710 C   0  0  0  0  0  0  0  0  0  0  0  0
   37.1700   25.0930   32.3100 C   0  0  0  0  0  0  0  0  0  0  0  0
   36.4700   23.9240   31.9960 C   0  0  0  0  0  0  0  0  0  0  0  0
   35.3210   24.0490   31.2750 N   0  0  0  0  0  0  0  0  0  0  0  0
   34.8390   25.2270   30.8600 C   0  0  0  0  0  0  0  0  0  0  0  0
   35.5090   26.3450   31.1600 N   0  0  0  0  0  0  0  0  0  0  0  0
   38.0850   25.0390   32.8790 H   0  0  0  0  0  0  0  0  0  0  0  0
   36.8160   22.9440   32.3080 H   0  0  0  0  0  0  0  0  0  0  0  0
   33.9120   25.2340   30.2870 H   0  0  0  0  0  0  0  0  0  0  0  0
  1  5  1  0  0  0  0
  2  3  1  0  0  0  0
  2  1  2  0  0  0  0
  3  4  2  0  0  0  0
  4  5  1  0  0  0  0
  4 10  1  0  0  0  0
  6  2  1  0  0  0  0
  7  3  1  0  0  0  0
  8  9  1  0  0  0  0
  9 16  1  0  0  0  0
 10  9  2  0  0  0  0
 10 11  1  0  0  0  0
 11 13  2  0  0  0  0
 12 11  1  0  0  0  0
 13 15  1  0  0  0  0
 13 14  1  0  0  0  0
 16 15  2  0  0  0  0
 17  1  1  0  0  0  0
 18 17  2  0  0  0  0
 19 17  1  0  0  0  0
 19 20  1  0  0  0  0
 20 25  1  0  0  0  0
 21 26  1  0  0  0  0
 21 20  2  0  0  0  0
 22 21  1  0  0  0  0
 23 24  1  0  0  0  0
 23 22  2  0  0  0  0
 24 19  2  0  0  0  0
 27 23  1  0  0  0  0
M  END
>  <minimizedAffinity>
-5.36527729

$$$$

 OpenBabel03272507113D

 27 29  0  0  0  0  0  0  0  0999 V2000
   38.0390   25.4070   35.8400 C   0  0  0  0  0  0  0  0  0  0  0  0
   38.4290   26.5760   36.4380 C   0  0  0  0  0  0  0  0  0  0  0  0
   38.2470   27.5930   35.4910 C   0  0  0  0  0  0  0  0  0  0  0  0
   37.7510   26.9650   34.3660 C   0  0  0  0  0  0  0  0  0  0  0  0
   37.6510   25.6920   34.6280 O   0  0  0  0  0  0  0  0  0  0  0  0
   38.8170   26.8360   37.4180 H   0  0  0  0  0  0  0  0  0  0  0  0
   38.4040   28.6570   35.4800 H   0  0  0  0  0  0  0  0  0  0  0  0
   39.8930   26.7670   32.2360 Cl  0  0  0  0  0  0  0  0  0  0  0  0
   38.3070   27.5080   32.0590 C   0  0  0  0  0  0  0  0  0  0  0  0
   37.3840   27.5580   33.0820 C   0  0  0  0  0  0  0  0  0  0  0  0
   36.1390   28.1440   32.9290 C   0  0  0  0  0  0  0  0  0  0  0  0
   35.4230   28.1780   33.7320 H   0  0  0  0  0  0  0  0  0  0  0  0
   35.8200   28.7000   31.6900 C   0  0  0  0  0  0  0  0  0  0  0  0
   34.8740   29.1760   31.4850 H   0  0  0  0  0  0  0  0  0  0  0  0
   36.7660   28.6320   30.6880 C   0  0  0  0  0  3  0  0  0  0  0  0
   38.0180   28.0530   30.8130 C   0  0  0  0  0  3  0  0  0  0  0  0
   38.0940   24.1370   36.5350 C   0  0  0  0  0  0  0  0  0  0  0  0
   37.1150   23.7970   37.2460 O   0  0  0  0  0  0  0  0  0  0  0  0
   39.2820   23.3300   36.3680 C   0  0  0  0  0  0  0  0  0  0  0  0
   39.8480   22.7850   37.5120 C   0  0  0  0  0  0  0  0  0  0  0  0
   40.9970   22.0020   37.3730 C   0  0  0  0  0  0  0  0  0  0  0  0
   41.4930   21.8220   36.1170 N   0  0  0  0  0  0  0  0  0  0  0  0
   40.9330   22.3560   35.0240 C   0  0  0  0  0  0  0  0  0  0  0  0
   39.8340   23.1060   35.1580 N   0  0  0  0  0  0  0  0  0  0  0  0
   39.4220   22.9530   38.4900 H   0  0  0  0  0  0  0  0  0  0  0  0
   41.4900   21.5460   38.2260 H   0  0  0  0  0  0  0  0  0  0  0  0
   41.3970   22.1610   34.0570 H   0  0  0  0  0  0  0  0  0  0  0  0
  1  2  2  0  0  0  0
  1 17  1  0  0  0  0
  2  6  1  0  0  0  0
  3  2  1  0  0  0  0
  4  5  1  0  0  0  0
  4  3  2  0  0  0  0
  5  1  1  0  0  0  0
  7  3  1  0  0  0  0
  9  8  1  0  0  0  0
  9 10  1  0  0  0  0
 10  4  1  0  0  0  0
 11 10  2  0  0  0  0
 11 12  1  0  0  0  0
 13 11  1  0  0  0  0
 14 13  1  0  0  0  0
 15 16  1  0  0  0  0
 15 13  2  0  0  0  0
 16  9  2  0  0  0  0
 17 18  2  0  0  0  0
 19 17  1  0  0  0  0
 19 20  1  0  0  0  0
 20 25  1  0  0  0  0
 21 20  2  0  0  0  0
 21 26  1  0  0  0  0
 22 21  1  0  0  0  0
 23 24  1  0  0  0  0
 23 22  2  0  0  0  0
 24 19  2  0  0  0  0
 27 23  1  0  0  0  0
M  END
>  <minimizedAffinity>
-5.33963966

$$$$

 OpenBabel03272507113D

 27 29  0  0  0  0  0  0  0  0999 V2000
   38.0650   25.3960   35.7910 C   0  0  0  0  0  0  0  0  0  0  0  0
   38.5190   26.5620   36.3500 C   0  0  0  0  0  0  0  0  0  0  0  0
   38.3750   27.5580   35.3740 C   0  0  0  0  0  0  0  0  0  0  0  0
   37.8340   26.9220   34.2740 C   0  0  0  0  0  0  0  0  0  0  0  0
   37.6750   25.6630   34.5750 O   0  0  0  0  0  0  0  0  0  0  0  0
   38.9310   26.8310   37.3160 H   0  0  0  0  0  0  0  0  0  0  0  0
   38.5830   28.6120   35.3290 H   0  0  0  0  0  0  0  0  0  0  0  0
   35.5010   28.8480   34.3490 Cl  0  0  0  0  0  0  0  0  0  0  0  0
   36.4270   28.3820   32.9270 C   0  0  0  0  0  0  0  0  0  0  0  0
   37.4800   27.4940   32.9770 C   0  0  0  0  0  0  0  0  0  0  0  0
   38.2020   27.1350   31.8510 C   0  0  0  0  0  0  0  0  0  0  0  0
   39.0230   26.4420   31.8970 H   0  0  0  0  0  0  0  0  0  0  0  0
   37.8370   27.7000   30.6280 C   0  0  0  0  0  0  0  0  0  0  0  0
   38.3450   27.4760   29.7020 H   0  0  0  0  0  0  0  0  0  0  0  0
   36.7790   28.5850   30.6140 C   0  0  0  0  0  3  0  0  0  0  0  0
   36.0410   28.9610   31.7240 C   0  0  0  0  0  3  0  0  0  0  0  0
   38.0660   24.1460   36.5240 C   0  0  0  0  0  0  0  0  0  0  0  0
   37.0440   23.8340   37.1830 O   0  0  0  0  0  0  0  0  0  0  0  0
   39.2550   23.3260   36.4510 C   0  0  0  0  0  0  0  0  0  0  0  0
   39.8200   23.1340   35.1990 C   0  0  0  0  0  0  0  0  0  0  0  0
   40.9700   22.3440   35.1050 C   0  0  0  0  0  0  0  0  0  0  0  0
   41.4650   21.8090   36.2560 N   0  0  0  0  0  0  0  0  0  0  0  0
   40.9060   22.0060   37.4570 C   0  0  0  0  0  0  0  0  0  0  0  0
   39.8060   22.7610   37.5450 N   0  0  0  0  0  0  0  0  0  0  0  0
   39.3950   23.5780   34.3110 H   0  0  0  0  0  0  0  0  0  0  0  0
   41.4630   22.1530   34.1580 H   0  0  0  0  0  0  0  0  0  0  0  0
   41.3680   21.5380   38.3260 H   0  0  0  0  0  0  0  0  0  0  0  0
  1  2  2  0  0  0  0
  1 17  1  0  0  0  0
  2  6  1  0  0  0  0
  3  2  1  0  0  0  0
  4  5  1  0  0  0  0
  4  3  2  0  0  0  0
  5  1  1  0  0  0  0
  7  3  1  0  0  0  0
  9 10  1  0  0  0  0
  9  8  1  0  0  0  0
 10  4  1  0  0  0  0
 11 12  1  0  0  0  0
 11 10  2  0  0  0  0
 13 11  1  0  0  0  0
 14 13  1  0  0  0  0
 15 13  2  0  0  0  0
 15 16  1  0  0  0  0
 16  9  2  0  0  0  0
 17 18  2  0  0  0  0
 19 17  1  0  0  0  0
 19 24  1  0  0  0  0
 20 19  2  0  0  0  0
 21 20  1  0  0  0  0
 21 22  2  0  0  0  0
 22 23  1  0  0  0  0
 23 24  2  0  0  0  0
 23 27  1  0  0  0  0
 25 20  1  0  0  0  0
 26 21  1  0  0  0  0
M  END
>  <minimizedAffinity>
-5.32176113

$$$$

 OpenBabel03272507113D

 27 29  0  0  0  0  0  0  0  0999 V2000
   36.3050   25.9960   31.9650 C   0  0  0  0  0  0  0  0  0  0  0  0
   35.3090   25.9720   31.0250 C   0  0  0  0  0  0  0  0  0  0  0  0
   35.0490   24.6230   30.7460 C   0  0  0  0  0  0  0  0  0  0  0  0
   35.9170   23.9070   31.5480 C   0  0  0  0  0  0  0  0  0  0  0  0
   36.6240   24.7600   32.2360 O   0  0  0  0  0  0  0  0  0  0  0  0
   34.7370   26.7330   30.5050 H   0  0  0  0  0  0  0  0  0  0  0  0
   34.3730   24.0990   30.0960 H   0  0  0  0  0  0  0  0  0  0  0  0
   38.4210   22.8090   30.2490 Cl  0  0  0  0  0  0  0  0  0  0  0  0
   37.1850   21.8810   31.0890 C   0  0  0  0  0  0  0  0  0  0  0  0
   36.0690   22.4580   31.6560 C   0  0  0  0  0  0  0  0  0  0  0  0
   35.1030   21.7160   32.3140 C   0  0  0  0  0  0  0  0  0  0  0  0
   34.2350   22.1740   32.7540 H   0  0  0  0  0  0  0  0  0  0  0  0
   35.2790   20.3340   32.3980 C   0  0  0  0  0  0  0  0  0  0  0  0
   34.5760   19.6810   32.8930 H   0  0  0  0  0  0  0  0  0  0  0  0
   36.4070   19.7890   31.8210 C   0  0  0  0  0  3  0  0  0  0  0  0
   37.3880   20.5070   31.1570 C   0  0  0  0  0  3  0  0  0  0  0  0
   36.8310   27.2380   32.4910 C   0  0  0  0  0  0  0  0  0  0  0  0
   36.3990   28.3210   32.0220 O   0  0  0  0  0  0  0  0  0  0  0  0
   37.8280   27.1580   33.5340 C   0  0  0  0  0  0  0  0  0  0  0  0
   37.3850   27.2380   34.8470 C   0  0  0  0  0  0  0  0  0  0  0  0
   38.3330   27.1630   35.8720 C   0  0  0  0  0  0  0  0  0  0  0  0
   39.6390   27.0160   35.5160 N   0  0  0  0  0  0  0  0  0  0  0  0
   40.0490   26.9400   34.2430 C   0  0  0  0  0  0  0  0  0  0  0  0
   39.1410   27.0130   33.2630 N   0  0  0  0  0  0  0  0  0  0  0  0
   36.3380   27.3550   35.0860 H   0  0  0  0  0  0  0  0  0  0  0  0
   38.0550   27.2190   36.9190 H   0  0  0  0  0  0  0  0  0  0  0  0
   41.1150   26.8230   34.0490 H   0  0  0  0  0  0  0  0  0  0  0  0
  1  5  1  0  0  0  0
  1 17  1  0  0  0  0
  2  1  2  0  0  0  0
  3  2  1  0  0  0  0
  3  4  2  0  0  0  0
  4 10  1  0  0  0  0
  4  5  1  0  0  0  0
  6  2  1  0  0  0  0
  7  3  1  0  0  0  0
  8  9  1  0  0  0  0
  9 16  2  0  0  0  0
  9 10  1  0  0  0  0
 10 11  2  0  0  0  0
 11 13  1  0  0  0  0
 11 12  1  0  0  0  0
 13 14  1  0  0  0  0
 15 13  2  0  0  0  0
 16 15  1  0  0  0  0
 17 19  1  0  0  0  0
 18 17  2  0  0  0  0
 19 20  1  0  0  0  0
 20 25  1  0  0  0  0
 20 21  2  0  0  0  0
 21 26  1  0  0  0  0
 22 21  1  0  0  0  0
 23 22  2  0  0  0  0
 24 19  2  0  0  0  0
 24 23  1  0  0  0  0
 27 23  1  0  0  0  0
M  END
>  <minimizedAffinity>
-5.31113434

$$$$

 OpenBabel03272507113D

 27 29  0  0  0  0  0  0  0  0999 V2000
   38.1650   23.7670   33.6860 C   0  0  0  0  0  0  0  0  0  0  0  0
   37.3770   24.4520   32.7980 C   0  0  0  0  0  0  0  0  0  0  0  0
   36.6690   23.4920   32.0640 C   0  0  0  0  0  0  0  0  0  0  0  0
   37.0780   22.2700   32.5620 C   0  0  0  0  0  0  0  0  0  0  0  0
   37.9500   22.4930   33.5060 O   0  0  0  0  0  0  0  0  0  0  0  0
   37.2160   25.5020   32.5790 H   0  0  0  0  0  0  0  0  0  0  0  0
   35.9440   23.5250   31.2710 H   0  0  0  0  0  0  0  0  0  0  0  0
   35.5640   20.7330   34.6850 Cl  0  0  0  0  0  0  0  0  0  0  0  0
   35.9570   20.1690   33.0660 C   0  0  0  0  0  0  0  0  0  0  0  0
   36.6530   20.9330   32.1530 C   0  0  0  0  0  0  0  0  0  0  0  0
   36.9560   20.4780   30.8820 C   0  0  0  0  0  0  0  0  0  0  0  0
   37.4990   21.0800   30.1750 H   0  0  0  0  0  0  0  0  0  0  0  0
   36.5340   19.1970   30.5240 C   0  0  0  0  0  0  0  0  0  0  0  0
   36.7270   18.7630   29.5550 H   0  0  0  0  0  0  0  0  0  0  0  0
   35.8390   18.4590   31.4600 C   0  0  0  0  0  3  0  0  0  0  0  0
   35.5230   18.8900   32.7380 C   0  0  0  0  0  3  0  0  0  0  0  0
   39.0410   24.4500   34.6150 C   0  0  0  0  0  0  0  0  0  0  0  0
   39.7870   25.3620   34.1800 O   0  0  0  0  0  0  0  0  0  0  0  0
   39.0040   24.0380   36.0000 C   0  0  0  0  0  0  0  0  0  0  0  0
   37.9890   24.5560   36.7920 C   0  0  0  0  0  0  0  0  0  0  0  0
   37.9350   24.1710   38.1350 C   0  0  0  0  0  0  0  0  0  0  0  0
   38.8880   23.3070   38.5850 N   0  0  0  0  0  0  0  0  0  0  0  0
   39.8610   22.8170   37.8050 C   0  0  0  0  0  0  0  0  0  0  0  0
   39.9120   23.1860   36.5210 N   0  0  0  0  0  0  0  0  0  0  0  0
   37.2530   25.2380   36.3950 H   0  0  0  0  0  0  0  0  0  0  0  0
   37.1680   24.5380   38.8100 H   0  0  0  0  0  0  0  0  0  0  0  0
   40.5830   22.1310   38.2490 H   0  0  0  0  0  0  0  0  0  0  0  0
  1 17  1  0  0  0  0
  2  1  2  0  0  0  0
  3  4  2  0  0  0  0
  3  2  1  0  0  0  0
  4  5  1  0  0  0  0
  5  1  1  0  0  0  0
  6  2  1  0  0  0  0
  7  3  1  0  0  0  0
  9  8  1  0  0  0  0
 10  4  1  0  0  0  0
 10  9  2  0  0  0  0
 11 10  1  0  0  0  0
 12 11  1  0  0  0  0
 13 11  2  0  0  0  0
 13 15  1  0  0  0  0
 14 13  1  0  0  0  0
 15 16  2  0  0  0  0
 16  9  1  0  0  0  0
 17 19  1  0  0  0  0
 18 17  2  0  0  0  0
 19 24  2  0  0  0  0
 19 20  1  0  0  0  0
 20 21  2  0  0  0  0
 21 22  1  0  0  0  0
 21 26  1  0  0  0  0
 23 27  1  0  0  0  0
 23 22  2  0  0  0  0
 24 23  1  0  0  0  0
 25 20  1  0  0  0  0
M  END
>  <minimizedAffinity>
-5.30346489

$$$$

 OpenBabel03272507113D

 27 29  0  0  0  0  0  0  0  0999 V2000
   36.4740   28.2240   32.9040 C   0  0  0  0  0  0  0  0  0  0  0  0
   36.3640   29.2340   31.9840 C   0  0  0  0  0  0  0  0  0  0  0  0
   35.7500   30.3100   32.6390 C   0  0  0  0  0  0  0  0  0  0  0  0
   35.5240   29.8760   33.9310 C   0  0  0  0  0  0  0  0  0  0  0  0
   35.9670   28.6530   34.0270 O   0  0  0  0  0  0  0  0  0  0  0  0
   36.6400   29.3440   30.9410 H   0  0  0  0  0  0  0  0  0  0  0  0
   35.4550   31.3040   32.3530 H   0  0  0  0  0  0  0  0  0  0  0  0
   32.5660   29.3430   34.2860 Cl  0  0  0  0  0  0  0  0  0  0  0  0
   33.5610   30.4130   35.2660 C   0  0  0  0  0  0  0  0  0  0  0  0
   34.9080   30.6020   35.0390 C   0  0  0  0  0  0  0  0  0  0  0  0
   35.6800   31.4470   35.8180 C   0  0  0  0  0  0  0  0  0  0  0  0
   36.7310   31.5890   35.6340 H   0  0  0  0  0  0  0  0  0  0  0  0
   35.0600   32.1250   36.8680 C   0  0  0  0  0  0  0  0  0  0  0  0
   35.5860   32.8010   37.5230 H   0  0  0  0  0  0  0  0  0  0  0  0
   33.7110   31.9120   37.0680 C   0  0  0  0  0  3  0  0  0  0  0  0
   32.9160   31.0730   36.3050 C   0  0  0  0  0  3  0  0  0  0  0  0
   37.0680   26.9460   32.5690 C   0  0  0  0  0  0  0  0  0  0  0  0
   36.7760   26.4170   31.4680 O   0  0  0  0  0  0  0  0  0  0  0  0
   37.9690   26.3520   33.5300 C   0  0  0  0  0  0  0  0  0  0  0  0
   39.0880   27.0880   33.8930 C   0  0  0  0  0  0  0  0  0  0  0  0
   39.9740   26.5320   34.8210 C   0  0  0  0  0  0  0  0  0  0  0  0
   39.6820   25.2950   35.3120 N   0  0  0  0  0  0  0  0  0  0  0  0
   38.5960   24.5990   34.9510 C   0  0  0  0  0  0  0  0  0  0  0  0
   37.7500   25.1320   34.0630 N   0  0  0  0  0  0  0  0  0  0  0  0
   39.2830   28.0660   33.4790 H   0  0  0  0  0  0  0  0  0  0  0  0
   40.8680   27.0530   35.1490 H   0  0  0  0  0  0  0  0  0  0  0  0
   38.4400   23.6160   35.3940 H   0  0  0  0  0  0  0  0  0  0  0  0
  1  5  1  0  0  0  0
  2  3  1  0  0  0  0
  2  1  2  0  0  0  0
  3  4  2  0  0  0  0
  4  5  1  0  0  0  0
  4 10  1  0  0  0  0
  6  2  1  0  0  0  0
  7  3  1  0  0  0  0
  8  9  1  0  0  0  0
  9 16  1  0  0  0  0
 10  9  2  0  0  0  0
 10 11  1  0  0  0  0
 11 13  2  0  0  0  0
 12 11  1  0  0  0  0
 13 15  1  0  0  0  0
 13 14  1  0  0  0  0
 16 15  2  0  0  0  0
 17  1  1  0  0  0  0
 17 19  1  0  0  0  0
 18 17  2  0  0  0  0
 19 20  2  0  0  0  0
 19 24  1  0  0  0  0
 20 21  1  0  0  0  0
 21 26  1  0  0  0  0
 21 22  2  0  0  0  0
 23 22  1  0  0  0  0
 23 27  1  0  0  0  0
 24 23  2  0  0  0  0
 25 20  1  0  0  0  0
M  END
>  <minimizedAffinity>
-5.18997335

$$$$

 OpenBabel03272507113D

 27 29  0  0  0  0  0  0  0  0999 V2000
   36.1630   28.4310   33.1850 C   0  0  0  0  0  0  0  0  0  0  0  0
   36.0180   29.4630   32.2950 C   0  0  0  0  0  0  0  0  0  0  0  0
   35.2420   30.4400   32.9340 C   0  0  0  0  0  0  0  0  0  0  0  0
   34.9650   29.9300   34.1870 C   0  0  0  0  0  0  0  0  0  0  0  0
   35.5270   28.7570   34.2770 O   0  0  0  0  0  0  0  0  0  0  0  0
   36.3610   29.6460   31.2820 H   0  0  0  0  0  0  0  0  0  0  0  0
   34.8650   31.4080   32.6590 H   0  0  0  0  0  0  0  0  0  0  0  0
   36.4550   32.0410   35.7630 Cl  0  0  0  0  0  0  0  0  0  0  0  0
   34.7980   31.5120   36.0290 C   0  0  0  0  0  0  0  0  0  0  0  0
   34.1890   30.5400   35.2650 C   0  0  0  0  0  0  0  0  0  0  0  0
   32.8850   30.1320   35.4840 C   0  0  0  0  0  0  0  0  0  0  0  0
   32.4160   29.3730   34.8830 H   0  0  0  0  0  0  0  0  0  0  0  0
   32.1720   30.7350   36.5220 C   0  0  0  0  0  0  0  0  0  0  0  0
   31.1520   30.4780   36.7620 H   0  0  0  0  0  0  0  0  0  0  0  0
   32.8120   31.7040   37.2670 C   0  0  0  0  0  3  0  0  0  0  0  0
   34.1140   32.1310   37.0690 C   0  0  0  0  0  3  0  0  0  0  0  0
   36.9160   27.2380   32.8570 C   0  0  0  0  0  0  0  0  0  0  0  0
   36.3680   26.3580   32.1470 O   0  0  0  0  0  0  0  0  0  0  0  0
   38.2630   27.1310   33.3690 C   0  0  0  0  0  0  0  0  0  0  0  0
   39.3000   27.1820   32.4480 C   0  0  0  0  0  0  0  0  0  0  0  0
   40.6120   27.0800   32.9220 C   0  0  0  0  0  0  0  0  0  0  0  0
   40.7900   26.9350   34.2650 N   0  0  0  0  0  0  0  0  0  0  0  0
   39.7760   26.8890   35.1390 C   0  0  0  0  0  0  0  0  0  0  0  0
   38.5220   26.9860   34.6850 N   0  0  0  0  0  0  0  0  0  0  0  0
   39.1150   27.2970   31.3910 H   0  0  0  0  0  0  0  0  0  0  0  0
   41.4690   27.1120   32.2570 H   0  0  0  0  0  0  0  0  0  0  0  0
   40.0110   26.7710   36.1970 H   0  0  0  0  0  0  0  0  0  0  0  0
  1  5  1  0  0  0  0
  2  3  1  0  0  0  0
  2  1  2  0  0  0  0
  3  4  2  0  0  0  0
  4  5  1  0  0  0  0
  4 10  1  0  0  0  0
  6  2  1  0  0  0  0
  7  3  1  0  0  0  0
  8  9  1  0  0  0  0
  9 16  1  0  0  0  0
 10 11  1  0  0  0  0
 10  9  2  0  0  0  0
 11 13  2  0  0  0  0
 12 11  1  0  0  0  0
 13 14  1  0  0  0  0
 13 15  1  0  0  0  0
 16 15  2  0  0  0  0
 17  1  1  0  0  0  0
 17 19  1  0  0  0  0
 18 17  2  0  0  0  0
 19 24  1  0  0  0  0
 20 21  1  0  0  0  0
 20 19  2  0  0  0  0
 21 22  2  0  0  0  0
 22 23  1  0  0  0  0
 23 27  1  0  0  0  0
 24 23  2  0  0  0  0
 25 20  1  0  0  0  0
 26 21  1  0  0  0  0
M  END
>  <minimizedAffinity>
-5.16592932

$$$$

 OpenBabel03272507113D

 27 29  0  0  0  0  0  0  0  0999 V2000
   37.0830   26.2930   33.1720 C   0  0  0  0  0  0  0  0  0  0  0  0
   37.1420   27.3860   33.9960 C   0  0  0  0  0  0  0  0  0  0  0  0
   37.6990   26.9500   35.2060 C   0  0  0  0  0  0  0  0  0  0  0  0
   37.9460   25.6020   35.0330 C   0  0  0  0  0  0  0  0  0  0  0  0
   37.5660   25.2750   33.8290 O   0  0  0  0  0  0  0  0  0  0  0  0
   36.8630   28.4300   33.8950 H   0  0  0  0  0  0  0  0  0  0  0  0
   37.9440   27.4190   36.1410 H   0  0  0  0  0  0  0  0  0  0  0  0
   40.6340   24.4830   34.2090 Cl  0  0  0  0  0  0  0  0  0  0  0  0
   39.7490   24.1010   35.6800 C   0  0  0  0  0  0  0  0  0  0  0  0
   38.5240   24.6550   35.9840 C   0  0  0  0  0  0  0  0  0  0  0  0
   37.8370   24.3460   37.1460 C   0  0  0  0  0  0  0  0  0  0  0  0
   36.8820   24.7830   37.3760 H   0  0  0  0  0  0  0  0  0  0  0  0
   38.4180   23.4380   38.0320 C   0  0  0  0  0  0  0  0  0  0  0  0
   37.9520   23.1410   38.9590 H   0  0  0  0  0  0  0  0  0  0  0  0
   39.6450   22.9030   37.6980 C   0  0  0  0  0  3  0  0  0  0  0  0
   40.3530   23.1940   36.5440 C   0  0  0  0  0  3  0  0  0  0  0  0
   36.5550   26.3780   31.8260 C   0  0  0  0  0  0  0  0  0  0  0  0
   35.5060   25.7430   31.5500 O   0  0  0  0  0  0  0  0  0  0  0  0
   37.2720   27.1940   30.8730 C   0  0  0  0  0  0  0  0  0  0  0  0
   38.6160   26.9110   30.6760 C   0  0  0  0  0  0  0  0  0  0  0  0
   39.3290   27.6890   29.7580 C   0  0  0  0  0  0  0  0  0  0  0  0
   38.6560   28.6820   29.1130 N   0  0  0  0  0  0  0  0  0  0  0  0
   37.3580   28.9410   29.3170 C   0  0  0  0  0  0  0  0  0  0  0  0
   36.6770   28.1970   30.1950 N   0  0  0  0  0  0  0  0  0  0  0  0
   39.1110   26.1130   31.2090 H   0  0  0  0  0  0  0  0  0  0  0  0
   40.3820   27.5210   29.5560 H   0  0  0  0  0  0  0  0  0  0  0  0
   36.8990   29.7560   28.7570 H   0  0  0  0  0  0  0  0  0  0  0  0
  1  5  1  0  0  0  0
  1  2  2  0  0  0  0
  2  3  1  0  0  0  0
  3  7  1  0  0  0  0
  4  3  2  0  0  0  0
  4 10  1  0  0  0  0
  5  4  1  0  0  0  0
  6  2  1  0  0  0  0
  8  9  1  0  0  0  0
  9 10  2  0  0  0  0
  9 16  1  0  0  0  0
 10 11  1  0  0  0  0
 11 12  1  0  0  0  0
 11 13  2  0  0  0  0
 13 14  1  0  0  0  0
 15 13  1  0  0  0  0
 16 15  2  0  0  0  0
 17  1  1  0  0  0  0
 18 17  2  0  0  0  0
 19 17  1  0  0  0  0
 20 19  1  0  0  0  0
 20 25  1  0  0  0  0
 21 20  2  0  0  0  0
 22 23  2  0  0  0  0
 22 21  1  0  0  0  0
 23 24  1  0  0  0  0
 24 19  2  0  0  0  0
 26 21  1  0  0  0  0
 27 23  1  0  0  0  0
M  END
>  <minimizedAffinity>
-5.15477419

$$$$

 OpenBabel03272507113D

 27 29  0  0  0  0  0  0  0  0999 V2000
   36.7920   25.7620   32.0010 C   0  0  0  0  0  0  0  0  0  0  0  0
   35.6640   25.8950   31.2340 C   0  0  0  0  0  0  0  0  0  0  0  0
   35.1940   24.5980   30.9830 C   0  0  0  0  0  0  0  0  0  0  0  0
   36.0790   23.7540   31.6240 C   0  0  0  0  0  0  0  0  0  0  0  0
   36.9890   24.4880   32.2000 O   0  0  0  0  0  0  0  0  0  0  0  0
   35.1190   26.7380   30.8230 H   0  0  0  0  0  0  0  0  0  0  0  0
   34.3610   24.1850   30.4430 H   0  0  0  0  0  0  0  0  0  0  0  0
   38.4070   22.4090   30.2330 Cl  0  0  0  0  0  0  0  0  0  0  0  0
   37.0870   21.6070   31.0750 C   0  0  0  0  0  0  0  0  0  0  0  0
   36.0590   22.2940   31.6860 C   0  0  0  0  0  0  0  0  0  0  0  0
   35.0260   21.6510   32.3460 C   0  0  0  0  0  0  0  0  0  0  0  0
   34.2280   22.1940   32.8200 H   0  0  0  0  0  0  0  0  0  0  0  0
   35.0380   20.2570   32.3860 C   0  0  0  0  0  0  0  0  0  0  0  0
   34.2730   19.6760   32.8780 H   0  0  0  0  0  0  0  0  0  0  0  0
   36.0810   19.6000   31.7660 C   0  0  0  0  0  3  0  0  0  0  0  0
   37.1260   20.2180   31.0990 C   0  0  0  0  0  3  0  0  0  0  0  0
   37.5490   26.9120   32.4520 C   0  0  0  0  0  0  0  0  0  0  0  0
   38.7890   26.7920   32.6100 O   0  0  0  0  0  0  0  0  0  0  0  0
   36.8250   28.1400   32.6950 C   0  0  0  0  0  0  0  0  0  0  0  0
   36.2610   28.3080   33.9520 C   0  0  0  0  0  0  0  0  0  0  0  0
   35.5560   29.4880   34.2090 C   0  0  0  0  0  0  0  0  0  0  0  0
   35.4660   30.4030   33.2030 N   0  0  0  0  0  0  0  0  0  0  0  0
   36.0170   30.2230   31.9960 C   0  0  0  0  0  0  0  0  0  0  0  0
   36.6910   29.0940   31.7510 N   0  0  0  0  0  0  0  0  0  0  0  0
   36.3570   27.5570   34.7220 H   0  0  0  0  0  0  0  0  0  0  0  0
   35.0910   29.6840   35.1690 H   0  0  0  0  0  0  0  0  0  0  0  0
   35.8950   31.0080   31.2490 H   0  0  0  0  0  0  0  0  0  0  0  0
  1  5  1  0  0  0  0
  1 17  1  0  0  0  0
  2  1  2  0  0  0  0
  3  2  1  0  0  0  0
  3  4  2  0  0  0  0
  4 10  1  0  0  0  0
  4  5  1  0  0  0  0
  6  2  1  0  0  0  0
  7  3  1  0  0  0  0
  8  9  1  0  0  0  0
  9 16  2  0  0  0  0
  9 10  1  0  0  0  0
 10 11  2  0  0  0  0
 11 13  1  0  0  0  0
 11 12  1  0  0  0  0
 13 14  1  0  0  0  0
 15 13  2  0  0  0  0
 16 15  1  0  0  0  0
 17 18  2  0  0  0  0
 17 19  1  0  0  0  0
 19 20  1  0  0  0  0
 20 21  2  0  0  0  0
 20 25  1  0  0  0  0
 21 26  1  0  0  0  0
 22 21  1  0  0  0  0
 23 22  2  0  0  0  0
 24 23  1  0  0  0  0
 24 19  2  0  0  0  0
 27 23  1  0  0  0  0
M  END
>  <minimizedAffinity>
-5.09506893

$$$$
