
 OpenBabel03272505583D

 44 47  0  0  1  0  0  0  0  0999 V2000
   35.1440   30.2640   50.0380 C   0  0  2  0  0  0  0  0  0  0  0  0
   36.0700   31.1520   49.2970 C   0  0  0  0  0  0  0  0  0  0  0  0
   37.5330   30.6920   49.3870 C   0  0  2  0  0  0  0  0  0  0  0  0
   38.0320   30.5410   50.7550 C   0  0  0  0  0  0  0  0  0  0  0  0
   36.9920   29.9650   51.7180 C   0  0  0  0  0  0  0  0  0  0  0  0
   35.8590   29.3090   50.9700 C   0  0  0  0  0  0  0  0  0  0  0  0
   34.4290   30.8170   50.7180 H   0  0  0  0  0  0  0  0  0  0  0  0
   35.9490   31.3650   48.2640 H   0  0  0  0  0  0  0  0  0  0  0  0
   36.0830   32.1320   49.8830 H   0  0  0  0  0  0  0  0  0  0  0  0
   37.6080   29.7910   48.7860 H   0  0  0  0  0  0  0  0  0  0  0  0
   38.9020   29.8210   50.7180 H   0  0  0  0  0  0  0  0  0  0  0  0
   38.4490   31.4460   51.2210 H   0  0  0  0  0  0  0  0  0  0  0  0
   37.4710   29.1790   52.3370 H   0  0  0  0  0  0  0  0  0  0  0  0
   36.6280   30.7280   52.4340 H   0  0  0  0  0  0  0  0  0  0  0  0
   35.1600   28.9150   51.7120 H   0  0  0  0  0  0  0  0  0  0  0  0
   36.2900   28.5050   50.3360 H   0  0  0  0  0  0  0  0  0  0  0  0
   37.9480   30.2280   46.5150 Cl  0  0  0  0  0  0  0  0  0  0  0  0
   38.5670   31.6540   47.3390 C   0  0  0  0  0  0  0  0  0  0  0  0
   38.2800   31.7840   48.6900 C   0  0  0  0  0  0  0  0  0  0  0  0
   38.7860   32.9470   49.2500 C   0  0  0  0  0  0  0  0  0  0  0  0
   39.4940   33.8550   48.5060 C   0  0  0  0  0  0  0  0  0  0  0  0
   39.7490   33.6750   47.1720 C   0  0  0  0  0  0  0  0  0  0  0  0
   39.2730   32.5440   46.5680 C   0  0  0  0  0  0  0  0  0  0  0  0
   38.5680   33.0650   50.3150 H   0  0  0  0  0  0  0  0  0  0  0  0
   39.8520   34.7480   49.0460 H   0  0  0  0  0  0  0  0  0  0  0  0
   40.3080   34.3970   46.5990 H   0  0  0  0  0  0  0  0  0  0  0  0
   41.6610   30.8640   45.6720 Cl  0  0  0  0  0  0  0  0  0  0  0  0
   40.5250   31.5740   44.5520 C   0  0  0  0  0  0  0  0  0  0  0  0
   39.5140   32.2980   45.1470 C   0  0  0  0  0  0  0  0  0  0  0  0
   38.5410   32.9150   44.3670 C   0  0  0  0  0  0  0  0  0  0  0  0
   37.7030   33.5070   44.7170 H   0  0  0  0  0  0  0  0  0  0  0  0
   38.5880   32.8020   42.9740 C   0  0  0  0  0  0  0  0  0  0  0  0
   37.8620   33.2580   42.3120 H   0  0  0  0  0  0  0  0  0  0  0  0
   39.6150   32.0680   42.3770 C   0  0  0  0  0  0  0  0  0  0  0  0
   40.5630   31.4690   43.1780 C   0  0  0  0  0  0  0  0  0  0  0  0
   34.2890   29.4540   49.1530 C   0  0  0  0  0  0  0  0  0  0  0  0
   34.4480   29.6990   47.7880 C   0  0  0  0  0  0  0  0  0  0  0  0
   33.6690   28.9390   46.9050 C   0  0  0  0  0  0  0  0  0  0  0  0
   32.7900   27.9940   47.4190 N   0  0  0  0  0  0  0  0  0  0  0  0
   32.6730   27.7950   48.7500 C   0  0  0  0  0  0  0  0  0  0  0  0
   33.4260   28.5300   49.5690 N   0  0  0  0  0  0  0  0  0  0  0  0
   35.0090   30.3320   47.1240 H   0  0  0  0  0  0  0  0  0  0  0  0
   33.5980   28.9270   45.8330 H   0  0  0  0  0  0  0  0  0  0  0  0
   31.9820   27.0540   49.1320 H   0  0  0  0  0  0  0  0  0  0  0  0
  1  7  1  1  0  0  0
  1  6  1  0  0  0  0
  2  3  1  0  0  0  0
  2  9  1  0  0  0  0
  2  1  1  0  0  0  0
  3 10  1  6  0  0  0
  3  4  1  0  0  0  0
  4 12  1  0  0  0  0
  4  5  1  0  0  0  0
  5 13  1  0  0  0  0
  5 14  1  0  0  0  0
  6 15  1  0  0  0  0
  6  5  1  0  0  0  0
  8  2  1  0  0  0  0
 11  4  1  0  0  0  0
 16  6  1  0  0  0  0
 17 18  1  0  0  0  0
 18 19  1  0  0  0  0
 19 20  2  0  0  0  0
 19  3  1  0  0  0  0
 20 24  1  0  0  0  0
 21 25  1  0  0  0  0
 21 20  1  0  0  0  0
 22 21  2  0  0  0  0
 23 22  1  0  0  0  0
 23 18  2  0  0  0  0
 26 22  1  0  0  0  0
 28 29  1  0  0  0  0
 28 27  1  0  0  0  0
 29 23  1  0  0  0  0
 30 31  1  0  0  0  0
 30 29  2  0  0  0  0
 32 30  1  0  0  0  0
 33 32  1  0  0  0  0
 34 32  2  0  0  0  0
 34 35  1  0  0  0  0
 35 28  2  0  0  0  0
 36 41  1  0  0  0  0
 36  1  1  0  0  0  0
 37 36  2  0  0  0  0
 38 39  2  0  0  0  0
 38 37  1  0  0  0  0
 39 40  1  0  0  0  0
 40 44  1  0  0  0  0
 40 41  2  0  0  0  0
 42 37  1  0  0  0  0
 43 38  1  0  0  0  0
M  END
>  <minimizedAffinity>
-7.69370985

>  <minimizedRMSD>
0.944779754

$$$$
