
 OpenBabel03272505153D

 28 30  0  0  0  0  0  0  0  0999 V2000
   38.1760   30.8180   47.8160 Cl  0  0  0  0  0  0  0  0  0  0  0  0
   36.8500   30.5200   46.7240 C   0  0  0  0  0  0  0  0  0  0  0  0
   35.6630   30.0350   47.1800 C   0  0  0  0  0  0  0  0  0  0  0  0
   34.6840   29.8340   46.2460 C   0  0  0  0  0  0  0  0  0  0  0  0
   34.8260   30.0860   44.9130 C   0  0  0  0  0  0  0  0  0  0  0  0
   36.0260   30.5720   44.4760 C   0  0  0  0  0  0  0  0  0  0  0  0
   37.0610   30.7990   45.3720 C   0  0  0  0  0  0  0  0  0  0  0  0
   33.7200   29.4450   46.5920 H   0  0  0  0  0  0  0  0  0  0  0  0
   34.0060   29.9060   44.2120 H   0  0  0  0  0  0  0  0  0  0  0  0
   36.2010   30.7930   43.4320 H   0  0  0  0  0  0  0  0  0  0  0  0
   36.4420   29.1280   50.7750 C   0  0  0  0  0  0  0  0  0  0  0  0
   36.6040   29.3760   49.4030 C   0  0  0  0  0  0  0  0  0  0  0  0
   35.5240   29.7690   48.6120 C   0  0  0  0  0  0  0  0  0  0  0  0
   34.3230   29.8970   49.2320 N   0  0  0  0  0  0  0  0  0  0  0  0
   34.1920   29.6530   50.5490 C   0  0  0  0  0  0  0  0  0  0  0  0
   35.2290   29.2750   51.3110 N   0  0  0  0  0  0  0  0  0  0  0  0
   37.2980   28.8280   51.3430 H   0  0  0  0  0  0  0  0  0  0  0  0
   37.5580   29.2790   48.8880 H   0  0  0  0  0  0  0  0  0  0  0  0
   33.1610   29.8090   50.8570 H   0  0  0  0  0  0  0  0  0  0  0  0
   39.0130   28.8710   44.0290 Cl  0  0  0  0  0  0  0  0  0  0  0  0
   39.3390   30.5750   44.3050 C   0  0  0  0  0  0  0  0  0  0  0  0
   38.3570   31.3210   44.9250 C   0  0  0  0  0  0  0  0  0  0  0  0
   38.5040   32.6680   45.1930 C   0  0  0  0  0  0  0  0  0  0  0  0
   37.7650   33.2950   45.6760 H   0  0  0  0  0  0  0  0  0  0  0  0
   39.6800   33.3240   44.8320 C   0  0  0  0  0  0  0  0  0  0  0  0
   39.8330   34.3820   45.0260 H   0  0  0  0  0  0  0  0  0  0  0  0
   40.6540   32.5690   44.2130 C   0  0  0  0  0  0  0  0  0  0  0  0
   40.5200   31.2240   43.9400 C   0  0  0  0  0  0  0  0  0  0  0  0
  2  3  1  0  0  0  0
  2  1  1  0  0  0  0
  3 13  1  0  0  0  0
  4  8  1  0  0  0  0
  4  3  2  0  0  0  0
  5  4  1  0  0  0  0
  6  5  2  0  0  0  0
  6  7  1  0  0  0  0
  7  2  2  0  0  0  0
  9  5  1  0  0  0  0
 10  6  1  0  0  0  0
 11 16  1  0  0  0  0
 11 17  1  0  0  0  0
 12 11  2  0  0  0  0
 13 14  2  0  0  0  0
 13 12  1  0  0  0  0
 14 15  1  0  0  0  0
 15 19  1  0  0  0  0
 15 16  2  0  0  0  0
 18 12  1  0  0  0  0
 20 21  1  0  0  0  0
 21 22  1  0  0  0  0
 22 23  2  0  0  0  0
 22  7  1  0  0  0  0
 23 24  1  0  0  0  0
 25 26  1  0  0  0  0
 25 23  1  0  0  0  0
 27 25  2  0  0  0  0
 28 27  1  0  0  0  0
 28 21  2  0  0  0  0
M  END
>  <minimizedAffinity>
-5.5371871

>  <minimizedRMSD>
4.01509333

$$$$
