REMARK  Name = 
REMARK  3 active torsions:
REMARK  status: ('A' for Active; 'I' for Inactive)
REMARK    1  A    between atoms: C_3  and  C_12
REMARK    2  A    between atoms: C_5  and  C_14
REMARK    3  A    between atoms: C_18  and  C_30
REMARK                            x       y       z     vdW  Elec       q    Type
REMARK                         _______ _______ _______ _____ _____    ______ ____
ROOT
ATOM      1 BR   UNL     1      37.308  29.336  51.025  0.00  0.00    +0.000 Br
ATOM      2  C   UNL     1      35.965  29.330  49.681  0.00  0.00    +0.000 A 
ATOM      3  C   UNL     1      35.993  30.257  48.643  0.00  0.00    +0.000 A 
ATOM      4  C   UNL     1      34.987  30.190  47.708  0.00  0.00    +0.000 A 
ATOM      5  C   UNL     1      33.968  29.269  47.743  0.00  0.00    +0.000 A 
ATOM      6  C   UNL     1      33.964  28.366  48.778  0.00  0.00    +0.000 A 
ATOM      7  C   UNL     1      34.960  28.406  49.733  0.00  0.00    +0.000 A 
ATOM      8  H   UNL     1      35.020  30.912  46.911  0.00  0.00    +0.000 HD
ATOM      9  H   UNL     1      33.172  27.623  48.836  0.00  0.00    +0.000 HD
ATOM     10  H   UNL     1      34.892  27.659  50.523  0.00  0.00    +0.000 HD
ENDROOT
BRANCH   3  15
ATOM     11  C   UNL     1      37.997  33.189  49.458  0.00  0.00    +0.000 A 
ATOM     12  C   UNL     1      39.023  33.174  48.470  0.00  0.00    +0.000 A 
ATOM     13  C   UNL     1      38.999  32.146  47.539  0.00  0.00    +0.000 A 
ATOM     14  N   UNL     1      38.008  31.218  47.621  0.00  0.00    +0.000 NA
ATOM     15  C   UNL     1      37.051  31.253  48.561  0.00  0.00    +0.000 A 
ATOM     16  N   UNL     1      37.048  32.246  49.485  0.00  0.00    +0.000 NA
ATOM     17  H   UNL     1      38.006  33.984  50.186  0.00  0.00    +0.000 HD
ATOM     18  H   UNL     1      39.772  33.950  48.479  0.00  0.00    +0.000 HD
ATOM     19  H   UNL     1      39.763  32.098  46.771  0.00  0.00    +0.000 HD
ENDBRANCH   3  15
BRANCH   5  20
ATOM     20  C   UNL     1      32.902  29.198  46.753  0.00  0.00    +0.000 A 
ATOM     21  C   UNL     1      32.262  28.036  46.370  0.00  0.00    +0.000 A 
ATOM     22  C   UNL     1      31.250  28.026  45.420  0.00  0.00    +0.000 A 
ATOM     23  N   UNL     1      30.871  29.181  44.844  0.00  0.00    +0.000 NA
ATOM     24  C   UNL     1      31.495  30.316  45.216  0.00  0.00    +0.000 A 
ATOM     25  N   UNL     1      32.462  30.310  46.127  0.00  0.00    +0.000 NA
ATOM     26  H   UNL     1      32.574  27.110  46.839  0.00  0.00    +0.000 HD
ATOM     27  H   UNL     1      30.820  27.051  45.200  0.00  0.00    +0.000 HD
BRANCH  24  30
ATOM     28 CL   UNL     1      33.344  31.498  43.093  0.00  0.00    +0.000 Cl
ATOM     29  C   UNL     1      31.820  32.185  43.606  0.00  0.00    +0.000 A 
ATOM     30  C   UNL     1      31.068  31.558  44.578  0.00  0.00    +0.000 A 
ATOM     31  C   UNL     1      29.855  32.131  44.967  0.00  0.00    +0.000 A 
ATOM     32  H   UNL     1      29.222  31.695  45.717  0.00  0.00    +0.000 HD
ATOM     33  C   UNL     1      29.496  33.307  44.332  0.00  0.00    +0.000 A 
ATOM     34  H   UNL     1      28.556  33.780  44.612  0.00  0.00    +0.000 HD
ATOM     35  C   UNL     1      30.247  33.936  43.360  0.00  0.00    +0.000 A 
ATOM     36  C   UNL     1      31.460  33.357  42.975  0.00  0.00    +0.000 A 
ENDBRANCH  24  30
ENDBRANCH   5  20
TORSDOF 3
