
 OpenBabel03272510203D

 36 39  0  0  0  0  0  0  0  0999 V2000
   37.4240   29.1380   50.8000 Br  0  0  0  0  0  0  0  0  0  0  0  0
   36.0310   29.3030   49.5180 C   0  0  0  0  0  0  0  0  0  0  0  0
   36.0310   30.3480   48.5990 C   0  0  0  0  0  0  0  0  0  0  0  0
   34.9900   30.4010   47.7020 C   0  0  0  0  0  0  0  0  0  0  0  0
   33.9630   29.4900   47.6650 C   0  0  0  0  0  0  0  0  0  0  0  0
   33.9880   28.4680   48.5830 C   0  0  0  0  0  0  0  0  0  0  0  0
   35.0190   28.3860   49.4970 C   0  0  0  0  0  0  0  0  0  0  0  0
   35.0010   31.2140   46.9980 H   0  0  0  0  0  0  0  0  0  0  0  0
   33.1900   27.7290   48.5820 H   0  0  0  0  0  0  0  0  0  0  0  0
   34.9720   27.5490   50.1930 H   0  0  0  0  0  0  0  0  0  0  0  0
   38.0100   33.2400   49.5990 C   0  0  0  0  0  0  0  0  0  0  0  0
   39.0790   33.2510   48.6570 C   0  0  0  0  0  0  0  0  0  0  0  0
   39.0910   32.2550   47.6920 C   0  0  0  0  0  0  0  0  0  0  0  0
   38.0930   31.3310   47.6990 N   0  0  0  0  0  0  0  0  0  0  0  0
   37.0960   31.3400   48.5970 C   0  0  0  0  0  0  0  0  0  0  0  0
   37.0570   32.3020   49.5530 N   0  0  0  0  0  0  0  0  0  0  0  0
   37.9910   34.0100   50.3530 H   0  0  0  0  0  0  0  0  0  0  0  0
   39.8300   34.0220   48.7250 H   0  0  0  0  0  0  0  0  0  0  0  0
   39.8880   32.2280   46.9570 H   0  0  0  0  0  0  0  0  0  0  0  0
   32.8600   29.5460   46.7160 C   0  0  0  0  0  0  0  0  0  0  0  0
   31.8880   28.5740   46.5830 C   0  0  0  0  0  0  0  0  0  0  0  0
   30.8570   28.6780   45.6590 C   0  0  0  0  0  0  0  0  0  0  0  0
   30.7910   29.7580   44.8600 N   0  0  0  0  0  0  0  0  0  0  0  0
   31.7390   30.7080   44.9880 C   0  0  0  0  0  0  0  0  0  0  0  0
   32.7200   30.5940   45.8770 N   0  0  0  0  0  0  0  0  0  0  0  0
   31.9490   27.7070   47.2300 H   0  0  0  0  0  0  0  0  0  0  0  0
   30.1500   27.8510   45.6460 H   0  0  0  0  0  0  0  0  0  0  0  0
   32.7500   30.3750   42.1260 Cl  0  0  0  0  0  0  0  0  0  0  0  0
   32.0730   31.8410   42.7980 C   0  0  0  0  0  0  0  0  0  0  0  0
   31.6480   31.8710   44.1110 C   0  0  0  0  0  0  0  0  0  0  0  0
   31.1110   33.0560   44.6190 C   0  0  0  0  0  0  0  0  0  0  0  0
   30.7620   33.1480   45.6300 H   0  0  0  0  0  0  0  0  0  0  0  0
   31.0470   34.1290   43.7470 C   0  0  0  0  0  0  0  0  0  0  0  0
   30.6330   35.0680   44.1120 H   0  0  0  0  0  0  0  0  0  0  0  0
   31.4720   34.1010   42.4340 C   0  0  0  0  0  3  0  0  0  0  0  0
   32.0080   32.9110   41.9320 C   0  0  0  0  0  3  0  0  0  0  0  0
  2  1  1  0  0  0  0
  3  2  2  0  0  0  0
  4  3  1  0  0  0  0
  5  4  2  0  0  0  0
  5  6  1  0  0  0  0
  6  7  2  0  0  0  0
  7  2  1  0  0  0  0
  7 10  1  0  0  0  0
  8  4  1  0  0  0  0
  9  6  1  0  0  0  0
 11 17  1  0  0  0  0
 12 18  1  0  0  0  0
 12 11  2  0  0  0  0
 13 14  2  0  0  0  0
 13 12  1  0  0  0  0
 14 15  1  0  0  0  0
 15  3  1  0  0  0  0
 15 16  2  0  0  0  0
 16 11  1  0  0  0  0
 19 13  1  0  0  0  0
 20  5  1  0  0  0  0
 21 20  1  0  0  0  0
 21 26  1  0  0  0  0
 22 21  2  0  0  0  0
 23 24  2  0  0  0  0
 23 22  1  0  0  0  0
 24 25  1  0  0  0  0
 25 20  2  0  0  0  0
 27 22  1  0  0  0  0
 28 29  1  0  0  0  0
 29 30  1  0  0  0  0
 30 31  2  0  0  0  0
 30 24  1  0  0  0  0
 31 32  1  0  0  0  0
 33 34  1  0  0  0  0
 33 31  1  0  0  0  0
 35 33  2  0  0  0  0
 36 35  1  0  0  0  0
 36 29  2  0  0  0  0
M  END
>  <minimizedAffinity>
-6.46369696

>  <minimizedRMSD>
0.759508133

$$$$
