
 OpenBabel03272502013D

 42 46  0  0  0  0  0  0  0  0999 V2000
   34.4120   28.1080   48.1080 C   0  0  0  0  0  0  0  0  0  0  0  0
   34.8750   28.9630   47.5700 H   0  0  0  0  0  0  0  0  0  0  0  0
   34.8120   27.1250   47.8490 H   0  0  0  0  0  0  0  0  0  0  0  0
   32.9310   28.1940   47.7910 C   0  0  0  0  0  0  0  0  0  0  0  0
   31.9130   27.4130   48.2860 C   0  0  0  0  0  0  0  0  0  0  0  0
   30.7150   27.8360   47.7250 C   0  0  0  0  0  0  0  0  0  0  0  0
   31.0530   28.8660   46.9050 N   0  0  0  0  0  0  0  0  0  0  0  0
   32.3520   29.0680   46.9500 N   0  0  0  0  0  0  0  0  0  0  0  0
   28.6910   29.2980   46.2220 N   0  0  0  0  0  0  0  0  0  0  0  0
   30.0110   29.5100   46.1820 C   0  0  0  0  0  0  0  0  0  0  0  0
   30.2120   30.5070   45.2780 N   0  0  0  0  0  0  0  0  0  0  0  0
   29.0530   30.9080   44.7660 C   0  0  0  0  0  0  0  0  0  0  0  0
   28.7680   31.8710   43.8350 C   0  0  0  0  0  0  0  0  0  0  0  0
   27.4870   32.0890   43.4760 N   0  0  0  0  0  0  0  0  0  0  0  0
   26.5040   31.3400   44.0560 C   0  0  0  0  0  0  0  0  0  0  0  0
   26.7890   30.3800   44.9860 N   0  0  0  0  0  0  0  0  0  0  0  0
   28.0700   30.1540   45.3500 C   0  0  0  0  0  0  0  0  0  0  0  0
   32.0580   26.5950   49.0060 H   0  0  0  0  0  0  0  0  0  0  0  0
   29.7530   27.3880   47.9470 H   0  0  0  0  0  0  0  0  0  0  0  0
   28.1990   28.5960   46.8180 H   0  0  0  0  0  0  0  0  0  0  0  0
   29.5190   32.4830   43.3540 H   0  0  0  0  0  0  0  0  0  0  0  0
   25.4420   31.4070   43.8640 H   0  0  0  0  0  0  0  0  0  0  0  0
   34.5260   28.4200   49.5770 C   0  0  0  0  0  0  0  0  0  0  0  0
   33.6870   29.0820   49.9260 H   0  0  0  0  0  0  0  0  0  0  0  0
   34.4530   27.5170   50.2110 H   0  0  0  0  0  0  0  0  0  0  0  0
   37.3530   30.0690   51.2960 C   0  0  0  0  0  0  0  0  0  0  0  0
   38.0230   30.6660   50.2220 C   0  0  0  0  0  0  0  0  0  0  0  0
   37.5070   30.5030   48.9010 C   0  0  0  0  0  0  0  0  0  0  0  0
   36.3810   29.7710   48.7470 N   0  0  0  0  0  0  0  0  0  0  0  0
   35.7620   29.2080   49.8290 C   0  0  0  0  0  0  0  0  0  0  0  0
   36.2380   29.3550   51.0660 N   0  0  0  0  0  0  0  0  0  0  0  0
   37.6210   30.1050   52.3380 H   0  0  0  0  0  0  0  0  0  0  0  0
   38.8680   31.1760   50.6040 H   0  0  0  0  0  0  0  0  0  0  0  0
   38.3630   33.4420   49.3310 Cl  0  0  0  0  0  0  0  0  0  0  0  0
   38.7470   32.4390   47.9650 C   0  0  0  0  0  0  0  0  0  0  0  0
   38.3040   31.1400   47.8910 C   0  0  0  0  0  0  0  0  0  0  0  0
   38.6910   30.5290   46.7400 C   0  0  0  0  0  0  0  0  0  0  0  0
   38.4430   29.5070   46.5040 H   0  0  0  0  0  0  0  0  0  0  0  0
   39.4370   31.1110   45.7490 C   0  0  0  0  0  0  0  0  0  0  0  0
   39.7300   30.6020   44.8440 H   0  0  0  0  0  0  0  0  0  0  0  0
   39.8600   32.4140   45.8610 C   0  0  0  0  0  0  0  0  0  0  0  0
   39.4970   33.0950   47.0170 C   0  0  0  0  0  0  0  0  0  0  0  0
  1 23  1  0  0  0  0
  2  1  1  0  0  0  0
  3  1  1  0  0  0  0
  4  1  1  0  0  0  0
  4  5  1  0  0  0  0
  5 18  1  0  0  0  0
  6 19  1  0  0  0  0
  6  5  2  0  0  0  0
  7  8  1  0  0  0  0
  7  6  1  0  0  0  0
  8  4  2  0  0  0  0
  9 20  1  0  0  0  0
 10  9  1  0  0  0  0
 10  7  1  0  0  0  0
 11 10  2  0  0  0  0
 12 11  1  0  0  0  0
 12 17  1  0  0  0  0
 13 12  2  0  0  0  0
 14 13  1  0  0  0  0
 14 15  2  0  0  0  0
 15 16  1  0  0  0  0
 16 17  2  0  0  0  0
 17  9  1  0  0  0  0
 21 13  1  0  0  0  0
 22 15  1  0  0  0  0
 23 30  1  0  0  0  0
 23 24  1  0  0  0  0
 23 25  1  0  0  0  0
 26 32  1  0  0  0  0
 27 33  1  0  0  0  0
 27 26  2  0  0  0  0
 28 27  1  0  0  0  0
 29 28  2  0  0  0  0
 29 30  1  0  0  0  0
 30 31  2  0  0  0  0
 31 26  1  0  0  0  0
 35 34  1  0  0  0  0
 36 35  1  0  0  0  0
 36 28  1  0  0  0  0
 37 36  2  0  0  0  0
 38 37  1  0  0  0  0
 39 41  2  0  0  0  0
 39 37  1  0  0  0  0
 40 39  1  0  0  0  0
 41 42  1  0  0  0  0
 42 35  2  0  0  0  0
M  END
>  <minimizedAffinity>
-7.57512236

>  <minimizedRMSD>
0.391282469

$$$$
