
 OpenBabel03272510203D

 36 39  0  0  0  0  0  0  0  0999 V2000
   37.2330   29.2580   50.9950 Br  0  0  0  0  0  0  0  0  0  0  0  0
   35.9120   29.3150   49.6300 C   0  0  0  0  0  0  0  0  0  0  0  0
   35.9550   30.2910   48.6390 C   0  0  0  0  0  0  0  0  0  0  0  0
   34.9650   30.2680   47.6850 C   0  0  0  0  0  0  0  0  0  0  0  0
   33.9470   29.3450   47.6590 C   0  0  0  0  0  0  0  0  0  0  0  0
   33.9280   28.3930   48.6490 C   0  0  0  0  0  0  0  0  0  0  0  0
   34.9090   28.3880   49.6210 C   0  0  0  0  0  0  0  0  0  0  0  0
   35.0090   31.0270   46.9240 H   0  0  0  0  0  0  0  0  0  0  0  0
   33.1370   27.6470   48.6580 H   0  0  0  0  0  0  0  0  0  0  0  0
   34.8290   27.6040   50.3730 H   0  0  0  0  0  0  0  0  0  0  0  0
   37.9130   33.2100   49.5980 C   0  0  0  0  0  0  0  0  0  0  0  0
   38.9800   33.2190   48.6540 C   0  0  0  0  0  0  0  0  0  0  0  0
   38.9980   32.2110   47.7010 C   0  0  0  0  0  0  0  0  0  0  0  0
   38.0080   31.2790   47.7220 N   0  0  0  0  0  0  0  0  0  0  0  0
   37.0120   31.2910   48.6220 C   0  0  0  0  0  0  0  0  0  0  0  0
   36.9670   32.2640   49.5660 N   0  0  0  0  0  0  0  0  0  0  0  0
   37.8890   33.9890   50.3430 H   0  0  0  0  0  0  0  0  0  0  0  0
   39.7250   33.9960   48.7110 H   0  0  0  0  0  0  0  0  0  0  0  0
   39.7940   32.1810   46.9650 H   0  0  0  0  0  0  0  0  0  0  0  0
   32.8980   29.3200   46.6490 C   0  0  0  0  0  0  0  0  0  0  0  0
   32.0650   28.2450   46.4080 C   0  0  0  0  0  0  0  0  0  0  0  0
   31.0790   28.2760   45.4320 C   0  0  0  0  0  0  0  0  0  0  0  0
   30.9200   29.3850   44.6870 N   0  0  0  0  0  0  0  0  0  0  0  0
   31.7320   30.4340   44.9200 C   0  0  0  0  0  0  0  0  0  0  0  0
   32.6710   30.3900   45.8590 N   0  0  0  0  0  0  0  0  0  0  0  0
   32.2010   27.3560   47.0130 H   0  0  0  0  0  0  0  0  0  0  0  0
   30.4850   27.3700   45.3340 H   0  0  0  0  0  0  0  0  0  0  0  0
   28.9300   31.6480   44.8580 Cl  0  0  0  0  0  0  0  0  0  0  0  0
   30.3210   32.2630   43.9950 C   0  0  0  0  0  0  0  0  0  0  0  0
   31.5410   31.6270   44.1000 C   0  0  0  0  0  0  0  0  0  0  0  0
   32.6330   32.1420   43.3990 C   0  0  0  0  0  0  0  0  0  0  0  0
   33.6090   31.6970   43.4370 H   0  0  0  0  0  0  0  0  0  0  0  0
   32.3990   33.2740   42.6360 C   0  0  0  0  0  0  0  0  0  0  0  0
   33.2300   33.7010   42.0760 H   0  0  0  0  0  0  0  0  0  0  0  0
   31.1800   33.9110   42.5290 C   0  0  0  0  0  3  0  0  0  0  0  0
   30.0910   33.3900   43.2340 C   0  0  0  0  0  3  0  0  0  0  0  0
  2  1  1  0  0  0  0
  3  2  2  0  0  0  0
  4  3  1  0  0  0  0
  5  4  2  0  0  0  0
  5  6  1  0  0  0  0
  6  9  1  0  0  0  0
  6  7  2  0  0  0  0
  7  2  1  0  0  0  0
  7 10  1  0  0  0  0
  8  4  1  0  0  0  0
 11 17  1  0  0  0  0
 12 18  1  0  0  0  0
 12 11  2  0  0  0  0
 13 14  2  0  0  0  0
 13 12  1  0  0  0  0
 14 15  1  0  0  0  0
 15  3  1  0  0  0  0
 15 16  2  0  0  0  0
 16 11  1  0  0  0  0
 19 13  1  0  0  0  0
 20  5  1  0  0  0  0
 21 20  1  0  0  0  0
 21 26  1  0  0  0  0
 22 21  2  0  0  0  0
 23 24  2  0  0  0  0
 23 22  1  0  0  0  0
 24 25  1  0  0  0  0
 25 20  2  0  0  0  0
 27 22  1  0  0  0  0
 29 30  1  0  0  0  0
 29 28  1  0  0  0  0
 30 24  1  0  0  0  0
 31 32  1  0  0  0  0
 31 30  2  0  0  0  0
 33 31  1  0  0  0  0
 34 33  1  0  0  0  0
 35 33  2  0  0  0  0
 35 36  1  0  0  0  0
 36 29  2  0  0  0  0
M  END
>  <minimizedAffinity>
-6.47696209

>  <minimizedRMSD>
0.61773479

$$$$
