
 OpenBabel03272508303D

 32 34  0  0  1  0  0  0  0  0999 V2000
   37.0520   30.4750   46.7740 N   0  0  0  0  0  0  0  0  0  0  0  0
   36.2480   30.2740   45.5660 C   0  0  0  0  0  0  0  0  0  0  0  0
   37.0410   30.3200   44.3150 C   0  0  0  0  0  0  0  0  0  0  0  0
   38.4160   29.9820   44.5960 N   0  0  0  0  0  0  0  0  0  0  0  0
   38.9490   31.1010   45.3630 C   0  0  0  0  0  0  0  0  0  0  0  0
   38.4280   30.8990   46.7470 C   0  0  1  0  0  0  0  0  0  0  0  0
   35.8490   29.2270   45.6420 H   0  0  0  0  0  0  0  0  0  0  0  0
   35.3920   30.9780   45.5040 H   0  0  0  0  0  0  0  0  0  0  0  0
   36.6690   29.5800   43.5700 H   0  0  0  0  0  0  0  0  0  0  0  0
   36.9400   31.3600   43.8930 H   0  0  0  0  0  0  0  0  0  0  0  0
   38.9090   29.9650   43.6660 H   0  0  0  0  0  0  0  0  0  0  0  0
   40.0550   31.0750   45.3540 H   0  0  0  0  0  0  0  0  0  0  0  0
   38.5570   32.0490   44.8970 H   0  0  0  0  0  0  0  0  0  0  0  0
   39.0030   30.0010   47.1400 H   0  0  0  0  0  0  0  0  0  0  0  0
   37.0690   29.4300   49.0020 C   0  0  0  0  0  0  0  0  0  0  0  0
   36.4400   30.2360   48.0250 C   0  0  0  0  0  0  0  0  0  0  0  0
   35.2080   30.7700   48.3610 C   0  0  0  0  0  0  0  0  0  0  0  0
   34.6770   30.4960   49.5910 N   0  0  0  0  0  0  0  0  0  0  0  0
   35.3150   29.7280   50.4750 C   0  0  0  0  0  0  0  0  0  0  0  0
   36.5290   29.1740   50.2050 N   0  0  0  0  0  0  0  0  0  0  0  0
   38.0410   29.0040   48.7490 H   0  0  0  0  0  0  0  0  0  0  0  0
   34.7100   31.3860   47.6360 H   0  0  0  0  0  0  0  0  0  0  0  0
   34.8580   29.5340   51.4440 H   0  0  0  0  0  0  0  0  0  0  0  0
   40.0530   33.3010   45.7150 Cl  0  0  0  0  0  0  0  0  0  0  0  0
   39.4720   33.1260   47.3330 C   0  0  0  0  0  0  0  0  0  0  0  0
   38.7580   31.9960   47.6730 C   0  0  0  0  0  0  0  0  0  0  0  0
   38.3600   31.9900   49.0170 C   0  0  0  0  0  0  0  0  0  0  0  0
   37.7840   31.1290   49.3850 H   0  0  0  0  0  0  0  0  0  0  0  0
   38.6210   32.9730   49.9410 C   0  0  0  0  0  0  0  0  0  0  0  0
   38.2830   32.8940   50.9450 H   0  0  0  0  0  0  0  0  0  0  0  0
   39.3390   34.0660   49.5140 C   0  0  0  0  0  0  0  0  0  0  0  0
   39.7720   34.1520   48.2060 C   0  0  0  0  0  0  0  0  0  0  0  0
  1 16  1  0  0  0  0
  2  7  1  0  0  0  0
  2  1  1  0  0  0  0
  3  4  1  0  0  0  0
  3  2  1  0  0  0  0
  4  5  1  0  0  0  0
  5  6  1  0  0  0  0
  6  1  1  0  0  0  0
  6 14  1  1  0  0  0
  6 26  1  0  0  0  0
  8  2  1  0  0  0  0
  9  3  1  0  0  0  0
 10  3  1  0  0  0  0
 11  4  1  0  0  0  0
 12  5  1  0  0  0  0
 13  5  1  0  0  0  0
 15 20  1  0  0  0  0
 16 17  1  0  0  0  0
 16 15  2  0  0  0  0
 17 18  2  0  0  0  0
 18 19  1  0  0  0  0
 19 23  1  0  0  0  0
 20 19  2  0  0  0  0
 21 15  1  0  0  0  0
 22 17  1  0  0  0  0
 24 25  1  0  0  0  0
 25 26  2  0  0  0  0
 25 32  1  0  0  0  0
 26 27  1  0  0  0  0
 27 28  1  0  0  0  0
 27 29  2  0  0  0  0
 29 30  1  0  0  0  0
 31 29  1  0  0  0  0
 32 31  2  0  0  0  0
M  END
>  <minimizedAffinity>
-5.42601967

>  <minimizedRMSD>
2.72871184

$$$$
