
 OpenBabel03272510203D

 36 39  0  0  0  0  0  0  0  0999 V2000
   37.2830   29.2730   51.0020 Br  0  0  0  0  0  0  0  0  0  0  0  0
   35.9490   29.3340   49.6510 C   0  0  0  0  0  0  0  0  0  0  0  0
   35.9850   30.3110   48.6600 C   0  0  0  0  0  0  0  0  0  0  0  0
   34.9850   30.2910   47.7160 C   0  0  0  0  0  0  0  0  0  0  0  0
   33.9660   29.3700   47.6990 C   0  0  0  0  0  0  0  0  0  0  0  0
   33.9540   28.4180   48.6880 C   0  0  0  0  0  0  0  0  0  0  0  0
   34.9430   28.4100   49.6510 C   0  0  0  0  0  0  0  0  0  0  0  0
   35.0240   31.0510   46.9550 H   0  0  0  0  0  0  0  0  0  0  0  0
   33.1610   27.6730   48.7040 H   0  0  0  0  0  0  0  0  0  0  0  0
   34.8700   27.6250   50.4030 H   0  0  0  0  0  0  0  0  0  0  0  0
   37.9550   33.2290   49.5980 C   0  0  0  0  0  0  0  0  0  0  0  0
   39.0160   33.2320   48.6480 C   0  0  0  0  0  0  0  0  0  0  0  0
   39.0270   32.2210   47.6990 C   0  0  0  0  0  0  0  0  0  0  0  0
   38.0340   31.2910   47.7280 N   0  0  0  0  0  0  0  0  0  0  0  0
   37.0440   31.3090   48.6340 C   0  0  0  0  0  0  0  0  0  0  0  0
   37.0060   32.2850   49.5740 N   0  0  0  0  0  0  0  0  0  0  0  0
   37.9360   34.0110   50.3400 H   0  0  0  0  0  0  0  0  0  0  0  0
   39.7630   34.0080   48.6980 H   0  0  0  0  0  0  0  0  0  0  0  0
   39.8180   32.1870   46.9580 H   0  0  0  0  0  0  0  0  0  0  0  0
   32.9060   29.3490   46.6990 C   0  0  0  0  0  0  0  0  0  0  0  0
   32.0600   28.2810   46.4740 C   0  0  0  0  0  0  0  0  0  0  0  0
   31.0650   28.3150   45.5070 C   0  0  0  0  0  0  0  0  0  0  0  0
   30.9100   29.4190   44.7550 N   0  0  0  0  0  0  0  0  0  0  0  0
   31.7360   30.4620   44.9720 C   0  0  0  0  0  0  0  0  0  0  0  0
   32.6830   30.4150   45.9020 N   0  0  0  0  0  0  0  0  0  0  0  0
   32.1920   27.3950   47.0850 H   0  0  0  0  0  0  0  0  0  0  0  0
   30.4600   27.4140   45.4220 H   0  0  0  0  0  0  0  0  0  0  0  0
   34.0520   31.2660   43.1510 Cl  0  0  0  0  0  0  0  0  0  0  0  0
   32.5250   32.1100   43.2850 C   0  0  0  0  0  0  0  0  0  0  0  0
   31.5500   31.6500   44.1440 C   0  0  0  0  0  0  0  0  0  0  0  0
   30.3420   32.3460   44.2280 C   0  0  0  0  0  0  0  0  0  0  0  0
   29.5420   32.0430   44.8770 H   0  0  0  0  0  0  0  0  0  0  0  0
   30.2170   33.4650   43.4240 C   0  0  0  0  0  0  0  0  0  0  0  0
   29.2860   34.0300   43.4650 H   0  0  0  0  0  0  0  0  0  0  0  0
   31.1900   33.9260   42.5620 C   0  0  0  0  0  3  0  0  0  0  0  0
   32.3980   33.2250   42.4830 C   0  0  0  0  0  3  0  0  0  0  0  0
  2  1  1  0  0  0  0
  3  2  2  0  0  0  0
  4  3  1  0  0  0  0
  5  4  2  0  0  0  0
  5  6  1  0  0  0  0
  6  9  1  0  0  0  0
  6  7  2  0  0  0  0
  7  2  1  0  0  0  0
  7 10  1  0  0  0  0
  8  4  1  0  0  0  0
 11 17  1  0  0  0  0
 12 18  1  0  0  0  0
 12 11  2  0  0  0  0
 13 14  2  0  0  0  0
 13 12  1  0  0  0  0
 14 15  1  0  0  0  0
 15  3  1  0  0  0  0
 15 16  2  0  0  0  0
 16 11  1  0  0  0  0
 19 13  1  0  0  0  0
 20  5  1  0  0  0  0
 21 20  1  0  0  0  0
 21 26  1  0  0  0  0
 22 21  2  0  0  0  0
 23 24  2  0  0  0  0
 23 22  1  0  0  0  0
 24 25  1  0  0  0  0
 25 20  2  0  0  0  0
 27 22  1  0  0  0  0
 28 29  1  0  0  0  0
 29 30  1  0  0  0  0
 30 31  2  0  0  0  0
 30 24  1  0  0  0  0
 31 32  1  0  0  0  0
 33 34  1  0  0  0  0
 33 31  1  0  0  0  0
 35 33  2  0  0  0  0
 36 35  1  0  0  0  0
 36 29  2  0  0  0  0
M  END
>  <minimizedAffinity>
-6.4650116

>  <minimizedRMSD>
0.730963111

$$$$
