
 OpenBabel03272510223D

 36 39  0  0  0  0  0  0  0  0999 V2000
   38.4410   22.0320   33.5360 Br  0  0  0  0  0  0  0  0  0  0  0  0
   37.9030   23.8490   33.3870 C   0  0  0  0  0  0  0  0  0  0  0  0
   37.9240   24.6900   34.4960 C   0  0  0  0  0  0  0  0  0  0  0  0
   37.5210   25.9910   34.3100 C   0  0  0  0  0  0  0  0  0  0  0  0
   37.1030   26.4990   33.1040 C   0  0  0  0  0  0  0  0  0  0  0  0
   37.0910   25.6480   32.0260 C   0  0  0  0  0  0  0  0  0  0  0  0
   37.4910   24.3350   32.1790 C   0  0  0  0  0  0  0  0  0  0  0  0
   37.5420   26.6310   35.1750 H   0  0  0  0  0  0  0  0  0  0  0  0
   36.7660   26.0170   31.0560 H   0  0  0  0  0  0  0  0  0  0  0  0
   37.4560   23.7200   31.2810 H   0  0  0  0  0  0  0  0  0  0  0  0
   37.8370   23.8870   38.0490 C   0  0  0  0  0  0  0  0  0  0  0  0
   39.1100   23.2940   38.2860 C   0  0  0  0  0  0  0  0  0  0  0  0
   39.9750   23.1840   37.2070 C   0  0  0  0  0  0  0  0  0  0  0  0
   39.5630   23.6440   35.9950 N   0  0  0  0  0  0  0  0  0  0  0  0
   38.3590   24.2000   35.7960 C   0  0  0  0  0  0  0  0  0  0  0  0
   37.4910   24.3210   36.8310 N   0  0  0  0  0  0  0  0  0  0  0  0
   37.1580   23.9780   38.8810 H   0  0  0  0  0  0  0  0  0  0  0  0
   39.3550   22.9550   39.2800 H   0  0  0  0  0  0  0  0  0  0  0  0
   40.9540   22.7370   37.3450 H   0  0  0  0  0  0  0  0  0  0  0  0
   36.6750   27.8780   32.9070 C   0  0  0  0  0  0  0  0  0  0  0  0
   36.8370   28.5900   31.7350 C   0  0  0  0  0  0  0  0  0  0  0  0
   36.4090   29.9040   31.6020 C   0  0  0  0  0  0  0  0  0  0  0  0
   35.8160   30.5160   32.6430 N   0  0  0  0  0  0  0  0  0  0  0  0
   35.6570   29.8220   33.7870 C   0  0  0  0  0  0  0  0  0  0  0  0
   36.0720   28.5650   33.9000 N   0  0  0  0  0  0  0  0  0  0  0  0
   37.3170   28.0900   30.9020 H   0  0  0  0  0  0  0  0  0  0  0  0
   36.5910   30.3630   30.6320 H   0  0  0  0  0  0  0  0  0  0  0  0
   32.6690   29.3270   34.1800 Cl  0  0  0  0  0  0  0  0  0  0  0  0
   33.6660   30.3600   35.1800 C   0  0  0  0  0  0  0  0  0  0  0  0
   35.0110   30.5060   34.9030 C   0  0  0  0  0  0  0  0  0  0  0  0
   35.7800   31.3370   35.7190 C   0  0  0  0  0  0  0  0  0  0  0  0
   36.8300   31.4950   35.5600 H   0  0  0  0  0  0  0  0  0  0  0  0
   35.1200   31.9610   36.7630 C   0  0  0  0  0  0  0  0  0  0  0  0
   35.6920   32.6170   37.4190 H   0  0  0  0  0  0  0  0  0  0  0  0
   33.7760   31.8170   37.0420 C   0  0  0  0  0  3  0  0  0  0  0  0
   33.0100   30.9830   36.2210 C   0  0  0  0  0  3  0  0  0  0  0  0
  2  1  1  0  0  0  0
  2  3  1  0  0  0  0
  3 15  1  0  0  0  0
  4  3  2  0  0  0  0
  4  8  1  0  0  0  0
  5  4  1  0  0  0  0
  6  7  1  0  0  0  0
  6  5  2  0  0  0  0
  7  2  2  0  0  0  0
  9  6  1  0  0  0  0
 10  7  1  0  0  0  0
 11 12  1  0  0  0  0
 11 17  1  0  0  0  0
 12 18  1  0  0  0  0
 13 19  1  0  0  0  0
 13 12  2  0  0  0  0
 14 13  1  0  0  0  0
 15 14  2  0  0  0  0
 15 16  1  0  0  0  0
 16 11  2  0  0  0  0
 20  5  1  0  0  0  0
 20 25  1  0  0  0  0
 21 20  2  0  0  0  0
 22 21  1  0  0  0  0
 22 23  2  0  0  0  0
 23 24  1  0  0  0  0
 24 25  2  0  0  0  0
 24 30  1  0  0  0  0
 26 21  1  0  0  0  0
 27 22  1  0  0  0  0
 28 29  1  0  0  0  0
 29 36  1  0  0  0  0
 30 29  2  0  0  0  0
 30 31  1  0  0  0  0
 31 33  2  0  0  0  0
 32 31  1  0  0  0  0
 33 35  1  0  0  0  0
 33 34  1  0  0  0  0
 36 35  2  0  0  0  0
M  END
>  <minimizedAffinity>
-6.82725668

$$$$

 OpenBabel03272510223D

 36 39  0  0  0  0  0  0  0  0999 V2000
   35.5080   31.6990   31.9220 Br  0  0  0  0  0  0  0  0  0  0  0  0
   36.0510   29.9270   32.3400 C   0  0  0  0  0  0  0  0  0  0  0  0
   35.8580   29.4060   33.6160 C   0  0  0  0  0  0  0  0  0  0  0  0
   36.2770   28.1160   33.8430 C   0  0  0  0  0  0  0  0  0  0  0  0
   36.8690   27.3240   32.8900 C   0  0  0  0  0  0  0  0  0  0  0  0
   37.0490   27.8620   31.6390 C   0  0  0  0  0  0  0  0  0  0  0  0
   36.6390   29.1550   31.3780 C   0  0  0  0  0  0  0  0  0  0  0  0
   36.1210   27.7250   34.8330 H   0  0  0  0  0  0  0  0  0  0  0  0
   37.5150   27.2630   30.8600 H   0  0  0  0  0  0  0  0  0  0  0  0
   36.8130   29.5140   30.3650 H   0  0  0  0  0  0  0  0  0  0  0  0
   33.2640   30.8100   35.7560 C   0  0  0  0  0  0  0  0  0  0  0  0
   33.9850   31.6850   36.6190 C   0  0  0  0  0  0  0  0  0  0  0  0
   35.3580   31.7720   36.4400 C   0  0  0  0  0  0  0  0  0  0  0  0
   35.9340   31.0220   35.4630 N   0  0  0  0  0  0  0  0  0  0  0  0
   35.2350   30.2050   34.6610 C   0  0  0  0  0  0  0  0  0  0  0  0
   33.8910   30.0990   34.8110 N   0  0  0  0  0  0  0  0  0  0  0  0
   32.1970   30.7360   35.8860 H   0  0  0  0  0  0  0  0  0  0  0  0
   33.4470   32.2420   37.3700 H   0  0  0  0  0  0  0  0  0  0  0  0
   35.9430   32.4260   37.0770 H   0  0  0  0  0  0  0  0  0  0  0  0
   37.3140   25.9580   33.1300 C   0  0  0  0  0  0  0  0  0  0  0  0
   37.4190   24.9840   32.1560 C   0  0  0  0  0  0  0  0  0  0  0  0
   37.8490   23.6950   32.4410 C   0  0  0  0  0  0  0  0  0  0  0  0
   38.1770   23.3700   33.7050 N   0  0  0  0  0  0  0  0  0  0  0  0
   38.0740   24.3190   34.6560 C   0  0  0  0  0  0  0  0  0  0  0  0
   37.6610   25.5490   34.3680 N   0  0  0  0  0  0  0  0  0  0  0  0
   37.1530   25.2540   31.1410 H   0  0  0  0  0  0  0  0  0  0  0  0
   37.8930   23.0150   31.5930 H   0  0  0  0  0  0  0  0  0  0  0  0
   40.7990   23.0020   35.0650 Cl  0  0  0  0  0  0  0  0  0  0  0  0
   39.6380   23.3440   36.3280 C   0  0  0  0  0  0  0  0  0  0  0  0
   38.4340   23.9450   36.0210 C   0  0  0  0  0  0  0  0  0  0  0  0
   37.5280   24.2040   37.0510 C   0  0  0  0  0  0  0  0  0  0  0  0
   36.5750   24.6690   36.8810 H   0  0  0  0  0  0  0  0  0  0  0  0
   37.9170   23.8310   38.3250 C   0  0  0  0  0  0  0  0  0  0  0  0
   37.2330   24.0190   39.1520 H   0  0  0  0  0  0  0  0  0  0  0  0
   39.1200   23.2300   38.6350 C   0  0  0  0  0  3  0  0  0  0  0  0
   40.0240   22.9720   37.5990 C   0  0  0  0  0  3  0  0  0  0  0  0
  1  2  1  0  0  0  0
  2  3  1  0  0  0  0
  3  4  2  0  0  0  0
  3 15  1  0  0  0  0
  4  8  1  0  0  0  0
  5 20  1  0  0  0  0
  5  4  1  0  0  0  0
  6  5  2  0  0  0  0
  7  6  1  0  0  0  0
  7  2  2  0  0  0  0
  9  6  1  0  0  0  0
 10  7  1  0  0  0  0
 11 17  1  0  0  0  0
 11 12  1  0  0  0  0
 12 18  1  0  0  0  0
 13 12  2  0  0  0  0
 13 19  1  0  0  0  0
 14 13  1  0  0  0  0
 15 16  1  0  0  0  0
 15 14  2  0  0  0  0
 16 11  2  0  0  0  0
 20 25  1  0  0  0  0
 21 22  1  0  0  0  0
 21 20  2  0  0  0  0
 22 23  2  0  0  0  0
 23 24  1  0  0  0  0
 24 30  1  0  0  0  0
 25 24  2  0  0  0  0
 26 21  1  0  0  0  0
 27 22  1  0  0  0  0
 28 29  1  0  0  0  0
 29 36  1  0  0  0  0
 30 29  2  0  0  0  0
 30 31  1  0  0  0  0
 31 33  2  0  0  0  0
 32 31  1  0  0  0  0
 33 35  1  0  0  0  0
 33 34  1  0  0  0  0
 36 35  2  0  0  0  0
M  END
>  <minimizedAffinity>
-6.81818247

$$$$

 OpenBabel03272510223D

 36 39  0  0  0  0  0  0  0  0999 V2000
   40.6240   24.2400   34.4150 Br  0  0  0  0  0  0  0  0  0  0  0  0
   39.2750   25.5400   34.0970 C   0  0  0  0  0  0  0  0  0  0  0  0
   38.1890   25.6630   34.9590 C   0  0  0  0  0  0  0  0  0  0  0  0
   37.2530   26.6260   34.6630 C   0  0  0  0  0  0  0  0  0  0  0  0
   37.3320   27.4630   33.5760 C   0  0  0  0  0  0  0  0  0  0  0  0
   38.4140   27.3210   32.7420 C   0  0  0  0  0  0  0  0  0  0  0  0
   39.3710   26.3630   33.0110 C   0  0  0  0  0  0  0  0  0  0  0  0
   36.4180   26.7110   35.3360 H   0  0  0  0  0  0  0  0  0  0  0  0
   38.5080   27.9670   31.8730 H   0  0  0  0  0  0  0  0  0  0  0  0
   40.2010   26.3090   32.3070 H   0  0  0  0  0  0  0  0  0  0  0  0
   37.6200   22.6570   36.9390 C   0  0  0  0  0  0  0  0  0  0  0  0
   37.7980   23.1060   38.2790 C   0  0  0  0  0  0  0  0  0  0  0  0
   38.1110   24.4430   38.4700 C   0  0  0  0  0  0  0  0  0  0  0  0
   38.2320   25.2450   37.3780 N   0  0  0  0  0  0  0  0  0  0  0  0
   38.0590   24.8000   36.1230 C   0  0  0  0  0  0  0  0  0  0  0  0
   37.7520   23.4970   35.9050 N   0  0  0  0  0  0  0  0  0  0  0  0
   37.3760   21.6200   36.7800 H   0  0  0  0  0  0  0  0  0  0  0  0
   37.6850   22.4010   39.0880 H   0  0  0  0  0  0  0  0  0  0  0  0
   38.2560   24.8240   39.4750 H   0  0  0  0  0  0  0  0  0  0  0  0
   36.3410   28.4840   33.2630 C   0  0  0  0  0  0  0  0  0  0  0  0
   36.0610   28.9420   31.9910 C   0  0  0  0  0  0  0  0  0  0  0  0
   35.1050   29.9180   31.7480 C   0  0  0  0  0  0  0  0  0  0  0  0
   34.4200   30.4450   32.7800 N   0  0  0  0  0  0  0  0  0  0  0  0
   34.6920   29.9990   34.0220 C   0  0  0  0  0  0  0  0  0  0  0  0
   35.6110   29.0640   34.2380 N   0  0  0  0  0  0  0  0  0  0  0  0
   36.6180   28.5130   31.1660 H   0  0  0  0  0  0  0  0  0  0  0  0
   34.9710   30.1990   30.7060 H   0  0  0  0  0  0  0  0  0  0  0  0
   36.1750   31.9570   35.8370 Cl  0  0  0  0  0  0  0  0  0  0  0  0
   34.5010   31.4810   36.0120 C   0  0  0  0  0  0  0  0  0  0  0  0
   33.9370   30.5840   35.1260 C   0  0  0  0  0  0  0  0  0  0  0  0
   32.5990   30.2230   35.2920 C   0  0  0  0  0  0  0  0  0  0  0  0
   32.1000   29.5310   34.6400 H   0  0  0  0  0  0  0  0  0  0  0  0
   31.9290   30.8060   36.3530 C   0  0  0  0  0  0  0  0  0  0  0  0
   30.8830   30.5450   36.5110 H   0  0  0  0  0  0  0  0  0  0  0  0
   32.4890   31.7020   37.2400 C   0  0  0  0  0  3  0  0  0  0  0  0
   33.8310   32.0600   37.0690 C   0  0  0  0  0  3  0  0  0  0  0  0
  2  1  1  0  0  0  0
  2  3  1  0  0  0  0
  3 15  1  0  0  0  0
  4  3  2  0  0  0  0
  4  8  1  0  0  0  0
  5  4  1  0  0  0  0
  6  7  1  0  0  0  0
  6  5  2  0  0  0  0
  7  2  2  0  0  0  0
  9  6  1  0  0  0  0
 10  7  1  0  0  0  0
 11 12  1  0  0  0  0
 12 13  2  0  0  0  0
 12 18  1  0  0  0  0
 13 19  1  0  0  0  0
 14 13  1  0  0  0  0
 15 14  2  0  0  0  0
 16 15  1  0  0  0  0
 16 11  2  0  0  0  0
 17 11  1  0  0  0  0
 20  5  1  0  0  0  0
 20 25  1  0  0  0  0
 21 20  2  0  0  0  0
 22 21  1  0  0  0  0
 22 23  2  0  0  0  0
 23 24  1  0  0  0  0
 24 25  2  0  0  0  0
 24 30  1  0  0  0  0
 26 21  1  0  0  0  0
 27 22  1  0  0  0  0
 28 29  1  0  0  0  0
 29 36  1  0  0  0  0
 30 31  1  0  0  0  0
 30 29  2  0  0  0  0
 31 33  2  0  0  0  0
 32 31  1  0  0  0  0
 33 34  1  0  0  0  0
 33 35  1  0  0  0  0
 36 35  2  0  0  0  0
M  END
>  <minimizedAffinity>
-6.50995302

$$$$

 OpenBabel03272510223D

 36 39  0  0  0  0  0  0  0  0999 V2000
   39.0890   22.5590   35.3060 Br  0  0  0  0  0  0  0  0  0  0  0  0
   38.3370   24.2000   34.7140 C   0  0  0  0  0  0  0  0  0  0  0  0
   37.8040   24.3180   33.4330 C   0  0  0  0  0  0  0  0  0  0  0  0
   37.2780   25.5370   33.0760 C   0  0  0  0  0  0  0  0  0  0  0  0
   37.2510   26.6320   33.9060 C   0  0  0  0  0  0  0  0  0  0  0  0
   37.7830   26.4890   35.1640 C   0  0  0  0  0  0  0  0  0  0  0  0
   38.3190   25.2780   35.5530 C   0  0  0  0  0  0  0  0  0  0  0  0
   36.8700   25.6150   32.0840 H   0  0  0  0  0  0  0  0  0  0  0  0
   37.7770   27.3360   35.8460 H   0  0  0  0  0  0  0  0  0  0  0  0
   38.7220   25.2390   36.5640 H   0  0  0  0  0  0  0  0  0  0  0  0
   36.6770   21.3150   31.7040 C   0  0  0  0  0  0  0  0  0  0  0  0
   37.7470   21.0270   30.8090 C   0  0  0  0  0  0  0  0  0  0  0  0
   38.8400   21.8810   30.8230 C   0  0  0  0  0  0  0  0  0  0  0  0
   38.8290   22.9360   31.6810 N   0  0  0  0  0  0  0  0  0  0  0  0
   37.8090   23.1870   32.5170 C   0  0  0  0  0  0  0  0  0  0  0  0
   36.7270   22.3700   32.5260 N   0  0  0  0  0  0  0  0  0  0  0  0
   35.8230   20.6570   31.7020 H   0  0  0  0  0  0  0  0  0  0  0  0
   37.6720   20.1680   30.1600 H   0  0  0  0  0  0  0  0  0  0  0  0
   39.6740   21.6970   30.1550 H   0  0  0  0  0  0  0  0  0  0  0  0
   36.6940   27.9240   33.5280 C   0  0  0  0  0  0  0  0  0  0  0  0
   36.7350   28.4550   32.2540 C   0  0  0  0  0  0  0  0  0  0  0  0
   36.1860   29.6930   31.9490 C   0  0  0  0  0  0  0  0  0  0  0  0
   35.5930   30.4110   32.9200 N   0  0  0  0  0  0  0  0  0  0  0  0
   35.5530   29.8950   34.1640 C   0  0  0  0  0  0  0  0  0  0  0  0
   36.0820   28.7080   34.4400 N   0  0  0  0  0  0  0  0  0  0  0  0
   37.2150   27.8690   31.4790 H   0  0  0  0  0  0  0  0  0  0  0  0
   36.2790   30.0060   30.9120 H   0  0  0  0  0  0  0  0  0  0  0  0
   32.5590   29.4610   34.5850 Cl  0  0  0  0  0  0  0  0  0  0  0  0
   33.5580   30.5830   35.4820 C   0  0  0  0  0  0  0  0  0  0  0  0
   34.9050   30.6920   35.2010 C   0  0  0  0  0  0  0  0  0  0  0  0
   35.6750   31.5970   35.9340 C   0  0  0  0  0  0  0  0  0  0  0  0
   36.7270   31.7320   35.7660 H   0  0  0  0  0  0  0  0  0  0  0  0
   35.0130   32.3270   36.9060 C   0  0  0  0  0  0  0  0  0  0  0  0
   35.5850   33.0430   37.4950 H   0  0  0  0  0  0  0  0  0  0  0  0
   33.6670   32.2200   37.1880 C   0  0  0  0  0  3  0  0  0  0  0  0
   32.9000   31.3120   36.4510 C   0  0  0  0  0  3  0  0  0  0  0  0
  2  1  1  0  0  0  0
  2  7  1  0  0  0  0
  3  2  2  0  0  0  0
  4  3  1  0  0  0  0
  4  5  2  0  0  0  0
  5  6  1  0  0  0  0
  6  7  2  0  0  0  0
  6  9  1  0  0  0  0
  7 10  1  0  0  0  0
  8  4  1  0  0  0  0
 11 16  1  0  0  0  0
 12 13  1  0  0  0  0
 12 11  2  0  0  0  0
 13 14  2  0  0  0  0
 14 15  1  0  0  0  0
 15 16  2  0  0  0  0
 15  3  1  0  0  0  0
 17 11  1  0  0  0  0
 18 12  1  0  0  0  0
 19 13  1  0  0  0  0
 20  5  1  0  0  0  0
 20 25  1  0  0  0  0
 21 20  2  0  0  0  0
 22 21  1  0  0  0  0
 22 23  2  0  0  0  0
 23 24  1  0  0  0  0
 24 25  2  0  0  0  0
 24 30  1  0  0  0  0
 26 21  1  0  0  0  0
 27 22  1  0  0  0  0
 28 29  1  0  0  0  0
 29 36  1  0  0  0  0
 30 29  2  0  0  0  0
 30 31  1  0  0  0  0
 31 33  2  0  0  0  0
 32 31  1  0  0  0  0
 33 35  1  0  0  0  0
 33 34  1  0  0  0  0
 36 35  2  0  0  0  0
M  END
>  <minimizedAffinity>
-6.35105371

$$$$

 OpenBabel03272510223D

 36 39  0  0  0  0  0  0  0  0999 V2000
   35.1150   31.4760   31.7110 Br  0  0  0  0  0  0  0  0  0  0  0  0
   35.8990   29.8010   32.1480 C   0  0  0  0  0  0  0  0  0  0  0  0
   35.8630   29.3180   33.4530 C   0  0  0  0  0  0  0  0  0  0  0  0
   36.4520   28.0980   33.6920 C   0  0  0  0  0  0  0  0  0  0  0  0
   37.0660   27.3410   32.7240 C   0  0  0  0  0  0  0  0  0  0  0  0
   37.0870   27.8410   31.4450 C   0  0  0  0  0  0  0  0  0  0  0  0
   36.5040   29.0620   31.1720 C   0  0  0  0  0  0  0  0  0  0  0  0
   36.4170   27.7360   34.7050 H   0  0  0  0  0  0  0  0  0  0  0  0
   37.5640   27.2670   30.6550 H   0  0  0  0  0  0  0  0  0  0  0  0
   36.5590   29.3940   30.1360 H   0  0  0  0  0  0  0  0  0  0  0  0
   33.2550   30.5750   35.6660 C   0  0  0  0  0  0  0  0  0  0  0  0
   33.9480   31.4940   36.5050 C   0  0  0  0  0  0  0  0  0  0  0  0
   35.3070   31.6600   36.2870 C   0  0  0  0  0  0  0  0  0  0  0  0
   35.8980   30.9420   35.2940 N   0  0  0  0  0  0  0  0  0  0  0  0
   35.2250   30.0820   34.5140 C   0  0  0  0  0  0  0  0  0  0  0  0
   33.8940   29.8990   34.7040 N   0  0  0  0  0  0  0  0  0  0  0  0
   32.1980   30.4390   35.8270 H   0  0  0  0  0  0  0  0  0  0  0  0
   33.4000   32.0210   37.2710 H   0  0  0  0  0  0  0  0  0  0  0  0
   35.8710   32.3490   36.9050 H   0  0  0  0  0  0  0  0  0  0  0  0
   37.6890   26.0490   32.9770 C   0  0  0  0  0  0  0  0  0  0  0  0
   38.9710   25.8770   33.4620 C   0  0  0  0  0  0  0  0  0  0  0  0
   39.5160   24.6200   33.6860 C   0  0  0  0  0  0  0  0  0  0  0  0
   38.7820   23.5240   33.4230 N   0  0  0  0  0  0  0  0  0  0  0  0
   37.5320   23.6900   32.9490 C   0  0  0  0  0  0  0  0  0  0  0  0
   37.0230   24.8990   32.7400 N   0  0  0  0  0  0  0  0  0  0  0  0
   39.5550   26.7660   33.6710 H   0  0  0  0  0  0  0  0  0  0  0  0
   40.5340   24.6100   34.0700 H   0  0  0  0  0  0  0  0  0  0  0  0
   37.1050   21.7430   35.2630 Cl  0  0  0  0  0  0  0  0  0  0  0  0
   36.4950   21.5340   33.6360 C   0  0  0  0  0  0  0  0  0  0  0  0
   36.7530   22.4860   32.6710 C   0  0  0  0  0  0  0  0  0  0  0  0
   36.2540   22.2910   31.3810 C   0  0  0  0  0  0  0  0  0  0  0  0
   36.4190   22.9910   30.5840 H   0  0  0  0  0  0  0  0  0  0  0  0
   35.5230   21.1360   31.1700 C   0  0  0  0  0  0  0  0  0  0  0  0
   35.1190   20.9530   30.1750 H   0  0  0  0  0  0  0  0  0  0  0  0
   35.2630   20.1830   32.1340 C   0  0  0  0  0  3  0  0  0  0  0  0
   35.7670   20.3830   33.4230 C   0  0  0  0  0  3  0  0  0  0  0  0
  1  2  1  0  0  0  0
  2  3  1  0  0  0  0
  3  4  2  0  0  0  0
  3 15  1  0  0  0  0
  4  8  1  0  0  0  0
  5 20  1  0  0  0  0
  5  4  1  0  0  0  0
  6  5  2  0  0  0  0
  7  6  1  0  0  0  0
  7  2  2  0  0  0  0
  9  6  1  0  0  0  0
 10  7  1  0  0  0  0
 11 17  1  0  0  0  0
 11 12  1  0  0  0  0
 12 18  1  0  0  0  0
 13 12  2  0  0  0  0
 13 19  1  0  0  0  0
 14 13  1  0  0  0  0
 15 16  1  0  0  0  0
 15 14  2  0  0  0  0
 16 11  2  0  0  0  0
 20 21  1  0  0  0  0
 21 26  1  0  0  0  0
 21 22  2  0  0  0  0
 22 27  1  0  0  0  0
 23 22  1  0  0  0  0
 24 23  2  0  0  0  0
 25 24  1  0  0  0  0
 25 20  2  0  0  0  0
 29 28  1  0  0  0  0
 30 24  1  0  0  0  0
 30 29  2  0  0  0  0
 31 30  1  0  0  0  0
 32 31  1  0  0  0  0
 33 31  2  0  0  0  0
 33 35  1  0  0  0  0
 34 33  1  0  0  0  0
 35 36  2  0  0  0  0
 36 29  1  0  0  0  0
M  END
>  <minimizedAffinity>
-6.32103062

$$$$

 OpenBabel03272510223D

 36 39  0  0  0  0  0  0  0  0999 V2000
   34.7360   32.7780   32.3530 Br  0  0  0  0  0  0  0  0  0  0  0  0
   35.5120   31.0450   32.4060 C   0  0  0  0  0  0  0  0  0  0  0  0
   35.4760   30.2850   33.5720 C   0  0  0  0  0  0  0  0  0  0  0  0
   36.0590   29.0400   33.5330 C   0  0  0  0  0  0  0  0  0  0  0  0
   36.6670   28.5120   32.4200 C   0  0  0  0  0  0  0  0  0  0  0  0
   36.6880   29.2830   31.2830 C   0  0  0  0  0  0  0  0  0  0  0  0
   36.1120   30.5370   31.2880 C   0  0  0  0  0  0  0  0  0  0  0  0
   36.0240   28.4630   34.4410 H   0  0  0  0  0  0  0  0  0  0  0  0
   37.1610   28.8960   30.3840 H   0  0  0  0  0  0  0  0  0  0  0  0
   36.1670   31.0900   30.3510 H   0  0  0  0  0  0  0  0  0  0  0  0
   32.9040   30.9430   36.0670 C   0  0  0  0  0  0  0  0  0  0  0  0
   33.5800   31.7350   37.0390 C   0  0  0  0  0  0  0  0  0  0  0  0
   34.9160   32.0270   36.8080 C   0  0  0  0  0  0  0  0  0  0  0  0
   35.5020   31.5430   35.6800 N   0  0  0  0  0  0  0  0  0  0  0  0
   34.8440   30.7990   34.7780 C   0  0  0  0  0  0  0  0  0  0  0  0
   33.5370   30.4970   34.9750 N   0  0  0  0  0  0  0  0  0  0  0  0
   31.8650   30.7110   36.2360 H   0  0  0  0  0  0  0  0  0  0  0  0
   33.0390   32.0760   37.9070 H   0  0  0  0  0  0  0  0  0  0  0  0
   35.4670   32.6260   37.5250 H   0  0  0  0  0  0  0  0  0  0  0  0
   37.2840   27.1930   32.3790 C   0  0  0  0  0  0  0  0  0  0  0  0
   37.7880   26.5970   31.2400 C   0  0  0  0  0  0  0  0  0  0  0  0
   38.3670   25.3360   31.2580 C   0  0  0  0  0  0  0  0  0  0  0  0
   38.4460   24.6600   32.4180 N   0  0  0  0  0  0  0  0  0  0  0  0
   37.9540   25.2400   33.5310 C   0  0  0  0  0  0  0  0  0  0  0  0
   37.4020   26.4480   33.4980 N   0  0  0  0  0  0  0  0  0  0  0  0
   37.7200   27.1490   30.3090 H   0  0  0  0  0  0  0  0  0  0  0  0
   38.7290   24.9700   30.2990 H   0  0  0  0  0  0  0  0  0  0  0  0
   38.3650   26.8480   36.0950 Cl  0  0  0  0  0  0  0  0  0  0  0  0
   38.2350   25.1060   35.9990 C   0  0  0  0  0  0  0  0  0  0  0  0
   38.0500   24.4880   34.7790 C   0  0  0  0  0  0  0  0  0  0  0  0
   37.9510   23.0970   34.7350 C   0  0  0  0  0  0  0  0  0  0  0  0
   37.8070   22.5540   33.8200 H   0  0  0  0  0  0  0  0  0  0  0  0
   38.0480   22.4320   35.9450 C   0  0  0  0  0  0  0  0  0  0  0  0
   37.9750   21.3450   35.9460 H   0  0  0  0  0  0  0  0  0  0  0  0
   38.2330   23.0460   37.1660 C   0  0  0  0  0  3  0  0  0  0  0  0
   38.3320   24.4410   37.2040 C   0  0  0  0  0  3  0  0  0  0  0  0
  1  2  1  0  0  0  0
  2  3  1  0  0  0  0
  3 15  1  0  0  0  0
  4  3  2  0  0  0  0
  4  8  1  0  0  0  0
  5  4  1  0  0  0  0
  6  7  1  0  0  0  0
  6  5  2  0  0  0  0
  7  2  2  0  0  0  0
  9  6  1  0  0  0  0
 10  7  1  0  0  0  0
 11 17  1  0  0  0  0
 11 12  1  0  0  0  0
 12 18  1  0  0  0  0
 13 12  2  0  0  0  0
 13 19  1  0  0  0  0
 14 13  1  0  0  0  0
 15 16  1  0  0  0  0
 15 14  2  0  0  0  0
 16 11  2  0  0  0  0
 20  5  1  0  0  0  0
 20 25  1  0  0  0  0
 21 22  1  0  0  0  0
 21 20  2  0  0  0  0
 22 23  2  0  0  0  0
 23 24  1  0  0  0  0
 24 30  1  0  0  0  0
 25 24  2  0  0  0  0
 26 21  1  0  0  0  0
 27 22  1  0  0  0  0
 29 28  1  0  0  0  0
 29 36  1  0  0  0  0
 30 29  2  0  0  0  0
 31 30  1  0  0  0  0
 31 33  2  0  0  0  0
 32 31  1  0  0  0  0
 33 34  1  0  0  0  0
 33 35  1  0  0  0  0
 35 36  2  0  0  0  0
M  END
>  <minimizedAffinity>
-6.28803873

$$$$

 OpenBabel03272510223D

 36 39  0  0  0  0  0  0  0  0999 V2000
   36.7950   28.8540   31.3500 Br  0  0  0  0  0  0  0  0  0  0  0  0
   37.2500   27.6750   32.7680 C   0  0  0  0  0  0  0  0  0  0  0  0
   36.7400   27.8710   34.0480 C   0  0  0  0  0  0  0  0  0  0  0  0
   37.1130   26.9760   35.0220 C   0  0  0  0  0  0  0  0  0  0  0  0
   37.9530   25.9110   34.8030 C   0  0  0  0  0  0  0  0  0  0  0  0
   38.4430   25.7400   33.5310 C   0  0  0  0  0  0  0  0  0  0  0  0
   38.0860   26.6210   32.5300 C   0  0  0  0  0  0  0  0  0  0  0  0
   36.7130   27.1390   36.0070 H   0  0  0  0  0  0  0  0  0  0  0  0
   39.1100   24.9070   33.3230 H   0  0  0  0  0  0  0  0  0  0  0  0
   38.5120   26.4220   31.5470 H   0  0  0  0  0  0  0  0  0  0  0  0
   33.7330   29.9300   34.0330 C   0  0  0  0  0  0  0  0  0  0  0  0
   34.0980   31.0550   34.8270 C   0  0  0  0  0  0  0  0  0  0  0  0
   35.3820   31.0780   35.3510 C   0  0  0  0  0  0  0  0  0  0  0  0
   36.2120   30.0350   35.0830 N   0  0  0  0  0  0  0  0  0  0  0  0
   35.8460   28.9850   34.3320 C   0  0  0  0  0  0  0  0  0  0  0  0
   34.5970   28.9340   33.8050 N   0  0  0  0  0  0  0  0  0  0  0  0
   32.7370   29.9020   33.6200 H   0  0  0  0  0  0  0  0  0  0  0  0
   33.3750   31.8390   34.9900 H   0  0  0  0  0  0  0  0  0  0  0  0
   35.6990   31.9160   35.9620 H   0  0  0  0  0  0  0  0  0  0  0  0
   38.3500   24.9630   35.8350 C   0  0  0  0  0  0  0  0  0  0  0  0
   37.5980   24.6570   36.9520 C   0  0  0  0  0  0  0  0  0  0  0  0
   38.0250   23.7430   37.9050 C   0  0  0  0  0  0  0  0  0  0  0  0
   39.2110   23.1280   37.7490 N   0  0  0  0  0  0  0  0  0  0  0  0
   39.9470   23.4260   36.6600 C   0  0  0  0  0  0  0  0  0  0  0  0
   39.5250   24.3030   35.7550 N   0  0  0  0  0  0  0  0  0  0  0  0
   36.6440   25.1570   37.0700 H   0  0  0  0  0  0  0  0  0  0  0  0
   37.3470   23.5830   38.7410 H   0  0  0  0  0  0  0  0  0  0  0  0
   42.1830   24.9690   35.2650 Cl  0  0  0  0  0  0  0  0  0  0  0  0
   42.3140   23.3430   35.8970 C   0  0  0  0  0  0  0  0  0  0  0  0
   41.2310   22.7470   36.5100 C   0  0  0  0  0  0  0  0  0  0  0  0
   41.3660   21.4480   37.0040 C   0  0  0  0  0  0  0  0  0  0  0  0
   40.5640   20.9260   37.4910 H   0  0  0  0  0  0  0  0  0  0  0  0
   42.6030   20.8490   36.8370 C   0  0  0  0  0  0  0  0  0  0  0  0
   42.7420   19.8360   37.2110 H   0  0  0  0  0  0  0  0  0  0  0  0
   43.6870   21.4430   36.2250 C   0  0  0  0  0  3  0  0  0  0  0  0
   43.5450   22.7450   35.7310 C   0  0  0  0  0  3  0  0  0  0  0  0
  1  2  1  0  0  0  0
  2  3  1  0  0  0  0
  3 15  1  0  0  0  0
  3  4  2  0  0  0  0
  4  8  1  0  0  0  0
  5  4  1  0  0  0  0
  5 20  1  0  0  0  0
  6  5  2  0  0  0  0
  7  2  2  0  0  0  0
  7  6  1  0  0  0  0
  9  6  1  0  0  0  0
 10  7  1  0  0  0  0
 11 12  1  0  0  0  0
 12 18  1  0  0  0  0
 12 13  2  0  0  0  0
 13 19  1  0  0  0  0
 14 13  1  0  0  0  0
 15 14  2  0  0  0  0
 16 11  2  0  0  0  0
 16 15  1  0  0  0  0
 17 11  1  0  0  0  0
 20 21  1  0  0  0  0
 21 26  1  0  0  0  0
 21 22  2  0  0  0  0
 22 27  1  0  0  0  0
 23 22  1  0  0  0  0
 24 23  2  0  0  0  0
 25 20  2  0  0  0  0
 25 24  1  0  0  0  0
 28 29  1  0  0  0  0
 29 30  1  0  0  0  0
 30 24  1  0  0  0  0
 30 31  2  0  0  0  0
 31 32  1  0  0  0  0
 33 31  1  0  0  0  0
 33 34  1  0  0  0  0
 35 33  2  0  0  0  0
 36 29  2  0  0  0  0
 36 35  1  0  0  0  0
M  END
>  <minimizedAffinity>
-6.27996445

$$$$

 OpenBabel03272510223D

 36 39  0  0  0  0  0  0  0  0999 V2000
   36.1840   21.9670   31.4520 Br  0  0  0  0  0  0  0  0  0  0  0  0
   36.2100   23.8550   31.6580 C   0  0  0  0  0  0  0  0  0  0  0  0
   37.1970   24.4750   32.4200 C   0  0  0  0  0  0  0  0  0  0  0  0
   37.1500   25.8450   32.5220 C   0  0  0  0  0  0  0  0  0  0  0  0
   36.1920   26.6260   31.9220 C   0  0  0  0  0  0  0  0  0  0  0  0
   35.2300   25.9900   31.1760 C   0  0  0  0  0  0  0  0  0  0  0  0
   35.2490   24.6150   31.0530 C   0  0  0  0  0  0  0  0  0  0  0  0
   37.9180   26.3110   33.1140 H   0  0  0  0  0  0  0  0  0  0  0  0
   34.4570   26.5780   30.6870 H   0  0  0  0  0  0  0  0  0  0  0  0
   34.4560   24.1800   30.4460 H   0  0  0  0  0  0  0  0  0  0  0  0
   38.8580   22.4360   34.9420 C   0  0  0  0  0  0  0  0  0  0  0  0
   40.1450   22.1970   34.3800 C   0  0  0  0  0  0  0  0  0  0  0  0
   40.4110   22.7480   33.1350 C   0  0  0  0  0  0  0  0  0  0  0  0
   39.4390   23.4790   32.5260 N   0  0  0  0  0  0  0  0  0  0  0  0
   38.2330   23.6920   33.0760 C   0  0  0  0  0  0  0  0  0  0  0  0
   37.9430   23.1650   34.2920 N   0  0  0  0  0  0  0  0  0  0  0  0
   38.6410   22.0130   35.9090 H   0  0  0  0  0  0  0  0  0  0  0  0
   40.8570   21.6040   34.9320 H   0  0  0  0  0  0  0  0  0  0  0  0
   41.3790   22.5880   32.6720 H   0  0  0  0  0  0  0  0  0  0  0  0
   36.1420   28.0780   32.0310 C   0  0  0  0  0  0  0  0  0  0  0  0
   36.5830   28.9540   31.0590 C   0  0  0  0  0  0  0  0  0  0  0  0
   36.5110   30.3310   31.2150 C   0  0  0  0  0  0  0  0  0  0  0  0
   35.9960   30.8430   32.3480 N   0  0  0  0  0  0  0  0  0  0  0  0
   35.5650   29.9890   33.2970 C   0  0  0  0  0  0  0  0  0  0  0  0
   35.6410   28.6730   33.1340 N   0  0  0  0  0  0  0  0  0  0  0  0
   36.9970   28.5330   30.1500 H   0  0  0  0  0  0  0  0  0  0  0  0
   36.8890   30.9210   30.3830 H   0  0  0  0  0  0  0  0  0  0  0  0
   32.5710   29.6180   33.7760 Cl  0  0  0  0  0  0  0  0  0  0  0  0
   33.6720   30.4630   34.8420 C   0  0  0  0  0  0  0  0  0  0  0  0
   35.0100   30.5660   34.5180 C   0  0  0  0  0  0  0  0  0  0  0  0
   35.8630   31.2480   35.3880 C   0  0  0  0  0  0  0  0  0  0  0  0
   36.9130   31.3650   35.1970 H   0  0  0  0  0  0  0  0  0  0  0  0
   35.2880   31.7750   36.5310 C   0  0  0  0  0  0  0  0  0  0  0  0
   35.9260   32.3130   37.2310 H   0  0  0  0  0  0  0  0  0  0  0  0
   33.9510   31.6730   36.8570 C   0  0  0  0  0  3  0  0  0  0  0  0
   33.1000   30.9900   35.9810 C   0  0  0  0  0  3  0  0  0  0  0  0
  1  2  1  0  0  0  0
  2  3  1  0  0  0  0
  3  4  2  0  0  0  0
  3 15  1  0  0  0  0
  4  8  1  0  0  0  0
  5 20  1  0  0  0  0
  5  4  1  0  0  0  0
  6  5  2  0  0  0  0
  7  6  1  0  0  0  0
  7  2  2  0  0  0  0
  9  6  1  0  0  0  0
 10  7  1  0  0  0  0
 11 17  1  0  0  0  0
 12 18  1  0  0  0  0
 12 11  1  0  0  0  0
 13 12  2  0  0  0  0
 14 15  2  0  0  0  0
 14 13  1  0  0  0  0
 15 16  1  0  0  0  0
 16 11  2  0  0  0  0
 19 13  1  0  0  0  0
 20 25  1  0  0  0  0
 21 22  1  0  0  0  0
 21 20  2  0  0  0  0
 22 23  2  0  0  0  0
 23 24  1  0  0  0  0
 24 30  1  0  0  0  0
 25 24  2  0  0  0  0
 26 21  1  0  0  0  0
 27 22  1  0  0  0  0
 28 29  1  0  0  0  0
 29 36  1  0  0  0  0
 30 29  2  0  0  0  0
 30 31  1  0  0  0  0
 31 33  2  0  0  0  0
 32 31  1  0  0  0  0
 33 35  1  0  0  0  0
 33 34  1  0  0  0  0
 36 35  2  0  0  0  0
M  END
>  <minimizedAffinity>
-6.23400831

$$$$

 OpenBabel03272510223D

 36 39  0  0  0  0  0  0  0  0999 V2000
   39.4630   23.3220   35.1090 Br  0  0  0  0  0  0  0  0  0  0  0  0
   38.4690   24.8530   34.5810 C   0  0  0  0  0  0  0  0  0  0  0  0
   37.7910   24.8760   33.3650 C   0  0  0  0  0  0  0  0  0  0  0  0
   37.0940   26.0190   33.0520 C   0  0  0  0  0  0  0  0  0  0  0  0
   37.0310   27.1260   33.8640 C   0  0  0  0  0  0  0  0  0  0  0  0
   37.7090   27.0760   35.0580 C   0  0  0  0  0  0  0  0  0  0  0  0
   38.4190   25.9430   35.4020 C   0  0  0  0  0  0  0  0  0  0  0  0
   36.5740   26.0250   32.1100 H   0  0  0  0  0  0  0  0  0  0  0  0
   37.6810   27.9340   35.7250 H   0  0  0  0  0  0  0  0  0  0  0  0
   38.9310   25.9760   36.3630 H   0  0  0  0  0  0  0  0  0  0  0  0
   36.8620   21.6990   31.8430 C   0  0  0  0  0  0  0  0  0  0  0  0
   37.8280   21.5310   30.8110 C   0  0  0  0  0  0  0  0  0  0  0  0
   38.7850   22.5240   30.6630 C   0  0  0  0  0  0  0  0  0  0  0  0
   38.7470   23.5930   31.5030 N   0  0  0  0  0  0  0  0  0  0  0  0
   37.8260   23.7300   32.4690 C   0  0  0  0  0  0  0  0  0  0  0  0
   36.8780   22.7750   32.6380 N   0  0  0  0  0  0  0  0  0  0  0  0
   36.1140   20.9320   31.9670 H   0  0  0  0  0  0  0  0  0  0  0  0
   37.7840   20.6510   30.1880 H   0  0  0  0  0  0  0  0  0  0  0  0
   39.5380   22.4340   29.8880 H   0  0  0  0  0  0  0  0  0  0  0  0
   36.2930   28.3360   33.5330 C   0  0  0  0  0  0  0  0  0  0  0  0
   36.1710   28.8580   32.2600 C   0  0  0  0  0  0  0  0  0  0  0  0
   35.4530   30.0180   32.0010 C   0  0  0  0  0  0  0  0  0  0  0  0
   34.8520   30.6660   33.0150 N   0  0  0  0  0  0  0  0  0  0  0  0
   34.9710   30.1590   34.2580 C   0  0  0  0  0  0  0  0  0  0  0  0
   35.6610   29.0470   34.4910 N   0  0  0  0  0  0  0  0  0  0  0  0
   36.6580   28.3300   31.4490 H   0  0  0  0  0  0  0  0  0  0  0  0
   35.4260   30.3320   30.9590 H   0  0  0  0  0  0  0  0  0  0  0  0
   36.5650   32.3740   35.6290 Cl  0  0  0  0  0  0  0  0  0  0  0  0
   34.9310   31.8980   36.0370 C   0  0  0  0  0  0  0  0  0  0  0  0
   34.3120   30.8780   35.3430 C   0  0  0  0  0  0  0  0  0  0  0  0
   33.0080   30.5200   35.6930 C   0  0  0  0  0  0  0  0  0  0  0  0
   32.4690   29.7370   35.1950 H   0  0  0  0  0  0  0  0  0  0  0  0
   32.4280   31.2330   36.7280 C   0  0  0  0  0  0  0  0  0  0  0  0
   31.4110   30.9790   37.0260 H   0  0  0  0  0  0  0  0  0  0  0  0
   33.0450   32.2530   37.4220 C   0  0  0  0  0  3  0  0  0  0  0  0
   34.3520   32.6070   37.0680 C   0  0  0  0  0  3  0  0  0  0  0  0
  2  1  1  0  0  0  0
  2  7  1  0  0  0  0
  3  2  2  0  0  0  0
  4  3  1  0  0  0  0
  4  5  2  0  0  0  0
  5  6  1  0  0  0  0
  6  7  2  0  0  0  0
  6  9  1  0  0  0  0
  7 10  1  0  0  0  0
  8  4  1  0  0  0  0
 11 17  1  0  0  0  0
 11 16  1  0  0  0  0
 12 11  2  0  0  0  0
 13 12  1  0  0  0  0
 13 14  2  0  0  0  0
 14 15  1  0  0  0  0
 15 16  2  0  0  0  0
 15  3  1  0  0  0  0
 18 12  1  0  0  0  0
 19 13  1  0  0  0  0
 20  5  1  0  0  0  0
 20 25  1  0  0  0  0
 21 20  2  0  0  0  0
 22 21  1  0  0  0  0
 22 23  2  0  0  0  0
 23 24  1  0  0  0  0
 24 25  2  0  0  0  0
 24 30  1  0  0  0  0
 26 21  1  0  0  0  0
 27 22  1  0  0  0  0
 28 29  1  0  0  0  0
 29 36  1  0  0  0  0
 30 31  1  0  0  0  0
 30 29  2  0  0  0  0
 31 33  2  0  0  0  0
 32 31  1  0  0  0  0
 33 34  1  0  0  0  0
 33 35  1  0  0  0  0
 36 35  2  0  0  0  0
M  END
>  <minimizedAffinity>
-6.08152723

$$$$
