
 OpenBabel03272507103D

 27 29  0  0  0  0  0  0  0  0999 V2000
   36.0090   29.6690   49.8470 C   0  0  0  0  0  0  0  0  0  0  0  0
   34.9260   29.5630   50.6800 C   0  0  0  0  0  0  0  0  0  0  0  0
   33.9410   28.8600   49.9720 C   0  0  0  0  0  0  0  0  0  0  0  0
   34.5000   28.5810   48.7400 C   0  0  0  0  0  0  0  0  0  0  0  0
   35.7060   29.0760   48.7250 O   0  0  0  0  0  0  0  0  0  0  0  0
   34.7100   29.8930   51.6900 H   0  0  0  0  0  0  0  0  0  0  0  0
   32.9400   28.5330   50.1880 H   0  0  0  0  0  0  0  0  0  0  0  0
   33.3560   30.3700   46.5830 Cl  0  0  0  0  0  0  0  0  0  0  0  0
   33.3620   28.6100   46.5890 C   0  0  0  0  0  0  0  0  0  0  0  0
   33.9050   27.8650   47.6140 C   0  0  0  0  0  0  0  0  0  0  0  0
   33.9040   26.4810   47.6060 C   0  0  0  0  0  0  0  0  0  0  0  0
   34.3300   25.9070   48.4100 H   0  0  0  0  0  0  0  0  0  0  0  0
   33.3280   25.8290   46.5160 C   0  0  0  0  0  0  0  0  0  0  0  0
   33.2840   24.7550   46.4280 H   0  0  0  0  0  0  0  0  0  0  0  0
   32.7940   26.6050   45.5070 C   0  0  0  0  0  0  0  0  0  0  0  0
   32.7820   27.9900   45.4890 C   0  0  0  0  0  0  0  0  0  0  0  0
   37.2240   30.3440   50.2550 C   0  0  0  0  0  0  0  0  0  0  0  0
   37.6290   30.1940   51.4350 O   0  0  0  0  0  0  0  0  0  0  0  0
   37.9040   31.1560   49.2710 C   0  0  0  0  0  0  0  0  0  0  0  0
   38.2340   32.4540   49.6350 C   0  0  0  0  0  0  0  0  0  0  0  0
   38.8920   33.2570   48.6980 C   0  0  0  0  0  0  0  0  0  0  0  0
   39.1690   32.7120   47.4810 N   0  0  0  0  0  0  0  0  0  0  0  0
   38.8440   31.4560   47.1480 C   0  0  0  0  0  0  0  0  0  0  0  0
   38.2140   30.6890   48.0440 N   0  0  0  0  0  0  0  0  0  0  0  0
   37.9950   32.8470   50.6120 H   0  0  0  0  0  0  0  0  0  0  0  0
   39.1780   34.2810   48.9170 H   0  0  0  0  0  0  0  0  0  0  0  0
   39.1040   31.1020   46.1510 H   0  0  0  0  0  0  0  0  0  0  0  0
  1 17  1  0  0  0  0
  1  2  2  0  0  0  0
  2  6  1  0  0  0  0
  3  7  1  0  0  0  0
  3  2  1  0  0  0  0
  4  3  2  0  0  0  0
  5  4  1  0  0  0  0
  5  1  1  0  0  0  0
  8  9  1  0  0  0  0
  9 10  1  0  0  0  0
 10  4  1  0  0  0  0
 11 10  2  0  0  0  0
 11 12  1  0  0  0  0
 13 11  1  0  0  0  0
 14 13  1  0  0  0  0
 15 13  2  0  0  0  0
 16 15  1  0  0  0  0
 16  9  2  0  0  0  0
 17 18  2  0  0  0  0
 19 20  1  0  0  0  0
 19 17  1  0  0  0  0
 20 25  1  0  0  0  0
 21 26  1  0  0  0  0
 21 20  2  0  0  0  0
 22 21  1  0  0  0  0
 23 22  2  0  0  0  0
 23 24  1  0  0  0  0
 24 19  2  0  0  0  0
 27 23  1  0  0  0  0
M  END
>  <minimizedAffinity>
-5.61825848

>  <minimizedRMSD>
1.68895805

$$$$
