
 OpenBabel03272507023D

 46 49  0  0  1  0  0  0  0  0999 V2000
   38.7830   26.2880   35.5090 C   0  0  2  0  0  0  0  0  0  0  0  0
   37.7530   26.2200   34.4410 C   0  0  0  0  0  0  0  0  0  0  0  0
   38.3350   25.8640   33.0850 C   0  0  2  0  0  0  0  0  0  0  0  0
   39.4050   26.8270   32.6720 C   0  0  0  0  0  0  0  0  0  0  0  0
   40.3580   27.1660   33.7660 C   0  0  0  0  0  0  0  0  0  0  0  0
   40.1970   26.2910   34.9800 C   0  0  0  0  0  0  0  0  0  0  0  0
   38.7210   27.2210   36.1460 H   0  0  0  0  0  0  0  0  0  0  0  0
   37.2860   27.2550   34.3980 H   0  0  0  0  0  0  0  0  0  0  0  0
   36.9120   25.5450   34.5620 H   0  0  0  0  0  0  0  0  0  0  0  0
   38.8040   24.8670   33.2040 H   0  0  0  0  0  0  0  0  0  0  0  0
   39.0220   27.7970   32.3090 H   0  0  0  0  0  0  0  0  0  0  0  0
   39.9770   26.3700   31.8410 H   0  0  0  0  0  0  0  0  0  0  0  0
   40.2160   28.2150   34.1270 H   0  0  0  0  0  0  0  0  0  0  0  0
   41.4180   27.1110   33.4450 H   0  0  0  0  0  0  0  0  0  0  0  0
   40.8650   26.6240   35.7770 H   0  0  0  0  0  0  0  0  0  0  0  0
   40.4010   25.2290   34.6590 H   0  0  0  0  0  0  0  0  0  0  0  0
   37.3440   25.7840   32.0740 N   0  0  1  0  0  0  0  0  0  0  0  0
   36.7600   24.4650   31.9500 C   0  0  0  0  0  0  0  0  0  0  0  0
   35.7420   24.6900   30.8410 C   0  0  0  0  0  0  0  0  0  0  0  0
   35.2080   26.0490   31.1850 C   0  0  0  0  0  0  0  0  0  0  0  0
   36.2860   26.6830   32.0850 C   0  0  2  0  0  0  0  0  0  0  0  0
   36.2740   24.0920   32.8510 H   0  0  0  0  0  0  0  0  0  0  0  0
   37.5090   23.7490   31.5270 H   0  0  0  0  0  0  0  0  0  0  0  0
   36.1430   24.5570   29.8470 H   0  0  0  0  0  0  0  0  0  0  0  0
   34.9410   23.9250   31.0410 H   0  0  0  0  0  0  0  0  0  0  0  0
   34.2410   25.9550   31.7160 H   0  0  0  0  0  0  0  0  0  0  0  0
   35.0340   26.5790   30.2550 H   0  0  0  0  0  0  0  0  0  0  0  0
   35.8000   26.8780   33.0490 H   0  0  0  0  0  0  0  0  0  0  0  0
   35.6990   29.2650   33.6510 Cl  0  0  0  0  0  0  0  0  0  0  0  0
   36.2730   29.2700   32.0000 C   0  0  0  0  0  0  0  0  0  0  0  0
   36.4920   28.0130   31.4220 C   0  0  0  0  0  0  0  0  0  0  0  0
   36.9490   28.0720   30.0990 C   0  0  0  0  0  0  0  0  0  0  0  0
   37.1350   27.1100   29.6030 H   0  0  0  0  0  0  0  0  0  0  0  0
   37.1820   29.2070   29.3740 C   0  0  0  0  0  0  0  0  0  0  0  0
   37.5360   29.1260   28.3520 H   0  0  0  0  0  0  0  0  0  0  0  0
   36.9490   30.4050   29.9900 C   0  0  0  0  0  3  0  0  0  0  0  0
   36.5060   30.4180   31.2740 C   0  0  0  0  0  3  0  0  0  0  0  0
   38.6860   25.1650   36.4720 C   0  0  0  0  0  0  0  0  0  0  0  0
   39.3870   24.0150   36.1010 C   0  0  0  0  0  0  0  0  0  0  0  0
   39.3330   22.9320   36.9940 C   0  0  0  0  0  0  0  0  0  0  0  0
   38.6110   23.0490   38.1630 N   0  0  0  0  0  0  0  0  0  0  0  0
   37.9460   24.1940   38.4760 C   0  0  0  0  0  0  0  0  0  0  0  0
   37.9960   25.2120   37.6370 N   0  0  0  0  0  0  0  0  0  0  0  0
   39.9890   23.6550   35.2940 H   0  0  0  0  0  0  0  0  0  0  0  0
   39.7710   21.9580   36.9510 H   0  0  0  0  0  0  0  0  0  0  0  0
   37.3840   24.2650   39.4000 H   0  0  0  0  0  0  0  0  0  0  0  0
  1  7  1  1  0  0  0
  1 38  1  0  0  0  0
  2  9  1  0  0  0  0
  2  1  1  0  0  0  0
  3 10  1  1  0  0  0
  3  2  1  0  0  0  0
  4  3  1  0  0  0  0
  4  5  1  0  0  0  0
  5 13  1  0  0  0  0
  5  6  1  0  0  0  0
  6  1  1  0  0  0  0
  6 15  1  0  0  0  0
  8  2  1  0  0  0  0
 11  4  1  0  0  0  0
 12  4  1  0  0  0  0
 14  5  1  0  0  0  0
 16  6  1  0  0  0  0
 17 18  1  1  0  0  0
 17 21  1  0  0  0  0
 17  3  1  0  0  0  0
 18 22  1  0  0  0  0
 19 25  1  0  0  0  0
 19 20  1  0  0  0  0
 19 18  1  0  0  0  0
 20 26  1  0  0  0  0
 20 21  1  0  0  0  0
 21 28  1  1  0  0  0
 23 18  1  0  0  0  0
 24 19  1  0  0  0  0
 27 20  1  0  0  0  0
 30 29  1  0  0  0  0
 31 30  1  0  0  0  0
 31 21  1  0  0  0  0
 32 31  2  0  0  0  0
 33 32  1  0  0  0  0
 34 36  2  0  0  0  0
 34 32  1  0  0  0  0
 35 34  1  0  0  0  0
 36 37  1  0  0  0  0
 37 30  2  0  0  0  0
 38 43  1  0  0  0  0
 39 38  2  0  0  0  0
 39 40  1  0  0  0  0
 40 41  2  0  0  0  0
 41 42  1  0  0  0  0
 42 46  1  0  0  0  0
 43 42  2  0  0  0  0
 44 39  1  0  0  0  0
 45 40  1  0  0  0  0
M  END
>  <minimizedAffinity>
-6.03946686

$$$$

 OpenBabel03272507023D

 46 49  0  0  1  0  0  0  0  0999 V2000
   36.8170   23.0300   31.1630 C   0  0  2  0  0  0  0  0  0  0  0  0
   37.9800   23.6980   31.8020 C   0  0  0  0  0  0  0  0  0  0  0  0
   37.5700   24.7770   32.7890 C   0  0  2  0  0  0  0  0  0  0  0  0
   36.7030   25.8140   32.1460 C   0  0  0  0  0  0  0  0  0  0  0  0
   35.6450   25.2450   31.2640 C   0  0  0  0  0  0  0  0  0  0  0  0
   35.5110   23.7510   31.3930 C   0  0  0  0  0  0  0  0  0  0  0  0
   36.8970   22.9490   30.0380 H   0  0  0  0  0  0  0  0  0  0  0  0
   38.5730   24.1630   30.9510 H   0  0  0  0  0  0  0  0  0  0  0  0
   38.7030   23.0960   32.3410 H   0  0  0  0  0  0  0  0  0  0  0  0
   36.9690   24.2670   33.5680 H   0  0  0  0  0  0  0  0  0  0  0  0
   37.2530   26.5320   31.5130 H   0  0  0  0  0  0  0  0  0  0  0  0
   36.2100   26.3970   32.9490 H   0  0  0  0  0  0  0  0  0  0  0  0
   35.8590   25.4390   30.1840 H   0  0  0  0  0  0  0  0  0  0  0  0
   34.6460   25.6930   31.4470 H   0  0  0  0  0  0  0  0  0  0  0  0
   34.7760   23.3750   30.6780 H   0  0  0  0  0  0  0  0  0  0  0  0
   35.2280   23.5300   32.4620 H   0  0  0  0  0  0  0  0  0  0  0  0
   38.6850   25.3970   33.4060 N   0  0  1  0  0  0  0  0  0  0  0  0
   38.8940   26.7620   32.9700 C   0  0  0  0  0  0  0  0  0  0  0  0
   40.1060   27.1610   33.8000 C   0  0  0  0  0  0  0  0  0  0  0  0
   39.8030   26.5120   35.1190 C   0  0  0  0  0  0  0  0  0  0  0  0
   38.7790   25.4080   34.7910 C   0  0  2  0  0  0  0  0  0  0  0  0
   38.0580   27.4360   33.1570 H   0  0  0  0  0  0  0  0  0  0  0  0
   39.2420   26.7790   31.9060 H   0  0  0  0  0  0  0  0  0  0  0  0
   41.0500   26.9170   33.3380 H   0  0  0  0  0  0  0  0  0  0  0  0
   40.0080   28.2770   33.9150 H   0  0  0  0  0  0  0  0  0  0  0  0
   39.3840   27.2580   35.8220 H   0  0  0  0  0  0  0  0  0  0  0  0
   40.7380   26.1470   35.5270 H   0  0  0  0  0  0  0  0  0  0  0  0
   37.8720   25.6590   35.3550 H   0  0  0  0  0  0  0  0  0  0  0  0
   37.9370   24.6740   37.6580 Cl  0  0  0  0  0  0  0  0  0  0  0  0
   39.1150   23.7520   36.7520 C   0  0  0  0  0  0  0  0  0  0  0  0
   39.3940   24.2140   35.4600 C   0  0  0  0  0  0  0  0  0  0  0  0
   40.3450   23.4430   34.7780 C   0  0  0  0  0  0  0  0  0  0  0  0
   40.5970   23.7670   33.7590 H   0  0  0  0  0  0  0  0  0  0  0  0
   40.9830   22.3350   35.2600 C   0  0  0  0  0  0  0  0  0  0  0  0
   41.7040   21.8190   34.6360 H   0  0  0  0  0  0  0  0  0  0  0  0
   40.6710   21.9320   36.5280 C   0  0  0  0  0  3  0  0  0  0  0  0
   39.7550   22.6350   37.2440 C   0  0  0  0  0  3  0  0  0  0  0  0
   36.6280   21.6370   31.6320 C   0  0  0  0  0  0  0  0  0  0  0  0
   35.4380   21.4110   32.3280 C   0  0  0  0  0  0  0  0  0  0  0  0
   35.2140   20.0980   32.7770 C   0  0  0  0  0  0  0  0  0  0  0  0
   36.1500   19.1200   32.5170 N   0  0  0  0  0  0  0  0  0  0  0  0
   37.2930   19.3960   31.8330 C   0  0  0  0  0  0  0  0  0  0  0  0
   37.5060   20.6280   31.4110 N   0  0  0  0  0  0  0  0  0  0  0  0
   34.5800   21.9500   32.6690 H   0  0  0  0  0  0  0  0  0  0  0  0
   34.4010   19.6670   33.3210 H   0  0  0  0  0  0  0  0  0  0  0  0
   38.0170   18.6120   31.6400 H   0  0  0  0  0  0  0  0  0  0  0  0
  1  7  1  6  0  0  0
  1  6  1  0  0  0  0
  1 38  1  0  0  0  0
  1  2  1  0  0  0  0
  2  9  1  0  0  0  0
  2  3  1  0  0  0  0
  3 17  1  0  0  0  0
  3 10  1  1  0  0  0
  4  3  1  0  0  0  0
  4 12  1  0  0  0  0
  5  6  1  0  0  0  0
  5 14  1  0  0  0  0
  5  4  1  0  0  0  0
  6 16  1  0  0  0  0
  8  2  1  0  0  0  0
 11  4  1  0  0  0  0
 13  5  1  0  0  0  0
 15  6  1  0  0  0  0
 17 18  1  1  0  0  0
 17 21  1  0  0  0  0
 18 22  1  0  0  0  0
 18 19  1  0  0  0  0
 19 25  1  0  0  0  0
 19 20  1  0  0  0  0
 20 27  1  0  0  0  0
 20 26  1  0  0  0  0
 21 20  1  0  0  0  0
 21 28  1  1  0  0  0
 21 31  1  0  0  0  0
 23 18  1  0  0  0  0
 24 19  1  0  0  0  0
 30 37  1  0  0  0  0
 30 29  1  0  0  0  0
 31 30  2  0  0  0  0
 32 34  2  0  0  0  0
 32 31  1  0  0  0  0
 33 32  1  0  0  0  0
 34 36  1  0  0  0  0
 35 34  1  0  0  0  0
 36 37  2  0  0  0  0
 38 39  1  0  0  0  0
 39 44  1  0  0  0  0
 39 40  2  0  0  0  0
 40 45  1  0  0  0  0
 41 40  1  0  0  0  0
 42 41  2  0  0  0  0
 43 38  2  0  0  0  0
 43 42  1  0  0  0  0
 46 42  1  0  0  0  0
M  END
>  <minimizedAffinity>
-5.99828959

$$$$

 OpenBabel03272507023D

 46 49  0  0  1  0  0  0  0  0999 V2000
   37.8750   22.5550   31.8950 C   0  0  2  0  0  0  0  0  0  0  0  0
   38.3230   23.3590   33.0610 C   0  0  0  0  0  0  0  0  0  0  0  0
   37.7780   24.7770   33.0420 C   0  0  2  0  0  0  0  0  0  0  0  0
   38.1490   25.4940   31.7810 C   0  0  0  0  0  0  0  0  0  0  0  0
   37.9750   24.6700   30.5520 C   0  0  0  0  0  0  0  0  0  0  0  0
   37.2380   23.3820   30.8050 C   0  0  0  0  0  0  0  0  0  0  0  0
   38.7110   22.0000   31.3740 H   0  0  0  0  0  0  0  0  0  0  0  0
   39.4570   23.3840   33.0000 H   0  0  0  0  0  0  0  0  0  0  0  0
   38.1110   23.0000   34.0620 H   0  0  0  0  0  0  0  0  0  0  0  0
   36.6750   24.6820   33.0670 H   0  0  0  0  0  0  0  0  0  0  0  0
   39.1960   25.8430   31.7520 H   0  0  0  0  0  0  0  0  0  0  0  0
   37.5030   26.3910   31.6930 H   0  0  0  0  0  0  0  0  0  0  0  0
   38.9600   24.3750   30.1100 H   0  0  0  0  0  0  0  0  0  0  0  0
   37.4450   25.2120   29.7420 H   0  0  0  0  0  0  0  0  0  0  0  0
   37.2000   22.7840   29.8920 H   0  0  0  0  0  0  0  0  0  0  0  0
   36.2130   23.6510   31.1890 H   0  0  0  0  0  0  0  0  0  0  0  0
   38.1960   25.5320   34.1660 N   0  0  1  0  0  0  0  0  0  0  0  0
   37.4950   26.7920   34.3010 C   0  0  0  0  0  0  0  0  0  0  0  0
   38.1190   27.3480   35.5720 C   0  0  0  0  0  0  0  0  0  0  0  0
   38.2420   26.1170   36.4200 C   0  0  0  0  0  0  0  0  0  0  0  0
   38.1920   24.9430   35.4230 C   0  0  2  0  0  0  0  0  0  0  0  0
   36.4140   26.7060   34.4060 H   0  0  0  0  0  0  0  0  0  0  0  0
   37.8020   27.4950   33.4850 H   0  0  0  0  0  0  0  0  0  0  0  0
   39.0190   27.9200   35.4020 H   0  0  0  0  0  0  0  0  0  0  0  0
   37.3180   28.0090   36.0080 H   0  0  0  0  0  0  0  0  0  0  0  0
   37.4060   26.0690   37.1450 H   0  0  0  0  0  0  0  0  0  0  0  0
   39.1700   26.1920   36.9750 H   0  0  0  0  0  0  0  0  0  0  0  0
   37.3110   24.3490   35.6970 H   0  0  0  0  0  0  0  0  0  0  0  0
   40.9550   25.7080   34.3050 Cl  0  0  0  0  0  0  0  0  0  0  0  0
   40.7170   24.3730   35.4100 C   0  0  0  0  0  0  0  0  0  0  0  0
   39.3990   24.1490   35.8270 C   0  0  0  0  0  0  0  0  0  0  0  0
   39.2620   23.0680   36.7080 C   0  0  0  0  0  0  0  0  0  0  0  0
   38.2460   22.8530   37.0650 H   0  0  0  0  0  0  0  0  0  0  0  0
   40.2690   22.2630   37.1620 C   0  0  0  0  0  0  0  0  0  0  0  0
   40.0390   21.4530   37.8450 H   0  0  0  0  0  0  0  0  0  0  0  0
   41.5340   22.5290   36.7190 C   0  0  0  0  0  3  0  0  0  0  0  0
   41.7360   23.5640   35.8630 C   0  0  0  0  0  3  0  0  0  0  0  0
   36.8960   21.5050   32.2650 C   0  0  0  0  0  0  0  0  0  0  0  0
   36.5290   20.6530   31.2220 C   0  0  0  0  0  0  0  0  0  0  0  0
   35.6140   19.6340   31.5360 C   0  0  0  0  0  0  0  0  0  0  0  0
   35.1330   19.5230   32.8230 N   0  0  0  0  0  0  0  0  0  0  0  0
   35.5240   20.3820   33.8030 C   0  0  0  0  0  0  0  0  0  0  0  0
   36.3840   21.3400   33.5100 N   0  0  0  0  0  0  0  0  0  0  0  0
   36.7220   20.5150   30.1780 H   0  0  0  0  0  0  0  0  0  0  0  0
   35.1800   18.8640   30.9340 H   0  0  0  0  0  0  0  0  0  0  0  0
   35.1330   20.2780   34.8090 H   0  0  0  0  0  0  0  0  0  0  0  0
  1  7  1  6  0  0  0
  1 38  1  0  0  0  0
  1  2  1  0  0  0  0
  2  9  1  0  0  0  0
  3  2  1  0  0  0  0
  3 10  1  1  0  0  0
  3 17  1  0  0  0  0
  4  3  1  0  0  0  0
  5  6  1  0  0  0  0
  5  4  1  0  0  0  0
  6 16  1  0  0  0  0
  6  1  1  0  0  0  0
  8  2  1  0  0  0  0
 11  4  1  0  0  0  0
 12  4  1  0  0  0  0
 13  5  1  0  0  0  0
 14  5  1  0  0  0  0
 15  6  1  0  0  0  0
 17 18  1  1  0  0  0
 17 21  1  0  0  0  0
 18 22  1  0  0  0  0
 18 19  1  0  0  0  0
 19 25  1  0  0  0  0
 19 20  1  0  0  0  0
 20 27  1  0  0  0  0
 20 26  1  0  0  0  0
 21 28  1  1  0  0  0
 21 31  1  0  0  0  0
 21 20  1  0  0  0  0
 23 18  1  0  0  0  0
 24 19  1  0  0  0  0
 29 30  1  0  0  0  0
 30 31  2  0  0  0  0
 30 37  1  0  0  0  0
 31 32  1  0  0  0  0
 32 33  1  0  0  0  0
 32 34  2  0  0  0  0
 34 35  1  0  0  0  0
 36 34  1  0  0  0  0
 37 36  2  0  0  0  0
 38 43  1  0  0  0  0
 39 40  1  0  0  0  0
 39 38  2  0  0  0  0
 40 41  2  0  0  0  0
 41 42  1  0  0  0  0
 42 46  1  0  0  0  0
 43 42  2  0  0  0  0
 44 39  1  0  0  0  0
 45 40  1  0  0  0  0
M  END
>  <minimizedAffinity>
-5.84531212

$$$$

 OpenBabel03272507023D

 46 49  0  0  1  0  0  0  0  0999 V2000
   38.6050   22.5390   33.8360 C   0  0  2  0  0  0  0  0  0  0  0  0
   38.6680   23.8340   33.1100 C   0  0  0  0  0  0  0  0  0  0  0  0
   37.2950   24.3800   32.7610 C   0  0  2  0  0  0  0  0  0  0  0  0
   36.5010   23.4030   31.9500 C   0  0  0  0  0  0  0  0  0  0  0  0
   36.5800   22.0030   32.4570 C   0  0  0  0  0  0  0  0  0  0  0  0
   37.2370   21.9020   33.8070 C   0  0  0  0  0  0  0  0  0  0  0  0
   39.2920   21.7460   33.4170 H   0  0  0  0  0  0  0  0  0  0  0  0
   39.2500   23.6240   32.1570 H   0  0  0  0  0  0  0  0  0  0  0  0
   39.1850   24.6700   33.5680 H   0  0  0  0  0  0  0  0  0  0  0  0
   36.7690   24.5280   33.7250 H   0  0  0  0  0  0  0  0  0  0  0  0
   36.8030   23.3460   30.8900 H   0  0  0  0  0  0  0  0  0  0  0  0
   35.4390   23.7210   31.9710 H   0  0  0  0  0  0  0  0  0  0  0  0
   37.1830   21.3520   31.7750 H   0  0  0  0  0  0  0  0  0  0  0  0
   35.5870   21.5130   32.5230 H   0  0  0  0  0  0  0  0  0  0  0  0
   37.3360   20.8540   34.1010 H   0  0  0  0  0  0  0  0  0  0  0  0
   36.6100   22.4970   34.5310 H   0  0  0  0  0  0  0  0  0  0  0  0
   37.3630   25.6230   32.0830 N   0  0  1  0  0  0  0  0  0  0  0  0
   36.1180   25.9940   31.4430 C   0  0  0  0  0  0  0  0  0  0  0  0
   36.4820   27.3440   30.8410 C   0  0  0  0  0  0  0  0  0  0  0  0
   37.3280   27.9470   31.9230 C   0  0  0  0  0  0  0  0  0  0  0  0
   37.8040   26.7480   32.7670 C   0  0  2  0  0  0  0  0  0  0  0  0
   35.2670   26.0870   32.1150 H   0  0  0  0  0  0  0  0  0  0  0  0
   35.9170   25.3230   30.5700 H   0  0  0  0  0  0  0  0  0  0  0  0
   36.9170   27.2790   29.8550 H   0  0  0  0  0  0  0  0  0  0  0  0
   35.5030   27.9000   30.7960 H   0  0  0  0  0  0  0  0  0  0  0  0
   36.7270   28.6540   32.5270 H   0  0  0  0  0  0  0  0  0  0  0  0
   38.1270   28.5020   31.4450 H   0  0  0  0  0  0  0  0  0  0  0  0
   37.4080   26.9110   33.7770 H   0  0  0  0  0  0  0  0  0  0  0  0
   39.1950   26.9080   35.5070 Cl  0  0  0  0  0  0  0  0  0  0  0  0
   40.0570   27.0860   33.9960 C   0  0  0  0  0  0  0  0  0  0  0  0
   39.2830   26.9910   32.8320 C   0  0  0  0  0  0  0  0  0  0  0  0
   40.0210   27.1430   31.6510 C   0  0  0  0  0  0  0  0  0  0  0  0
   39.4560   27.0760   30.7110 H   0  0  0  0  0  0  0  0  0  0  0  0
   41.3660   27.3660   31.5600 C   0  0  0  0  0  0  0  0  0  0  0  0
   41.8270   27.4680   30.5840 H   0  0  0  0  0  0  0  0  0  0  0  0
   42.0690   27.4500   32.7290 C   0  0  0  0  0  3  0  0  0  0  0  0
   41.4140   27.3110   33.9110 C   0  0  0  0  0  3  0  0  0  0  0  0
   38.9920   22.6620   35.2610 C   0  0  0  0  0  0  0  0  0  0  0  0
   38.0680   23.3370   36.0620 C   0  0  0  0  0  0  0  0  0  0  0  0
   38.3910   23.4620   37.4240 C   0  0  0  0  0  0  0  0  0  0  0  0
   39.5710   22.9280   37.8960 N   0  0  0  0  0  0  0  0  0  0  0  0
   40.4370   22.2800   37.0710 C   0  0  0  0  0  0  0  0  0  0  0  0
   40.1350   22.1620   35.7910 N   0  0  0  0  0  0  0  0  0  0  0  0
   37.1270   23.8380   35.9730 H   0  0  0  0  0  0  0  0  0  0  0  0
   37.8670   23.9210   38.2350 H   0  0  0  0  0  0  0  0  0  0  0  0
   41.3600   21.8680   37.4620 H   0  0  0  0  0  0  0  0  0  0  0  0
  1  7  1  6  0  0  0
  1 38  1  0  0  0  0
  2  9  1  0  0  0  0
  2  1  1  0  0  0  0
  3  2  1  0  0  0  0
  3 10  1  1  0  0  0
  4 12  1  0  0  0  0
  4  5  1  0  0  0  0
  4  3  1  0  0  0  0
  5 14  1  0  0  0  0
  5  6  1  0  0  0  0
  6  1  1  0  0  0  0
  6 15  1  0  0  0  0
  6 16  1  0  0  0  0
  8  2  1  0  0  0  0
 11  4  1  0  0  0  0
 13  5  1  0  0  0  0
 17 18  1  1  0  0  0
 17  3  1  0  0  0  0
 17 21  1  0  0  0  0
 18 22  1  0  0  0  0
 19 18  1  0  0  0  0
 19 20  1  0  0  0  0
 20 26  1  0  0  0  0
 20 21  1  0  0  0  0
 21 31  1  0  0  0  0
 21 28  1  1  0  0  0
 23 18  1  0  0  0  0
 24 19  1  0  0  0  0
 25 19  1  0  0  0  0
 27 20  1  0  0  0  0
 30 29  1  0  0  0  0
 31 30  2  0  0  0  0
 32 31  1  0  0  0  0
 33 32  1  0  0  0  0
 34 32  2  0  0  0  0
 34 36  1  0  0  0  0
 35 34  1  0  0  0  0
 36 37  2  0  0  0  0
 37 30  1  0  0  0  0
 38 43  2  0  0  0  0
 38 39  1  0  0  0  0
 39 40  2  0  0  0  0
 40 41  1  0  0  0  0
 40 45  1  0  0  0  0
 42 46  1  0  0  0  0
 42 41  2  0  0  0  0
 43 42  1  0  0  0  0
 44 39  1  0  0  0  0
M  END
>  <minimizedAffinity>
-5.84117603

$$$$

 OpenBabel03272507023D

 46 49  0  0  1  0  0  0  0  0999 V2000
   38.3500   25.0720   35.9080 C   0  0  2  0  0  0  0  0  0  0  0  0
   37.6610   24.8190   34.6160 C   0  0  0  0  0  0  0  0  0  0  0  0
   37.8890   25.9260   33.6020 C   0  0  2  0  0  0  0  0  0  0  0  0
   37.4610   27.2590   34.1310 C   0  0  0  0  0  0  0  0  0  0  0  0
   37.8910   27.5090   35.5360 C   0  0  0  0  0  0  0  0  0  0  0  0
   38.8680   26.4830   36.0450 C   0  0  0  0  0  0  0  0  0  0  0  0
   37.6900   24.9270   36.8150 H   0  0  0  0  0  0  0  0  0  0  0  0
   36.5550   24.7510   34.8660 H   0  0  0  0  0  0  0  0  0  0  0  0
   37.8760   23.9050   34.0750 H   0  0  0  0  0  0  0  0  0  0  0  0
   38.9830   25.9640   33.4300 H   0  0  0  0  0  0  0  0  0  0  0  0
   36.3690   27.4140   34.1300 H   0  0  0  0  0  0  0  0  0  0  0  0
   37.9040   28.0430   33.4870 H   0  0  0  0  0  0  0  0  0  0  0  0
   37.0260   27.4830   36.2440 H   0  0  0  0  0  0  0  0  0  0  0  0
   38.3480   28.5110   35.6740 H   0  0  0  0  0  0  0  0  0  0  0  0
   39.0960   26.6690   37.0970 H   0  0  0  0  0  0  0  0  0  0  0  0
   39.7830   26.5340   35.3880 H   0  0  0  0  0  0  0  0  0  0  0  0
   37.2430   25.6680   32.3660 N   0  0  1  0  0  0  0  0  0  0  0  0
   36.6630   24.3440   32.2900 C   0  0  0  0  0  0  0  0  0  0  0  0
   36.0360   24.3710   30.9030 C   0  0  0  0  0  0  0  0  0  0  0  0
   35.4850   25.7650   30.8410 C   0  0  0  0  0  0  0  0  0  0  0  0
   36.2730   26.5500   31.9090 C   0  0  2  0  0  0  0  0  0  0  0  0
   35.9140   24.1270   33.0500 H   0  0  0  0  0  0  0  0  0  0  0  0
   37.4710   23.5710   32.2370 H   0  0  0  0  0  0  0  0  0  0  0  0
   36.7090   24.0720   30.1140 H   0  0  0  0  0  0  0  0  0  0  0  0
   35.1770   23.6460   30.9740 H   0  0  0  0  0  0  0  0  0  0  0  0
   34.4000   25.7560   31.0630 H   0  0  0  0  0  0  0  0  0  0  0  0
   35.6220   26.1270   29.8290 H   0  0  0  0  0  0  0  0  0  0  0  0
   35.5300   26.9030   32.6350 H   0  0  0  0  0  0  0  0  0  0  0  0
   38.8470   26.3810   30.2320 Cl  0  0  0  0  0  0  0  0  0  0  0  0
   37.8690   27.8280   30.3220 C   0  0  0  0  0  0  0  0  0  0  0  0
   36.7280   27.7490   31.1300 C   0  0  0  0  0  0  0  0  0  0  0  0
   35.9820   28.9340   31.1700 C   0  0  0  0  0  0  0  0  0  0  0  0
   35.0760   28.9200   31.7910 H   0  0  0  0  0  0  0  0  0  0  0  0
   36.2750   30.0960   30.5130 C   0  0  0  0  0  0  0  0  0  0  0  0
   35.6180   30.9520   30.6230 H   0  0  0  0  0  0  0  0  0  0  0  0
   37.4020   30.1140   29.7400 C   0  0  0  0  0  3  0  0  0  0  0  0
   38.1700   28.9970   29.6570 C   0  0  0  0  0  3  0  0  0  0  0  0
   39.5020   24.1670   36.1290 C   0  0  0  0  0  0  0  0  0  0  0  0
   39.3340   23.2480   37.1670 C   0  0  0  0  0  0  0  0  0  0  0  0
   40.3990   22.3610   37.3990 C   0  0  0  0  0  0  0  0  0  0  0  0
   41.5300   22.4350   36.6150 N   0  0  0  0  0  0  0  0  0  0  0  0
   41.6420   23.3520   35.6160 C   0  0  0  0  0  0  0  0  0  0  0  0
   40.6430   24.1860   35.3970 N   0  0  0  0  0  0  0  0  0  0  0  0
   38.6100   22.9810   37.9080 H   0  0  0  0  0  0  0  0  0  0  0  0
   40.5220   21.5770   38.1150 H   0  0  0  0  0  0  0  0  0  0  0  0
   42.5420   23.3940   35.0110 H   0  0  0  0  0  0  0  0  0  0  0  0
  1  6  1  0  0  0  0
  1 38  1  0  0  0  0
  1  7  1  1  0  0  0
  2  8  1  0  0  0  0
  2  1  1  0  0  0  0
  3 10  1  6  0  0  0
  3  4  1  0  0  0  0
  3  2  1  0  0  0  0
  4  5  1  0  0  0  0
  5 14  1  0  0  0  0
  5  6  1  0  0  0  0
  5 13  1  0  0  0  0
  6 15  1  0  0  0  0
  9  2  1  0  0  0  0
 11  4  1  0  0  0  0
 12  4  1  0  0  0  0
 16  6  1  0  0  0  0
 17 18  1  1  0  0  0
 17  3  1  0  0  0  0
 18 22  1  0  0  0  0
 19 25  1  0  0  0  0
 19 18  1  0  0  0  0
 20 19  1  0  0  0  0
 20 26  1  0  0  0  0
 20 21  1  0  0  0  0
 21 17  1  0  0  0  0
 21 28  1  1  0  0  0
 23 18  1  0  0  0  0
 24 19  1  0  0  0  0
 27 20  1  0  0  0  0
 29 30  1  0  0  0  0
 30 31  1  0  0  0  0
 31 32  2  0  0  0  0
 31 21  1  0  0  0  0
 32 33  1  0  0  0  0
 34 35  1  0  0  0  0
 34 32  1  0  0  0  0
 36 34  2  0  0  0  0
 37 36  1  0  0  0  0
 37 30  2  0  0  0  0
 38 39  1  0  0  0  0
 39 40  2  0  0  0  0
 39 44  1  0  0  0  0
 40 45  1  0  0  0  0
 41 40  1  0  0  0  0
 42 41  2  0  0  0  0
 43 42  1  0  0  0  0
 43 38  2  0  0  0  0
 46 42  1  0  0  0  0
M  END
>  <minimizedAffinity>
-5.77004766

$$$$

 OpenBabel03272507023D

 46 49  0  0  1  0  0  0  0  0999 V2000
   36.1170   26.9250   31.7880 C   0  0  2  0  0  0  0  0  0  0  0  0
   37.3350   26.4110   32.4670 C   0  0  0  0  0  0  0  0  0  0  0  0
   37.8420   25.1140   31.8630 C   0  0  2  0  0  0  0  0  0  0  0  0
   36.7890   24.0490   31.8740 C   0  0  0  0  0  0  0  0  0  0  0  0
   35.4470   24.5330   31.4460 C   0  0  0  0  0  0  0  0  0  0  0  0
   35.4790   25.9190   30.8610 C   0  0  0  0  0  0  0  0  0  0  0  0
   35.2880   27.2190   32.4970 H   0  0  0  0  0  0  0  0  0  0  0  0
   37.0330   26.2370   33.5490 H   0  0  0  0  0  0  0  0  0  0  0  0
   38.2130   27.0450   32.5270 H   0  0  0  0  0  0  0  0  0  0  0  0
   38.0830   25.3410   30.8060 H   0  0  0  0  0  0  0  0  0  0  0  0
   36.6300   23.5850   32.8620 H   0  0  0  0  0  0  0  0  0  0  0  0
   37.1070   23.2440   31.1820 H   0  0  0  0  0  0  0  0  0  0  0  0
   34.7320   24.5820   32.3050 H   0  0  0  0  0  0  0  0  0  0  0  0
   34.9640   23.8620   30.7060 H   0  0  0  0  0  0  0  0  0  0  0  0
   34.4650   26.2550   30.6300 H   0  0  0  0  0  0  0  0  0  0  0  0
   36.1410   25.8850   29.9500 H   0  0  0  0  0  0  0  0  0  0  0  0
   39.0140   24.6390   32.5050 N   0  0  1  0  0  0  0  0  0  0  0  0
   40.1860   24.6760   31.6560 C   0  0  0  0  0  0  0  0  0  0  0  0
   41.2570   24.1500   32.6010 C   0  0  0  0  0  0  0  0  0  0  0  0
   40.8750   24.8040   33.8950 C   0  0  0  0  0  0  0  0  0  0  0  0
   39.3920   25.1870   33.7230 C   0  0  2  0  0  0  0  0  0  0  0  0
   40.4500   25.6650   31.2830 H   0  0  0  0  0  0  0  0  0  0  0  0
   40.1000   23.9100   30.8450 H   0  0  0  0  0  0  0  0  0  0  0  0
   41.3470   23.0740   32.6010 H   0  0  0  0  0  0  0  0  0  0  0  0
   42.2100   24.6180   32.2270 H   0  0  0  0  0  0  0  0  0  0  0  0
   41.5060   25.6960   34.0720 H   0  0  0  0  0  0  0  0  0  0  0  0
   41.0630   24.0920   34.6910 H   0  0  0  0  0  0  0  0  0  0  0  0
   39.3480   26.2790   33.8190 H   0  0  0  0  0  0  0  0  0  0  0  0
   38.6270   27.0610   36.0410 Cl  0  0  0  0  0  0  0  0  0  0  0  0
   38.3810   25.3300   36.1010 C   0  0  0  0  0  0  0  0  0  0  0  0
   38.7830   24.6130   34.9680 C   0  0  0  0  0  0  0  0  0  0  0  0
   38.5670   23.2320   35.0690 C   0  0  0  0  0  0  0  0  0  0  0  0
   38.8660   22.6260   34.2030 H   0  0  0  0  0  0  0  0  0  0  0  0
   38.0220   22.5750   36.1360 C   0  0  0  0  0  0  0  0  0  0  0  0
   37.9040   21.4970   36.0970 H   0  0  0  0  0  0  0  0  0  0  0  0
   37.6490   23.3280   37.2130 C   0  0  0  0  0  3  0  0  0  0  0  0
   37.8300   24.6730   37.1810 C   0  0  0  0  0  3  0  0  0  0  0  0
   36.3800   28.1430   30.9860 C   0  0  0  0  0  0  0  0  0  0  0  0
   35.7920   29.3090   31.4820 C   0  0  0  0  0  0  0  0  0  0  0  0
   36.0300   30.4890   30.7580 C   0  0  0  0  0  0  0  0  0  0  0  0
   36.8110   30.4460   29.6230 N   0  0  0  0  0  0  0  0  0  0  0  0
   37.3610   29.2820   29.1830 C   0  0  0  0  0  0  0  0  0  0  0  0
   37.1380   28.1720   29.8620 N   0  0  0  0  0  0  0  0  0  0  0  0
   35.1620   29.6230   32.2880 H   0  0  0  0  0  0  0  0  0  0  0  0
   35.7050   31.4950   30.9200 H   0  0  0  0  0  0  0  0  0  0  0  0
   37.9720   29.2700   28.2870 H   0  0  0  0  0  0  0  0  0  0  0  0
  1  2  1  0  0  0  0
  1  7  1  1  0  0  0
  2  9  1  0  0  0  0
  2  8  1  0  0  0  0
  3 10  1  6  0  0  0
  3  4  1  0  0  0  0
  3  2  1  0  0  0  0
  3 17  1  0  0  0  0
  4 11  1  0  0  0  0
  5  4  1  0  0  0  0
  5 13  1  0  0  0  0
  6  5  1  0  0  0  0
  6  1  1  0  0  0  0
 12  4  1  0  0  0  0
 14  5  1  0  0  0  0
 15  6  1  0  0  0  0
 16  6  1  0  0  0  0
 17 18  1  6  0  0  0
 17 21  1  0  0  0  0
 18 19  1  0  0  0  0
 19 24  1  0  0  0  0
 19 20  1  0  0  0  0
 20 26  1  0  0  0  0
 20 27  1  0  0  0  0
 21 28  1  6  0  0  0
 21 20  1  0  0  0  0
 21 31  1  0  0  0  0
 22 18  1  0  0  0  0
 23 18  1  0  0  0  0
 25 19  1  0  0  0  0
 29 30  1  0  0  0  0
 30 37  1  0  0  0  0
 31 32  1  0  0  0  0
 31 30  2  0  0  0  0
 32 34  2  0  0  0  0
 33 32  1  0  0  0  0
 34 36  1  0  0  0  0
 35 34  1  0  0  0  0
 37 36  2  0  0  0  0
 38 39  1  0  0  0  0
 38  1  1  0  0  0  0
 39 44  1  0  0  0  0
 40 45  1  0  0  0  0
 40 39  2  0  0  0  0
 41 40  1  0  0  0  0
 42 41  2  0  0  0  0
 42 43  1  0  0  0  0
 43 38  2  0  0  0  0
 46 42  1  0  0  0  0
M  END
>  <minimizedAffinity>
-5.68136024

$$$$

 OpenBabel03272507023D

 46 49  0  0  1  0  0  0  0  0999 V2000
   34.5950   30.4970   32.9320 C   0  0  2  0  0  0  0  0  0  0  0  0
   34.9360   29.0570   32.7990 C   0  0  0  0  0  0  0  0  0  0  0  0
   36.3180   28.8320   32.2110 C   0  0  2  0  0  0  0  0  0  0  0  0
   36.4670   29.4960   30.8770 C   0  0  0  0  0  0  0  0  0  0  0  0
   35.9140   30.8790   30.8340 C   0  0  0  0  0  0  0  0  0  0  0  0
   35.5450   31.4090   32.1930 C   0  0  0  0  0  0  0  0  0  0  0  0
   33.5750   30.7660   32.5250 H   0  0  0  0  0  0  0  0  0  0  0  0
   34.1490   28.6190   32.1060 H   0  0  0  0  0  0  0  0  0  0  0  0
   34.9080   28.4250   33.6800 H   0  0  0  0  0  0  0  0  0  0  0  0
   37.0300   29.3110   32.9110 H   0  0  0  0  0  0  0  0  0  0  0  0
   35.9720   28.9590   30.0500 H   0  0  0  0  0  0  0  0  0  0  0  0
   37.5470   29.5450   30.6370 H   0  0  0  0  0  0  0  0  0  0  0  0
   34.9790   30.9300   30.2230 H   0  0  0  0  0  0  0  0  0  0  0  0
   36.6090   31.6040   30.3630 H   0  0  0  0  0  0  0  0  0  0  0  0
   35.0800   32.3930   32.1010 H   0  0  0  0  0  0  0  0  0  0  0  0
   36.4860   31.4310   32.8130 H   0  0  0  0  0  0  0  0  0  0  0  0
   36.6410   27.4560   32.1030 N   0  0  1  0  0  0  0  0  0  0  0  0
   35.6520   26.6920   31.3720 C   0  0  0  0  0  0  0  0  0  0  0  0
   36.2690   25.3010   31.3960 C   0  0  0  0  0  0  0  0  0  0  0  0
   37.7240   25.6060   31.1930 C   0  0  0  0  0  0  0  0  0  0  0  0
   37.8790   27.0850   31.5960 C   0  0  2  0  0  0  0  0  0  0  0  0
   35.4830   27.0220   30.3480 H   0  0  0  0  0  0  0  0  0  0  0  0
   34.7080   26.6100   31.9680 H   0  0  0  0  0  0  0  0  0  0  0  0
   36.0050   24.7220   32.2680 H   0  0  0  0  0  0  0  0  0  0  0  0
   35.8710   24.8050   30.4670 H   0  0  0  0  0  0  0  0  0  0  0  0
   38.0030   25.4420   30.1340 H   0  0  0  0  0  0  0  0  0  0  0  0
   38.2930   24.9140   31.8050 H   0  0  0  0  0  0  0  0  0  0  0  0
   38.2320   27.6080   30.6980 H   0  0  0  0  0  0  0  0  0  0  0  0
   40.7270   27.6220   30.5640 Cl  0  0  0  0  0  0  0  0  0  0  0  0
   40.3820   27.2430   32.2350 C   0  0  0  0  0  0  0  0  0  0  0  0
   39.0350   27.0210   32.5490 C   0  0  0  0  0  0  0  0  0  0  0  0
   38.8130   26.7190   33.8990 C   0  0  0  0  0  0  0  0  0  0  0  0
   37.7710   26.5370   34.1940 H   0  0  0  0  0  0  0  0  0  0  0  0
   39.7660   26.6290   34.8750 C   0  0  0  0  0  0  0  0  0  0  0  0
   39.4710   26.3860   35.8900 H   0  0  0  0  0  0  0  0  0  0  0  0
   41.0630   26.8540   34.5090 C   0  0  0  0  0  3  0  0  0  0  0  0
   41.3480   27.1540   33.2150 C   0  0  0  0  0  3  0  0  0  0  0  0
   34.5730   30.9520   34.3430 C   0  0  0  0  0  0  0  0  0  0  0  0
   35.7650   31.5260   34.7920 C   0  0  0  0  0  0  0  0  0  0  0  0
   35.7790   31.9840   36.1200 C   0  0  0  0  0  0  0  0  0  0  0  0
   34.6500   31.8510   36.8990 N   0  0  0  0  0  0  0  0  0  0  0  0
   33.5140   31.2840   36.4110 C   0  0  0  0  0  0  0  0  0  0  0  0
   33.4980   30.8530   35.1630 N   0  0  0  0  0  0  0  0  0  0  0  0
   36.7500   31.7390   34.4340 H   0  0  0  0  0  0  0  0  0  0  0  0
   36.5480   32.4530   36.6970 H   0  0  0  0  0  0  0  0  0  0  0  0
   32.6360   31.1880   37.0410 H   0  0  0  0  0  0  0  0  0  0  0  0
  1  7  1  6  0  0  0
  1 38  1  0  0  0  0
  2  1  1  0  0  0  0
  2  9  1  0  0  0  0
  3  2  1  0  0  0  0
  3 10  1  1  0  0  0
  4  3  1  0  0  0  0
  5  4  1  0  0  0  0
  5  6  1  0  0  0  0
  6 16  1  0  0  0  0
  6  1  1  0  0  0  0
  8  2  1  0  0  0  0
 11  4  1  0  0  0  0
 12  4  1  0  0  0  0
 13  5  1  0  0  0  0
 14  5  1  0  0  0  0
 15  6  1  0  0  0  0
 17 18  1  6  0  0  0
 17  3  1  0  0  0  0
 18 19  1  0  0  0  0
 18 23  1  0  0  0  0
 19 24  1  0  0  0  0
 20 19  1  0  0  0  0
 20 21  1  0  0  0  0
 20 27  1  0  0  0  0
 21 28  1  6  0  0  0
 21 17  1  0  0  0  0
 21 31  1  0  0  0  0
 22 18  1  0  0  0  0
 25 19  1  0  0  0  0
 26 20  1  0  0  0  0
 29 30  1  0  0  0  0
 30 31  2  0  0  0  0
 30 37  1  0  0  0  0
 31 32  1  0  0  0  0
 32 33  1  0  0  0  0
 32 34  2  0  0  0  0
 34 35  1  0  0  0  0
 36 34  1  0  0  0  0
 37 36  2  0  0  0  0
 38 39  2  0  0  0  0
 38 43  1  0  0  0  0
 39 40  1  0  0  0  0
 40 45  1  0  0  0  0
 40 41  2  0  0  0  0
 42 41  1  0  0  0  0
 42 46  1  0  0  0  0
 43 42  2  0  0  0  0
 44 39  1  0  0  0  0
M  END
>  <minimizedAffinity>
-5.65728569

$$$$

 OpenBabel03272507023D

 46 49  0  0  1  0  0  0  0  0999 V2000
   37.7370   25.4010   35.7940 C   0  0  2  0  0  0  0  0  0  0  0  0
   37.7150   25.1160   34.3360 C   0  0  0  0  0  0  0  0  0  0  0  0
   38.4960   26.1350   33.5260 C   0  0  2  0  0  0  0  0  0  0  0  0
   37.9980   27.5270   33.7600 C   0  0  0  0  0  0  0  0  0  0  0  0
   37.7400   27.8360   35.1950 C   0  0  0  0  0  0  0  0  0  0  0  0
   38.2610   26.7760   36.1280 C   0  0  0  0  0  0  0  0  0  0  0  0
   36.7190   25.3630   36.2840 H   0  0  0  0  0  0  0  0  0  0  0  0
   36.6200   25.1450   34.0350 H   0  0  0  0  0  0  0  0  0  0  0  0
   38.0710   24.1550   33.9810 H   0  0  0  0  0  0  0  0  0  0  0  0
   39.5400   26.0820   33.8910 H   0  0  0  0  0  0  0  0  0  0  0  0
   37.0540   27.7610   33.2380 H   0  0  0  0  0  0  0  0  0  0  0  0
   38.7640   28.2340   33.3840 H   0  0  0  0  0  0  0  0  0  0  0  0
   36.6450   27.9180   35.4090 H   0  0  0  0  0  0  0  0  0  0  0  0
   38.1710   28.8090   35.5100 H   0  0  0  0  0  0  0  0  0  0  0  0
   37.9860   27.0120   37.1590 H   0  0  0  0  0  0  0  0  0  0  0  0
   39.3780   26.7180   35.9820 H   0  0  0  0  0  0  0  0  0  0  0  0
   38.4840   25.8460   32.1380 N   0  0  1  0  0  0  0  0  0  0  0  0
   39.1820   26.8350   31.3430 C   0  0  0  0  0  0  0  0  0  0  0  0
   39.0270   26.2580   29.9430 C   0  0  0  0  0  0  0  0  0  0  0  0
   39.2090   24.7900   30.1930 C   0  0  0  0  0  0  0  0  0  0  0  0
   38.9220   24.6060   31.6960 C   0  0  2  0  0  0  0  0  0  0  0  0
   40.2340   26.9650   31.5940 H   0  0  0  0  0  0  0  0  0  0  0  0
   38.6100   27.7980   31.3340 H   0  0  0  0  0  0  0  0  0  0  0  0
   38.1200   26.5630   29.4430 H   0  0  0  0  0  0  0  0  0  0  0  0
   39.9250   26.6430   29.3840 H   0  0  0  0  0  0  0  0  0  0  0  0
   40.2420   24.4850   29.9380 H   0  0  0  0  0  0  0  0  0  0  0  0
   38.5270   24.2580   29.5400 H   0  0  0  0  0  0  0  0  0  0  0  0
   39.8460   24.2120   32.1360 H   0  0  0  0  0  0  0  0  0  0  0  0
   39.7300   21.8580   32.8200 Cl  0  0  0  0  0  0  0  0  0  0  0  0
   38.1450   22.1790   32.1550 C   0  0  0  0  0  0  0  0  0  0  0  0
   37.9300   23.4790   31.6800 C   0  0  0  0  0  0  0  0  0  0  0  0
   36.6470   23.6830   31.1560 C   0  0  0  0  0  0  0  0  0  0  0  0
   36.4310   24.6900   30.7710 H   0  0  0  0  0  0  0  0  0  0  0  0
   35.6480   22.7550   31.0800 C   0  0  0  0  0  0  0  0  0  0  0  0
   34.6910   23.0320   30.6500 H   0  0  0  0  0  0  0  0  0  0  0  0
   35.9160   21.5030   31.5580 C   0  0  0  0  0  3  0  0  0  0  0  0
   37.1410   21.2380   32.0800 C   0  0  0  0  0  3  0  0  0  0  0  0
   38.5600   24.4310   36.5550 C   0  0  0  0  0  0  0  0  0  0  0  0
   38.1500   24.2220   37.8740 C   0  0  0  0  0  0  0  0  0  0  0  0
   38.8950   23.2970   38.6240 C   0  0  0  0  0  0  0  0  0  0  0  0
   39.9670   22.6550   38.0430 N   0  0  0  0  0  0  0  0  0  0  0  0
   40.3250   22.8960   36.7530 C   0  0  0  0  0  0  0  0  0  0  0  0
   39.6250   23.7640   36.0460 N   0  0  0  0  0  0  0  0  0  0  0  0
   37.4040   24.5690   38.5580 H   0  0  0  0  0  0  0  0  0  0  0  0
   38.7930   22.9620   39.6340 H   0  0  0  0  0  0  0  0  0  0  0  0
   41.1720   22.3800   36.3150 H   0  0  0  0  0  0  0  0  0  0  0  0
  1  6  1  0  0  0  0
  1  7  1  1  0  0  0
  1 38  1  0  0  0  0
  2  1  1  0  0  0  0
  3  4  1  0  0  0  0
  3 10  1  1  0  0  0
  3  2  1  0  0  0  0
  4  5  1  0  0  0  0
  5 13  1  0  0  0  0
  5 14  1  0  0  0  0
  5  6  1  0  0  0  0
  6 15  1  0  0  0  0
  8  2  1  0  0  0  0
  9  2  1  0  0  0  0
 11  4  1  0  0  0  0
 12  4  1  0  0  0  0
 16  6  1  0  0  0  0
 17 18  1  6  0  0  0
 17  3  1  0  0  0  0
 18 22  1  0  0  0  0
 19 20  1  0  0  0  0
 19 18  1  0  0  0  0
 20 21  1  0  0  0  0
 21 28  1  1  0  0  0
 21 17  1  0  0  0  0
 23 18  1  0  0  0  0
 24 19  1  0  0  0  0
 25 19  1  0  0  0  0
 26 20  1  0  0  0  0
 27 20  1  0  0  0  0
 30 29  1  0  0  0  0
 31 21  1  0  0  0  0
 31 30  2  0  0  0  0
 32 31  1  0  0  0  0
 33 32  1  0  0  0  0
 34 32  2  0  0  0  0
 34 36  1  0  0  0  0
 35 34  1  0  0  0  0
 36 37  2  0  0  0  0
 37 30  1  0  0  0  0
 38 39  1  0  0  0  0
 39 44  1  0  0  0  0
 39 40  2  0  0  0  0
 40 45  1  0  0  0  0
 41 40  1  0  0  0  0
 42 41  2  0  0  0  0
 43 38  2  0  0  0  0
 43 42  1  0  0  0  0
 46 42  1  0  0  0  0
M  END
>  <minimizedAffinity>
-5.64961243

$$$$

 OpenBabel03272507023D

 46 49  0  0  1  0  0  0  0  0999 V2000
   39.6870   25.7000   35.0130 C   0  0  2  0  0  0  0  0  0  0  0  0
   38.8320   25.3640   33.8450 C   0  0  0  0  0  0  0  0  0  0  0  0
   38.0470   26.5560   33.3280 C   0  0  2  0  0  0  0  0  0  0  0  0
   37.1960   27.1640   34.3990 C   0  0  0  0  0  0  0  0  0  0  0  0
   37.8950   27.3110   35.7070 C   0  0  0  0  0  0  0  0  0  0  0  0
   39.3740   27.0470   35.6170 C   0  0  0  0  0  0  0  0  0  0  0  0
   39.5880   24.9760   35.8760 H   0  0  0  0  0  0  0  0  0  0  0  0
   38.1150   24.5620   34.2100 H   0  0  0  0  0  0  0  0  0  0  0  0
   39.2920   24.9370   32.9600 H   0  0  0  0  0  0  0  0  0  0  0  0
   38.8000   27.3100   33.0240 H   0  0  0  0  0  0  0  0  0  0  0  0
   36.2780   26.5930   34.6230 H   0  0  0  0  0  0  0  0  0  0  0  0
   36.8810   28.1700   34.0580 H   0  0  0  0  0  0  0  0  0  0  0  0
   37.5040   26.5900   36.4670 H   0  0  0  0  0  0  0  0  0  0  0  0
   37.7550   28.3140   36.1590 H   0  0  0  0  0  0  0  0  0  0  0  0
   39.8280   27.0960   36.6090 H   0  0  0  0  0  0  0  0  0  0  0  0
   39.8090   27.8060   34.9040 H   0  0  0  0  0  0  0  0  0  0  0  0
   37.2470   26.2310   32.2040 N   0  0  1  0  0  0  0  0  0  0  0  0
   36.7140   24.8860   32.2520 C   0  0  0  0  0  0  0  0  0  0  0  0
   35.9010   24.8400   30.9660 C   0  0  0  0  0  0  0  0  0  0  0  0
   35.2940   26.2110   30.9360 C   0  0  0  0  0  0  0  0  0  0  0  0
   36.1900   27.0610   31.8570 C   0  0  2  0  0  0  0  0  0  0  0  0
   36.0860   24.6720   33.1150 H   0  0  0  0  0  0  0  0  0  0  0  0
   37.5360   24.1390   32.1120 H   0  0  0  0  0  0  0  0  0  0  0  0
   36.4700   24.5350   30.1010 H   0  0  0  0  0  0  0  0  0  0  0  0
   35.0890   24.0890   31.1790 H   0  0  0  0  0  0  0  0  0  0  0  0
   34.2510   26.1740   31.3070 H   0  0  0  0  0  0  0  0  0  0  0  0
   35.2760   26.5390   29.9030 H   0  0  0  0  0  0  0  0  0  0  0  0
   35.5410   27.4160   32.6680 H   0  0  0  0  0  0  0  0  0  0  0  0
   35.1610   29.8440   32.6740 Cl  0  0  0  0  0  0  0  0  0  0  0  0
   36.0930   29.5680   31.2200 C   0  0  0  0  0  0  0  0  0  0  0  0
   36.4870   28.2450   30.9840 C   0  0  0  0  0  0  0  0  0  0  0  0
   37.2280   28.0780   29.8070 C   0  0  0  0  0  0  0  0  0  0  0  0
   37.5600   27.0560   29.5800 H   0  0  0  0  0  0  0  0  0  0  0  0
   37.5730   29.0610   28.9230 C   0  0  0  0  0  0  0  0  0  0  0  0
   38.1520   28.8080   28.0410 H   0  0  0  0  0  0  0  0  0  0  0  0
   37.1600   30.3330   29.2050 C   0  0  0  0  0  3  0  0  0  0  0  0
   36.4380   30.5640   30.3320 C   0  0  0  0  0  3  0  0  0  0  0  0
   41.1320   25.7010   34.6830 C   0  0  0  0  0  0  0  0  0  0  0  0
   41.5990   26.8830   34.1030 C   0  0  0  0  0  0  0  0  0  0  0  0
   42.9680   26.9300   33.7890 C   0  0  0  0  0  0  0  0  0  0  0  0
   43.7660   25.8400   34.0600 N   0  0  0  0  0  0  0  0  0  0  0  0
   43.2600   24.7120   34.6260 C   0  0  0  0  0  0  0  0  0  0  0  0
   41.9740   24.6650   34.9210 N   0  0  0  0  0  0  0  0  0  0  0  0
   41.2280   27.8350   33.7850 H   0  0  0  0  0  0  0  0  0  0  0  0
   43.5650   27.7000   33.3500 H   0  0  0  0  0  0  0  0  0  0  0  0
   43.9050   23.8640   34.8300 H   0  0  0  0  0  0  0  0  0  0  0  0
  1  6  1  0  0  0  0
  1  7  1  1  0  0  0
  2  8  1  0  0  0  0
  2  1  1  0  0  0  0
  3 10  1  6  0  0  0
  3  2  1  0  0  0  0
  3  4  1  0  0  0  0
  4 11  1  0  0  0  0
  4  5  1  0  0  0  0
  5 14  1  0  0  0  0
  5 13  1  0  0  0  0
  6  5  1  0  0  0  0
  6 15  1  0  0  0  0
  9  2  1  0  0  0  0
 12  4  1  0  0  0  0
 16  6  1  0  0  0  0
 17 18  1  1  0  0  0
 17  3  1  0  0  0  0
 18 22  1  0  0  0  0
 19 25  1  0  0  0  0
 19 18  1  0  0  0  0
 20 19  1  0  0  0  0
 20 26  1  0  0  0  0
 20 21  1  0  0  0  0
 21 17  1  0  0  0  0
 21 28  1  1  0  0  0
 23 18  1  0  0  0  0
 24 19  1  0  0  0  0
 27 20  1  0  0  0  0
 30 29  1  0  0  0  0
 31 30  1  0  0  0  0
 31 21  1  0  0  0  0
 32 31  2  0  0  0  0
 33 32  1  0  0  0  0
 34 36  2  0  0  0  0
 34 32  1  0  0  0  0
 35 34  1  0  0  0  0
 36 37  1  0  0  0  0
 37 30  2  0  0  0  0
 38 43  1  0  0  0  0
 38  1  1  0  0  0  0
 39 38  2  0  0  0  0
 40 41  2  0  0  0  0
 40 39  1  0  0  0  0
 41 42  1  0  0  0  0
 42 46  1  0  0  0  0
 42 43  2  0  0  0  0
 44 39  1  0  0  0  0
 45 40  1  0  0  0  0
M  END
>  <minimizedAffinity>
-5.64741325

$$$$
