
 OpenBabel03272507073D

 39 43  0  0  0  0  0  0  0  0999 V2000
   38.1800   32.5840   49.3100 C   0  0  0  0  0  0  0  0  0  0  0  0
   38.8670   32.7200   48.0910 C   0  0  0  0  0  0  0  0  0  0  0  0
   38.4220   31.9320   47.0260 C   0  0  0  0  0  0  0  0  0  0  0  0
   37.3700   31.0850   47.2030 N   0  0  0  0  0  0  0  0  0  0  0  0
   36.7400   30.9950   48.4120 C   0  0  0  0  0  0  0  0  0  0  0  0
   37.1460   31.7360   49.4440 N   0  0  0  0  0  0  0  0  0  0  0  0
   38.5510   33.2090   50.1130 H   0  0  0  0  0  0  0  0  0  0  0  0
   39.6990   33.3740   47.9150 H   0  0  0  0  0  0  0  0  0  0  0  0
   35.6290   29.1250   49.5350 C   0  0  0  0  0  0  0  0  0  0  0  0
   35.6200   30.0660   48.5250 C   0  0  0  0  0  0  0  0  0  0  0  0
   34.5740   30.1180   47.6510 C   0  0  0  0  0  0  0  0  0  0  0  0
   33.5210   29.2450   47.7580 C   0  0  0  0  0  0  0  0  0  0  0  0
   32.3760   29.0800   47.0370 N   0  0  0  0  0  0  0  0  0  0  0  0
   31.7400   28.0490   47.6390 C   0  0  0  0  0  0  0  0  0  0  0  0
   32.4500   27.5960   48.6780 N   0  0  0  0  0  0  0  0  0  0  0  0
   33.5750   28.3250   48.7800 C   0  0  0  0  0  0  0  0  0  0  0  0
   34.5970   28.2260   49.6880 C   0  0  0  0  0  0  0  0  0  0  0  0
   36.4610   29.0940   50.2200 H   0  0  0  0  0  0  0  0  0  0  0  0
   34.6140   30.8790   46.8710 H   0  0  0  0  0  0  0  0  0  0  0  0
   32.1570   29.6880   46.2170 H   0  0  0  0  0  0  0  0  0  0  0  0
   30.7810   27.7700   47.1840 H   0  0  0  0  0  0  0  0  0  0  0  0
   34.5730   27.4830   50.4600 H   0  0  0  0  0  0  0  0  0  0  0  0
   39.0150   31.9430   45.6930 C   0  0  0  0  0  0  0  0  0  0  0  0
   39.5510   33.0530   45.0960 C   0  0  0  0  0  0  0  0  0  0  0  0
   40.1170   33.0940   43.8430 C   0  0  0  0  0  0  0  0  0  0  0  0
   40.1420   31.9490   43.1590 N   0  0  0  0  0  0  0  0  0  0  0  0
   39.6300   30.8330   43.7000 C   0  0  0  0  0  0  0  0  0  0  0  0
   39.0920   30.8400   44.9160 N   0  0  0  0  0  0  0  0  0  0  0  0
   39.5390   34.0030   45.6450 H   0  0  0  0  0  0  0  0  0  0  0  0
   40.5270   34.0090   43.4210 H   0  0  0  0  0  0  0  0  0  0  0  0
   40.7440   30.9880   40.8750 Cl  0  0  0  0  0  0  0  0  0  0  0  0
   40.1410   29.5530   41.6710 C   0  0  0  0  0  0  0  0  0  0  0  0
   39.6510   29.5640   42.9570 C   0  0  0  0  0  0  0  0  0  0  0  0
   39.1870   28.3840   43.5290 C   0  0  0  0  0  0  0  0  0  0  0  0
   38.8130   28.4710   44.5540 H   0  0  0  0  0  0  0  0  0  0  0  0
   39.2110   27.2050   42.8240 C   0  0  0  0  0  0  0  0  0  0  0  0
   38.8360   26.2990   43.3120 H   0  0  0  0  0  0  0  0  0  0  0  0
   39.6830   27.1270   41.5490 C   0  0  0  0  0  0  0  0  0  0  0  0
   40.1310   28.3280   41.0310 C   0  0  0  0  0  0  0  0  0  0  0  0
  1  6  1  0  0  0  0
  1  7  1  0  0  0  0
  2  1  2  0  0  0  0
  3  4  2  0  0  0  0
  3  2  1  0  0  0  0
  4  5  1  0  0  0  0
  5 10  1  0  0  0  0
  5  6  2  0  0  0  0
  8  2  1  0  0  0  0
  9 17  1  0  0  0  0
  9 18  1  0  0  0  0
 10  9  2  0  0  0  0
 11 12  2  0  0  0  0
 11 10  1  0  0  0  0
 12 16  1  0  0  0  0
 13 14  1  0  0  0  0
 13 12  1  0  0  0  0
 14 15  2  0  0  0  0
 15 16  1  0  0  0  0
 16 17  2  0  0  0  0
 17 22  1  0  0  0  0
 19 11  1  0  0  0  0
 20 13  1  0  0  0  0
 21 14  1  0  0  0  0
 23  3  1  0  0  0  0
 24 29  1  0  0  0  0
 24 23  1  0  0  0  0
 25 24  2  0  0  0  0
 26 27  2  0  0  0  0
 26 25  1  0  0  0  0
 27 28  1  0  0  0  0
 28 23  2  0  0  0  0
 30 25  1  0  0  0  0
 31 32  1  0  0  0  0
 32 33  1  0  0  0  0
 33 34  2  0  0  0  0
 33 27  1  0  0  0  0
 34 35  1  0  0  0  0
 36 37  1  0  0  0  0
 36 34  1  0  0  0  0
 38 36  2  0  0  0  0
 39 38  1  0  0  0  0
 39 32  2  0  0  0  0
M  END
>  <minimizedAffinity>
-7.48907232

>  <minimizedRMSD>
1.9014523

$$$$
