
 OpenBabel03272510073D

 30 32  0  0  0  0  0  0  0  0999 V2000
   38.7740   26.6550   35.8250 C   0  0  0  0  0  0  0  0  0  0  0  0
   38.7610   25.3150   35.3610 C   0  0  0  0  0  0  0  0  0  0  0  0
   37.9580   25.0190   34.2580 C   0  0  0  0  0  0  0  0  0  0  0  0
   37.2440   26.0200   33.7000 N   0  0  0  0  0  0  0  0  0  0  0  0
   37.2670   27.2840   34.1510 C   0  0  0  0  0  0  0  0  0  0  0  0
   38.0290   27.6020   35.2090 N   0  0  0  0  0  0  0  0  0  0  0  0
   36.4780   28.2770   33.4950 N   0  0  0  0  0  0  0  0  0  0  0  0
   36.6530   28.6190   32.0880 C   0  0  0  0  0  0  0  0  0  0  0  0
   35.4890   29.4840   31.7520 C   0  0  0  0  0  0  0  0  0  0  0  0
   34.5510   29.4090   32.9370 C   0  0  0  0  0  0  0  0  0  0  0  0
   35.4290   29.0620   34.0970 C   0  0  0  0  0  0  0  0  0  0  0  0
   39.4000   26.8950   36.6870 H   0  0  0  0  0  0  0  0  0  0  0  0
   37.8830   24.0400   33.8390 H   0  0  0  0  0  0  0  0  0  0  0  0
   37.6450   29.0860   31.9920 H   0  0  0  0  0  0  0  0  0  0  0  0
   36.6120   27.6350   31.5430 H   0  0  0  0  0  0  0  0  0  0  0  0
   34.9200   29.0110   30.9000 H   0  0  0  0  0  0  0  0  0  0  0  0
   35.8160   30.5200   31.5210 H   0  0  0  0  0  0  0  0  0  0  0  0
   34.1310   30.4260   33.1050 H   0  0  0  0  0  0  0  0  0  0  0  0
   33.7250   28.6740   32.7850 H   0  0  0  0  0  0  0  0  0  0  0  0
   35.8000   29.9340   34.6590 H   0  0  0  0  0  0  0  0  0  0  0  0
   34.8600   28.3880   34.7800 H   0  0  0  0  0  0  0  0  0  0  0  0
   37.6390   23.9080   37.8300 Cl  0  0  0  0  0  0  0  0  0  0  0  0
   39.1730   23.5450   37.1020 C   0  0  0  0  0  0  0  0  0  0  0  0
   39.5460   24.2620   35.9920 C   0  0  0  0  0  0  0  0  0  0  0  0
   40.7590   23.9830   35.4020 C   0  0  0  0  0  0  0  0  0  0  0  0
   41.1950   24.4560   34.5300 H   0  0  0  0  0  0  0  0  0  0  0  0
   41.5830   23.0130   35.9080 C   0  0  0  0  0  0  0  0  0  0  0  0
   42.5660   22.7260   35.5030 H   0  0  0  0  0  0  0  0  0  0  0  0
   41.2310   22.2790   37.0240 C   0  0  0  0  0  3  0  0  0  0  0  0
   40.0140   22.5640   37.6060 C   0  0  0  0  0  3  0  0  0  0  0  0
  1 12  1  0  0  0  0
  2  1  1  0  0  0  0
  2 24  1  0  0  0  0
  3  2  2  0  0  0  0
  4  5  2  0  0  0  0
  4  3  1  0  0  0  0
  5  6  1  0  0  0  0
  6  1  2  0  0  0  0
  7 11  1  0  0  0  0
  7  5  1  0  0  0  0
  8  7  1  0  0  0  0
  9  8  1  0  0  0  0
  9 10  1  0  0  0  0
 10 18  1  0  0  0  0
 10 11  1  0  0  0  0
 11 20  1  0  0  0  0
 11 21  1  0  0  0  0
 13  3  1  0  0  0  0
 14  8  1  0  0  0  0
 15  8  1  0  0  0  0
 16  9  1  0  0  0  0
 17  9  1  0  0  0  0
 19 10  1  0  0  0  0
 23 30  1  0  0  0  0
 23 22  1  0  0  0  0
 24 23  2  0  0  0  0
 25 27  2  0  0  0  0
 25 24  1  0  0  0  0
 26 25  1  0  0  0  0
 27 29  1  0  0  0  0
 28 27  1  0  0  0  0
 29 30  2  0  0  0  0
M  END
>  <minimizedAffinity>
-5.24411583

$$$$

 OpenBabel03272510073D

 30 32  0  0  0  0  0  0  0  0999 V2000
   38.4090   26.8350   35.8900 C   0  0  0  0  0  0  0  0  0  0  0  0
   38.4740   25.5090   35.3940 C   0  0  0  0  0  0  0  0  0  0  0  0
   37.7880   25.2250   34.2120 C   0  0  0  0  0  0  0  0  0  0  0  0
   37.1050   26.2250   33.6130 N   0  0  0  0  0  0  0  0  0  0  0  0
   37.0530   27.4750   34.0970 C   0  0  0  0  0  0  0  0  0  0  0  0
   37.7020   27.7820   35.2300 N   0  0  0  0  0  0  0  0  0  0  0  0
   36.3050   28.4680   33.3930 N   0  0  0  0  0  0  0  0  0  0  0  0
   36.6040   28.8530   32.0180 C   0  0  0  0  0  0  0  0  0  0  0  0
   35.4550   29.7000   31.5950 C   0  0  0  0  0  0  0  0  0  0  0  0
   34.4110   29.5700   32.6820 C   0  0  0  0  0  0  0  0  0  0  0  0
   35.1830   29.2120   33.9110 C   0  0  0  0  0  0  0  0  0  0  0  0
   38.9440   27.0660   36.8140 H   0  0  0  0  0  0  0  0  0  0  0  0
   37.7780   24.2560   33.7620 H   0  0  0  0  0  0  0  0  0  0  0  0
   37.5880   29.3450   32.0300 H   0  0  0  0  0  0  0  0  0  0  0  0
   36.6400   27.8840   31.4470 H   0  0  0  0  0  0  0  0  0  0  0  0
   34.9820   29.2380   30.6810 H   0  0  0  0  0  0  0  0  0  0  0  0
   35.7760   30.7490   31.4220 H   0  0  0  0  0  0  0  0  0  0  0  0
   33.9510   30.5720   32.8350 H   0  0  0  0  0  0  0  0  0  0  0  0
   33.6220   28.8210   32.4330 H   0  0  0  0  0  0  0  0  0  0  0  0
   35.4760   30.0760   34.5280 H   0  0  0  0  0  0  0  0  0  0  0  0
   34.5690   28.5070   34.5200 H   0  0  0  0  0  0  0  0  0  0  0  0
   41.1620   24.6270   34.2400 Cl  0  0  0  0  0  0  0  0  0  0  0  0
   40.4380   23.9590   35.6700 C   0  0  0  0  0  0  0  0  0  0  0  0
   39.2220   24.4570   36.0700 C   0  0  0  0  0  0  0  0  0  0  0  0
   38.6360   23.9380   37.2030 C   0  0  0  0  0  0  0  0  0  0  0  0
   37.6880   24.2190   37.6450 H   0  0  0  0  0  0  0  0  0  0  0  0
   39.2460   22.9440   37.9220 C   0  0  0  0  0  0  0  0  0  0  0  0
   38.8520   22.4720   38.8350 H   0  0  0  0  0  0  0  0  0  0  0  0
   40.4690   22.4260   37.5400 C   0  0  0  0  0  3  0  0  0  0  0  0
   41.0490   22.9530   36.4050 C   0  0  0  0  0  3  0  0  0  0  0  0
  1 12  1  0  0  0  0
  2  1  1  0  0  0  0
  2 24  1  0  0  0  0
  3  2  2  0  0  0  0
  4  5  2  0  0  0  0
  4  3  1  0  0  0  0
  5  6  1  0  0  0  0
  6  1  2  0  0  0  0
  7 11  1  0  0  0  0
  7  5  1  0  0  0  0
  8 14  1  0  0  0  0
  8  7  1  0  0  0  0
  9  8  1  0  0  0  0
  9 10  1  0  0  0  0
 10 18  1  0  0  0  0
 10 11  1  0  0  0  0
 11 21  1  0  0  0  0
 11 20  1  0  0  0  0
 13  3  1  0  0  0  0
 15  8  1  0  0  0  0
 16  9  1  0  0  0  0
 17  9  1  0  0  0  0
 19 10  1  0  0  0  0
 22 23  1  0  0  0  0
 23 24  2  0  0  0  0
 23 30  1  0  0  0  0
 24 25  1  0  0  0  0
 25 26  1  0  0  0  0
 25 27  2  0  0  0  0
 27 28  1  0  0  0  0
 29 27  1  0  0  0  0
 30 29  2  0  0  0  0
M  END
>  <minimizedAffinity>
-5.22148657

$$$$

 OpenBabel03272510073D

 30 32  0  0  0  0  0  0  0  0999 V2000
   37.1790   24.2070   32.5540 C   0  0  0  0  0  0  0  0  0  0  0  0
   36.2260   23.5590   31.7290 C   0  0  0  0  0  0  0  0  0  0  0  0
   35.3500   24.3620   30.9970 C   0  0  0  0  0  0  0  0  0  0  0  0
   35.4600   25.7030   31.1160 N   0  0  0  0  0  0  0  0  0  0  0  0
   36.3690   26.3010   31.9020 C   0  0  0  0  0  0  0  0  0  0  0  0
   37.2260   25.5580   32.6180 N   0  0  0  0  0  0  0  0  0  0  0  0
   36.4110   27.7280   31.9640 N   0  0  0  0  0  0  0  0  0  0  0  0
   36.6580   28.5600   30.7920 C   0  0  0  0  0  0  0  0  0  0  0  0
   36.3650   29.9500   31.2360 C   0  0  0  0  0  0  0  0  0  0  0  0
   35.7220   29.8320   32.6000 C   0  0  0  0  0  0  0  0  0  0  0  0
   36.2230   28.5320   33.1460 C   0  0  0  0  0  0  0  0  0  0  0  0
   37.8680   23.5860   33.1290 H   0  0  0  0  0  0  0  0  0  0  0  0
   34.5980   23.9650   30.3500 H   0  0  0  0  0  0  0  0  0  0  0  0
   37.6930   28.3640   30.4720 H   0  0  0  0  0  0  0  0  0  0  0  0
   35.9190   28.2040   30.0220 H   0  0  0  0  0  0  0  0  0  0  0  0
   35.5610   30.3800   30.5720 H   0  0  0  0  0  0  0  0  0  0  0  0
   37.2870   30.5700   31.2410 H   0  0  0  0  0  0  0  0  0  0  0  0
   36.1170   30.6550   33.2370 H   0  0  0  0  0  0  0  0  0  0  0  0
   34.6080   29.8820   32.5570 H   0  0  0  0  0  0  0  0  0  0  0  0
   37.1290   28.6220   33.7650 H   0  0  0  0  0  0  0  0  0  0  0  0
   35.4050   28.0620   33.7420 H   0  0  0  0  0  0  0  0  0  0  0  0
   38.4040   22.0450   30.2140 Cl  0  0  0  0  0  0  0  0  0  0  0  0
   37.0380   21.2970   30.9810 C   0  0  0  0  0  0  0  0  0  0  0  0
   36.1370   22.1080   31.6270 C   0  0  0  0  0  0  0  0  0  0  0  0
   35.0490   21.5290   32.2410 C   0  0  0  0  0  0  0  0  0  0  0  0
   34.2550   22.0260   32.7860 H   0  0  0  0  0  0  0  0  0  0  0  0
   34.8600   20.1730   32.2120 C   0  0  0  0  0  0  0  0  0  0  0  0
   34.0230   19.6270   32.6730 H   0  0  0  0  0  0  0  0  0  0  0  0
   35.7520   19.3360   31.5680 C   0  0  0  0  0  3  0  0  0  0  0  0
   36.8390   19.9240   30.9570 C   0  0  0  0  0  3  0  0  0  0  0  0
  1  6  1  0  0  0  0
  1 12  1  0  0  0  0
  2  1  2  0  0  0  0
  3  4  2  0  0  0  0
  3  2  1  0  0  0  0
  4  5  1  0  0  0  0
  5  7  1  0  0  0  0
  5  6  2  0  0  0  0
  7 11  1  0  0  0  0
  8  9  1  0  0  0  0
  8  7  1  0  0  0  0
  9 17  1  0  0  0  0
  9 10  1  0  0  0  0
 10 11  1  0  0  0  0
 10 18  1  0  0  0  0
 11 21  1  0  0  0  0
 11 20  1  0  0  0  0
 13  3  1  0  0  0  0
 14  8  1  0  0  0  0
 15  8  1  0  0  0  0
 16  9  1  0  0  0  0
 19 10  1  0  0  0  0
 22 23  1  0  0  0  0
 23 24  1  0  0  0  0
 24  2  1  0  0  0  0
 24 25  2  0  0  0  0
 25 26  1  0  0  0  0
 27 25  1  0  0  0  0
 27 28  1  0  0  0  0
 29 27  2  0  0  0  0
 30 23  2  0  0  0  0
 30 29  1  0  0  0  0
M  END
>  <minimizedAffinity>
-5.20385504

$$$$

 OpenBabel03272510073D

 30 32  0  0  0  0  0  0  0  0999 V2000
   37.9460   24.9550   34.1520 C   0  0  0  0  0  0  0  0  0  0  0  0
   38.7940   25.2470   35.2510 C   0  0  0  0  0  0  0  0  0  0  0  0
   38.8390   26.5680   35.7000 C   0  0  0  0  0  0  0  0  0  0  0  0
   38.0770   27.4860   35.0670 N   0  0  0  0  0  0  0  0  0  0  0  0
   37.2810   27.1920   34.0280 C   0  0  0  0  0  0  0  0  0  0  0  0
   37.2130   25.9330   33.5710 N   0  0  0  0  0  0  0  0  0  0  0  0
   36.5100   28.2310   33.4210 N   0  0  0  0  0  0  0  0  0  0  0  0
   35.5170   29.0060   34.1550 C   0  0  0  0  0  0  0  0  0  0  0  0
   35.1480   30.1240   33.2430 C   0  0  0  0  0  0  0  0  0  0  0  0
   36.1340   30.0780   32.0970 C   0  0  0  0  0  0  0  0  0  0  0  0
   36.5920   28.6560   32.0450 C   0  0  0  0  0  0  0  0  0  0  0  0
   37.9050   23.9240   33.7940 H   0  0  0  0  0  0  0  0  0  0  0  0
   39.4470   26.8840   36.5200 H   0  0  0  0  0  0  0  0  0  0  0  0
   34.7040   28.3150   34.4240 H   0  0  0  0  0  0  0  0  0  0  0  0
   36.0570   29.3770   35.0700 H   0  0  0  0  0  0  0  0  0  0  0  0
   35.3540   31.1020   33.7660 H   0  0  0  0  0  0  0  0  0  0  0  0
   34.0910   30.0350   32.9120 H   0  0  0  0  0  0  0  0  0  0  0  0
   35.5790   30.3030   31.1590 H   0  0  0  0  0  0  0  0  0  0  0  0
   36.9760   30.7990   32.2260 H   0  0  0  0  0  0  0  0  0  0  0  0
   36.0160   28.0210   31.3540 H   0  0  0  0  0  0  0  0  0  0  0  0
   37.6700   28.6430   31.7570 H   0  0  0  0  0  0  0  0  0  0  0  0
   37.6240   23.7420   37.6380 Cl  0  0  0  0  0  0  0  0  0  0  0  0
   39.2110   23.4740   36.9870 C   0  0  0  0  0  0  0  0  0  0  0  0
   39.6020   24.2280   35.9080 C   0  0  0  0  0  0  0  0  0  0  0  0
   40.8580   24.0260   35.3800 C   0  0  0  0  0  0  0  0  0  0  0  0
   41.3120   24.5350   34.5390 H   0  0  0  0  0  0  0  0  0  0  0  0
   41.7060   23.0930   35.9150 C   0  0  0  0  0  0  0  0  0  0  0  0
   42.7230   22.8660   35.5600 H   0  0  0  0  0  0  0  0  0  0  0  0
   41.3370   22.3230   37.0010 C   0  0  0  0  0  3  0  0  0  0  0  0
   40.0780   22.5320   37.5220 C   0  0  0  0  0  3  0  0  0  0  0  0
  1  2  1  0  0  0  0
  2  3  2  0  0  0  0
  2 24  1  0  0  0  0
  3 13  1  0  0  0  0
  4  3  1  0  0  0  0
  5  4  2  0  0  0  0
  6  5  1  0  0  0  0
  6  1  2  0  0  0  0
  7  5  1  0  0  0  0
  7  8  1  0  0  0  0
  8 14  1  0  0  0  0
  8 15  1  0  0  0  0
  9 16  1  0  0  0  0
  9  8  1  0  0  0  0
 10 19  1  0  0  0  0
 10  9  1  0  0  0  0
 11 10  1  0  0  0  0
 11  7  1  0  0  0  0
 12  1  1  0  0  0  0
 17  9  1  0  0  0  0
 18 10  1  0  0  0  0
 20 11  1  0  0  0  0
 21 11  1  0  0  0  0
 23 30  1  0  0  0  0
 23 22  1  0  0  0  0
 24 23  2  0  0  0  0
 25 24  1  0  0  0  0
 25 27  2  0  0  0  0
 26 25  1  0  0  0  0
 27 29  1  0  0  0  0
 28 27  1  0  0  0  0
 29 30  2  0  0  0  0
M  END
>  <minimizedAffinity>
-5.1725421

$$$$

 OpenBabel03272510073D

 30 32  0  0  0  0  0  0  0  0999 V2000
   37.6880   25.2680   34.1900 C   0  0  0  0  0  0  0  0  0  0  0  0
   38.4280   25.5250   35.3720 C   0  0  0  0  0  0  0  0  0  0  0  0
   38.4100   26.8260   35.8780 C   0  0  0  0  0  0  0  0  0  0  0  0
   37.6930   27.7590   35.2160 N   0  0  0  0  0  0  0  0  0  0  0  0
   36.9980   27.5000   34.0970 C   0  0  0  0  0  0  0  0  0  0  0  0
   36.9940   26.2600   33.5850 N   0  0  0  0  0  0  0  0  0  0  0  0
   36.2670   28.5520   33.4660 N   0  0  0  0  0  0  0  0  0  0  0  0
   35.1990   29.2830   34.1390 C   0  0  0  0  0  0  0  0  0  0  0  0
   34.8940   30.4330   33.2430 C   0  0  0  0  0  0  0  0  0  0  0  0
   35.9800   30.4490   32.1910 C   0  0  0  0  0  0  0  0  0  0  0  0
   36.4660   29.0360   32.1220 C   0  0  0  0  0  0  0  0  0  0  0  0
   37.6970   24.2530   33.7880 H   0  0  0  0  0  0  0  0  0  0  0  0
   38.9360   27.1140   36.7610 H   0  0  0  0  0  0  0  0  0  0  0  0
   34.3770   28.5700   34.3040 H   0  0  0  0  0  0  0  0  0  0  0  0
   35.6480   29.6210   35.1130 H   0  0  0  0  0  0  0  0  0  0  0  0
   35.0360   31.3900   33.8230 H   0  0  0  0  0  0  0  0  0  0  0  0
   33.8730   30.3440   32.8140 H   0  0  0  0  0  0  0  0  0  0  0  0
   35.5080   30.7060   31.2160 H   0  0  0  0  0  0  0  0  0  0  0  0
   36.7950   31.1750   32.4250 H   0  0  0  0  0  0  0  0  0  0  0  0
   35.9650   28.4240   31.3560 H   0  0  0  0  0  0  0  0  0  0  0  0
   37.5650   29.0500   31.9330 H   0  0  0  0  0  0  0  0  0  0  0  0
   41.1120   24.6450   34.2070 Cl  0  0  0  0  0  0  0  0  0  0  0  0
   40.4060   23.9950   35.6540 C   0  0  0  0  0  0  0  0  0  0  0  0
   39.1900   24.4890   36.0570 C   0  0  0  0  0  0  0  0  0  0  0  0
   38.6190   23.9840   37.2040 C   0  0  0  0  0  0  0  0  0  0  0  0
   37.6730   24.2650   37.6510 H   0  0  0  0  0  0  0  0  0  0  0  0
   39.2440   23.0070   37.9330 C   0  0  0  0  0  0  0  0  0  0  0  0
   38.8620   22.5460   38.8570 H   0  0  0  0  0  0  0  0  0  0  0  0
   40.4670   22.4920   37.5470 C   0  0  0  0  0  3  0  0  0  0  0  0
   41.0320   23.0050   36.3980 C   0  0  0  0  0  3  0  0  0  0  0  0
  1  2  1  0  0  0  0
  2  3  2  0  0  0  0
  2 24  1  0  0  0  0
  3 13  1  0  0  0  0
  4  3  1  0  0  0  0
  5  4  2  0  0  0  0
  6  5  1  0  0  0  0
  6  1  2  0  0  0  0
  7  5  1  0  0  0  0
  7  8  1  0  0  0  0
  8 14  1  0  0  0  0
  8 15  1  0  0  0  0
  9 16  1  0  0  0  0
  9  8  1  0  0  0  0
 10 19  1  0  0  0  0
 10  9  1  0  0  0  0
 11 10  1  0  0  0  0
 11  7  1  0  0  0  0
 12  1  1  0  0  0  0
 17  9  1  0  0  0  0
 18 10  1  0  0  0  0
 20 11  1  0  0  0  0
 21 11  1  0  0  0  0
 22 23  1  0  0  0  0
 23 24  2  0  0  0  0
 23 30  1  0  0  0  0
 24 25  1  0  0  0  0
 25 26  1  0  0  0  0
 25 27  2  0  0  0  0
 27 28  1  0  0  0  0
 29 27  1  0  0  0  0
 30 29  2  0  0  0  0
M  END
>  <minimizedAffinity>
-5.17096043

$$$$

 OpenBabel03272510073D

 30 32  0  0  0  0  0  0  0  0999 V2000
   37.5900   22.9410   32.6080 C   0  0  0  0  0  0  0  0  0  0  0  0
   36.4700   22.3370   31.9810 C   0  0  0  0  0  0  0  0  0  0  0  0
   35.4790   23.1790   31.4740 C   0  0  0  0  0  0  0  0  0  0  0  0
   35.6430   24.5130   31.6080 N   0  0  0  0  0  0  0  0  0  0  0  0
   36.7090   25.0690   32.2040 C   0  0  0  0  0  0  0  0  0  0  0  0
   37.6800   24.2880   32.7020 N   0  0  0  0  0  0  0  0  0  0  0  0
   36.7960   26.4910   32.2990 N   0  0  0  0  0  0  0  0  0  0  0  0
   36.8120   27.3600   31.1270 C   0  0  0  0  0  0  0  0  0  0  0  0
   36.6500   28.7380   31.6650 C   0  0  0  0  0  0  0  0  0  0  0  0
   36.3040   28.5830   33.1300 C   0  0  0  0  0  0  0  0  0  0  0  0
   36.8770   27.2580   33.5180 C   0  0  0  0  0  0  0  0  0  0  0  0
   38.3690   22.2900   33.0070 H   0  0  0  0  0  0  0  0  0  0  0  0
   34.6000   22.8170   30.9870 H   0  0  0  0  0  0  0  0  0  0  0  0
   37.7520   27.1590   30.5920 H   0  0  0  0  0  0  0  0  0  0  0  0
   35.9200   27.0430   30.5190 H   0  0  0  0  0  0  0  0  0  0  0  0
   35.7350   29.2040   31.1980 H   0  0  0  0  0  0  0  0  0  0  0  0
   37.5670   29.3430   31.4960 H   0  0  0  0  0  0  0  0  0  0  0  0
   36.8420   29.3780   33.6940 H   0  0  0  0  0  0  0  0  0  0  0  0
   35.2070   28.6530   33.3220 H   0  0  0  0  0  0  0  0  0  0  0  0
   37.8950   27.3110   33.9370 H   0  0  0  0  0  0  0  0  0  0  0  0
   36.1920   26.7800   34.2580 H   0  0  0  0  0  0  0  0  0  0  0  0
   35.5440   20.7240   34.4040 Cl  0  0  0  0  0  0  0  0  0  0  0  0
   35.9250   20.0410   32.8550 C   0  0  0  0  0  0  0  0  0  0  0  0
   36.3290   20.8920   31.8560 C   0  0  0  0  0  0  0  0  0  0  0  0
   36.6340   20.3650   30.6210 C   0  0  0  0  0  0  0  0  0  0  0  0
   36.9650   20.8970   29.7380 H   0  0  0  0  0  0  0  0  0  0  0  0
   36.5390   19.0190   30.3850 C   0  0  0  0  0  0  0  0  0  0  0  0
   36.7620   18.5120   29.4330 H   0  0  0  0  0  0  0  0  0  0  0  0
   36.1350   18.1410   31.3730 C   0  0  0  0  0  3  0  0  0  0  0  0
   35.8310   18.6790   32.6060 C   0  0  0  0  0  3  0  0  0  0  0  0
  1  6  1  0  0  0  0
  1 12  1  0  0  0  0
  2  1  2  0  0  0  0
  3  4  2  0  0  0  0
  3  2  1  0  0  0  0
  4  5  1  0  0  0  0
  5  7  1  0  0  0  0
  5  6  2  0  0  0  0
  7 11  1  0  0  0  0
  8  9  1  0  0  0  0
  8  7  1  0  0  0  0
  9 10  1  0  0  0  0
 10 19  1  0  0  0  0
 10 11  1  0  0  0  0
 10 18  1  0  0  0  0
 11 20  1  0  0  0  0
 11 21  1  0  0  0  0
 13  3  1  0  0  0  0
 14  8  1  0  0  0  0
 15  8  1  0  0  0  0
 16  9  1  0  0  0  0
 17  9  1  0  0  0  0
 23 22  1  0  0  0  0
 24  2  1  0  0  0  0
 24 23  2  0  0  0  0
 25 24  1  0  0  0  0
 26 25  1  0  0  0  0
 27 25  2  0  0  0  0
 27 29  1  0  0  0  0
 28 27  1  0  0  0  0
 29 30  2  0  0  0  0
 30 23  1  0  0  0  0
M  END
>  <minimizedAffinity>
-5.1631074

$$$$

 OpenBabel03272510073D

 30 32  0  0  0  0  0  0  0  0999 V2000
   35.0020   29.2990   32.8000 C   0  0  0  0  0  0  0  0  0  0  0  0
   35.4700   29.3970   34.1350 C   0  0  0  0  0  0  0  0  0  0  0  0
   36.3620   28.4210   34.5830 C   0  0  0  0  0  0  0  0  0  0  0  0
   36.7250   27.4450   33.7230 N   0  0  0  0  0  0  0  0  0  0  0  0
   36.2720   27.3660   32.4630 C   0  0  0  0  0  0  0  0  0  0  0  0
   35.4150   28.2880   32.0010 N   0  0  0  0  0  0  0  0  0  0  0  0
   36.7140   26.2960   31.6260 N   0  0  0  0  0  0  0  0  0  0  0  0
   38.1180   26.0840   31.2930 C   0  0  0  0  0  0  0  0  0  0  0  0
   38.1620   24.7480   30.6360 C   0  0  0  0  0  0  0  0  0  0  0  0
   36.7940   24.1340   30.8340 C   0  0  0  0  0  0  0  0  0  0  0  0
   35.8740   25.3000   31.0070 C   0  0  0  0  0  0  0  0  0  0  0  0
   34.3050   30.0590   32.4420 H   0  0  0  0  0  0  0  0  0  0  0  0
   36.7670   28.4120   35.5710 H   0  0  0  0  0  0  0  0  0  0  0  0
   38.4330   26.9360   30.6740 H   0  0  0  0  0  0  0  0  0  0  0  0
   38.6530   26.0780   32.2820 H   0  0  0  0  0  0  0  0  0  0  0  0
   38.8670   24.0830   31.2140 H   0  0  0  0  0  0  0  0  0  0  0  0
   38.4480   24.8400   29.5660 H   0  0  0  0  0  0  0  0  0  0  0  0
   36.5180   23.6050   29.8950 H   0  0  0  0  0  0  0  0  0  0  0  0
   36.7620   23.4260   31.6960 H   0  0  0  0  0  0  0  0  0  0  0  0
   35.4000   25.6430   30.0740 H   0  0  0  0  0  0  0  0  0  0  0  0
   35.0870   25.0210   31.7480 H   0  0  0  0  0  0  0  0  0  0  0  0
   32.6240   29.3770   35.2440 Cl  0  0  0  0  0  0  0  0  0  0  0  0
   33.8120   30.5900   35.6060 C   0  0  0  0  0  0  0  0  0  0  0  0
   35.0540   30.4670   35.0320 C   0  0  0  0  0  0  0  0  0  0  0  0
   36.0070   31.4210   35.3110 C   0  0  0  0  0  0  0  0  0  0  0  0
   37.0240   31.4680   34.9410 H   0  0  0  0  0  0  0  0  0  0  0  0
   35.7300   32.4740   36.1420 C   0  0  0  0  0  0  0  0  0  0  0  0
   36.4280   33.2800   36.4190 H   0  0  0  0  0  0  0  0  0  0  0  0
   34.4890   32.6200   36.7310 C   0  0  0  0  0  3  0  0  0  0  0  0
   33.5410   31.6600   36.4460 C   0  0  0  0  0  3  0  0  0  0  0  0
  1  2  1  0  0  0  0
  2  3  2  0  0  0  0
  2 24  1  0  0  0  0
  3 13  1  0  0  0  0
  4  3  1  0  0  0  0
  5  4  2  0  0  0  0
  6  5  1  0  0  0  0
  6  1  2  0  0  0  0
  7  5  1  0  0  0  0
  8  7  1  0  0  0  0
  8 15  1  0  0  0  0
  9 10  1  0  0  0  0
  9 16  1  0  0  0  0
  9  8  1  0  0  0  0
 10 11  1  0  0  0  0
 10 19  1  0  0  0  0
 11  7  1  0  0  0  0
 11 21  1  0  0  0  0
 12  1  1  0  0  0  0
 14  8  1  0  0  0  0
 17  9  1  0  0  0  0
 18 10  1  0  0  0  0
 20 11  1  0  0  0  0
 22 23  1  0  0  0  0
 23 30  1  0  0  0  0
 24 25  1  0  0  0  0
 24 23  2  0  0  0  0
 25 27  2  0  0  0  0
 26 25  1  0  0  0  0
 27 28  1  0  0  0  0
 27 29  1  0  0  0  0
 30 29  2  0  0  0  0
M  END
>  <minimizedAffinity>
-5.11308336

$$$$

 OpenBabel03272510073D

 30 32  0  0  0  0  0  0  0  0999 V2000
   37.4940   25.4390   33.6480 C   0  0  0  0  0  0  0  0  0  0  0  0
   37.8060   26.8070   33.8500 C   0  0  0  0  0  0  0  0  0  0  0  0
   38.8500   27.1110   34.7250 C   0  0  0  0  0  0  0  0  0  0  0  0
   39.4980   26.0900   35.3260 N   0  0  0  0  0  0  0  0  0  0  0  0
   39.1900   24.8000   35.1250 C   0  0  0  0  0  0  0  0  0  0  0  0
   38.1930   24.4740   34.2890 N   0  0  0  0  0  0  0  0  0  0  0  0
   39.9330   23.7880   35.8050 N   0  0  0  0  0  0  0  0  0  0  0  0
   41.3730   23.6230   35.6420 C   0  0  0  0  0  0  0  0  0  0  0  0
   41.7740   22.6540   36.6990 C   0  0  0  0  0  0  0  0  0  0  0  0
   40.5660   22.4790   37.5920 C   0  0  0  0  0  0  0  0  0  0  0  0
   39.3960   22.8120   36.7230 C   0  0  0  0  0  0  0  0  0  0  0  0
   36.6790   25.1920   32.9650 H   0  0  0  0  0  0  0  0  0  0  0  0
   39.1570   28.1110   34.9400 H   0  0  0  0  0  0  0  0  0  0  0  0
   41.5430   23.3020   34.6040 H   0  0  0  0  0  0  0  0  0  0  0  0
   41.8050   24.6450   35.8290 H   0  0  0  0  0  0  0  0  0  0  0  0
   42.5540   23.1360   37.3550 H   0  0  0  0  0  0  0  0  0  0  0  0
   42.1260   21.7000   36.2510 H   0  0  0  0  0  0  0  0  0  0  0  0
   40.5010   21.4040   37.8720 H   0  0  0  0  0  0  0  0  0  0  0  0
   40.6160   23.1120   38.5110 H   0  0  0  0  0  0  0  0  0  0  0  0
   38.9430   21.9420   36.2220 H   0  0  0  0  0  0  0  0  0  0  0  0
   38.6290   23.3290   37.3460 H   0  0  0  0  0  0  0  0  0  0  0  0
   38.4800   27.4640   30.9430 Cl  0  0  0  0  0  0  0  0  0  0  0  0
   37.2750   28.2870   31.8840 C   0  0  0  0  0  0  0  0  0  0  0  0
   37.0820   27.8810   33.1820 C   0  0  0  0  0  0  0  0  0  0  0  0
   36.1290   28.5240   33.9400 C   0  0  0  0  0  0  0  0  0  0  0  0
   35.8590   28.3250   34.9710 H   0  0  0  0  0  0  0  0  0  0  0  0
   35.3850   29.5490   33.4190 C   0  0  0  0  0  0  0  0  0  0  0  0
   34.6060   30.1170   33.9510 H   0  0  0  0  0  0  0  0  0  0  0  0
   35.5620   29.9770   32.1170 C   0  0  0  0  0  3  0  0  0  0  0  0
   36.5170   29.3270   31.3650 C   0  0  0  0  0  3  0  0  0  0  0  0
  1  2  2  0  0  0  0
  1  6  1  0  0  0  0
  2  3  1  0  0  0  0
  3 13  1  0  0  0  0
  3  4  2  0  0  0  0
  5  4  1  0  0  0  0
  5  7  1  0  0  0  0
  6  5  2  0  0  0  0
  7 11  1  0  0  0  0
  8  7  1  0  0  0  0
  8 15  1  0  0  0  0
  8  9  1  0  0  0  0
  9 16  1  0  0  0  0
  9 10  1  0  0  0  0
 10 18  1  0  0  0  0
 10 19  1  0  0  0  0
 11 21  1  0  0  0  0
 11 10  1  0  0  0  0
 12  1  1  0  0  0  0
 14  8  1  0  0  0  0
 17  9  1  0  0  0  0
 20 11  1  0  0  0  0
 22 23  1  0  0  0  0
 23 24  1  0  0  0  0
 24  2  1  0  0  0  0
 24 25  2  0  0  0  0
 25 26  1  0  0  0  0
 27 25  1  0  0  0  0
 27 28  1  0  0  0  0
 29 27  2  0  0  0  0
 30 23  2  0  0  0  0
 30 29  1  0  0  0  0
M  END
>  <minimizedAffinity>
-5.08651304

$$$$

 OpenBabel03272510073D

 30 32  0  0  0  0  0  0  0  0999 V2000
   37.4420   25.4080   33.2380 C   0  0  0  0  0  0  0  0  0  0  0  0
   38.0740   26.6720   33.1280 C   0  0  0  0  0  0  0  0  0  0  0  0
   39.1270   26.9480   34.0020 C   0  0  0  0  0  0  0  0  0  0  0  0
   39.4810   25.9990   34.8960 N   0  0  0  0  0  0  0  0  0  0  0  0
   38.8720   24.8080   34.9870 C   0  0  0  0  0  0  0  0  0  0  0  0
   37.8570   24.5110   34.1620 N   0  0  0  0  0  0  0  0  0  0  0  0
   39.3160   23.8660   35.9660 N   0  0  0  0  0  0  0  0  0  0  0  0
   40.6770   23.3400   35.9910 C   0  0  0  0  0  0  0  0  0  0  0  0
   40.7860   22.6160   37.2880 C   0  0  0  0  0  0  0  0  0  0  0  0
   39.5400   22.9630   38.0730 C   0  0  0  0  0  0  0  0  0  0  0  0
   38.5220   23.3150   37.0360 C   0  0  0  0  0  0  0  0  0  0  0  0
   36.6170   25.1840   32.5580 H   0  0  0  0  0  0  0  0  0  0  0  0
   39.6630   27.8720   33.9950 H   0  0  0  0  0  0  0  0  0  0  0  0
   40.8010   22.7280   35.0860 H   0  0  0  0  0  0  0  0  0  0  0  0
   41.3400   24.2480   35.9640 H   0  0  0  0  0  0  0  0  0  0  0  0
   41.6370   23.0610   37.8800 H   0  0  0  0  0  0  0  0  0  0  0  0
   40.9090   21.5240   37.1250 H   0  0  0  0  0  0  0  0  0  0  0  0
   39.2020   22.0430   38.5990 H   0  0  0  0  0  0  0  0  0  0  0  0
   39.7110   23.7850   38.8080 H   0  0  0  0  0  0  0  0  0  0  0  0
   37.8870   22.4710   36.7220 H   0  0  0  0  0  0  0  0  0  0  0  0
   37.8830   24.1380   37.4340 H   0  0  0  0  0  0  0  0  0  0  0  0
   35.8830   28.6650   33.8760 Cl  0  0  0  0  0  0  0  0  0  0  0  0
   36.6960   28.6250   32.3420 C   0  0  0  0  0  0  0  0  0  0  0  0
   37.6630   27.6700   32.1490 C   0  0  0  0  0  0  0  0  0  0  0  0
   38.3170   27.6270   30.9380 C   0  0  0  0  0  0  0  0  0  0  0  0
   39.0960   26.9400   30.6310 H   0  0  0  0  0  0  0  0  0  0  0  0
   38.0140   28.5150   29.9400 C   0  0  0  0  0  0  0  0  0  0  0  0
   38.4840   28.5530   28.9450 H   0  0  0  0  0  0  0  0  0  0  0  0
   37.0450   29.4850   30.1090 C   0  0  0  0  0  3  0  0  0  0  0  0
   36.3960   29.5210   31.3260 C   0  0  0  0  0  3  0  0  0  0  0  0
  1  6  1  0  0  0  0
  2  1  2  0  0  0  0
  2  3  1  0  0  0  0
  3  4  2  0  0  0  0
  4  5  1  0  0  0  0
  5  7  1  0  0  0  0
  6  5  2  0  0  0  0
  7  8  1  0  0  0  0
  7 11  1  0  0  0  0
  8  9  1  0  0  0  0
  9 16  1  0  0  0  0
  9 10  1  0  0  0  0
 10 18  1  0  0  0  0
 10 19  1  0  0  0  0
 11 21  1  0  0  0  0
 11 10  1  0  0  0  0
 12  1  1  0  0  0  0
 13  3  1  0  0  0  0
 14  8  1  0  0  0  0
 15  8  1  0  0  0  0
 17  9  1  0  0  0  0
 20 11  1  0  0  0  0
 23 22  1  0  0  0  0
 24 23  1  0  0  0  0
 24  2  1  0  0  0  0
 25 24  2  0  0  0  0
 26 25  1  0  0  0  0
 27 29  2  0  0  0  0
 27 25  1  0  0  0  0
 28 27  1  0  0  0  0
 29 30  1  0  0  0  0
 30 23  2  0  0  0  0
M  END
>  <minimizedAffinity>
-5.06429529

$$$$
