
 OpenBabel03272507013D

 46 49  0  0  1  0  0  0  0  0999 V2000
   34.9500   29.9940   49.0280 C   0  0  2  0  0  0  0  0  0  0  0  0
   35.8450   30.5980   48.0080 C   0  0  0  0  0  0  0  0  0  0  0  0
   37.2190   29.9520   47.9740 C   0  0  2  0  0  0  0  0  0  0  0  0
   37.8910   30.0100   49.3100 C   0  0  0  0  0  0  0  0  0  0  0  0
   36.9910   29.6620   50.4460 C   0  0  0  0  0  0  0  0  0  0  0  0
   35.6720   29.0920   50.0000 C   0  0  0  0  0  0  0  0  0  0  0  0
   34.4270   30.7510   49.6840 H   0  0  0  0  0  0  0  0  0  0  0  0
   35.9440   31.6930   48.2960 H   0  0  0  0  0  0  0  0  0  0  0  0
   35.5270   30.6160   46.9710 H   0  0  0  0  0  0  0  0  0  0  0  0
   37.0500   28.8860   47.7240 H   0  0  0  0  0  0  0  0  0  0  0  0
   38.3080   31.0000   49.5620 H   0  0  0  0  0  0  0  0  0  0  0  0
   38.7350   29.2920   49.3020 H   0  0  0  0  0  0  0  0  0  0  0  0
   36.7410   30.5600   51.0640 H   0  0  0  0  0  0  0  0  0  0  0  0
   37.4510   28.9420   51.1540 H   0  0  0  0  0  0  0  0  0  0  0  0
   35.0230   28.9220   50.8620 H   0  0  0  0  0  0  0  0  0  0  0  0
   35.8900   28.1450   49.4290 H   0  0  0  0  0  0  0  0  0  0  0  0
   38.0610   30.5230   46.9870 N   0  0  1  0  0  0  0  0  0  0  0  0
   38.0180   29.8190   45.7220 C   0  0  0  0  0  0  0  0  0  0  0  0
   38.9720   30.6550   44.8810 C   0  0  0  0  0  0  0  0  0  0  0  0
   38.6320   32.0480   45.3210 C   0  0  0  0  0  0  0  0  0  0  0  0
   37.9440   31.8740   46.6890 C   0  0  2  0  0  0  0  0  0  0  0  0
   37.0340   29.7710   45.2580 H   0  0  0  0  0  0  0  0  0  0  0  0
   38.5070   28.8170   45.8200 H   0  0  0  0  0  0  0  0  0  0  0  0
   40.0050   30.3520   44.9620 H   0  0  0  0  0  0  0  0  0  0  0  0
   38.6090   30.5110   43.8250 H   0  0  0  0  0  0  0  0  0  0  0  0
   37.9560   32.5260   44.5860 H   0  0  0  0  0  0  0  0  0  0  0  0
   39.5540   32.6170   45.3540 H   0  0  0  0  0  0  0  0  0  0  0  0
   36.9300   32.2780   46.5730 H   0  0  0  0  0  0  0  0  0  0  0  0
   40.2500   33.4880   45.4470 Cl  0  0  0  0  0  0  0  0  0  0  0  0
   39.7740   33.6520   47.1220 C   0  0  0  0  0  0  0  0  0  0  0  0
   38.7070   32.8460   47.5390 C   0  0  0  0  0  0  0  0  0  0  0  0
   38.3680   33.0140   48.8880 C   0  0  0  0  0  0  0  0  0  0  0  0
   37.5350   32.4020   49.2620 H   0  0  0  0  0  0  0  0  0  0  0  0
   38.9720   33.8600   49.7750 C   0  0  0  0  0  0  0  0  0  0  0  0
   38.6190   33.9020   50.8000 H   0  0  0  0  0  0  0  0  0  0  0  0
   40.0080   34.6210   49.3110 C   0  0  0  0  0  0  0  0  0  0  0  0
   40.3870   34.5080   48.0120 C   0  0  0  0  0  0  0  0  0  0  0  0
   33.8570   29.1920   48.4280 C   0  0  0  0  0  0  0  0  0  0  0  0
   33.5770   29.4920   47.0930 C   0  0  0  0  0  0  0  0  0  0  0  0
   32.5570   28.7420   46.4820 C   0  0  0  0  0  0  0  0  0  0  0  0
   31.8980   27.7730   47.2070 N   0  0  0  0  0  0  0  0  0  0  0  0
   32.2110   27.5220   48.5060 C   0  0  0  0  0  0  0  0  0  0  0  0
   33.1690   28.2250   49.0820 N   0  0  0  0  0  0  0  0  0  0  0  0
   33.9010   30.1620   46.3240 H   0  0  0  0  0  0  0  0  0  0  0  0
   32.1560   28.7710   45.4920 H   0  0  0  0  0  0  0  0  0  0  0  0
   31.6790   26.7550   49.0590 H   0  0  0  0  0  0  0  0  0  0  0  0
  1  7  1  1  0  0  0
  1  6  1  0  0  0  0
  2  8  1  0  0  0  0
  2  1  1  0  0  0  0
  3 10  1  6  0  0  0
  3  2  1  0  0  0  0
  3  4  1  0  0  0  0
  4 11  1  0  0  0  0
  4  5  1  0  0  0  0
  5 13  1  0  0  0  0
  5 14  1  0  0  0  0
  6  5  1  0  0  0  0
  6 15  1  0  0  0  0
  9  2  1  0  0  0  0
 12  4  1  0  0  0  0
 16  6  1  0  0  0  0
 17 18  1  6  0  0  0
 17  3  1  0  0  0  0
 18 23  1  0  0  0  0
 19 24  1  0  0  0  0
 19 20  1  0  0  0  0
 19 18  1  0  0  0  0
 20 27  1  0  0  0  0
 20 21  1  0  0  0  0
 21 28  1  6  0  0  0
 21 17  1  0  0  0  0
 21 31  1  0  0  0  0
 22 18  1  0  0  0  0
 25 19  1  0  0  0  0
 26 20  1  0  0  0  0
 29 30  1  0  0  0  0
 30 31  2  0  0  0  0
 30 37  1  0  0  0  0
 31 32  1  0  0  0  0
 32 33  1  0  0  0  0
 32 34  2  0  0  0  0
 34 35  1  0  0  0  0
 36 34  1  0  0  0  0
 37 36  2  0  0  0  0
 38  1  1  0  0  0  0
 38 43  1  0  0  0  0
 39 38  2  0  0  0  0
 40 39  1  0  0  0  0
 40 41  2  0  0  0  0
 41 42  1  0  0  0  0
 42 46  1  0  0  0  0
 42 43  2  0  0  0  0
 44 39  1  0  0  0  0
 45 40  1  0  0  0  0
M  END
>  <minimizedAffinity>
-5.98229599

>  <minimizedRMSD>
1.67361927

$$$$
