
     RDKit          3D

 38 41  0  0  0  0  0  0  0  0999 V2000
   37.3083   29.3356   51.0251 Br  0  0  0  0  0  0  0  0  0  0  0  0
   35.9654   29.3301   49.6811 C   0  0  0  0  0  0  0  0  0  0  0  0
   35.9932   30.2574   48.6426 C   0  0  0  0  0  0  0  0  0  0  0  0
   34.9872   30.1902   47.7083 C   0  0  0  0  0  0  0  0  0  0  0  0
   33.9682   29.2693   47.7429 C   0  0  0  0  0  0  0  0  0  0  0  0
   33.9643   28.3661   48.7777 C   0  0  0  0  0  0  0  0  0  0  0  0
   34.9596   28.4061   49.7325 C   0  0  0  0  0  0  0  0  0  0  0  0
   37.9970   33.1891   49.4580 C   0  0  0  0  0  0  0  0  0  0  0  0
   39.0235   33.1741   48.4698 C   0  0  0  0  0  0  0  0  0  0  0  0
   38.9994   32.1456   47.5395 C   0  0  0  0  0  0  0  0  0  0  0  0
   38.0077   31.2183   47.6212 N   0  0  0  0  0  0  0  0  0  0  0  0
   37.0508   31.2527   48.5613 C   0  0  0  0  0  0  0  0  0  0  0  0
   37.0479   32.2462   49.4849 N   0  0  0  0  0  0  0  0  0  0  0  0
   32.9021   29.1980   46.7527 C   0  0  0  0  0  0  0  0  0  0  0  0
   32.2620   28.0362   46.3705 C   0  0  0  0  0  0  0  0  0  0  0  0
   31.2500   28.0260   45.4197 C   0  0  0  0  0  0  0  0  0  0  0  0
   30.8713   29.1814   44.8441 N   0  0  0  0  0  0  0  0  0  0  0  0
   31.4952   30.3155   45.2164 C   0  0  0  0  0  0  0  0  0  0  0  0
   32.4620   30.3102   46.1275 N   0  0  0  0  0  0  0  0  0  0  0  0
   35.0199   30.9119   46.9111 H   0  0  0  0  0  0  0  0  0  0  0  0
   33.1719   27.6229   48.8357 H   0  0  0  0  0  0  0  0  0  0  0  0
   34.8919   27.6594   50.5233 H   0  0  0  0  0  0  0  0  0  0  0  0
   38.0062   33.9837   50.1857 H   0  0  0  0  0  0  0  0  0  0  0  0
   39.7715   33.9495   48.4786 H   0  0  0  0  0  0  0  0  0  0  0  0
   39.7634   32.0984   46.7706 H   0  0  0  0  0  0  0  0  0  0  0  0
   32.5736   27.1102   46.8394 H   0  0  0  0  0  0  0  0  0  0  0  0
   30.8199   27.0512   45.1996 H   0  0  0  0  0  0  0  0  0  0  0  0
   31.0988   30.2616   42.1884 Cl  0  0  0  0  0  0  0  0  0  0  0  0
   30.8566   31.6546   43.2185 C   0  0  0  0  0  0  0  0  0  0  0  0
   31.0678   31.5581   44.5784 C   0  0  0  0  0  0  0  0  0  0  0  0
   30.8661   32.6875   45.3739 C   0  0  0  0  0  0  0  0  0  0  0  0
   31.0122   32.6813   46.4376 H   0  0  0  0  0  0  0  0  0  0  0  0
   30.4617   33.8391   44.7209 C   0  0  0  0  0  0  0  0  0  0  0  0
   30.2954   34.7381   45.3128 H   0  0  0  0  0  0  0  0  0  0  0  0
   30.2500   33.9377   43.3612 C   0  0  0  0  0  0  0  0  0  0  0  0
   30.4537   32.8029   42.5696 C   0  0  0  0  0  0  0  0  0  0  0  0
   29.9374   34.8495   42.9004 H   0  0  0  0  0  0  0  0  0  0  0  0
   30.2927   32.8660   41.5117 H   0  0  0  0  0  0  0  0  0  0  0  0
  2  7  2  0
  2  1  1  0
  3  2  1  0
  4  5  1  0
  4  3  2  0
  5  6  2  0
  6  7  1  0
  8 13  2  0
  9  8  1  0
 10 11  1  0
 10  9  2  0
 11 12  2  0
 12  3  1  0
 12 13  1  0
 14  5  1  0
 15 14  2  0
 16 15  1  0
 17 18  1  0
 17 16  2  0
 18 19  2  0
 19 14  1  0
  4 20  1  0
  6 21  1  0
  7 22  1  0
  8 23  1  0
  9 24  1  0
 10 25  1  0
 15 26  1  0
 16 27  1  0
 28 29  1  0
 29 30  2  0
 30 31  1  0
 31 32  1  0
 31 33  2  0
 33 34  1  0
 33 35  1  0
 35 36  2  0
 36 29  1  0
 35 37  1  0
 36 38  1  0
 18 30  1  0
M  ISO  8  20  14  21  14  22  14  23  14  24  14  25  14  26  14  27  14
M  ISO  2  32  15  34  16
M  END
>  <DihAtoms>  (1) 
16,17,29,28

>  <DihDeg>  (1) 
179.9997734057363

$$$$
