
     RDKit          3D

 37 39  0  0  0  0  0  0  0  0999 V2000
   33.2755   27.2873   47.9944 C   0  0  0  0  0  0  0  0  0  0  0  0
   33.7054   26.2106   47.0535 C   0  0  0  0  0  0  0  0  0  0  0  0
   33.9376   24.8825   47.3883 C   0  0  0  0  0  0  0  0  0  0  0  0
   34.3326   23.9829   46.4192 C   0  0  0  0  0  0  0  0  0  0  0  0
   34.5094   24.3804   45.0801 C   0  0  0  0  0  0  0  0  0  0  0  0
   34.2789   25.7030   44.7431 C   0  0  0  0  0  0  0  0  0  0  0  0
   33.8842   26.5992   45.7145 C   0  0  0  0  0  0  0  0  0  0  0  0
   34.6701   28.4133   49.7301 C   0  0  0  0  0  0  0  0  0  0  0  0
   34.4130   28.0722   48.4953 C   0  0  0  0  0  0  0  0  0  0  0  0
   37.3770   30.2125   51.4077 C   0  0  0  0  0  0  0  0  0  0  0  0
   38.1163   30.6743   50.3061 C   0  0  0  0  0  0  0  0  0  0  0  0
   37.6847   30.3686   49.0110 C   0  0  0  0  0  0  0  0  0  0  0  0
   36.5389   29.6187   48.9489 N   0  0  0  0  0  0  0  0  0  0  0  0
   35.8573   29.1938   50.0039 C   0  0  0  0  0  0  0  0  0  0  0  0
   36.2841   29.4959   51.2329 N   0  0  0  0  0  0  0  0  0  0  0  0
   32.6187   27.9906   47.4368 H   0  0  0  0  0  0  0  0  0  0  0  0
   32.6640   26.8997   48.8328 H   0  0  0  0  0  0  0  0  0  0  0  0
   33.7903   24.6258   48.4200 H   0  0  0  0  0  0  0  0  0  0  0  0
   34.4832   22.9844   46.7910 H   0  0  0  0  0  0  0  0  0  0  0  0
   34.8199   23.6040   44.3961 H   0  0  0  0  0  0  0  0  0  0  0  0
   34.4250   25.9677   43.7094 H   0  0  0  0  0  0  0  0  0  0  0  0
   33.7235   27.6105   45.3788 H   0  0  0  0  0  0  0  0  0  0  0  0
   33.9798   28.0946   50.5053 H   0  0  0  0  0  0  0  0  0  0  0  0
   35.0348   28.3360   47.6354 H   0  0  0  0  0  0  0  0  0  0  0  0
   37.7857   30.4973   52.3717 H   0  0  0  0  0  0  0  0  0  0  0  0
   38.9872   31.2304   50.4232 H   0  0  0  0  0  0  0  0  0  0  0  0
   36.3441   29.6181   46.2680 Cl  0  0  0  0  0  0  0  0  0  0  0  0
   37.8462   30.4751   46.4707 C   0  0  0  0  0  0  0  0  0  0  0  0
   38.2862   30.7144   47.7421 C   0  0  0  0  0  0  0  0  0  0  0  0
   39.4978   31.3720   47.7641 C   0  0  0  0  0  0  0  0  0  0  0  0
   40.0045   31.6470   48.6824 H   0  0  0  0  0  0  0  0  0  0  0  0
   40.1834   31.7450   46.6432 C   0  0  0  0  0  0  0  0  0  0  0  0
   41.1228   32.2555   46.6767 H   0  0  0  0  0  0  0  0  0  0  0  0
   39.6859   31.4756   45.3983 C   0  0  0  0  0  0  0  0  0  0  0  0
   38.4798   30.8203   45.3111 C   0  0  0  0  0  0  0  0  0  0  0  0
   40.2199   31.7665   44.5087 H   0  0  0  0  0  0  0  0  0  0  0  0
   38.0797   30.6036   44.3340 H   0  0  0  0  0  0  0  0  0  0  0  0
  1  9  1  0
  2  3  2  0
  2  1  1  0
  4  3  1  0
  5  4  2  0
  6  5  1  0
  6  7  2  0
  7  2  1  0
  8 14  1  0
  9  8  2  0
 11 10  2  0
 12 11  1  0
 13 12  2  0
 13 14  1  0
 14 15  2  0
 15 10  1  0
  1 16  1  0
  1 17  1  0
  3 18  1  0
  4 19  1  0
  5 20  1  0
  6 21  1  0
  7 22  1  0
  8 23  1  0
  9 24  1  0
 10 25  1  0
 11 26  1  0
 27 28  1  0
 28 29  2  0
 29 30  1  0
 30 31  1  0
 30 32  2  0
 32 33  1  0
 32 34  1  0
 34 35  2  0
 35 28  1  0
 34 36  1  0
 35 37  1  0
 12 29  1  0
M  ISO  8  16   8  17   8  18  14  19  14  20  14  21  14  22  14  25  14
M  ISO  3  26  14  31  15  33  16
M  END
>  <DihAtoms>  (1) 
10,11,28,27

>  <DihDeg>  (1) 
-11.713693288408649

$$$$
