
 OpenBabel03262520163D

 18 19  0  0  0  0  0  0  0  0999 V2000
   37.0480   29.5460   50.8450 C   0  0  0  0  0  0  0  0  0  0  0  0
   37.9230   30.0750   49.8880 C   0  0  0  0  0  0  0  0  0  0  0  0
   37.4520   30.7340   48.7550 C   0  0  0  0  0  0  0  0  0  0  0  0
   36.1030   30.8270   48.6430 N   0  0  0  0  0  0  0  0  0  0  0  0
   35.2680   30.3180   49.5630 C   0  0  0  0  0  0  0  0  0  0  0  0
   35.7280   29.6840   50.6530 N   0  0  0  0  0  0  0  0  0  0  0  0
   37.4330   29.0370   51.7190 H   0  0  0  0  0  0  0  0  0  0  0  0
   38.9650   29.9620   50.0470 H   0  0  0  0  0  0  0  0  0  0  0  0
   34.2130   30.4870   49.3090 H   0  0  0  0  0  0  0  0  0  0  0  0
   38.4310   33.4610   49.3520 Cl  0  0  0  0  0  0  0  0  0  0  0  0
   38.8360   32.5440   47.9290 C   0  0  0  0  0  0  0  0  0  0  0  0
   38.3350   31.2950   47.7430 C   0  0  0  0  0  0  0  0  0  0  0  0
   38.7130   30.6500   46.5870 C   0  0  0  0  0  0  0  0  0  0  0  0
   38.3360   29.6550   46.4010 H   0  0  0  0  0  0  0  0  0  0  0  0
   39.5400   31.1770   45.6410 C   0  0  0  0  0  0  0  0  0  0  0  0
   39.8290   30.6590   44.7370 H   0  0  0  0  0  0  0  0  0  0  0  0
   40.0330   32.4430   45.8560 C   0  0  0  0  0  0  0  0  0  0  0  0
   39.6860   33.1480   47.0080 C   0  0  0  0  0  0  0  0  0  0  0  0
  1  7  1  0  0  0  0
  2  8  1  0  0  0  0
  2  1  2  0  0  0  0
  3  2  1  0  0  0  0
  4  3  2  0  0  0  0
  4  5  1  0  0  0  0
  5  6  2  0  0  0  0
  6  1  1  0  0  0  0
  9  5  1  0  0  0  0
 11 10  1  0  0  0  0
 12 11  1  0  0  0  0
 12  3  1  0  0  0  0
 13 12  2  0  0  0  0
 14 13  1  0  0  0  0
 15 17  2  0  0  0  0
 15 13  1  0  0  0  0
 16 15  1  0  0  0  0
 17 18  1  0  0  0  0
 18 11  2  0  0  0  0
M  END
>  <minimizedAffinity>
-5.25680161

>  <minimizedRMSD>
0.804974854

$$$$
