
 OpenBabel03272509213D

 46 50  0  0  0  0  0  0  0  0999 V2000
   38.0110   31.2500   47.7020 C   0  0  0  0  0  0  0  0  0  0  0  0
   37.1110   31.2920   48.7480 C   0  0  0  0  0  0  0  0  0  0  0  0
   37.2620   32.3940   49.5900 C   0  0  0  0  0  0  0  0  0  0  0  0
   38.2450   33.3640   49.3760 C   0  0  0  0  0  0  0  0  0  0  0  0
   39.1190   33.2270   48.2730 C   0  0  0  0  0  0  0  0  0  0  0  0
   38.9830   32.1340   47.4220 C   0  0  0  0  0  0  0  0  0  0  0  0
   36.5730   32.4650   50.4270 H   0  0  0  0  0  0  0  0  0  0  0  0
   38.3450   34.2150   50.0450 H   0  0  0  0  0  0  0  0  0  0  0  0
   39.8640   34.0010   48.1460 H   0  0  0  0  0  0  0  0  0  0  0  0
   34.9320   30.3190   48.2120 C   0  0  0  0  0  0  0  0  0  0  0  0
   36.1040   30.3070   48.9730 C   0  0  0  0  0  0  0  0  0  0  0  0
   36.2270   29.3020   49.9410 C   0  0  0  0  0  0  0  0  0  0  0  0
   35.2340   28.4040   50.0980 N   0  0  0  0  0  0  0  0  0  0  0  0
   34.1050   28.4630   49.3220 C   0  0  0  0  0  0  0  0  0  0  0  0
   33.9630   29.4050   48.3990 N   0  0  0  0  0  0  0  0  0  0  0  0
   34.8040   31.0820   47.4560 H   0  0  0  0  0  0  0  0  0  0  0  0
   33.3290   27.7210   49.4820 H   0  0  0  0  0  0  0  0  0  0  0  0
   37.4630   29.2480   50.7800 C   0  0  0  0  0  0  0  0  0  0  0  0
   37.3490   28.4500   51.5190 H   0  0  0  0  0  0  0  0  0  0  0  0
   37.6610   30.2270   51.2570 H   0  0  0  0  0  0  0  0  0  0  0  0
   38.2770   28.9240   50.0960 H   0  0  0  0  0  0  0  0  0  0  0  0
   37.9430   30.1830   46.7990 O   0  0  0  0  0  0  0  0  0  0  0  0
   37.3900   30.2410   45.9540 H   0  0  0  0  0  0  0  0  0  0  0  0
   39.8700   32.0730   46.3720 O   0  0  0  0  0  0  0  0  0  0  0  0
   40.1350   31.0140   44.1310 C   0  0  0  0  0  0  0  0  0  0  0  0
   39.5590   31.8690   45.0520 C   0  0  0  0  0  0  0  0  0  0  0  0
   38.5000   32.6750   44.6470 C   0  0  0  0  0  0  0  0  0  0  0  0
   38.0240   32.6240   43.3350 C   0  0  0  0  0  0  0  0  0  0  0  0
   37.0440   33.2570   42.6560 N   0  0  0  0  0  0  0  0  0  0  0  0
   37.0150   32.8160   41.3810 C   0  0  0  0  0  0  0  0  0  0  0  0
   38.0020   31.8850   41.2610 N   0  0  0  0  0  0  0  0  0  0  0  0
   38.6230   31.7610   42.4500 C   0  0  0  0  0  0  0  0  0  0  0  0
   39.6730   30.9590   42.8400 C   0  0  0  0  0  0  0  0  0  0  0  0
   40.9410   30.4350   44.5310 H   0  0  0  0  0  0  0  0  0  0  0  0
   37.9620   33.3840   45.2630 H   0  0  0  0  0  0  0  0  0  0  0  0
   36.4140   33.9660   43.0430 H   0  0  0  0  0  0  0  0  0  0  0  0
   36.3390   33.1360   40.5890 H   0  0  0  0  0  0  0  0  0  0  0  0
   38.6090   28.2330   43.1530 Cl  0  0  0  0  0  0  0  0  0  0  0  0
   39.8400   28.7500   42.0200 C   0  0  0  0  0  0  0  0  0  0  0  0
   40.3120   30.0410   41.9050 C   0  0  0  0  0  0  0  0  0  0  0  0
   41.2940   30.3480   40.9700 C   0  0  0  0  0  0  0  0  0  0  0  0
   41.5990   31.3770   40.9540 H   0  0  0  0  0  0  0  0  0  0  0  0
   41.7680   29.3230   40.1760 C   0  0  0  0  0  0  0  0  0  0  0  0
   42.5360   29.6510   39.4710 H   0  0  0  0  0  0  0  0  0  0  0  0
   41.3050   28.0280   40.2790 C   0  0  0  0  0  3  0  0  0  0  0  0
   40.3250   27.7370   41.2170 C   0  0  0  0  0  3  0  0  0  0  0  0
  1  2  1  0  0  0  0
  2 11  1  0  0  0  0
  2  3  2  0  0  0  0
  3  7  1  0  0  0  0
  4  3  1  0  0  0  0
  4  8  1  0  0  0  0
  5  4  2  0  0  0  0
  6  1  2  0  0  0  0
  6  5  1  0  0  0  0
  9  5  1  0  0  0  0
 10 15  2  0  0  0  0
 10 11  1  0  0  0  0
 11 12  2  0  0  0  0
 12 13  1  0  0  0  0
 12 18  1  0  0  0  0
 14 17  1  0  0  0  0
 14 13  2  0  0  0  0
 15 14  1  0  0  0  0
 16 10  1  0  0  0  0
 18 20  1  0  0  0  0
 18 19  1  0  0  0  0
 21 18  1  0  0  0  0
 22  1  1  0  0  0  0
 23 22  1  0  0  0  0
 24  6  1  0  0  0  0
 25 34  1  0  0  0  0
 25 26  1  0  0  0  0
 26 24  1  0  0  0  0
 27 26  2  0  0  0  0
 27 35  1  0  0  0  0
 28 27  1  0  0  0  0
 29 36  1  0  0  0  0
 29 28  1  0  0  0  0
 30 29  1  0  0  0  0
 31 30  2  0  0  0  0
 31 32  1  0  0  0  0
 32 33  1  0  0  0  0
 32 28  2  0  0  0  0
 33 25  2  0  0  0  0
 37 30  1  0  0  0  0
 39 38  1  0  0  0  0
 40 39  1  0  0  0  0
 40 33  1  0  0  0  0
 41 40  2  0  0  0  0
 42 41  1  0  0  0  0
 43 45  2  0  0  0  0
 43 41  1  0  0  0  0
 44 43  1  0  0  0  0
 45 46  1  0  0  0  0
 46 39  2  0  0  0  0
M  END
>  <minimizedAffinity>
-7.66998816

>  <minimizedRMSD>
0.524985194

$$$$
