
 OpenBabel03272502073D

 39 42  0  0  0  0  0  0  0  0999 V2000
   34.3180   30.3670   47.7010 F   0  0  0  0  0  0  0  0  0  0  0  0
   34.6560   29.9040   46.4540 C   0  0  0  0  0  0  0  0  0  0  0  0
   33.7420   29.2650   45.6340 C   0  0  0  0  0  0  0  0  0  0  0  0
   34.1480   28.8450   44.3900 C   0  0  0  0  0  0  0  0  0  0  0  0
   35.4610   29.0560   43.9580 C   0  0  0  0  0  0  0  0  0  0  0  0
   36.3220   29.7000   44.8270 C   0  0  0  0  0  0  0  0  0  0  0  0
   35.9700   30.1280   46.0510 C   0  0  0  0  0  0  0  0  0  0  0  0
   33.4010   28.3580   43.8020 H   0  0  0  0  0  0  0  0  0  0  0  0
   35.7400   28.7120   42.9770 H   0  0  0  0  0  0  0  0  0  0  0  0
   37.3140   29.8260   44.4230 H   0  0  0  0  0  0  0  0  0  0  0  0
   37.8200   32.3150   44.7850 Br  0  0  0  0  0  0  0  0  0  0  0  0
   37.8100   31.7930   46.6170 C   0  0  0  0  0  0  0  0  0  0  0  0
   36.9270   30.7830   46.9190 C   0  0  0  0  0  0  0  0  0  0  0  0
   36.8970   30.3110   48.2420 C   0  0  0  0  0  0  0  0  0  0  0  0
   37.7200   30.8420   49.1890 C   0  0  0  0  0  0  0  0  0  0  0  0
   38.5780   31.8520   48.8200 C   0  0  0  0  0  0  0  0  0  0  0  0
   38.6390   32.3500   47.5180 C   0  0  0  0  0  0  0  0  0  0  0  0
   36.2350   29.5210   48.5680 H   0  0  0  0  0  0  0  0  0  0  0  0
   37.7360   30.5120   50.2230 H   0  0  0  0  0  0  0  0  0  0  0  0
   39.2530   32.3050   49.5460 H   0  0  0  0  0  0  0  0  0  0  0  0
   39.4540   33.3440   47.0740 O   0  0  0  0  0  0  0  0  0  0  0  0
   40.3100   33.6230   47.5200 H   0  0  0  0  0  0  0  0  0  0  0  0
   32.2680   28.1600   47.1830 C   0  0  0  0  0  0  0  0  0  0  0  0
   32.4260   29.1110   46.1970 C   0  0  0  0  0  0  0  0  0  0  0  0
   31.3070   29.8630   45.8230 C   0  0  0  0  0  0  0  0  0  0  0  0
   30.1160   29.6380   46.4350 N   0  0  0  0  0  0  0  0  0  0  0  0
   30.0040   28.7120   47.3840 C   0  0  0  0  0  0  0  0  0  0  0  0
   31.0460   27.9850   47.7570 N   0  0  0  0  0  0  0  0  0  0  0  0
   33.0340   27.5050   47.5750 H   0  0  0  0  0  0  0  0  0  0  0  0
   31.4510   30.6020   45.0480 H   0  0  0  0  0  0  0  0  0  0  0  0
   28.2700   26.5040   46.1880 Cl  0  0  0  0  0  0  0  0  0  0  0  0
   27.8300   27.5440   47.5150 C   0  0  0  0  0  0  0  0  0  0  0  0
   28.6810   28.5270   48.0000 C   0  0  0  0  0  0  0  0  0  0  0  0
   28.3370   29.3580   49.0580 C   0  0  0  0  0  0  0  0  0  0  0  0
   29.0060   30.1190   49.4260 H   0  0  0  0  0  0  0  0  0  0  0  0
   27.0950   29.2190   49.6730 C   0  0  0  0  0  0  0  0  0  0  0  0
   26.8580   29.8820   50.4930 H   0  0  0  0  0  0  0  0  0  0  0  0
   26.2310   28.2460   49.2050 C   0  0  0  0  0  0  0  0  0  0  0  0
   26.6150   27.4470   48.1560 C   0  0  0  0  0  0  0  0  0  0  0  0
  2  1  1  0  0  0  0
  3 24  1  0  0  0  0
  3  2  2  0  0  0  0
  4  3  1  0  0  0  0
  5  4  2  0  0  0  0
  5  6  1  0  0  0  0
  6  7  2  0  0  0  0
  7  2  1  0  0  0  0
  7 13  1  0  0  0  0
  8  4  1  0  0  0  0
  9  5  1  0  0  0  0
 10  6  1  0  0  0  0
 11 12  1  0  0  0  0
 12 13  2  0  0  0  0
 12 17  1  0  0  0  0
 13 14  1  0  0  0  0
 14 18  1  0  0  0  0
 14 15  2  0  0  0  0
 15 19  1  0  0  0  0
 16 15  1  0  0  0  0
 16 20  1  0  0  0  0
 17 16  2  0  0  0  0
 21 17  1  0  0  0  0
 21 22  1  0  0  0  0
 23 29  1  0  0  0  0
 23 28  1  0  0  0  0
 24 23  2  0  0  0  0
 25 24  1  0  0  0  0
 25 26  2  0  0  0  0
 26 27  1  0  0  0  0
 27 28  2  0  0  0  0
 27 33  1  0  0  0  0
 30 25  1  0  0  0  0
 31 32  1  0  0  0  0
 32 33  2  0  0  0  0
 32 39  1  0  0  0  0
 33 34  1  0  0  0  0
 34 35  1  0  0  0  0
 34 36  2  0  0  0  0
 36 37  1  0  0  0  0
 38 36  1  0  0  0  0
 39 38  2  0  0  0  0
M  END
>  <minimizedAffinity>
-7.11284208

>  <minimizedRMSD>
0.517553747

$$$$
