
 OpenBabel03272506343D

 19 20  0  0  0  0  0  0  0  0999 V2000
   37.6440   30.3330   50.5660 C   0  0  0  0  0  0  0  0  0  0  0  0
   38.4520   31.4100   50.1860 C   0  0  0  0  0  0  0  0  0  0  0  0
   38.2600   31.9560   48.9260 C   0  0  0  0  0  0  0  0  0  0  0  0
   37.2910   31.4150   48.1160 N   0  0  0  0  0  0  0  0  0  0  0  0
   36.5310   30.3740   48.5200 C   0  0  0  0  0  0  0  0  0  0  0  0
   36.7090   29.8430   49.7330 N   0  0  0  0  0  0  0  0  0  0  0  0
   39.2250   31.8630   50.7940 H   0  0  0  0  0  0  0  0  0  0  0  0
   38.8340   32.7880   48.5430 H   0  0  0  0  0  0  0  0  0  0  0  0
   34.4580   28.5140   49.7740 Cl  0  0  0  0  0  0  0  0  0  0  0  0
   34.5400   28.9940   48.0940 C   0  0  0  0  0  0  0  0  0  0  0  0
   35.5160   29.8410   47.6180 C   0  0  0  0  0  0  0  0  0  0  0  0
   35.5620   30.2070   46.2880 C   0  0  0  0  0  0  0  0  0  0  0  0
   36.3440   30.8790   45.9390 H   0  0  0  0  0  0  0  0  0  0  0  0
   34.6310   29.7370   45.3870 C   0  0  0  0  0  0  0  0  0  0  0  0
   34.7190   30.0610   44.3460 H   0  0  0  0  0  0  0  0  0  0  0  0
   33.6410   28.8840   45.8420 C   0  0  0  0  0  0  0  0  0  0  0  0
   33.6020   28.5210   47.1790 C   0  0  0  0  0  0  0  0  0  0  0  0
   37.9390   29.8830   51.8470 O   0  0  0  0  0  0  0  0  0  0  0  0
   37.5130   29.0870   52.2850 H   0  0  0  0  0  0  0  0  0  0  0  0
  1 18  1  0  0  0  0
  2  1  1  0  0  0  0
  2  7  1  0  0  0  0
  3  2  2  0  0  0  0
  4  5  2  0  0  0  0
  4  3  1  0  0  0  0
  5  6  1  0  0  0  0
  6  1  2  0  0  0  0
  8  3  1  0  0  0  0
 10  9  1  0  0  0  0
 11 10  1  0  0  0  0
 11  5  1  0  0  0  0
 12 11  2  0  0  0  0
 13 12  1  0  0  0  0
 14 16  2  0  0  0  0
 14 12  1  0  0  0  0
 15 14  1  0  0  0  0
 16 17  1  0  0  0  0
 17 10  2  0  0  0  0
 18 19  1  0  0  0  0
M  END
>  <minimizedAffinity>
-4.96273708

>  <minimizedRMSD>
2.2758646

$$$$
