
 OpenBabel03272509043D

 33 35  0  0  0  0  0  0  0  0999 V2000
   37.4910   30.3680   51.3160 C   0  0  0  0  0  0  0  0  0  0  0  0
   38.0250   31.0690   50.2220 C   0  0  0  0  0  0  0  0  0  0  0  0
   37.5520   30.7990   48.9340 C   0  0  0  0  0  0  0  0  0  0  0  0
   36.5770   29.8370   48.8700 N   0  0  0  0  0  0  0  0  0  0  0  0
   36.0870   29.1880   49.9170 C   0  0  0  0  0  0  0  0  0  0  0  0
   36.5500   29.4610   51.1400 N   0  0  0  0  0  0  0  0  0  0  0  0
   37.9170   30.6430   52.2750 H   0  0  0  0  0  0  0  0  0  0  0  0
   38.7750   31.7790   50.3380 H   0  0  0  0  0  0  0  0  0  0  0  0
   35.9720   30.2650   46.2680 Cl  0  0  0  0  0  0  0  0  0  0  0  0
   37.3970   31.2530   46.4310 C   0  0  0  0  0  0  0  0  0  0  0  0
   37.9600   31.3720   47.6710 C   0  0  0  0  0  0  0  0  0  0  0  0
   39.0960   32.1550   47.6590 C   0  0  0  0  0  0  0  0  0  0  0  0
   39.6800   32.3640   48.5490 H   0  0  0  0  0  0  0  0  0  0  0  0
   39.6020   32.7470   46.5360 C   0  0  0  0  0  0  0  0  0  0  0  0
   40.4840   33.3520   46.5440 H   0  0  0  0  0  0  0  0  0  0  0  0
   38.9880   32.5870   45.3250 C   0  0  0  0  0  3  0  0  0  0  0  0
   37.8510   31.8170   45.2730 C   0  0  0  0  0  3  0  0  0  0  0  0
   35.0590   28.2080   49.6420 C   0  0  0  0  0  3  0  0  0  0  0  0
   34.1700   28.4700   48.7220 C   0  0  0  0  0  3  0  0  0  0  0  0
   33.0500   27.6250   48.2820 C   0  0  0  0  0  0  0  0  0  0  0  0
   32.2870   28.3050   47.8430 H   0  0  0  0  0  0  0  0  0  0  0  0
   32.5600   27.1380   49.1490 H   0  0  0  0  0  0  0  0  0  0  0  0
   33.4600   26.6480   47.2310 C   0  0  0  0  0  0  0  0  0  0  0  0
   33.6270   25.2810   47.4120 C   0  0  0  0  0  0  0  0  0  0  0  0
   34.0110   24.4840   46.3530 C   0  0  0  0  0  0  0  0  0  0  0  0
   34.2410   25.0270   45.0740 C   0  0  0  0  0  0  0  0  0  0  0  0
   34.0770   26.3890   44.8910 C   0  0  0  0  0  0  0  0  0  0  0  0
   33.6930   27.1820   45.9530 C   0  0  0  0  0  0  0  0  0  0  0  0
   33.4400   24.9120   48.4030 H   0  0  0  0  0  0  0  0  0  0  0  0
   34.1090   23.4430   46.6070 H   0  0  0  0  0  0  0  0  0  0  0  0
   34.5390   24.3230   44.3110 H   0  0  0  0  0  0  0  0  0  0  0  0
   34.2630   26.7660   43.8990 H   0  0  0  0  0  0  0  0  0  0  0  0
   33.5850   28.2310   45.7350 H   0  0  0  0  0  0  0  0  0  0  0  0
  1  7  1  0  0  0  0
  2  8  1  0  0  0  0
  2  1  2  0  0  0  0
  3  2  1  0  0  0  0
  4  3  2  0  0  0  0
  4  5  1  0  0  0  0
  5  6  2  0  0  0  0
  6  1  1  0  0  0  0
  9 10  1  0  0  0  0
 10 11  1  0  0  0  0
 11  3  1  0  0  0  0
 12 11  2  0  0  0  0
 12 13  1  0  0  0  0
 14 15  1  0  0  0  0
 14 12  1  0  0  0  0
 16 14  2  0  0  0  0
 17 16  1  0  0  0  0
 17 10  2  0  0  0  0
 18  5  1  0  0  0  0
 19 18  2  0  0  0  0
 20 19  1  0  0  0  0
 20 22  1  0  0  0  0
 21 20  1  0  0  0  0
 23 24  1  0  0  0  0
 23 20  1  0  0  0  0
 24 29  1  0  0  0  0
 25 30  1  0  0  0  0
 25 24  2  0  0  0  0
 26 25  1  0  0  0  0
 27 26  2  0  0  0  0
 27 28  1  0  0  0  0
 28 23  2  0  0  0  0
 31 26  1  0  0  0  0
 32 27  1  0  0  0  0
 33 28  1  0  0  0  0
M  END
>  <minimizedAffinity>
-6.33439159

>  <minimizedRMSD>
0.711994469

$$$$
