
 OpenBabel03272508393D

 32 34  0  0  1  0  0  0  0  0999 V2000
   34.6290   30.0270   45.6800 N   0  0  0  0  0  0  0  0  0  0  0  0
   35.0280   30.0520   47.0680 C   0  0  0  0  0  0  0  0  0  0  0  0
   36.3150   30.7880   47.2990 C   0  0  2  0  0  0  0  0  0  0  0  0
   37.3210   30.5770   46.3170 N   0  0  0  0  0  0  0  0  0  0  0  0
   36.7560   30.7600   44.9830 C   0  0  0  0  0  0  0  0  0  0  0  0
   35.7210   29.6460   44.8490 C   0  0  0  0  0  0  0  0  0  0  0  0
   35.2150   28.9770   47.3500 H   0  0  0  0  0  0  0  0  0  0  0  0
   34.2720   30.4110   47.7650 H   0  0  0  0  0  0  0  0  0  0  0  0
   36.0560   31.8740   47.2540 H   0  0  0  0  0  0  0  0  0  0  0  0
   38.0660   31.2950   46.4760 H   0  0  0  0  0  0  0  0  0  0  0  0
   36.2590   31.7650   44.9340 H   0  0  0  0  0  0  0  0  0  0  0  0
   37.5400   30.6820   44.2030 H   0  0  0  0  0  0  0  0  0  0  0  0
   36.2420   28.7230   45.1430 H   0  0  0  0  0  0  0  0  0  0  0  0
   35.4990   29.5640   43.7710 H   0  0  0  0  0  0  0  0  0  0  0  0
   33.3080   30.3470   45.2400 C   0  0  0  0  0  0  0  0  0  0  0  0
   33.0390   31.0480   44.0680 C   0  0  0  0  0  0  0  0  0  0  0  0
   31.7210   31.3130   43.7220 C   0  0  0  0  0  0  0  0  0  0  0  0
   30.7260   30.8630   44.5630 N   0  0  0  0  0  0  0  0  0  0  0  0
   31.0300   30.1840   45.6900 C   0  0  0  0  0  0  0  0  0  0  0  0
   32.2930   29.9300   46.0250 N   0  0  0  0  0  0  0  0  0  0  0  0
   33.8890   31.3720   43.4540 H   0  0  0  0  0  0  0  0  0  0  0  0
   31.5020   31.8530   42.8220 H   0  0  0  0  0  0  0  0  0  0  0  0
   30.2280   29.8340   46.3480 H   0  0  0  0  0  0  0  0  0  0  0  0
   38.2470   32.7330   48.4480 Cl  0  0  0  0  0  0  0  0  0  0  0  0
   37.6680   31.3140   49.3020 C   0  0  0  0  0  0  0  0  0  0  0  0
   36.7700   30.4860   48.6580 C   0  0  0  0  0  0  0  0  0  0  0  0
   36.2370   29.3390   49.2180 C   0  0  0  0  0  0  0  0  0  0  0  0
   35.5360   28.7000   48.6990 H   0  0  0  0  0  0  0  0  0  0  0  0
   36.6350   29.0010   50.5110 C   0  0  0  0  0  0  0  0  0  0  0  0
   36.2820   28.1310   51.0380 H   0  0  0  0  0  0  0  0  0  0  0  0
   37.5380   29.8160   51.1830 C   0  0  0  0  0  0  0  0  0  0  0  0
   38.0360   30.9460   50.5790 C   0  0  0  0  0  0  0  0  0  0  0  0
  1  2  1  0  0  0  0
  2  3  1  0  0  0  0
  2  7  1  0  0  0  0
  2  8  1  0  0  0  0
  3  9  1  6  0  0  0
  3 26  1  0  0  0  0
  4 10  1  0  0  0  0
  4  3  1  0  0  0  0
  5  4  1  0  0  0  0
  6  5  1  0  0  0  0
  6 13  1  0  0  0  0
  6  1  1  0  0  0  0
 11  5  1  0  0  0  0
 12  5  1  0  0  0  0
 14  6  1  0  0  0  0
 15  1  1  0  0  0  0
 15 20  1  0  0  0  0
 16 15  2  0  0  0  0
 17 16  1  0  0  0  0
 17 18  2  0  0  0  0
 18 19  1  0  0  0  0
 19 20  2  0  0  0  0
 19 23  1  0  0  0  0
 21 16  1  0  0  0  0
 22 17  1  0  0  0  0
 24 25  1  0  0  0  0
 25 32  1  0  0  0  0
 26 27  1  0  0  0  0
 26 25  2  0  0  0  0
 27 29  2  0  0  0  0
 28 27  1  0  0  0  0
 29 30  1  0  0  0  0
 29 31  1  0  0  0  0
 32 31  2  0  0  0  0
M  END
>  <minimizedAffinity>
-5.23484278

>  <minimizedRMSD>
4.14717054

$$$$
