
 OpenBabel03272506513D

 34 36  0  0  1  0  0  0  0  0999 V2000
   34.3630   30.0310   49.0600 C   0  0  1  0  0  0  0  0  0  0  0  0
   33.8960   30.3980   47.7280 C   0  0  0  0  0  0  0  0  0  0  0  0
   34.0370   29.3770   46.6330 C   0  0  0  0  0  0  0  0  0  0  0  0
   33.7750   27.9760   47.0750 C   0  0  2  0  0  0  0  0  0  0  0  0
   34.2520   27.5680   48.4090 C   0  0  0  0  0  0  0  0  0  0  0  0
   33.9670   28.6270   49.4370 C   0  0  0  0  0  0  0  0  0  0  0  0
   33.7950   30.6610   49.8180 H   0  0  0  0  0  0  0  0  0  0  0  0
   34.2270   31.3640   47.3410 H   0  0  0  0  0  0  0  0  0  0  0  0
   32.7660   30.5350   47.8090 H   0  0  0  0  0  0  0  0  0  0  0  0
   33.3200   29.6240   45.8220 H   0  0  0  0  0  0  0  0  0  0  0  0
   35.0470   29.5150   46.1880 H   0  0  0  0  0  0  0  0  0  0  0  0
   32.6360   27.9470   47.1680 H   0  0  0  0  0  0  0  0  0  0  0  0
   33.6300   26.6810   48.7360 H   0  0  0  0  0  0  0  0  0  0  0  0
   35.2730   27.2490   48.5430 H   0  0  0  0  0  0  0  0  0  0  0  0
   32.8310   28.6780   49.4010 H   0  0  0  0  0  0  0  0  0  0  0  0
   34.1500   28.3340   50.4610 H   0  0  0  0  0  0  0  0  0  0  0  0
   36.5870   31.0690   48.5010 C   0  0  0  0  0  0  0  0  0  0  0  0
   35.7750   30.3380   49.3880 C   0  0  0  0  0  0  0  0  0  0  0  0
   36.3530   29.9240   50.5740 C   0  0  0  0  0  0  0  0  0  0  0  0
   37.6590   30.2360   50.8290 N   0  0  0  0  0  0  0  0  0  0  0  0
   38.3990   30.9400   49.9480 C   0  0  0  0  0  0  0  0  0  0  0  0
   37.8560   31.3600   48.7730 N   0  0  0  0  0  0  0  0  0  0  0  0
   36.2460   31.4440   47.5470 H   0  0  0  0  0  0  0  0  0  0  0  0
   35.8220   29.3620   51.3190 H   0  0  0  0  0  0  0  0  0  0  0  0
   39.4160   31.1180   50.2720 H   0  0  0  0  0  0  0  0  0  0  0  0
   33.4950   24.9080   47.4560 Cl  0  0  0  0  0  0  0  0  0  0  0  0
   33.9830   25.6840   45.9910 C   0  0  0  0  0  0  0  0  0  0  0  0
   34.0780   27.0590   45.9580 C   0  0  0  0  0  0  0  0  0  0  0  0
   34.4980   27.5250   44.7030 C   0  0  0  0  0  0  0  0  0  0  0  0
   34.5970   28.6180   44.6000 H   0  0  0  0  0  0  0  0  0  0  0  0
   34.7970   26.7650   43.5940 C   0  0  0  0  0  0  0  0  0  0  0  0
   35.1100   27.2640   42.6880 H   0  0  0  0  0  0  0  0  0  0  0  0
   34.6710   25.4010   43.7280 C   0  0  0  0  0  3  0  0  0  0  0  0
   34.2640   24.8540   44.9270 C   0  0  0  0  0  3  0  0  0  0  0  0
  1 18  1  0  0  0  0
  1  6  1  0  0  0  0
  1  7  1  1  0  0  0
  2  9  1  0  0  0  0
  2  1  1  0  0  0  0
  3  4  1  0  0  0  0
  3  2  1  0  0  0  0
  4 12  1  1  0  0  0
  4  5  1  0  0  0  0
  5 14  1  0  0  0  0
  5 13  1  0  0  0  0
  5  6  1  0  0  0  0
  6 16  1  0  0  0  0
  8  2  1  0  0  0  0
 10  3  1  0  0  0  0
 11  3  1  0  0  0  0
 15  6  1  0  0  0  0
 17 22  2  0  0  0  0
 17 18  1  0  0  0  0
 18 19  2  0  0  0  0
 19 20  1  0  0  0  0
 19 24  1  0  0  0  0
 21 25  1  0  0  0  0
 21 20  2  0  0  0  0
 22 21  1  0  0  0  0
 23 17  1  0  0  0  0
 27 26  1  0  0  0  0
 28 27  1  0  0  0  0
 28  4  1  0  0  0  0
 29 28  2  0  0  0  0
 30 29  1  0  0  0  0
 31 33  2  0  0  0  0
 31 29  1  0  0  0  0
 32 31  1  0  0  0  0
 33 34  1  0  0  0  0
 34 27  2  0  0  0  0
M  END
>  <minimizedAffinity>
-4.58840275

>  <minimizedRMSD>
0.745662987

$$$$
