
 OpenBabel03272502083D

 39 42  0  0  0  0  0  0  0  0999 V2000
   36.7410   28.7850   35.8140 F   0  0  0  0  0  0  0  0  0  0  0  0
   36.4610   28.8280   34.4710 C   0  0  0  0  0  0  0  0  0  0  0  0
   36.9550   27.8840   33.5860 C   0  0  0  0  0  0  0  0  0  0  0  0
   36.6180   27.9820   32.2570 C   0  0  0  0  0  0  0  0  0  0  0  0
   35.7920   29.0150   31.8030 C   0  0  0  0  0  0  0  0  0  0  0  0
   35.3350   29.9230   32.7400 C   0  0  0  0  0  0  0  0  0  0  0  0
   35.6380   29.8680   34.0490 C   0  0  0  0  0  0  0  0  0  0  0  0
   37.0280   27.2280   31.6220 H   0  0  0  0  0  0  0  0  0  0  0  0
   35.5510   29.0570   30.7550 H   0  0  0  0  0  0  0  0  0  0  0  0
   34.7050   30.6890   32.3150 H   0  0  0  0  0  0  0  0  0  0  0  0
   32.7910   29.4110   35.2700 Br  0  0  0  0  0  0  0  0  0  0  0  0
   33.9500   30.8680   35.6700 C   0  0  0  0  0  0  0  0  0  0  0  0
   35.1370   30.8620   34.9750 C   0  0  0  0  0  0  0  0  0  0  0  0
   36.0250   31.9310   35.1820 C   0  0  0  0  0  0  0  0  0  0  0  0
   35.7110   32.9380   36.0450 C   0  0  0  0  0  0  0  0  0  0  0  0
   34.5090   32.8810   36.7100 C   0  0  0  0  0  0  0  0  0  0  0  0
   33.5990   31.8370   36.5340 C   0  0  0  0  0  0  0  0  0  0  0  0
   36.9780   32.0080   34.6790 H   0  0  0  0  0  0  0  0  0  0  0  0
   36.3610   33.7850   36.2390 H   0  0  0  0  0  0  0  0  0  0  0  0
   34.2190   33.6650   37.4090 H   0  0  0  0  0  0  0  0  0  0  0  0
   32.3950   31.7060   37.1520 O   0  0  0  0  0  0  0  0  0  0  0  0
   31.8740   32.4650   37.5570 H   0  0  0  0  0  0  0  0  0  0  0  0
   37.3370   25.5740   34.1410 C   0  0  0  0  0  0  0  0  0  0  0  0
   37.7910   26.8750   34.1800 C   0  0  0  0  0  0  0  0  0  0  0  0
   39.0320   27.1200   34.7790 C   0  0  0  0  0  0  0  0  0  0  0  0
   39.7410   26.0840   35.2950 N   0  0  0  0  0  0  0  0  0  0  0  0
   39.2690   24.8420   35.2370 C   0  0  0  0  0  0  0  0  0  0  0  0
   38.0980   24.5810   34.6780 N   0  0  0  0  0  0  0  0  0  0  0  0
   36.4040   25.2310   33.7160 H   0  0  0  0  0  0  0  0  0  0  0  0
   39.3710   28.1470   34.8000 H   0  0  0  0  0  0  0  0  0  0  0  0
   38.3650   23.7800   37.9520 Cl  0  0  0  0  0  0  0  0  0  0  0  0
   39.7530   23.2340   37.0510 C   0  0  0  0  0  0  0  0  0  0  0  0
   40.0950   23.7720   35.8180 C   0  0  0  0  0  0  0  0  0  0  0  0
   41.2000   23.3410   35.0960 C   0  0  0  0  0  0  0  0  0  0  0  0
   41.4570   23.7670   34.1380 H   0  0  0  0  0  0  0  0  0  0  0  0
   42.0110   22.3310   35.6060 C   0  0  0  0  0  0  0  0  0  0  0  0
   42.8630   22.0190   35.0180 H   0  0  0  0  0  0  0  0  0  0  0  0
   41.6880   21.7800   36.8330 C   0  0  0  0  0  3  0  0  0  0  0  0
   40.5860   22.2390   37.5110 C   0  0  0  0  0  3  0  0  0  0  0  0
  2  1  1  0  0  0  0
  3 24  1  0  0  0  0
  3  2  2  0  0  0  0
  4  3  1  0  0  0  0
  5  4  2  0  0  0  0
  5  6  1  0  0  0  0
  6  7  2  0  0  0  0
  7  2  1  0  0  0  0
  7 13  1  0  0  0  0
  8  4  1  0  0  0  0
  9  5  1  0  0  0  0
 10  6  1  0  0  0  0
 11 12  1  0  0  0  0
 12 17  1  0  0  0  0
 13 14  1  0  0  0  0
 13 12  2  0  0  0  0
 14 15  2  0  0  0  0
 15 19  1  0  0  0  0
 15 16  1  0  0  0  0
 16 20  1  0  0  0  0
 17 16  2  0  0  0  0
 17 21  1  0  0  0  0
 18 14  1  0  0  0  0
 21 22  1  0  0  0  0
 23 24  2  0  0  0  0
 23 28  1  0  0  0  0
 24 25  1  0  0  0  0
 25 30  1  0  0  0  0
 25 26  2  0  0  0  0
 27 26  1  0  0  0  0
 27 33  1  0  0  0  0
 28 27  2  0  0  0  0
 29 23  1  0  0  0  0
 32 39  1  0  0  0  0
 32 31  1  0  0  0  0
 33 32  2  0  0  0  0
 34 36  2  0  0  0  0
 34 33  1  0  0  0  0
 35 34  1  0  0  0  0
 36 38  1  0  0  0  0
 37 36  1  0  0  0  0
 38 39  2  0  0  0  0
M  END
>  <minimizedAffinity>
-6.84817791

$$$$

 OpenBabel03272502083D

 39 42  0  0  0  0  0  0  0  0999 V2000
   35.0560   28.2900   34.2030 F   0  0  0  0  0  0  0  0  0  0  0  0
   35.5650   29.1300   33.2440 C   0  0  0  0  0  0  0  0  0  0  0  0
   36.1960   28.6530   32.1090 C   0  0  0  0  0  0  0  0  0  0  0  0
   36.6650   29.5550   31.1830 C   0  0  0  0  0  0  0  0  0  0  0  0
   36.5100   30.9300   31.3830 C   0  0  0  0  0  0  0  0  0  0  0  0
   35.8710   31.3370   32.5390 C   0  0  0  0  0  0  0  0  0  0  0  0
   35.3960   30.4930   33.4710 C   0  0  0  0  0  0  0  0  0  0  0  0
   37.1430   29.1290   30.3280 H   0  0  0  0  0  0  0  0  0  0  0  0
   36.8900   31.6030   30.6340 H   0  0  0  0  0  0  0  0  0  0  0  0
   35.7890   32.4100   32.6210 H   0  0  0  0  0  0  0  0  0  0  0  0
   32.2730   30.3150   33.6150 Br  0  0  0  0  0  0  0  0  0  0  0  0
   33.4120   30.9820   34.9880 C   0  0  0  0  0  0  0  0  0  0  0  0
   34.7490   30.9880   34.6690 C   0  0  0  0  0  0  0  0  0  0  0  0
   35.6480   31.5110   35.6140 C   0  0  0  0  0  0  0  0  0  0  0  0
   35.2000   31.9950   36.8060 C   0  0  0  0  0  0  0  0  0  0  0  0
   33.8490   31.9570   37.0630 C   0  0  0  0  0  0  0  0  0  0  0  0
   32.9230   31.4460   36.1520 C   0  0  0  0  0  0  0  0  0  0  0  0
   36.7150   31.5550   35.4480 H   0  0  0  0  0  0  0  0  0  0  0  0
   35.8520   32.4090   37.5680 H   0  0  0  0  0  0  0  0  0  0  0  0
   33.4480   32.3330   38.0040 H   0  0  0  0  0  0  0  0  0  0  0  0
   31.5770   31.3710   36.3290 O   0  0  0  0  0  0  0  0  0  0  0  0
   31.0530   31.9380   36.9720 H   0  0  0  0  0  0  0  0  0  0  0  0
   35.4870   26.5860   31.0990 C   0  0  0  0  0  0  0  0  0  0  0  0
   36.2900   27.2190   32.0240 C   0  0  0  0  0  0  0  0  0  0  0  0
   37.1450   26.4310   32.8010 C   0  0  0  0  0  0  0  0  0  0  0  0
   37.1590   25.0850   32.6230 N   0  0  0  0  0  0  0  0  0  0  0  0
   36.3690   24.5100   31.7200 C   0  0  0  0  0  0  0  0  0  0  0  0
   35.5490   25.2320   30.9710 N   0  0  0  0  0  0  0  0  0  0  0  0
   34.7780   27.0580   30.4320 H   0  0  0  0  0  0  0  0  0  0  0  0
   37.7670   26.9450   33.5210 H   0  0  0  0  0  0  0  0  0  0  0  0
   38.7700   23.4270   30.1800 Cl  0  0  0  0  0  0  0  0  0  0  0  0
   37.5020   22.4740   30.8990 C   0  0  0  0  0  0  0  0  0  0  0  0
   36.4400   23.0480   31.5850 C   0  0  0  0  0  0  0  0  0  0  0  0
   35.4260   22.2930   32.1590 C   0  0  0  0  0  0  0  0  0  0  0  0
   34.6060   22.7500   32.6900 H   0  0  0  0  0  0  0  0  0  0  0  0
   35.4520   20.9040   32.0580 C   0  0  0  0  0  0  0  0  0  0  0  0
   34.6470   20.3470   32.5160 H   0  0  0  0  0  0  0  0  0  0  0  0
   36.5010   20.3110   31.3780 C   0  0  0  0  0  3  0  0  0  0  0  0
   37.4810   21.0990   30.8260 C   0  0  0  0  0  3  0  0  0  0  0  0
  2  7  1  0  0  0  0
  2  1  1  0  0  0  0
  3  2  2  0  0  0  0
  4  5  2  0  0  0  0
  4  3  1  0  0  0  0
  5  6  1  0  0  0  0
  6 10  1  0  0  0  0
  6  7  2  0  0  0  0
  7 13  1  0  0  0  0
  8  4  1  0  0  0  0
  9  5  1  0  0  0  0
 11 12  1  0  0  0  0
 12 17  1  0  0  0  0
 13 12  2  0  0  0  0
 13 14  1  0  0  0  0
 14 15  2  0  0  0  0
 15 16  1  0  0  0  0
 15 19  1  0  0  0  0
 16 20  1  0  0  0  0
 17 21  1  0  0  0  0
 17 16  2  0  0  0  0
 18 14  1  0  0  0  0
 21 22  1  0  0  0  0
 23 24  1  0  0  0  0
 24  3  1  0  0  0  0
 24 25  2  0  0  0  0
 25 30  1  0  0  0  0
 26 25  1  0  0  0  0
 27 26  2  0  0  0  0
 28 23  2  0  0  0  0
 28 27  1  0  0  0  0
 29 23  1  0  0  0  0
 31 32  1  0  0  0  0
 32 33  1  0  0  0  0
 33 27  1  0  0  0  0
 33 34  2  0  0  0  0
 34 35  1  0  0  0  0
 36 34  1  0  0  0  0
 36 37  1  0  0  0  0
 38 36  2  0  0  0  0
 39 32  2  0  0  0  0
 39 38  1  0  0  0  0
M  END
>  <minimizedAffinity>
-6.7833147

$$$$

 OpenBabel03272502083D

 39 42  0  0  0  0  0  0  0  0999 V2000
   35.8210   27.8560   34.8900 F   0  0  0  0  0  0  0  0  0  0  0  0
   36.1900   28.2790   33.6380 C   0  0  0  0  0  0  0  0  0  0  0  0
   37.3000   27.7690   32.9870 C   0  0  0  0  0  0  0  0  0  0  0  0
   37.5970   28.2290   31.7260 C   0  0  0  0  0  0  0  0  0  0  0  0
   36.7960   29.1950   31.1100 C   0  0  0  0  0  0  0  0  0  0  0  0
   35.7030   29.6620   31.8170 C   0  0  0  0  0  0  0  0  0  0  0  0
   35.3740   29.2420   33.0510 C   0  0  0  0  0  0  0  0  0  0  0  0
   38.4650   27.8010   31.2720 H   0  0  0  0  0  0  0  0  0  0  0  0
   37.0620   29.5290   30.1220 H   0  0  0  0  0  0  0  0  0  0  0  0
   35.1350   30.4030   31.2770 H   0  0  0  0  0  0  0  0  0  0  0  0
   35.9010   31.2670   35.3800 Br  0  0  0  0  0  0  0  0  0  0  0  0
   34.1890   30.7110   34.7580 C   0  0  0  0  0  0  0  0  0  0  0  0
   34.2230   29.7840   33.7430 C   0  0  0  0  0  0  0  0  0  0  0  0
   32.9980   29.2890   33.2640 C   0  0  0  0  0  0  0  0  0  0  0  0
   31.8190   29.7190   33.7940 C   0  0  0  0  0  0  0  0  0  0  0  0
   31.8560   30.6500   34.8060 C   0  0  0  0  0  0  0  0  0  0  0  0
   33.0500   31.1670   35.3110 C   0  0  0  0  0  0  0  0  0  0  0  0
   32.9300   28.5590   32.4690 H   0  0  0  0  0  0  0  0  0  0  0  0
   30.8480   29.3680   33.4600 H   0  0  0  0  0  0  0  0  0  0  0  0
   30.9360   31.0210   35.2590 H   0  0  0  0  0  0  0  0  0  0  0  0
   33.1730   32.0870   36.3040 O   0  0  0  0  0  0  0  0  0  0  0  0
   32.4720   32.2740   37.0000 H   0  0  0  0  0  0  0  0  0  0  0  0
   37.6770   25.4620   33.5590 C   0  0  0  0  0  0  0  0  0  0  0  0
   38.0390   26.7820   33.7290 C   0  0  0  0  0  0  0  0  0  0  0  0
   39.1000   27.0670   34.5940 C   0  0  0  0  0  0  0  0  0  0  0  0
   39.7340   26.0490   35.2320 N   0  0  0  0  0  0  0  0  0  0  0  0
   39.3560   24.7880   35.0420 C   0  0  0  0  0  0  0  0  0  0  0  0
   38.3550   24.4900   34.2290 N   0  0  0  0  0  0  0  0  0  0  0  0
   36.8820   25.0890   32.9280 H   0  0  0  0  0  0  0  0  0  0  0  0
   39.3680   28.1070   34.7150 H   0  0  0  0  0  0  0  0  0  0  0  0
   38.1770   23.9440   37.7270 Cl  0  0  0  0  0  0  0  0  0  0  0  0
   39.6210   23.3000   36.9970 C   0  0  0  0  0  0  0  0  0  0  0  0
   40.0910   23.7410   35.7670 C   0  0  0  0  0  0  0  0  0  0  0  0
   41.2420   23.2310   35.1810 C   0  0  0  0  0  0  0  0  0  0  0  0
   41.5980   23.5820   34.2240 H   0  0  0  0  0  0  0  0  0  0  0  0
   41.9700   22.2380   35.8300 C   0  0  0  0  0  0  0  0  0  0  0  0
   42.8610   21.8630   35.3460 H   0  0  0  0  0  0  0  0  0  0  0  0
   41.5210   21.7840   37.0570 C   0  0  0  0  0  3  0  0  0  0  0  0
   40.3770   22.3180   37.5980 C   0  0  0  0  0  3  0  0  0  0  0  0
  2  1  1  0  0  0  0
  3  2  2  0  0  0  0
  3 24  1  0  0  0  0
  4  3  1  0  0  0  0
  5  4  2  0  0  0  0
  5  6  1  0  0  0  0
  6  7  2  0  0  0  0
  7  2  1  0  0  0  0
  7 13  1  0  0  0  0
  8  4  1  0  0  0  0
  9  5  1  0  0  0  0
 10  6  1  0  0  0  0
 12 17  1  0  0  0  0
 12 11  1  0  0  0  0
 13 12  2  0  0  0  0
 14 13  1  0  0  0  0
 14 15  2  0  0  0  0
 15 16  1  0  0  0  0
 16 20  1  0  0  0  0
 16 17  2  0  0  0  0
 17 21  1  0  0  0  0
 18 14  1  0  0  0  0
 19 15  1  0  0  0  0
 21 22  1  0  0  0  0
 23 24  2  0  0  0  0
 23 28  1  0  0  0  0
 24 25  1  0  0  0  0
 25 30  1  0  0  0  0
 25 26  2  0  0  0  0
 27 26  1  0  0  0  0
 27 33  1  0  0  0  0
 28 27  2  0  0  0  0
 29 23  1  0  0  0  0
 32 39  1  0  0  0  0
 32 31  1  0  0  0  0
 33 32  2  0  0  0  0
 34 33  1  0  0  0  0
 34 36  2  0  0  0  0
 35 34  1  0  0  0  0
 36 38  1  0  0  0  0
 37 36  1  0  0  0  0
 38 39  2  0  0  0  0
M  END
>  <minimizedAffinity>
-6.71543837

$$$$

 OpenBabel03272502083D

 39 42  0  0  0  0  0  0  0  0999 V2000
   35.8210   27.8150   34.9210 F   0  0  0  0  0  0  0  0  0  0  0  0
   36.1600   28.2800   33.6750 C   0  0  0  0  0  0  0  0  0  0  0  0
   37.2270   27.7600   32.9620 C   0  0  0  0  0  0  0  0  0  0  0  0
   37.4960   28.2640   31.7120 C   0  0  0  0  0  0  0  0  0  0  0  0
   36.7080   29.2840   31.1680 C   0  0  0  0  0  0  0  0  0  0  0  0
   35.6590   29.7560   31.9340 C   0  0  0  0  0  0  0  0  0  0  0  0
   35.3590   29.2950   33.1600 C   0  0  0  0  0  0  0  0  0  0  0  0
   38.3300   27.8270   31.2090 H   0  0  0  0  0  0  0  0  0  0  0  0
   36.9520   29.6510   30.1850 H   0  0  0  0  0  0  0  0  0  0  0  0
   35.1000   30.5400   31.4480 H   0  0  0  0  0  0  0  0  0  0  0  0
   36.0390   31.2610   35.5010 Br  0  0  0  0  0  0  0  0  0  0  0  0
   34.2880   30.7510   34.9510 C   0  0  0  0  0  0  0  0  0  0  0  0
   34.2540   29.8460   33.9170 C   0  0  0  0  0  0  0  0  0  0  0  0
   32.9980   29.3850   33.4880 C   0  0  0  0  0  0  0  0  0  0  0  0
   31.8540   29.8280   34.0820 C   0  0  0  0  0  0  0  0  0  0  0  0
   31.9590   30.7370   35.1100 C   0  0  0  0  0  0  0  0  0  0  0  0
   33.1870   31.2190   35.5670 C   0  0  0  0  0  0  0  0  0  0  0  0
   32.8770   28.6740   32.6830 H   0  0  0  0  0  0  0  0  0  0  0  0
   30.8620   29.5040   33.7880 H   0  0  0  0  0  0  0  0  0  0  0  0
   31.0700   31.1170   35.6120 H   0  0  0  0  0  0  0  0  0  0  0  0
   33.3760   32.1160   36.5710 O   0  0  0  0  0  0  0  0  0  0  0  0
   32.7120   32.3030   37.3030 H   0  0  0  0  0  0  0  0  0  0  0  0
   38.9550   27.1010   34.5020 C   0  0  0  0  0  0  0  0  0  0  0  0
   37.9560   26.7160   33.6330 C   0  0  0  0  0  0  0  0  0  0  0  0
   37.7120   25.3480   33.4760 C   0  0  0  0  0  0  0  0  0  0  0  0
   38.4560   24.4520   34.1740 N   0  0  0  0  0  0  0  0  0  0  0  0
   39.4110   24.8620   35.0040 C   0  0  0  0  0  0  0  0  0  0  0  0
   39.6640   26.1510   35.1710 N   0  0  0  0  0  0  0  0  0  0  0  0
   39.2580   28.1140   34.7260 H   0  0  0  0  0  0  0  0  0  0  0  0
   36.9250   25.0660   32.7900 H   0  0  0  0  0  0  0  0  0  0  0  0
   42.1850   24.2340   33.8960 Cl  0  0  0  0  0  0  0  0  0  0  0  0
   41.4450   23.4870   35.2850 C   0  0  0  0  0  0  0  0  0  0  0  0
   40.1740   23.8320   35.7250 C   0  0  0  0  0  0  0  0  0  0  0  0
   39.5800   23.2400   36.8310 C   0  0  0  0  0  0  0  0  0  0  0  0
   38.5910   23.5160   37.1630 H   0  0  0  0  0  0  0  0  0  0  0  0
   40.2650   22.2600   37.5450 C   0  0  0  0  0  0  0  0  0  0  0  0
   39.7740   21.8200   38.4010 H   0  0  0  0  0  0  0  0  0  0  0  0
   41.5330   21.9010   37.1250 C   0  0  0  0  0  3  0  0  0  0  0  0
   42.0800   22.5140   36.0250 C   0  0  0  0  0  3  0  0  0  0  0  0
  2  1  1  0  0  0  0
  3 24  1  0  0  0  0
  3  2  2  0  0  0  0
  4  3  1  0  0  0  0
  5  4  2  0  0  0  0
  5  6  1  0  0  0  0
  6  7  2  0  0  0  0
  7  2  1  0  0  0  0
  7 13  1  0  0  0  0
  8  4  1  0  0  0  0
  9  5  1  0  0  0  0
 10  6  1  0  0  0  0
 12 11  1  0  0  0  0
 12 17  1  0  0  0  0
 13 12  2  0  0  0  0
 14 13  1  0  0  0  0
 14 15  2  0  0  0  0
 15 16  1  0  0  0  0
 16 17  2  0  0  0  0
 16 20  1  0  0  0  0
 17 21  1  0  0  0  0
 18 14  1  0  0  0  0
 19 15  1  0  0  0  0
 21 22  1  0  0  0  0
 23 29  1  0  0  0  0
 23 28  1  0  0  0  0
 24 23  2  0  0  0  0
 25 24  1  0  0  0  0
 25 26  2  0  0  0  0
 26 27  1  0  0  0  0
 27 28  2  0  0  0  0
 27 33  1  0  0  0  0
 30 25  1  0  0  0  0
 31 32  1  0  0  0  0
 32 33  2  0  0  0  0
 32 39  1  0  0  0  0
 33 34  1  0  0  0  0
 34 35  1  0  0  0  0
 34 36  2  0  0  0  0
 36 37  1  0  0  0  0
 38 36  1  0  0  0  0
 39 38  2  0  0  0  0
M  END
>  <minimizedAffinity>
-6.49331903

$$$$

 OpenBabel03272502083D

 39 42  0  0  0  0  0  0  0  0999 V2000
   39.0860   24.8860   33.7180 F   0  0  0  0  0  0  0  0  0  0  0  0
   38.2440   23.8780   33.3190 C   0  0  0  0  0  0  0  0  0  0  0  0
   37.3370   24.0440   32.2860 C   0  0  0  0  0  0  0  0  0  0  0  0
   36.5380   22.9830   31.9310 C   0  0  0  0  0  0  0  0  0  0  0  0
   36.6360   21.7590   32.5980 C   0  0  0  0  0  0  0  0  0  0  0  0
   37.5620   21.6630   33.6200 C   0  0  0  0  0  0  0  0  0  0  0  0
   38.3640   22.6710   34.0030 C   0  0  0  0  0  0  0  0  0  0  0  0
   35.8570   23.1690   31.1290 H   0  0  0  0  0  0  0  0  0  0  0  0
   35.9920   20.9530   32.2890 H   0  0  0  0  0  0  0  0  0  0  0  0
   37.5790   20.6900   34.0860 H   0  0  0  0  0  0  0  0  0  0  0  0
   37.3730   23.3690   36.8900 Br  0  0  0  0  0  0  0  0  0  0  0  0
   39.1000   22.7050   36.4390 C   0  0  0  0  0  0  0  0  0  0  0  0
   39.3030   22.5080   35.0930 C   0  0  0  0  0  0  0  0  0  0  0  0
   40.5710   22.0650   34.6770 C   0  0  0  0  0  0  0  0  0  0  0  0
   41.5610   21.8390   35.5860 C   0  0  0  0  0  0  0  0  0  0  0  0
   41.2900   22.0520   36.9180 C   0  0  0  0  0  0  0  0  0  0  0  0
   40.0450   22.4920   37.3720 C   0  0  0  0  0  0  0  0  0  0  0  0
   40.8190   21.8850   33.6410 H   0  0  0  0  0  0  0  0  0  0  0  0
   42.5540   21.4970   35.3170 H   0  0  0  0  0  0  0  0  0  0  0  0
   42.0520   21.8840   37.6780 H   0  0  0  0  0  0  0  0  0  0  0  0
   39.6970   22.7250   38.6660 O   0  0  0  0  0  0  0  0  0  0  0  0
   40.3480   22.9140   39.4080 H   0  0  0  0  0  0  0  0  0  0  0  0
   36.1430   26.0400   31.6690 C   0  0  0  0  0  0  0  0  0  0  0  0
   37.3360   25.3500   31.6830 C   0  0  0  0  0  0  0  0  0  0  0  0
   38.4600   25.9700   31.1250 C   0  0  0  0  0  0  0  0  0  0  0  0
   38.3430   27.2140   30.5940 N   0  0  0  0  0  0  0  0  0  0  0  0
   37.1730   27.8480   30.6000 C   0  0  0  0  0  0  0  0  0  0  0  0
   36.0930   27.2850   31.1210 N   0  0  0  0  0  0  0  0  0  0  0  0
   35.1950   25.6940   32.0590 H   0  0  0  0  0  0  0  0  0  0  0  0
   39.3870   25.4130   31.1440 H   0  0  0  0  0  0  0  0  0  0  0  0
   35.9930   30.0420   32.3630 Cl  0  0  0  0  0  0  0  0  0  0  0  0
   36.6020   30.2480   30.7440 C   0  0  0  0  0  0  0  0  0  0  0  0
   37.1250   29.1930   30.0080 C   0  0  0  0  0  0  0  0  0  0  0  0
   37.6120   29.3510   28.7180 C   0  0  0  0  0  0  0  0  0  0  0  0
   38.0150   28.5240   28.1550 H   0  0  0  0  0  0  0  0  0  0  0  0
   37.5870   30.6070   28.1160 C   0  0  0  0  0  0  0  0  0  0  0  0
   37.9740   30.6960   27.1110 H   0  0  0  0  0  0  0  0  0  0  0  0
   37.0710   31.6730   28.8310 C   0  0  0  0  0  3  0  0  0  0  0  0
   36.6000   31.4680   30.1050 C   0  0  0  0  0  3  0  0  0  0  0  0
  2  1  1  0  0  0  0
  2  7  1  0  0  0  0
  3  2  2  0  0  0  0
  4  3  1  0  0  0  0
  4  5  2  0  0  0  0
  5  6  1  0  0  0  0
  6  7  2  0  0  0  0
  6 10  1  0  0  0  0
  7 13  1  0  0  0  0
  8  4  1  0  0  0  0
  9  5  1  0  0  0  0
 12 11  1  0  0  0  0
 12 17  1  0  0  0  0
 13 12  2  0  0  0  0
 14 13  1  0  0  0  0
 14 15  2  0  0  0  0
 15 16  1  0  0  0  0
 16 17  2  0  0  0  0
 16 20  1  0  0  0  0
 17 21  1  0  0  0  0
 18 14  1  0  0  0  0
 19 15  1  0  0  0  0
 21 22  1  0  0  0  0
 23 24  1  0  0  0  0
 23 29  1  0  0  0  0
 24  3  1  0  0  0  0
 25 30  1  0  0  0  0
 25 24  2  0  0  0  0
 26 27  2  0  0  0  0
 26 25  1  0  0  0  0
 27 28  1  0  0  0  0
 28 23  2  0  0  0  0
 32 31  1  0  0  0  0
 33 27  1  0  0  0  0
 33 32  2  0  0  0  0
 34 33  1  0  0  0  0
 35 34  1  0  0  0  0
 36 34  2  0  0  0  0
 36 38  1  0  0  0  0
 37 36  1  0  0  0  0
 38 39  2  0  0  0  0
 39 32  1  0  0  0  0
M  END
>  <minimizedAffinity>
-6.32881212

$$$$

 OpenBabel03272502083D

 39 42  0  0  0  0  0  0  0  0999 V2000
   38.4680   25.2140   34.1460 F   0  0  0  0  0  0  0  0  0  0  0  0
   37.8760   24.1030   33.5970 C   0  0  0  0  0  0  0  0  0  0  0  0
   37.3010   24.1240   32.3380 C   0  0  0  0  0  0  0  0  0  0  0  0
   36.7430   22.9680   31.8460 C   0  0  0  0  0  0  0  0  0  0  0  0
   36.7540   21.7910   32.6020 C   0  0  0  0  0  0  0  0  0  0  0  0
   37.3450   21.8420   33.8510 C   0  0  0  0  0  0  0  0  0  0  0  0
   37.9020   22.9480   34.3730 C   0  0  0  0  0  0  0  0  0  0  0  0
   36.3130   23.0430   30.8710 H   0  0  0  0  0  0  0  0  0  0  0  0
   36.3070   20.9070   32.1800 H   0  0  0  0  0  0  0  0  0  0  0  0
   37.3140   20.8970   34.3710 H   0  0  0  0  0  0  0  0  0  0  0  0
   40.8940   22.0570   34.6220 Br  0  0  0  0  0  0  0  0  0  0  0  0
   39.7820   22.6290   36.0590 C   0  0  0  0  0  0  0  0  0  0  0  0
   38.4910   22.9360   35.6950 C   0  0  0  0  0  0  0  0  0  0  0  0
   37.5970   23.3200   36.7090 C   0  0  0  0  0  0  0  0  0  0  0  0
   38.0040   23.3840   38.0080 C   0  0  0  0  0  0  0  0  0  0  0  0
   39.3100   23.0660   38.3020 C   0  0  0  0  0  0  0  0  0  0  0  0
   40.2300   22.6800   37.3260 C   0  0  0  0  0  0  0  0  0  0  0  0
   36.5660   23.5780   36.5150 H   0  0  0  0  0  0  0  0  0  0  0  0
   37.3540   23.6740   38.8260 H   0  0  0  0  0  0  0  0  0  0  0  0
   39.6770   23.1040   39.3270 H   0  0  0  0  0  0  0  0  0  0  0  0
   41.5340   22.3530   37.5320 O   0  0  0  0  0  0  0  0  0  0  0  0
   41.9130   22.0460   38.4110 H   0  0  0  0  0  0  0  0  0  0  0  0
   36.1590   26.0320   31.4190 C   0  0  0  0  0  0  0  0  0  0  0  0
   37.3560   25.3950   31.6660 C   0  0  0  0  0  0  0  0  0  0  0  0
   38.5350   26.0310   31.2610 C   0  0  0  0  0  0  0  0  0  0  0  0
   38.4650   27.2390   30.6450 N   0  0  0  0  0  0  0  0  0  0  0  0
   37.2900   27.8230   30.4250 C   0  0  0  0  0  0  0  0  0  0  0  0
   36.1590   27.2440   30.7980 N   0  0  0  0  0  0  0  0  0  0  0  0
   35.1720   25.6680   31.6710 H   0  0  0  0  0  0  0  0  0  0  0  0
   39.4630   25.5150   31.4620 H   0  0  0  0  0  0  0  0  0  0  0  0
   36.1940   30.1610   32.0510 Cl  0  0  0  0  0  0  0  0  0  0  0  0
   36.8130   30.2480   30.4250 C   0  0  0  0  0  0  0  0  0  0  0  0
   37.2950   29.1320   29.7540 C   0  0  0  0  0  0  0  0  0  0  0  0
   37.7900   29.1940   28.4590 C   0  0  0  0  0  0  0  0  0  0  0  0
   38.1620   28.3200   27.9480 H   0  0  0  0  0  0  0  0  0  0  0  0
   37.8150   30.4120   27.7840 C   0  0  0  0  0  0  0  0  0  0  0  0
   38.2070   30.4260   26.7770 H   0  0  0  0  0  0  0  0  0  0  0  0
   37.3400   31.5370   28.4330 C   0  0  0  0  0  3  0  0  0  0  0  0
   36.8590   31.4260   29.7150 C   0  0  0  0  0  3  0  0  0  0  0  0
  2  1  1  0  0  0  0
  2  7  1  0  0  0  0
  3  2  2  0  0  0  0
  4  3  1  0  0  0  0
  4  5  2  0  0  0  0
  5  6  1  0  0  0  0
  6 10  1  0  0  0  0
  6  7  2  0  0  0  0
  7 13  1  0  0  0  0
  8  4  1  0  0  0  0
  9  5  1  0  0  0  0
 11 12  1  0  0  0  0
 12 17  1  0  0  0  0
 13 12  2  0  0  0  0
 13 14  1  0  0  0  0
 14 15  2  0  0  0  0
 15 16  1  0  0  0  0
 15 19  1  0  0  0  0
 16 20  1  0  0  0  0
 17 21  1  0  0  0  0
 17 16  2  0  0  0  0
 18 14  1  0  0  0  0
 21 22  1  0  0  0  0
 23 24  1  0  0  0  0
 23 29  1  0  0  0  0
 24  3  1  0  0  0  0
 25 30  1  0  0  0  0
 25 24  2  0  0  0  0
 26 25  1  0  0  0  0
 27 26  2  0  0  0  0
 27 28  1  0  0  0  0
 28 23  2  0  0  0  0
 32 31  1  0  0  0  0
 33 27  1  0  0  0  0
 33 32  1  0  0  0  0
 34 33  2  0  0  0  0
 35 34  1  0  0  0  0
 36 38  2  0  0  0  0
 36 34  1  0  0  0  0
 37 36  1  0  0  0  0
 38 39  1  0  0  0  0
 39 32  2  0  0  0  0
M  END
>  <minimizedAffinity>
-6.30464935

$$$$

 OpenBabel03272502083D

 39 42  0  0  0  0  0  0  0  0999 V2000
   36.2710   28.7290   34.7230 F   0  0  0  0  0  0  0  0  0  0  0  0
   36.3950   28.7800   33.3570 C   0  0  0  0  0  0  0  0  0  0  0  0
   37.1730   27.8760   32.6560 C   0  0  0  0  0  0  0  0  0  0  0  0
   37.2350   27.9790   31.2860 C   0  0  0  0  0  0  0  0  0  0  0  0
   36.5280   28.9790   30.6120 C   0  0  0  0  0  0  0  0  0  0  0  0
   35.7710   29.8490   31.3750 C   0  0  0  0  0  0  0  0  0  0  0  0
   35.6800   29.7870   32.7140 C   0  0  0  0  0  0  0  0  0  0  0  0
   37.8510   27.2550   30.7980 H   0  0  0  0  0  0  0  0  0  0  0  0
   36.6030   29.0250   29.5390 H   0  0  0  0  0  0  0  0  0  0  0  0
   35.2550   30.5900   30.7840 H   0  0  0  0  0  0  0  0  0  0  0  0
   32.6150   29.2070   32.9910 Br  0  0  0  0  0  0  0  0  0  0  0  0
   33.5380   30.6910   33.7500 C   0  0  0  0  0  0  0  0  0  0  0  0
   34.8800   30.7400   33.4550 C   0  0  0  0  0  0  0  0  0  0  0  0
   35.6190   31.8330   33.9390 C   0  0  0  0  0  0  0  0  0  0  0  0
   35.0170   32.8070   34.6770 C   0  0  0  0  0  0  0  0  0  0  0  0
   33.6710   32.6950   34.9390 C   0  0  0  0  0  0  0  0  0  0  0  0
   32.9010   31.6270   34.4760 C   0  0  0  0  0  0  0  0  0  0  0  0
   36.6780   31.9530   33.7560 H   0  0  0  0  0  0  0  0  0  0  0  0
   35.5420   33.6700   35.0740 H   0  0  0  0  0  0  0  0  0  0  0  0
   33.1510   33.4510   35.5250 H   0  0  0  0  0  0  0  0  0  0  0  0
   31.5710   31.4400   34.6910 O   0  0  0  0  0  0  0  0  0  0  0  0
   30.9230   32.1720   34.9260 H   0  0  0  0  0  0  0  0  0  0  0  0
   37.3430   25.6150   33.4630 C   0  0  0  0  0  0  0  0  0  0  0  0
   37.8480   26.8980   33.4670 C   0  0  0  0  0  0  0  0  0  0  0  0
   38.9830   27.1550   34.2440 C   0  0  0  0  0  0  0  0  0  0  0  0
   39.5450   26.1480   34.9600 N   0  0  0  0  0  0  0  0  0  0  0  0
   39.0280   24.9220   34.9300 C   0  0  0  0  0  0  0  0  0  0  0  0
   37.9550   24.6510   34.2040 N   0  0  0  0  0  0  0  0  0  0  0  0
   36.4780   25.2660   32.9170 H   0  0  0  0  0  0  0  0  0  0  0  0
   39.3640   28.1670   34.2350 H   0  0  0  0  0  0  0  0  0  0  0  0
   41.3400   23.4630   33.5730 Cl  0  0  0  0  0  0  0  0  0  0  0  0
   40.7540   23.1730   35.1880 C   0  0  0  0  0  0  0  0  0  0  0  0
   39.6930   23.8840   35.7320 C   0  0  0  0  0  0  0  0  0  0  0  0
   39.2220   23.6570   37.0180 C   0  0  0  0  0  0  0  0  0  0  0  0
   38.3970   24.2160   37.4300 H   0  0  0  0  0  0  0  0  0  0  0  0
   39.8210   22.6840   37.8140 C   0  0  0  0  0  0  0  0  0  0  0  0
   39.4300   22.5320   38.8100 H   0  0  0  0  0  0  0  0  0  0  0  0
   40.8800   21.9620   37.2920 C   0  0  0  0  0  3  0  0  0  0  0  0
   41.3110   22.2220   36.0150 C   0  0  0  0  0  3  0  0  0  0  0  0
  2  1  1  0  0  0  0
  3  2  2  0  0  0  0
  3 24  1  0  0  0  0
  4  3  1  0  0  0  0
  5  4  2  0  0  0  0
  5  6  1  0  0  0  0
  6  7  2  0  0  0  0
  7  2  1  0  0  0  0
  7 13  1  0  0  0  0
  8  4  1  0  0  0  0
  9  5  1  0  0  0  0
 10  6  1  0  0  0  0
 11 12  1  0  0  0  0
 12 17  1  0  0  0  0
 13 12  2  0  0  0  0
 13 14  1  0  0  0  0
 14 15  2  0  0  0  0
 15 16  1  0  0  0  0
 15 19  1  0  0  0  0
 16 20  1  0  0  0  0
 17 21  1  0  0  0  0
 17 16  2  0  0  0  0
 18 14  1  0  0  0  0
 21 22  1  0  0  0  0
 23 24  2  0  0  0  0
 23 28  1  0  0  0  0
 24 25  1  0  0  0  0
 25 26  2  0  0  0  0
 27 26  1  0  0  0  0
 27 33  1  0  0  0  0
 28 27  2  0  0  0  0
 29 23  1  0  0  0  0
 30 25  1  0  0  0  0
 31 32  1  0  0  0  0
 32 33  2  0  0  0  0
 32 39  1  0  0  0  0
 33 34  1  0  0  0  0
 34 35  1  0  0  0  0
 34 36  2  0  0  0  0
 36 37  1  0  0  0  0
 38 36  1  0  0  0  0
 39 38  2  0  0  0  0
M  END
>  <minimizedAffinity>
-6.25310183

$$$$

 OpenBabel03272502083D

 39 42  0  0  0  0  0  0  0  0999 V2000
   40.6060   24.9510   34.5370 F   0  0  0  0  0  0  0  0  0  0  0  0
   40.0090   24.3530   35.6190 C   0  0  0  0  0  0  0  0  0  0  0  0
   38.7420   24.7070   36.0480 C   0  0  0  0  0  0  0  0  0  0  0  0
   38.2020   24.0530   37.1300 C   0  0  0  0  0  0  0  0  0  0  0  0
   38.9180   23.0480   37.7870 C   0  0  0  0  0  0  0  0  0  0  0  0
   40.1790   22.7450   37.3060 C   0  0  0  0  0  0  0  0  0  0  0  0
   40.7470   23.3580   36.2540 C   0  0  0  0  0  0  0  0  0  0  0  0
   37.2220   24.3680   37.4160 H   0  0  0  0  0  0  0  0  0  0  0  0
   38.4600   22.5590   38.6300 H   0  0  0  0  0  0  0  0  0  0  0  0
   40.6670   21.9610   37.8640 H   0  0  0  0  0  0  0  0  0  0  0  0
   40.9960   21.5040   33.7430 Br  0  0  0  0  0  0  0  0  0  0  0  0
   42.4500   22.2460   34.7230 C   0  0  0  0  0  0  0  0  0  0  0  0
   42.0790   23.0020   35.8100 C   0  0  0  0  0  0  0  0  0  0  0  0
   43.0980   23.5450   36.6120 C   0  0  0  0  0  0  0  0  0  0  0  0
   44.4090   23.3230   36.3140 C   0  0  0  0  0  0  0  0  0  0  0  0
   44.7110   22.5600   35.2100 C   0  0  0  0  0  0  0  0  0  0  0  0
   43.7300   22.0030   34.3880 C   0  0  0  0  0  0  0  0  0  0  0  0
   42.8990   24.1500   37.4850 H   0  0  0  0  0  0  0  0  0  0  0  0
   45.2320   23.7190   36.9000 H   0  0  0  0  0  0  0  0  0  0  0  0
   45.7460   22.3590   34.9360 H   0  0  0  0  0  0  0  0  0  0  0  0
   43.9430   21.2420   33.2820 O   0  0  0  0  0  0  0  0  0  0  0  0
   44.7880   20.7300   33.0950 H   0  0  0  0  0  0  0  0  0  0  0  0
   37.5540   25.4060   34.0750 C   0  0  0  0  0  0  0  0  0  0  0  0
   38.1130   25.7540   35.2860 C   0  0  0  0  0  0  0  0  0  0  0  0
   38.0200   27.0890   35.6950 C   0  0  0  0  0  0  0  0  0  0  0  0
   37.3890   27.9890   34.8970 N   0  0  0  0  0  0  0  0  0  0  0  0
   36.8610   27.6140   33.7350 C   0  0  0  0  0  0  0  0  0  0  0  0
   36.9360   26.3580   33.3230 N   0  0  0  0  0  0  0  0  0  0  0  0
   37.5480   24.4210   33.6290 H   0  0  0  0  0  0  0  0  0  0  0  0
   38.4650   27.3430   36.6470 H   0  0  0  0  0  0  0  0  0  0  0  0
   38.1710   28.2660   31.0560 Cl  0  0  0  0  0  0  0  0  0  0  0  0
   36.7260   29.0020   31.6940 C   0  0  0  0  0  0  0  0  0  0  0  0
   36.1940   28.6460   32.9260 C   0  0  0  0  0  0  0  0  0  0  0  0
   35.0430   29.2290   33.4390 C   0  0  0  0  0  0  0  0  0  0  0  0
   34.6390   28.9440   34.3980 H   0  0  0  0  0  0  0  0  0  0  0  0
   34.3770   30.2100   32.7090 C   0  0  0  0  0  0  0  0  0  0  0  0
   33.4850   30.6420   33.1370 H   0  0  0  0  0  0  0  0  0  0  0  0
   34.8900   30.5800   31.4780 C   0  0  0  0  0  3  0  0  0  0  0  0
   36.0320   29.9760   31.0120 C   0  0  0  0  0  3  0  0  0  0  0  0
  1  2  1  0  0  0  0
  2  3  2  0  0  0  0
  2  7  1  0  0  0  0
  3  4  1  0  0  0  0
  4  8  1  0  0  0  0
  4  5  2  0  0  0  0
  5  9  1  0  0  0  0
  6  5  1  0  0  0  0
  6 10  1  0  0  0  0
  7  6  2  0  0  0  0
 11 12  1  0  0  0  0
 12 13  1  0  0  0  0
 13  7  1  0  0  0  0
 13 14  2  0  0  0  0
 14 18  1  0  0  0  0
 15 14  1  0  0  0  0
 15 19  1  0  0  0  0
 16 15  2  0  0  0  0
 17 12  2  0  0  0  0
 17 16  1  0  0  0  0
 20 16  1  0  0  0  0
 21 17  1  0  0  0  0
 22 21  1  0  0  0  0
 23 24  1  0  0  0  0
 24 25  2  0  0  0  0
 24  3  1  0  0  0  0
 25 30  1  0  0  0  0
 26 25  1  0  0  0  0
 27 26  2  0  0  0  0
 28 27  1  0  0  0  0
 28 23  2  0  0  0  0
 29 23  1  0  0  0  0
 31 32  1  0  0  0  0
 32 33  1  0  0  0  0
 33 34  2  0  0  0  0
 33 27  1  0  0  0  0
 34 35  1  0  0  0  0
 36 37  1  0  0  0  0
 36 34  1  0  0  0  0
 38 36  2  0  0  0  0
 39 38  1  0  0  0  0
 39 32  2  0  0  0  0
M  END
>  <minimizedAffinity>
-6.23299074

$$$$

 OpenBabel03272502083D

 39 42  0  0  0  0  0  0  0  0999 V2000
   35.7540   28.4620   34.5960 F   0  0  0  0  0  0  0  0  0  0  0  0
   35.7080   29.2270   33.4570 C   0  0  0  0  0  0  0  0  0  0  0  0
   36.2410   28.7900   32.2560 C   0  0  0  0  0  0  0  0  0  0  0  0
   36.1410   29.6030   31.1530 C   0  0  0  0  0  0  0  0  0  0  0  0
   35.5150   30.8510   31.2380 C   0  0  0  0  0  0  0  0  0  0  0  0
   35.0060   31.2240   32.4680 C   0  0  0  0  0  0  0  0  0  0  0  0
   35.0790   30.4630   33.5730 C   0  0  0  0  0  0  0  0  0  0  0  0
   36.5710   29.2150   30.2550 H   0  0  0  0  0  0  0  0  0  0  0  0
   35.4580   31.4580   30.3510 H   0  0  0  0  0  0  0  0  0  0  0  0
   34.5390   32.1970   32.4540 H   0  0  0  0  0  0  0  0  0  0  0  0
   32.2150   29.4790   34.3690 Br  0  0  0  0  0  0  0  0  0  0  0  0
   33.3360   30.6020   35.4220 C   0  0  0  0  0  0  0  0  0  0  0  0
   34.5380   30.9220   34.8350 C   0  0  0  0  0  0  0  0  0  0  0  0
   35.3990   31.7870   35.5320 C   0  0  0  0  0  0  0  0  0  0  0  0
   35.0460   32.2880   36.7490 C   0  0  0  0  0  0  0  0  0  0  0  0
   33.8300   31.9260   37.2800 C   0  0  0  0  0  0  0  0  0  0  0  0
   32.9460   31.0700   36.6210 C   0  0  0  0  0  0  0  0  0  0  0  0
   36.3620   32.0920   35.1470 H   0  0  0  0  0  0  0  0  0  0  0  0
   35.6740   32.9590   37.3260 H   0  0  0  0  0  0  0  0  0  0  0  0
   33.5090   32.3030   38.2510 H   0  0  0  0  0  0  0  0  0  0  0  0
   31.7310   30.6620   37.0770 O   0  0  0  0  0  0  0  0  0  0  0  0
   31.1860   31.1490   37.7670 H   0  0  0  0  0  0  0  0  0  0  0  0
   36.0790   26.4090   31.9460 C   0  0  0  0  0  0  0  0  0  0  0  0
   36.8560   27.4900   32.3030 C   0  0  0  0  0  0  0  0  0  0  0  0
   38.1850   27.2510   32.6700 C   0  0  0  0  0  0  0  0  0  0  0  0
   38.6630   25.9800   32.6630 N   0  0  0  0  0  0  0  0  0  0  0  0
   37.8810   24.9620   32.3120 C   0  0  0  0  0  0  0  0  0  0  0  0
   36.6190   25.1590   31.9600 N   0  0  0  0  0  0  0  0  0  0  0  0
   35.0410   26.4350   31.6420 H   0  0  0  0  0  0  0  0  0  0  0  0
   38.7790   28.1110   32.9470 H   0  0  0  0  0  0  0  0  0  0  0  0
   38.1610   23.6620   35.0580 Cl  0  0  0  0  0  0  0  0  0  0  0  0
   38.6320   22.9530   33.5380 C   0  0  0  0  0  0  0  0  0  0  0  0
   38.4700   23.6150   32.3280 C   0  0  0  0  0  0  0  0  0  0  0  0
   38.8430   23.0550   31.1140 C   0  0  0  0  0  0  0  0  0  0  0  0
   38.7120   23.5790   30.1800 H   0  0  0  0  0  0  0  0  0  0  0  0
   39.4040   21.7810   31.0810 C   0  0  0  0  0  0  0  0  0  0  0  0
   39.6840   21.3750   30.1200 H   0  0  0  0  0  0  0  0  0  0  0  0
   39.5760   21.1030   32.2750 C   0  0  0  0  0  3  0  0  0  0  0  0
   39.1920   21.6980   33.4520 C   0  0  0  0  0  3  0  0  0  0  0  0
  2  7  1  0  0  0  0
  2  1  1  0  0  0  0
  3 24  1  0  0  0  0
  3  2  2  0  0  0  0
  4  5  2  0  0  0  0
  4  3  1  0  0  0  0
  5  6  1  0  0  0  0
  6  7  2  0  0  0  0
  7 13  1  0  0  0  0
  8  4  1  0  0  0  0
  9  5  1  0  0  0  0
 10  6  1  0  0  0  0
 11 12  1  0  0  0  0
 12 17  1  0  0  0  0
 13 12  2  0  0  0  0
 13 14  1  0  0  0  0
 14 15  2  0  0  0  0
 15 16  1  0  0  0  0
 15 19  1  0  0  0  0
 16 20  1  0  0  0  0
 17 21  1  0  0  0  0
 17 16  2  0  0  0  0
 18 14  1  0  0  0  0
 21 22  1  0  0  0  0
 23 28  2  0  0  0  0
 23 24  1  0  0  0  0
 24 25  2  0  0  0  0
 25 30  1  0  0  0  0
 26 25  1  0  0  0  0
 27 33  1  0  0  0  0
 27 26  2  0  0  0  0
 28 27  1  0  0  0  0
 29 23  1  0  0  0  0
 32 31  1  0  0  0  0
 33 32  2  0  0  0  0
 34 33  1  0  0  0  0
 35 34  1  0  0  0  0
 36 34  2  0  0  0  0
 36 38  1  0  0  0  0
 37 36  1  0  0  0  0
 38 39  2  0  0  0  0
 39 32  1  0  0  0  0
M  END
>  <minimizedAffinity>
-6.17316341

$$$$
