
     RDKit          3D

 43 46  0  0  0  0  0  0  0  0999 V2000
   37.5524   32.0598   48.1265 Cl  0  0  0  0  0  0  0  0  0  0  0  0
   36.6759   31.0879   47.0021 C   0  0  0  0  0  0  0  0  0  0  0  0
   37.2074   30.8779   45.7320 C   0  0  0  0  0  0  0  0  0  0  0  0
   36.5483   30.1201   44.7999 C   0  0  0  0  0  0  0  0  0  0  0  0
   35.3355   29.5435   45.0980 C   0  0  0  0  0  0  0  0  0  0  0  0
   34.7783   29.7303   46.3481 C   0  0  0  0  0  0  0  0  0  0  0  0
   33.2412   29.0554   46.8526 Cl  0  0  0  0  0  0  0  0  0  0  0  0
   35.4799   30.5062   47.2658 C   0  0  0  0  0  0  0  0  0  0  0  0
   39.7572   33.2277   44.5373 C   0  0  0  0  0  0  0  0  0  0  0  0
   40.9594   32.5568   44.8159 C   0  0  0  0  0  0  0  0  0  0  0  0
   40.8730   31.2754   45.4236 C   0  0  0  0  0  0  0  0  0  0  0  0
   39.6342   30.7949   45.6898 N   0  0  0  0  0  0  0  0  0  0  0  0
   38.4866   31.4783   45.4037 C   0  0  0  0  0  0  0  0  0  0  0  0
   38.5829   32.6717   44.8372 N   0  0  0  0  0  0  0  0  0  0  0  0
   34.8987   30.7171   48.6359 C   0  0  0  0  0  0  0  0  0  0  0  0
   35.2836   27.9663   49.1098 F   0  0  0  0  0  0  0  0  0  0  0  0
   35.9977   28.8735   49.8531 C   0  0  0  0  0  0  0  0  0  0  0  0
   35.8377   30.2561   49.6790 C   0  0  0  0  0  0  0  0  0  0  0  0
   36.5667   31.1024   50.4789 C   0  0  0  0  0  0  0  0  0  0  0  0
   37.4444   30.6090   51.4337 C   0  0  0  0  0  0  0  0  0  0  0  0
   37.5950   29.2170   51.5953 C   0  0  0  0  0  0  0  0  0  0  0  0
   36.8568   28.3397   50.7898 C   0  0  0  0  0  0  0  0  0  0  0  0
   36.9168   29.9266   43.8017 H   0  0  0  0  0  0  0  0  0  0  0  0
   34.7682   28.9359   44.4049 H   0  0  0  0  0  0  0  0  0  0  0  0
   39.8330   34.1974   44.0769 H   0  0  0  0  0  0  0  0  0  0  0  0
   41.9304   32.9310   44.6084 H   0  0  0  0  0  0  0  0  0  0  0  0
   41.7249   30.6646   45.6849 H   0  0  0  0  0  0  0  0  0  0  0  0
   34.6826   31.8001   48.7975 H   0  0  0  0  0  0  0  0  0  0  0  0
   33.9046   30.2167   48.7202 H   0  0  0  0  0  0  0  0  0  0  0  0
   36.4665   32.1759   50.4835 H   0  0  0  0  0  0  0  0  0  0  0  0
   38.0445   31.2143   52.0880 H   0  0  0  0  0  0  0  0  0  0  0  0
   38.2618   28.7824   52.3208 H   0  0  0  0  0  0  0  0  0  0  0  0
   38.2100   27.6618   53.3173 Cl  0  0  0  0  0  0  0  0  0  0  0  0
   37.6326   26.5388   52.1258 C   0  0  0  0  0  0  0  0  0  0  0  0
   36.9973   26.8965   50.9423 C   0  0  0  0  0  0  0  0  0  0  0  0
   36.5789   25.9166   50.0655 C   0  0  0  0  0  0  0  0  0  0  0  0
   36.0964   26.2773   49.1737 H   0  0  0  0  0  0  0  0  0  0  0  0
   36.8053   24.5943   50.3915 C   0  0  0  0  0  0  0  0  0  0  0  0
   36.4761   23.8429   49.7032 H   0  0  0  0  0  0  0  0  0  0  0  0
   37.4324   24.2091   51.5573 C   0  0  0  0  0  0  0  0  0  0  0  0
   37.8551   25.2038   52.4432 C   0  0  0  0  0  0  0  0  0  0  0  0
   37.6049   23.1690   51.8030 H   0  0  0  0  0  0  0  0  0  0  0  0
   38.3375   24.8686   53.3368 H   0  0  0  0  0  0  0  0  0  0  0  0
  2  8  2  0
  2  1  1  0
  3  2  1  0
  4  5  1  0
  4  3  2  0
  5  6  2  0
  6  7  1  0
  6  8  1  0
  8 15  1  0
  9 10  2  0
  9 14  1  0
 10 11  1  0
 11 12  2  0
 13 12  1  0
 13  3  1  0
 14 13  2  0
 15 18  1  0
 16 17  1  0
 17 22  2  0
 18 17  1  0
 18 19  2  0
 19 20  1  0
 20 21  2  0
 22 21  1  0
  4 23  1  0
  5 24  1  0
  9 25  1  0
 10 26  1  0
 11 27  1  0
 15 28  1  0
 15 29  1  0
 19 30  1  0
 20 31  1  0
 21 32  1  0
 33 34  1  0
 34 35  2  0
 35 36  1  0
 36 37  1  0
 36 38  2  0
 38 39  1  0
 38 40  1  0
 40 41  2  0
 41 34  1  0
 40 42  1  0
 41 43  1  0
 22 35  1  0
M  ISO  8  23  14  24  14  25  14  26  14  27  14  28   8  29   8  30  14
M  ISO  4  31  14  32  14  37  15  39  16
M  END
>  <DihAtoms>  (1) 
16,21,34,33

>  <DihDeg>  (1) 
90.00172083508988

$$$$
