
 OpenBabel03272505003D

 28 30  0  0  0  0  0  0  0  0999 V2000
   37.5310   30.4600   46.6030 Cl  0  0  0  0  0  0  0  0  0  0  0  0
   38.3540   31.8350   47.3280 C   0  0  0  0  0  0  0  0  0  0  0  0
   38.2350   32.0260   48.6820 C   0  0  0  0  0  0  0  0  0  0  0  0
   38.9090   33.1290   49.1800 C   0  0  0  0  0  0  0  0  0  0  0  0
   39.6450   33.9630   48.3470 C   0  0  0  0  0  0  0  0  0  0  0  0
   39.7300   33.7250   47.0040 C   0  0  0  0  0  0  0  0  0  0  0  0
   39.0640   32.6290   46.4810 C   0  0  0  0  0  0  0  0  0  0  0  0
   38.8680   33.3520   50.2350 H   0  0  0  0  0  0  0  0  0  0  0  0
   40.1780   34.8250   48.7130 H   0  0  0  0  0  0  0  0  0  0  0  0
   40.2930   34.3530   46.3260 H   0  0  0  0  0  0  0  0  0  0  0  0
   38.0870   30.5420   50.6780 C   0  0  0  0  0  0  0  0  0  0  0  0
   37.4650   31.1610   49.5780 C   0  0  0  0  0  0  0  0  0  0  0  0
   36.1120   30.9370   49.3570 C   0  0  0  0  0  0  0  0  0  0  0  0
   35.4640   30.1150   50.2400 N   0  0  0  0  0  0  0  0  0  0  0  0
   36.0720   29.5380   51.2780 C   0  0  0  0  0  0  0  0  0  0  0  0
   37.3900   29.7440   51.5110 N   0  0  0  0  0  0  0  0  0  0  0  0
   39.1440   30.7260   50.8400 H   0  0  0  0  0  0  0  0  0  0  0  0
   35.6390   31.4070   48.5210 H   0  0  0  0  0  0  0  0  0  0  0  0
   35.5050   28.8870   51.9570 H   0  0  0  0  0  0  0  0  0  0  0  0
   41.4870   31.0410   45.8650 Cl  0  0  0  0  0  0  0  0  0  0  0  0
   40.2890   31.6270   44.7190 C   0  0  0  0  0  0  0  0  0  0  0  0
   39.1550   32.3760   45.0490 C   0  0  0  0  0  0  0  0  0  0  0  0
   38.2990   32.7680   44.0380 C   0  0  0  0  0  0  0  0  0  0  0  0
   37.4610   33.3380   44.4080 H   0  0  0  0  0  0  0  0  0  0  0  0
   38.5780   32.4170   42.7370 C   0  0  0  0  0  0  0  0  0  0  0  0
   37.8540   32.7640   41.9920 H   0  0  0  0  0  0  0  0  0  0  0  0
   39.6930   31.6800   42.4000 C   0  0  0  0  0  0  0  0  0  0  0  0
   40.5520   31.2840   43.4080 C   0  0  0  0  0  0  0  0  0  0  0  0
  1  2  1  0  0  0  0
  2  3  1  0  0  0  0
  3  4  2  0  0  0  0
  3 12  1  0  0  0  0
  4  8  1  0  0  0  0
  5  9  1  0  0  0  0
  5  4  1  0  0  0  0
  6  5  2  0  0  0  0
  7  6  1  0  0  0  0
  7  2  2  0  0  0  0
 10  6  1  0  0  0  0
 11 17  1  0  0  0  0
 11 16  1  0  0  0  0
 12 11  2  0  0  0  0
 13 12  1  0  0  0  0
 13 14  2  0  0  0  0
 14 15  1  0  0  0  0
 15 16  2  0  0  0  0
 15 19  1  0  0  0  0
 18 13  1  0  0  0  0
 21 22  1  0  0  0  0
 21 20  1  0  0  0  0
 22  7  1  0  0  0  0
 23 24  1  0  0  0  0
 23 22  2  0  0  0  0
 25 23  1  0  0  0  0
 26 25  1  0  0  0  0
 27 25  2  0  0  0  0
 27 28  1  0  0  0  0
 28 21  2  0  0  0  0
M  END
>  <minimizedAffinity>
-6.1184411

>  <minimizedRMSD>
1.03845036

$$$$
