REMARK  Name = 
REMARK  4 active torsions:
REMARK  status: ('A' for Active; 'I' for Inactive)
REMARK    1  A    between atoms: C_3  and  C_13
REMARK    2  A    between atoms: C_8  and  C_15
REMARK    3  A    between atoms: C_15  and  C_18
REMARK    4  A    between atoms: C_22  and  C_35
REMARK                            x       y       z     vdW  Elec       q    Type
REMARK                         _______ _______ _______ _____ _____    ______ ____
ROOT
ATOM      1  C   UNL     1      34.899  30.717  48.636  0.00  0.00    +0.000 C 
ATOM      2  H   UNL     1      34.683  31.800  48.797  0.00  0.00    +0.000 HD
ATOM      3  H   UNL     1      33.905  30.217  48.720  0.00  0.00    +0.000 HD
ENDROOT
BRANCH   1  11
ATOM      4 CL   UNL     1      37.552  32.060  48.127  0.00  0.00    +0.000 Cl
ATOM      5  C   UNL     1      36.676  31.088  47.002  0.00  0.00    +0.000 A 
ATOM      6  C   UNL     1      37.207  30.878  45.732  0.00  0.00    +0.000 A 
ATOM      7  C   UNL     1      36.548  30.120  44.800  0.00  0.00    +0.000 A 
ATOM      8  C   UNL     1      35.336  29.544  45.098  0.00  0.00    +0.000 A 
ATOM      9  C   UNL     1      34.778  29.730  46.348  0.00  0.00    +0.000 A 
ATOM     10 CL   UNL     1      33.241  29.055  46.853  0.00  0.00    +0.000 Cl
ATOM     11  C   UNL     1      35.480  30.506  47.266  0.00  0.00    +0.000 A 
ATOM     12  H   UNL     1      36.917  29.927  43.802  0.00  0.00    +0.000 HD
ATOM     13  H   UNL     1      34.768  28.936  44.405  0.00  0.00    +0.000 HD
BRANCH   6  18
ATOM     14  C   UNL     1      39.757  33.228  44.537  0.00  0.00    +0.000 A 
ATOM     15  C   UNL     1      40.959  32.557  44.816  0.00  0.00    +0.000 A 
ATOM     16  C   UNL     1      40.873  31.275  45.424  0.00  0.00    +0.000 A 
ATOM     17  N   UNL     1      39.634  30.795  45.690  0.00  0.00    +0.000 NA
ATOM     18  C   UNL     1      38.487  31.478  45.404  0.00  0.00    +0.000 A 
ATOM     19  N   UNL     1      38.583  32.672  44.837  0.00  0.00    +0.000 NA
ATOM     20  H   UNL     1      39.833  34.197  44.077  0.00  0.00    +0.000 HD
ATOM     21  H   UNL     1      41.930  32.931  44.608  0.00  0.00    +0.000 HD
ATOM     22  H   UNL     1      41.725  30.665  45.685  0.00  0.00    +0.000 HD
ENDBRANCH   6  18
ENDBRANCH   1  11
BRANCH   1  25
ATOM     23  F   UNL     1      35.284  27.966  49.110  0.00  0.00    +0.000 F 
ATOM     24  C   UNL     1      35.998  28.873  49.853  0.00  0.00    +0.000 A 
ATOM     25  C   UNL     1      35.838  30.256  49.679  0.00  0.00    +0.000 A 
ATOM     26  C   UNL     1      36.567  31.102  50.479  0.00  0.00    +0.000 A 
ATOM     27  C   UNL     1      37.444  30.609  51.434  0.00  0.00    +0.000 A 
ATOM     28  C   UNL     1      37.595  29.217  51.595  0.00  0.00    +0.000 A 
ATOM     29  C   UNL     1      36.857  28.340  50.790  0.00  0.00    +0.000 A 
ATOM     30  H   UNL     1      36.467  32.176  50.483  0.00  0.00    +0.000 HD
ATOM     31  H   UNL     1      38.044  31.214  52.088  0.00  0.00    +0.000 HD
ATOM     32  H   UNL     1      38.262  28.782  52.321  0.00  0.00    +0.000 HD
BRANCH  29  35
ATOM     33 CL   UNL     1      38.797  27.675  52.905  0.00  0.00    +0.000 Cl
ATOM     34  C   UNL     1      37.906  26.545  51.934  0.00  0.00    +0.000 A 
ATOM     35  C   UNL     1      36.997  26.896  50.942  0.00  0.00    +0.000 A 
ATOM     36  C   UNL     1      36.345  25.911  50.230  0.00  0.00    +0.000 A 
ATOM     37  H   UNL     1      35.658  26.267  49.481  0.00  0.00    +0.000 HD
ATOM     38  C   UNL     1      36.616  24.590  50.525  0.00  0.00    +0.000 A 
ATOM     39  H   UNL     1      36.103  23.834  49.965  0.00  0.00    +0.000 HD
ATOM     40  C   UNL     1      37.511  24.211  51.502  0.00  0.00    +0.000 A 
ATOM     41  C   UNL     1      38.171  25.211  52.221  0.00  0.00    +0.000 A 
ENDBRANCH  29  35
ENDBRANCH   1  25
TORSDOF 4
