
     RDKit          3D

 36 38  0  0  0  0  0  0  0  0999 V2000
   36.7616   31.2274   48.7295 C   0  0  0  0  0  0  0  0  0  0  0  0
   35.8669   30.4699   49.5079 C   0  0  0  0  0  0  0  0  0  0  0  0
   36.3287   30.0050   50.7246 C   0  0  0  0  0  0  0  0  0  0  0  0
   37.6071   30.2936   51.1132 N   0  0  0  0  0  0  0  0  0  0  0  0
   38.4309   31.0245   50.3331 C   0  0  0  0  0  0  0  0  0  0  0  0
   38.0016   31.4950   49.1297 N   0  0  0  0  0  0  0  0  0  0  0  0
   34.4901   30.1896   49.0384 C   0  0  1  0  0  0  0  0  0  0  0  0
   34.2350   30.3270   47.6081 C   0  0  0  0  0  0  0  0  0  0  0  0
   34.4341   29.1127   46.7440 C   0  0  0  0  0  0  0  0  0  0  0  0
   33.9990   27.8374   47.3844 C   0  0  2  0  0  0  0  0  0  0  0  0
   34.2596   27.6592   48.8236 C   0  0  0  0  0  0  0  0  0  0  0  0
   33.9312   28.9066   49.5956 C   0  0  0  0  0  0  0  0  0  0  0  0
   36.5138   31.6425   47.7645 H   0  0  0  0  0  0  0  0  0  0  0  0
   35.7275   29.4192   51.3944 H   0  0  0  0  0  0  0  0  0  0  0  0
   39.4140   31.1803   50.7570 H   0  0  0  0  0  0  0  0  0  0  0  0
   33.8812   30.9823   49.5809 H   0  0  0  0  0  0  0  0  0  0  0  0
   34.6939   31.1833   47.1079 H   0  0  0  0  0  0  0  0  0  0  0  0
   33.1201   30.5433   47.4995 H   0  0  0  0  0  0  0  0  0  0  0  0
   33.8528   29.2446   45.8056 H   0  0  0  0  0  0  0  0  0  0  0  0
   35.5016   29.1069   46.4331 H   0  0  0  0  0  0  0  0  0  0  0  0
   32.8595   27.8924   47.3138 H   0  0  0  0  0  0  0  0  0  0  0  0
   33.5277   26.8873   49.2092 H   0  0  0  0  0  0  0  0  0  0  0  0
   35.2245   27.3117   49.1590 H   0  0  0  0  0  0  0  0  0  0  0  0
   32.8177   29.0162   49.3869 H   0  0  0  0  0  0  0  0  0  0  0  0
   33.9515   28.7998   50.6709 H   0  0  0  0  0  0  0  0  0  0  0  0
   34.3896   24.9939   48.5669 Cl  0  0  0  0  0  0  0  0  0  0  0  0
   34.5603   25.4037   46.8973 C   0  0  0  0  0  0  0  0  0  0  0  0
   34.3689   26.7109   46.5026 C   0  0  0  0  0  0  0  0  0  0  0  0
   34.5572   26.8752   45.1220 C   0  0  0  0  0  0  0  0  0  0  0  0
   34.4210   27.8969   44.7318 H   0  0  0  0  0  0  0  0  0  0  0  0
   34.8922   25.8993   44.2096 C   0  0  0  0  0  0  0  0  0  0  0  0
   35.0049   26.1732   43.1702 H   0  0  0  0  0  0  0  0  0  0  0  0
   35.0610   24.6247   44.7031 C   0  0  0  0  0  0  0  0  0  0  0  0
   34.8959   24.3721   46.0482 C   0  0  0  0  0  0  0  0  0  0  0  0
   35.3228   23.8622   43.9894 H   0  0  0  0  0  0  0  0  0  0  0  0
   35.0367   23.3593   46.3978 H   0  0  0  0  0  0  0  0  0  0  0  0
  1  6  2  0
  1  2  1  0
  2  3  2  0
  3  4  1  0
  5  4  2  0
  6  5  1  0
  7  2  1  0
  7 12  1  0
  8  7  1  0
  9 10  1  0
  9  8  1  0
 10 11  1  0
 11 12  1  0
  1 13  1  0
  3 14  1  0
  5 15  1  0
  7 16  1  1
  8 17  1  0
  8 18  1  0
  9 19  1  0
  9 20  1  0
 10 21  1  1
 11 22  1  0
 11 23  1  0
 12 24  1  0
 12 25  1  0
 26 27  1  0
 27 28  2  0
 28 29  1  0
 29 30  1  0
 29 31  2  0
 31 32  1  0
 31 33  1  0
 33 34  2  0
 34 27  1  0
 33 35  1  0
 34 36  1  0
 10 28  1  0
M  ISO  8  13  14  14  14  15  14  16  13  17  13  18  13  19  13  20  13
M  ISO  7  21  13  22  13  23  13  24  13  25  13  30  15  32  16
M  END
>  <DihAtoms>  (1) 
8,9,27,26

>  <DihDeg>  (1) 
81.6138695707275

$$$$
