
 OpenBabel03272508393D

 32 34  0  0  1  0  0  0  0  0999 V2000
   36.2940   28.2510   32.4180 N   0  0  0  0  0  0  0  0  0  0  0  0
   35.8000   28.8400   33.6400 C   0  0  0  0  0  0  0  0  0  0  0  0
   34.8370   29.9670   33.4050 C   0  0  2  0  0  0  0  0  0  0  0  0
   35.1690   30.8350   32.3300 N   0  0  0  0  0  0  0  0  0  0  0  0
   35.4780   30.0510   31.1370 C   0  0  0  0  0  0  0  0  0  0  0  0
   36.7280   29.2610   31.5120 C   0  0  0  0  0  0  0  0  0  0  0  0
   36.7010   29.2850   34.1500 H   0  0  0  0  0  0  0  0  0  0  0  0
   35.3740   28.1390   34.3570 H   0  0  0  0  0  0  0  0  0  0  0  0
   33.8670   29.4850   33.1310 H   0  0  0  0  0  0  0  0  0  0  0  0
   34.3290   31.4320   32.1410 H   0  0  0  0  0  0  0  0  0  0  0  0
   34.6230   29.3560   30.9290 H   0  0  0  0  0  0  0  0  0  0  0  0
   35.6590   30.7090   30.2630 H   0  0  0  0  0  0  0  0  0  0  0  0
   37.4310   29.9990   31.9250 H   0  0  0  0  0  0  0  0  0  0  0  0
   37.1590   28.9010   30.5610 H   0  0  0  0  0  0  0  0  0  0  0  0
   36.3280   26.8410   32.1860 C   0  0  0  0  0  0  0  0  0  0  0  0
   37.1890   25.9750   32.8530 C   0  0  0  0  0  0  0  0  0  0  0  0
   37.1500   24.6190   32.5600 C   0  0  0  0  0  0  0  0  0  0  0  0
   36.2490   24.1850   31.6110 N   0  0  0  0  0  0  0  0  0  0  0  0
   35.4300   25.0590   30.9870 C   0  0  0  0  0  0  0  0  0  0  0  0
   35.4670   26.3610   31.2660 N   0  0  0  0  0  0  0  0  0  0  0  0
   37.8760   26.4010   33.5960 H   0  0  0  0  0  0  0  0  0  0  0  0
   37.8080   23.9420   33.0680 H   0  0  0  0  0  0  0  0  0  0  0  0
   34.7210   24.7000   30.2350 H   0  0  0  0  0  0  0  0  0  0  0  0
   32.1650   29.6260   34.6610 Cl  0  0  0  0  0  0  0  0  0  0  0  0
   33.4530   30.5940   35.3560 C   0  0  0  0  0  0  0  0  0  0  0  0
   34.6510   30.6730   34.6740 C   0  0  0  0  0  0  0  0  0  0  0  0
   35.7430   31.3990   35.1130 C   0  0  0  0  0  0  0  0  0  0  0  0
   36.6750   31.4520   34.5660 H   0  0  0  0  0  0  0  0  0  0  0  0
   35.6230   32.0930   36.3170 C   0  0  0  0  0  0  0  0  0  0  0  0
   36.4110   32.6870   36.7470 H   0  0  0  0  0  0  0  0  0  0  0  0
   34.4290   32.0310   37.0240 C   0  0  0  0  0  3  0  0  0  0  0  0
   33.3740   31.2930   36.5430 C   0  0  0  0  0  3  0  0  0  0  0  0
  1  2  1  0  0  0  0
  2  7  1  0  0  0  0
  2  8  1  0  0  0  0
  3  9  1  6  0  0  0
  3  2  1  0  0  0  0
  3 26  1  0  0  0  0
  4  3  1  0  0  0  0
  5  6  1  0  0  0  0
  5  4  1  0  0  0  0
  6 13  1  0  0  0  0
  6  1  1  0  0  0  0
 10  4  1  0  0  0  0
 11  5  1  0  0  0  0
 12  5  1  0  0  0  0
 14  6  1  0  0  0  0
 15  1  1  0  0  0  0
 15 16  1  0  0  0  0
 16 21  1  0  0  0  0
 17 16  2  0  0  0  0
 17 22  1  0  0  0  0
 18 17  1  0  0  0  0
 19 20  1  0  0  0  0
 19 18  2  0  0  0  0
 20 15  2  0  0  0  0
 23 19  1  0  0  0  0
 24 25  1  0  0  0  0
 25 32  1  0  0  0  0
 26 27  1  0  0  0  0
 26 25  2  0  0  0  0
 27 29  2  0  0  0  0
 28 27  1  0  0  0  0
 29 30  1  0  0  0  0
 29 31  1  0  0  0  0
 32 31  2  0  0  0  0
M  END
>  <minimizedAffinity>
-5.10767984

$$$$

 OpenBabel03272508393D

 32 34  0  0  1  0  0  0  0  0999 V2000
   38.4250   25.4460   33.0380 N   0  0  0  0  0  0  0  0  0  0  0  0
   38.9460   24.4100   33.8990 C   0  0  0  0  0  0  0  0  0  0  0  0
   39.3190   24.9090   35.2650 C   0  0  2  0  0  0  0  0  0  0  0  0
   39.9480   26.1830   35.2950 N   0  0  0  0  0  0  0  0  0  0  0  0
   39.1780   27.1340   34.4970 C   0  0  0  0  0  0  0  0  0  0  0  0
   39.2640   26.5960   33.0720 C   0  0  0  0  0  0  0  0  0  0  0  0
   39.8990   24.0590   33.4120 H   0  0  0  0  0  0  0  0  0  0  0  0
   38.3210   23.5230   33.9940 H   0  0  0  0  0  0  0  0  0  0  0  0
   38.3560   25.0210   35.8200 H   0  0  0  0  0  0  0  0  0  0  0  0
   39.9590   26.5010   36.2930 H   0  0  0  0  0  0  0  0  0  0  0  0
   38.1140   27.1300   34.8540 H   0  0  0  0  0  0  0  0  0  0  0  0
   39.6040   28.1550   34.5730 H   0  0  0  0  0  0  0  0  0  0  0  0
   40.3330   26.4110   32.8910 H   0  0  0  0  0  0  0  0  0  0  0  0
   38.9640   27.4300   32.4120 H   0  0  0  0  0  0  0  0  0  0  0  0
   37.2290   25.2980   32.2710 C   0  0  0  0  0  0  0  0  0  0  0  0
   36.6910   24.0640   31.9190 C   0  0  0  0  0  0  0  0  0  0  0  0
   35.5240   24.0210   31.1700 C   0  0  0  0  0  0  0  0  0  0  0  0
   34.9400   25.2160   30.8060 N   0  0  0  0  0  0  0  0  0  0  0  0
   35.4940   26.3920   31.1700 C   0  0  0  0  0  0  0  0  0  0  0  0
   36.6150   26.4370   31.8870 N   0  0  0  0  0  0  0  0  0  0  0  0
   37.2180   23.1590   32.2490 H   0  0  0  0  0  0  0  0  0  0  0  0
   35.1000   23.0750   30.8930 H   0  0  0  0  0  0  0  0  0  0  0  0
   35.0200   27.3330   30.8730 H   0  0  0  0  0  0  0  0  0  0  0  0
   37.9520   23.5320   37.5160 Cl  0  0  0  0  0  0  0  0  0  0  0  0
   39.5820   23.1540   36.9870 C   0  0  0  0  0  0  0  0  0  0  0  0
   40.1050   23.8670   35.9270 C   0  0  0  0  0  0  0  0  0  0  0  0
   41.3740   23.6670   35.4130 C   0  0  0  0  0  0  0  0  0  0  0  0
   41.7700   24.2350   34.5820 H   0  0  0  0  0  0  0  0  0  0  0  0
   42.1700   22.6860   36.0050 C   0  0  0  0  0  0  0  0  0  0  0  0
   43.1690   22.4520   35.6830 H   0  0  0  0  0  0  0  0  0  0  0  0
   41.6680   21.9540   37.0740 C   0  0  0  0  0  3  0  0  0  0  0  0
   40.3990   22.1930   37.5450 C   0  0  0  0  0  3  0  0  0  0  0  0
  1  6  1  0  0  0  0
  1  2  1  0  0  0  0
  2  8  1  0  0  0  0
  2  3  1  0  0  0  0
  3  4  1  0  0  0  0
  3  9  1  1  0  0  0
  3 26  1  0  0  0  0
  4 10  1  0  0  0  0
  5 12  1  0  0  0  0
  5 11  1  0  0  0  0
  5  4  1  0  0  0  0
  6  5  1  0  0  0  0
  7  2  1  0  0  0  0
 13  6  1  0  0  0  0
 14  6  1  0  0  0  0
 15  1  1  0  0  0  0
 16 21  1  0  0  0  0
 16 15  1  0  0  0  0
 17 16  2  0  0  0  0
 18 19  2  0  0  0  0
 18 17  1  0  0  0  0
 19 20  1  0  0  0  0
 20 15  2  0  0  0  0
 22 17  1  0  0  0  0
 23 19  1  0  0  0  0
 25 24  1  0  0  0  0
 25 32  1  0  0  0  0
 26 25  2  0  0  0  0
 27 26  1  0  0  0  0
 27 29  2  0  0  0  0
 28 27  1  0  0  0  0
 29 31  1  0  0  0  0
 30 29  1  0  0  0  0
 31 32  2  0  0  0  0
M  END
>  <minimizedAffinity>
-4.99457836

$$$$

 OpenBabel03272508393D

 32 34  0  0  1  0  0  0  0  0999 V2000
   37.2910   25.4080   32.8660 N   0  0  0  0  0  0  0  0  0  0  0  0
   37.7390   25.2370   34.2290 C   0  0  0  0  0  0  0  0  0  0  0  0
   38.6240   24.0390   34.4130 C   0  0  2  0  0  0  0  0  0  0  0  0
   38.2390   22.8810   33.6850 N   0  0  0  0  0  0  0  0  0  0  0  0
   37.9900   23.2330   32.2900 C   0  0  0  0  0  0  0  0  0  0  0  0
   36.7940   24.1800   32.3420 C   0  0  0  0  0  0  0  0  0  0  0  0
   36.8080   25.0470   34.8340 H   0  0  0  0  0  0  0  0  0  0  0  0
   38.2080   26.1100   34.6790 H   0  0  0  0  0  0  0  0  0  0  0  0
   39.6260   24.3390   34.0190 H   0  0  0  0  0  0  0  0  0  0  0  0
   39.0380   22.2050   33.7310 H   0  0  0  0  0  0  0  0  0  0  0  0
   38.8910   23.7630   31.8820 H   0  0  0  0  0  0  0  0  0  0  0  0
   37.7690   22.3320   31.6840 H   0  0  0  0  0  0  0  0  0  0  0  0
   36.0410   23.6700   32.9610 H   0  0  0  0  0  0  0  0  0  0  0  0
   36.3930   24.2230   31.3140 H   0  0  0  0  0  0  0  0  0  0  0  0
   37.3540   26.6550   32.1720 C   0  0  0  0  0  0  0  0  0  0  0  0
   36.6550   27.7900   32.5710 C   0  0  0  0  0  0  0  0  0  0  0  0
   36.7780   28.9580   31.8320 C   0  0  0  0  0  0  0  0  0  0  0  0
   37.5980   28.9430   30.7240 N   0  0  0  0  0  0  0  0  0  0  0  0
   38.2600   27.8200   30.3720 C   0  0  0  0  0  0  0  0  0  0  0  0
   38.1430   26.6970   31.0790 N   0  0  0  0  0  0  0  0  0  0  0  0
   36.0220   27.7190   33.4660 H   0  0  0  0  0  0  0  0  0  0  0  0
   36.2430   29.8390   32.1300 H   0  0  0  0  0  0  0  0  0  0  0  0
   38.9070   27.8230   29.4890 H   0  0  0  0  0  0  0  0  0  0  0  0
   41.0100   22.4550   35.2110 Cl  0  0  0  0  0  0  0  0  0  0  0  0
   39.8220   23.0700   36.3470 C   0  0  0  0  0  0  0  0  0  0  0  0
   38.7570   23.7940   35.8500 C   0  0  0  0  0  0  0  0  0  0  0  0
   37.7540   24.3320   36.6370 C   0  0  0  0  0  0  0  0  0  0  0  0
   36.9250   24.8960   36.2320 H   0  0  0  0  0  0  0  0  0  0  0  0
   37.8290   24.1300   38.0150 C   0  0  0  0  0  0  0  0  0  0  0  0
   37.1020   24.5060   38.7150 H   0  0  0  0  0  0  0  0  0  0  0  0
   38.8910   23.4060   38.5430 C   0  0  0  0  0  3  0  0  0  0  0  0
   39.8610   22.8920   37.7150 C   0  0  0  0  0  3  0  0  0  0  0  0
  1  2  1  0  0  0  0
  2  3  1  0  0  0  0
  2  8  1  0  0  0  0
  2  7  1  0  0  0  0
  3  9  1  6  0  0  0
  3 26  1  0  0  0  0
  4 10  1  0  0  0  0
  4  3  1  0  0  0  0
  5  6  1  0  0  0  0
  5  4  1  0  0  0  0
  6  1  1  0  0  0  0
  6 13  1  0  0  0  0
 11  5  1  0  0  0  0
 12  5  1  0  0  0  0
 14  6  1  0  0  0  0
 15 16  1  0  0  0  0
 15  1  1  0  0  0  0
 16 21  1  0  0  0  0
 17 22  1  0  0  0  0
 17 16  2  0  0  0  0
 18 17  1  0  0  0  0
 19 18  2  0  0  0  0
 19 20  1  0  0  0  0
 20 15  2  0  0  0  0
 23 19  1  0  0  0  0
 24 25  1  0  0  0  0
 25 32  1  0  0  0  0
 26 25  2  0  0  0  0
 26 27  1  0  0  0  0
 27 29  2  0  0  0  0
 28 27  1  0  0  0  0
 29 31  1  0  0  0  0
 29 30  1  0  0  0  0
 32 31  2  0  0  0  0
M  END
>  <minimizedAffinity>
-4.91075611

$$$$

 OpenBabel03272508393D

 32 34  0  0  1  0  0  0  0  0999 V2000
   37.5230   26.0530   32.4580 N   0  0  0  0  0  0  0  0  0  0  0  0
   37.6270   27.3630   31.8590 C   0  0  0  0  0  0  0  0  0  0  0  0
   36.4240   27.7370   31.0440 C   0  0  2  0  0  0  0  0  0  0  0  0
   35.8670   26.6870   30.2650 N   0  0  0  0  0  0  0  0  0  0  0  0
   35.6850   25.4980   31.0940 C   0  0  0  0  0  0  0  0  0  0  0  0
   37.0990   25.0920   31.4960 C   0  0  0  0  0  0  0  0  0  0  0  0
   38.4960   27.3020   31.1440 H   0  0  0  0  0  0  0  0  0  0  0  0
   37.8690   28.1720   32.5450 H   0  0  0  0  0  0  0  0  0  0  0  0
   35.6370   28.0310   31.7820 H   0  0  0  0  0  0  0  0  0  0  0  0
   34.9320   27.0140   29.9230 H   0  0  0  0  0  0  0  0  0  0  0  0
   35.0840   25.7760   31.9990 H   0  0  0  0  0  0  0  0  0  0  0  0
   35.1750   24.6920   30.5290 H   0  0  0  0  0  0  0  0  0  0  0  0
   37.6770   25.0700   30.5600 H   0  0  0  0  0  0  0  0  0  0  0  0
   37.0270   24.0500   31.8570 H   0  0  0  0  0  0  0  0  0  0  0  0
   37.8140   25.7950   33.8330 C   0  0  0  0  0  0  0  0  0  0  0  0
   37.9280   26.7960   34.7920 C   0  0  0  0  0  0  0  0  0  0  0  0
   38.2140   26.4490   36.1050 C   0  0  0  0  0  0  0  0  0  0  0  0
   38.3720   25.1130   36.4040 N   0  0  0  0  0  0  0  0  0  0  0  0
   38.2510   24.1720   35.4430 C   0  0  0  0  0  0  0  0  0  0  0  0
   37.9780   24.5030   34.1830 N   0  0  0  0  0  0  0  0  0  0  0  0
   37.7880   27.8370   34.4720 H   0  0  0  0  0  0  0  0  0  0  0  0
   38.3060   27.2120   36.8540 H   0  0  0  0  0  0  0  0  0  0  0  0
   38.3800   23.1150   35.6960 H   0  0  0  0  0  0  0  0  0  0  0  0
   35.4500   30.3220   32.1410 Cl  0  0  0  0  0  0  0  0  0  0  0  0
   36.3710   30.1780   30.6540 C   0  0  0  0  0  0  0  0  0  0  0  0
   36.7660   28.9190   30.2510 C   0  0  0  0  0  0  0  0  0  0  0  0
   37.4950   28.6690   29.1010 C   0  0  0  0  0  0  0  0  0  0  0  0
   37.7960   27.6750   28.7980 H   0  0  0  0  0  0  0  0  0  0  0  0
   37.8490   29.7580   28.3050 C   0  0  0  0  0  0  0  0  0  0  0  0
   38.4150   29.6740   27.3940 H   0  0  0  0  0  0  0  0  0  0  0  0
   37.4650   31.0370   28.6890 C   0  0  0  0  0  3  0  0  0  0  0  0
   36.7410   31.2300   29.8410 C   0  0  0  0  0  3  0  0  0  0  0  0
  1 15  1  0  0  0  0
  2  1  1  0  0  0  0
  2  8  1  0  0  0  0
  3  9  1  1  0  0  0
  3  2  1  0  0  0  0
  4  3  1  0  0  0  0
  4  5  1  0  0  0  0
  5  6  1  0  0  0  0
  5 11  1  0  0  0  0
  6 14  1  0  0  0  0
  6  1  1  0  0  0  0
  7  2  1  0  0  0  0
 10  4  1  0  0  0  0
 12  5  1  0  0  0  0
 13  6  1  0  0  0  0
 15 20  2  0  0  0  0
 15 16  1  0  0  0  0
 16 17  2  0  0  0  0
 17 18  1  0  0  0  0
 17 22  1  0  0  0  0
 19 23  1  0  0  0  0
 19 18  2  0  0  0  0
 20 19  1  0  0  0  0
 21 16  1  0  0  0  0
 25 24  1  0  0  0  0
 26 25  1  0  0  0  0
 26  3  1  0  0  0  0
 27 26  2  0  0  0  0
 28 27  1  0  0  0  0
 29 31  2  0  0  0  0
 29 27  1  0  0  0  0
 30 29  1  0  0  0  0
 31 32  1  0  0  0  0
 32 25  2  0  0  0  0
M  END
>  <minimizedAffinity>
-4.89496899

$$$$

 OpenBabel03272508393D

 32 34  0  0  1  0  0  0  0  0999 V2000
   37.1180   26.6650   31.9810 N   0  0  0  0  0  0  0  0  0  0  0  0
   37.1110   26.0970   33.3090 C   0  0  0  0  0  0  0  0  0  0  0  0
   38.4580   25.5970   33.7440 C   0  0  2  0  0  0  0  0  0  0  0  0
   39.2160   24.9390   32.7390 N   0  0  0  0  0  0  0  0  0  0  0  0
   39.2410   25.7520   31.5260 C   0  0  0  0  0  0  0  0  0  0  0  0
   37.7860   25.8000   31.0670 C   0  0  0  0  0  0  0  0  0  0  0  0
   36.4350   25.1970   33.2510 H   0  0  0  0  0  0  0  0  0  0  0  0
   36.6880   26.7320   34.0860 H   0  0  0  0  0  0  0  0  0  0  0  0
   39.0400   26.5070   34.0320 H   0  0  0  0  0  0  0  0  0  0  0  0
   40.1920   24.8350   33.1030 H   0  0  0  0  0  0  0  0  0  0  0  0
   39.6040   26.7810   31.7860 H   0  0  0  0  0  0  0  0  0  0  0  0
   39.8960   25.2980   30.7550 H   0  0  0  0  0  0  0  0  0  0  0  0
   37.4430   24.7550   31.0650 H   0  0  0  0  0  0  0  0  0  0  0  0
   37.8080   26.1360   30.0160 H   0  0  0  0  0  0  0  0  0  0  0  0
   36.5240   27.9250   31.6650 C   0  0  0  0  0  0  0  0  0  0  0  0
   36.9670   28.7440   30.6310 C   0  0  0  0  0  0  0  0  0  0  0  0
   36.3260   29.9530   30.4000 C   0  0  0  0  0  0  0  0  0  0  0  0
   35.2670   30.2930   31.2140 N   0  0  0  0  0  0  0  0  0  0  0  0
   34.8670   29.4690   32.2060 C   0  0  0  0  0  0  0  0  0  0  0  0
   35.4810   28.3090   32.4300 N   0  0  0  0  0  0  0  0  0  0  0  0
   37.8180   28.4000   30.0290 H   0  0  0  0  0  0  0  0  0  0  0  0
   36.6590   30.5930   29.6060 H   0  0  0  0  0  0  0  0  0  0  0  0
   34.0240   29.7520   32.8440 H   0  0  0  0  0  0  0  0  0  0  0  0
   38.4240   27.1060   36.3050 Cl  0  0  0  0  0  0  0  0  0  0  0  0
   38.2350   25.3650   36.1960 C   0  0  0  0  0  0  0  0  0  0  0  0
   38.2690   24.7820   34.9450 C   0  0  0  0  0  0  0  0  0  0  0  0
   38.1320   23.4230   34.7220 C   0  0  0  0  0  0  0  0  0  0  0  0
   38.1620   22.9810   33.7350 H   0  0  0  0  0  0  0  0  0  0  0  0
   37.9500   22.5960   35.8300 C   0  0  0  0  0  0  0  0  0  0  0  0
   37.8330   21.5280   35.7670 H   0  0  0  0  0  0  0  0  0  0  0  0
   37.9120   23.1570   37.1010 C   0  0  0  0  0  3  0  0  0  0  0  0
   38.0520   24.5140   37.2670 C   0  0  0  0  0  3  0  0  0  0  0  0
  1  2  1  0  0  0  0
  2  3  1  0  0  0  0
  2  8  1  0  0  0  0
  3  9  1  1  0  0  0
  3 26  1  0  0  0  0
  4 10  1  0  0  0  0
  4  3  1  0  0  0  0
  5 11  1  0  0  0  0
  5  4  1  0  0  0  0
  6  5  1  0  0  0  0
  6  1  1  0  0  0  0
  7  2  1  0  0  0  0
 12  5  1  0  0  0  0
 13  6  1  0  0  0  0
 14  6  1  0  0  0  0
 15  1  1  0  0  0  0
 15 20  1  0  0  0  0
 16 15  2  0  0  0  0
 17 16  1  0  0  0  0
 17 18  2  0  0  0  0
 18 19  1  0  0  0  0
 19 20  2  0  0  0  0
 19 23  1  0  0  0  0
 21 16  1  0  0  0  0
 22 17  1  0  0  0  0
 25 24  1  0  0  0  0
 25 32  1  0  0  0  0
 26 25  2  0  0  0  0
 27 26  1  0  0  0  0
 27 29  2  0  0  0  0
 28 27  1  0  0  0  0
 29 31  1  0  0  0  0
 30 29  1  0  0  0  0
 31 32  2  0  0  0  0
M  END
>  <minimizedAffinity>
-4.82142353

$$$$

 OpenBabel03272508393D

 32 34  0  0  1  0  0  0  0  0999 V2000
   38.7310   23.7940   34.5470 N   0  0  0  0  0  0  0  0  0  0  0  0
   38.4370   25.0180   33.8390 C   0  0  0  0  0  0  0  0  0  0  0  0
   37.4470   24.8330   32.7250 C   0  0  2  0  0  0  0  0  0  0  0  0
   37.6030   23.6420   31.9660 N   0  0  0  0  0  0  0  0  0  0  0  0
   37.7190   22.4950   32.8630 C   0  0  0  0  0  0  0  0  0  0  0  0
   39.0140   22.7400   33.6320 C   0  0  0  0  0  0  0  0  0  0  0  0
   39.4060   25.3340   33.3610 H   0  0  0  0  0  0  0  0  0  0  0  0
   38.1300   25.8560   34.4630 H   0  0  0  0  0  0  0  0  0  0  0  0
   36.4460   24.7630   33.2170 H   0  0  0  0  0  0  0  0  0  0  0  0
   36.7430   23.5320   31.3790 H   0  0  0  0  0  0  0  0  0  0  0  0
   36.8420   22.4910   33.5630 H   0  0  0  0  0  0  0  0  0  0  0  0
   37.7580   21.5450   32.2930 H   0  0  0  0  0  0  0  0  0  0  0  0
   39.7730   22.9640   32.8680 H   0  0  0  0  0  0  0  0  0  0  0  0
   39.2880   21.7710   34.0860 H   0  0  0  0  0  0  0  0  0  0  0  0
   38.7290   23.6940   35.9720 C   0  0  0  0  0  0  0  0  0  0  0  0
   37.7840   24.3150   36.7830 C   0  0  0  0  0  0  0  0  0  0  0  0
   37.8640   24.1610   38.1600 C   0  0  0  0  0  0  0  0  0  0  0  0
   38.8870   23.3890   38.6690 N   0  0  0  0  0  0  0  0  0  0  0  0
   39.7830   22.8020   37.8470 C   0  0  0  0  0  0  0  0  0  0  0  0
   39.7090   22.9500   36.5250 N   0  0  0  0  0  0  0  0  0  0  0  0
   37.0020   24.9130   36.2980 H   0  0  0  0  0  0  0  0  0  0  0  0
   37.1420   24.6350   38.7950 H   0  0  0  0  0  0  0  0  0  0  0  0
   40.5900   22.1930   38.2650 H   0  0  0  0  0  0  0  0  0  0  0  0
   34.9290   25.3930   31.2490 Cl  0  0  0  0  0  0  0  0  0  0  0  0
   36.3550   26.4120   31.1670 C   0  0  0  0  0  0  0  0  0  0  0  0
   37.4640   26.0430   31.9020 C   0  0  0  0  0  0  0  0  0  0  0  0
   38.6490   26.7570   31.9240 C   0  0  0  0  0  0  0  0  0  0  0  0
   39.5090   26.4540   32.5040 H   0  0  0  0  0  0  0  0  0  0  0  0
   38.7230   27.9200   31.1570 C   0  0  0  0  0  0  0  0  0  0  0  0
   39.5960   28.5470   31.1050 H   0  0  0  0  0  0  0  0  0  0  0  0
   37.6210   28.3150   30.4090 C   0  0  0  0  0  3  0  0  0  0  0  0
   36.4670   27.5680   30.4220 C   0  0  0  0  0  3  0  0  0  0  0  0
  1 15  1  0  0  0  0
  2  8  1  0  0  0  0
  2  1  1  0  0  0  0
  3  9  1  1  0  0  0
  3  2  1  0  0  0  0
  4  3  1  0  0  0  0
  4  5  1  0  0  0  0
  5 11  1  0  0  0  0
  5  6  1  0  0  0  0
  6 14  1  0  0  0  0
  6  1  1  0  0  0  0
  7  2  1  0  0  0  0
 10  4  1  0  0  0  0
 12  5  1  0  0  0  0
 13  6  1  0  0  0  0
 15 20  2  0  0  0  0
 15 16  1  0  0  0  0
 16 17  2  0  0  0  0
 17 18  1  0  0  0  0
 17 22  1  0  0  0  0
 19 23  1  0  0  0  0
 19 18  2  0  0  0  0
 20 19  1  0  0  0  0
 21 16  1  0  0  0  0
 25 24  1  0  0  0  0
 25 26  1  0  0  0  0
 26 27  2  0  0  0  0
 26  3  1  0  0  0  0
 27 28  1  0  0  0  0
 29 27  1  0  0  0  0
 30 29  1  0  0  0  0
 31 32  1  0  0  0  0
 31 29  2  0  0  0  0
 32 25  2  0  0  0  0
M  END
>  <minimizedAffinity>
-4.80815506

$$$$

 OpenBabel03272508393D

 32 34  0  0  1  0  0  0  0  0999 V2000
   38.8390   26.0800   35.3030 N   0  0  0  0  0  0  0  0  0  0  0  0
   37.6430   26.8400   35.0250 C   0  0  0  0  0  0  0  0  0  0  0  0
   37.4350   27.0980   33.5610 C   0  0  2  0  0  0  0  0  0  0  0  0
   38.6100   27.4080   32.8250 N   0  0  0  0  0  0  0  0  0  0  0  0
   39.6510   26.4270   33.1200 C   0  0  0  0  0  0  0  0  0  0  0  0
   39.9540   26.6230   34.6020 C   0  0  0  0  0  0  0  0  0  0  0  0
   37.8000   27.8440   35.5120 H   0  0  0  0  0  0  0  0  0  0  0  0
   36.7260   26.4440   35.4600 H   0  0  0  0  0  0  0  0  0  0  0  0
   37.0420   26.1420   33.1370 H   0  0  0  0  0  0  0  0  0  0  0  0
   38.3640   27.3540   31.8090 H   0  0  0  0  0  0  0  0  0  0  0  0
   39.2430   25.3980   32.9360 H   0  0  0  0  0  0  0  0  0  0  0  0
   40.5500   26.5990   32.4940 H   0  0  0  0  0  0  0  0  0  0  0  0
   40.1160   27.7040   34.7300 H   0  0  0  0  0  0  0  0  0  0  0  0
   40.9240   26.1270   34.7840 H   0  0  0  0  0  0  0  0  0  0  0  0
   38.8620   24.9450   36.1700 C   0  0  0  0  0  0  0  0  0  0  0  0
   39.6770   23.8370   35.9610 C   0  0  0  0  0  0  0  0  0  0  0  0
   39.6290   22.7800   36.8590 C   0  0  0  0  0  0  0  0  0  0  0  0
   38.7680   22.8760   37.9310 N   0  0  0  0  0  0  0  0  0  0  0  0
   37.9940   23.9700   38.0980 C   0  0  0  0  0  0  0  0  0  0  0  0
   38.0380   24.9850   37.2380 N   0  0  0  0  0  0  0  0  0  0  0  0
   40.3350   23.8390   35.0820 H   0  0  0  0  0  0  0  0  0  0  0  0
   40.2530   21.9200   36.7080 H   0  0  0  0  0  0  0  0  0  0  0  0
   37.3150   24.0320   38.9540 H   0  0  0  0  0  0  0  0  0  0  0  0
   35.9420   27.0490   30.9910 Cl  0  0  0  0  0  0  0  0  0  0  0  0
   35.6270   28.1970   32.2800 C   0  0  0  0  0  0  0  0  0  0  0  0
   36.3910   28.1160   33.4270 C   0  0  0  0  0  0  0  0  0  0  0  0
   36.2430   28.9590   34.5150 C   0  0  0  0  0  0  0  0  0  0  0  0
   36.8510   28.8830   35.4060 H   0  0  0  0  0  0  0  0  0  0  0  0
   35.2630   29.9490   34.4430 C   0  0  0  0  0  0  0  0  0  0  0  0
   35.0670   30.6550   35.2320 H   0  0  0  0  0  0  0  0  0  0  0  0
   34.4800   30.0530   33.3000 C   0  0  0  0  0  3  0  0  0  0  0  0
   34.6680   29.1890   32.2480 C   0  0  0  0  0  3  0  0  0  0  0  0
  1 15  1  0  0  0  0
  2  1  1  0  0  0  0
  2  8  1  0  0  0  0
  2  7  1  0  0  0  0
  3  9  1  6  0  0  0
  3  2  1  0  0  0  0
  4  5  1  0  0  0  0
  4  3  1  0  0  0  0
  5  6  1  0  0  0  0
  6 13  1  0  0  0  0
  6 14  1  0  0  0  0
  6  1  1  0  0  0  0
 10  4  1  0  0  0  0
 11  5  1  0  0  0  0
 12  5  1  0  0  0  0
 15 20  1  0  0  0  0
 16 15  2  0  0  0  0
 16 17  1  0  0  0  0
 17 18  2  0  0  0  0
 18 19  1  0  0  0  0
 19 23  1  0  0  0  0
 20 19  2  0  0  0  0
 21 16  1  0  0  0  0
 22 17  1  0  0  0  0
 24 25  1  0  0  0  0
 25 26  1  0  0  0  0
 26  3  1  0  0  0  0
 26 27  2  0  0  0  0
 27 28  1  0  0  0  0
 29 27  1  0  0  0  0
 29 30  1  0  0  0  0
 31 29  2  0  0  0  0
 32 25  2  0  0  0  0
 32 31  1  0  0  0  0
M  END
>  <minimizedAffinity>
-4.806952

$$$$

 OpenBabel03272508393D

 32 34  0  0  1  0  0  0  0  0999 V2000
   35.9770   28.7280   32.7640 N   0  0  0  0  0  0  0  0  0  0  0  0
   35.3420   29.1320   33.9960 C   0  0  0  0  0  0  0  0  0  0  0  0
   34.1750   30.0520   33.7850 C   0  0  2  0  0  0  0  0  0  0  0  0
   34.3480   31.0310   32.7700 N   0  0  0  0  0  0  0  0  0  0  0  0
   34.8420   30.3970   31.5500 C   0  0  0  0  0  0  0  0  0  0  0  0
   36.2170   29.8570   31.9290 C   0  0  0  0  0  0  0  0  0  0  0  0
   36.1190   29.7210   34.5610 H   0  0  0  0  0  0  0  0  0  0  0  0
   35.0500   28.3190   34.6600 H   0  0  0  0  0  0  0  0  0  0  0  0
   33.3310   29.3990   33.4510 H   0  0  0  0  0  0  0  0  0  0  0  0
   33.4090   31.4540   32.5810 H   0  0  0  0  0  0  0  0  0  0  0  0
   34.1530   29.5550   31.2740 H   0  0  0  0  0  0  0  0  0  0  0  0
   34.9060   31.1270   30.7180 H   0  0  0  0  0  0  0  0  0  0  0  0
   36.7430   30.6970   32.4050 H   0  0  0  0  0  0  0  0  0  0  0  0
   36.7360   29.6480   30.9760 H   0  0  0  0  0  0  0  0  0  0  0  0
   36.3060   27.3720   32.4600 C   0  0  0  0  0  0  0  0  0  0  0  0
   35.8820   26.7200   31.3060 C   0  0  0  0  0  0  0  0  0  0  0  0
   36.2520   25.3990   31.0970 C   0  0  0  0  0  0  0  0  0  0  0  0
   37.0320   24.7840   32.0530 N   0  0  0  0  0  0  0  0  0  0  0  0
   37.4230   25.4520   33.1590 C   0  0  0  0  0  0  0  0  0  0  0  0
   37.0690   26.7200   33.3620 N   0  0  0  0  0  0  0  0  0  0  0  0
   35.2630   27.2810   30.5950 H   0  0  0  0  0  0  0  0  0  0  0  0
   35.9310   24.8860   30.2110 H   0  0  0  0  0  0  0  0  0  0  0  0
   38.0420   24.9500   33.9090 H   0  0  0  0  0  0  0  0  0  0  0  0
   36.0910   32.0590   34.8500 Cl  0  0  0  0  0  0  0  0  0  0  0  0
   34.6250   31.5720   35.6820 C   0  0  0  0  0  0  0  0  0  0  0  0
   33.8150   30.6290   35.0810 C   0  0  0  0  0  0  0  0  0  0  0  0
   32.6350   30.1610   35.6310 C   0  0  0  0  0  0  0  0  0  0  0  0
   32.0130   29.4200   35.1480 H   0  0  0  0  0  0  0  0  0  0  0  0
   32.2420   30.6760   36.8660 C   0  0  0  0  0  0  0  0  0  0  0  0
   31.3440   30.3800   37.3790 H   0  0  0  0  0  0  0  0  0  0  0  0
   33.0380   31.6270   37.4930 C   0  0  0  0  0  3  0  0  0  0  0  0
   34.2020   32.0580   36.9030 C   0  0  0  0  0  3  0  0  0  0  0  0
  1  2  1  0  0  0  0
  2  7  1  0  0  0  0
  2  8  1  0  0  0  0
  3  9  1  6  0  0  0
  3  2  1  0  0  0  0
  3 26  1  0  0  0  0
  4  3  1  0  0  0  0
  5  6  1  0  0  0  0
  5  4  1  0  0  0  0
  6 13  1  0  0  0  0
  6  1  1  0  0  0  0
 10  4  1  0  0  0  0
 11  5  1  0  0  0  0
 12  5  1  0  0  0  0
 14  6  1  0  0  0  0
 15  1  1  0  0  0  0
 15 20  1  0  0  0  0
 16 15  2  0  0  0  0
 17 16  1  0  0  0  0
 17 18  2  0  0  0  0
 18 19  1  0  0  0  0
 19 20  2  0  0  0  0
 19 23  1  0  0  0  0
 21 16  1  0  0  0  0
 22 17  1  0  0  0  0
 24 25  1  0  0  0  0
 25 32  1  0  0  0  0
 26 27  1  0  0  0  0
 26 25  2  0  0  0  0
 27 29  2  0  0  0  0
 28 27  1  0  0  0  0
 29 30  1  0  0  0  0
 29 31  1  0  0  0  0
 32 31  2  0  0  0  0
M  END
>  <minimizedAffinity>
-4.79393816

$$$$

 OpenBabel03272508393D

 32 34  0  0  1  0  0  0  0  0999 V2000
   39.0590   23.9800   35.8170 N   0  0  0  0  0  0  0  0  0  0  0  0
   38.4400   23.9980   34.5120 C   0  0  0  0  0  0  0  0  0  0  0  0
   37.9750   25.3640   34.0990 C   0  0  2  0  0  0  0  0  0  0  0  0
   37.3850   26.1430   35.1300 N   0  0  0  0  0  0  0  0  0  0  0  0
   38.2440   26.1340   36.3110 C   0  0  0  0  0  0  0  0  0  0  0  0
   38.2560   24.6770   36.7640 C   0  0  0  0  0  0  0  0  0  0  0  0
   37.5190   23.3560   34.6030 H   0  0  0  0  0  0  0  0  0  0  0  0
   39.0290   23.5550   33.7100 H   0  0  0  0  0  0  0  0  0  0  0  0
   38.8940   25.9130   33.7770 H   0  0  0  0  0  0  0  0  0  0  0  0
   37.3040   27.1240   34.7720 H   0  0  0  0  0  0  0  0  0  0  0  0
   39.2750   26.4590   36.0120 H   0  0  0  0  0  0  0  0  0  0  0  0
   37.8450   26.8020   37.1000 H   0  0  0  0  0  0  0  0  0  0  0  0
   37.2000   24.3730   36.8070 H   0  0  0  0  0  0  0  0  0  0  0  0
   38.6330   24.6830   37.8020 H   0  0  0  0  0  0  0  0  0  0  0  0
   40.3080   23.3390   36.0820 C   0  0  0  0  0  0  0  0  0  0  0  0
   41.5160   23.7570   35.5340 C   0  0  0  0  0  0  0  0  0  0  0  0
   42.6800   23.0700   35.8500 C   0  0  0  0  0  0  0  0  0  0  0  0
   42.5860   21.9920   36.7040 N   0  0  0  0  0  0  0  0  0  0  0  0
   41.3930   21.6190   37.2160 C   0  0  0  0  0  0  0  0  0  0  0  0
   40.2760   22.2760   36.9140 N   0  0  0  0  0  0  0  0  0  0  0  0
   41.5050   24.6250   34.8620 H   0  0  0  0  0  0  0  0  0  0  0  0
   43.6170   23.3830   35.4330 H   0  0  0  0  0  0  0  0  0  0  0  0
   41.3340   20.7610   37.8930 H   0  0  0  0  0  0  0  0  0  0  0  0
   37.2400   27.8950   32.7250 Cl  0  0  0  0  0  0  0  0  0  0  0  0
   36.6950   26.3100   32.2060 C   0  0  0  0  0  0  0  0  0  0  0  0
   37.1070   25.2090   32.9300 C   0  0  0  0  0  0  0  0  0  0  0  0
   36.7490   23.9070   32.6270 C   0  0  0  0  0  0  0  0  0  0  0  0
   37.0790   23.0550   33.2050 H   0  0  0  0  0  0  0  0  0  0  0  0
   35.9220   23.7000   31.5230 C   0  0  0  0  0  0  0  0  0  0  0  0
   35.5860   22.7290   31.2020 H   0  0  0  0  0  0  0  0  0  0  0  0
   35.4930   24.7900   30.7770 C   0  0  0  0  0  3  0  0  0  0  0  0
   35.8790   26.0630   31.1220 C   0  0  0  0  0  3  0  0  0  0  0  0
  1 15  1  0  0  0  0
  1  6  1  0  0  0  0
  2  7  1  0  0  0  0
  2  1  1  0  0  0  0
  3  9  1  6  0  0  0
  3  2  1  0  0  0  0
  3  4  1  0  0  0  0
  4  5  1  0  0  0  0
  5  6  1  0  0  0  0
  5 12  1  0  0  0  0
  6 13  1  0  0  0  0
  6 14  1  0  0  0  0
  8  2  1  0  0  0  0
 10  4  1  0  0  0  0
 11  5  1  0  0  0  0
 15 20  1  0  0  0  0
 16 17  1  0  0  0  0
 16 15  2  0  0  0  0
 17 18  2  0  0  0  0
 18 19  1  0  0  0  0
 19 23  1  0  0  0  0
 20 19  2  0  0  0  0
 21 16  1  0  0  0  0
 22 17  1  0  0  0  0
 25 24  1  0  0  0  0
 25 26  1  0  0  0  0
 26  3  1  0  0  0  0
 27 26  2  0  0  0  0
 27 28  1  0  0  0  0
 29 27  1  0  0  0  0
 30 29  1  0  0  0  0
 31 32  1  0  0  0  0
 31 29  2  0  0  0  0
 32 25  2  0  0  0  0
M  END
>  <minimizedAffinity>
-4.77728605

$$$$
