
 OpenBabel03272509023D

 41 44  0  0  0  0  0  0  0  0999 V2000
   34.5040   30.3510   48.7590 C   0  0  0  0  0  0  0  0  0  0  0  0
   34.0730   31.3610   48.5610 H   0  0  0  0  0  0  0  0  0  0  0  0
   33.8280   29.9020   49.5240 H   0  0  0  0  0  0  0  0  0  0  0  0
   36.1490   31.4450   46.4790 Cl  0  0  0  0  0  0  0  0  0  0  0  0
   35.2280   29.9870   46.4550 C   0  0  0  0  0  0  0  0  0  0  0  0
   35.2150   29.2130   45.2970 C   0  0  0  0  0  0  0  0  0  0  0  0
   34.4940   28.0500   45.2240 C   0  0  0  0  0  0  0  0  0  0  0  0
   33.7590   27.6150   46.3010 C   0  0  0  0  0  0  0  0  0  0  0  0
   33.7470   28.3560   47.4670 C   0  0  0  0  0  0  0  0  0  0  0  0
   32.8510   27.9160   48.9070 Cl  0  0  0  0  0  0  0  0  0  0  0  0
   34.4930   29.5310   47.5000 C   0  0  0  0  0  0  0  0  0  0  0  0
   34.4520   27.4150   44.3500 H   0  0  0  0  0  0  0  0  0  0  0  0
   33.1700   26.7070   46.3040 H   0  0  0  0  0  0  0  0  0  0  0  0
   36.1780   30.8390   42.1530 C   0  0  0  0  0  0  0  0  0  0  0  0
   37.5270   30.4720   42.0090 C   0  0  0  0  0  0  0  0  0  0  0  0
   38.0980   29.6510   43.0190 C   0  0  0  0  0  0  0  0  0  0  0  0
   37.2970   29.2820   44.0480 N   0  0  0  0  0  0  0  0  0  0  0  0
   35.9890   29.6590   44.1530 C   0  0  0  0  0  0  0  0  0  0  0  0
   35.4700   30.4250   43.2040 N   0  0  0  0  0  0  0  0  0  0  0  0
   35.7560   31.4600   41.3840 H   0  0  0  0  0  0  0  0  0  0  0  0
   38.1550   30.7600   41.2040 H   0  0  0  0  0  0  0  0  0  0  0  0
   39.1210   29.3050   43.0180 H   0  0  0  0  0  0  0  0  0  0  0  0
   35.8010   28.2340   50.0920 F   0  0  0  0  0  0  0  0  0  0  0  0
   36.4780   29.4130   49.9050 C   0  0  0  0  0  0  0  0  0  0  0  0
   35.8820   30.5110   49.2670 C   0  0  0  0  0  0  0  0  0  0  0  0
   36.6140   31.6680   49.1420 C   0  0  0  0  0  0  0  0  0  0  0  0
   37.9100   31.7530   49.6280 C   0  0  0  0  0  0  0  0  0  0  0  0
   38.4950   30.6410   50.2660 C   0  0  0  0  0  0  0  0  0  0  0  0
   37.7620   29.4550   50.4050 C   0  0  0  0  0  0  0  0  0  0  0  0
   36.2310   32.5920   48.7380 H   0  0  0  0  0  0  0  0  0  0  0  0
   38.5350   32.6240   49.5610 H   0  0  0  0  0  0  0  0  0  0  0  0
   39.4970   30.6540   50.6610 H   0  0  0  0  0  0  0  0  0  0  0  0
   37.6710   29.7320   53.3360 Cl  0  0  0  0  0  0  0  0  0  0  0  0
   38.3210   28.3890   52.4500 C   0  0  0  0  0  0  0  0  0  0  0  0
   38.3480   28.2920   51.0630 C   0  0  0  0  0  0  0  0  0  0  0  0
   38.8920   27.1760   50.4630 C   0  0  0  0  0  0  0  0  0  0  0  0
   38.8730   27.1790   49.3870 H   0  0  0  0  0  0  0  0  0  0  0  0
   39.4000   26.1740   51.2660 C   0  0  0  0  0  0  0  0  0  0  0  0
   39.8200   25.3110   50.7890 H   0  0  0  0  0  0  0  0  0  0  0  0
   39.3880   26.2410   52.6420 C   0  0  0  0  0  3  0  0  0  0  0  0
   38.8380   27.3740   53.2470 C   0  0  0  0  0  3  0  0  0  0  0  0
  1 25  1  0  0  0  0
  1  3  1  0  0  0  0
  2  1  1  0  0  0  0
  5  4  1  0  0  0  0
  5 11  1  0  0  0  0
  6  5  2  0  0  0  0
  7  6  1  0  0  0  0
  7  8  2  0  0  0  0
  8 13  1  0  0  0  0
  8  9  1  0  0  0  0
  9 11  2  0  0  0  0
  9 10  1  0  0  0  0
 11  1  1  0  0  0  0
 12  7  1  0  0  0  0
 14 19  1  0  0  0  0
 15 14  2  0  0  0  0
 15 16  1  0  0  0  0
 16 17  2  0  0  0  0
 17 18  1  0  0  0  0
 18  6  1  0  0  0  0
 19 18  2  0  0  0  0
 20 14  1  0  0  0  0
 21 15  1  0  0  0  0
 22 16  1  0  0  0  0
 24 23  1  0  0  0  0
 24 29  1  0  0  0  0
 25 24  2  0  0  0  0
 26 25  1  0  0  0  0
 26 27  2  0  0  0  0
 27 28  1  0  0  0  0
 28 29  2  0  0  0  0
 28 32  1  0  0  0  0
 29 35  1  0  0  0  0
 30 26  1  0  0  0  0
 31 27  1  0  0  0  0
 34 41  1  0  0  0  0
 34 33  1  0  0  0  0
 35 34  2  0  0  0  0
 36 35  1  0  0  0  0
 36 38  2  0  0  0  0
 37 36  1  0  0  0  0
 38 40  1  0  0  0  0
 39 38  1  0  0  0  0
 40 41  2  0  0  0  0
M  END
>  <minimizedAffinity>
1.18266499

>  <minimizedRMSD>
2.69452

$$$$
