
 OpenBabel03272509213D

 46 50  0  0  0  0  0  0  0  0999 V2000
   38.0150   31.2500   47.6990 C   0  0  0  0  0  0  0  0  0  0  0  0
   37.1160   31.2920   48.7460 C   0  0  0  0  0  0  0  0  0  0  0  0
   37.2660   32.3940   49.5880 C   0  0  0  0  0  0  0  0  0  0  0  0
   38.2490   33.3640   49.3740 C   0  0  0  0  0  0  0  0  0  0  0  0
   39.1220   33.2270   48.2710 C   0  0  0  0  0  0  0  0  0  0  0  0
   38.9870   32.1350   47.4200 C   0  0  0  0  0  0  0  0  0  0  0  0
   36.5770   32.4640   50.4260 H   0  0  0  0  0  0  0  0  0  0  0  0
   38.3480   34.2150   50.0430 H   0  0  0  0  0  0  0  0  0  0  0  0
   39.8670   34.0020   48.1440 H   0  0  0  0  0  0  0  0  0  0  0  0
   34.9370   30.3180   48.2100 C   0  0  0  0  0  0  0  0  0  0  0  0
   36.1090   30.3070   48.9710 C   0  0  0  0  0  0  0  0  0  0  0  0
   36.2320   29.3020   49.9390 C   0  0  0  0  0  0  0  0  0  0  0  0
   35.2390   28.4040   50.0960 N   0  0  0  0  0  0  0  0  0  0  0  0
   34.1100   28.4610   49.3200 C   0  0  0  0  0  0  0  0  0  0  0  0
   33.9690   29.4030   48.3970 N   0  0  0  0  0  0  0  0  0  0  0  0
   34.8090   31.0800   47.4540 H   0  0  0  0  0  0  0  0  0  0  0  0
   33.3350   27.7190   49.4800 H   0  0  0  0  0  0  0  0  0  0  0  0
   37.4680   29.2480   50.7790 C   0  0  0  0  0  0  0  0  0  0  0  0
   37.3540   28.4510   51.5180 H   0  0  0  0  0  0  0  0  0  0  0  0
   37.6650   30.2280   51.2550 H   0  0  0  0  0  0  0  0  0  0  0  0
   38.2820   28.9250   50.0950 H   0  0  0  0  0  0  0  0  0  0  0  0
   37.9470   30.1830   46.7970 O   0  0  0  0  0  0  0  0  0  0  0  0
   37.3940   30.2420   45.9510 H   0  0  0  0  0  0  0  0  0  0  0  0
   39.8730   32.0750   46.3700 O   0  0  0  0  0  0  0  0  0  0  0  0
   40.1560   31.0510   44.1140 C   0  0  0  0  0  0  0  0  0  0  0  0
   39.5610   31.8780   45.0480 C   0  0  0  0  0  0  0  0  0  0  0  0
   38.4790   32.6600   44.6590 C   0  0  0  0  0  0  0  0  0  0  0  0
   37.9970   32.6120   43.3480 C   0  0  0  0  0  0  0  0  0  0  0  0
   36.9970   33.2270   42.6820 N   0  0  0  0  0  0  0  0  0  0  0  0
   36.9750   32.8000   41.4010 C   0  0  0  0  0  0  0  0  0  0  0  0
   37.9860   31.8980   41.2650 N   0  0  0  0  0  0  0  0  0  0  0  0
   38.6160   31.7770   42.4500 C   0  0  0  0  0  0  0  0  0  0  0  0
   39.6890   30.9990   42.8250 C   0  0  0  0  0  0  0  0  0  0  0  0
   40.9800   30.4890   44.5030 H   0  0  0  0  0  0  0  0  0  0  0  0
   37.9250   33.3460   45.2850 H   0  0  0  0  0  0  0  0  0  0  0  0
   36.3500   33.9130   43.0810 H   0  0  0  0  0  0  0  0  0  0  0  0
   36.2860   33.1110   40.6170 H   0  0  0  0  0  0  0  0  0  0  0  0
   38.8040   28.2170   43.2010 Cl  0  0  0  0  0  0  0  0  0  0  0  0
   39.9600   28.7950   42.0200 C   0  0  0  0  0  0  0  0  0  0  0  0
   40.3490   30.1100   41.8760 C   0  0  0  0  0  0  0  0  0  0  0  0
   41.2770   30.4650   40.9030 C   0  0  0  0  0  0  0  0  0  0  0  0
   41.5180   31.5110   40.8660 H   0  0  0  0  0  0  0  0  0  0  0  0
   41.7820   29.4620   40.1020 C   0  0  0  0  0  0  0  0  0  0  0  0
   42.5040   29.8270   39.3660 H   0  0  0  0  0  0  0  0  0  0  0  0
   41.4040   28.1420   40.2330 C   0  0  0  0  0  3  0  0  0  0  0  0
   40.4770   27.8040   41.2090 C   0  0  0  0  0  3  0  0  0  0  0  0
  1  2  1  0  0  0  0
  2 11  1  0  0  0  0
  2  3  2  0  0  0  0
  3  7  1  0  0  0  0
  4  3  1  0  0  0  0
  4  8  1  0  0  0  0
  5  4  2  0  0  0  0
  6  1  2  0  0  0  0
  6  5  1  0  0  0  0
  9  5  1  0  0  0  0
 10 15  2  0  0  0  0
 10 11  1  0  0  0  0
 11 12  2  0  0  0  0
 12 13  1  0  0  0  0
 12 18  1  0  0  0  0
 14 17  1  0  0  0  0
 14 13  2  0  0  0  0
 15 14  1  0  0  0  0
 16 10  1  0  0  0  0
 18 20  1  0  0  0  0
 18 19  1  0  0  0  0
 21 18  1  0  0  0  0
 22  1  1  0  0  0  0
 23 22  1  0  0  0  0
 24  6  1  0  0  0  0
 25 34  1  0  0  0  0
 25 26  1  0  0  0  0
 26 24  1  0  0  0  0
 27 26  2  0  0  0  0
 27 35  1  0  0  0  0
 28 27  1  0  0  0  0
 29 36  1  0  0  0  0
 29 28  1  0  0  0  0
 30 29  1  0  0  0  0
 31 30  2  0  0  0  0
 31 32  1  0  0  0  0
 32 33  1  0  0  0  0
 32 28  2  0  0  0  0
 33 25  2  0  0  0  0
 37 30  1  0  0  0  0
 39 38  1  0  0  0  0
 40 39  1  0  0  0  0
 40 33  1  0  0  0  0
 41 40  2  0  0  0  0
 42 41  1  0  0  0  0
 43 45  2  0  0  0  0
 43 41  1  0  0  0  0
 44 43  1  0  0  0  0
 45 46  1  0  0  0  0
 46 39  2  0  0  0  0
M  END
>  <minimizedAffinity>
-7.7151885

>  <minimizedRMSD>
0.602998555

$$$$
