
     RDKit          3D

 46 49  0  0  0  0  0  0  0  0999 V2000
   37.6815   31.0306   47.9311 C   0  0  0  0  0  0  0  0  0  0  0  0
   37.0032   30.7665   46.7548 C   0  0  0  0  0  0  0  0  0  0  0  0
   37.6963   31.4298   45.7363 C   0  0  0  0  0  0  0  0  0  0  0  0
   38.7208   32.0408   46.3193 N   0  0  0  0  0  0  0  0  0  0  0  0
   38.7124   31.8023   47.6317 N   0  0  0  0  0  0  0  0  0  0  0  0
   37.4090   30.1547   51.5715 C   0  0  0  0  0  0  0  0  0  0  0  0
   37.9154   30.7112   50.4031 C   0  0  0  0  0  0  0  0  0  0  0  0
   37.2573   30.5058   49.2030 C   0  0  0  0  0  0  0  0  0  0  0  0
   36.1287   29.7464   49.2822 N   0  0  0  0  0  0  0  0  0  0  0  0
   35.6460   29.2118   50.4171 C   0  0  0  0  0  0  0  0  0  0  0  0
   36.2988   29.4243   51.5625 N   0  0  0  0  0  0  0  0  0  0  0  0
   39.6966   32.8577   45.5952 C   0  0  0  0  0  0  0  0  0  0  0  0
   40.6198   32.0137   44.8494 C   0  0  0  0  0  0  0  0  0  0  0  0
   40.3888   31.7855   43.4660 N   0  0  0  0  0  0  0  0  0  0  0  0
   39.5182   32.6970   42.8335 C   0  0  0  0  0  0  0  0  0  0  0  0
   38.2573   32.1496   42.2822 C   0  0  0  0  0  0  0  0  0  0  0  0
   38.4286   30.9138   41.6967 O   0  0  0  0  0  0  0  0  0  0  0  0
   38.9787   30.0443   42.5739 C   0  0  0  0  0  0  0  0  0  0  0  0
   40.3576   30.4693   43.0114 C   0  0  1  0  0  0  0  0  0  0  0  0
   36.0895   30.1474   46.6562 H   0  0  0  0  0  0  0  0  0  0  0  0
   37.3164   31.3295   44.7902 H   0  0  0  0  0  0  0  0  0  0  0  0
   38.0306   30.4030   52.4204 H   0  0  0  0  0  0  0  0  0  0  0  0
   38.8092   31.3147   50.3290 H   0  0  0  0  0  0  0  0  0  0  0  0
   34.7429   28.6166   50.4154 H   0  0  0  0  0  0  0  0  0  0  0  0
   39.0827   33.6197   45.1512 H   0  0  0  0  0  0  0  0  0  0  0  0
   40.2609   33.4327   46.4025 H   0  0  0  0  0  0  0  0  0  0  0  0
   40.6041   30.9767   45.3077 H   0  0  0  0  0  0  0  0  0  0  0  0
   41.6755   32.3253   45.0765 H   0  0  0  0  0  0  0  0  0  0  0  0
   39.4205   33.7129   43.2276 H   0  0  0  0  0  0  0  0  0  0  0  0
   40.1071   32.9455   41.9163 H   0  0  0  0  0  0  0  0  0  0  0  0
   37.3076   32.3830   42.7499 H   0  0  0  0  0  0  0  0  0  0  0  0
   38.0494   32.7608   41.3205 H   0  0  0  0  0  0  0  0  0  0  0  0
   39.1169   29.1238   41.9558 H   0  0  0  0  0  0  0  0  0  0  0  0
   38.3434   29.6632   43.3741 H   0  0  0  0  0  0  0  0  0  0  0  0
   40.4496   29.8674   44.0129 H   0  0  0  0  0  0  0  0  0  0  0  0
   42.9509   28.8579   44.0371 Cl  0  0  0  0  0  0  0  0  0  0  0  0
   42.5342   29.2112   42.3806 C   0  0  0  0  0  0  0  0  0  0  0  0
   41.3724   29.8746   42.1897 C   0  0  0  0  0  0  0  0  0  0  0  0
   41.1171   30.0629   40.8155 C   0  0  0  0  0  0  0  0  0  0  0  0
   40.2321   30.5696   40.3914 H   0  0  0  0  0  0  0  0  0  0  0  0
   41.9419   29.6305   39.8001 C   0  0  0  0  0  0  0  0  0  0  0  0
   41.7600   29.7676   38.7450 H   0  0  0  0  0  0  0  0  0  0  0  0
   43.1018   28.9658   40.1187 C   0  0  0  0  0  0  0  0  0  0  0  0
   43.4158   28.7449   41.4394 C   0  0  0  0  0  0  0  0  0  0  0  0
   43.7737   28.6121   39.3515 H   0  0  0  0  0  0  0  0  0  0  0  0
   44.3174   28.2275   41.7055 H   0  0  0  0  0  0  0  0  0  0  0  0
  1  8  1  0
  2  1  1  0
  3  4  1  0
  3  2  2  0
  4  5  1  0
  5  1  2  0
  7  6  2  0
  8  9  2  0
  8  7  1  0
  9 10  1  0
 10 11  2  0
 11  6  1  0
 12  4  1  0
 13 12  1  0
 14 13  1  0
 15 14  1  0
 16 15  1  0
 17 16  1  0
 17 18  1  0
 18 19  1  0
 19 14  1  0
  2 20  1  0
  3 21  1  0
  6 22  1  0
  7 23  1  0
 10 24  1  0
 12 25  1  0
 12 26  1  0
 13 27  1  0
 13 28  1  0
 15 29  1  0
 15 30  1  0
 16 31  1  0
 16 32  1  0
 18 33  1  0
 18 34  1  0
 19 35  1  1
 36 37  1  0
 37 38  2  0
 38 39  1  0
 39 40  1  0
 39 41  2  0
 41 42  1  0
 41 43  1  0
 43 44  2  0
 44 37  1  0
 43 45  1  0
 44 46  1  0
 19 38  1  0
M  ISO  8  20  14  21  14  22  14  23  14  24  14  25   8  26   8  27   8
M  ISO  8  28   8  29  13  30  13  31  13  32  13  33  13  34  13  35  13
M  ISO  2  40  15  42  16
M  END
>  <DihAtoms>  (1) 
17,18,37,36

>  <DihDeg>  (1) 
123.30914640120186

$$$$
