
 OpenBabel03272508383D

 44 47  0  0  1  0  0  0  0  0999 V2000
   36.4220   28.2900   33.7500 C   0  0  0  0  0  0  0  0  0  0  0  0
   37.3540   28.9220   33.8830 H   0  0  0  0  0  0  0  0  0  0  0  0
   36.3450   27.8190   34.7680 H   0  0  0  0  0  0  0  0  0  0  0  0
   35.3950   29.2360   33.4910 N   0  0  0  0  0  0  0  0  0  0  0  0
   34.8360   29.1910   32.1970 C   0  0  0  0  0  0  0  0  0  0  0  0
   35.0090   30.3920   31.3470 C   0  0  0  0  0  0  0  0  0  0  0  0
   34.8850   31.5650   32.0600 O   0  0  0  0  0  0  0  0  0  0  0  0
   35.7550   31.5880   33.0950 C   0  0  0  0  0  0  0  0  0  0  0  0
   35.4850   30.4890   34.0920 C   0  0  1  0  0  0  0  0  0  0  0  0
   34.8480   28.2520   31.6350 H   0  0  0  0  0  0  0  0  0  0  0  0
   33.7440   29.2100   32.4400 H   0  0  0  0  0  0  0  0  0  0  0  0
   35.6690   30.3650   30.4890 H   0  0  0  0  0  0  0  0  0  0  0  0
   34.0360   30.4730   30.7240 H   0  0  0  0  0  0  0  0  0  0  0  0
   35.5020   32.5460   33.6100 H   0  0  0  0  0  0  0  0  0  0  0  0
   36.8090   31.7480   32.8660 H   0  0  0  0  0  0  0  0  0  0  0  0
   36.5310   30.4280   34.6180 H   0  0  0  0  0  0  0  0  0  0  0  0
   32.3740   29.7500   34.4760 Cl  0  0  0  0  0  0  0  0  0  0  0  0
   33.3230   30.8090   35.4860 C   0  0  0  0  0  0  0  0  0  0  0  0
   34.6250   30.9420   35.1470 C   0  0  0  0  0  0  0  0  0  0  0  0
   35.3010   31.7820   36.0560 C   0  0  0  0  0  0  0  0  0  0  0  0
   36.3730   32.0460   36.0100 H   0  0  0  0  0  0  0  0  0  0  0  0
   34.7150   32.3900   37.1450 C   0  0  0  0  0  0  0  0  0  0  0  0
   35.2190   33.0340   37.8490 H   0  0  0  0  0  0  0  0  0  0  0  0
   33.3780   32.1810   37.3870 C   0  0  0  0  0  3  0  0  0  0  0  0
   32.6550   31.3720   36.5420 C   0  0  0  0  0  3  0  0  0  0  0  0
   36.7060   27.2580   32.7630 C   0  0  0  0  0  0  0  0  0  0  0  0
   37.3410   27.4010   31.9070 H   0  0  0  0  0  0  0  0  0  0  0  0
   35.7340   26.8910   32.2920 H   0  0  0  0  0  0  0  0  0  0  0  0
   38.0800   24.7420   34.9160 C   0  0  0  0  0  0  0  0  0  0  0  0
   38.1270   24.0840   33.7000 C   0  0  0  0  0  0  0  0  0  0  0  0
   37.6120   24.9690   32.7460 C   0  0  0  0  0  0  0  0  0  0  0  0
   37.2900   26.0780   33.4020 N   0  0  0  0  0  0  0  0  0  0  0  0
   37.5700   25.9420   34.7000 N   0  0  0  0  0  0  0  0  0  0  0  0
   38.5040   23.0560   33.5320 H   0  0  0  0  0  0  0  0  0  0  0  0
   37.5820   24.6270   31.7810 H   0  0  0  0  0  0  0  0  0  0  0  0
   39.9860   22.7840   37.4910 C   0  0  0  0  0  0  0  0  0  0  0  0
   39.6390   23.3090   36.2520 C   0  0  0  0  0  0  0  0  0  0  0  0
   38.5360   24.1370   36.1410 C   0  0  0  0  0  0  0  0  0  0  0  0
   37.8640   24.3690   37.3030 N   0  0  0  0  0  0  0  0  0  0  0  0
   38.2060   23.8570   38.4980 C   0  0  0  0  0  0  0  0  0  0  0  0
   39.2750   23.0610   38.5800 N   0  0  0  0  0  0  0  0  0  0  0  0
   40.8650   22.1600   37.4160 H   0  0  0  0  0  0  0  0  0  0  0  0
   40.1650   23.1320   35.3240 H   0  0  0  0  0  0  0  0  0  0  0  0
   37.6320   24.0790   39.3870 H   0  0  0  0  0  0  0  0  0  0  0  0
  1  2  1  0  0  0  0
  1  3  1  0  0  0  0
  4  1  1  0  0  0  0
  4  9  1  0  0  0  0
  5 11  1  0  0  0  0
  5  4  1  0  0  0  0
  6  7  1  0  0  0  0
  6  5  1  0  0  0  0
  7  8  1  0  0  0  0
  8 14  1  0  0  0  0
  8  9  1  0  0  0  0
  9 16  1  1  0  0  0
  9 19  1  0  0  0  0
 10  5  1  0  0  0  0
 12  6  1  0  0  0  0
 13  6  1  0  0  0  0
 15  8  1  0  0  0  0
 17 18  1  0  0  0  0
 18 25  1  0  0  0  0
 19 18  2  0  0  0  0
 19 20  1  0  0  0  0
 20 22  2  0  0  0  0
 21 20  1  0  0  0  0
 22 24  1  0  0  0  0
 22 23  1  0  0  0  0
 25 24  2  0  0  0  0
 26 32  1  0  0  0  0
 26  1  1  0  0  0  0
 27 26  1  0  0  0  0
 28 26  1  0  0  0  0
 29 38  1  0  0  0  0
 30 29  1  0  0  0  0
 31 32  1  0  0  0  0
 31 30  2  0  0  0  0
 32 33  1  0  0  0  0
 33 29  2  0  0  0  0
 34 30  1  0  0  0  0
 35 31  1  0  0  0  0
 36 41  1  0  0  0  0
 37 36  2  0  0  0  0
 38 37  1  0  0  0  0
 38 39  2  0  0  0  0
 39 40  1  0  0  0  0
 40 41  2  0  0  0  0
 40 44  1  0  0  0  0
 42 36  1  0  0  0  0
 43 37  1  0  0  0  0
M  END
>  <minimizedAffinity>
-5.98917055

$$$$

 OpenBabel03272508383D

 44 47  0  0  1  0  0  0  0  0999 V2000
   36.2870   28.4210   33.7300 C   0  0  0  0  0  0  0  0  0  0  0  0
   37.1750   29.1170   33.8460 H   0  0  0  0  0  0  0  0  0  0  0  0
   36.2560   27.9530   34.7500 H   0  0  0  0  0  0  0  0  0  0  0  0
   35.1940   29.2940   33.4800 N   0  0  0  0  0  0  0  0  0  0  0  0
   34.7870   29.3910   32.1330 C   0  0  0  0  0  0  0  0  0  0  0  0
   34.9140   30.7170   31.4860 C   0  0  0  0  0  0  0  0  0  0  0  0
   34.5830   31.7520   32.3340 O   0  0  0  0  0  0  0  0  0  0  0  0
   35.3280   31.7010   33.4620 C   0  0  0  0  0  0  0  0  0  0  0  0
   35.0770   30.4440   34.2560 C   0  0  1  0  0  0  0  0  0  0  0  0
   34.9640   28.5520   31.4520 H   0  0  0  0  0  0  0  0  0  0  0  0
   33.6800   29.2680   32.2400 H   0  0  0  0  0  0  0  0  0  0  0  0
   35.6620   30.8840   30.7200 H   0  0  0  0  0  0  0  0  0  0  0  0
   34.0120   30.7980   30.7650 H   0  0  0  0  0  0  0  0  0  0  0  0
   34.9140   32.5420   34.0690 H   0  0  0  0  0  0  0  0  0  0  0  0
   36.3760   31.9940   33.3880 H   0  0  0  0  0  0  0  0  0  0  0  0
   36.0600   30.4050   34.8930 H   0  0  0  0  0  0  0  0  0  0  0  0
   35.2500   32.4260   36.7880 Cl  0  0  0  0  0  0  0  0  0  0  0  0
   33.9250   31.3660   36.3870 C   0  0  0  0  0  0  0  0  0  0  0  0
   34.0630   30.6480   35.2490 C   0  0  0  0  0  0  0  0  0  0  0  0
   32.9160   29.8650   35.0030 C   0  0  0  0  0  0  0  0  0  0  0  0
   32.7720   29.1950   34.1370 H   0  0  0  0  0  0  0  0  0  0  0  0
   31.8020   29.8320   35.8140 C   0  0  0  0  0  0  0  0  0  0  0  0
   30.9180   29.2380   35.6380 H   0  0  0  0  0  0  0  0  0  0  0  0
   31.7790   30.6070   36.9490 C   0  0  0  0  0  3  0  0  0  0  0  0
   32.8620   31.3970   37.2520 C   0  0  0  0  0  3  0  0  0  0  0  0
   36.6280   27.4060   32.7440 C   0  0  0  0  0  0  0  0  0  0  0  0
   37.2560   27.5810   31.8900 H   0  0  0  0  0  0  0  0  0  0  0  0
   35.6770   26.9870   32.2710 H   0  0  0  0  0  0  0  0  0  0  0  0
   38.0510   24.9280   34.9110 C   0  0  0  0  0  0  0  0  0  0  0  0
   38.2860   24.3480   33.6780 C   0  0  0  0  0  0  0  0  0  0  0  0
   37.7740   25.2260   32.7170 C   0  0  0  0  0  0  0  0  0  0  0  0
   37.2710   26.2580   33.3860 N   0  0  0  0  0  0  0  0  0  0  0  0
   37.4370   26.0790   34.6980 N   0  0  0  0  0  0  0  0  0  0  0  0
   38.7870   23.3750   33.5020 H   0  0  0  0  0  0  0  0  0  0  0  0
   37.8750   24.9370   31.7390 H   0  0  0  0  0  0  0  0  0  0  0  0
   38.2830   23.8260   38.4920 C   0  0  0  0  0  0  0  0  0  0  0  0
   37.8100   24.4820   37.3620 C   0  0  0  0  0  0  0  0  0  0  0  0
   38.4480   24.3070   36.1470 C   0  0  0  0  0  0  0  0  0  0  0  0
   39.5270   23.4740   36.1730 N   0  0  0  0  0  0  0  0  0  0  0  0
   39.9780   22.8430   37.2700 C   0  0  0  0  0  0  0  0  0  0  0  0
   39.3450   23.0290   38.4310 N   0  0  0  0  0  0  0  0  0  0  0  0
   37.6820   24.0630   39.3580 H   0  0  0  0  0  0  0  0  0  0  0  0
   36.9550   25.1440   37.3310 H   0  0  0  0  0  0  0  0  0  0  0  0
   40.8410   22.1930   37.2260 H   0  0  0  0  0  0  0  0  0  0  0  0
  1  2  1  0  0  0  0
  1  3  1  0  0  0  0
  4  1  1  0  0  0  0
  4  9  1  0  0  0  0
  5 11  1  0  0  0  0
  5  4  1  0  0  0  0
  6  5  1  0  0  0  0
  6  7  1  0  0  0  0
  7  8  1  0  0  0  0
  8 14  1  0  0  0  0
  8  9  1  0  0  0  0
  9 16  1  1  0  0  0
  9 19  1  0  0  0  0
 10  5  1  0  0  0  0
 12  6  1  0  0  0  0
 13  6  1  0  0  0  0
 15  8  1  0  0  0  0
 18 17  1  0  0  0  0
 18 25  1  0  0  0  0
 19 18  2  0  0  0  0
 20 19  1  0  0  0  0
 20 22  2  0  0  0  0
 21 20  1  0  0  0  0
 22 24  1  0  0  0  0
 23 22  1  0  0  0  0
 24 25  2  0  0  0  0
 26 32  1  0  0  0  0
 26  1  1  0  0  0  0
 27 26  1  0  0  0  0
 28 26  1  0  0  0  0
 29 38  1  0  0  0  0
 30 29  1  0  0  0  0
 31 32  1  0  0  0  0
 31 30  2  0  0  0  0
 32 33  1  0  0  0  0
 33 29  2  0  0  0  0
 34 30  1  0  0  0  0
 35 31  1  0  0  0  0
 36 42  1  0  0  0  0
 37 36  2  0  0  0  0
 38 39  2  0  0  0  0
 38 37  1  0  0  0  0
 39 40  1  0  0  0  0
 40 41  2  0  0  0  0
 41 36  1  0  0  0  0
 43 37  1  0  0  0  0
 44 40  1  0  0  0  0
M  END
>  <minimizedAffinity>
-5.8439889

$$$$

 OpenBabel03272508383D

 44 47  0  0  1  0  0  0  0  0999 V2000
   39.3260   25.7140   32.1800 C   0  0  0  0  0  0  0  0  0  0  0  0
   40.0680   26.1870   31.4650 H   0  0  0  0  0  0  0  0  0  0  0  0
   39.4080   24.6350   31.8790 H   0  0  0  0  0  0  0  0  0  0  0  0
   39.8650   25.9790   33.4670 N   0  0  0  0  0  0  0  0  0  0  0  0
   40.6590   27.1410   33.5680 C   0  0  0  0  0  0  0  0  0  0  0  0
   42.0840   26.9540   33.9260 C   0  0  0  0  0  0  0  0  0  0  0  0
   42.2650   25.9670   34.8710 O   0  0  0  0  0  0  0  0  0  0  0  0
   41.7250   24.8010   34.4520 C   0  0  0  0  0  0  0  0  0  0  0  0
   40.2320   24.8980   34.2650 C   0  0  1  0  0  0  0  0  0  0  0  0
   40.4850   27.9760   32.8820 H   0  0  0  0  0  0  0  0  0  0  0  0
   40.2280   27.6090   34.4890 H   0  0  0  0  0  0  0  0  0  0  0  0
   42.8600   27.1270   33.1900 H   0  0  0  0  0  0  0  0  0  0  0  0
   42.3610   27.8660   34.5830 H   0  0  0  0  0  0  0  0  0  0  0  0
   41.8860   24.1250   35.3270 H   0  0  0  0  0  0  0  0  0  0  0  0
   42.2490   24.2540   33.6670 H   0  0  0  0  0  0  0  0  0  0  0  0
   40.0560   23.9940   33.5390 H   0  0  0  0  0  0  0  0  0  0  0  0
   37.4690   26.1330   35.3670 Cl  0  0  0  0  0  0  0  0  0  0  0  0
   38.4180   24.8770   36.1170 C   0  0  0  0  0  0  0  0  0  0  0  0
   39.5300   24.4950   35.4490 C   0  0  0  0  0  0  0  0  0  0  0  0
   40.1900   23.4470   36.1230 C   0  0  0  0  0  0  0  0  0  0  0  0
   41.1170   22.9500   35.7850 H   0  0  0  0  0  0  0  0  0  0  0  0
   39.7630   22.8860   37.3070 C   0  0  0  0  0  0  0  0  0  0  0  0
   40.2560   22.0840   37.8340 H   0  0  0  0  0  0  0  0  0  0  0  0
   38.6140   23.3620   37.8950 C   0  0  0  0  0  3  0  0  0  0  0  0
   37.9170   24.3820   37.2930 C   0  0  0  0  0  3  0  0  0  0  0  0
   37.9960   26.2060   31.8500 C   0  0  0  0  0  0  0  0  0  0  0  0
   37.7710   26.8060   30.9870 H   0  0  0  0  0  0  0  0  0  0  0  0
   37.5920   26.8430   32.7070 H   0  0  0  0  0  0  0  0  0  0  0  0
   36.1810   23.1130   31.8530 C   0  0  0  0  0  0  0  0  0  0  0  0
   35.2540   23.9470   31.2560 C   0  0  0  0  0  0  0  0  0  0  0  0
   35.8420   25.2150   31.1860 C   0  0  0  0  0  0  0  0  0  0  0  0
   37.0500   25.0950   31.7230 N   0  0  0  0  0  0  0  0  0  0  0  0
   37.2530   23.8380   32.1220 N   0  0  0  0  0  0  0  0  0  0  0  0
   34.2450   23.6520   30.9040 H   0  0  0  0  0  0  0  0  0  0  0  0
   35.2750   25.9540   30.7590 H   0  0  0  0  0  0  0  0  0  0  0  0
   35.5580   19.4320   31.4540 C   0  0  0  0  0  0  0  0  0  0  0  0
   35.8030   20.7550   31.1030 C   0  0  0  0  0  0  0  0  0  0  0  0
   35.9260   21.7160   32.0910 C   0  0  0  0  0  0  0  0  0  0  0  0
   35.7880   21.2590   33.3670 N   0  0  0  0  0  0  0  0  0  0  0  0
   35.5520   19.9770   33.6970 C   0  0  0  0  0  0  0  0  0  0  0  0
   35.4370   19.0680   32.7260 N   0  0  0  0  0  0  0  0  0  0  0  0
   35.4880   18.8050   30.5760 H   0  0  0  0  0  0  0  0  0  0  0  0
   35.9130   21.1290   30.0950 H   0  0  0  0  0  0  0  0  0  0  0  0
   35.4530   19.6760   34.7310 H   0  0  0  0  0  0  0  0  0  0  0  0
  1  4  1  0  0  0  0
  2  1  1  0  0  0  0
  3  1  1  0  0  0  0
  4  5  1  0  0  0  0
  4  9  1  0  0  0  0
  5  6  1  0  0  0  0
  5 11  1  0  0  0  0
  6 13  1  0  0  0  0
  6  7  1  0  0  0  0
  8  7  1  0  0  0  0
  8 14  1  0  0  0  0
  9 16  1  6  0  0  0
  9  8  1  0  0  0  0
  9 19  1  0  0  0  0
 10  5  1  0  0  0  0
 12  6  1  0  0  0  0
 15  8  1  0  0  0  0
 17 18  1  0  0  0  0
 18 25  1  0  0  0  0
 19 18  2  0  0  0  0
 19 20  1  0  0  0  0
 20 22  2  0  0  0  0
 21 20  1  0  0  0  0
 22 23  1  0  0  0  0
 22 24  1  0  0  0  0
 25 24  2  0  0  0  0
 26  1  1  0  0  0  0
 26 28  1  0  0  0  0
 27 26  1  0  0  0  0
 29 38  1  0  0  0  0
 29 33  2  0  0  0  0
 30 29  1  0  0  0  0
 31 30  2  0  0  0  0
 31 32  1  0  0  0  0
 32 26  1  0  0  0  0
 32 33  1  0  0  0  0
 34 30  1  0  0  0  0
 35 31  1  0  0  0  0
 36 41  1  0  0  0  0
 37 36  2  0  0  0  0
 37 38  1  0  0  0  0
 38 39  2  0  0  0  0
 39 40  1  0  0  0  0
 40 44  1  0  0  0  0
 41 40  2  0  0  0  0
 42 36  1  0  0  0  0
 43 37  1  0  0  0  0
M  END
>  <minimizedAffinity>
-5.84223223

$$$$

 OpenBabel03272508383D

 44 47  0  0  1  0  0  0  0  0999 V2000
   38.5900   26.6260   33.5680 C   0  0  0  0  0  0  0  0  0  0  0  0
   38.1010   26.9050   34.5520 H   0  0  0  0  0  0  0  0  0  0  0  0
   39.3850   27.4160   33.5000 H   0  0  0  0  0  0  0  0  0  0  0  0
   39.1110   25.3240   33.7960 N   0  0  0  0  0  0  0  0  0  0  0  0
   39.8580   24.7710   32.7350 C   0  0  0  0  0  0  0  0  0  0  0  0
   39.3240   23.5400   32.1070 C   0  0  0  0  0  0  0  0  0  0  0  0
   38.7750   22.6730   33.0270 O   0  0  0  0  0  0  0  0  0  0  0  0
   37.8140   23.2920   33.7500 C   0  0  0  0  0  0  0  0  0  0  0  0
   38.3600   24.4370   34.5640 C   0  0  1  0  0  0  0  0  0  0  0  0
   40.3720   25.4340   32.0330 H   0  0  0  0  0  0  0  0  0  0  0  0
   40.7600   24.4020   33.2840 H   0  0  0  0  0  0  0  0  0  0  0  0
   38.9150   23.5710   31.1040 H   0  0  0  0  0  0  0  0  0  0  0  0
   40.2520   22.9110   31.8190 H   0  0  0  0  0  0  0  0  0  0  0  0
   37.5110   22.5050   34.4830 H   0  0  0  0  0  0  0  0  0  0  0  0
   36.8620   23.4940   33.2570 H   0  0  0  0  0  0  0  0  0  0  0  0
   37.3760   25.0490   34.7430 H   0  0  0  0  0  0  0  0  0  0  0  0
   40.9720   22.7480   35.3970 Cl  0  0  0  0  0  0  0  0  0  0  0  0
   39.7000   23.2860   36.4610 C   0  0  0  0  0  0  0  0  0  0  0  0
   38.7150   24.0150   35.8870 C   0  0  0  0  0  0  0  0  0  0  0  0
   37.7710   24.4320   36.8470 C   0  0  0  0  0  0  0  0  0  0  0  0
   36.8750   25.0450   36.6410 H   0  0  0  0  0  0  0  0  0  0  0  0
   37.8370   24.1370   38.1920 C   0  0  0  0  0  0  0  0  0  0  0  0
   37.1220   24.4500   38.9380 H   0  0  0  0  0  0  0  0  0  0  0  0
   38.8890   23.3840   38.6580 C   0  0  0  0  0  3  0  0  0  0  0  0
   39.8490   22.9430   37.7800 C   0  0  0  0  0  3  0  0  0  0  0  0
   37.6180   26.8260   32.5020 C   0  0  0  0  0  0  0  0  0  0  0  0
   36.9190   26.0790   32.1740 H   0  0  0  0  0  0  0  0  0  0  0  0
   38.1530   27.1070   31.5350 H   0  0  0  0  0  0  0  0  0  0  0  0
   35.6670   29.4890   33.9030 C   0  0  0  0  0  0  0  0  0  0  0  0
   35.4090   29.6710   32.5560 C   0  0  0  0  0  0  0  0  0  0  0  0
   36.1200   28.6770   31.8750 C   0  0  0  0  0  0  0  0  0  0  0  0
   36.7510   27.9670   32.8030 N   0  0  0  0  0  0  0  0  0  0  0  0
   36.4790   28.4530   34.0160 N   0  0  0  0  0  0  0  0  0  0  0  0
   34.7600   30.4560   32.1190 H   0  0  0  0  0  0  0  0  0  0  0  0
   36.0290   28.6740   30.8540 H   0  0  0  0  0  0  0  0  0  0  0  0
   35.1420   32.0250   36.6220 C   0  0  0  0  0  0  0  0  0  0  0  0
   35.8020   31.2620   35.6650 C   0  0  0  0  0  0  0  0  0  0  0  0
   35.0960   30.3330   34.9210 C   0  0  0  0  0  0  0  0  0  0  0  0
   33.7670   30.2480   35.2070 N   0  0  0  0  0  0  0  0  0  0  0  0
   33.1370   30.9900   36.1330 C   0  0  0  0  0  0  0  0  0  0  0  0
   33.8390   31.8790   36.8390 N   0  0  0  0  0  0  0  0  0  0  0  0
   35.8250   32.7000   37.1170 H   0  0  0  0  0  0  0  0  0  0  0  0
   36.8560   31.3210   35.4310 H   0  0  0  0  0  0  0  0  0  0  0  0
   32.0760   30.8770   36.3140 H   0  0  0  0  0  0  0  0  0  0  0  0
  1  4  1  0  0  0  0
  1  2  1  0  0  0  0
  3  1  1  0  0  0  0
  4  9  1  0  0  0  0
  5 11  1  0  0  0  0
  5  4  1  0  0  0  0
  6  5  1  0  0  0  0
  6  7  1  0  0  0  0
  7  8  1  0  0  0  0
  8 14  1  0  0  0  0
  8  9  1  0  0  0  0
  9 16  1  1  0  0  0
  9 19  1  0  0  0  0
 10  5  1  0  0  0  0
 12  6  1  0  0  0  0
 13  6  1  0  0  0  0
 15  8  1  0  0  0  0
 17 18  1  0  0  0  0
 18 25  1  0  0  0  0
 19 18  2  0  0  0  0
 19 20  1  0  0  0  0
 20 22  2  0  0  0  0
 21 20  1  0  0  0  0
 22 24  1  0  0  0  0
 22 23  1  0  0  0  0
 25 24  2  0  0  0  0
 26 32  1  0  0  0  0
 26  1  1  0  0  0  0
 27 26  1  0  0  0  0
 28 26  1  0  0  0  0
 29 33  2  0  0  0  0
 29 38  1  0  0  0  0
 30 29  1  0  0  0  0
 31 30  2  0  0  0  0
 31 32  1  0  0  0  0
 32 33  1  0  0  0  0
 34 30  1  0  0  0  0
 35 31  1  0  0  0  0
 36 41  1  0  0  0  0
 36 42  1  0  0  0  0
 37 36  2  0  0  0  0
 38 39  2  0  0  0  0
 38 37  1  0  0  0  0
 39 40  1  0  0  0  0
 40 44  1  0  0  0  0
 40 41  2  0  0  0  0
 43 37  1  0  0  0  0
M  END
>  <minimizedAffinity>
-5.80816507

$$$$

 OpenBabel03272508383D

 44 47  0  0  1  0  0  0  0  0999 V2000
   36.2000   25.0590   31.5510 C   0  0  0  0  0  0  0  0  0  0  0  0
   35.8640   25.0820   32.6340 H   0  0  0  0  0  0  0  0  0  0  0  0
   35.2120   25.1650   31.0260 H   0  0  0  0  0  0  0  0  0  0  0  0
   37.0300   26.2040   31.4210 N   0  0  0  0  0  0  0  0  0  0  0  0
   38.1640   26.0450   30.5980 C   0  0  0  0  0  0  0  0  0  0  0  0
   39.4890   26.1880   31.2440 C   0  0  0  0  0  0  0  0  0  0  0  0
   39.5130   27.1960   32.1830 O   0  0  0  0  0  0  0  0  0  0  0  0
   38.5510   27.0030   33.1140 C   0  0  0  0  0  0  0  0  0  0  0  0
   37.1660   27.0490   32.5200 C   0  0  1  0  0  0  0  0  0  0  0  0
   38.1470   25.3070   29.7900 H   0  0  0  0  0  0  0  0  0  0  0  0
   38.0930   26.9650   29.9650 H   0  0  0  0  0  0  0  0  0  0  0  0
   40.1260   25.3220   31.3840 H   0  0  0  0  0  0  0  0  0  0  0  0
   40.1690   26.6850   30.4490 H   0  0  0  0  0  0  0  0  0  0  0  0
   38.6450   27.9100   33.7580 H   0  0  0  0  0  0  0  0  0  0  0  0
   38.7080   26.2100   33.8460 H   0  0  0  0  0  0  0  0  0  0  0  0
   36.5700   26.4670   33.3450 H   0  0  0  0  0  0  0  0  0  0  0  0
   37.1330   29.2550   30.1740 Cl  0  0  0  0  0  0  0  0  0  0  0  0
   36.5150   29.4500   31.7930 C   0  0  0  0  0  0  0  0  0  0  0  0
   36.6080   28.3680   32.5980 C   0  0  0  0  0  0  0  0  0  0  0  0
   36.0380   28.6270   33.8620 C   0  0  0  0  0  0  0  0  0  0  0  0
   35.9790   27.9080   34.6980 H   0  0  0  0  0  0  0  0  0  0  0  0
   35.4640   29.8240   34.2310 C   0  0  0  0  0  0  0  0  0  0  0  0
   35.0230   30.0370   35.1930 H   0  0  0  0  0  0  0  0  0  0  0  0
   35.4290   30.8560   33.3230 C   0  0  0  0  0  3  0  0  0  0  0  0
   35.9660   30.6750   32.0710 C   0  0  0  0  0  3  0  0  0  0  0  0
   36.7550   23.7420   31.2730 C   0  0  0  0  0  0  0  0  0  0  0  0
   37.6250   23.5700   30.6660 H   0  0  0  0  0  0  0  0  0  0  0  0
   35.9680   23.0860   30.7700 H   0  0  0  0  0  0  0  0  0  0  0  0
   37.9140   22.6350   34.4810 C   0  0  0  0  0  0  0  0  0  0  0  0
   37.1970   21.5240   34.0770 C   0  0  0  0  0  0  0  0  0  0  0  0
   36.6790   21.8210   32.8110 C   0  0  0  0  0  0  0  0  0  0  0  0
   37.0900   23.0490   32.5180 N   0  0  0  0  0  0  0  0  0  0  0  0
   37.8290   23.5360   33.5170 N   0  0  0  0  0  0  0  0  0  0  0  0
   37.0680   20.5880   34.6550 H   0  0  0  0  0  0  0  0  0  0  0  0
   36.1180   21.0870   32.3680 H   0  0  0  0  0  0  0  0  0  0  0  0
   38.8520   23.2890   38.0570 C   0  0  0  0  0  0  0  0  0  0  0  0
   38.1000   23.2940   36.8890 C   0  0  0  0  0  0  0  0  0  0  0  0
   38.5990   22.6960   35.7460 C   0  0  0  0  0  0  0  0  0  0  0  0
   39.8340   22.1350   35.8760 N   0  0  0  0  0  0  0  0  0  0  0  0
   40.5560   22.1340   37.0100 C   0  0  0  0  0  0  0  0  0  0  0  0
   40.0520   22.7180   38.1000 N   0  0  0  0  0  0  0  0  0  0  0  0
   38.3300   23.7920   38.8570 H   0  0  0  0  0  0  0  0  0  0  0  0
   37.1190   23.7370   36.7740 H   0  0  0  0  0  0  0  0  0  0  0  0
   41.5320   21.6700   37.0510 H   0  0  0  0  0  0  0  0  0  0  0  0
  1  2  1  0  0  0  0
  3  1  1  0  0  0  0
  4  1  1  0  0  0  0
  4  9  1  0  0  0  0
  5  6  1  0  0  0  0
  5  4  1  0  0  0  0
  6 12  1  0  0  0  0
  6  7  1  0  0  0  0
  7  8  1  0  0  0  0
  8 14  1  0  0  0  0
  8 15  1  0  0  0  0
  9 19  1  0  0  0  0
  9  8  1  0  0  0  0
  9 16  1  1  0  0  0
 10  5  1  0  0  0  0
 11  5  1  0  0  0  0
 13  6  1  0  0  0  0
 17 18  1  0  0  0  0
 18 25  2  0  0  0  0
 18 19  1  0  0  0  0
 19 20  2  0  0  0  0
 20 22  1  0  0  0  0
 20 21  1  0  0  0  0
 22 23  1  0  0  0  0
 24 22  2  0  0  0  0
 25 24  1  0  0  0  0
 26  1  1  0  0  0  0
 26 32  1  0  0  0  0
 27 26  1  0  0  0  0
 28 26  1  0  0  0  0
 29 38  1  0  0  0  0
 30 29  1  0  0  0  0
 30 34  1  0  0  0  0
 31 30  2  0  0  0  0
 32 31  1  0  0  0  0
 32 33  1  0  0  0  0
 33 29  2  0  0  0  0
 35 31  1  0  0  0  0
 36 41  1  0  0  0  0
 36 42  1  0  0  0  0
 37 36  2  0  0  0  0
 38 39  2  0  0  0  0
 38 37  1  0  0  0  0
 39 40  1  0  0  0  0
 40 44  1  0  0  0  0
 40 41  2  0  0  0  0
 43 37  1  0  0  0  0
M  END
>  <minimizedAffinity>
-5.60741901

$$$$

 OpenBabel03272508383D

 44 47  0  0  1  0  0  0  0  0999 V2000
   36.1070   28.3040   33.6800 C   0  0  0  0  0  0  0  0  0  0  0  0
   36.7870   28.6540   34.5170 H   0  0  0  0  0  0  0  0  0  0  0  0
   35.6410   27.4000   34.1560 H   0  0  0  0  0  0  0  0  0  0  0  0
   35.1930   29.3770   33.5020 N   0  0  0  0  0  0  0  0  0  0  0  0
   34.6070   29.4740   32.2230 C   0  0  0  0  0  0  0  0  0  0  0  0
   34.9020   30.6950   31.4380 C   0  0  0  0  0  0  0  0  0  0  0  0
   34.9330   31.8300   32.2190 O   0  0  0  0  0  0  0  0  0  0  0  0
   35.8210   31.6900   33.2290 C   0  0  0  0  0  0  0  0  0  0  0  0
   35.4430   30.5740   34.1700 C   0  0  1  0  0  0  0  0  0  0  0  0
   34.4950   28.5740   31.6100 H   0  0  0  0  0  0  0  0  0  0  0  0
   33.5300   29.6060   32.4970 H   0  0  0  0  0  0  0  0  0  0  0  0
   35.5370   30.6420   30.5620 H   0  0  0  0  0  0  0  0  0  0  0  0
   33.9340   30.9250   30.8480 H   0  0  0  0  0  0  0  0  0  0  0  0
   35.6930   32.6390   33.8040 H   0  0  0  0  0  0  0  0  0  0  0  0
   36.8810   31.7390   32.9800 H   0  0  0  0  0  0  0  0  0  0  0  0
   36.4850   30.3600   34.6630 H   0  0  0  0  0  0  0  0  0  0  0  0
   32.5820   29.4540   35.1360 Cl  0  0  0  0  0  0  0  0  0  0  0  0
   33.4610   30.7930   35.8250 C   0  0  0  0  0  0  0  0  0  0  0  0
   34.6650   31.0600   35.2720 C   0  0  0  0  0  0  0  0  0  0  0  0
   35.3010   32.1290   35.9370 C   0  0  0  0  0  0  0  0  0  0  0  0
   36.2960   32.5390   35.6870 H   0  0  0  0  0  0  0  0  0  0  0  0
   34.7670   32.8140   37.0070 C   0  0  0  0  0  0  0  0  0  0  0  0
   35.2430   33.6330   37.5260 H   0  0  0  0  0  0  0  0  0  0  0  0
   33.5290   32.4510   37.4820 C   0  0  0  0  0  3  0  0  0  0  0  0
   32.8510   31.4160   36.8830 C   0  0  0  0  0  3  0  0  0  0  0  0
   36.9380   27.8840   32.5610 C   0  0  0  0  0  0  0  0  0  0  0  0
   38.0090   27.8010   32.6020 H   0  0  0  0  0  0  0  0  0  0  0  0
   36.7780   28.5820   31.6720 H   0  0  0  0  0  0  0  0  0  0  0  0
   36.3780   24.4060   31.8890 C   0  0  0  0  0  0  0  0  0  0  0  0
   35.5340   24.9810   30.9560 C   0  0  0  0  0  0  0  0  0  0  0  0
   35.6550   26.3670   31.1060 C   0  0  0  0  0  0  0  0  0  0  0  0
   36.5330   26.5600   32.0840 N   0  0  0  0  0  0  0  0  0  0  0  0
   36.9650   25.3870   32.5520 N   0  0  0  0  0  0  0  0  0  0  0  0
   34.8930   24.4350   30.2360 H   0  0  0  0  0  0  0  0  0  0  0  0
   35.0870   26.9420   30.4770 H   0  0  0  0  0  0  0  0  0  0  0  0
   37.6760   20.9550   32.5960 C   0  0  0  0  0  0  0  0  0  0  0  0
   37.6530   22.3410   32.5030 C   0  0  0  0  0  0  0  0  0  0  0  0
   36.5220   22.9800   32.0270 C   0  0  0  0  0  0  0  0  0  0  0  0
   35.4940   22.1570   31.6780 N   0  0  0  0  0  0  0  0  0  0  0  0
   35.5230   20.8170   31.7710 C   0  0  0  0  0  0  0  0  0  0  0  0
   36.6270   20.2240   32.2330 N   0  0  0  0  0  0  0  0  0  0  0  0
   38.6230   20.6080   32.9830 H   0  0  0  0  0  0  0  0  0  0  0  0
   38.4630   23.0040   32.7770 H   0  0  0  0  0  0  0  0  0  0  0  0
   34.6730   20.2170   31.4780 H   0  0  0  0  0  0  0  0  0  0  0  0
  1  3  1  0  0  0  0
  1  2  1  0  0  0  0
  4  1  1  0  0  0  0
  4  9  1  0  0  0  0
  5 11  1  0  0  0  0
  5  4  1  0  0  0  0
  6  7  1  0  0  0  0
  6  5  1  0  0  0  0
  7  8  1  0  0  0  0
  8 14  1  0  0  0  0
  8  9  1  0  0  0  0
  9 16  1  1  0  0  0
  9 19  1  0  0  0  0
 10  5  1  0  0  0  0
 12  6  1  0  0  0  0
 13  6  1  0  0  0  0
 15  8  1  0  0  0  0
 17 18  1  0  0  0  0
 18 25  1  0  0  0  0
 19 18  2  0  0  0  0
 19 20  1  0  0  0  0
 20 22  2  0  0  0  0
 21 20  1  0  0  0  0
 22 24  1  0  0  0  0
 22 23  1  0  0  0  0
 25 24  2  0  0  0  0
 26 27  1  0  0  0  0
 26  1  1  0  0  0  0
 28 26  1  0  0  0  0
 29 38  1  0  0  0  0
 29 33  2  0  0  0  0
 30 31  2  0  0  0  0
 30 29  1  0  0  0  0
 31 32  1  0  0  0  0
 32 33  1  0  0  0  0
 32 26  1  0  0  0  0
 34 30  1  0  0  0  0
 35 31  1  0  0  0  0
 36 42  1  0  0  0  0
 37 36  1  0  0  0  0
 37 43  1  0  0  0  0
 38 37  2  0  0  0  0
 39 40  2  0  0  0  0
 39 38  1  0  0  0  0
 40 41  1  0  0  0  0
 41 36  2  0  0  0  0
 44 40  1  0  0  0  0
M  END
>  <minimizedAffinity>
-5.58659601

$$$$

 OpenBabel03272508383D

 44 47  0  0  1  0  0  0  0  0999 V2000
   36.6550   25.8480   32.3320 C   0  0  0  0  0  0  0  0  0  0  0  0
   36.4330   25.4410   31.2970 H   0  0  0  0  0  0  0  0  0  0  0  0
   35.6160   26.0800   32.6900 H   0  0  0  0  0  0  0  0  0  0  0  0
   37.2520   24.7540   33.0140 N   0  0  0  0  0  0  0  0  0  0  0  0
   38.2420   25.0920   33.9600 C   0  0  0  0  0  0  0  0  0  0  0  0
   39.6160   24.6020   33.7010 C   0  0  0  0  0  0  0  0  0  0  0  0
   39.6310   23.3250   33.1830 O   0  0  0  0  0  0  0  0  0  0  0  0
   38.8840   23.2580   32.0580 C   0  0  0  0  0  0  0  0  0  0  0  0
   37.4300   23.5600   32.3190 C   0  0  1  0  0  0  0  0  0  0  0  0
   38.2110   26.0710   34.4490 H   0  0  0  0  0  0  0  0  0  0  0  0
   37.9160   24.4750   34.8340 H   0  0  0  0  0  0  0  0  0  0  0  0
   40.4000   25.2940   33.4180 H   0  0  0  0  0  0  0  0  0  0  0  0
   40.0610   24.3640   34.7430 H   0  0  0  0  0  0  0  0  0  0  0  0
   38.9350   22.1750   31.7910 H   0  0  0  0  0  0  0  0  0  0  0  0
   39.2900   23.7130   31.1540 H   0  0  0  0  0  0  0  0  0  0  0  0
   37.0850   23.8580   31.2390 H   0  0  0  0  0  0  0  0  0  0  0  0
   37.4020   21.8620   35.0560 Cl  0  0  0  0  0  0  0  0  0  0  0  0
   36.5490   21.4770   33.5840 C   0  0  0  0  0  0  0  0  0  0  0  0
   36.6850   22.3610   32.5710 C   0  0  0  0  0  0  0  0  0  0  0  0
   35.9170   21.9720   31.4540 C   0  0  0  0  0  0  0  0  0  0  0  0
   35.8480   22.5250   30.5000 H   0  0  0  0  0  0  0  0  0  0  0  0
   35.1330   20.8400   31.3990 C   0  0  0  0  0  0  0  0  0  0  0  0
   34.5400   20.5300   30.5520 H   0  0  0  0  0  0  0  0  0  0  0  0
   35.0750   20.0140   32.4960 C   0  0  0  0  0  3  0  0  0  0  0  0
   35.7970   20.3310   33.6220 C   0  0  0  0  0  3  0  0  0  0  0  0
   37.4020   27.0890   32.1840 C   0  0  0  0  0  0  0  0  0  0  0  0
   37.8380   27.4240   31.2610 H   0  0  0  0  0  0  0  0  0  0  0  0
   38.2940   27.0940   32.8960 H   0  0  0  0  0  0  0  0  0  0  0  0
   35.5550   29.6890   33.8230 C   0  0  0  0  0  0  0  0  0  0  0  0
   35.3310   30.0190   32.4990 C   0  0  0  0  0  0  0  0  0  0  0  0
   36.0060   29.0650   31.7290 C   0  0  0  0  0  0  0  0  0  0  0  0
   36.5850   28.2340   32.5880 N   0  0  0  0  0  0  0  0  0  0  0  0
   36.3150   28.6080   33.8410 N   0  0  0  0  0  0  0  0  0  0  0  0
   34.7290   30.8750   32.1350 H   0  0  0  0  0  0  0  0  0  0  0  0
   35.9340   29.1700   30.7120 H   0  0  0  0  0  0  0  0  0  0  0  0
   35.0960   31.9890   36.7550 C   0  0  0  0  0  0  0  0  0  0  0  0
   35.7350   31.2990   35.7310 C   0  0  0  0  0  0  0  0  0  0  0  0
   35.0070   30.4520   34.9140 C   0  0  0  0  0  0  0  0  0  0  0  0
   33.6780   30.3690   35.2010 N   0  0  0  0  0  0  0  0  0  0  0  0
   33.0680   31.0400   36.1930 C   0  0  0  0  0  0  0  0  0  0  0  0
   33.7910   31.8510   36.9680 N   0  0  0  0  0  0  0  0  0  0  0  0
   35.7950   32.6060   37.3010 H   0  0  0  0  0  0  0  0  0  0  0  0
   36.7890   31.3580   35.4950 H   0  0  0  0  0  0  0  0  0  0  0  0
   32.0060   30.9320   36.3700 H   0  0  0  0  0  0  0  0  0  0  0  0
  1  3  1  0  0  0  0
  1  4  1  0  0  0  0
  2  1  1  0  0  0  0
  4  5  1  0  0  0  0
  5 10  1  0  0  0  0
  5 11  1  0  0  0  0
  6  5  1  0  0  0  0
  6 13  1  0  0  0  0
  7  6  1  0  0  0  0
  8  9  1  0  0  0  0
  8  7  1  0  0  0  0
  9 16  1  6  0  0  0
  9 19  1  0  0  0  0
  9  4  1  0  0  0  0
 12  6  1  0  0  0  0
 14  8  1  0  0  0  0
 15  8  1  0  0  0  0
 18 25  1  0  0  0  0
 18 17  1  0  0  0  0
 19 18  2  0  0  0  0
 20 19  1  0  0  0  0
 21 20  1  0  0  0  0
 22 20  2  0  0  0  0
 22 24  1  0  0  0  0
 23 22  1  0  0  0  0
 24 25  2  0  0  0  0
 26  1  1  0  0  0  0
 26 32  1  0  0  0  0
 26 28  1  0  0  0  0
 27 26  1  0  0  0  0
 29 33  2  0  0  0  0
 29 38  1  0  0  0  0
 30 29  1  0  0  0  0
 31 30  2  0  0  0  0
 31 32  1  0  0  0  0
 32 33  1  0  0  0  0
 34 30  1  0  0  0  0
 35 31  1  0  0  0  0
 36 41  1  0  0  0  0
 36 42  1  0  0  0  0
 37 36  2  0  0  0  0
 38 39  2  0  0  0  0
 38 37  1  0  0  0  0
 39 40  1  0  0  0  0
 40 44  1  0  0  0  0
 40 41  2  0  0  0  0
 43 37  1  0  0  0  0
M  END
>  <minimizedAffinity>
-5.58402205

$$$$

 OpenBabel03272508383D

 44 47  0  0  1  0  0  0  0  0999 V2000
   37.3550   24.8410   30.5660 C   0  0  0  0  0  0  0  0  0  0  0  0
   36.6750   24.9330   29.6630 H   0  0  0  0  0  0  0  0  0  0  0  0
   38.3500   24.7030   30.0630 H   0  0  0  0  0  0  0  0  0  0  0  0
   37.2270   26.0920   31.2260 N   0  0  0  0  0  0  0  0  0  0  0  0
   36.1900   26.9250   30.7580 C   0  0  0  0  0  0  0  0  0  0  0  0
   36.5850   28.2220   30.1620 C   0  0  0  0  0  0  0  0  0  0  0  0
   37.6320   28.8150   30.8350 O   0  0  0  0  0  0  0  0  0  0  0  0
   38.6930   27.9790   30.8970 C   0  0  0  0  0  0  0  0  0  0  0  0
   38.3850   26.7230   31.6740 C   0  0  1  0  0  0  0  0  0  0  0  0
   35.3070   26.4790   30.2910 H   0  0  0  0  0  0  0  0  0  0  0  0
   35.7130   27.2280   31.7240 H   0  0  0  0  0  0  0  0  0  0  0  0
   36.4830   28.3890   29.0960 H   0  0  0  0  0  0  0  0  0  0  0  0
   35.7520   28.9680   30.4620 H   0  0  0  0  0  0  0  0  0  0  0  0
   39.4260   28.5550   31.5120 H   0  0  0  0  0  0  0  0  0  0  0  0
   39.2670   27.8220   29.9830 H   0  0  0  0  0  0  0  0  0  0  0  0
   39.2210   26.0150   31.2560 H   0  0  0  0  0  0  0  0  0  0  0  0
   41.3320   26.3700   32.9240 Cl  0  0  0  0  0  0  0  0  0  0  0  0
   39.8660   26.7230   33.8000 C   0  0  0  0  0  0  0  0  0  0  0  0
   38.7470   26.8610   33.0540 C   0  0  0  0  0  0  0  0  0  0  0  0
   37.6380   27.1900   33.8610 C   0  0  0  0  0  0  0  0  0  0  0  0
   36.6100   27.3640   33.4970 H   0  0  0  0  0  0  0  0  0  0  0  0
   37.6850   27.3470   35.2290 C   0  0  0  0  0  0  0  0  0  0  0  0
   36.8450   27.5990   35.8590 H   0  0  0  0  0  0  0  0  0  0  0  0
   38.8840   27.1790   35.8800 C   0  0  0  0  0  3  0  0  0  0  0  0
   40.0090   26.8590   35.1570 C   0  0  0  0  0  3  0  0  0  0  0  0
   37.0030   23.6210   31.2800 C   0  0  0  0  0  0  0  0  0  0  0  0
   36.9940   22.6430   30.8340 H   0  0  0  0  0  0  0  0  0  0  0  0
   35.9500   23.7090   31.7080 H   0  0  0  0  0  0  0  0  0  0  0  0
   38.5600   23.3150   34.4960 C   0  0  0  0  0  0  0  0  0  0  0  0
   39.6280   23.0110   33.6710 C   0  0  0  0  0  0  0  0  0  0  0  0
   39.1550   23.0960   32.3570 C   0  0  0  0  0  0  0  0  0  0  0  0
   37.8730   23.4340   32.4430 N   0  0  0  0  0  0  0  0  0  0  0  0
   37.5180   23.5660   33.7230 N   0  0  0  0  0  0  0  0  0  0  0  0
   40.6530   22.7530   34.0030 H   0  0  0  0  0  0  0  0  0  0  0  0
   39.8350   22.8990   31.6170 H   0  0  0  0  0  0  0  0  0  0  0  0
   37.9360   23.8070   38.1660 C   0  0  0  0  0  0  0  0  0  0  0  0
   37.7200   23.8480   36.7930 C   0  0  0  0  0  0  0  0  0  0  0  0
   38.6720   23.3320   35.9310 C   0  0  0  0  0  0  0  0  0  0  0  0
   39.7780   22.8120   36.5320 N   0  0  0  0  0  0  0  0  0  0  0  0
   39.9800   22.7750   37.8610 C   0  0  0  0  0  0  0  0  0  0  0  0
   39.0470   23.2800   38.6720 N   0  0  0  0  0  0  0  0  0  0  0  0
   37.1080   24.2460   38.7020 H   0  0  0  0  0  0  0  0  0  0  0  0
   36.8470   24.2590   36.3060 H   0  0  0  0  0  0  0  0  0  0  0  0
   40.8800   22.3470   38.2780 H   0  0  0  0  0  0  0  0  0  0  0  0
  1  4  1  0  0  0  0
  1 26  1  0  0  0  0
  2  1  1  0  0  0  0
  3  1  1  0  0  0  0
  4  9  1  0  0  0  0
  5  4  1  0  0  0  0
  5 11  1  0  0  0  0
  6 13  1  0  0  0  0
  6  5  1  0  0  0  0
  6  7  1  0  0  0  0
  7  8  1  0  0  0  0
  8 14  1  0  0  0  0
  8  9  1  0  0  0  0
  9 16  1  6  0  0  0
  9 19  1  0  0  0  0
 10  5  1  0  0  0  0
 12  6  1  0  0  0  0
 15  8  1  0  0  0  0
 17 18  1  0  0  0  0
 18 25  1  0  0  0  0
 19 18  2  0  0  0  0
 19 20  1  0  0  0  0
 20 22  2  0  0  0  0
 21 20  1  0  0  0  0
 22 23  1  0  0  0  0
 22 24  1  0  0  0  0
 25 24  2  0  0  0  0
 26 28  1  0  0  0  0
 26 32  1  0  0  0  0
 27 26  1  0  0  0  0
 29 38  1  0  0  0  0
 30 34  1  0  0  0  0
 30 29  1  0  0  0  0
 31 32  1  0  0  0  0
 31 30  2  0  0  0  0
 32 33  1  0  0  0  0
 33 29  2  0  0  0  0
 35 31  1  0  0  0  0
 36 41  1  0  0  0  0
 36 42  1  0  0  0  0
 37 36  2  0  0  0  0
 38 39  2  0  0  0  0
 38 37  1  0  0  0  0
 39 40  1  0  0  0  0
 40 44  1  0  0  0  0
 40 41  2  0  0  0  0
 43 37  1  0  0  0  0
M  END
>  <minimizedAffinity>
-5.54985285

$$$$

 OpenBabel03272508383D

 44 47  0  0  1  0  0  0  0  0999 V2000
   38.5000   27.1310   35.5480 C   0  0  0  0  0  0  0  0  0  0  0  0
   38.4490   26.9770   36.6700 H   0  0  0  0  0  0  0  0  0  0  0  0
   38.6710   28.2400   35.4990 H   0  0  0  0  0  0  0  0  0  0  0  0
   39.6310   26.3710   35.1440 N   0  0  0  0  0  0  0  0  0  0  0  0
   40.5550   27.0440   34.3190 C   0  0  0  0  0  0  0  0  0  0  0  0
   40.7510   26.5080   32.9520 C   0  0  0  0  0  0  0  0  0  0  0  0
   40.7440   25.1300   32.9190 O   0  0  0  0  0  0  0  0  0  0  0  0
   39.6020   24.6470   33.4580 C   0  0  0  0  0  0  0  0  0  0  0  0
   39.4610   25.0070   34.9160 C   0  0  1  0  0  0  0  0  0  0  0  0
   40.6420   28.1330   34.3800 H   0  0  0  0  0  0  0  0  0  0  0  0
   41.5170   26.7860   34.8300 H   0  0  0  0  0  0  0  0  0  0  0  0
   40.3870   27.0570   32.0920 H   0  0  0  0  0  0  0  0  0  0  0  0
   41.8710   26.6730   32.7120 H   0  0  0  0  0  0  0  0  0  0  0  0
   39.7600   23.5420   33.4240 H   0  0  0  0  0  0  0  0  0  0  0  0
   38.6860   24.7430   32.8740 H   0  0  0  0  0  0  0  0  0  0  0  0
   38.3030   24.8840   35.0470 H   0  0  0  0  0  0  0  0  0  0  0  0
   37.8400   23.3580   37.1570 Cl  0  0  0  0  0  0  0  0  0  0  0  0
   39.5330   23.1980   36.7700 C   0  0  0  0  0  0  0  0  0  0  0  0
   39.9870   23.9760   35.7620 C   0  0  0  0  0  0  0  0  0  0  0  0
   41.3520   23.7280   35.5080 C   0  0  0  0  0  0  0  0  0  0  0  0
   41.9600   24.2260   34.7320 H   0  0  0  0  0  0  0  0  0  0  0  0
   42.1240   22.8170   36.1960 C   0  0  0  0  0  0  0  0  0  0  0  0
   43.1680   22.6170   36.0130 H   0  0  0  0  0  0  0  0  0  0  0  0
   41.5480   22.0830   37.2060 C   0  0  0  0  0  3  0  0  0  0  0  0
   40.2210   22.2700   37.5080 C   0  0  0  0  0  3  0  0  0  0  0  0
   37.1940   26.8190   34.9830 C   0  0  0  0  0  0  0  0  0  0  0  0
   36.2880   26.7600   35.5570 H   0  0  0  0  0  0  0  0  0  0  0  0
   37.2260   25.8040   34.4630 H   0  0  0  0  0  0  0  0  0  0  0  0
   36.8370   28.8370   32.0400 C   0  0  0  0  0  0  0  0  0  0  0  0
   35.8620   29.3950   32.8460 C   0  0  0  0  0  0  0  0  0  0  0  0
   35.8910   28.6910   34.0550 C   0  0  0  0  0  0  0  0  0  0  0  0
   36.8450   27.7760   33.9310 N   0  0  0  0  0  0  0  0  0  0  0  0
   37.4120   27.8640   32.7260 N   0  0  0  0  0  0  0  0  0  0  0  0
   35.1950   30.2360   32.5720 H   0  0  0  0  0  0  0  0  0  0  0  0
   35.2200   28.9900   34.7700 H   0  0  0  0  0  0  0  0  0  0  0  0
   37.1830   30.9490   28.9550 C   0  0  0  0  0  0  0  0  0  0  0  0
   36.8860   30.6050   30.2690 C   0  0  0  0  0  0  0  0  0  0  0  0
   37.1030   29.3110   30.7070 C   0  0  0  0  0  0  0  0  0  0  0  0
   37.6090   28.4590   29.7720 N   0  0  0  0  0  0  0  0  0  0  0  0
   37.8940   28.7990   28.5030 C   0  0  0  0  0  0  0  0  0  0  0  0
   37.6750   30.0540   28.1040 N   0  0  0  0  0  0  0  0  0  0  0  0
   36.9600   31.9890   28.7670 H   0  0  0  0  0  0  0  0  0  0  0  0
   36.4840   31.2730   31.0180 H   0  0  0  0  0  0  0  0  0  0  0  0
   38.2950   28.0760   27.8070 H   0  0  0  0  0  0  0  0  0  0  0  0
  1  2  1  0  0  0  0
  3  1  1  0  0  0  0
  4  1  1  0  0  0  0
  5 10  1  0  0  0  0
  5 11  1  0  0  0  0
  5  4  1  0  0  0  0
  6  5  1  0  0  0  0
  7  6  1  0  0  0  0
  7  8  1  0  0  0  0
  8  9  1  0  0  0  0
  9 16  1  1  0  0  0
  9  4  1  0  0  0  0
  9 19  1  0  0  0  0
 12  6  1  0  0  0  0
 13  6  1  0  0  0  0
 14  8  1  0  0  0  0
 15  8  1  0  0  0  0
 18 17  1  0  0  0  0
 18 25  1  0  0  0  0
 19 18  2  0  0  0  0
 20 19  1  0  0  0  0
 20 22  2  0  0  0  0
 21 20  1  0  0  0  0
 22 24  1  0  0  0  0
 23 22  1  0  0  0  0
 24 25  2  0  0  0  0
 26  1  1  0  0  0  0
 26 27  1  0  0  0  0
 28 26  1  0  0  0  0
 29 33  2  0  0  0  0
 29 30  1  0  0  0  0
 30 31  2  0  0  0  0
 31 35  1  0  0  0  0
 32 31  1  0  0  0  0
 32 26  1  0  0  0  0
 33 32  1  0  0  0  0
 34 30  1  0  0  0  0
 36 37  1  0  0  0  0
 37 38  2  0  0  0  0
 37 43  1  0  0  0  0
 38 29  1  0  0  0  0
 39 38  1  0  0  0  0
 40 39  2  0  0  0  0
 41 40  1  0  0  0  0
 41 36  2  0  0  0  0
 42 36  1  0  0  0  0
 44 40  1  0  0  0  0
M  END
>  <minimizedAffinity>
-5.51710749

$$$$
