
 OpenBabel03272510173D

 28 30  0  0  0  0  0  0  0  0999 V2000
   37.2050   29.2500   50.9250 Br  0  0  0  0  0  0  0  0  0  0  0  0
   35.9430   29.2790   49.4860 C   0  0  0  0  0  0  0  0  0  0  0  0
   35.9970   30.2630   48.5090 C   0  0  0  0  0  0  0  0  0  0  0  0
   35.0540   30.2090   47.5150 C   0  0  0  0  0  0  0  0  0  0  0  0
   34.0660   29.2320   47.4420 C   0  0  0  0  0  0  0  0  0  0  0  0
   34.0550   28.2820   48.4290 C   0  0  0  0  0  0  0  0  0  0  0  0
   34.9900   28.3100   49.4430 C   0  0  0  0  0  0  0  0  0  0  0  0
   35.1260   31.0000   46.7610 H   0  0  0  0  0  0  0  0  0  0  0  0
   33.3160   27.4930   48.4350 H   0  0  0  0  0  0  0  0  0  0  0  0
   34.9520   27.5470   50.2040 H   0  0  0  0  0  0  0  0  0  0  0  0
   37.8530   33.1920   49.6220 C   0  0  0  0  0  0  0  0  0  0  0  0
   38.9270   33.2880   48.7040 C   0  0  0  0  0  0  0  0  0  0  0  0
   38.9960   32.3290   47.7010 C   0  0  0  0  0  0  0  0  0  0  0  0
   38.0320   31.3450   47.6460 N   0  0  0  0  0  0  0  0  0  0  0  0
   37.0230   31.3040   48.5590 C   0  0  0  0  0  0  0  0  0  0  0  0
   36.9400   32.2220   49.5360 N   0  0  0  0  0  0  0  0  0  0  0  0
   37.8230   33.9510   50.3930 H   0  0  0  0  0  0  0  0  0  0  0  0
   39.6510   34.0840   48.7990 H   0  0  0  0  0  0  0  0  0  0  0  0
   39.8000   32.3680   46.9790 H   0  0  0  0  0  0  0  0  0  0  0  0
   35.1430   28.9690   44.5940 Cl  0  0  0  0  0  0  0  0  0  0  0  0
   33.4690   29.1290   45.0310 C   0  0  0  0  0  0  0  0  0  0  0  0
   33.0980   29.2410   46.3510 C   0  0  0  0  0  0  0  0  0  0  0  0
   31.7400   29.3670   46.6420 C   0  0  0  0  0  0  0  0  0  0  0  0
   31.4420   29.4560   47.6960 H   0  0  0  0  0  0  0  0  0  0  0  0
   30.7570   29.3850   45.6780 C   0  0  0  0  0  0  0  0  0  0  0  0
   29.7060   29.4830   45.9090 H   0  0  0  0  0  0  0  0  0  0  0  0
   31.1890   29.2690   44.3710 C   0  0  0  0  0  3  0  0  0  0  0  0
   32.5140   29.1410   44.0100 C   0  0  0  0  0  3  0  0  0  0  0  0
  2  1  1  0  0  0  0
  3 15  1  0  0  0  0
  3  2  2  0  0  0  0
  4  3  1  0  0  0  0
  5  4  2  0  0  0  0
  5  6  1  0  0  0  0
  6  9  1  0  0  0  0
  6  7  2  0  0  0  0
  7  2  1  0  0  0  0
  7 10  1  0  0  0  0
  8  4  1  0  0  0  0
 11 17  1  0  0  0  0
 12 18  1  0  0  0  0
 12 11  2  0  0  0  0
 13 12  1  0  0  0  0
 14 13  2  0  0  0  0
 14 15  1  0  0  0  0
 15 16  2  0  0  0  0
 16 11  1  0  0  0  0
 19 13  1  0  0  0  0
 20 21  1  0  0  0  0
 21 22  1  0  0  0  0
 22 23  2  0  0  0  0
 22  5  1  0  0  0  0
 23 24  1  0  0  0  0
 25 26  1  0  0  0  0
 25 23  1  0  0  0  0
 27 25  2  0  0  0  0
 28 27  1  0  0  0  0
 28 21  2  0  0  0  0
M  END
>  <minimizedAffinity>
-5.74784756

>  <minimizedRMSD>
0.465976983

$$$$
