
 OpenBabel03262522423D

 25 27  0  0  1  0  0  0  0  0999 V2000
   36.3310   31.1180   49.3720 C   0  0  1  0  0  0  0  0  0  0  0  0
   37.4020   30.8280   50.3280 C   0  0  0  0  0  0  0  0  0  0  0  0
   37.7540   30.9890   48.8800 C   0  0  2  0  0  0  0  0  0  0  0  0
   35.9450   32.1330   49.2100 H   0  0  0  0  0  0  0  0  0  0  0  0
   37.5920   29.8480   50.7580 H   0  0  0  0  0  0  0  0  0  0  0  0
   37.6580   31.6560   51.0520 H   0  0  0  0  0  0  0  0  0  0  0  0
   37.9430   30.0810   48.3050 H   0  0  0  0  0  0  0  0  0  0  0  0
   35.2950   28.8290   49.7320 C   0  0  0  0  0  0  0  0  0  0  0  0
   35.3560   30.0470   48.9830 C   0  0  0  0  0  0  0  0  0  0  0  0
   34.5030   30.2040   47.8920 C   0  0  0  0  0  0  0  0  0  0  0  0
   33.6560   29.1850   47.6000 N   0  0  0  0  0  0  0  0  0  0  0  0
   33.6050   28.0380   48.3120 C   0  0  0  0  0  0  0  0  0  0  0  0
   34.4280   27.8650   49.3790 N   0  0  0  0  0  0  0  0  0  0  0  0
   35.9270   28.6740   50.5660 H   0  0  0  0  0  0  0  0  0  0  0  0
   34.5170   31.0950   47.3110 H   0  0  0  0  0  0  0  0  0  0  0  0
   32.9510   27.2220   48.1050 H   0  0  0  0  0  0  0  0  0  0  0  0
   38.9730   30.9590   46.1190 Cl  0  0  0  0  0  0  0  0  0  0  0  0
   39.1300   32.1850   47.3400 C   0  0  0  0  0  0  0  0  0  0  0  0
   38.5670   32.1880   48.5970 C   0  0  0  0  0  0  0  0  0  0  0  0
   38.8060   33.2580   49.4330 C   0  0  0  0  0  0  0  0  0  0  0  0
   38.3390   33.2000   50.4000 H   0  0  0  0  0  0  0  0  0  0  0  0
   39.5860   34.3240   49.0600 C   0  0  0  0  0  0  0  0  0  0  0  0
   39.7020   35.0970   49.7880 H   0  0  0  0  0  0  0  0  0  0  0  0
   40.1600   34.3280   47.7860 C   0  0  0  0  0  0  0  0  0  0  0  0
   39.9240   33.2500   46.9320 C   0  0  0  0  0  0  0  0  0  0  0  0
  1  4  1  1  0  0  0
  1  2  1  0  0  0  0
  2  5  1  0  0  0  0
  2  6  1  0  0  0  0
  3  7  1  6  0  0  0
  3  1  1  0  0  0  0
  3  2  1  0  0  0  0
  8 14  1  0  0  0  0
  9  1  1  0  0  0  0
  9  8  2  0  0  0  0
 10  9  1  0  0  0  0
 11 10  2  0  0  0  0
 11 12  1  0  0  0  0
 12 13  2  0  0  0  0
 13  8  1  0  0  0  0
 15 10  1  0  0  0  0
 16 12  1  0  0  0  0
 17 18  1  0  0  0  0
 18 19  1  0  0  0  0
 19  3  1  0  0  0  0
 19 20  2  0  0  0  0
 20 21  1  0  0  0  0
 22 20  1  0  0  0  0
 22 23  1  0  0  0  0
 24 22  2  0  0  0  0
 25 18  2  0  0  0  0
 25 24  1  0  0  0  0
M  END
>  <minimizedAffinity>
-5.97101974

>  <minimizedRMSD>
6.08829927

$$$$
