
 OpenBabel03272506143D

 24 25  0  0  0  0  0  0  0  0999 V2000
   36.1000   29.2580   49.2880 C   0  0  0  0  0  0  0  0  0  0  0  0
   36.8270   30.2820   48.6860 C   0  0  0  0  0  0  0  0  0  0  0  0
   37.7100   31.0480   49.4170 C   0  0  0  0  0  0  0  0  0  0  0  0
   37.8380   30.7590   50.7480 N   0  0  0  0  0  0  0  0  0  0  0  0
   37.1220   29.7580   51.3170 C   0  0  0  0  0  0  0  0  0  0  0  0
   36.2590   29.0130   50.5920 N   0  0  0  0  0  0  0  0  0  0  0  0
   36.6780   30.4490   47.6540 H   0  0  0  0  0  0  0  0  0  0  0  0
   37.2450   29.5530   52.3750 H   0  0  0  0  0  0  0  0  0  0  0  0
   38.6120   30.5470   46.6680 Cl  0  0  0  0  0  0  0  0  0  0  0  0
   38.9620   32.0040   47.5530 C   0  0  0  0  0  0  0  0  0  0  0  0
   38.4920   32.1310   48.8260 C   0  0  0  0  0  0  0  0  0  0  0  0
   38.8010   33.3070   49.4760 C   0  0  0  0  0  0  0  0  0  0  0  0
   38.4530   33.4550   50.4820 H   0  0  0  0  0  0  0  0  0  0  0  0
   39.5460   34.2870   48.8510 C   0  0  0  0  0  0  0  0  0  0  0  0
   39.7460   35.1860   49.4350 H   0  0  0  0  0  0  0  0  0  0  0  0
   40.0170   34.1490   47.5640 C   0  0  0  0  0  0  0  0  0  0  0  0
   39.7070   32.9720   46.9160 C   0  0  0  0  0  0  0  0  0  0  0  0
   35.2020   28.4480   48.6390 O   0  0  0  0  0  0  0  0  0  0  0  0
   33.9420   30.5980   47.6050 O   0  0  0  0  0  0  0  0  0  0  0  0
   33.9480   29.0880   47.6450 P   0  0  0  0  0  0  0  0  0  0  0  0
   34.2280   28.4310   46.1020 O   0  0  0  0  0  0  0  0  0  0  0  0
   34.8730   28.9770   45.5880 H   0  0  0  0  0  0  0  0  0  0  0  0
   32.4420   28.6040   48.2350 O   0  0  0  0  0  0  0  0  0  0  0  0
   31.8730   28.1750   47.5730 H   0  0  0  0  0  0  0  0  0  0  0  0
  1  6  1  0  0  0  0
  2  1  2  0  0  0  0
  2  3  1  0  0  0  0
  3  4  2  0  0  0  0
  4  5  1  0  0  0  0
  5  8  1  0  0  0  0
  6  5  2  0  0  0  0
  7  2  1  0  0  0  0
  9 10  1  0  0  0  0
 10 11  1  0  0  0  0
 11  3  1  0  0  0  0
 11 12  2  0  0  0  0
 12 13  1  0  0  0  0
 14 15  1  0  0  0  0
 14 12  1  0  0  0  0
 16 14  2  0  0  0  0
 17 10  2  0  0  0  0
 17 16  1  0  0  0  0
 18  1  1  0  0  0  0
 19 20  2  0  0  0  0
 20 23  1  0  0  0  0
 20 18  1  0  0  0  0
 21 20  1  0  0  0  0
 22 21  1  0  0  0  0
 24 23  1  0  0  0  0
M  END
>  <minimizedAffinity>
-5.91562891

>  <minimizedRMSD>
4.92914772

$$$$
