
 OpenBabel03272510163D

 28 30  0  0  0  0  0  0  0  0999 V2000
   37.2030   29.2520   50.9240 Br  0  0  0  0  0  0  0  0  0  0  0  0
   35.9430   29.2800   49.4830 C   0  0  0  0  0  0  0  0  0  0  0  0
   35.9980   30.2630   48.5060 C   0  0  0  0  0  0  0  0  0  0  0  0
   35.0570   30.2080   47.5100 C   0  0  0  0  0  0  0  0  0  0  0  0
   34.0700   29.2300   47.4360 C   0  0  0  0  0  0  0  0  0  0  0  0
   34.0570   28.2810   48.4240 C   0  0  0  0  0  0  0  0  0  0  0  0
   34.9900   28.3100   49.4390 C   0  0  0  0  0  0  0  0  0  0  0  0
   35.1300   30.9980   46.7560 H   0  0  0  0  0  0  0  0  0  0  0  0
   33.3180   27.4920   48.4300 H   0  0  0  0  0  0  0  0  0  0  0  0
   34.9510   27.5480   50.2020 H   0  0  0  0  0  0  0  0  0  0  0  0
   37.8530   33.1910   49.6210 C   0  0  0  0  0  0  0  0  0  0  0  0
   38.9270   33.2890   48.7040 C   0  0  0  0  0  0  0  0  0  0  0  0
   38.9960   32.3310   47.6990 C   0  0  0  0  0  0  0  0  0  0  0  0
   38.0330   31.3470   47.6440 N   0  0  0  0  0  0  0  0  0  0  0  0
   37.0230   31.3040   48.5570 C   0  0  0  0  0  0  0  0  0  0  0  0
   36.9400   32.2210   49.5340 N   0  0  0  0  0  0  0  0  0  0  0  0
   37.8230   33.9500   50.3930 H   0  0  0  0  0  0  0  0  0  0  0  0
   39.6510   34.0850   48.7990 H   0  0  0  0  0  0  0  0  0  0  0  0
   39.8000   32.3700   46.9780 H   0  0  0  0  0  0  0  0  0  0  0  0
   35.1510   28.9690   44.5910 Cl  0  0  0  0  0  0  0  0  0  0  0  0
   33.4770   29.1270   45.0250 C   0  0  0  0  0  0  0  0  0  0  0  0
   33.1030   29.2380   46.3440 C   0  0  0  0  0  0  0  0  0  0  0  0
   31.7440   29.3620   46.6320 C   0  0  0  0  0  0  0  0  0  0  0  0
   31.4450   29.4510   47.6850 H   0  0  0  0  0  0  0  0  0  0  0  0
   30.7630   29.3780   45.6660 C   0  0  0  0  0  0  0  0  0  0  0  0
   29.7120   29.4740   45.8950 H   0  0  0  0  0  0  0  0  0  0  0  0
   31.1980   29.2630   44.3600 C   0  0  0  0  0  3  0  0  0  0  0  0
   32.5240   29.1370   44.0010 C   0  0  0  0  0  3  0  0  0  0  0  0
  2  1  1  0  0  0  0
  3 15  1  0  0  0  0
  3  2  2  0  0  0  0
  4  3  1  0  0  0  0
  5  4  2  0  0  0  0
  5  6  1  0  0  0  0
  6  9  1  0  0  0  0
  6  7  2  0  0  0  0
  7  2  1  0  0  0  0
  7 10  1  0  0  0  0
  8  4  1  0  0  0  0
 11 17  1  0  0  0  0
 12 18  1  0  0  0  0
 12 11  2  0  0  0  0
 13 12  1  0  0  0  0
 14 13  2  0  0  0  0
 14 15  1  0  0  0  0
 15 16  2  0  0  0  0
 16 11  1  0  0  0  0
 19 13  1  0  0  0  0
 20 21  1  0  0  0  0
 21 22  1  0  0  0  0
 22 23  2  0  0  0  0
 22  5  1  0  0  0  0
 23 24  1  0  0  0  0
 25 26  1  0  0  0  0
 25 23  1  0  0  0  0
 27 25  2  0  0  0  0
 28 27  1  0  0  0  0
 28 21  2  0  0  0  0
M  END
>  <minimizedAffinity>
-5.75342274

>  <minimizedRMSD>
0.408043593

$$$$
