
 OpenBabel03272506153D

 24 25  0  0  0  0  0  0  0  0999 V2000
   38.5320   24.7380   35.5170 C   0  0  0  0  0  0  0  0  0  0  0  0
   37.5850   25.5930   34.9600 C   0  0  0  0  0  0  0  0  0  0  0  0
   37.9620   26.7770   34.3640 C   0  0  0  0  0  0  0  0  0  0  0  0
   39.2980   27.0720   34.3450 N   0  0  0  0  0  0  0  0  0  0  0  0
   40.2070   26.2290   34.8930 C   0  0  0  0  0  0  0  0  0  0  0  0
   39.8270   25.0700   35.4750 N   0  0  0  0  0  0  0  0  0  0  0  0
   36.5710   25.3010   35.0090 H   0  0  0  0  0  0  0  0  0  0  0  0
   41.2590   26.4900   34.8630 H   0  0  0  0  0  0  0  0  0  0  0  0
   37.6520   26.5120   31.4560 Cl  0  0  0  0  0  0  0  0  0  0  0  0
   36.7790   27.6650   32.4230 C   0  0  0  0  0  0  0  0  0  0  0  0
   37.0010   27.7010   33.7670 C   0  0  0  0  0  0  0  0  0  0  0  0
   36.2810   28.6360   34.4800 C   0  0  0  0  0  0  0  0  0  0  0  0
   36.4210   28.7040   35.5440 H   0  0  0  0  0  0  0  0  0  0  0  0
   35.3890   29.4780   33.8460 C   0  0  0  0  0  0  0  0  0  0  0  0
   34.8600   30.1870   34.4830 H   0  0  0  0  0  0  0  0  0  0  0  0
   35.1710   29.4340   32.4860 C   0  0  0  0  0  3  0  0  0  0  0  0
   35.8930   28.4980   31.7760 C   0  0  0  0  0  3  0  0  0  0  0  0
   38.2470   23.5430   36.1280 O   0  0  0  0  0  0  0  0  0  0  0  0
   38.0740   24.6900   38.5630 O   0  0  0  0  0  0  0  0  0  0  0  0
   38.2390   23.3730   37.8430 P   0  0  0  0  0  0  0  0  0  0  0  0
   36.9470   22.3200   38.1770 O   0  0  0  0  0  0  0  0  0  0  0  0
   36.0910   22.8110   38.2520 H   0  0  0  0  0  0  0  0  0  0  0  0
   39.7020   22.7070   38.3620 O   0  0  0  0  0  0  0  0  0  0  0  0
   39.6040   21.9180   38.9220 H   0  0  0  0  0  0  0  0  0  0  0  0
  1 18  1  0  0  0  0
  2  7  1  0  0  0  0
  2  1  2  0  0  0  0
  3  2  1  0  0  0  0
  4  3  2  0  0  0  0
  4  5  1  0  0  0  0
  5  6  2  0  0  0  0
  6  1  1  0  0  0  0
  8  5  1  0  0  0  0
  9 10  1  0  0  0  0
 10 11  1  0  0  0  0
 11  3  1  0  0  0  0
 11 12  2  0  0  0  0
 12 13  1  0  0  0  0
 14 12  1  0  0  0  0
 14 15  1  0  0  0  0
 16 14  2  0  0  0  0
 17 10  2  0  0  0  0
 17 16  1  0  0  0  0
 18 20  1  0  0  0  0
 20 21  1  0  0  0  0
 20 23  1  0  0  0  0
 20 19  2  0  0  0  0
 21 22  1  0  0  0  0
 23 24  1  0  0  0  0
M  END
>  <minimizedAffinity>
-5.12216139

$$$$

 OpenBabel03272506153D

 24 25  0  0  0  0  0  0  0  0999 V2000
   38.4740   26.0230   32.4720 C   0  0  0  0  0  0  0  0  0  0  0  0
   38.2920   25.2910   33.6420 C   0  0  0  0  0  0  0  0  0  0  0  0
   39.1150   25.4800   34.7320 C   0  0  0  0  0  0  0  0  0  0  0  0
   40.1100   26.4120   34.6110 N   0  0  0  0  0  0  0  0  0  0  0  0
   40.2730   27.1150   33.4640 C   0  0  0  0  0  0  0  0  0  0  0  0
   39.4610   26.9220   32.4020 N   0  0  0  0  0  0  0  0  0  0  0  0
   37.5040   24.5880   33.6650 H   0  0  0  0  0  0  0  0  0  0  0  0
   41.0710   27.8470   33.3990 H   0  0  0  0  0  0  0  0  0  0  0  0
   40.9200   23.1810   35.0180 Cl  0  0  0  0  0  0  0  0  0  0  0  0
   39.7460   23.6480   36.2150 C   0  0  0  0  0  0  0  0  0  0  0  0
   38.9590   24.7340   35.9770 C   0  0  0  0  0  0  0  0  0  0  0  0
   38.0470   25.0550   36.9620 C   0  0  0  0  0  0  0  0  0  0  0  0
   37.4040   25.9030   36.8220 H   0  0  0  0  0  0  0  0  0  0  0  0
   37.9570   24.3020   38.1150 C   0  0  0  0  0  0  0  0  0  0  0  0
   37.2110   24.6220   38.8430 H   0  0  0  0  0  0  0  0  0  0  0  0
   38.7580   23.2040   38.3460 C   0  0  0  0  0  3  0  0  0  0  0  0
   39.6680   22.8860   37.3600 C   0  0  0  0  0  3  0  0  0  0  0  0
   37.7040   25.8990   31.3420 O   0  0  0  0  0  0  0  0  0  0  0  0
   35.8940   27.6370   32.3310 O   0  0  0  0  0  0  0  0  0  0  0  0
   36.2150   26.7450   31.1550 P   0  0  0  0  0  0  0  0  0  0  0  0
   36.3970   27.6490   29.7270 O   0  0  0  0  0  0  0  0  0  0  0  0
   36.8350   28.5190   29.9020 H   0  0  0  0  0  0  0  0  0  0  0  0
   34.9420   25.6460   31.0070 O   0  0  0  0  0  0  0  0  0  0  0  0
   34.3840   25.7850   30.2230 H   0  0  0  0  0  0  0  0  0  0  0  0
  1  2  1  0  0  0  0
  2  7  1  0  0  0  0
  2  3  2  0  0  0  0
  3 11  1  0  0  0  0
  4  3  1  0  0  0  0
  5  4  2  0  0  0  0
  6  1  2  0  0  0  0
  6  5  1  0  0  0  0
  8  5  1  0  0  0  0
  9 10  1  0  0  0  0
 10 17  1  0  0  0  0
 11 10  2  0  0  0  0
 11 12  1  0  0  0  0
 12 14  2  0  0  0  0
 13 12  1  0  0  0  0
 14 16  1  0  0  0  0
 14 15  1  0  0  0  0
 17 16  2  0  0  0  0
 18  1  1  0  0  0  0
 20 18  1  0  0  0  0
 20 19  2  0  0  0  0
 21 22  1  0  0  0  0
 21 20  1  0  0  0  0
 23 20  1  0  0  0  0
 24 23  1  0  0  0  0
M  END
>  <minimizedAffinity>
-5.00334597

$$$$

 OpenBabel03272506153D

 24 25  0  0  0  0  0  0  0  0999 V2000
   36.4150   27.9480   32.6610 C   0  0  0  0  0  0  0  0  0  0  0  0
   35.9440   28.6000   33.7970 C   0  0  0  0  0  0  0  0  0  0  0  0
   35.4240   29.8750   33.7170 C   0  0  0  0  0  0  0  0  0  0  0  0
   35.3930   30.4630   32.4820 N   0  0  0  0  0  0  0  0  0  0  0  0
   35.8560   29.8120   31.3870 C   0  0  0  0  0  0  0  0  0  0  0  0
   36.3640   28.5630   31.4760 N   0  0  0  0  0  0  0  0  0  0  0  0
   35.9980   28.0860   34.7180 H   0  0  0  0  0  0  0  0  0  0  0  0
   35.8190   30.3040   30.4210 H   0  0  0  0  0  0  0  0  0  0  0  0
   32.5780   29.4330   34.2900 Cl  0  0  0  0  0  0  0  0  0  0  0  0
   33.6100   30.4630   35.2400 C   0  0  0  0  0  0  0  0  0  0  0  0
   34.9180   30.5950   34.8820 C   0  0  0  0  0  0  0  0  0  0  0  0
   35.6860   31.4250   35.6720 C   0  0  0  0  0  0  0  0  0  0  0  0
   36.7240   31.5620   35.4320 H   0  0  0  0  0  0  0  0  0  0  0  0
   35.1370   32.0740   36.7600 C   0  0  0  0  0  0  0  0  0  0  0  0
   35.8120   32.7110   37.3320 H   0  0  0  0  0  0  0  0  0  0  0  0
   33.8120   31.9340   37.1130 C   0  0  0  0  0  3  0  0  0  0  0  0
   33.0480   31.1040   36.3220 C   0  0  0  0  0  3  0  0  0  0  0  0
   36.9480   26.6830   32.6490 O   0  0  0  0  0  0  0  0  0  0  0  0
   37.4470   24.3110   31.4660 O   0  0  0  0  0  0  0  0  0  0  0  0
   37.0250   25.7380   31.2100 P   0  0  0  0  0  0  0  0  0  0  0  0
   35.4600   25.8100   30.5500 O   0  0  0  0  0  0  0  0  0  0  0  0
   34.8700   25.1160   30.9390 H   0  0  0  0  0  0  0  0  0  0  0  0
   38.1530   26.4030   30.1440 O   0  0  0  0  0  0  0  0  0  0  0  0
   37.8060   26.5730   29.2520 H   0  0  0  0  0  0  0  0  0  0  0  0
  1  2  1  0  0  0  0
  2  7  1  0  0  0  0
  3  2  2  0  0  0  0
  3 11  1  0  0  0  0
  4  3  1  0  0  0  0
  5  6  1  0  0  0  0
  5  4  2  0  0  0  0
  6  1  2  0  0  0  0
  8  5  1  0  0  0  0
  9 10  1  0  0  0  0
 10 17  1  0  0  0  0
 11 10  2  0  0  0  0
 11 12  1  0  0  0  0
 12 14  2  0  0  0  0
 13 12  1  0  0  0  0
 14 16  1  0  0  0  0
 14 15  1  0  0  0  0
 17 16  2  0  0  0  0
 18  1  1  0  0  0  0
 20 19  2  0  0  0  0
 20 18  1  0  0  0  0
 21 22  1  0  0  0  0
 21 20  1  0  0  0  0
 23 20  1  0  0  0  0
 24 23  1  0  0  0  0
M  END
>  <minimizedAffinity>
-4.90531158

$$$$

 OpenBabel03272506153D

 24 25  0  0  0  0  0  0  0  0999 V2000
   36.4660   29.8590   31.7920 C   0  0  0  0  0  0  0  0  0  0  0  0
   35.8220   30.5680   32.8020 C   0  0  0  0  0  0  0  0  0  0  0  0
   35.5720   29.9860   34.0270 C   0  0  0  0  0  0  0  0  0  0  0  0
   35.9810   28.6920   34.2010 N   0  0  0  0  0  0  0  0  0  0  0  0
   36.6060   28.0170   33.2060 C   0  0  0  0  0  0  0  0  0  0  0  0
   36.8470   28.5960   32.0100 N   0  0  0  0  0  0  0  0  0  0  0  0
   35.5350   31.5640   32.5980 H   0  0  0  0  0  0  0  0  0  0  0  0
   36.9180   26.9920   33.3750 H   0  0  0  0  0  0  0  0  0  0  0  0
   32.6980   29.4310   34.2580 Cl  0  0  0  0  0  0  0  0  0  0  0  0
   33.5650   30.5090   35.3120 C   0  0  0  0  0  0  0  0  0  0  0  0
   34.9000   30.6930   35.1140 C   0  0  0  0  0  0  0  0  0  0  0  0
   35.5330   31.5600   35.9800 C   0  0  0  0  0  0  0  0  0  0  0  0
   36.5860   31.7380   35.8650 H   0  0  0  0  0  0  0  0  0  0  0  0
   34.8310   32.1940   36.9860 C   0  0  0  0  0  0  0  0  0  0  0  0
   35.4060   32.8630   37.6270 H   0  0  0  0  0  0  0  0  0  0  0  0
   33.4800   32.0010   37.1780 C   0  0  0  0  0  3  0  0  0  0  0  0
   32.8500   31.1350   36.3100 C   0  0  0  0  0  3  0  0  0  0  0  0
   36.7550   30.3580   30.5460 O   0  0  0  0  0  0  0  0  0  0  0  0
   37.6540   30.1220   28.0140 O   0  0  0  0  0  0  0  0  0  0  0  0
   37.5300   29.4050   29.3380 P   0  0  0  0  0  0  0  0  0  0  0  0
   39.0570   29.0300   29.9820 O   0  0  0  0  0  0  0  0  0  0  0  0
   39.7150   29.7470   29.7970 H   0  0  0  0  0  0  0  0  0  0  0  0
   36.6400   27.9980   29.0550 O   0  0  0  0  0  0  0  0  0  0  0  0
   37.1570   27.1780   29.1260 H   0  0  0  0  0  0  0  0  0  0  0  0
  1  6  2  0  0  0  0
  1  2  1  0  0  0  0
  2  3  2  0  0  0  0
  3  4  1  0  0  0  0
  3 11  1  0  0  0  0
  5  8  1  0  0  0  0
  5  4  2  0  0  0  0
  6  5  1  0  0  0  0
  7  2  1  0  0  0  0
  9 10  1  0  0  0  0
 10 17  1  0  0  0  0
 11 10  2  0  0  0  0
 11 12  1  0  0  0  0
 12 14  2  0  0  0  0
 13 12  1  0  0  0  0
 14 16  1  0  0  0  0
 14 15  1  0  0  0  0
 17 16  2  0  0  0  0
 18  1  1  0  0  0  0
 19 20  2  0  0  0  0
 20 21  1  0  0  0  0
 20 18  1  0  0  0  0
 22 21  1  0  0  0  0
 23 24  1  0  0  0  0
 23 20  1  0  0  0  0
M  END
>  <minimizedAffinity>
-4.90310144

$$$$

 OpenBabel03272506153D

 24 25  0  0  0  0  0  0  0  0999 V2000
   39.9120   24.7100   34.9850 C   0  0  0  0  0  0  0  0  0  0  0  0
   38.7590   24.6350   34.2090 C   0  0  0  0  0  0  0  0  0  0  0  0
   38.4610   25.6140   33.2850 C   0  0  0  0  0  0  0  0  0  0  0  0
   39.3430   26.6550   33.1690 N   0  0  0  0  0  0  0  0  0  0  0  0
   40.4600   26.7120   33.9340 C   0  0  0  0  0  0  0  0  0  0  0  0
   40.7430   25.7470   34.8360 N   0  0  0  0  0  0  0  0  0  0  0  0
   38.1240   23.8030   34.3510 H   0  0  0  0  0  0  0  0  0  0  0  0
   41.1390   27.5500   33.8190 H   0  0  0  0  0  0  0  0  0  0  0  0
   37.7990   22.9580   32.2230 Cl  0  0  0  0  0  0  0  0  0  0  0  0
   36.8640   24.3910   31.9050 C   0  0  0  0  0  0  0  0  0  0  0  0
   37.2640   25.5740   32.4500 C   0  0  0  0  0  0  0  0  0  0  0  0
   36.4840   26.6740   32.1620 C   0  0  0  0  0  0  0  0  0  0  0  0
   36.7570   27.6300   32.5690 H   0  0  0  0  0  0  0  0  0  0  0  0
   35.3640   26.5580   31.3630 C   0  0  0  0  0  0  0  0  0  0  0  0
   34.8020   27.4760   31.1850 H   0  0  0  0  0  0  0  0  0  0  0  0
   34.9680   25.3570   30.8160 C   0  0  0  0  0  3  0  0  0  0  0  0
   35.7500   24.2590   31.1060 C   0  0  0  0  0  3  0  0  0  0  0  0
   40.2860   23.7830   35.9250 O   0  0  0  0  0  0  0  0  0  0  0  0
   38.1710   24.0830   37.5720 O   0  0  0  0  0  0  0  0  0  0  0  0
   39.1520   23.0790   37.0150 P   0  0  0  0  0  0  0  0  0  0  0  0
   38.3590   21.8760   36.1130 O   0  0  0  0  0  0  0  0  0  0  0  0
   37.5950   22.2490   35.6050 H   0  0  0  0  0  0  0  0  0  0  0  0
   39.9630   22.3990   38.3320 O   0  0  0  0  0  0  0  0  0  0  0  0
   39.7370   21.4690   38.5010 H   0  0  0  0  0  0  0  0  0  0  0  0
  1 18  1  0  0  0  0
  2  7  1  0  0  0  0
  2  1  2  0  0  0  0
  3  2  1  0  0  0  0
  4  3  2  0  0  0  0
  4  5  1  0  0  0  0
  5  6  2  0  0  0  0
  6  1  1  0  0  0  0
  8  5  1  0  0  0  0
 10  9  1  0  0  0  0
 10 11  1  0  0  0  0
 11  3  1  0  0  0  0
 12 11  2  0  0  0  0
 12 13  1  0  0  0  0
 14 12  1  0  0  0  0
 15 14  1  0  0  0  0
 16 17  1  0  0  0  0
 16 14  2  0  0  0  0
 17 10  2  0  0  0  0
 18 20  1  0  0  0  0
 20 19  2  0  0  0  0
 20 23  1  0  0  0  0
 21 20  1  0  0  0  0
 22 21  1  0  0  0  0
 23 24  1  0  0  0  0
M  END
>  <minimizedAffinity>
-4.88023996

$$$$

 OpenBabel03272506153D

 24 25  0  0  0  0  0  0  0  0999 V2000
   37.2990   25.7320   33.5800 C   0  0  0  0  0  0  0  0  0  0  0  0
   38.1470   24.7800   34.1370 C   0  0  0  0  0  0  0  0  0  0  0  0
   38.9040   25.0710   35.2520 C   0  0  0  0  0  0  0  0  0  0  0  0
   38.7860   26.3270   35.7800 N   0  0  0  0  0  0  0  0  0  0  0  0
   37.9550   27.2430   35.2240 C   0  0  0  0  0  0  0  0  0  0  0  0
   37.2170   26.9480   34.1310 N   0  0  0  0  0  0  0  0  0  0  0  0
   38.1880   23.8290   33.6780 H   0  0  0  0  0  0  0  0  0  0  0  0
   37.8830   28.2310   35.6650 H   0  0  0  0  0  0  0  0  0  0  0  0
   37.7420   23.5730   37.4940 Cl  0  0  0  0  0  0  0  0  0  0  0  0
   39.3690   23.3500   36.9190 C   0  0  0  0  0  0  0  0  0  0  0  0
   39.8050   24.1010   35.8690 C   0  0  0  0  0  0  0  0  0  0  0  0
   41.1030   23.8800   35.4580 C   0  0  0  0  0  0  0  0  0  0  0  0
   41.4940   24.4470   34.6330 H   0  0  0  0  0  0  0  0  0  0  0  0
   41.8970   22.9440   36.0910 C   0  0  0  0  0  0  0  0  0  0  0  0
   42.9100   22.8310   35.7040 H   0  0  0  0  0  0  0  0  0  0  0  0
   41.4460   22.1900   37.1530 C   0  0  0  0  0  3  0  0  0  0  0  0
   40.1490   22.4130   37.5610 C   0  0  0  0  0  3  0  0  0  0  0  0
   36.5110   25.5290   32.4750 O   0  0  0  0  0  0  0  0  0  0  0  0
   37.5250   27.3190   30.7300 O   0  0  0  0  0  0  0  0  0  0  0  0
   36.2430   26.7660   31.3050 P   0  0  0  0  0  0  0  0  0  0  0  0
   35.2910   26.0360   30.1000 O   0  0  0  0  0  0  0  0  0  0  0  0
   35.8500   25.5660   29.4320 H   0  0  0  0  0  0  0  0  0  0  0  0
   35.4200   28.0600   32.0120 O   0  0  0  0  0  0  0  0  0  0  0  0
   34.6120   28.3250   31.5400 H   0  0  0  0  0  0  0  0  0  0  0  0
  1  6  2  0  0  0  0
  1  2  1  0  0  0  0
  2  3  2  0  0  0  0
  3  4  1  0  0  0  0
  3 11  1  0  0  0  0
  5  8  1  0  0  0  0
  5  4  2  0  0  0  0
  6  5  1  0  0  0  0
  7  2  1  0  0  0  0
 10  9  1  0  0  0  0
 10 17  1  0  0  0  0
 11 10  2  0  0  0  0
 12 11  1  0  0  0  0
 12 14  2  0  0  0  0
 13 12  1  0  0  0  0
 14 16  1  0  0  0  0
 15 14  1  0  0  0  0
 16 17  2  0  0  0  0
 18  1  1  0  0  0  0
 19 20  2  0  0  0  0
 20 23  1  0  0  0  0
 20 18  1  0  0  0  0
 21 20  1  0  0  0  0
 22 21  1  0  0  0  0
 24 23  1  0  0  0  0
M  END
>  <minimizedAffinity>
-4.86532259

$$$$

 OpenBabel03272506153D

 24 25  0  0  0  0  0  0  0  0999 V2000
   36.2730   28.8800   32.5350 C   0  0  0  0  0  0  0  0  0  0  0  0
   35.5670   29.1850   33.6950 C   0  0  0  0  0  0  0  0  0  0  0  0
   34.9290   30.3990   33.8390 C   0  0  0  0  0  0  0  0  0  0  0  0
   35.0220   31.2820   32.7970 N   0  0  0  0  0  0  0  0  0  0  0  0
   35.7140   30.9690   31.6750 C   0  0  0  0  0  0  0  0  0  0  0  0
   36.3350   29.7760   31.5450 N   0  0  0  0  0  0  0  0  0  0  0  0
   35.5370   28.4560   34.4590 H   0  0  0  0  0  0  0  0  0  0  0  0
   35.7690   31.6900   30.8670 H   0  0  0  0  0  0  0  0  0  0  0  0
   36.3780   32.1260   35.7200 Cl  0  0  0  0  0  0  0  0  0  0  0  0
   34.7540   31.5580   35.9790 C   0  0  0  0  0  0  0  0  0  0  0  0
   34.1770   30.7590   35.0380 C   0  0  0  0  0  0  0  0  0  0  0  0
   32.8900   30.3390   35.2990 C   0  0  0  0  0  0  0  0  0  0  0  0
   32.3910   29.7080   34.5870 H   0  0  0  0  0  0  0  0  0  0  0  0
   32.2420   30.7210   36.4570 C   0  0  0  0  0  0  0  0  0  0  0  0
   31.2260   30.3460   36.5870 H   0  0  0  0  0  0  0  0  0  0  0  0
   32.8340   31.5290   37.4030 C   0  0  0  0  0  3  0  0  0  0  0  0
   34.1220   31.9470   37.1390 C   0  0  0  0  0  3  0  0  0  0  0  0
   36.9360   27.7000   32.3090 O   0  0  0  0  0  0  0  0  0  0  0  0
   35.1740   25.9590   31.2400 O   0  0  0  0  0  0  0  0  0  0  0  0
   36.5030   26.6420   31.0190 P   0  0  0  0  0  0  0  0  0  0  0  0
   36.4680   27.6270   29.6330 O   0  0  0  0  0  0  0  0  0  0  0  0
   35.5890   28.0700   29.5260 H   0  0  0  0  0  0  0  0  0  0  0  0
   37.6630   25.4260   30.8570 O   0  0  0  0  0  0  0  0  0  0  0  0
   38.0240   25.3370   29.9590 H   0  0  0  0  0  0  0  0  0  0  0  0
  1  2  1  0  0  0  0
  2  3  2  0  0  0  0
  2  7  1  0  0  0  0
  3 11  1  0  0  0  0
  4  3  1  0  0  0  0
  5  4  2  0  0  0  0
  6  5  1  0  0  0  0
  6  1  2  0  0  0  0
  8  5  1  0  0  0  0
  9 10  1  0  0  0  0
 10 17  1  0  0  0  0
 11 12  1  0  0  0  0
 11 10  2  0  0  0  0
 12 14  2  0  0  0  0
 13 12  1  0  0  0  0
 14 15  1  0  0  0  0
 14 16  1  0  0  0  0
 17 16  2  0  0  0  0
 18  1  1  0  0  0  0
 20 19  2  0  0  0  0
 20 18  1  0  0  0  0
 21 20  1  0  0  0  0
 22 21  1  0  0  0  0
 23 20  1  0  0  0  0
 24 23  1  0  0  0  0
M  END
>  <minimizedAffinity>
-4.81546497

$$$$

 OpenBabel03272506153D

 24 25  0  0  0  0  0  0  0  0999 V2000
   37.9480   26.2490   32.5810 C   0  0  0  0  0  0  0  0  0  0  0  0
   38.2620   25.8720   33.8840 C   0  0  0  0  0  0  0  0  0  0  0  0
   38.1340   24.5610   34.2920 C   0  0  0  0  0  0  0  0  0  0  0  0
   37.6880   23.6570   33.3680 N   0  0  0  0  0  0  0  0  0  0  0  0
   37.3860   24.0420   32.1040 C   0  0  0  0  0  0  0  0  0  0  0  0
   37.5150   25.3290   31.7130 N   0  0  0  0  0  0  0  0  0  0  0  0
   38.6020   26.6220   34.5440 H   0  0  0  0  0  0  0  0  0  0  0  0
   37.0340   23.3020   31.3930 H   0  0  0  0  0  0  0  0  0  0  0  0
   40.6980   23.1520   34.5520 Cl  0  0  0  0  0  0  0  0  0  0  0  0
   39.6200   23.4590   35.8830 C   0  0  0  0  0  0  0  0  0  0  0  0
   38.4540   24.1230   35.6480 C   0  0  0  0  0  0  0  0  0  0  0  0
   37.6410   24.3350   36.7420 C   0  0  0  0  0  0  0  0  0  0  0  0
   36.7110   24.8550   36.6090 H   0  0  0  0  0  0  0  0  0  0  0  0
   38.0110   23.8910   37.9960 C   0  0  0  0  0  0  0  0  0  0  0  0
   37.3120   24.1000   38.8060 H   0  0  0  0  0  0  0  0  0  0  0  0
   39.1930   23.2190   38.2230 C   0  0  0  0  0  3  0  0  0  0  0  0
   40.0030   23.0080   37.1280 C   0  0  0  0  0  3  0  0  0  0  0  0
   38.0450   27.5270   32.0900 O   0  0  0  0  0  0  0  0  0  0  0  0
   36.9710   29.8030   31.1200 O   0  0  0  0  0  0  0  0  0  0  0  0
   36.6970   28.3430   31.3950 P   0  0  0  0  0  0  0  0  0  0  0  0
   36.3600   27.4980   29.9590 O   0  0  0  0  0  0  0  0  0  0  0  0
   36.9110   27.8280   29.2060 H   0  0  0  0  0  0  0  0  0  0  0  0
   35.3780   28.2790   32.4480 O   0  0  0  0  0  0  0  0  0  0  0  0
   34.5630   27.9330   32.0460 H   0  0  0  0  0  0  0  0  0  0  0  0
  1  2  1  0  0  0  0
  2  3  2  0  0  0  0
  2  7  1  0  0  0  0
  3 11  1  0  0  0  0
  4  3  1  0  0  0  0
  5  4  2  0  0  0  0
  6  5  1  0  0  0  0
  6  1  2  0  0  0  0
  8  5  1  0  0  0  0
  9 10  1  0  0  0  0
 10 17  1  0  0  0  0
 11 10  2  0  0  0  0
 11 12  1  0  0  0  0
 12 14  2  0  0  0  0
 13 12  1  0  0  0  0
 14 16  1  0  0  0  0
 14 15  1  0  0  0  0
 17 16  2  0  0  0  0
 18  1  1  0  0  0  0
 19 20  2  0  0  0  0
 20 18  1  0  0  0  0
 20 23  1  0  0  0  0
 21 20  1  0  0  0  0
 22 21  1  0  0  0  0
 24 23  1  0  0  0  0
M  END
>  <minimizedAffinity>
-4.72519875

$$$$

 OpenBabel03272506153D

 24 25  0  0  0  0  0  0  0  0999 V2000
   37.4850   25.1580   32.7840 C   0  0  0  0  0  0  0  0  0  0  0  0
   37.2990   23.7820   32.6770 C   0  0  0  0  0  0  0  0  0  0  0  0
   36.3310   23.2610   31.8440 C   0  0  0  0  0  0  0  0  0  0  0  0
   35.5700   24.1490   31.1350 N   0  0  0  0  0  0  0  0  0  0  0  0
   35.7650   25.4850   31.2520 C   0  0  0  0  0  0  0  0  0  0  0  0
   36.7160   25.9860   32.0710 N   0  0  0  0  0  0  0  0  0  0  0  0
   37.9230   23.1550   33.2540 H   0  0  0  0  0  0  0  0  0  0  0  0
   35.1450   26.1640   30.6770 H   0  0  0  0  0  0  0  0  0  0  0  0
   38.3430   21.8560   30.2320 Cl  0  0  0  0  0  0  0  0  0  0  0  0
   36.9760   21.0740   30.9730 C   0  0  0  0  0  0  0  0  0  0  0  0
   36.1030   21.8250   31.7020 C   0  0  0  0  0  0  0  0  0  0  0  0
   35.0400   21.1510   32.2640 C   0  0  0  0  0  0  0  0  0  0  0  0
   34.3240   21.6990   32.8490 H   0  0  0  0  0  0  0  0  0  0  0  0
   34.8900   19.7900   32.0860 C   0  0  0  0  0  0  0  0  0  0  0  0
   34.0220   19.3340   32.5640 H   0  0  0  0  0  0  0  0  0  0  0  0
   35.7780   19.0400   31.3460 C   0  0  0  0  0  3  0  0  0  0  0  0
   36.8400   19.7170   30.7850 C   0  0  0  0  0  3  0  0  0  0  0  0
   38.4210   25.7610   33.5860 O   0  0  0  0  0  0  0  0  0  0  0  0
   39.1290   27.2610   35.7130 O   0  0  0  0  0  0  0  0  0  0  0  0
   38.0130   26.4370   35.1170 P   0  0  0  0  0  0  0  0  0  0  0  0
   36.6320   27.3860   34.8280 O   0  0  0  0  0  0  0  0  0  0  0  0
   36.8760   28.2960   34.5240 H   0  0  0  0  0  0  0  0  0  0  0  0
   37.6680   25.2030   36.2180 O   0  0  0  0  0  0  0  0  0  0  0  0
   36.8080   25.2960   36.6640 H   0  0  0  0  0  0  0  0  0  0  0  0
  1 18  1  0  0  0  0
  2  1  1  0  0  0  0
  2  7  1  0  0  0  0
  3  2  2  0  0  0  0
  4  5  2  0  0  0  0
  4  3  1  0  0  0  0
  5  6  1  0  0  0  0
  6  1  2  0  0  0  0
  8  5  1  0  0  0  0
  9 10  1  0  0  0  0
 10 11  1  0  0  0  0
 11  3  1  0  0  0  0
 11 12  2  0  0  0  0
 12 13  1  0  0  0  0
 14 12  1  0  0  0  0
 14 15  1  0  0  0  0
 16 14  2  0  0  0  0
 17 10  2  0  0  0  0
 17 16  1  0  0  0  0
 18 20  1  0  0  0  0
 20 19  2  0  0  0  0
 20 23  1  0  0  0  0
 21 20  1  0  0  0  0
 22 21  1  0  0  0  0
 23 24  1  0  0  0  0
M  END
>  <minimizedAffinity>
-4.71995449

$$$$
