
 OpenBabel03272510163D

 28 30  0  0  0  0  0  0  0  0999 V2000
   37.3360   29.3990   51.1040 Br  0  0  0  0  0  0  0  0  0  0  0  0
   36.0150   29.3300   49.7210 C   0  0  0  0  0  0  0  0  0  0  0  0
   36.0370   30.2320   48.6670 C   0  0  0  0  0  0  0  0  0  0  0  0
   35.0530   30.1120   47.7200 C   0  0  0  0  0  0  0  0  0  0  0  0
   34.0530   29.1450   47.7660 C   0  0  0  0  0  0  0  0  0  0  0  0
   34.0740   28.2770   48.8260 C   0  0  0  0  0  0  0  0  0  0  0  0
   35.0510   28.3730   49.7950 C   0  0  0  0  0  0  0  0  0  0  0  0
   35.1000   30.8380   46.9030 H   0  0  0  0  0  0  0  0  0  0  0  0
   33.3280   27.5010   48.9260 H   0  0  0  0  0  0  0  0  0  0  0  0
   35.0380   27.6740   50.6160 H   0  0  0  0  0  0  0  0  0  0  0  0
   37.9740   33.2090   49.4700 C   0  0  0  0  0  0  0  0  0  0  0  0
   39.0030   33.2230   48.4980 C   0  0  0  0  0  0  0  0  0  0  0  0
   39.0140   32.1920   47.5660 C   0  0  0  0  0  0  0  0  0  0  0  0
   38.0390   31.2200   47.6310 N   0  0  0  0  0  0  0  0  0  0  0  0
   37.0740   31.2590   48.5910 C   0  0  0  0  0  0  0  0  0  0  0  0
   37.0480   32.2480   49.5000 N   0  0  0  0  0  0  0  0  0  0  0  0
   37.9890   34.0240   50.1830 H   0  0  0  0  0  0  0  0  0  0  0  0
   39.7390   34.0140   48.4990 H   0  0  0  0  0  0  0  0  0  0  0  0
   39.7830   32.1660   46.8070 H   0  0  0  0  0  0  0  0  0  0  0  0
   31.4060   27.7800   48.4460 Cl  0  0  0  0  0  0  0  0  0  0  0  0
   31.8120   28.4890   46.9140 C   0  0  0  0  0  0  0  0  0  0  0  0
   33.0390   29.0800   46.7190 C   0  0  0  0  0  0  0  0  0  0  0  0
   33.3100   29.6330   45.4670 C   0  0  0  0  0  0  0  0  0  0  0  0
   34.2900   30.1050   45.3120 H   0  0  0  0  0  0  0  0  0  0  0  0
   32.4140   29.6180   44.4230 C   0  0  0  0  0  0  0  0  0  0  0  0
   32.6280   30.0470   43.4570 H   0  0  0  0  0  0  0  0  0  0  0  0
   31.1980   29.0120   44.6760 C   0  0  0  0  0  3  0  0  0  0  0  0
   30.8620   28.4440   45.8890 C   0  0  0  0  0  3  0  0  0  0  0  0
  2  7  1  0  0  0  0
  2  1  1  0  0  0  0
  3  2  2  0  0  0  0
  4  5  2  0  0  0  0
  4  3  1  0  0  0  0
  5  6  1  0  0  0  0
  6  9  1  0  0  0  0
  6  7  2  0  0  0  0
  7 10  1  0  0  0  0
  8  4  1  0  0  0  0
 11 16  1  0  0  0  0
 11 17  1  0  0  0  0
 12 18  1  0  0  0  0
 12 11  2  0  0  0  0
 13 14  2  0  0  0  0
 13 12  1  0  0  0  0
 14 15  1  0  0  0  0
 15  3  1  0  0  0  0
 15 16  2  0  0  0  0
 19 13  1  0  0  0  0
 21 20  1  0  0  0  0
 22 21  1  0  0  0  0
 22  5  1  0  0  0  0
 23 22  2  0  0  0  0
 24 23  1  0  0  0  0
 25 27  2  0  0  0  0
 25 23  1  0  0  0  0
 26 25  1  0  0  0  0
 27 28  1  0  0  0  0
 28 21  2  0  0  0  0
M  END
>  <minimizedAffinity>
-6.14585161

>  <minimizedRMSD>
0.136762813

$$$$
