
 OpenBabel03272507453D

 33 35  0  0  0  0  0  0  0  0999 V2000
   32.4420   28.1950   47.4530 N   0  0  0  0  0  0  0  0  0  0  0  0
   33.5580   27.4350   47.9390 C   0  0  0  0  0  0  0  0  0  0  0  0
   34.8020   28.1270   48.2560 C   0  0  0  0  0  0  0  0  0  0  0  0
   35.0710   29.4060   47.5190 C   0  0  0  0  0  0  0  0  0  0  0  0
   33.8680   30.1040   46.9900 C   0  0  0  0  0  0  0  0  0  0  0  0
   32.9140   29.0540   46.3950 C   0  0  0  0  0  0  0  0  0  0  0  0
   33.1880   26.8400   48.8080 H   0  0  0  0  0  0  0  0  0  0  0  0
   33.7420   26.6450   47.1530 H   0  0  0  0  0  0  0  0  0  0  0  0
   35.6660   27.4430   48.1300 H   0  0  0  0  0  0  0  0  0  0  0  0
   34.8070   28.3470   49.3630 H   0  0  0  0  0  0  0  0  0  0  0  0
   35.6190   29.0600   46.5750 H   0  0  0  0  0  0  0  0  0  0  0  0
   34.1800   30.7090   46.0860 H   0  0  0  0  0  0  0  0  0  0  0  0
   33.3510   30.8020   47.6300 H   0  0  0  0  0  0  0  0  0  0  0  0
   33.4690   28.5220   45.5970 H   0  0  0  0  0  0  0  0  0  0  0  0
   32.0370   29.5320   45.9430 H   0  0  0  0  0  0  0  0  0  0  0  0
   31.0930   28.1260   47.9250 C   0  0  0  0  0  0  0  0  0  0  0  0
   29.9580   28.4680   47.1750 C   0  0  0  0  0  0  0  0  0  0  0  0
   28.7330   28.3330   47.8070 C   0  0  0  0  0  0  0  0  0  0  0  0
   28.6710   27.8880   49.0900 N   0  0  0  0  0  0  0  0  0  0  0  0
   29.7910   27.5720   49.7740 C   0  0  0  0  0  0  0  0  0  0  0  0
   30.9970   27.6910   49.1880 N   0  0  0  0  0  0  0  0  0  0  0  0
   30.1510   28.8030   46.1750 H   0  0  0  0  0  0  0  0  0  0  0  0
   27.8660   28.6010   47.2160 H   0  0  0  0  0  0  0  0  0  0  0  0
   29.6950   27.2210   50.7930 H   0  0  0  0  0  0  0  0  0  0  0  0
   34.4960   30.5070   50.3690 Cl  0  0  0  0  0  0  0  0  0  0  0  0
   35.8950   30.8720   49.4240 C   0  0  0  0  0  0  0  0  0  0  0  0
   36.0340   30.3030   48.1740 C   0  0  0  0  0  0  0  0  0  0  0  0
   37.2340   30.6990   47.5640 C   0  0  0  0  0  0  0  0  0  0  0  0
   37.4320   30.2910   46.5590 H   0  0  0  0  0  0  0  0  0  0  0  0
   38.1950   31.5400   48.0810 C   0  0  0  0  0  0  0  0  0  0  0  0
   39.0730   31.7610   47.5030 H   0  0  0  0  0  0  0  0  0  0  0  0
   37.9580   32.0530   49.3350 C   0  0  0  0  0  0  0  0  0  0  0  0
   36.8190   31.7210   49.9970 C   0  0  0  0  0  0  0  0  0  0  0  0
  1 16  1  0  0  0  0
  1  2  1  0  0  0  0
  2  3  1  0  0  0  0
  2  7  1  0  0  0  0
  3 10  1  0  0  0  0
  4 27  1  0  0  0  0
  4  3  1  0  0  0  0
  5  4  1  0  0  0  0
  5 13  1  0  0  0  0
  6  5  1  0  0  0  0
  6  1  1  0  0  0  0
  8  2  1  0  0  0  0
  9  3  1  0  0  0  0
 11  4  1  0  0  0  0
 12  5  1  0  0  0  0
 14  6  1  0  0  0  0
 15  6  1  0  0  0  0
 16 21  1  0  0  0  0
 17 18  1  0  0  0  0
 17 16  2  0  0  0  0
 18 19  2  0  0  0  0
 19 20  1  0  0  0  0
 20 24  1  0  0  0  0
 21 20  2  0  0  0  0
 22 17  1  0  0  0  0
 23 18  1  0  0  0  0
 26 33  1  0  0  0  0
 26 25  1  0  0  0  0
 27 26  2  0  0  0  0
 28 30  2  0  0  0  0
 28 27  1  0  0  0  0
 29 28  1  0  0  0  0
 30 32  1  0  0  0  0
 31 30  1  0  0  0  0
 32 33  2  0  0  0  0
M  END
>  <minimizedAffinity>
-5.59323406

>  <minimizedRMSD>
4.43513536

$$$$
