
 OpenBabel03272510173D

 28 30  0  0  0  0  0  0  0  0999 V2000
   37.1940   29.4740   51.1420 Br  0  0  0  0  0  0  0  0  0  0  0  0
   35.9410   29.3450   49.7000 C   0  0  0  0  0  0  0  0  0  0  0  0
   36.0260   30.1910   48.6040 C   0  0  0  0  0  0  0  0  0  0  0  0
   35.0880   30.0300   47.6160 C   0  0  0  0  0  0  0  0  0  0  0  0
   34.0770   29.0760   47.6620 C   0  0  0  0  0  0  0  0  0  0  0  0
   34.0350   28.2640   48.7650 C   0  0  0  0  0  0  0  0  0  0  0  0
   34.9640   28.4020   49.7750 C   0  0  0  0  0  0  0  0  0  0  0  0
   35.1850   30.7130   46.7660 H   0  0  0  0  0  0  0  0  0  0  0  0
   33.2760   27.5010   48.8680 H   0  0  0  0  0  0  0  0  0  0  0  0
   34.9020   27.7460   50.6300 H   0  0  0  0  0  0  0  0  0  0  0  0
   37.9960   33.1500   49.3950 C   0  0  0  0  0  0  0  0  0  0  0  0
   39.0330   33.1400   48.4320 C   0  0  0  0  0  0  0  0  0  0  0  0
   39.0380   32.1000   47.5100 C   0  0  0  0  0  0  0  0  0  0  0  0
   38.0500   31.1420   47.5750 N   0  0  0  0  0  0  0  0  0  0  0  0
   37.0780   31.2030   48.5270 C   0  0  0  0  0  0  0  0  0  0  0  0
   37.0570   32.2010   49.4260 N   0  0  0  0  0  0  0  0  0  0  0  0
   38.0150   33.9710   50.1000 H   0  0  0  0  0  0  0  0  0  0  0  0
   39.7790   33.9220   48.4320 H   0  0  0  0  0  0  0  0  0  0  0  0
   39.8130   32.0570   46.7570 H   0  0  0  0  0  0  0  0  0  0  0  0
   33.9540   26.4240   46.1510 Cl  0  0  0  0  0  0  0  0  0  0  0  0
   32.9750   27.8200   45.8230 C   0  0  0  0  0  0  0  0  0  0  0  0
   33.1150   28.9660   46.5700 C   0  0  0  0  0  0  0  0  0  0  0  0
   32.3010   30.0550   46.2610 C   0  0  0  0  0  0  0  0  0  0  0  0
   32.4130   30.9700   46.8580 H   0  0  0  0  0  0  0  0  0  0  0  0
   31.3680   30.0400   45.2490 C   0  0  0  0  0  0  0  0  0  0  0  0
   30.7400   30.8870   45.0140 H   0  0  0  0  0  0  0  0  0  0  0  0
   31.2710   28.8630   44.5330 C   0  0  0  0  0  3  0  0  0  0  0  0
   32.0420   27.7470   44.7820 C   0  0  0  0  0  3  0  0  0  0  0  0
  2  7  1  0  0  0  0
  2  1  1  0  0  0  0
  3  2  2  0  0  0  0
  4  5  2  0  0  0  0
  4  3  1  0  0  0  0
  5  6  1  0  0  0  0
  6  9  1  0  0  0  0
  6  7  2  0  0  0  0
  7 10  1  0  0  0  0
  8  4  1  0  0  0  0
 11 16  1  0  0  0  0
 11 17  1  0  0  0  0
 12 18  1  0  0  0  0
 12 11  2  0  0  0  0
 13 14  2  0  0  0  0
 13 12  1  0  0  0  0
 14 15  1  0  0  0  0
 15  3  1  0  0  0  0
 15 16  2  0  0  0  0
 19 13  1  0  0  0  0
 21 20  1  0  0  0  0
 21 22  1  0  0  0  0
 22  5  1  0  0  0  0
 23 22  2  0  0  0  0
 23 24  1  0  0  0  0
 25 23  1  0  0  0  0
 26 25  1  0  0  0  0
 27 28  1  0  0  0  0
 27 25  2  0  0  0  0
 28 21  2  0  0  0  0
M  END
>  <minimizedAffinity>
-6.03336048

>  <minimizedRMSD>
0.654302597

$$$$
