
 OpenBabel03272510163D

 28 30  0  0  0  0  0  0  0  0999 V2000
   37.3370   29.4010   51.1040 Br  0  0  0  0  0  0  0  0  0  0  0  0
   36.0150   29.3320   49.7210 C   0  0  0  0  0  0  0  0  0  0  0  0
   36.0380   30.2330   48.6670 C   0  0  0  0  0  0  0  0  0  0  0  0
   35.0540   30.1120   47.7200 C   0  0  0  0  0  0  0  0  0  0  0  0
   34.0540   29.1460   47.7670 C   0  0  0  0  0  0  0  0  0  0  0  0
   34.0750   28.2780   48.8270 C   0  0  0  0  0  0  0  0  0  0  0  0
   35.0510   28.3750   49.7960 C   0  0  0  0  0  0  0  0  0  0  0  0
   35.1010   30.8390   46.9030 H   0  0  0  0  0  0  0  0  0  0  0  0
   33.3280   27.5030   48.9280 H   0  0  0  0  0  0  0  0  0  0  0  0
   35.0380   27.6760   50.6180 H   0  0  0  0  0  0  0  0  0  0  0  0
   37.9760   33.2100   49.4690 C   0  0  0  0  0  0  0  0  0  0  0  0
   39.0040   33.2240   48.4960 C   0  0  0  0  0  0  0  0  0  0  0  0
   39.0140   32.1930   47.5640 C   0  0  0  0  0  0  0  0  0  0  0  0
   38.0400   31.2210   47.6290 N   0  0  0  0  0  0  0  0  0  0  0  0
   37.0750   31.2600   48.5900 C   0  0  0  0  0  0  0  0  0  0  0  0
   37.0490   32.2490   49.4990 N   0  0  0  0  0  0  0  0  0  0  0  0
   37.9910   34.0250   50.1820 H   0  0  0  0  0  0  0  0  0  0  0  0
   39.7400   34.0150   48.4970 H   0  0  0  0  0  0  0  0  0  0  0  0
   39.7830   32.1670   46.8040 H   0  0  0  0  0  0  0  0  0  0  0  0
   31.4080   27.7800   48.4470 Cl  0  0  0  0  0  0  0  0  0  0  0  0
   31.8130   28.4890   46.9150 C   0  0  0  0  0  0  0  0  0  0  0  0
   33.0400   29.0800   46.7200 C   0  0  0  0  0  0  0  0  0  0  0  0
   33.3100   29.6340   45.4680 C   0  0  0  0  0  0  0  0  0  0  0  0
   34.2900   30.1060   45.3120 H   0  0  0  0  0  0  0  0  0  0  0  0
   32.4140   29.6180   44.4230 C   0  0  0  0  0  0  0  0  0  0  0  0
   32.6290   30.0480   43.4560 H   0  0  0  0  0  0  0  0  0  0  0  0
   31.1990   29.0110   44.6770 C   0  0  0  0  0  3  0  0  0  0  0  0
   30.8630   28.4430   45.8880 C   0  0  0  0  0  3  0  0  0  0  0  0
  2  7  1  0  0  0  0
  2  1  1  0  0  0  0
  3  2  2  0  0  0  0
  4  5  2  0  0  0  0
  4  3  1  0  0  0  0
  5  6  1  0  0  0  0
  6  9  1  0  0  0  0
  6  7  2  0  0  0  0
  7 10  1  0  0  0  0
  8  4  1  0  0  0  0
 11 16  1  0  0  0  0
 11 17  1  0  0  0  0
 12 18  1  0  0  0  0
 12 11  2  0  0  0  0
 13 14  2  0  0  0  0
 13 12  1  0  0  0  0
 14 15  1  0  0  0  0
 15  3  1  0  0  0  0
 15 16  2  0  0  0  0
 19 13  1  0  0  0  0
 21 20  1  0  0  0  0
 22 21  1  0  0  0  0
 22  5  1  0  0  0  0
 23 22  2  0  0  0  0
 24 23  1  0  0  0  0
 25 27  2  0  0  0  0
 25 23  1  0  0  0  0
 26 25  1  0  0  0  0
 27 28  1  0  0  0  0
 28 21  2  0  0  0  0
M  END
>  <minimizedAffinity>
-6.14993715

>  <minimizedRMSD>
0.155954063

$$$$
