
 OpenBabel03272507193D

 30 32  0  0  1  0  0  0  0  0999 V2000
   37.7720   32.2530   49.0280 C   0  0  0  0  0  0  0  0  0  0  0  0
   38.5700   33.3440   49.3440 C   0  0  0  0  0  0  0  0  0  0  0  0
   39.4930   33.7190   48.3780 C   0  0  0  0  0  0  0  0  0  0  0  0
   39.5770   33.0270   47.1950 N   0  0  0  0  0  0  0  0  0  0  0  0
   38.7730   31.9700   46.9370 C   0  0  0  0  0  0  0  0  0  0  0  0
   37.8610   31.5690   47.8490 N   0  0  0  0  0  0  0  0  0  0  0  0
   38.4630   33.8430   50.2730 H   0  0  0  0  0  0  0  0  0  0  0  0
   40.1540   34.5580   48.5460 H   0  0  0  0  0  0  0  0  0  0  0  0
   40.0640   33.9640   44.9690 Cl  0  0  0  0  0  0  0  0  0  0  0  0
   39.7890   32.2860   44.6070 C   0  0  0  0  0  0  0  0  0  0  0  0
   39.2080   31.5820   45.6220 C   0  0  0  0  0  0  0  0  0  0  0  0
   38.9570   30.2320   45.4400 C   0  0  0  0  0  0  0  0  0  0  0  0
   38.5120   29.4480   46.0730 H   0  0  0  0  0  0  0  0  0  0  0  0
   39.3070   29.6350   44.2270 C   0  0  0  0  0  0  0  0  0  0  0  0
   39.1700   28.5930   43.9470 H   0  0  0  0  0  0  0  0  0  0  0  0
   39.8920   30.4240   43.2530 C   0  0  0  0  0  3  0  0  0  0  0  0
   40.1590   31.7660   43.3900 C   0  0  0  0  0  3  0  0  0  0  0  0
   36.7630   31.8420   50.0540 C   0  0  1  0  0  0  0  0  0  0  0  0
   35.6980   30.8880   49.7500 C   0  0  2  0  0  0  0  0  0  0  0  0
   36.9100   30.3530   50.4450 C   0  0  0  0  0  0  0  0  0  0  0  0
   36.6800   32.5300   50.9360 H   0  0  0  0  0  0  0  0  0  0  0  0
   34.7430   31.1220   50.3080 H   0  0  0  0  0  0  0  0  0  0  0  0
   36.7380   30.1120   51.5200 H   0  0  0  0  0  0  0  0  0  0  0  0
   37.6130   29.7230   49.9020 H   0  0  0  0  0  0  0  0  0  0  0  0
   35.4890   30.5770   48.4110 O   0  0  0  0  0  0  0  0  0  0  0  0
   34.5230   29.8040   47.8510 C   0  0  0  0  0  0  0  0  0  0  0  0
   34.5630   28.5440   47.9530 O   0  0  0  0  0  0  0  0  0  0  0  0
   33.5970   30.6360   47.2170 N   0  0  0  0  0  0  0  0  0  0  0  0
   33.9130   31.0470   46.3000 H   0  0  0  0  0  0  0  0  0  0  0  0
   32.8650   30.5320   47.9590 H   0  0  0  0  0  0  0  0  0  0  0  0
  1  2  1  0  0  0  0
  1 18  1  0  0  0  0
  2  7  1  0  0  0  0
  3  8  1  0  0  0  0
  3  2  2  0  0  0  0
  4  3  1  0  0  0  0
  5  4  2  0  0  0  0
  5  6  1  0  0  0  0
  6  1  2  0  0  0  0
 10  9  1  0  0  0  0
 10 11  1  0  0  0  0
 11  5  1  0  0  0  0
 12 11  2  0  0  0  0
 12 13  1  0  0  0  0
 14 12  1  0  0  0  0
 15 14  1  0  0  0  0
 16 17  1  0  0  0  0
 16 14  2  0  0  0  0
 17 10  2  0  0  0  0
 18 20  1  0  0  0  0
 18 21  1  1  0  0  0
 19 18  1  0  0  0  0
 19 22  1  1  0  0  0
 19 20  1  0  0  0  0
 20 23  1  0  0  0  0
 24 20  1  0  0  0  0
 25 19  1  0  0  0  0
 26 27  2  0  0  0  0
 26 25  1  0  0  0  0
 28 26  1  0  0  0  0
 28 30  1  0  0  0  0
 29 28  1  0  0  0  0
M  END
>  <minimizedAffinity>
-6.17353344

>  <minimizedRMSD>
2.15145135

$$$$
