
 OpenBabel03272510163D

 28 30  0  0  0  0  0  0  0  0999 V2000
   37.2020   29.2550   50.9240 Br  0  0  0  0  0  0  0  0  0  0  0  0
   35.9440   29.2810   49.4810 C   0  0  0  0  0  0  0  0  0  0  0  0
   35.9990   30.2640   48.5030 C   0  0  0  0  0  0  0  0  0  0  0  0
   35.0600   30.2070   47.5060 C   0  0  0  0  0  0  0  0  0  0  0  0
   34.0730   29.2290   47.4310 C   0  0  0  0  0  0  0  0  0  0  0  0
   34.0600   28.2800   48.4190 C   0  0  0  0  0  0  0  0  0  0  0  0
   34.9920   28.3110   49.4360 C   0  0  0  0  0  0  0  0  0  0  0  0
   35.1330   30.9970   46.7510 H   0  0  0  0  0  0  0  0  0  0  0  0
   33.3220   27.4910   48.4250 H   0  0  0  0  0  0  0  0  0  0  0  0
   34.9520   27.5490   50.1990 H   0  0  0  0  0  0  0  0  0  0  0  0
   37.8540   33.1910   49.6220 C   0  0  0  0  0  0  0  0  0  0  0  0
   38.9260   33.2920   48.7030 C   0  0  0  0  0  0  0  0  0  0  0  0
   38.9940   32.3360   47.6960 C   0  0  0  0  0  0  0  0  0  0  0  0
   38.0320   31.3510   47.6400 N   0  0  0  0  0  0  0  0  0  0  0  0
   37.0240   31.3050   48.5550 C   0  0  0  0  0  0  0  0  0  0  0  0
   36.9420   32.2200   49.5350 N   0  0  0  0  0  0  0  0  0  0  0  0
   37.8240   33.9480   50.3960 H   0  0  0  0  0  0  0  0  0  0  0  0
   39.6490   34.0890   48.7990 H   0  0  0  0  0  0  0  0  0  0  0  0
   39.7970   32.3780   46.9730 H   0  0  0  0  0  0  0  0  0  0  0  0
   35.1590   28.9680   44.5880 Cl  0  0  0  0  0  0  0  0  0  0  0  0
   33.4840   29.1230   45.0180 C   0  0  0  0  0  0  0  0  0  0  0  0
   33.1080   29.2350   46.3370 C   0  0  0  0  0  0  0  0  0  0  0  0
   31.7490   29.3580   46.6230 C   0  0  0  0  0  0  0  0  0  0  0  0
   31.4480   29.4470   47.6770 H   0  0  0  0  0  0  0  0  0  0  0  0
   30.7690   29.3730   45.6570 C   0  0  0  0  0  0  0  0  0  0  0  0
   29.7180   29.4680   45.8840 H   0  0  0  0  0  0  0  0  0  0  0  0
   31.2050   29.2580   44.3500 C   0  0  0  0  0  3  0  0  0  0  0  0
   32.5320   29.1330   43.9930 C   0  0  0  0  0  3  0  0  0  0  0  0
  2  1  1  0  0  0  0
  3 15  1  0  0  0  0
  3  2  2  0  0  0  0
  4  3  1  0  0  0  0
  5  4  2  0  0  0  0
  5  6  1  0  0  0  0
  6  9  1  0  0  0  0
  6  7  2  0  0  0  0
  7  2  1  0  0  0  0
  7 10  1  0  0  0  0
  8  4  1  0  0  0  0
 11 17  1  0  0  0  0
 12 18  1  0  0  0  0
 12 11  2  0  0  0  0
 13 12  1  0  0  0  0
 14 13  2  0  0  0  0
 14 15  1  0  0  0  0
 15 16  2  0  0  0  0
 16 11  1  0  0  0  0
 19 13  1  0  0  0  0
 20 21  1  0  0  0  0
 21 22  1  0  0  0  0
 22 23  2  0  0  0  0
 22  5  1  0  0  0  0
 23 24  1  0  0  0  0
 25 26  1  0  0  0  0
 25 23  1  0  0  0  0
 27 25  2  0  0  0  0
 28 27  1  0  0  0  0
 28 21  2  0  0  0  0
M  END
>  <minimizedAffinity>
-5.74987841

>  <minimizedRMSD>
0.306757867

$$$$
