REMARK  Name = 
REMARK  2 active torsions:
REMARK  status: ('A' for Active; 'I' for Inactive)
REMARK    1  A    between atoms: C_5  and  C_9
REMARK    2  A    between atoms: C_11  and  C_22
REMARK                            x       y       z     vdW  Elec       q    Type
REMARK                         _______ _______ _______ _____ _____    ______ ____
ROOT
ATOM      1 BR   UNL     1      37.272  29.350  51.047  0.00  0.00    +0.000 Br
ATOM      2  C   UNL     1      35.954  29.315  49.659  0.00  0.00    +0.000 A 
ATOM      3  C   UNL     1      35.997  30.223  48.611  0.00  0.00    +0.000 A 
ATOM      4  C   UNL     1      35.014  30.127  47.660  0.00  0.00    +0.000 A 
ATOM      5  C   UNL     1      33.996  29.179  47.697  0.00  0.00    +0.000 A 
ATOM      6  C   UNL     1      33.997  28.304  48.751  0.00  0.00    +0.000 A 
ATOM      7  C   UNL     1      34.972  28.376  49.724  0.00  0.00    +0.000 A 
ATOM      8  H   UNL     1      35.078  30.858  46.848  0.00  0.00    +0.000 HD
ATOM      9  H   UNL     1      33.236  27.542  48.844  0.00  0.00    +0.000 HD
ATOM     10  H   UNL     1      34.943  27.672  50.541  0.00  0.00    +0.000 HD
ENDROOT
BRANCH   3  15
ATOM     11  C   UNL     1      37.976  33.169  49.427  0.00  0.00    +0.000 A 
ATOM     12  C   UNL     1      39.019  33.159  48.470  0.00  0.00    +0.000 A 
ATOM     13  C   UNL     1      39.025  32.123  47.544  0.00  0.00    +0.000 A 
ATOM     14  N   UNL     1      38.032  31.169  47.599  0.00  0.00    +0.000 NA
ATOM     15  C   UNL     1      37.054  31.231  48.545  0.00  0.00    +0.000 A 
ATOM     16  N   UNL     1      37.032  32.225  49.448  0.00  0.00    +0.000 NA
ATOM     17  H   UNL     1      37.995  33.987  50.136  0.00  0.00    +0.000 HD
ATOM     18  H   UNL     1      39.769  33.937  48.478  0.00  0.00    +0.000 HD
ATOM     19  H   UNL     1      39.804  32.079  46.796  0.00  0.00    +0.000 HD
ENDBRANCH   3  15
BRANCH   5  22
ATOM     20 CL   UNL     1      34.824  30.103  44.905  0.00  0.00    +0.000 Cl
ATOM     21  C   UNL     1      33.246  29.532  45.353  0.00  0.00    +0.000 A 
ATOM     22  C   UNL     1      32.985  29.140  46.646  0.00  0.00    +0.000 A 
ATOM     23  C   UNL     1      31.700  28.690  46.948  0.00  0.00    +0.000 A 
ATOM     24  H   UNL     1      31.491  28.376  47.980  0.00  0.00    +0.000 HD
ATOM     25  C   UNL     1      30.685  28.619  46.021  0.00  0.00    +0.000 A 
ATOM     26  H   UNL     1      29.691  28.269  46.261  0.00  0.00    +0.000 HD
ATOM     27  C   UNL     1      31.005  29.025  44.740  0.00  0.00    +0.000 A 
ATOM     28  C   UNL     1      32.253  29.481  44.370  0.00  0.00    +0.000 A 
ENDBRANCH   5  22
TORSDOF 2
