
     RDKit          3D

 32 34  0  0  0  0  0  0  0  0999 V2000
   36.7501   30.7739   50.7127 C   0  0  1  0  0  0  0  0  0  0  0  0
   36.0316   29.5086   50.8511 C   0  0  2  0  0  0  0  0  0  0  0  0
   37.4740   29.5171   51.2493 C   0  0  0  0  0  0  0  0  0  0  0  0
   37.3107   31.2247   49.3995 C   0  0  0  0  0  0  0  0  0  0  0  0
   38.3144   32.1838   49.4505 C   0  0  0  0  0  0  0  0  0  0  0  0
   38.8149   32.5988   48.2250 C   0  0  0  0  0  0  0  0  0  0  0  0
   38.3202   32.0693   47.0578 N   0  0  0  0  0  0  0  0  0  0  0  0
   37.3405   31.1372   47.0666 C   0  0  0  0  0  0  0  0  0  0  0  0
   36.8226   30.7019   48.2366 N   0  0  0  0  0  0  0  0  0  0  0  0
   35.6527   28.8628   49.6793 O   0  0  0  0  0  0  0  0  0  0  0  0
   34.4305   28.3977   49.3119 C   0  0  0  0  0  0  0  0  0  0  0  0
   34.3228   27.3910   48.5556 O   0  0  0  0  0  0  0  0  0  0  0  0
   33.4520   29.2043   49.9000 N   0  0  0  0  0  0  0  0  0  0  0  0
   36.6337   31.5837   51.4791 H   0  0  0  0  0  0  0  0  0  0  0  0
   35.2004   29.5711   51.6135 H   0  0  0  0  0  0  0  0  0  0  0  0
   37.6319   29.4788   52.3525 H   0  0  0  0  0  0  0  0  0  0  0  0
   38.2118   29.0158   50.6242 H   0  0  0  0  0  0  0  0  0  0  0  0
   38.6590   32.5590   50.3793 H   0  0  0  0  0  0  0  0  0  0  0  0
   39.5986   33.3424   48.1750 H   0  0  0  0  0  0  0  0  0  0  0  0
   33.3171   30.1478   49.4528 H   0  0  0  0  0  0  0  0  0  0  0  0
   33.1941   28.5026   50.6354 H   0  0  0  0  0  0  0  0  0  0  0  0
   37.3533   33.4066   44.9787 Cl  0  0  0  0  0  0  0  0  0  0  0  0
   37.1200   31.7302   44.5846 C   0  0  0  0  0  0  0  0  0  0  0  0
   37.1527   30.8915   45.6618 C   0  0  0  0  0  0  0  0  0  0  0  0
   36.9892   29.5320   45.4544 C   0  0  0  0  0  0  0  0  0  0  0  0
   36.9731   28.6564   46.1243 H   0  0  0  0  0  0  0  0  0  0  0  0
   36.7960   29.0622   44.1535 C   0  0  0  0  0  0  0  0  0  0  0  0
   36.6552   28.0299   43.8456 H   0  0  0  0  0  0  0  0  0  0  0  0
   36.7764   29.9829   43.1214 C   0  0  0  0  0  0  0  0  0  0  0  0
   36.9342   31.3389   43.2796 C   0  0  0  0  0  0  0  0  0  0  0  0
   36.6273   29.6535   42.0885 H   0  0  0  0  0  0  0  0  0  0  0  0
   36.9234   32.0688   42.5043 H   0  0  0  0  0  0  0  0  0  0  0  0
  1  2  1  0
  1  3  1  0
  2  3  1  0
  4  5  2  0
  4  1  1  0
  6  5  1  0
  7  6  2  0
  8  7  1  0
  8  9  2  0
  9  4  1  0
 10  2  1  0
 11 10  1  0
 11 13  1  0
 12 11  2  0
  1 14  1  1
  2 15  1  1
  3 16  1  0
  3 17  1  0
  5 18  1  0
  6 19  1  0
 13 20  1  0
 13 21  1  0
 22 23  1  0
 23 24  2  0
 24 25  1  0
 25 26  1  0
 25 27  2  0
 27 28  1  0
 27 29  1  0
 29 30  2  0
 30 23  1  0
 29 31  1  0
 30 32  1  0
  8 24  1  0
M  ISO  8  14  13  15  13  16  13  17  13  18  14  19  14  26  15  28  16
M  END
>  <DihAtoms>  (1) 
6,7,23,22

>  <DihDeg>  (1) 
-176.04500220133542

$$$$
