
     RDKit          3D

 40 42  0  0  0  0  0  0  0  0999 V2000
   37.7240   30.6995   48.6334 C   0  0  2  0  0  0  0  0  0  0  0  0
   38.5176   31.9037   48.3283 C   0  0  0  0  0  0  0  0  0  0  0  0
   38.5719   32.8241   49.4089 C   0  0  0  0  0  0  0  0  0  0  0  0
   39.2520   34.0145   49.3571 C   0  0  0  0  0  0  0  0  0  0  0  0
   39.9501   34.3928   48.1962 C   0  0  0  0  0  0  0  0  0  0  0  0
   39.8454   33.4387   47.1906 C   0  0  0  0  0  0  0  0  0  0  0  0
   39.1895   32.2726   47.2163 N   0  0  0  0  0  0  0  0  0  0  0  0
   35.5634   29.9836   47.8859 C   0  0  0  0  0  0  0  0  0  0  0  0
   36.7120   30.4769   47.5471 C   0  0  0  0  0  0  0  0  0  0  0  0
   33.7724   29.7796   44.6254 C   0  0  0  0  0  0  0  0  0  0  0  0
   34.7357   29.9847   45.5972 C   0  0  0  0  0  0  0  0  0  0  0  0
   34.5152   29.7381   46.9269 C   0  0  0  0  0  0  0  0  0  0  0  0
   33.2923   29.2766   47.2532 N   0  0  0  0  0  0  0  0  0  0  0  0
   32.3567   29.0743   46.3329 C   0  0  0  0  0  0  0  0  0  0  0  0
   32.5700   29.3152   45.0300 N   0  0  0  0  0  0  0  0  0  0  0  0
   36.8052   31.0785   50.1641 S   0  0  0  0  0  0  0  0  0  0  0  0
   36.8748   29.7128   51.3085 C   0  0  0  0  0  0  0  0  0  0  0  0
   37.5792   30.0032   52.4664 F   0  0  0  0  0  0  0  0  0  0  0  0
   35.6152   29.2163   51.5866 F   0  0  0  0  0  0  0  0  0  0  0  0
   37.5635   28.6742   50.6431 F   0  0  0  0  0  0  0  0  0  0  0  0
   38.3669   29.8116   48.7135 H   0  0  0  0  0  0  0  0  0  0  0  0
   38.1184   32.7604   50.4086 H   0  0  0  0  0  0  0  0  0  0  0  0
   39.3337   34.7564   50.1375 H   0  0  0  0  0  0  0  0  0  0  0  0
   40.5204   35.2742   47.9997 H   0  0  0  0  0  0  0  0  0  0  0  0
   40.3338   33.5871   46.2250 H   0  0  0  0  0  0  0  0  0  0  0  0
   35.3428   29.7403   48.9168 H   0  0  0  0  0  0  0  0  0  0  0  0
   37.0028   30.7425   46.5453 H   0  0  0  0  0  0  0  0  0  0  0  0
   33.9056   29.9610   43.5711 H   0  0  0  0  0  0  0  0  0  0  0  0
   35.6503   30.3539   45.1583 H   0  0  0  0  0  0  0  0  0  0  0  0
   32.2737   27.2847   48.7846 Cl  0  0  0  0  0  0  0  0  0  0  0  0
   30.8998   27.7477   47.8401 C   0  0  0  0  0  0  0  0  0  0  0  0
   31.0461   28.5734   46.7329 C   0  0  0  0  0  0  0  0  0  0  0  0
   29.9048   28.8866   46.0470 C   0  0  0  0  0  0  0  0  0  0  0  0
   30.0460   29.5370   45.1807 H   0  0  0  0  0  0  0  0  0  0  0  0
   28.6213   28.4708   46.3357 C   0  0  0  0  0  0  0  0  0  0  0  0
   27.7711   28.7685   45.7358 H   0  0  0  0  0  0  0  0  0  0  0  0
   28.5183   27.6479   47.4485 C   0  0  0  0  0  0  0  0  0  0  0  0
   29.6262   27.2972   48.1789 C   0  0  0  0  0  0  0  0  0  0  0  0
   27.5468   27.2834   47.7357 H   0  0  0  0  0  0  0  0  0  0  0  0
   29.5139   26.6516   49.0451 H   0  0  0  0  0  0  0  0  0  0  0  0
  1 16  1  0
  2  1  1  0
  2  3  2  0
  4  3  1  0
  5  4  2  0
  6  7  2  0
  6  5  1  0
  7  2  1  0
  9  8  2  0
  9  1  1  0
 10 15  2  0
 10 11  1  0
 11 12  2  0
 12 13  1  0
 12  8  1  0
 14 13  2  0
 15 14  1  0
 16 17  1  0
 17 19  1  0
 17 18  1  0
 20 17  1  0
  1 21  1  1
  3 22  1  0
  4 23  1  0
  5 24  1  0
  6 25  1  0
  8 26  1  0
  9 27  1  0
 10 28  1  0
 11 29  1  0
 30 31  1  0
 31 32  2  0
 32 33  1  0
 33 34  1  0
 33 35  2  0
 35 36  1  0
 35 37  1  0
 37 38  2  0
 38 31  1  0
 37 39  1  0
 38 40  1  0
 14 32  1  0
M  ISO  8  21   8  22  14  23  14  24  14  25  14  28  14  29  14  34  15
M  ISO  1  36  16
M  END
>  <DihAtoms>  (1) 
12,13,31,30

>  <DihDeg>  (1) 
0.00033126393274799157

$$$$
