
 OpenBabel03272502343D

 36 38  0  0  1  0  0  0  0  0999 V2000
   35.5870   29.9220   47.9230 C   0  0  0  0  0  3  0  0  0  0  0  0
   36.7370   30.4060   47.5730 C   0  0  0  0  0  3  0  0  0  0  0  0
   33.8560   29.4730   44.6540 C   0  0  0  0  0  0  0  0  0  0  0  0
   34.8100   29.7250   45.6250 C   0  0  0  0  0  0  0  0  0  0  0  0
   34.5470   29.6360   46.9670 C   0  0  0  0  0  0  0  0  0  0  0  0
   33.2910   29.2850   47.3060 N   0  0  0  0  0  0  0  0  0  0  0  0
   32.3650   29.0390   46.3880 C   0  0  0  0  0  0  0  0  0  0  0  0
   32.6200   29.1250   45.0730 N   0  0  0  0  0  0  0  0  0  0  0  0
   34.0230   29.5310   43.5910 H   0  0  0  0  0  0  0  0  0  0  0  0
   35.7540   29.9900   45.1740 H   0  0  0  0  0  0  0  0  0  0  0  0
   30.0800   30.6850   45.2540 Cl  0  0  0  0  0  0  0  0  0  0  0  0
   29.9040   29.3510   46.3420 C   0  0  0  0  0  0  0  0  0  0  0  0
   31.0180   28.6610   46.8030 C   0  0  0  0  0  0  0  0  0  0  0  0
   30.7840   27.6200   47.6590 C   0  0  0  0  0  0  0  0  0  0  0  0
   31.6750   27.0940   48.0070 H   0  0  0  0  0  0  0  0  0  0  0  0
   29.5580   27.1800   48.1150 C   0  0  0  0  0  0  0  0  0  0  0  0
   29.4630   26.3430   48.7940 H   0  0  0  0  0  0  0  0  0  0  0  0
   28.4710   27.8950   47.6300 C   0  0  0  0  0  3  0  0  0  0  0  0
   28.6410   28.9490   46.7690 C   0  0  0  0  0  3  0  0  0  0  0  0
   37.7410   30.6740   48.6560 C   0  0  1  0  0  0  0  0  0  0  0  0
   38.3950   29.7970   48.7650 H   0  0  0  0  0  0  0  0  0  0  0  0
   38.5200   31.8790   48.3190 C   0  0  0  0  0  0  0  0  0  0  0  0
   38.5980   32.8090   49.3900 C   0  0  0  0  0  0  0  0  0  0  0  0
   39.2710   34.0020   49.3090 C   0  0  0  0  0  0  0  0  0  0  0  0
   39.9360   34.3740   48.1270 C   0  0  0  0  0  0  0  0  0  0  0  0
   39.8090   33.4100   47.1340 C   0  0  0  0  0  0  0  0  0  0  0  0
   39.1610   32.2410   47.1870 N   0  0  0  0  0  0  0  0  0  0  0  0
   38.1710   32.7520   50.4020 H   0  0  0  0  0  0  0  0  0  0  0  0
   39.3690   34.7510   50.0810 H   0  0  0  0  0  0  0  0  0  0  0  0
   40.4960   35.2560   47.9080 H   0  0  0  0  0  0  0  0  0  0  0  0
   40.2720   33.5520   46.1540 H   0  0  0  0  0  0  0  0  0  0  0  0
   36.8100   31.0840   50.1710 S   0  0  0  0  0  0  0  0  0  0  0  0
   36.8570   29.7370   51.3390 C   0  0  0  0  0  0  0  0  0  0  0  0
   37.5230   30.0510   52.5120 F   0  0  0  0  0  0  0  0  0  0  0  0
   35.5930   29.2330   51.5860 F   0  0  0  0  0  0  0  0  0  0  0  0
   37.5740   28.6950   50.7100 F   0  0  0  0  0  0  0  0  0  0  0  0
  2  1  2  0  0  0  0
  2 20  1  0  0  0  0
  3  8  2  0  0  0  0
  3  4  1  0  0  0  0
  4  5  2  0  0  0  0
  5  6  1  0  0  0  0
  5  1  1  0  0  0  0
  7 13  1  0  0  0  0
  7  6  2  0  0  0  0
  8  7  1  0  0  0  0
  9  3  1  0  0  0  0
 10  4  1  0  0  0  0
 11 12  1  0  0  0  0
 12 19  2  0  0  0  0
 12 13  1  0  0  0  0
 13 14  2  0  0  0  0
 14 15  1  0  0  0  0
 14 16  1  0  0  0  0
 16 17  1  0  0  0  0
 18 16  2  0  0  0  0
 19 18  1  0  0  0  0
 20 21  1  1  0  0  0
 20 32  1  0  0  0  0
 22 20  1  0  0  0  0
 22 23  1  0  0  0  0
 23 28  1  0  0  0  0
 24 23  2  0  0  0  0
 24 29  1  0  0  0  0
 25 24  1  0  0  0  0
 26 27  1  0  0  0  0
 26 25  2  0  0  0  0
 27 22  2  0  0  0  0
 30 25  1  0  0  0  0
 31 26  1  0  0  0  0
 32 33  1  0  0  0  0
 33 35  1  0  0  0  0
 33 34  1  0  0  0  0
 36 33  1  0  0  0  0
M  END
>  <minimizedAffinity>
-6.64667654

>  <minimizedRMSD>
0.603121638

$$$$
