REMARK  Name = 
REMARK  6 active torsions:
REMARK  status: ('A' for Active; 'I' for Inactive)
REMARK    1  A    between atoms: C_1  and  C_2
REMARK    2  A    between atoms: C_1  and  C_9
REMARK    3  A    between atoms: C_1  and  S_16
REMARK    4  A    between atoms: C_8  and  C_12
REMARK    5  A    between atoms: C_14  and  C_32
REMARK    6  A    between atoms: S_16  and  C_17
REMARK                            x       y       z     vdW  Elec       q    Type
REMARK                         _______ _______ _______ _____ _____    ______ ____
ROOT
ATOM      1  C   UNL     1      35.563  29.984  47.886  0.00  0.00    +0.000 C 
ATOM      2  C   UNL     1      36.712  30.477  47.547  0.00  0.00    +0.000 C 
ENDROOT
BRANCH   1   5
ATOM      3  C   UNL     1      33.772  29.780  44.625  0.00  0.00    +0.000 A 
ATOM      4  C   UNL     1      34.736  29.985  45.597  0.00  0.00    +0.000 A 
ATOM      5  C   UNL     1      34.515  29.738  46.927  0.00  0.00    +0.000 A 
ATOM      6  N   UNL     1      33.292  29.277  47.253  0.00  0.00    +0.000 NA
ATOM      7  C   UNL     1      32.357  29.074  46.333  0.00  0.00    +0.000 A 
ATOM      8  N   UNL     1      32.570  29.315  45.030  0.00  0.00    +0.000 NA
ATOM      9  H   UNL     1      33.906  29.961  43.571  0.00  0.00    +0.000 HD
ATOM     10  H   UNL     1      35.650  30.354  45.158  0.00  0.00    +0.000 HD
BRANCH   7  13
ATOM     11 CL   UNL     1      31.768  26.159  45.719  0.00  0.00    +0.000 Cl
ATOM     12  C   UNL     1      30.678  27.255  46.498  0.00  0.00    +0.000 A 
ATOM     13  C   UNL     1      31.046  28.573  46.733  0.00  0.00    +0.000 A 
ATOM     14  C   UNL     1      30.120  29.366  47.354  0.00  0.00    +0.000 A 
ATOM     15  H   UNL     1      30.433  30.398  47.528  0.00  0.00    +0.000 HD
ATOM     16  C   UNL     1      28.858  28.998  47.773  0.00  0.00    +0.000 A 
ATOM     17  H   UNL     1      28.187  29.694  48.259  0.00  0.00    +0.000 HD
ATOM     18  C   UNL     1      28.530  27.674  47.519  0.00  0.00    +0.000 A 
ATOM     19  C   UNL     1      29.415  26.827  46.899  0.00  0.00    +0.000 A 
ENDBRANCH   7  13
ENDBRANCH   1   5
BRANCH   2  20
ATOM     20  C   UNL     1      37.724  30.700  48.633  0.00  0.00    +0.000 C 
ATOM     21  H   UNL     1      38.367  29.812  48.714  0.00  0.00    +0.000 HD
BRANCH  20  22
ATOM     22  C   UNL     1      38.518  31.904  48.328  0.00  0.00    +0.000 A 
ATOM     23  C   UNL     1      38.572  32.824  49.409  0.00  0.00    +0.000 A 
ATOM     24  C   UNL     1      39.252  34.014  49.357  0.00  0.00    +0.000 A 
ATOM     25  C   UNL     1      39.950  34.393  48.196  0.00  0.00    +0.000 A 
ATOM     26  C   UNL     1      39.845  33.439  47.191  0.00  0.00    +0.000 A 
ATOM     27  N   UNL     1      39.190  32.273  47.216  0.00  0.00    +0.000 NA
ATOM     28  H   UNL     1      38.118  32.760  50.409  0.00  0.00    +0.000 HD
ATOM     29  H   UNL     1      39.334  34.756  50.138  0.00  0.00    +0.000 HD
ATOM     30  H   UNL     1      40.520  35.274  48.000  0.00  0.00    +0.000 HD
ATOM     31  H   UNL     1      40.334  33.587  46.225  0.00  0.00    +0.000 HD
ENDBRANCH  20  22
BRANCH  20  32
ATOM     32  S   UNL     1      36.805  31.078  50.164  0.00  0.00    +0.000 S 
BRANCH  32  33
ATOM     33  C   UNL     1      36.875  29.713  51.309  0.00  0.00    +0.000 C 
ATOM     34  F   UNL     1      37.579  30.003  52.466  0.00  0.00    +0.000 F 
ATOM     35  F   UNL     1      35.615  29.216  51.587  0.00  0.00    +0.000 F 
ATOM     36  F   UNL     1      37.563  28.674  50.643  0.00  0.00    +0.000 F 
ENDBRANCH  32  33
ENDBRANCH  20  32
ENDBRANCH   2  20
TORSDOF 6
