
 OpenBabel03272502353D

 36 38  0  0  1  0  0  0  0  0999 V2000
   35.5960   29.9760   47.9010 C   0  0  0  0  0  3  0  0  0  0  0  0
   36.7730   30.3980   47.5610 C   0  0  0  0  0  3  0  0  0  0  0  0
   33.9000   29.5610   44.6090 C   0  0  0  0  0  0  0  0  0  0  0  0
   34.8400   29.8150   45.5930 C   0  0  0  0  0  0  0  0  0  0  0  0
   34.5700   29.6860   46.9310 C   0  0  0  0  0  0  0  0  0  0  0  0
   33.3220   29.2930   47.2520 N   0  0  0  0  0  0  0  0  0  0  0  0
   32.4090   29.0450   46.3210 C   0  0  0  0  0  0  0  0  0  0  0  0
   32.6700   29.1700   45.0110 N   0  0  0  0  0  0  0  0  0  0  0  0
   34.0720   29.6500   43.5490 H   0  0  0  0  0  0  0  0  0  0  0  0
   35.7790   30.1160   45.1560 H   0  0  0  0  0  0  0  0  0  0  0  0
   30.0910   30.7000   45.2680 Cl  0  0  0  0  0  0  0  0  0  0  0  0
   29.9430   29.3100   46.2880 C   0  0  0  0  0  0  0  0  0  0  0  0
   31.0700   28.6210   46.7170 C   0  0  0  0  0  0  0  0  0  0  0  0
   30.8560   27.5360   47.5210 C   0  0  0  0  0  0  0  0  0  0  0  0
   31.7570   27.0120   47.8440 H   0  0  0  0  0  0  0  0  0  0  0  0
   29.6400   27.0500   47.9540 C   0  0  0  0  0  0  0  0  0  0  0  0
   29.5620   26.1800   48.5940 H   0  0  0  0  0  0  0  0  0  0  0  0
   28.5390   27.7670   47.5050 C   0  0  0  0  0  3  0  0  0  0  0  0
   28.6870   28.8650   46.6950 C   0  0  0  0  0  3  0  0  0  0  0  0
   37.7580   30.6770   48.6580 C   0  0  1  0  0  0  0  0  0  0  0  0
   38.4190   29.8070   48.7800 H   0  0  0  0  0  0  0  0  0  0  0  0
   38.5320   31.8890   48.3300 C   0  0  0  0  0  0  0  0  0  0  0  0
   38.6030   32.8120   49.4070 C   0  0  0  0  0  0  0  0  0  0  0  0
   39.2700   34.0090   49.3340 C   0  0  0  0  0  0  0  0  0  0  0  0
   39.9340   34.3920   48.1550 C   0  0  0  0  0  0  0  0  0  0  0  0
   39.8130   33.4340   47.1560 C   0  0  0  0  0  0  0  0  0  0  0  0
   39.1710   32.2620   47.2000 N   0  0  0  0  0  0  0  0  0  0  0  0
   38.1760   32.7460   50.4180 H   0  0  0  0  0  0  0  0  0  0  0  0
   39.3640   34.7540   50.1110 H   0  0  0  0  0  0  0  0  0  0  0  0
   40.4890   35.2780   47.9420 H   0  0  0  0  0  0  0  0  0  0  0  0
   40.2760   33.5840   46.1770 H   0  0  0  0  0  0  0  0  0  0  0  0
   36.8010   31.0830   50.1590 S   0  0  0  0  0  0  0  0  0  0  0  0
   36.8470   29.7410   51.3320 C   0  0  0  0  0  0  0  0  0  0  0  0
   37.5130   30.0590   52.5040 F   0  0  0  0  0  0  0  0  0  0  0  0
   35.5830   29.2390   51.5810 F   0  0  0  0  0  0  0  0  0  0  0  0
   37.5630   28.6950   50.7070 F   0  0  0  0  0  0  0  0  0  0  0  0
  2  1  2  0  0  0  0
  2 20  1  0  0  0  0
  3  8  2  0  0  0  0
  3  4  1  0  0  0  0
  4  5  2  0  0  0  0
  5  6  1  0  0  0  0
  5  1  1  0  0  0  0
  7 13  1  0  0  0  0
  7  6  2  0  0  0  0
  8  7  1  0  0  0  0
  9  3  1  0  0  0  0
 10  4  1  0  0  0  0
 11 12  1  0  0  0  0
 12 19  2  0  0  0  0
 12 13  1  0  0  0  0
 13 14  2  0  0  0  0
 14 15  1  0  0  0  0
 14 16  1  0  0  0  0
 16 17  1  0  0  0  0
 18 16  2  0  0  0  0
 19 18  1  0  0  0  0
 20 21  1  1  0  0  0
 20 32  1  0  0  0  0
 22 20  1  0  0  0  0
 22 23  1  0  0  0  0
 23 28  1  0  0  0  0
 24 23  2  0  0  0  0
 24 29  1  0  0  0  0
 25 24  1  0  0  0  0
 26 27  1  0  0  0  0
 26 25  2  0  0  0  0
 27 22  2  0  0  0  0
 30 25  1  0  0  0  0
 31 26  1  0  0  0  0
 32 33  1  0  0  0  0
 33 35  1  0  0  0  0
 33 34  1  0  0  0  0
 36 33  1  0  0  0  0
M  END
>  <minimizedAffinity>
-6.62616014

>  <minimizedRMSD>
0.158987269

$$$$
