
 OpenBabel03272501083D

 40 43  0  0  1  0  0  0  0  0999 V2000
   38.8360   32.3460   47.5370 C   0  0  2  0  0  0  0  0  0  0  0  0
   37.9560   32.5790   48.8090 C   0  0  2  0  0  0  0  0  0  0  0  0
   38.9030   33.2560   49.6740 C   0  0  0  0  0  0  0  0  0  0  0  0
   39.7200   34.0590   48.8930 O   0  0  0  0  0  0  0  0  0  0  0  0
   39.5410   33.7260   47.5900 C   0  0  0  0  0  0  0  0  0  0  0  0
   39.6180   31.6210   47.7330 H   0  0  0  0  0  0  0  0  0  0  0  0
   37.1760   33.2770   48.4370 H   0  0  0  0  0  0  0  0  0  0  0  0
   38.3460   33.9460   50.3750 H   0  0  0  0  0  0  0  0  0  0  0  0
   39.5620   32.6530   50.2930 H   0  0  0  0  0  0  0  0  0  0  0  0
   38.9520   34.4260   46.9740 H   0  0  0  0  0  0  0  0  0  0  0  0
   40.5410   33.6070   47.1010 H   0  0  0  0  0  0  0  0  0  0  0  0
   37.3320   29.3160   50.5710 C   0  0  0  0  0  0  0  0  0  0  0  0
   38.0080   30.5000   50.1660 C   0  0  0  0  0  0  0  0  0  0  0  0
   37.3240   31.3710   49.2670 C   0  0  0  0  0  0  0  0  0  0  0  0
   36.0500   31.0390   48.8300 N   0  0  0  0  0  0  0  0  0  0  0  0
   35.4690   29.9070   49.2510 C   0  0  0  0  0  0  0  0  0  0  0  0
   36.0820   29.0470   50.1060 N   0  0  0  0  0  0  0  0  0  0  0  0
   37.8410   28.6660   51.2410 H   0  0  0  0  0  0  0  0  0  0  0  0
   38.9780   30.7150   50.5220 H   0  0  0  0  0  0  0  0  0  0  0  0
   34.4780   29.6280   48.9230 H   0  0  0  0  0  0  0  0  0  0  0  0
   38.0950   32.2730   46.4070 O   0  0  0  0  0  0  0  0  0  0  0  0
   40.4100   31.6090   44.4780 Cl  0  0  0  0  0  0  0  0  0  0  0  0
   38.8020   30.9440   44.3870 C   0  0  0  0  0  0  0  0  0  0  0  0
   37.9470   31.4090   45.3760 C   0  0  0  0  0  0  0  0  0  0  0  0
   36.6590   30.8960   45.3220 C   0  0  0  0  0  0  0  0  0  0  0  0
   36.2650   29.9910   44.3530 C   0  0  0  0  0  0  0  0  0  0  0  0
   37.1560   29.5720   43.4060 C   0  0  0  0  0  0  0  0  0  0  0  0
   38.4370   30.0510   43.4210 C   0  0  0  0  0  0  0  0  0  0  0  0
   35.8540   31.1370   46.0030 H   0  0  0  0  0  0  0  0  0  0  0  0
   35.2700   29.5700   44.2800 H   0  0  0  0  0  0  0  0  0  0  0  0
   36.8940   28.8760   42.6420 H   0  0  0  0  0  0  0  0  0  0  0  0
   39.4350   27.1700   43.2810 Cl  0  0  0  0  0  0  0  0  0  0  0  0
   40.0530   28.4490   42.2560 C   0  0  0  0  0  0  0  0  0  0  0  0
   39.4790   29.6820   42.4660 C   0  0  0  0  0  0  0  0  0  0  0  0
   39.8900   30.7820   41.7100 C   0  0  0  0  0  0  0  0  0  0  0  0
   39.5120   31.7930   41.7870 H   0  0  0  0  0  0  0  0  0  0  0  0
   40.8770   30.6490   40.7390 C   0  0  0  0  0  0  0  0  0  0  0  0
   41.2280   31.4660   40.1290 H   0  0  0  0  0  0  0  0  0  0  0  0
   41.4470   29.3890   40.5410 C   0  0  0  0  0  3  0  0  0  0  0  0
   41.0300   28.3140   41.2970 C   0  0  0  0  0  3  0  0  0  0  0  0
  1  5  1  0  0  0  0
  1  6  1  1  0  0  0
  1  2  1  0  0  0  0
  2  7  1  6  0  0  0
  2 14  1  0  0  0  0
  2  3  1  0  0  0  0
  3  9  1  0  0  0  0
  3  8  1  0  0  0  0
  4  3  1  0  0  0  0
  5  4  1  0  0  0  0
 10  5  1  0  0  0  0
 11  5  1  0  0  0  0
 12 18  1  0  0  0  0
 13 19  1  0  0  0  0
 13 12  1  0  0  0  0
 14 13  2  0  0  0  0
 15 16  2  0  0  0  0
 15 14  1  0  0  0  0
 16 17  1  0  0  0  0
 17 12  2  0  0  0  0
 20 16  1  0  0  0  0
 21  1  1  0  0  0  0
 23 22  1  0  0  0  0
 23 24  1  0  0  0  0
 24 21  1  0  0  0  0
 25 24  2  0  0  0  0
 25 29  1  0  0  0  0
 26 25  1  0  0  0  0
 27 28  1  0  0  0  0
 27 26  2  0  0  0  0
 28 23  2  0  0  0  0
 30 26  1  0  0  0  0
 31 27  1  0  0  0  0
 33 34  1  0  0  0  0
 33 32  1  0  0  0  0
 34 28  1  0  0  0  0
 35 36  1  0  0  0  0
 35 34  2  0  0  0  0
 37 35  1  0  0  0  0
 38 37  1  0  0  0  0
 39 37  2  0  0  0  0
 39 40  1  0  0  0  0
 40 33  2  0  0  0  0
M  END
>  <minimizedAffinity>
-6.20157909

>  <minimizedRMSD>
1.04012227

$$$$
