
 OpenBabel03272508563D

 40 43  0  0  1  0  0  0  0  0999 V2000
   38.3940   31.8630   44.5010 C   0  0  0  0  0  0  0  0  0  0  0  0
   37.2970   32.4630   44.3980 O   0  0  0  0  0  0  0  0  0  0  0  0
   38.9570   31.5440   45.8060 N   0  0  0  0  0  0  0  0  0  0  0  0
   39.9220   31.2330   45.9500 H   0  0  0  0  0  0  0  0  0  0  0  0
   39.1640   31.4520   43.3080 C   0  0  0  0  0  0  0  0  0  0  0  0
   40.2130   30.5920   43.4640 C   0  0  0  0  0  0  0  0  0  0  0  0
   40.9180   30.2250   42.3300 C   0  0  0  0  0  0  0  0  0  0  0  0
   40.5170   30.7510   41.1160 C   0  0  0  0  0  0  0  0  0  0  0  0
   39.4450   31.6290   40.9590 C   0  0  0  0  0  0  0  0  0  0  0  0
   38.8080   31.9420   42.0940 N   0  0  0  0  0  0  0  0  0  0  0  0
   40.5230   30.1820   44.4140 H   0  0  0  0  0  0  0  0  0  0  0  0
   41.7670   29.5540   42.3210 H   0  0  0  0  0  0  0  0  0  0  0  0
   41.0440   30.4920   40.1860 H   0  0  0  0  0  0  0  0  0  0  0  0
   39.0790   32.1410   39.6490 C   0  0  0  0  0  0  0  0  0  0  0  0
   39.0710   33.3800   39.4670 O   0  0  0  0  0  0  0  0  0  0  0  0
   41.3400   31.9510   37.7870 Cl  0  0  0  0  0  0  0  0  0  0  0  0
   39.7860   31.1560   37.6450 C   0  0  0  0  0  0  0  0  0  0  0  0
   38.7200   31.2540   38.5360 C   0  0  0  0  0  0  0  0  0  0  0  0
   37.5590   30.5790   38.3050 C   0  0  0  0  0  0  0  0  0  0  0  0
   36.8170   30.7330   39.0570 H   0  0  0  0  0  0  0  0  0  0  0  0
   37.4410   29.7910   37.1770 C   0  0  0  0  0  0  0  0  0  0  0  0
   36.4990   29.2700   37.0300 H   0  0  0  0  0  0  0  0  0  0  0  0
   38.4960   29.6750   36.2670 C   0  0  0  0  0  3  0  0  0  0  0  0
   39.6790   30.3610   36.4990 C   0  0  0  0  0  3  0  0  0  0  0  0
   38.4380   31.0670   48.1830 C   0  0  2  0  0  0  0  0  0  0  0  0
   38.6830   32.5310   48.0860 C   0  0  0  0  0  0  0  0  0  0  0  0
   38.0850   31.6820   46.9460 C   0  0  1  0  0  0  0  0  0  0  0  0
   39.3690   30.4750   48.2960 H   0  0  0  0  0  0  0  0  0  0  0  0
   38.0130   33.1800   48.6690 H   0  0  0  0  0  0  0  0  0  0  0  0
   39.7020   32.8960   47.9670 H   0  0  0  0  0  0  0  0  0  0  0  0
   37.0070   31.9570   46.7540 H   0  0  0  0  0  0  0  0  0  0  0  0
   35.0630   30.2370   49.5100 C   0  0  0  0  0  0  0  0  0  0  0  0
   35.3940   29.5520   50.7290 C   0  0  0  0  0  0  0  0  0  0  0  0
   36.7950   29.4010   51.0670 C   0  0  0  0  0  0  0  0  0  0  0  0
   37.7440   29.9100   50.2240 N   0  0  0  0  0  0  0  0  0  0  0  0
   37.3480   30.5420   49.0930 C   0  0  0  0  0  0  0  0  0  0  0  0
   36.0260   30.7260   48.7010 N   0  0  0  0  0  0  0  0  0  0  0  0
   34.0090   30.3290   49.2930 H   0  0  0  0  0  0  0  0  0  0  0  0
   34.6520   29.1580   51.3820 H   0  0  0  0  0  0  0  0  0  0  0  0
   37.0260   28.8930   51.9730 H   0  0  0  0  0  0  0  0  0  0  0  0
  1  3  1  0  0  0  0
  2  1  2  0  0  0  0
  3  4  1  0  0  0  0
  3 27  1  0  0  0  0
  5  6  1  0  0  0  0
  5  1  1  0  0  0  0
  6 11  1  0  0  0  0
  7  6  2  0  0  0  0
  8  7  1  0  0  0  0
  9  8  2  0  0  0  0
  9 10  1  0  0  0  0
 10  5  2  0  0  0  0
 12  7  1  0  0  0  0
 13  8  1  0  0  0  0
 14  9  1  0  0  0  0
 15 14  2  0  0  0  0
 17 16  1  0  0  0  0
 17 18  1  0  0  0  0
 18 14  1  0  0  0  0
 19 18  2  0  0  0  0
 19 20  1  0  0  0  0
 21 19  1  0  0  0  0
 22 21  1  0  0  0  0
 23 24  1  0  0  0  0
 23 21  2  0  0  0  0
 24 17  2  0  0  0  0
 25 28  1  6  0  0  0
 25 36  1  0  0  0  0
 26 25  1  0  0  0  0
 26 29  1  0  0  0  0
 27 31  1  6  0  0  0
 27 26  1  0  0  0  0
 27 25  1  0  0  0  0
 30 26  1  0  0  0  0
 32 33  1  0  0  0  0
 33 34  2  0  0  0  0
 33 39  1  0  0  0  0
 34 40  1  0  0  0  0
 35 34  1  0  0  0  0
 36 35  2  0  0  0  0
 37 36  1  0  0  0  0
 37 32  2  0  0  0  0
 38 32  1  0  0  0  0
M  END
>  <minimizedAffinity>
-4.91714573

>  <minimizedRMSD>
0.64692986

$$$$
