
 OpenBabel03272508563D

 40 43  0  0  1  0  0  0  0  0999 V2000
   38.4650   31.7960   44.5740 C   0  0  0  0  0  0  0  0  0  0  0  0
   37.3690   32.4030   44.5180 O   0  0  0  0  0  0  0  0  0  0  0  0
   39.0570   31.4320   45.8550 N   0  0  0  0  0  0  0  0  0  0  0  0
   40.0240   31.1120   45.9660 H   0  0  0  0  0  0  0  0  0  0  0  0
   39.2060   31.4230   43.3500 C   0  0  0  0  0  0  0  0  0  0  0  0
   40.2460   30.5440   43.4520 C   0  0  0  0  0  0  0  0  0  0  0  0
   40.9230   30.2140   42.2900 C   0  0  0  0  0  0  0  0  0  0  0  0
   40.5050   30.7910   41.1060 C   0  0  0  0  0  0  0  0  0  0  0  0
   39.4420   31.6880   41.0050 C   0  0  0  0  0  0  0  0  0  0  0  0
   38.8320   31.9640   42.1650 N   0  0  0  0  0  0  0  0  0  0  0  0
   40.5700   30.0940   44.3790 H   0  0  0  0  0  0  0  0  0  0  0  0
   41.7630   29.5330   42.2370 H   0  0  0  0  0  0  0  0  0  0  0  0
   41.0090   30.5630   40.1550 H   0  0  0  0  0  0  0  0  0  0  0  0
   39.0560   32.2550   39.7240 C   0  0  0  0  0  0  0  0  0  0  0  0
   39.8840   32.2390   38.7840 O   0  0  0  0  0  0  0  0  0  0  0  0
   37.1960   30.1640   38.8410 Cl  0  0  0  0  0  0  0  0  0  0  0  0
   36.8400   31.8620   39.0790 C   0  0  0  0  0  0  0  0  0  0  0  0
   37.7320   32.8460   39.4980 C   0  0  0  0  0  0  0  0  0  0  0  0
   37.3220   34.1370   39.6420 C   0  0  0  0  0  0  0  0  0  0  0  0
   38.0950   34.7980   39.9680 H   0  0  0  0  0  0  0  0  0  0  0  0
   36.0100   34.4710   39.3700 C   0  0  0  0  0  0  0  0  0  0  0  0
   35.7240   35.5110   39.4970 H   0  0  0  0  0  0  0  0  0  0  0  0
   35.0940   33.5020   38.9470 C   0  0  0  0  0  3  0  0  0  0  0  0
   35.5080   32.1870   38.7990 C   0  0  0  0  0  3  0  0  0  0  0  0
   38.6960   31.0880   48.2830 C   0  0  2  0  0  0  0  0  0  0  0  0
   38.7100   32.5590   48.0590 C   0  0  0  0  0  0  0  0  0  0  0  0
   38.2120   31.5340   47.0180 C   0  0  1  0  0  0  0  0  0  0  0  0
   39.7100   30.6550   48.4000 H   0  0  0  0  0  0  0  0  0  0  0  0
   37.9680   33.1480   48.6180 H   0  0  0  0  0  0  0  0  0  0  0  0
   39.6560   33.0610   47.8650 H   0  0  0  0  0  0  0  0  0  0  0  0
   37.1000   31.6270   46.8550 H   0  0  0  0  0  0  0  0  0  0  0  0
   35.7910   29.2350   49.6860 C   0  0  0  0  0  0  0  0  0  0  0  0
   36.0180   29.3710   51.0970 C   0  0  0  0  0  0  0  0  0  0  0  0
   37.1820   30.1160   51.5320 C   0  0  0  0  0  0  0  0  0  0  0  0
   38.0150   30.6600   50.5940 N   0  0  0  0  0  0  0  0  0  0  0  0
   37.7300   30.4850   49.2810 C   0  0  0  0  0  0  0  0  0  0  0  0
   36.6340   29.7850   48.7870 N   0  0  0  0  0  0  0  0  0  0  0  0
   34.9140   28.6720   49.4020 H   0  0  0  0  0  0  0  0  0  0  0  0
   35.3660   28.9460   51.8240 H   0  0  0  0  0  0  0  0  0  0  0  0
   37.3370   30.2100   52.5810 H   0  0  0  0  0  0  0  0  0  0  0  0
  1  3  1  0  0  0  0
  2  1  2  0  0  0  0
  3  4  1  0  0  0  0
  3 27  1  0  0  0  0
  5  6  1  0  0  0  0
  5  1  1  0  0  0  0
  6 11  1  0  0  0  0
  7  6  2  0  0  0  0
  8  7  1  0  0  0  0
  9  8  2  0  0  0  0
  9 10  1  0  0  0  0
 10  5  2  0  0  0  0
 12  7  1  0  0  0  0
 13  8  1  0  0  0  0
 14  9  1  0  0  0  0
 15 14  2  0  0  0  0
 16 17  1  0  0  0  0
 17 18  1  0  0  0  0
 18 19  2  0  0  0  0
 18 14  1  0  0  0  0
 19 20  1  0  0  0  0
 21 22  1  0  0  0  0
 21 19  1  0  0  0  0
 23 21  2  0  0  0  0
 24 23  1  0  0  0  0
 24 17  2  0  0  0  0
 25 28  1  6  0  0  0
 25 36  1  0  0  0  0
 26 25  1  0  0  0  0
 26 29  1  0  0  0  0
 27 31  1  6  0  0  0
 27 26  1  0  0  0  0
 27 25  1  0  0  0  0
 30 26  1  0  0  0  0
 32 33  1  0  0  0  0
 33 34  2  0  0  0  0
 33 39  1  0  0  0  0
 34 40  1  0  0  0  0
 35 34  1  0  0  0  0
 36 35  2  0  0  0  0
 37 36  1  0  0  0  0
 37 32  2  0  0  0  0
 38 32  1  0  0  0  0
M  END
>  <minimizedAffinity>
-5.28184843

>  <minimizedRMSD>
2.44010973

$$$$
