
 OpenBabel03272508563D

 40 43  0  0  1  0  0  0  0  0999 V2000
   37.8970   31.6180   45.2610 C   0  0  0  0  0  0  0  0  0  0  0  0
   36.8600   30.9380   45.4480 O   0  0  0  0  0  0  0  0  0  0  0  0
   38.4090   32.5080   46.2940 N   0  0  0  0  0  0  0  0  0  0  0  0
   39.1290   33.2180   46.1300 H   0  0  0  0  0  0  0  0  0  0  0  0
   38.6470   31.5490   43.9880 C   0  0  0  0  0  0  0  0  0  0  0  0
   39.8110   30.8360   43.9460 C   0  0  0  0  0  0  0  0  0  0  0  0
   40.4930   30.7900   42.7420 C   0  0  0  0  0  0  0  0  0  0  0  0
   39.9540   31.4660   41.6630 C   0  0  0  0  0  0  0  0  0  0  0  0
   38.7650   32.1920   41.7080 C   0  0  0  0  0  0  0  0  0  0  0  0
   38.1570   32.1960   42.9010 N   0  0  0  0  0  0  0  0  0  0  0  0
   40.2280   30.3090   44.7910 H   0  0  0  0  0  0  0  0  0  0  0  0
   41.4230   30.2620   42.5790 H   0  0  0  0  0  0  0  0  0  0  0  0
   40.4570   31.4610   40.6840 H   0  0  0  0  0  0  0  0  0  0  0  0
   38.2580   32.8780   40.5300 C   0  0  0  0  0  0  0  0  0  0  0  0
   38.8200   33.9330   40.1590 O   0  0  0  0  0  0  0  0  0  0  0  0
   35.8410   34.3460   41.3170 Cl  0  0  0  0  0  0  0  0  0  0  0  0
   35.9580   33.0620   40.1310 C   0  0  0  0  0  0  0  0  0  0  0  0
   37.1110   32.3720   39.7670 C   0  0  0  0  0  0  0  0  0  0  0  0
   37.0610   31.3890   38.8250 C   0  0  0  0  0  0  0  0  0  0  0  0
   38.0080   30.9340   38.6310 H   0  0  0  0  0  0  0  0  0  0  0  0
   35.8570   31.0750   38.2280 C   0  0  0  0  0  0  0  0  0  0  0  0
   35.8610   30.2850   37.4820 H   0  0  0  0  0  0  0  0  0  0  0  0
   34.6840   31.7520   38.5760 C   0  0  0  0  0  0  0  0  0  0  0  0
   34.7300   32.7530   39.5340 C   0  0  0  0  0  0  0  0  0  0  0  0
   38.4620   31.4570   48.5390 C   0  0  2  0  0  0  0  0  0  0  0  0
   38.7720   32.8980   48.7360 C   0  0  0  0  0  0  0  0  0  0  0  0
   37.8560   32.3610   47.6170 C   0  0  1  0  0  0  0  0  0  0  0  0
   39.3500   30.8520   48.2650 H   0  0  0  0  0  0  0  0  0  0  0  0
   38.3110   33.3840   49.6090 H   0  0  0  0  0  0  0  0  0  0  0  0
   39.7520   33.2780   48.4520 H   0  0  0  0  0  0  0  0  0  0  0  0
   36.7860   32.6780   47.7780 H   0  0  0  0  0  0  0  0  0  0  0  0
   35.6600   29.4860   49.9910 C   0  0  0  0  0  0  0  0  0  0  0  0
   36.0670   29.3760   51.3630 C   0  0  0  0  0  0  0  0  0  0  0  0
   37.3140   30.0010   51.7570 C   0  0  0  0  0  0  0  0  0  0  0  0
   38.0520   30.6680   50.8180 N   0  0  0  0  0  0  0  0  0  0  0  0
   37.5960   30.7250   49.5430 C   0  0  0  0  0  0  0  0  0  0  0  0
   36.4130   30.1520   49.0900 N   0  0  0  0  0  0  0  0  0  0  0  0
   34.7260   29.0070   49.7360 H   0  0  0  0  0  0  0  0  0  0  0  0
   35.4900   28.8550   52.0910 H   0  0  0  0  0  0  0  0  0  0  0  0
   37.6030   29.9120   52.7770 H   0  0  0  0  0  0  0  0  0  0  0  0
  1  2  2  0  0  0  0
  1  3  1  0  0  0  0
  3 27  1  0  0  0  0
  4  3  1  0  0  0  0
  5  1  1  0  0  0  0
  6  5  1  0  0  0  0
  6 11  1  0  0  0  0
  7  6  2  0  0  0  0
  8  9  2  0  0  0  0
  8  7  1  0  0  0  0
  9 10  1  0  0  0  0
 10  5  2  0  0  0  0
 12  7  1  0  0  0  0
 13  8  1  0  0  0  0
 14  9  1  0  0  0  0
 15 14  2  0  0  0  0
 17 16  1  0  0  0  0
 18 17  1  0  0  0  0
 18 14  1  0  0  0  0
 19 18  2  0  0  0  0
 20 19  1  0  0  0  0
 21 23  2  0  0  0  0
 21 19  1  0  0  0  0
 22 21  1  0  0  0  0
 23 24  1  0  0  0  0
 24 17  2  0  0  0  0
 25 28  1  6  0  0  0
 25 26  1  0  0  0  0
 25 36  1  0  0  0  0
 26 29  1  0  0  0  0
 27 31  1  1  0  0  0
 27 25  1  0  0  0  0
 27 26  1  0  0  0  0
 30 26  1  0  0  0  0
 32 33  1  0  0  0  0
 33 34  2  0  0  0  0
 33 39  1  0  0  0  0
 34 40  1  0  0  0  0
 35 34  1  0  0  0  0
 36 35  2  0  0  0  0
 37 36  1  0  0  0  0
 37 32  2  0  0  0  0
 38 32  1  0  0  0  0
M  END
>  <minimizedAffinity>
-5.47103786

>  <minimizedRMSD>
2.33585453

$$$$
