
 OpenBabel03272500553D

 32 34  0  0  0  0  0  0  0  0999 V2000
   37.2460   27.7080   32.8000 C   0  0  0  0  0  0  0  0  0  0  0  0
   37.9840   27.3950   31.6510 C   0  0  0  0  0  0  0  0  0  0  0  0
   37.7110   27.9770   30.4220 C   0  0  0  0  0  0  0  0  0  0  0  0
   36.6490   28.9180   30.3270 C   0  0  0  0  0  0  0  0  0  0  0  0
   35.9590   29.1890   31.4750 C   0  0  0  0  0  0  0  0  0  0  0  0
   36.2230   28.6270   32.6840 C   0  0  0  0  0  0  0  0  0  0  0  0
   38.8030   26.6710   31.7090 H   0  0  0  0  0  0  0  0  0  0  0  0
   38.3540   27.6610   29.5840 H   0  0  0  0  0  0  0  0  0  0  0  0
   36.5770   29.2630   29.3200 H   0  0  0  0  0  0  0  0  0  0  0  0
   35.1990   29.8660   31.1510 H   0  0  0  0  0  0  0  0  0  0  0  0
   38.1570   27.7260   35.0440 C   0  0  0  0  0  0  0  0  0  0  0  0
   37.6170   26.9650   33.9920 C   0  0  0  0  0  0  0  0  0  0  0  0
   37.4950   25.5810   34.1970 C   0  0  0  0  0  0  0  0  0  0  0  0
   37.8900   25.0470   35.3640 N   0  0  0  0  0  0  0  0  0  0  0  0
   38.4030   25.7810   36.3580 C   0  0  0  0  0  0  0  0  0  0  0  0
   38.5320   27.1100   36.1910 N   0  0  0  0  0  0  0  0  0  0  0  0
   38.2870   28.7990   34.9720 H   0  0  0  0  0  0  0  0  0  0  0  0
   37.0720   25.0430   33.3520 H   0  0  0  0  0  0  0  0  0  0  0  0
   38.6820   25.2360   37.2450 H   0  0  0  0  0  0  0  0  0  0  0  0
   35.4120   30.3660   34.0340 C   0  0  0  0  0  0  0  0  0  0  0  0
   36.0360   31.1380   33.2240 O   0  0  0  0  0  0  0  0  0  0  0  0
   35.5270   28.9420   33.8530 N   0  0  0  0  0  0  0  0  0  0  0  0
   35.1440   28.2290   34.4950 H   0  0  0  0  0  0  0  0  0  0  0  0
   32.4560   29.6000   33.9920 Cl  0  0  0  0  0  0  0  0  0  0  0  0
   33.2290   30.5640   35.2330 C   0  0  0  0  0  0  0  0  0  0  0  0
   34.5720   30.8520   35.1580 C   0  0  0  0  0  0  0  0  0  0  0  0
   35.2820   31.6010   36.0760 C   0  0  0  0  0  0  0  0  0  0  0  0
   36.3290   31.8160   36.0000 H   0  0  0  0  0  0  0  0  0  0  0  0
   34.5610   32.0890   37.1520 C   0  0  0  0  0  0  0  0  0  0  0  0
   35.0420   32.6910   37.9290 H   0  0  0  0  0  0  0  0  0  0  0  0
   33.2100   31.8410   37.2960 C   0  0  0  0  0  3  0  0  0  0  0  0
   32.5840   31.0830   36.3270 C   0  0  0  0  0  3  0  0  0  0  0  0
  1 12  1  0  0  0  0
  2  7  1  0  0  0  0
  2  1  2  0  0  0  0
  3  2  1  0  0  0  0
  4  3  2  0  0  0  0
  4  5  1  0  0  0  0
  5  6  2  0  0  0  0
  6  1  1  0  0  0  0
  6 22  1  0  0  0  0
  8  3  1  0  0  0  0
  9  4  1  0  0  0  0
 10  5  1  0  0  0  0
 11 16  1  0  0  0  0
 12 13  1  0  0  0  0
 12 11  2  0  0  0  0
 13 14  2  0  0  0  0
 14 15  1  0  0  0  0
 15 19  1  0  0  0  0
 16 15  2  0  0  0  0
 17 11  1  0  0  0  0
 18 13  1  0  0  0  0
 20 26  1  0  0  0  0
 21 20  2  0  0  0  0
 22 20  1  0  0  0  0
 22 23  1  0  0  0  0
 24 25  1  0  0  0  0
 25 32  1  0  0  0  0
 26 25  2  0  0  0  0
 26 27  1  0  0  0  0
 27 29  2  0  0  0  0
 28 27  1  0  0  0  0
 29 31  1  0  0  0  0
 29 30  1  0  0  0  0
 32 31  2  0  0  0  0
M  END
>  <minimizedAffinity>
-5.60615635

$$$$

 OpenBabel03272500553D

 32 34  0  0  0  0  0  0  0  0999 V2000
   39.7360   25.1050   34.5970 C   0  0  0  0  0  0  0  0  0  0  0  0
   40.3270   26.3680   34.7440 C   0  0  0  0  0  0  0  0  0  0  0  0
   40.7450   27.1140   33.6530 C   0  0  0  0  0  0  0  0  0  0  0  0
   40.5710   26.5800   32.3460 C   0  0  0  0  0  0  0  0  0  0  0  0
   39.9920   25.3470   32.2550 C   0  0  0  0  0  0  0  0  0  0  0  0
   39.5740   24.6100   33.3180 C   0  0  0  0  0  0  0  0  0  0  0  0
   40.4680   26.7890   35.7440 H   0  0  0  0  0  0  0  0  0  0  0  0
   41.1950   28.0940   33.8820 H   0  0  0  0  0  0  0  0  0  0  0  0
   40.9460   27.2780   31.6310 H   0  0  0  0  0  0  0  0  0  0  0  0
   40.0150   25.1400   31.2070 H   0  0  0  0  0  0  0  0  0  0  0  0
   38.2540   24.8790   36.4990 C   0  0  0  0  0  0  0  0  0  0  0  0
   39.4110   24.4280   35.8400 C   0  0  0  0  0  0  0  0  0  0  0  0
   40.1290   23.3820   36.4440 C   0  0  0  0  0  0  0  0  0  0  0  0
   39.6920   22.8630   37.6030 N   0  0  0  0  0  0  0  0  0  0  0  0
   38.5890   23.3010   38.2210 C   0  0  0  0  0  0  0  0  0  0  0  0
   37.8820   24.3010   37.6670 N   0  0  0  0  0  0  0  0  0  0  0  0
   37.6410   25.6800   36.1040 H   0  0  0  0  0  0  0  0  0  0  0  0
   41.0130   23.0730   35.8920 H   0  0  0  0  0  0  0  0  0  0  0  0
   38.3430   22.8030   39.1450 H   0  0  0  0  0  0  0  0  0  0  0  0
   37.5450   23.4970   32.9370 C   0  0  0  0  0  0  0  0  0  0  0  0
   37.0240   24.6670   32.9670 O   0  0  0  0  0  0  0  0  0  0  0  0
   38.9530   23.3650   33.2020 N   0  0  0  0  0  0  0  0  0  0  0  0
   39.4590   22.4680   33.2930 H   0  0  0  0  0  0  0  0  0  0  0  0
   37.0170   21.6040   35.2750 Cl  0  0  0  0  0  0  0  0  0  0  0  0
   36.4880   21.3400   33.6260 C   0  0  0  0  0  0  0  0  0  0  0  0
   36.7790   22.2590   32.6450 C   0  0  0  0  0  0  0  0  0  0  0  0
   36.4140   22.1530   31.3170 C   0  0  0  0  0  0  0  0  0  0  0  0
   36.6500   22.8790   30.5660 H   0  0  0  0  0  0  0  0  0  0  0  0
   35.6960   21.0210   30.9710 C   0  0  0  0  0  0  0  0  0  0  0  0
   35.3650   20.8550   29.9410 H   0  0  0  0  0  0  0  0  0  0  0  0
   35.3670   20.0550   31.9010 C   0  0  0  0  0  3  0  0  0  0  0  0
   35.7750   20.2460   33.2050 C   0  0  0  0  0  3  0  0  0  0  0  0
  1  2  1  0  0  0  0
  1 12  1  0  0  0  0
  2  7  1  0  0  0  0
  3  8  1  0  0  0  0
  3  2  2  0  0  0  0
  4  3  1  0  0  0  0
  5  4  2  0  0  0  0
  5  6  1  0  0  0  0
  6  1  2  0  0  0  0
  9  4  1  0  0  0  0
 10  5  1  0  0  0  0
 11 16  1  0  0  0  0
 12 13  1  0  0  0  0
 12 11  2  0  0  0  0
 13 14  2  0  0  0  0
 14 15  1  0  0  0  0
 15 19  1  0  0  0  0
 16 15  2  0  0  0  0
 17 11  1  0  0  0  0
 18 13  1  0  0  0  0
 20 21  2  0  0  0  0
 20 22  1  0  0  0  0
 22 23  1  0  0  0  0
 22  6  1  0  0  0  0
 25 24  1  0  0  0  0
 26 20  1  0  0  0  0
 26 25  2  0  0  0  0
 27 26  1  0  0  0  0
 28 27  1  0  0  0  0
 29 27  2  0  0  0  0
 29 31  1  0  0  0  0
 30 29  1  0  0  0  0
 31 32  2  0  0  0  0
 32 25  1  0  0  0  0
M  END
>  <minimizedAffinity>
-5.53583479

$$$$

 OpenBabel03272500553D

 32 34  0  0  0  0  0  0  0  0999 V2000
   39.4970   25.6440   34.6780 C   0  0  0  0  0  0  0  0  0  0  0  0
   40.6250   26.4590   34.8400 C   0  0  0  0  0  0  0  0  0  0  0  0
   41.1300   27.2260   33.8010 C   0  0  0  0  0  0  0  0  0  0  0  0
   40.4850   27.1810   32.5350 C   0  0  0  0  0  0  0  0  0  0  0  0
   39.3910   26.3710   32.4280 C   0  0  0  0  0  0  0  0  0  0  0  0
   38.8860   25.6200   33.4410 C   0  0  0  0  0  0  0  0  0  0  0  0
   41.1320   26.5020   35.8090 H   0  0  0  0  0  0  0  0  0  0  0  0
   42.0200   27.8340   34.0380 H   0  0  0  0  0  0  0  0  0  0  0  0
   41.0010   27.8240   31.8570 H   0  0  0  0  0  0  0  0  0  0  0  0
   39.1180   26.4600   31.3990 H   0  0  0  0  0  0  0  0  0  0  0  0
   39.8790   23.6830   36.0490 C   0  0  0  0  0  0  0  0  0  0  0  0
   39.1330   24.8570   35.8440 C   0  0  0  0  0  0  0  0  0  0  0  0
   38.1210   25.1470   36.7760 C   0  0  0  0  0  0  0  0  0  0  0  0
   37.9100   24.3110   37.8040 N   0  0  0  0  0  0  0  0  0  0  0  0
   38.6260   23.1950   37.9880 C   0  0  0  0  0  0  0  0  0  0  0  0
   39.6010   22.8920   37.1130 N   0  0  0  0  0  0  0  0  0  0  0  0
   40.6770   23.3830   35.3800 H   0  0  0  0  0  0  0  0  0  0  0  0
   37.5780   26.0650   36.5700 H   0  0  0  0  0  0  0  0  0  0  0  0
   38.3600   22.6060   38.8510 H   0  0  0  0  0  0  0  0  0  0  0  0
   38.0550   23.5360   32.7530 C   0  0  0  0  0  0  0  0  0  0  0  0
   39.2440   23.3270   32.3250 O   0  0  0  0  0  0  0  0  0  0  0  0
   37.7450   24.8220   33.3200 N   0  0  0  0  0  0  0  0  0  0  0  0
   36.8030   25.1320   33.6120 H   0  0  0  0  0  0  0  0  0  0  0  0
   35.8160   24.0140   30.7310 Cl  0  0  0  0  0  0  0  0  0  0  0  0
   35.9120   22.6480   31.8240 C   0  0  0  0  0  0  0  0  0  0  0  0
   36.9680   22.5270   32.6980 C   0  0  0  0  0  0  0  0  0  0  0  0
   37.1440   21.4960   33.6000 C   0  0  0  0  0  0  0  0  0  0  0  0
   37.9730   21.4190   34.2740 H   0  0  0  0  0  0  0  0  0  0  0  0
   36.1660   20.5160   33.6050 C   0  0  0  0  0  0  0  0  0  0  0  0
   36.2250   19.6620   34.2860 H   0  0  0  0  0  0  0  0  0  0  0  0
   35.0780   20.5700   32.7570 C   0  0  0  0  0  3  0  0  0  0  0  0
   34.9850   21.6390   31.8890 C   0  0  0  0  0  3  0  0  0  0  0  0
  1  2  1  0  0  0  0
  1 12  1  0  0  0  0
  2  7  1  0  0  0  0
  3  8  1  0  0  0  0
  3  2  2  0  0  0  0
  4  3  1  0  0  0  0
  5  4  2  0  0  0  0
  5  6  1  0  0  0  0
  6  1  2  0  0  0  0
  9  4  1  0  0  0  0
 10  5  1  0  0  0  0
 11 16  1  0  0  0  0
 12 11  2  0  0  0  0
 12 13  1  0  0  0  0
 13 14  2  0  0  0  0
 14 15  1  0  0  0  0
 15 19  1  0  0  0  0
 16 15  2  0  0  0  0
 17 11  1  0  0  0  0
 18 13  1  0  0  0  0
 20 22  1  0  0  0  0
 21 20  2  0  0  0  0
 22  6  1  0  0  0  0
 22 23  1  0  0  0  0
 24 25  1  0  0  0  0
 25 32  2  0  0  0  0
 25 26  1  0  0  0  0
 26 20  1  0  0  0  0
 26 27  2  0  0  0  0
 27 29  1  0  0  0  0
 27 28  1  0  0  0  0
 29 30  1  0  0  0  0
 31 29  2  0  0  0  0
 32 31  1  0  0  0  0
M  END
>  <minimizedAffinity>
-5.49812698

$$$$

 OpenBabel03272500553D

 32 34  0  0  0  0  0  0  0  0999 V2000
   37.2060   27.1630   32.3240 C   0  0  0  0  0  0  0  0  0  0  0  0
   36.9080   28.3450   31.6330 C   0  0  0  0  0  0  0  0  0  0  0  0
   36.2950   29.4220   32.2550 C   0  0  0  0  0  0  0  0  0  0  0  0
   35.9580   29.3230   33.6320 C   0  0  0  0  0  0  0  0  0  0  0  0
   36.2680   28.1500   34.2610 C   0  0  0  0  0  0  0  0  0  0  0  0
   36.8730   27.0910   33.6620 C   0  0  0  0  0  0  0  0  0  0  0  0
   37.1600   28.4350   30.5720 H   0  0  0  0  0  0  0  0  0  0  0  0
   36.1070   30.3040   31.6190 H   0  0  0  0  0  0  0  0  0  0  0  0
   35.4960   30.2320   33.9460 H   0  0  0  0  0  0  0  0  0  0  0  0
   35.8830   28.2890   35.2470 H   0  0  0  0  0  0  0  0  0  0  0  0
   39.1570   26.2510   31.2160 C   0  0  0  0  0  0  0  0  0  0  0  0
   37.7910   26.1080   31.5150 C   0  0  0  0  0  0  0  0  0  0  0  0
   37.1370   24.9730   31.0060 C   0  0  0  0  0  0  0  0  0  0  0  0
   37.8260   24.0870   30.2690 N   0  0  0  0  0  0  0  0  0  0  0  0
   39.1270   24.2350   29.9900 C   0  0  0  0  0  0  0  0  0  0  0  0
   39.7790   25.3110   30.4630 N   0  0  0  0  0  0  0  0  0  0  0  0
   39.7390   27.0950   31.5670 H   0  0  0  0  0  0  0  0  0  0  0  0
   36.0840   24.9130   31.2680 H   0  0  0  0  0  0  0  0  0  0  0  0
   39.5660   23.4560   29.3890 H   0  0  0  0  0  0  0  0  0  0  0  0
   38.3980   26.0800   35.1300 C   0  0  0  0  0  0  0  0  0  0  0  0
   39.0450   27.1820   35.0430 O   0  0  0  0  0  0  0  0  0  0  0  0
   37.2130   25.9130   34.3300 N   0  0  0  0  0  0  0  0  0  0  0  0
   36.6670   25.0390   34.2520 H   0  0  0  0  0  0  0  0  0  0  0  0
   40.7000   24.3150   34.1740 Cl  0  0  0  0  0  0  0  0  0  0  0  0
   39.8220   24.1000   35.6740 C   0  0  0  0  0  0  0  0  0  0  0  0
   38.7980   24.9540   36.0120 C   0  0  0  0  0  0  0  0  0  0  0  0
   38.0410   24.8790   37.1650 C   0  0  0  0  0  0  0  0  0  0  0  0
   37.2460   25.5530   37.4110 H   0  0  0  0  0  0  0  0  0  0  0  0
   38.3600   23.8510   38.0360 C   0  0  0  0  0  0  0  0  0  0  0  0
   37.8120   23.7150   38.9740 H   0  0  0  0  0  0  0  0  0  0  0  0
   39.3740   22.9550   37.7650 C   0  0  0  0  0  3  0  0  0  0  0  0
   40.0770   23.1090   36.5880 C   0  0  0  0  0  3  0  0  0  0  0  0
  1  6  1  0  0  0  0
  2  3  1  0  0  0  0
  2  1  2  0  0  0  0
  3  4  2  0  0  0  0
  4  9  1  0  0  0  0
  4  5  1  0  0  0  0
  5 10  1  0  0  0  0
  6  5  2  0  0  0  0
  6 22  1  0  0  0  0
  7  2  1  0  0  0  0
  8  3  1  0  0  0  0
 11 12  1  0  0  0  0
 11 17  1  0  0  0  0
 12  1  1  0  0  0  0
 13 18  1  0  0  0  0
 13 12  2  0  0  0  0
 14 13  1  0  0  0  0
 15 14  2  0  0  0  0
 15 16  1  0  0  0  0
 16 11  2  0  0  0  0
 19 15  1  0  0  0  0
 20 26  1  0  0  0  0
 21 20  2  0  0  0  0
 22 20  1  0  0  0  0
 23 22  1  0  0  0  0
 24 25  1  0  0  0  0
 25 26  2  0  0  0  0
 25 32  1  0  0  0  0
 26 27  1  0  0  0  0
 27 28  1  0  0  0  0
 27 29  2  0  0  0  0
 29 30  1  0  0  0  0
 31 29  1  0  0  0  0
 32 31  2  0  0  0  0
M  END
>  <minimizedAffinity>
-5.30819416

$$$$

 OpenBabel03272500553D

 32 34  0  0  0  0  0  0  0  0999 V2000
   33.1820   30.8880   36.0160 C   0  0  0  0  0  0  0  0  0  0  0  0
   32.6360   31.8080   36.9200 C   0  0  0  0  0  0  0  0  0  0  0  0
   33.3850   32.8470   37.4530 C   0  0  0  0  0  0  0  0  0  0  0  0
   34.7480   32.9790   37.0710 C   0  0  0  0  0  0  0  0  0  0  0  0
   35.2340   32.0580   36.1880 C   0  0  0  0  0  0  0  0  0  0  0  0
   34.5060   31.0400   35.6570 C   0  0  0  0  0  0  0  0  0  0  0  0
   31.5890   31.7170   37.2240 H   0  0  0  0  0  0  0  0  0  0  0  0
   32.8550   33.5140   38.1540 H   0  0  0  0  0  0  0  0  0  0  0  0
   35.1710   33.8210   37.5710 H   0  0  0  0  0  0  0  0  0  0  0  0
   36.2640   32.3240   36.0950 H   0  0  0  0  0  0  0  0  0  0  0  0
   32.0840   28.7930   36.5320 C   0  0  0  0  0  0  0  0  0  0  0  0
   32.2840   29.8250   35.6000 C   0  0  0  0  0  0  0  0  0  0  0  0
   31.6050   29.7250   34.3740 C   0  0  0  0  0  0  0  0  0  0  0  0
   30.8070   28.6700   34.1430 N   0  0  0  0  0  0  0  0  0  0  0  0
   30.6250   27.6920   35.0390 C   0  0  0  0  0  0  0  0  0  0  0  0
   31.2620   27.7610   36.2210 N   0  0  0  0  0  0  0  0  0  0  0  0
   32.5670   28.7890   37.5020 H   0  0  0  0  0  0  0  0  0  0  0  0
   31.7960   30.5490   33.6920 H   0  0  0  0  0  0  0  0  0  0  0  0
   29.9610   26.9000   34.7360 H   0  0  0  0  0  0  0  0  0  0  0  0
   35.0070   30.6680   33.3950 C   0  0  0  0  0  0  0  0  0  0  0  0
   34.4500   31.8050   33.1980 O   0  0  0  0  0  0  0  0  0  0  0  0
   35.0130   30.1270   34.7290 N   0  0  0  0  0  0  0  0  0  0  0  0
   35.3510   29.1850   34.9860 H   0  0  0  0  0  0  0  0  0  0  0  0
   36.8250   32.1610   31.4470 Cl  0  0  0  0  0  0  0  0  0  0  0  0
   36.4870   30.4440   31.3940 C   0  0  0  0  0  0  0  0  0  0  0  0
   35.6510   29.8680   32.3230 C   0  0  0  0  0  0  0  0  0  0  0  0
   35.3150   28.5290   32.3760 C   0  0  0  0  0  0  0  0  0  0  0  0
   34.6610   28.0990   33.1060 H   0  0  0  0  0  0  0  0  0  0  0  0
   35.8810   27.7210   31.4040 C   0  0  0  0  0  0  0  0  0  0  0  0
   35.6710   26.6470   31.3690 H   0  0  0  0  0  0  0  0  0  0  0  0
   36.7290   28.2270   30.4390 C   0  0  0  0  0  3  0  0  0  0  0  0
   37.0060   29.5780   30.4650 C   0  0  0  0  0  3  0  0  0  0  0  0
  1  2  1  0  0  0  0
  2  7  1  0  0  0  0
  2  3  2  0  0  0  0
  3  8  1  0  0  0  0
  4  3  1  0  0  0  0
  4  9  1  0  0  0  0
  5  4  2  0  0  0  0
  6  1  2  0  0  0  0
  6  5  1  0  0  0  0
 10  5  1  0  0  0  0
 11 17  1  0  0  0  0
 12  1  1  0  0  0  0
 12 11  2  0  0  0  0
 13 12  1  0  0  0  0
 14 13  2  0  0  0  0
 14 15  1  0  0  0  0
 15 16  2  0  0  0  0
 16 11  1  0  0  0  0
 18 13  1  0  0  0  0
 19 15  1  0  0  0  0
 20 22  1  0  0  0  0
 21 20  2  0  0  0  0
 22 23  1  0  0  0  0
 22  6  1  0  0  0  0
 25 24  1  0  0  0  0
 25 26  1  0  0  0  0
 26 27  2  0  0  0  0
 26 20  1  0  0  0  0
 27 28  1  0  0  0  0
 29 27  1  0  0  0  0
 30 29  1  0  0  0  0
 31 32  1  0  0  0  0
 31 29  2  0  0  0  0
 32 25  2  0  0  0  0
M  END
>  <minimizedAffinity>
-5.28119564

$$$$

 OpenBabel03272500553D

 32 34  0  0  0  0  0  0  0  0999 V2000
   37.1110   25.4740   31.8900 C   0  0  0  0  0  0  0  0  0  0  0  0
   37.0880   26.2870   30.7490 C   0  0  0  0  0  0  0  0  0  0  0  0
   37.1780   27.6680   30.8320 C   0  0  0  0  0  0  0  0  0  0  0  0
   37.2940   28.2760   32.1120 C   0  0  0  0  0  0  0  0  0  0  0  0
   37.3110   27.4410   33.1920 C   0  0  0  0  0  0  0  0  0  0  0  0
   37.2290   26.0860   33.1210 C   0  0  0  0  0  0  0  0  0  0  0  0
   36.9980   25.8330   29.7580 H   0  0  0  0  0  0  0  0  0  0  0  0
   37.1520   28.2120   29.8720 H   0  0  0  0  0  0  0  0  0  0  0  0
   37.3490   29.3350   31.9930 H   0  0  0  0  0  0  0  0  0  0  0  0
   37.3510   28.1120   34.0220 H   0  0  0  0  0  0  0  0  0  0  0  0
   38.1330   23.3130   31.4970 C   0  0  0  0  0  0  0  0  0  0  0  0
   36.9460   24.0530   31.6370 C   0  0  0  0  0  0  0  0  0  0  0  0
   35.7340   23.3520   31.5180 C   0  0  0  0  0  0  0  0  0  0  0  0
   35.7540   22.0310   31.2800 N   0  0  0  0  0  0  0  0  0  0  0  0
   36.8910   21.3370   31.1470 C   0  0  0  0  0  0  0  0  0  0  0  0
   38.0660   21.9810   31.2570 N   0  0  0  0  0  0  0  0  0  0  0  0
   39.1110   23.7730   31.5740 H   0  0  0  0  0  0  0  0  0  0  0  0
   34.8490   23.9720   31.6350 H   0  0  0  0  0  0  0  0  0  0  0  0
   36.7750   20.2830   30.9580 H   0  0  0  0  0  0  0  0  0  0  0  0
   38.6040   25.2000   34.8030 C   0  0  0  0  0  0  0  0  0  0  0  0
   39.5560   25.7910   34.1820 O   0  0  0  0  0  0  0  0  0  0  0  0
   37.2820   25.2470   34.2370 N   0  0  0  0  0  0  0  0  0  0  0  0
   36.4610   24.7340   34.6000 H   0  0  0  0  0  0  0  0  0  0  0  0
   40.6650   22.9460   34.8320 Cl  0  0  0  0  0  0  0  0  0  0  0  0
   39.6830   23.4310   36.1990 C   0  0  0  0  0  0  0  0  0  0  0  0
   38.7820   24.4630   36.0800 C   0  0  0  0  0  0  0  0  0  0  0  0
   37.9600   24.9280   37.0880 C   0  0  0  0  0  0  0  0  0  0  0  0
   37.2630   25.7330   36.9760 H   0  0  0  0  0  0  0  0  0  0  0  0
   38.0720   24.2860   38.3090 C   0  0  0  0  0  0  0  0  0  0  0  0
   37.4600   24.5880   39.1650 H   0  0  0  0  0  0  0  0  0  0  0  0
   38.9540   23.2420   38.5050 C   0  0  0  0  0  3  0  0  0  0  0  0
   39.7350   22.8450   37.4390 C   0  0  0  0  0  3  0  0  0  0  0  0
  1  6  1  0  0  0  0
  2  3  1  0  0  0  0
  2  1  2  0  0  0  0
  3  4  2  0  0  0  0
  4  5  1  0  0  0  0
  5 10  1  0  0  0  0
  6  5  2  0  0  0  0
  6 22  1  0  0  0  0
  7  2  1  0  0  0  0
  8  3  1  0  0  0  0
  9  4  1  0  0  0  0
 11 17  1  0  0  0  0
 11 12  1  0  0  0  0
 12  1  1  0  0  0  0
 13 18  1  0  0  0  0
 13 12  2  0  0  0  0
 14 13  1  0  0  0  0
 15 16  1  0  0  0  0
 15 14  2  0  0  0  0
 16 11  2  0  0  0  0
 19 15  1  0  0  0  0
 20 26  1  0  0  0  0
 21 20  2  0  0  0  0
 22 23  1  0  0  0  0
 22 20  1  0  0  0  0
 24 25  1  0  0  0  0
 25 32  1  0  0  0  0
 26 25  2  0  0  0  0
 26 27  1  0  0  0  0
 27 29  2  0  0  0  0
 28 27  1  0  0  0  0
 29 31  1  0  0  0  0
 29 30  1  0  0  0  0
 32 31  2  0  0  0  0
M  END
>  <minimizedAffinity>
-5.27003622

$$$$

 OpenBabel03272500553D

 32 34  0  0  0  0  0  0  0  0999 V2000
   36.2460   23.5690   31.7710 C   0  0  0  0  0  0  0  0  0  0  0  0
   35.1510   24.0980   31.0750 C   0  0  0  0  0  0  0  0  0  0  0  0
   35.0390   25.4540   30.8050 C   0  0  0  0  0  0  0  0  0  0  0  0
   36.0650   26.3320   31.2510 C   0  0  0  0  0  0  0  0  0  0  0  0
   37.1100   25.7680   31.9260 C   0  0  0  0  0  0  0  0  0  0  0  0
   37.2310   24.4400   32.1900 C   0  0  0  0  0  0  0  0  0  0  0  0
   34.3540   23.4340   30.7270 H   0  0  0  0  0  0  0  0  0  0  0  0
   34.1380   25.7620   30.2490 H   0  0  0  0  0  0  0  0  0  0  0  0
   35.8200   27.3300   30.9640 H   0  0  0  0  0  0  0  0  0  0  0  0
   37.7100   26.6090   32.1980 H   0  0  0  0  0  0  0  0  0  0  0  0
   36.8510   21.3230   31.0970 C   0  0  0  0  0  0  0  0  0  0  0  0
   36.1830   22.1400   32.0260 C   0  0  0  0  0  0  0  0  0  0  0  0
   35.5270   21.5000   33.0910 C   0  0  0  0  0  0  0  0  0  0  0  0
   35.5630   20.1610   33.1820 N   0  0  0  0  0  0  0  0  0  0  0  0
   36.2020   19.3930   32.2910 C   0  0  0  0  0  0  0  0  0  0  0  0
   36.8380   19.9780   31.2600 N   0  0  0  0  0  0  0  0  0  0  0  0
   37.3820   21.7310   30.2460 H   0  0  0  0  0  0  0  0  0  0  0  0
   35.0290   22.1800   33.7770 H   0  0  0  0  0  0  0  0  0  0  0  0
   36.1570   18.3320   32.4730 H   0  0  0  0  0  0  0  0  0  0  0  0
   38.3930   24.3120   34.2240 C   0  0  0  0  0  0  0  0  0  0  0  0
   37.5720   25.2100   34.6240 O   0  0  0  0  0  0  0  0  0  0  0  0
   38.3250   23.8790   32.8530 N   0  0  0  0  0  0  0  0  0  0  0  0
   38.9910   23.2310   32.4010 H   0  0  0  0  0  0  0  0  0  0  0  0
   37.4660   22.0490   36.0540 Cl  0  0  0  0  0  0  0  0  0  0  0  0
   39.1060   22.6580   35.9570 C   0  0  0  0  0  0  0  0  0  0  0  0
   39.4190   23.6840   35.0950 C   0  0  0  0  0  0  0  0  0  0  0  0
   40.6730   24.2410   34.9370 C   0  0  0  0  0  0  0  0  0  0  0  0
   40.8970   25.0410   34.2620 H   0  0  0  0  0  0  0  0  0  0  0  0
   41.6810   23.7040   35.7200 C   0  0  0  0  0  0  0  0  0  0  0  0
   42.7060   24.0840   35.6600 H   0  0  0  0  0  0  0  0  0  0  0  0
   41.4430   22.6730   36.6070 C   0  0  0  0  0  3  0  0  0  0  0  0
   40.1570   22.1810   36.6980 C   0  0  0  0  0  3  0  0  0  0  0  0
  1 12  1  0  0  0  0
  1  6  1  0  0  0  0
  2  1  2  0  0  0  0
  3  2  1  0  0  0  0
  3  4  2  0  0  0  0
  4  5  1  0  0  0  0
  5  6  2  0  0  0  0
  5 10  1  0  0  0  0
  6 22  1  0  0  0  0
  7  2  1  0  0  0  0
  8  3  1  0  0  0  0
  9  4  1  0  0  0  0
 11 16  2  0  0  0  0
 11 12  1  0  0  0  0
 12 13  2  0  0  0  0
 13 14  1  0  0  0  0
 13 18  1  0  0  0  0
 15 19  1  0  0  0  0
 15 14  2  0  0  0  0
 16 15  1  0  0  0  0
 17 11  1  0  0  0  0
 20 21  2  0  0  0  0
 20 26  1  0  0  0  0
 22 20  1  0  0  0  0
 23 22  1  0  0  0  0
 25 24  1  0  0  0  0
 25 32  1  0  0  0  0
 26 25  2  0  0  0  0
 27 26  1  0  0  0  0
 27 29  2  0  0  0  0
 28 27  1  0  0  0  0
 29 31  1  0  0  0  0
 30 29  1  0  0  0  0
 31 32  2  0  0  0  0
M  END
>  <minimizedAffinity>
-5.25166512

$$$$

 OpenBabel03272500553D

 32 34  0  0  0  0  0  0  0  0999 V2000
   37.5830   26.4650   32.6550 C   0  0  0  0  0  0  0  0  0  0  0  0
   37.0940   27.6850   32.1690 C   0  0  0  0  0  0  0  0  0  0  0  0
   36.4780   28.6100   32.9980 C   0  0  0  0  0  0  0  0  0  0  0  0
   36.3380   28.3110   34.3800 C   0  0  0  0  0  0  0  0  0  0  0  0
   36.8300   27.1100   34.8050 C   0  0  0  0  0  0  0  0  0  0  0  0
   37.4400   26.1990   34.0020 C   0  0  0  0  0  0  0  0  0  0  0  0
   37.1930   27.9270   31.1060 H   0  0  0  0  0  0  0  0  0  0  0  0
   36.1310   29.5380   32.5110 H   0  0  0  0  0  0  0  0  0  0  0  0
   35.8450   29.1240   34.8660 H   0  0  0  0  0  0  0  0  0  0  0  0
   36.5690   27.0890   35.8410 H   0  0  0  0  0  0  0  0  0  0  0  0
   39.4880   25.8170   31.3060 C   0  0  0  0  0  0  0  0  0  0  0  0
   38.1450   25.5810   31.6490 C   0  0  0  0  0  0  0  0  0  0  0  0
   37.4880   24.5280   30.9890 C   0  0  0  0  0  0  0  0  0  0  0  0
   38.1530   23.8020   30.0770 N   0  0  0  0  0  0  0  0  0  0  0  0
   39.4320   24.0360   29.7580 C   0  0  0  0  0  0  0  0  0  0  0  0
   40.0860   25.0380   30.3730 N   0  0  0  0  0  0  0  0  0  0  0  0
   40.0700   26.6070   31.7650 H   0  0  0  0  0  0  0  0  0  0  0  0
   36.4540   24.3910   31.2920 H   0  0  0  0  0  0  0  0  0  0  0  0
   39.8540   23.3840   29.0110 H   0  0  0  0  0  0  0  0  0  0  0  0
   39.2090   25.1860   35.1630 C   0  0  0  0  0  0  0  0  0  0  0  0
   39.7280   26.3560   35.1720 O   0  0  0  0  0  0  0  0  0  0  0  0
   37.9670   24.9900   34.4620 N   0  0  0  0  0  0  0  0  0  0  0  0
   37.5060   24.0770   34.3140 H   0  0  0  0  0  0  0  0  0  0  0  0
   38.0590   24.3950   37.8800 Cl  0  0  0  0  0  0  0  0  0  0  0  0
   39.3700   23.5700   37.0620 C   0  0  0  0  0  0  0  0  0  0  0  0
   39.8140   24.0080   35.8360 C   0  0  0  0  0  0  0  0  0  0  0  0
   40.8360   23.4370   35.1040 C   0  0  0  0  0  0  0  0  0  0  0  0
   41.1680   23.7930   34.1500 H   0  0  0  0  0  0  0  0  0  0  0  0
   41.4480   22.3320   35.6720 C   0  0  0  0  0  0  0  0  0  0  0  0
   42.2670   21.8150   35.1620 H   0  0  0  0  0  0  0  0  0  0  0  0
   41.0570   21.8340   36.8990 C   0  0  0  0  0  3  0  0  0  0  0  0
   40.0260   22.4720   37.5580 C   0  0  0  0  0  3  0  0  0  0  0  0
  1  6  1  0  0  0  0
  2  1  2  0  0  0  0
  2  3  1  0  0  0  0
  3  4  2  0  0  0  0
  4  5  1  0  0  0  0
  4  9  1  0  0  0  0
  5 10  1  0  0  0  0
  6 22  1  0  0  0  0
  6  5  2  0  0  0  0
  7  2  1  0  0  0  0
  8  3  1  0  0  0  0
 11 12  1  0  0  0  0
 11 17  1  0  0  0  0
 12  1  1  0  0  0  0
 13 18  1  0  0  0  0
 13 12  2  0  0  0  0
 14 13  1  0  0  0  0
 15 14  2  0  0  0  0
 15 16  1  0  0  0  0
 16 11  2  0  0  0  0
 19 15  1  0  0  0  0
 20 21  2  0  0  0  0
 20 26  1  0  0  0  0
 22 20  1  0  0  0  0
 23 22  1  0  0  0  0
 25 32  1  0  0  0  0
 25 24  1  0  0  0  0
 26 25  2  0  0  0  0
 27 29  2  0  0  0  0
 27 26  1  0  0  0  0
 28 27  1  0  0  0  0
 29 31  1  0  0  0  0
 30 29  1  0  0  0  0
 31 32  2  0  0  0  0
M  END
>  <minimizedAffinity>
-5.22485542

$$$$

 OpenBabel03272500553D

 32 34  0  0  0  0  0  0  0  0999 V2000
   39.3380   23.6050   36.1120 C   0  0  0  0  0  0  0  0  0  0  0  0
   39.7780   22.9810   37.2870 C   0  0  0  0  0  0  0  0  0  0  0  0
   39.1710   23.2140   38.5120 C   0  0  0  0  0  0  0  0  0  0  0  0
   38.0730   24.1140   38.5770 C   0  0  0  0  0  0  0  0  0  0  0  0
   37.6820   24.6970   37.4050 C   0  0  0  0  0  0  0  0  0  0  0  0
   38.2670   24.4710   36.1990 C   0  0  0  0  0  0  0  0  0  0  0  0
   40.6240   22.2870   37.2520 H   0  0  0  0  0  0  0  0  0  0  0  0
   39.5960   22.6690   39.3730 H   0  0  0  0  0  0  0  0  0  0  0  0
   37.7310   24.1770   39.5860 H   0  0  0  0  0  0  0  0  0  0  0  0
   36.8960   25.3540   37.7070 H   0  0  0  0  0  0  0  0  0  0  0  0
   41.4660   23.7000   34.9600 C   0  0  0  0  0  0  0  0  0  0  0  0
   40.1180   23.3020   34.9250 C   0  0  0  0  0  0  0  0  0  0  0  0
   39.6670   22.6630   33.7580 C   0  0  0  0  0  0  0  0  0  0  0  0
   40.5200   22.4590   32.7420 N   0  0  0  0  0  0  0  0  0  0  0  0
   41.8020   22.8420   32.7870 C   0  0  0  0  0  0  0  0  0  0  0  0
   42.2630   23.4570   33.8910 N   0  0  0  0  0  0  0  0  0  0  0  0
   41.8980   24.1980   35.8190 H   0  0  0  0  0  0  0  0  0  0  0  0
   38.6180   22.3780   33.7860 H   0  0  0  0  0  0  0  0  0  0  0  0
   42.3860   22.6210   31.9090 H   0  0  0  0  0  0  0  0  0  0  0  0
   38.2200   26.4360   34.9180 C   0  0  0  0  0  0  0  0  0  0  0  0
   38.7720   26.9830   35.9360 O   0  0  0  0  0  0  0  0  0  0  0  0
   37.8320   25.0520   35.0070 N   0  0  0  0  0  0  0  0  0  0  0  0
   37.3010   24.5370   34.2850 H   0  0  0  0  0  0  0  0  0  0  0  0
   40.3430   26.2120   32.7340 Cl  0  0  0  0  0  0  0  0  0  0  0  0
   38.8460   27.1100   32.5950 C   0  0  0  0  0  0  0  0  0  0  0  0
   37.9540   27.1460   33.6410 C   0  0  0  0  0  0  0  0  0  0  0  0
   36.7480   27.8200   33.6420 C   0  0  0  0  0  0  0  0  0  0  0  0
   36.0670   27.8370   34.4680 H   0  0  0  0  0  0  0  0  0  0  0  0
   36.4340   28.5070   32.4810 C   0  0  0  0  0  0  0  0  0  0  0  0
   35.4990   29.0680   32.3930 H   0  0  0  0  0  0  0  0  0  0  0  0
   37.2790   28.5170   31.3900 C   0  0  0  0  0  3  0  0  0  0  0  0
   38.4640   27.8150   31.4810 C   0  0  0  0  0  3  0  0  0  0  0  0
  1  6  2  0  0  0  0
  1  2  1  0  0  0  0
  2  3  2  0  0  0  0
  3  4  1  0  0  0  0
  3  8  1  0  0  0  0
  4  9  1  0  0  0  0
  5 10  1  0  0  0  0
  5  4  2  0  0  0  0
  6  5  1  0  0  0  0
  7  2  1  0  0  0  0
 11 17  1  0  0  0  0
 12 11  1  0  0  0  0
 12  1  1  0  0  0  0
 13 18  1  0  0  0  0
 13 12  2  0  0  0  0
 14 15  2  0  0  0  0
 14 13  1  0  0  0  0
 15 16  1  0  0  0  0
 16 11  2  0  0  0  0
 19 15  1  0  0  0  0
 20 22  1  0  0  0  0
 20 21  2  0  0  0  0
 22  6  1  0  0  0  0
 23 22  1  0  0  0  0
 25 24  1  0  0  0  0
 25 26  1  0  0  0  0
 26 27  2  0  0  0  0
 26 20  1  0  0  0  0
 27 28  1  0  0  0  0
 29 27  1  0  0  0  0
 30 29  1  0  0  0  0
 31 32  1  0  0  0  0
 31 29  2  0  0  0  0
 32 25  2  0  0  0  0
M  END
>  <minimizedAffinity>
-5.22189617

$$$$
