
     RDKit          3D

 34 36  0  0  0  0  0  0  0  0999 V2000
   38.1156   31.1910   47.8978 C   0  0  0  0  0  0  0  0  0  0  0  0
   38.3981   30.3752   46.7935 C   0  0  0  0  0  0  0  0  0  0  0  0
   39.1848   30.8143   45.7402 C   0  0  0  0  0  0  0  0  0  0  0  0
   39.7188   32.1313   45.7807 C   0  0  0  0  0  0  0  0  0  0  0  0
   39.4152   32.8870   46.8772 C   0  0  0  0  0  0  0  0  0  0  0  0
   38.6486   32.4641   47.9169 C   0  0  0  0  0  0  0  0  0  0  0  0
   37.8534   29.9654   49.9699 C   0  0  0  0  0  0  0  0  0  0  0  0
   37.2265   30.6051   48.8863 C   0  0  0  0  0  0  0  0  0  0  0  0
   35.8223   30.6111   48.8673 C   0  0  0  0  0  0  0  0  0  0  0  0
   35.1442   30.0189   49.8629 N   0  0  0  0  0  0  0  0  0  0  0  0
   35.7511   29.4122   50.8900 C   0  0  0  0  0  0  0  0  0  0  0  0
   37.0952   29.3902   50.9349 N   0  0  0  0  0  0  0  0  0  0  0  0
   39.3504   34.2885   49.2151 C   0  0  0  0  0  0  0  0  0  0  0  0
   40.3683   34.3090   48.4385 O   0  0  0  0  0  0  0  0  0  0  0  0
   38.3765   33.2408   49.0447 N   0  0  0  0  0  0  0  0  0  0  0  0
   37.9920   29.3600   46.7491 H   0  0  0  0  0  0  0  0  0  0  0  0
   39.3449   30.0897   44.9226 H   0  0  0  0  0  0  0  0  0  0  0  0
   40.2930   32.3028   44.8985 H   0  0  0  0  0  0  0  0  0  0  0  0
   39.8723   33.8285   46.6624 H   0  0  0  0  0  0  0  0  0  0  0  0
   38.9312   29.9134   50.0648 H   0  0  0  0  0  0  0  0  0  0  0  0
   35.3922   31.1186   48.0080 H   0  0  0  0  0  0  0  0  0  0  0  0
   35.0967   28.9738   51.6257 H   0  0  0  0  0  0  0  0  0  0  0  0
   37.5688   33.0743   49.6683 H   0  0  0  0  0  0  0  0  0  0  0  0
   37.3451   33.5309   51.3911 Cl  0  0  0  0  0  0  0  0  0  0  0  0
   38.2262   35.0428   51.3152 C   0  0  0  0  0  0  0  0  0  0  0  0
   39.1097   35.2850   50.2887 C   0  0  0  0  0  0  0  0  0  0  0  0
   39.8555   36.4369   50.1296 C   0  0  0  0  0  0  0  0  0  0  0  0
   40.5385   36.6076   49.3234 H   0  0  0  0  0  0  0  0  0  0  0  0
   39.6805   37.4131   51.0974 C   0  0  0  0  0  0  0  0  0  0  0  0
   40.2309   38.3581   51.0510 H   0  0  0  0  0  0  0  0  0  0  0  0
   38.8122   37.2418   52.1561 C   0  0  0  0  0  0  0  0  0  0  0  0
   38.1093   36.0568   52.2320 C   0  0  0  0  0  0  0  0  0  0  0  0
   38.6750   38.0069   52.9144 H   0  0  0  0  0  0  0  0  0  0  0  0
   37.4158   35.9115   53.0707 H   0  0  0  0  0  0  0  0  0  0  0  0
  1  6  1  0
  1  8  1  0
  2  1  2  0
  3  4  2  0
  3  2  1  0
  4  5  1  0
  5  6  2  0
  6 15  1  0
  7 12  2  0
  8  9  2  0
  8  7  1  0
  9 10  1  0
 10 11  2  0
 11 12  1  0
 14 13  2  0
 15 13  1  0
  2 16  1  0
  3 17  1  0
  4 18  1  0
  5 19  1  0
  7 20  1  0
  9 21  1  0
 11 22  1  0
 15 23  1  0
 24 25  1  0
 25 26  2  0
 26 27  1  0
 27 28  1  0
 27 29  2  0
 29 30  1  0
 29 31  1  0
 31 32  2  0
 32 25  1  0
 31 33  1  0
 32 34  1  0
 13 26  1  0
M  ISO  8  16  14  17  14  18  14  19  14  20  14  21  14  22  14  28  15
M  ISO  1  30  16
M  END
>  <DihAtoms>  (1) 
13,12,25,24

>  <DihDeg>  (1) 
62.72207911959343

$$$$
