
 OpenBabel03272508593D

 40 43  0  0  1  0  0  0  0  0999 V2000
   38.7750   26.8650   32.4680 C   0  0  0  0  0  0  0  0  0  0  0  0
   39.9030   27.1820   32.9150 O   0  0  0  0  0  0  0  0  0  0  0  0
   38.2030   25.5520   32.7320 N   0  0  0  0  0  0  0  0  0  0  0  0
   37.3860   25.1760   32.2410 H   0  0  0  0  0  0  0  0  0  0  0  0
   37.9750   27.8060   31.6540 C   0  0  0  0  0  0  0  0  0  0  0  0
   38.1830   27.8520   30.3050 C   0  0  0  0  0  0  0  0  0  0  0  0
   37.4210   28.7420   29.5680 C   0  0  0  0  0  0  0  0  0  0  0  0
   36.5020   29.5250   30.2410 C   0  0  0  0  0  0  0  0  0  0  0  0
   36.2910   29.4760   31.6180 C   0  0  0  0  0  0  0  0  0  0  0  0
   37.0600   28.5950   32.2700 N   0  0  0  0  0  0  0  0  0  0  0  0
   38.9020   27.2380   29.7820 H   0  0  0  0  0  0  0  0  0  0  0  0
   37.4910   28.8750   28.4960 H   0  0  0  0  0  0  0  0  0  0  0  0
   35.8730   30.2490   29.7020 H   0  0  0  0  0  0  0  0  0  0  0  0
   35.3040   30.3300   32.2580 C   0  0  0  0  0  0  0  0  0  0  0  0
   34.1870   30.4730   31.7130 O   0  0  0  0  0  0  0  0  0  0  0  0
   36.3940   32.9940   31.6830 Cl  0  0  0  0  0  0  0  0  0  0  0  0
   36.0940   32.2940   33.2600 C   0  0  0  0  0  0  0  0  0  0  0  0
   35.5770   31.0280   33.5210 C   0  0  0  0  0  0  0  0  0  0  0  0
   35.3940   30.6050   34.8030 C   0  0  0  0  0  0  0  0  0  0  0  0
   34.9910   29.6180   34.8740 H   0  0  0  0  0  0  0  0  0  0  0  0
   35.7240   31.4390   35.8510 C   0  0  0  0  0  0  0  0  0  0  0  0
   35.5620   31.0640   36.8580 H   0  0  0  0  0  0  0  0  0  0  0  0
   36.2460   32.7160   35.6170 C   0  0  0  0  0  3  0  0  0  0  0  0
   36.4340   33.1500   34.3140 C   0  0  0  0  0  3  0  0  0  0  0  0
   38.0550   23.8760   34.5530 C   0  0  2  0  0  0  0  0  0  0  0  0
   38.8260   23.2400   33.4510 C   0  0  0  0  0  0  0  0  0  0  0  0
   38.8400   24.7540   33.7490 C   0  0  1  0  0  0  0  0  0  0  0  0
   36.9570   23.7920   34.4230 H   0  0  0  0  0  0  0  0  0  0  0  0
   39.6950   22.6350   33.7460 H   0  0  0  0  0  0  0  0  0  0  0  0
   38.3020   22.9040   32.5580 H   0  0  0  0  0  0  0  0  0  0  0  0
   39.8520   25.0860   34.1220 H   0  0  0  0  0  0  0  0  0  0  0  0
   39.9850   22.7350   37.5220 C   0  0  0  0  0  0  0  0  0  0  0  0
   39.1720   23.2250   38.5990 C   0  0  0  0  0  0  0  0  0  0  0  0
   37.9580   23.9420   38.2650 C   0  0  0  0  0  0  0  0  0  0  0  0
   37.6300   24.1230   36.9490 N   0  0  0  0  0  0  0  0  0  0  0  0
   38.4520   23.6280   35.9930 C   0  0  0  0  0  0  0  0  0  0  0  0
   39.6310   22.9320   36.2350 N   0  0  0  0  0  0  0  0  0  0  0  0
   40.8820   22.2070   37.8110 H   0  0  0  0  0  0  0  0  0  0  0  0
   39.4310   23.0820   39.6220 H   0  0  0  0  0  0  0  0  0  0  0  0
   37.3650   24.2990   39.0730 H   0  0  0  0  0  0  0  0  0  0  0  0
  1  3  1  0  0  0  0
  1  2  2  0  0  0  0
  3 27  1  0  0  0  0
  4  3  1  0  0  0  0
  5 10  1  0  0  0  0
  5  1  1  0  0  0  0
  6  5  2  0  0  0  0
  7  8  2  0  0  0  0
  7  6  1  0  0  0  0
  8  9  1  0  0  0  0
  9 14  1  0  0  0  0
  9 10  2  0  0  0  0
 11  6  1  0  0  0  0
 12  7  1  0  0  0  0
 13  8  1  0  0  0  0
 14 18  1  0  0  0  0
 15 14  2  0  0  0  0
 16 17  1  0  0  0  0
 17 18  2  0  0  0  0
 17 24  1  0  0  0  0
 18 19  1  0  0  0  0
 19 20  1  0  0  0  0
 19 21  2  0  0  0  0
 21 22  1  0  0  0  0
 23 21  1  0  0  0  0
 24 23  2  0  0  0  0
 25 28  1  6  0  0  0
 25 36  1  0  0  0  0
 26 29  1  0  0  0  0
 26 27  1  0  0  0  0
 26 25  1  0  0  0  0
 27 31  1  1  0  0  0
 27 25  1  0  0  0  0
 30 26  1  0  0  0  0
 32 38  1  0  0  0  0
 32 33  1  0  0  0  0
 33 39  1  0  0  0  0
 34 33  2  0  0  0  0
 34 40  1  0  0  0  0
 35 34  1  0  0  0  0
 36 37  1  0  0  0  0
 36 35  2  0  0  0  0
 37 32  2  0  0  0  0
M  END
>  <minimizedAffinity>
-6.02357483

$$$$

 OpenBabel03272508593D

 40 43  0  0  1  0  0  0  0  0999 V2000
   36.5720   24.2470   31.3380 C   0  0  0  0  0  0  0  0  0  0  0  0
   37.3160   24.0430   30.3490 O   0  0  0  0  0  0  0  0  0  0  0  0
   35.5480   23.2830   31.7200 N   0  0  0  0  0  0  0  0  0  0  0  0
   34.7980   23.4830   32.3890 H   0  0  0  0  0  0  0  0  0  0  0  0
   36.6980   25.4690   32.1610 C   0  0  0  0  0  0  0  0  0  0  0  0
   36.1010   26.6190   31.7290 C   0  0  0  0  0  0  0  0  0  0  0  0
   36.2370   27.7480   32.5180 C   0  0  0  0  0  0  0  0  0  0  0  0
   36.9640   27.6410   33.6880 C   0  0  0  0  0  0  0  0  0  0  0  0
   37.5730   26.4670   34.1270 C   0  0  0  0  0  0  0  0  0  0  0  0
   37.4030   25.4130   33.3180 N   0  0  0  0  0  0  0  0  0  0  0  0
   35.5320   26.6990   30.8140 H   0  0  0  0  0  0  0  0  0  0  0  0
   35.8140   28.7170   32.2870 H   0  0  0  0  0  0  0  0  0  0  0  0
   37.1030   28.5090   34.3500 H   0  0  0  0  0  0  0  0  0  0  0  0
   38.3230   26.4280   35.3720 C   0  0  0  0  0  0  0  0  0  0  0  0
   38.7470   27.5030   35.8530 O   0  0  0  0  0  0  0  0  0  0  0  0
   40.8400   25.2860   34.3860 Cl  0  0  0  0  0  0  0  0  0  0  0  0
   39.7910   24.6210   35.6200 C   0  0  0  0  0  0  0  0  0  0  0  0
   38.5980   25.1720   36.0790 C   0  0  0  0  0  0  0  0  0  0  0  0
   37.8740   24.5460   37.0500 C   0  0  0  0  0  0  0  0  0  0  0  0
   36.9800   25.0650   37.3180 H   0  0  0  0  0  0  0  0  0  0  0  0
   38.3280   23.3560   37.5800 C   0  0  0  0  0  0  0  0  0  0  0  0
   37.7210   22.8890   38.3520 H   0  0  0  0  0  0  0  0  0  0  0  0
   39.5230   22.7800   37.1360 C   0  0  0  0  0  3  0  0  0  0  0  0
   40.2630   23.4140   36.1490 C   0  0  0  0  0  3  0  0  0  0  0  0
   36.4490   20.9740   31.6770 C   0  0  2  0  0  0  0  0  0  0  0  0
   34.9940   20.8580   31.9650 C   0  0  0  0  0  0  0  0  0  0  0  0
   35.6150   21.9810   31.1070 C   0  0  1  0  0  0  0  0  0  0  0  0
   37.0590   21.1670   32.5830 H   0  0  0  0  0  0  0  0  0  0  0  0
   34.4580   20.0420   31.4590 H   0  0  0  0  0  0  0  0  0  0  0  0
   34.6220   21.1210   32.9530 H   0  0  0  0  0  0  0  0  0  0  0  0
   35.3010   21.8900   30.0270 H   0  0  0  0  0  0  0  0  0  0  0  0
   36.9770   18.4820   28.9650 C   0  0  0  0  0  0  0  0  0  0  0  0
   38.3700   18.1730   29.1260 C   0  0  0  0  0  0  0  0  0  0  0  0
   39.0980   18.8380   30.1880 C   0  0  0  0  0  0  0  0  0  0  0  0
   38.4400   19.7280   30.9930 N   0  0  0  0  0  0  0  0  0  0  0  0
   37.1240   19.9640   30.7740 C   0  0  0  0  0  0  0  0  0  0  0  0
   36.3600   19.3660   29.7780 N   0  0  0  0  0  0  0  0  0  0  0  0
   36.4690   17.9670   28.1640 H   0  0  0  0  0  0  0  0  0  0  0  0
   38.8780   17.4800   28.4980 H   0  0  0  0  0  0  0  0  0  0  0  0
   40.1290   18.5990   30.2970 H   0  0  0  0  0  0  0  0  0  0  0  0
  1  3  1  0  0  0  0
  1  5  1  0  0  0  0
  2  1  2  0  0  0  0
  3  4  1  0  0  0  0
  5 10  1  0  0  0  0
  6  5  2  0  0  0  0
  6  7  1  0  0  0  0
  7  8  2  0  0  0  0
  8  9  1  0  0  0  0
  8 13  1  0  0  0  0
  9 14  1  0  0  0  0
 10  9  2  0  0  0  0
 11  6  1  0  0  0  0
 12  7  1  0  0  0  0
 14 15  2  0  0  0  0
 14 18  1  0  0  0  0
 16 17  1  0  0  0  0
 17 18  2  0  0  0  0
 17 24  1  0  0  0  0
 18 19  1  0  0  0  0
 19 20  1  0  0  0  0
 19 21  2  0  0  0  0
 21 22  1  0  0  0  0
 23 21  1  0  0  0  0
 24 23  2  0  0  0  0
 25 26  1  0  0  0  0
 25 28  1  1  0  0  0
 26 30  1  0  0  0  0
 27 31  1  6  0  0  0
 27 25  1  0  0  0  0
 27  3  1  0  0  0  0
 27 26  1  0  0  0  0
 29 26  1  0  0  0  0
 32 33  2  0  0  0  0
 32 37  1  0  0  0  0
 33 34  1  0  0  0  0
 34 40  1  0  0  0  0
 34 35  2  0  0  0  0
 36 35  1  0  0  0  0
 36 25  1  0  0  0  0
 37 36  2  0  0  0  0
 38 32  1  0  0  0  0
 39 33  1  0  0  0  0
M  END
>  <minimizedAffinity>
-6.017138

$$$$

 OpenBabel03272508593D

 40 43  0  0  1  0  0  0  0  0999 V2000
   37.8680   26.7030   35.3990 C   0  0  0  0  0  0  0  0  0  0  0  0
   38.7550   27.5470   35.6740 O   0  0  0  0  0  0  0  0  0  0  0  0
   36.6530   27.0910   34.6960 N   0  0  0  0  0  0  0  0  0  0  0  0
   35.8240   26.4940   34.6160 H   0  0  0  0  0  0  0  0  0  0  0  0
   38.0130   25.2800   35.7740 C   0  0  0  0  0  0  0  0  0  0  0  0
   38.0760   24.9500   37.0970 C   0  0  0  0  0  0  0  0  0  0  0  0
   38.2130   23.6100   37.4190 C   0  0  0  0  0  0  0  0  0  0  0  0
   38.2780   22.6960   36.3850 C   0  0  0  0  0  0  0  0  0  0  0  0
   38.2130   23.0350   35.0340 C   0  0  0  0  0  0  0  0  0  0  0  0
   38.0810   24.3450   34.7930 N   0  0  0  0  0  0  0  0  0  0  0  0
   38.0240   25.6670   37.9030 H   0  0  0  0  0  0  0  0  0  0  0  0
   38.2760   23.2210   38.4270 H   0  0  0  0  0  0  0  0  0  0  0  0
   38.3880   21.6190   36.5870 H   0  0  0  0  0  0  0  0  0  0  0  0
   38.2870   22.0170   33.9990 C   0  0  0  0  0  0  0  0  0  0  0  0
   39.4090   21.5710   33.6710 O   0  0  0  0  0  0  0  0  0  0  0  0
   37.9910   23.3220   31.3870 Cl  0  0  0  0  0  0  0  0  0  0  0  0
   36.9390   22.1100   32.0870 C   0  0  0  0  0  0  0  0  0  0  0  0
   37.0890   21.4980   33.3280 C   0  0  0  0  0  0  0  0  0  0  0  0
   36.1900   20.5660   33.7540 C   0  0  0  0  0  0  0  0  0  0  0  0
   36.4130   20.1690   34.7200 H   0  0  0  0  0  0  0  0  0  0  0  0
   35.1240   20.2260   32.9470 C   0  0  0  0  0  0  0  0  0  0  0  0
   34.4310   19.4790   33.3240 H   0  0  0  0  0  0  0  0  0  0  0  0
   34.9490   20.8270   31.6960 C   0  0  0  0  0  3  0  0  0  0  0  0
   35.8600   21.7760   31.2590 C   0  0  0  0  0  3  0  0  0  0  0  0
   35.7760   28.6490   32.9790 C   0  0  2  0  0  0  0  0  0  0  0  0
   35.3220   29.1690   34.2970 C   0  0  0  0  0  0  0  0  0  0  0  0
   36.6400   28.3960   34.0840 C   0  0  1  0  0  0  0  0  0  0  0  0
   35.1100   27.8640   32.5670 H   0  0  0  0  0  0  0  0  0  0  0  0
   35.3650   30.2600   34.4350 H   0  0  0  0  0  0  0  0  0  0  0  0
   34.5150   28.6620   34.8220 H   0  0  0  0  0  0  0  0  0  0  0  0
   37.5360   29.0630   34.2480 H   0  0  0  0  0  0  0  0  0  0  0  0
   37.0240   29.9510   29.7240 C   0  0  0  0  0  0  0  0  0  0  0  0
   36.9590   31.3690   29.9380 C   0  0  0  0  0  0  0  0  0  0  0  0
   36.4850   31.8440   31.2230 C   0  0  0  0  0  0  0  0  0  0  0  0
   36.1210   30.9350   32.1780 N   0  0  0  0  0  0  0  0  0  0  0  0
   36.2120   29.6130   31.8950 C   0  0  0  0  0  0  0  0  0  0  0  0
   36.6570   29.0820   30.6890 N   0  0  0  0  0  0  0  0  0  0  0  0
   37.3810   29.6360   28.7550 H   0  0  0  0  0  0  0  0  0  0  0  0
   37.2430   32.0730   29.1920 H   0  0  0  0  0  0  0  0  0  0  0  0
   36.4420   32.8980   31.3680 H   0  0  0  0  0  0  0  0  0  0  0  0
  1  2  2  0  0  0  0
  1  5  1  0  0  0  0
  3  1  1  0  0  0  0
  4  3  1  0  0  0  0
  5  6  1  0  0  0  0
  6  7  2  0  0  0  0
  6 11  1  0  0  0  0
  7 12  1  0  0  0  0
  8 13  1  0  0  0  0
  8  7  1  0  0  0  0
  9  8  2  0  0  0  0
 10  9  1  0  0  0  0
 10  5  2  0  0  0  0
 14  9  1  0  0  0  0
 15 14  2  0  0  0  0
 16 17  1  0  0  0  0
 17 18  1  0  0  0  0
 18 19  2  0  0  0  0
 18 14  1  0  0  0  0
 19 20  1  0  0  0  0
 21 22  1  0  0  0  0
 21 19  1  0  0  0  0
 23 21  2  0  0  0  0
 24 23  1  0  0  0  0
 24 17  2  0  0  0  0
 25 28  1  6  0  0  0
 25 27  1  0  0  0  0
 25 26  1  0  0  0  0
 26 29  1  0  0  0  0
 26 30  1  0  0  0  0
 27 31  1  1  0  0  0
 27 26  1  0  0  0  0
 27  3  1  0  0  0  0
 32 33  2  0  0  0  0
 32 37  1  0  0  0  0
 33 34  1  0  0  0  0
 34 40  1  0  0  0  0
 34 35  2  0  0  0  0
 36 35  1  0  0  0  0
 36 25  1  0  0  0  0
 37 36  2  0  0  0  0
 38 32  1  0  0  0  0
 39 33  1  0  0  0  0
M  END
>  <minimizedAffinity>
-5.98345089

$$$$

 OpenBabel03272508593D

 40 43  0  0  1  0  0  0  0  0999 V2000
   37.8720   27.0340   34.6790 C   0  0  0  0  0  0  0  0  0  0  0  0
   37.4810   26.3950   35.6850 O   0  0  0  0  0  0  0  0  0  0  0  0
   39.2920   27.1950   34.3960 N   0  0  0  0  0  0  0  0  0  0  0  0
   39.6660   27.8560   33.7090 H   0  0  0  0  0  0  0  0  0  0  0  0
   36.9150   27.6530   33.7360 C   0  0  0  0  0  0  0  0  0  0  0  0
   36.6710   27.0340   32.5440 C   0  0  0  0  0  0  0  0  0  0  0  0
   35.7720   27.6360   31.6800 C   0  0  0  0  0  0  0  0  0  0  0  0
   35.1820   28.8210   32.0780 C   0  0  0  0  0  0  0  0  0  0  0  0
   35.4320   29.4510   33.2950 C   0  0  0  0  0  0  0  0  0  0  0  0
   36.3110   28.8160   34.0830 N   0  0  0  0  0  0  0  0  0  0  0  0
   37.1340   26.1070   32.2360 H   0  0  0  0  0  0  0  0  0  0  0  0
   35.4950   27.2480   30.7090 H   0  0  0  0  0  0  0  0  0  0  0  0
   34.4610   29.3400   31.4280 H   0  0  0  0  0  0  0  0  0  0  0  0
   34.7720   30.6970   33.6470 C   0  0  0  0  0  0  0  0  0  0  0  0
   34.8460   31.6630   32.8540 O   0  0  0  0  0  0  0  0  0  0  0  0
   36.3520   32.3060   35.5260 Cl  0  0  0  0  0  0  0  0  0  0  0  0
   34.7640   31.6200   35.7990 C   0  0  0  0  0  0  0  0  0  0  0  0
   34.0240   30.8580   34.9000 C   0  0  0  0  0  0  0  0  0  0  0  0
   32.7940   30.3820   35.2430 C   0  0  0  0  0  0  0  0  0  0  0  0
   32.3250   29.8130   34.4700 H   0  0  0  0  0  0  0  0  0  0  0  0
   32.2780   30.6600   36.4920 C   0  0  0  0  0  0  0  0  0  0  0  0
   31.2940   30.2620   36.7260 H   0  0  0  0  0  0  0  0  0  0  0  0
   33.0020   31.4230   37.4160 C   0  0  0  0  0  3  0  0  0  0  0  0
   34.2540   31.9080   37.0710 C   0  0  0  0  0  3  0  0  0  0  0  0
   40.5830   25.0900   34.6170 C   0  0  2  0  0  0  0  0  0  0  0  0
   41.5780   26.1850   34.4580 C   0  0  0  0  0  0  0  0  0  0  0  0
   40.2050   26.3620   35.1390 C   0  0  1  0  0  0  0  0  0  0  0  0
   40.1890   24.7150   33.6510 H   0  0  0  0  0  0  0  0  0  0  0  0
   42.4770   26.1270   35.0880 H   0  0  0  0  0  0  0  0  0  0  0  0
   41.7210   26.6380   33.4780 H   0  0  0  0  0  0  0  0  0  0  0  0
   40.3200   26.5620   36.2430 H   0  0  0  0  0  0  0  0  0  0  0  0
   40.0680   22.4310   37.1680 C   0  0  0  0  0  0  0  0  0  0  0  0
   41.3810   21.8570   37.2550 C   0  0  0  0  0  0  0  0  0  0  0  0
   42.4260   22.4180   36.4220 C   0  0  0  0  0  0  0  0  0  0  0  0
   42.1290   23.4640   35.5920 N   0  0  0  0  0  0  0  0  0  0  0  0
   40.8640   23.9470   35.5700 C   0  0  0  0  0  0  0  0  0  0  0  0
   39.8100   23.4630   36.3380 N   0  0  0  0  0  0  0  0  0  0  0  0
   39.3160   21.9860   37.8030 H   0  0  0  0  0  0  0  0  0  0  0  0
   41.6080   21.0440   37.9020 H   0  0  0  0  0  0  0  0  0  0  0  0
   43.3950   21.9840   36.4970 H   0  0  0  0  0  0  0  0  0  0  0  0
  1  2  2  0  0  0  0
  3  1  1  0  0  0  0
  3 27  1  0  0  0  0
  4  3  1  0  0  0  0
  5 10  1  0  0  0  0
  5  1  1  0  0  0  0
  6  5  2  0  0  0  0
  7  8  2  0  0  0  0
  7  6  1  0  0  0  0
  8  9  1  0  0  0  0
  9 14  1  0  0  0  0
  9 10  2  0  0  0  0
 11  6  1  0  0  0  0
 12  7  1  0  0  0  0
 13  8  1  0  0  0  0
 14 18  1  0  0  0  0
 15 14  2  0  0  0  0
 16 17  1  0  0  0  0
 17 24  1  0  0  0  0
 18 19  1  0  0  0  0
 18 17  2  0  0  0  0
 19 21  2  0  0  0  0
 20 19  1  0  0  0  0
 21 22  1  0  0  0  0
 21 23  1  0  0  0  0
 24 23  2  0  0  0  0
 25 28  1  6  0  0  0
 25 27  1  0  0  0  0
 25 36  1  0  0  0  0
 26 25  1  0  0  0  0
 26 29  1  0  0  0  0
 26 27  1  0  0  0  0
 27 31  1  1  0  0  0
 30 26  1  0  0  0  0
 32 33  1  0  0  0  0
 32 38  1  0  0  0  0
 33 39  1  0  0  0  0
 34 40  1  0  0  0  0
 34 33  2  0  0  0  0
 35 34  1  0  0  0  0
 36 35  2  0  0  0  0
 36 37  1  0  0  0  0
 37 32  2  0  0  0  0
M  END
>  <minimizedAffinity>
-5.92076731

$$$$

 OpenBabel03272508593D

 40 43  0  0  1  0  0  0  0  0999 V2000
   37.8850   26.8660   31.3320 C   0  0  0  0  0  0  0  0  0  0  0  0
   38.6570   26.7510   32.3140 O   0  0  0  0  0  0  0  0  0  0  0  0
   37.3700   25.6920   30.6400 N   0  0  0  0  0  0  0  0  0  0  0  0
   36.8990   25.7270   29.7300 H   0  0  0  0  0  0  0  0  0  0  0  0
   37.4630   28.1920   30.8320 C   0  0  0  0  0  0  0  0  0  0  0  0
   37.9290   28.6190   29.6220 C   0  0  0  0  0  0  0  0  0  0  0  0
   37.5190   29.8650   29.1790 C   0  0  0  0  0  0  0  0  0  0  0  0
   36.6670   30.5950   29.9870 C   0  0  0  0  0  0  0  0  0  0  0  0
   36.1920   30.1560   31.2220 C   0  0  0  0  0  0  0  0  0  0  0  0
   36.6270   28.9440   31.5900 N   0  0  0  0  0  0  0  0  0  0  0  0
   38.5950   28.0460   28.9930 H   0  0  0  0  0  0  0  0  0  0  0  0
   37.8180   30.3170   28.2420 H   0  0  0  0  0  0  0  0  0  0  0  0
   36.3120   31.5910   29.6820 H   0  0  0  0  0  0  0  0  0  0  0  0
   35.2950   30.9780   32.0180 C   0  0  0  0  0  0  0  0  0  0  0  0
   34.0880   31.0430   31.6910 O   0  0  0  0  0  0  0  0  0  0  0  0
   34.7280   29.4450   34.4540 Cl  0  0  0  0  0  0  0  0  0  0  0  0
   35.4960   31.0140   34.3500 C   0  0  0  0  0  0  0  0  0  0  0  0
   35.7600   31.7330   33.1870 C   0  0  0  0  0  0  0  0  0  0  0  0
   36.3660   32.9520   33.2490 C   0  0  0  0  0  0  0  0  0  0  0  0
   36.5150   33.4040   32.2930 H   0  0  0  0  0  0  0  0  0  0  0  0
   36.7210   33.4770   34.4750 C   0  0  0  0  0  0  0  0  0  0  0  0
   37.2030   34.4520   34.4800 H   0  0  0  0  0  0  0  0  0  0  0  0
   36.4670   32.7760   35.6590 C   0  0  0  0  0  3  0  0  0  0  0  0
   35.8500   31.5360   35.6000 C   0  0  0  0  0  3  0  0  0  0  0  0
   36.8220   23.2810   30.8250 C   0  0  2  0  0  0  0  0  0  0  0  0
   38.2500   23.3630   30.4170 C   0  0  0  0  0  0  0  0  0  0  0  0
   37.5440   24.4190   31.2930 C   0  0  1  0  0  0  0  0  0  0  0  0
   36.1190   23.3470   29.9700 H   0  0  0  0  0  0  0  0  0  0  0  0
   38.9400   22.6530   30.8970 H   0  0  0  0  0  0  0  0  0  0  0  0
   38.4990   23.6360   29.3930 H   0  0  0  0  0  0  0  0  0  0  0  0
   37.9540   24.4180   32.3440 H   0  0  0  0  0  0  0  0  0  0  0  0
   36.5980   21.2380   33.9270 C   0  0  0  0  0  0  0  0  0  0  0  0
   35.5360   20.3300   33.5960 C   0  0  0  0  0  0  0  0  0  0  0  0
   34.9220   20.4450   32.2880 C   0  0  0  0  0  0  0  0  0  0  0  0
   35.3710   21.4050   31.4220 N   0  0  0  0  0  0  0  0  0  0  0  0
   36.3780   22.2230   31.8120 C   0  0  0  0  0  0  0  0  0  0  0  0
   37.0160   22.1730   33.0470 N   0  0  0  0  0  0  0  0  0  0  0  0
   37.0290   21.1210   34.9100 H   0  0  0  0  0  0  0  0  0  0  0  0
   35.1890   19.5850   34.2730 H   0  0  0  0  0  0  0  0  0  0  0  0
   34.1370   19.7660   32.0560 H   0  0  0  0  0  0  0  0  0  0  0  0
  1  2  2  0  0  0  0
  3 27  1  0  0  0  0
  3  1  1  0  0  0  0
  4  3  1  0  0  0  0
  5  1  1  0  0  0  0
  5 10  1  0  0  0  0
  6  5  2  0  0  0  0
  7  6  1  0  0  0  0
  7  8  2  0  0  0  0
  8  9  1  0  0  0  0
  9 10  2  0  0  0  0
  9 14  1  0  0  0  0
 11  6  1  0  0  0  0
 12  7  1  0  0  0  0
 13  8  1  0  0  0  0
 14 18  1  0  0  0  0
 15 14  2  0  0  0  0
 17 16  1  0  0  0  0
 17 24  1  0  0  0  0
 18 19  1  0  0  0  0
 18 17  2  0  0  0  0
 19 21  2  0  0  0  0
 20 19  1  0  0  0  0
 21 22  1  0  0  0  0
 21 23  1  0  0  0  0
 24 23  2  0  0  0  0
 25 28  1  6  0  0  0
 25 27  1  0  0  0  0
 25 36  1  0  0  0  0
 26 25  1  0  0  0  0
 26 29  1  0  0  0  0
 26 27  1  0  0  0  0
 27 31  1  1  0  0  0
 30 26  1  0  0  0  0
 32 38  1  0  0  0  0
 33 32  1  0  0  0  0
 33 39  1  0  0  0  0
 34 33  2  0  0  0  0
 35 36  2  0  0  0  0
 35 34  1  0  0  0  0
 36 37  1  0  0  0  0
 37 32  2  0  0  0  0
 40 34  1  0  0  0  0
M  END
>  <minimizedAffinity>
-5.83424425

$$$$

 OpenBabel03272508593D

 40 43  0  0  1  0  0  0  0  0999 V2000
   36.5610   27.7950   32.5530 C   0  0  0  0  0  0  0  0  0  0  0  0
   35.9690   27.8480   31.4480 O   0  0  0  0  0  0  0  0  0  0  0  0
   36.1780   28.6710   33.6520 N   0  0  0  0  0  0  0  0  0  0  0  0
   36.7410   28.8040   34.4980 H   0  0  0  0  0  0  0  0  0  0  0  0
   37.6700   26.8470   32.7910 C   0  0  0  0  0  0  0  0  0  0  0  0
   38.8950   27.1150   32.2490 C   0  0  0  0  0  0  0  0  0  0  0  0
   39.9140   26.2100   32.4870 C   0  0  0  0  0  0  0  0  0  0  0  0
   39.6300   25.0960   33.2540 C   0  0  0  0  0  0  0  0  0  0  0  0
   38.3790   24.8240   33.8060 C   0  0  0  0  0  0  0  0  0  0  0  0
   37.4390   25.7390   33.5380 N   0  0  0  0  0  0  0  0  0  0  0  0
   39.1140   27.9880   31.6510 H   0  0  0  0  0  0  0  0  0  0  0  0
   40.9260   26.3070   32.1150 H   0  0  0  0  0  0  0  0  0  0  0  0
   40.4050   24.3460   33.4720 H   0  0  0  0  0  0  0  0  0  0  0  0
   38.1530   23.6310   34.6050 C   0  0  0  0  0  0  0  0  0  0  0  0
   37.7940   22.5790   34.0290 O   0  0  0  0  0  0  0  0  0  0  0  0
   40.6480   22.2340   35.2700 Cl  0  0  0  0  0  0  0  0  0  0  0  0
   39.5140   22.9610   36.3890 C   0  0  0  0  0  0  0  0  0  0  0  0
   38.3330   23.6210   36.0620 C   0  0  0  0  0  0  0  0  0  0  0  0
   37.5380   24.1420   37.0380 C   0  0  0  0  0  0  0  0  0  0  0  0
   36.6610   24.6240   36.6630 H   0  0  0  0  0  0  0  0  0  0  0  0
   37.9070   24.0150   38.3610 C   0  0  0  0  0  0  0  0  0  0  0  0
   37.2450   24.4440   39.1080 H   0  0  0  0  0  0  0  0  0  0  0  0
   39.0880   23.3550   38.7180 C   0  0  0  0  0  3  0  0  0  0  0  0
   39.9000   22.8230   37.7280 C   0  0  0  0  0  3  0  0  0  0  0  0
   34.1850   29.7210   34.6870 C   0  0  2  0  0  0  0  0  0  0  0  0
   34.9730   30.8210   34.0690 C   0  0  0  0  0  0  0  0  0  0  0  0
   34.9300   29.3790   33.5200 C   0  0  1  0  0  0  0  0  0  0  0  0
   34.5360   29.4500   35.7030 H   0  0  0  0  0  0  0  0  0  0  0  0
   34.4000   31.6020   33.5480 H   0  0  0  0  0  0  0  0  0  0  0  0
   35.8910   31.1550   34.5480 H   0  0  0  0  0  0  0  0  0  0  0  0
   34.4040   29.3380   32.5220 H   0  0  0  0  0  0  0  0  0  0  0  0
   30.7260   30.2740   33.4310 C   0  0  0  0  0  0  0  0  0  0  0  0
   29.9410   29.7510   34.5130 C   0  0  0  0  0  0  0  0  0  0  0  0
   30.6380   29.2210   35.6680 C   0  0  0  0  0  0  0  0  0  0  0  0
   32.0060   29.2370   35.6880 N   0  0  0  0  0  0  0  0  0  0  0  0
   32.6720   29.7470   34.6250 C   0  0  0  0  0  0  0  0  0  0  0  0
   32.0750   30.2730   33.4840 N   0  0  0  0  0  0  0  0  0  0  0  0
   30.1710   30.6590   32.5890 H   0  0  0  0  0  0  0  0  0  0  0  0
   28.8760   29.7410   34.4940 H   0  0  0  0  0  0  0  0  0  0  0  0
   30.0430   28.8380   36.4630 H   0  0  0  0  0  0  0  0  0  0  0  0
  1  5  1  0  0  0  0
  1  3  1  0  0  0  0
  2  1  2  0  0  0  0
  3  4  1  0  0  0  0
  5 10  1  0  0  0  0
  6  7  1  0  0  0  0
  6  5  2  0  0  0  0
  7  8  2  0  0  0  0
  8 13  1  0  0  0  0
  8  9  1  0  0  0  0
  9 14  1  0  0  0  0
 10  9  2  0  0  0  0
 11  6  1  0  0  0  0
 12  7  1  0  0  0  0
 14 18  1  0  0  0  0
 15 14  2  0  0  0  0
 16 17  1  0  0  0  0
 17 24  1  0  0  0  0
 18 17  2  0  0  0  0
 18 19  1  0  0  0  0
 19 21  2  0  0  0  0
 20 19  1  0  0  0  0
 21 23  1  0  0  0  0
 21 22  1  0  0  0  0
 24 23  2  0  0  0  0
 25 28  1  1  0  0  0
 26 30  1  0  0  0  0
 26 25  1  0  0  0  0
 27 31  1  6  0  0  0
 27  3  1  0  0  0  0
 27 26  1  0  0  0  0
 27 25  1  0  0  0  0
 29 26  1  0  0  0  0
 32 37  2  0  0  0  0
 32 33  1  0  0  0  0
 33 34  2  0  0  0  0
 34 35  1  0  0  0  0
 34 40  1  0  0  0  0
 36 25  1  0  0  0  0
 36 35  2  0  0  0  0
 37 36  1  0  0  0  0
 38 32  1  0  0  0  0
 39 33  1  0  0  0  0
M  END
>  <minimizedAffinity>
-5.83193254

$$$$

 OpenBabel03272508593D

 40 43  0  0  1  0  0  0  0  0999 V2000
   37.4030   27.6490   33.9280 C   0  0  0  0  0  0  0  0  0  0  0  0
   37.3380   27.7580   35.1760 O   0  0  0  0  0  0  0  0  0  0  0  0
   38.3350   26.7210   33.3020 N   0  0  0  0  0  0  0  0  0  0  0  0
   38.5640   26.7290   32.3040 H   0  0  0  0  0  0  0  0  0  0  0  0
   36.5410   28.4550   33.0370 C   0  0  0  0  0  0  0  0  0  0  0  0
   36.9880   28.7530   31.7820 C   0  0  0  0  0  0  0  0  0  0  0  0
   36.1610   29.5100   30.9690 C   0  0  0  0  0  0  0  0  0  0  0  0
   34.9410   29.9150   31.4780 C   0  0  0  0  0  0  0  0  0  0  0  0
   34.4880   29.6090   32.7600 C   0  0  0  0  0  0  0  0  0  0  0  0
   35.3350   28.8750   33.4930 N   0  0  0  0  0  0  0  0  0  0  0  0
   37.9420   28.4350   31.3860 H   0  0  0  0  0  0  0  0  0  0  0  0
   36.3990   29.8140   29.9580 H   0  0  0  0  0  0  0  0  0  0  0  0
   34.2480   30.5190   30.8730 H   0  0  0  0  0  0  0  0  0  0  0  0
   33.1900   30.0680   33.2280 C   0  0  0  0  0  0  0  0  0  0  0  0
   32.2950   30.3050   32.3850 O   0  0  0  0  0  0  0  0  0  0  0  0
   34.2550   32.6620   34.0960 Cl  0  0  0  0  0  0  0  0  0  0  0  0
   33.3980   31.4910   35.0760 C   0  0  0  0  0  0  0  0  0  0  0  0
   32.8980   30.2620   34.6530 C   0  0  0  0  0  0  0  0  0  0  0  0
   32.2480   29.4420   35.5250 C   0  0  0  0  0  0  0  0  0  0  0  0
   31.9110   28.5300   35.0830 H   0  0  0  0  0  0  0  0  0  0  0  0
   32.0850   29.8320   36.8390 C   0  0  0  0  0  0  0  0  0  0  0  0
   31.5610   29.1490   37.5010 H   0  0  0  0  0  0  0  0  0  0  0  0
   32.5790   31.0610   37.2900 C   0  0  0  0  0  3  0  0  0  0  0  0
   33.2410   31.8990   36.4060 C   0  0  0  0  0  3  0  0  0  0  0  0
   38.1770   24.6830   34.7050 C   0  0  2  0  0  0  0  0  0  0  0  0
   39.0310   24.3320   33.5390 C   0  0  0  0  0  0  0  0  0  0  0  0
   38.9580   25.7430   34.1580 C   0  0  1  0  0  0  0  0  0  0  0  0
   37.0920   24.5900   34.4960 H   0  0  0  0  0  0  0  0  0  0  0  0
   39.9120   23.7080   33.7470 H   0  0  0  0  0  0  0  0  0  0  0  0
   38.5690   24.1800   32.5650 H   0  0  0  0  0  0  0  0  0  0  0  0
   39.9330   26.0220   34.6530 H   0  0  0  0  0  0  0  0  0  0  0  0
   37.9730   23.9730   38.3520 C   0  0  0  0  0  0  0  0  0  0  0  0
   39.1130   23.1210   38.5430 C   0  0  0  0  0  0  0  0  0  0  0  0
   39.9370   22.8160   37.3900 C   0  0  0  0  0  0  0  0  0  0  0  0
   39.6050   23.3460   36.1730 N   0  0  0  0  0  0  0  0  0  0  0  0
   38.5130   24.1410   36.0790 C   0  0  0  0  0  0  0  0  0  0  0  0
   37.6750   24.4790   37.1360 N   0  0  0  0  0  0  0  0  0  0  0  0
   37.3840   24.1770   39.2340 H   0  0  0  0  0  0  0  0  0  0  0  0
   39.3670   22.7110   39.4910 H   0  0  0  0  0  0  0  0  0  0  0  0
   40.7780   22.1830   37.5460 H   0  0  0  0  0  0  0  0  0  0  0  0
  1  2  2  0  0  0  0
  3  1  1  0  0  0  0
  3 27  1  0  0  0  0
  4  3  1  0  0  0  0
  5 10  1  0  0  0  0
  5  1  1  0  0  0  0
  6  5  2  0  0  0  0
  7  8  2  0  0  0  0
  7  6  1  0  0  0  0
  8  9  1  0  0  0  0
  9 14  1  0  0  0  0
  9 10  2  0  0  0  0
 11  6  1  0  0  0  0
 12  7  1  0  0  0  0
 13  8  1  0  0  0  0
 14 18  1  0  0  0  0
 15 14  2  0  0  0  0
 16 17  1  0  0  0  0
 17 24  1  0  0  0  0
 18 17  2  0  0  0  0
 18 19  1  0  0  0  0
 19 21  2  0  0  0  0
 20 19  1  0  0  0  0
 21 23  1  0  0  0  0
 21 22  1  0  0  0  0
 24 23  2  0  0  0  0
 25 28  1  6  0  0  0
 25 36  1  0  0  0  0
 26 29  1  0  0  0  0
 26 27  1  0  0  0  0
 26 25  1  0  0  0  0
 27 31  1  1  0  0  0
 27 25  1  0  0  0  0
 30 26  1  0  0  0  0
 32 33  1  0  0  0  0
 32 38  1  0  0  0  0
 33 39  1  0  0  0  0
 34 40  1  0  0  0  0
 34 33  2  0  0  0  0
 35 34  1  0  0  0  0
 36 35  2  0  0  0  0
 36 37  1  0  0  0  0
 37 32  2  0  0  0  0
M  END
>  <minimizedAffinity>
-5.8295784

$$$$

 OpenBabel03272508593D

 40 43  0  0  1  0  0  0  0  0999 V2000
   36.3320   28.1400   33.6750 C   0  0  0  0  0  0  0  0  0  0  0  0
   35.9580   28.1240   32.4780 O   0  0  0  0  0  0  0  0  0  0  0  0
   35.9180   29.2070   34.5770 N   0  0  0  0  0  0  0  0  0  0  0  0
   36.3400   29.3740   35.4960 H   0  0  0  0  0  0  0  0  0  0  0  0
   37.2070   27.0840   34.2270 C   0  0  0  0  0  0  0  0  0  0  0  0
   37.8270   27.2990   35.4240 C   0  0  0  0  0  0  0  0  0  0  0  0
   38.6420   26.2940   35.9160 C   0  0  0  0  0  0  0  0  0  0  0  0
   38.7760   25.1400   35.1660 C   0  0  0  0  0  0  0  0  0  0  0  0
   38.1420   24.9220   33.9440 C   0  0  0  0  0  0  0  0  0  0  0  0
   37.3700   25.9340   33.5270 N   0  0  0  0  0  0  0  0  0  0  0  0
   37.7190   28.2020   36.0080 H   0  0  0  0  0  0  0  0  0  0  0  0
   39.1870   26.3420   36.8490 H   0  0  0  0  0  0  0  0  0  0  0  0
   39.4120   24.3110   35.5120 H   0  0  0  0  0  0  0  0  0  0  0  0
   38.3290   23.6810   33.2100 C   0  0  0  0  0  0  0  0  0  0  0  0
   39.4130   23.4920   32.6140 O   0  0  0  0  0  0  0  0  0  0  0  0
   36.7980   23.9890   30.7250 Cl  0  0  0  0  0  0  0  0  0  0  0  0
   36.5570   22.7830   31.9720 C   0  0  0  0  0  0  0  0  0  0  0  0
   37.2900   22.6470   33.1480 C   0  0  0  0  0  0  0  0  0  0  0  0
   36.9940   21.6580   34.0380 C   0  0  0  0  0  0  0  0  0  0  0  0
   37.6260   21.6570   34.8990 H   0  0  0  0  0  0  0  0  0  0  0  0
   35.9590   20.7860   33.7710 C   0  0  0  0  0  0  0  0  0  0  0  0
   35.7560   20.0120   34.5060 H   0  0  0  0  0  0  0  0  0  0  0  0
   35.2060   20.9010   32.5970 C   0  0  0  0  0  3  0  0  0  0  0  0
   35.5040   21.9050   31.6890 C   0  0  0  0  0  3  0  0  0  0  0  0
   33.6310   30.1200   34.8680 C   0  0  2  0  0  0  0  0  0  0  0  0
   34.5710   31.2550   35.0700 C   0  0  0  0  0  0  0  0  0  0  0  0
   34.8490   30.0640   34.1290 C   0  0  1  0  0  0  0  0  0  0  0  0
   33.4760   29.5130   35.7830 H   0  0  0  0  0  0  0  0  0  0  0  0
   34.2780   32.2190   34.6300 H   0  0  0  0  0  0  0  0  0  0  0  0
   35.1440   31.3160   35.9930 H   0  0  0  0  0  0  0  0  0  0  0  0
   34.8540   30.3910   33.0490 H   0  0  0  0  0  0  0  0  0  0  0  0
   29.9910   30.1340   34.0970 C   0  0  0  0  0  0  0  0  0  0  0  0
   29.9710   30.7870   32.8190 C   0  0  0  0  0  0  0  0  0  0  0  0
   31.2350   31.2050   32.2460 C   0  0  0  0  0  0  0  0  0  0  0  0
   32.3920   30.9640   32.9350 N   0  0  0  0  0  0  0  0  0  0  0  0
   32.3240   30.3420   34.1370 C   0  0  0  0  0  0  0  0  0  0  0  0
   31.1520   29.9120   34.7490 N   0  0  0  0  0  0  0  0  0  0  0  0
   29.0300   29.8380   34.4910 H   0  0  0  0  0  0  0  0  0  0  0  0
   29.0680   30.9730   32.2860 H   0  0  0  0  0  0  0  0  0  0  0  0
   31.2050   31.6870   31.2980 H   0  0  0  0  0  0  0  0  0  0  0  0
  1  5  1  0  0  0  0
  1  3  1  0  0  0  0
  2  1  2  0  0  0  0
  3  4  1  0  0  0  0
  5  6  1  0  0  0  0
  6  7  2  0  0  0  0
  6 11  1  0  0  0  0
  7 12  1  0  0  0  0
  8 13  1  0  0  0  0
  8  7  1  0  0  0  0
  9  8  2  0  0  0  0
 10  9  1  0  0  0  0
 10  5  2  0  0  0  0
 14  9  1  0  0  0  0
 15 14  2  0  0  0  0
 16 17  1  0  0  0  0
 17 18  1  0  0  0  0
 18 14  1  0  0  0  0
 18 19  2  0  0  0  0
 19 20  1  0  0  0  0
 21 19  1  0  0  0  0
 21 22  1  0  0  0  0
 23 21  2  0  0  0  0
 24 17  2  0  0  0  0
 24 23  1  0  0  0  0
 25 26  1  0  0  0  0
 25 28  1  1  0  0  0
 26 30  1  0  0  0  0
 27 31  1  6  0  0  0
 27  3  1  0  0  0  0
 27 25  1  0  0  0  0
 27 26  1  0  0  0  0
 29 26  1  0  0  0  0
 32 38  1  0  0  0  0
 32 37  1  0  0  0  0
 33 32  2  0  0  0  0
 34 33  1  0  0  0  0
 34 35  2  0  0  0  0
 35 36  1  0  0  0  0
 36 37  2  0  0  0  0
 36 25  1  0  0  0  0
 39 33  1  0  0  0  0
 40 34  1  0  0  0  0
M  END
>  <minimizedAffinity>
-5.73580456

$$$$

 OpenBabel03272508593D

 40 43  0  0  1  0  0  0  0  0999 V2000
   36.5790   27.6870   32.9970 C   0  0  0  0  0  0  0  0  0  0  0  0
   37.1130   26.8900   32.1890 O   0  0  0  0  0  0  0  0  0  0  0  0
   36.7840   27.5520   34.4330 N   0  0  0  0  0  0  0  0  0  0  0  0
   36.2290   28.0470   35.1380 H   0  0  0  0  0  0  0  0  0  0  0  0
   35.7190   28.7970   32.5330 C   0  0  0  0  0  0  0  0  0  0  0  0
   36.1330   29.5530   31.4740 C   0  0  0  0  0  0  0  0  0  0  0  0
   35.3090   30.5860   31.0620 C   0  0  0  0  0  0  0  0  0  0  0  0
   34.1250   30.7860   31.7460 C   0  0  0  0  0  0  0  0  0  0  0  0
   33.7040   30.0130   32.8260 C   0  0  0  0  0  0  0  0  0  0  0  0
   34.5470   29.0320   33.1730 N   0  0  0  0  0  0  0  0  0  0  0  0
   37.0590   29.3940   30.9420 H   0  0  0  0  0  0  0  0  0  0  0  0
   35.5230   31.2560   30.2400 H   0  0  0  0  0  0  0  0  0  0  0  0
   33.4350   31.5950   31.4590 H   0  0  0  0  0  0  0  0  0  0  0  0
   32.4420   30.2810   33.4970 C   0  0  0  0  0  0  0  0  0  0  0  0
   31.8740   31.3780   33.2950 O   0  0  0  0  0  0  0  0  0  0  0  0
   33.2020   30.8970   36.2640 Cl  0  0  0  0  0  0  0  0  0  0  0  0
   32.1700   29.5920   35.7180 C   0  0  0  0  0  0  0  0  0  0  0  0
   31.8170   29.3090   34.4020 C   0  0  0  0  0  0  0  0  0  0  0  0
   31.0020   28.2560   34.1140 C   0  0  0  0  0  0  0  0  0  0  0  0
   30.8030   28.1420   33.0710 H   0  0  0  0  0  0  0  0  0  0  0  0
   30.5230   27.4630   35.1370 C   0  0  0  0  0  0  0  0  0  0  0  0
   29.8760   26.6340   34.8650 H   0  0  0  0  0  0  0  0  0  0  0  0
   30.8630   27.7240   36.4690 C   0  0  0  0  0  3  0  0  0  0  0  0
   31.6930   28.7950   36.7660 C   0  0  0  0  0  3  0  0  0  0  0  0
   39.1490   27.1780   35.0760 C   0  0  2  0  0  0  0  0  0  0  0  0
   38.3330   26.9400   36.2970 C   0  0  0  0  0  0  0  0  0  0  0  0
   37.8360   26.6650   34.8630 C   0  0  1  0  0  0  0  0  0  0  0  0
   39.3900   28.2490   34.9150 H   0  0  0  0  0  0  0  0  0  0  0  0
   38.6290   26.0880   36.9270 H   0  0  0  0  0  0  0  0  0  0  0  0
   37.9060   27.7890   36.8290 H   0  0  0  0  0  0  0  0  0  0  0  0
   37.6980   25.5590   34.6840 H   0  0  0  0  0  0  0  0  0  0  0  0
   41.3160   24.1680   34.7850 C   0  0  0  0  0  0  0  0  0  0  0  0
   42.5120   24.7290   34.2200 C   0  0  0  0  0  0  0  0  0  0  0  0
   42.5390   26.1540   33.9580 C   0  0  0  0  0  0  0  0  0  0  0  0
   41.4380   26.9080   34.2550 N   0  0  0  0  0  0  0  0  0  0  0  0
   40.3490   26.3020   34.7870 C   0  0  0  0  0  0  0  0  0  0  0  0
   40.2480   24.9430   35.0660 N   0  0  0  0  0  0  0  0  0  0  0  0
   41.3340   23.1040   34.9650 H   0  0  0  0  0  0  0  0  0  0  0  0
   43.3670   24.1370   33.9900 H   0  0  0  0  0  0  0  0  0  0  0  0
   43.4310   26.5550   33.5390 H   0  0  0  0  0  0  0  0  0  0  0  0
  1  3  1  0  0  0  0
  2  1  2  0  0  0  0
  3 27  1  0  0  0  0
  3  4  1  0  0  0  0
  5  1  1  0  0  0  0
  5 10  1  0  0  0  0
  6  5  2  0  0  0  0
  7  6  1  0  0  0  0
  7  8  2  0  0  0  0
  8  9  1  0  0  0  0
  9 10  2  0  0  0  0
  9 14  1  0  0  0  0
 11  6  1  0  0  0  0
 12  7  1  0  0  0  0
 13  8  1  0  0  0  0
 14 18  1  0  0  0  0
 15 14  2  0  0  0  0
 17 16  1  0  0  0  0
 17 24  1  0  0  0  0
 18 17  2  0  0  0  0
 19 18  1  0  0  0  0
 19 21  2  0  0  0  0
 20 19  1  0  0  0  0
 21 23  1  0  0  0  0
 22 21  1  0  0  0  0
 23 24  2  0  0  0  0
 25 28  1  6  0  0  0
 25 26  1  0  0  0  0
 26 30  1  0  0  0  0
 26 29  1  0  0  0  0
 27 31  1  6  0  0  0
 27 25  1  0  0  0  0
 27 26  1  0  0  0  0
 32 38  1  0  0  0  0
 32 37  1  0  0  0  0
 33 32  2  0  0  0  0
 34 33  1  0  0  0  0
 34 35  2  0  0  0  0
 35 36  1  0  0  0  0
 36 37  2  0  0  0  0
 36 25  1  0  0  0  0
 39 33  1  0  0  0  0
 40 34  1  0  0  0  0
M  END
>  <minimizedAffinity>
-5.71328163

$$$$
