
 OpenBabel03272509293D

 38 40  0  0  1  0  0  0  0  0999 V2000
   36.1490   30.6990   48.9860 C   0  0  2  0  0  0  0  0  0  0  0  0
   37.0150   31.5930   49.8220 C   0  0  0  0  0  0  0  0  0  0  0  0
   37.9240   30.8250   50.7590 C   0  0  0  0  0  0  0  0  0  0  0  0
   37.1050   29.9190   51.6730 C   0  0  0  0  0  0  0  0  0  0  0  0
   35.9170   29.2810   50.9870 C   0  0  0  0  0  0  0  0  0  0  0  0
   36.1670   29.2890   49.4700 C   0  0  1  0  0  0  0  0  0  0  0  0
   35.0590   30.9970   48.9820 H   0  0  0  0  0  0  0  0  0  0  0  0
   37.5120   32.4050   49.3250 H   0  0  0  0  0  0  0  0  0  0  0  0
   36.2810   32.0970   50.5370 H   0  0  0  0  0  0  0  0  0  0  0  0
   38.4000   31.5790   51.4180 H   0  0  0  0  0  0  0  0  0  0  0  0
   38.6460   30.1740   50.2360 H   0  0  0  0  0  0  0  0  0  0  0  0
   37.7500   29.0840   52.0540 H   0  0  0  0  0  0  0  0  0  0  0  0
   36.7590   30.4750   52.5590 H   0  0  0  0  0  0  0  0  0  0  0  0
   35.0080   29.8400   51.2160 H   0  0  0  0  0  0  0  0  0  0  0  0
   35.7650   28.2180   51.3000 H   0  0  0  0  0  0  0  0  0  0  0  0
   37.1450   28.8770   49.4280 H   0  0  0  0  0  0  0  0  0  0  0  0
   36.5730   30.7230   47.5610 C   0  0  0  0  0  0  0  0  0  0  0  0
   37.8740   31.1830   47.3210 C   0  0  0  0  0  0  0  0  0  0  0  0
   38.2930   31.2110   45.9850 C   0  0  0  0  0  0  0  0  0  0  0  0
   37.4260   30.7950   45.0060 N   0  0  0  0  0  0  0  0  0  0  0  0
   36.1580   30.3530   45.2970 C   0  0  0  0  0  0  0  0  0  0  0  0
   35.7540   30.3250   46.5780 N   0  0  0  0  0  0  0  0  0  0  0  0
   38.6410   31.5240   47.9860 H   0  0  0  0  0  0  0  0  0  0  0  0
   39.2600   31.5400   45.6500 H   0  0  0  0  0  0  0  0  0  0  0  0
   35.4860   30.0270   44.5160 H   0  0  0  0  0  0  0  0  0  0  0  0
   33.9800   28.1470   48.8900 C   0  0  0  0  0  0  0  0  0  0  0  0
   33.1100   28.6980   49.6250 O   0  0  0  0  0  0  0  0  0  0  0  0
   35.3720   28.3810   48.7280 N   0  0  0  0  0  0  0  0  0  0  0  0
   35.7280   27.7520   47.9420 H   0  0  0  0  0  0  0  0  0  0  0  0
   31.0750   28.1040   49.5200 Cl  0  0  0  0  0  0  0  0  0  0  0  0
   31.8380   26.9950   48.3730 C   0  0  0  0  0  0  0  0  0  0  0  0
   33.2050   27.1170   48.1620 C   0  0  0  0  0  0  0  0  0  0  0  0
   33.8460   26.2660   47.2690 C   0  0  0  0  0  0  0  0  0  0  0  0
   34.9000   26.3640   47.1100 H   0  0  0  0  0  0  0  0  0  0  0  0
   33.1210   25.2930   46.5850 C   0  0  0  0  0  0  0  0  0  0  0  0
   33.5740   24.6090   45.8810 H   0  0  0  0  0  0  0  0  0  0  0  0
   31.7430   25.1660   46.7930 C   0  0  0  0  0  3  0  0  0  0  0  0
   31.1190   26.0250   47.6910 C   0  0  0  0  0  3  0  0  0  0  0  0
  1  7  1  1  0  0  0
  1  6  1  0  0  0  0
  1  2  1  0  0  0  0
  2  9  1  0  0  0  0
  2  3  1  0  0  0  0
  3 10  1  0  0  0  0
  3  4  1  0  0  0  0
  4 12  1  0  0  0  0
  4 13  1  0  0  0  0
  5 14  1  0  0  0  0
  5 15  1  0  0  0  0
  5  4  1  0  0  0  0
  6 16  1  6  0  0  0
  6  5  1  0  0  0  0
  8  2  1  0  0  0  0
 11  3  1  0  0  0  0
 17  1  1  0  0  0  0
 18 17  1  0  0  0  0
 18 23  1  0  0  0  0
 19 18  2  0  0  0  0
 20 21  2  0  0  0  0
 20 19  1  0  0  0  0
 21 22  1  0  0  0  0
 22 17  2  0  0  0  0
 24 19  1  0  0  0  0
 25 21  1  0  0  0  0
 26 27  2  0  0  0  0
 28 26  1  0  0  0  0
 28  6  1  0  0  0  0
 29 28  1  0  0  0  0
 31 30  1  0  0  0  0
 32 31  1  0  0  0  0
 32 26  1  0  0  0  0
 33 32  2  0  0  0  0
 34 33  1  0  0  0  0
 35 37  2  0  0  0  0
 35 33  1  0  0  0  0
 36 35  1  0  0  0  0
 37 38  1  0  0  0  0
 38 31  2  0  0  0  0
M  END
>  <minimizedAffinity>
-6.21020174

>  <minimizedRMSD>
0.492335171

$$$$
