
 OpenBabel03272503243D

 32 34  0  0  1  0  0  0  0  0999 V2000
   36.3160   29.9790   48.9880 N   0  0  0  0  0  0  0  0  0  0  0  0
   36.9940   31.1570   48.5780 C   0  0  1  0  0  0  0  0  0  0  0  0
   37.5840   31.7230   49.8620 C   0  0  0  0  0  0  0  0  0  0  0  0
   37.1740   30.6990   50.9450 C   0  0  0  0  0  0  0  0  0  0  0  0
   37.0480   29.4620   50.1090 C   0  0  0  0  0  0  0  0  0  0  0  0
   36.1430   31.9370   48.2970 H   0  0  0  0  0  0  0  0  0  0  0  0
   37.1100   32.6640   50.1230 H   0  0  0  0  0  0  0  0  0  0  0  0
   38.6820   31.7790   49.8090 H   0  0  0  0  0  0  0  0  0  0  0  0
   38.0130   30.5830   51.6350 H   0  0  0  0  0  0  0  0  0  0  0  0
   36.2150   30.9500   51.4030 H   0  0  0  0  0  0  0  0  0  0  0  0
   38.0130   28.9980   49.8540 H   0  0  0  0  0  0  0  0  0  0  0  0
   36.4200   28.7410   50.7070 H   0  0  0  0  0  0  0  0  0  0  0  0
   35.1450   29.4250   48.4130 C   0  0  0  0  0  0  0  0  0  0  0  0
   34.4740   30.1710   47.4320 C   0  0  0  0  0  0  0  0  0  0  0  0
   33.3420   29.6620   46.7960 C   0  0  0  0  0  0  0  0  0  0  0  0
   32.9560   28.4060   47.2030 N   0  0  0  0  0  0  0  0  0  0  0  0
   33.6220   27.7090   48.1530 C   0  0  0  0  0  0  0  0  0  0  0  0
   34.7390   28.2060   48.7840 N   0  0  0  0  0  0  0  0  0  0  0  0
   34.7530   31.1410   47.1020 H   0  0  0  0  0  0  0  0  0  0  0  0
   32.8110   30.1980   46.0510 H   0  0  0  0  0  0  0  0  0  0  0  0
   33.2460   26.7310   48.4080 H   0  0  0  0  0  0  0  0  0  0  0  0
   37.8410   31.1180   47.4320 C   0  0  0  0  0  0  0  0  0  0  0  0
   38.2330   30.0150   47.0660 O   0  0  0  0  0  0  0  0  0  0  0  0
   36.6670   31.1390   44.5440 Cl  0  0  0  0  0  0  0  0  0  0  0  0
   38.0900   32.0210   45.1150 C   0  0  0  0  0  0  0  0  0  0  0  0
   38.5190   31.9140   46.4190 C   0  0  0  0  0  0  0  0  0  0  0  0
   39.6340   32.6640   46.6820 C   0  0  0  0  0  0  0  0  0  0  0  0
   40.1150   32.7390   47.6220 H   0  0  0  0  0  0  0  0  0  0  0  0
   40.3170   33.4610   45.8170 C   0  0  0  0  0  0  0  0  0  0  0  0
   41.1900   34.0640   45.9700 H   0  0  0  0  0  0  0  0  0  0  0  0
   39.8340   33.5200   44.5290 C   0  0  0  0  0  0  0  0  0  0  0  0
   38.7300   32.8160   44.1530 C   0  0  0  0  0  0  0  0  0  0  0  0
  1  5  1  0  0  0  0
  2  6  1  6  0  0  0
  2  1  1  0  0  0  0
  2  3  1  0  0  0  0
  3  7  1  0  0  0  0
  3  4  1  0  0  0  0
  4 10  1  0  0  0  0
  4  9  1  0  0  0  0
  5 12  1  0  0  0  0
  5  4  1  0  0  0  0
  8  3  1  0  0  0  0
 11  5  1  0  0  0  0
 13 18  1  0  0  0  0
 13  1  1  0  0  0  0
 14 13  2  0  0  0  0
 15 16  2  0  0  0  0
 15 14  1  0  0  0  0
 16 17  1  0  0  0  0
 17 21  1  0  0  0  0
 17 18  2  0  0  0  0
 19 14  1  0  0  0  0
 20 15  1  0  0  0  0
 22  2  1  0  0  0  0
 23 22  2  0  0  0  0
 24 25  1  0  0  0  0
 25 26  1  0  0  0  0
 26 27  2  0  0  0  0
 26 22  1  0  0  0  0
 27 28  1  0  0  0  0
 29 30  1  0  0  0  0
 29 27  1  0  0  0  0
 31 29  2  0  0  0  0
 32 31  1  0  0  0  0
 32 25  2  0  0  0  0
M  END
>  <minimizedAffinity>
-5.76432419

>  <minimizedRMSD>
2.28607512

$$$$
