
 OpenBabel03272507403D

 41 44  0  0  0  0  0  0  0  0999 V2000
   36.5840   31.1000   50.0590 C   0  0  0  0  0  0  0  0  0  0  0  0
   35.4660   30.2620   49.9520 C   0  0  0  0  0  0  0  0  0  0  0  0
   35.2640   29.1940   50.7960 C   0  0  0  0  0  0  0  0  0  0  0  0
   36.2150   28.9850   51.7530 N   0  0  0  0  0  0  0  0  0  0  0  0
   37.3070   29.8040   51.8540 C   0  0  0  0  0  0  0  0  0  0  0  0
   37.4650   30.8150   51.0290 N   0  0  0  0  0  0  0  0  0  0  0  0
   34.4410   28.5220   50.7700 H   0  0  0  0  0  0  0  0  0  0  0  0
   38.0540   29.6220   52.6220 H   0  0  0  0  0  0  0  0  0  0  0  0
   34.2040   29.3630   48.0540 C   0  0  0  0  0  0  0  0  0  0  0  0
   34.8210   28.2630   47.7820 O   0  0  0  0  0  0  0  0  0  0  0  0
   34.4450   30.4030   48.9990 N   0  0  0  0  0  0  0  0  0  0  0  0
   33.8550   31.2410   48.9550 H   0  0  0  0  0  0  0  0  0  0  0  0
   31.9490   27.3670   48.5270 Cl  0  0  0  0  0  0  0  0  0  0  0  0
   31.9410   28.6550   47.3090 C   0  0  0  0  0  0  0  0  0  0  0  0
   33.0190   29.5090   47.1730 C   0  0  0  0  0  0  0  0  0  0  0  0
   32.9490   30.5040   46.1910 C   0  0  0  0  0  0  0  0  0  0  0  0
   33.8360   31.1550   46.1290 H   0  0  0  0  0  0  0  0  0  0  0  0
   31.8660   30.6530   45.3790 C   0  0  0  0  0  0  0  0  0  0  0  0
   31.8940   31.4510   44.6450 H   0  0  0  0  0  0  0  0  0  0  0  0
   30.8020   29.7700   45.5510 C   0  0  0  0  0  3  0  0  0  0  0  0
   30.8340   28.7740   46.5100 C   0  0  0  0  0  3  0  0  0  0  0  0
   36.5930   32.0860   49.1390 O   0  0  0  0  0  0  0  0  0  0  0  0
   38.1310   32.1350   47.2030 C   0  0  0  0  0  0  0  0  0  0  0  0
   37.7270   32.5310   48.4770 C   0  0  0  0  0  0  0  0  0  0  0  0
   38.4680   33.4390   49.1970 C   0  0  0  0  0  0  0  0  0  0  0  0
   39.6360   33.9720   48.6530 C   0  0  0  0  0  0  0  0  0  0  0  0
   40.0390   33.5740   47.3790 C   0  0  0  0  0  0  0  0  0  0  0  0
   39.2730   32.6660   46.6900 C   0  0  0  0  0  0  0  0  0  0  0  0
   38.2060   33.7840   50.1880 H   0  0  0  0  0  0  0  0  0  0  0  0
   40.2250   34.6850   49.2120 H   0  0  0  0  0  0  0  0  0  0  0  0
   40.9560   34.0060   46.9780 H   0  0  0  0  0  0  0  0  0  0  0  0
   39.7170   32.2570   45.3410 C   0  0  0  0  0  0  0  0  0  0  0  0
   40.5660   31.2510   44.9740 C   0  0  0  0  0  0  0  0  0  0  0  0
   40.6580   31.2790   43.5730 C   0  0  0  0  0  0  0  0  0  0  0  0
   39.8470   32.3120   43.1950 C   0  0  0  0  0  0  0  0  0  0  0  0
   39.2960   32.8840   44.2500 O   0  0  0  0  0  0  0  0  0  0  0  0
   41.0570   30.5770   45.6920 H   0  0  0  0  0  0  0  0  0  0  0  0
   41.2920   30.5470   43.1050 H   0  0  0  0  0  0  0  0  0  0  0  0
   39.7560   32.5300   42.1400 H   0  0  0  0  0  0  0  0  0  0  0  0
   36.6670   30.4330   45.9650 N   0  0  0  0  0  0  0  0  0  0  0  0
   37.3160   31.2000   46.5210 C   0  0  0  0  0  0  0  0  0  0  0  0
  1  6  1  0  0  0  0
  2  1  2  0  0  0  0
  2  3  1  0  0  0  0
  3  4  2  0  0  0  0
  4  5  1  0  0  0  0
  5  8  1  0  0  0  0
  6  5  2  0  0  0  0
  7  3  1  0  0  0  0
  9 11  1  0  0  0  0
 10  9  2  0  0  0  0
 11  2  1  0  0  0  0
 12 11  1  0  0  0  0
 14 13  1  0  0  0  0
 15 14  1  0  0  0  0
 15  9  1  0  0  0  0
 16 15  2  0  0  0  0
 17 16  1  0  0  0  0
 18 20  2  0  0  0  0
 18 16  1  0  0  0  0
 19 18  1  0  0  0  0
 20 21  1  0  0  0  0
 21 14  2  0  0  0  0
 22  1  1  0  0  0  0
 23 24  1  0  0  0  0
 24 22  1  0  0  0  0
 24 25  2  0  0  0  0
 25 29  1  0  0  0  0
 26 25  1  0  0  0  0
 26 30  1  0  0  0  0
 27 26  2  0  0  0  0
 28 23  2  0  0  0  0
 28 27  1  0  0  0  0
 31 27  1  0  0  0  0
 32 28  1  0  0  0  0
 33 32  2  0  0  0  0
 33 37  1  0  0  0  0
 34 33  1  0  0  0  0
 35 34  2  0  0  0  0
 35 36  1  0  0  0  0
 36 32  1  0  0  0  0
 38 34  1  0  0  0  0
 39 35  1  0  0  0  0
 40 41  3  0  0  0  0
 41 23  1  0  0  0  0
M  END
>  <minimizedAffinity>
-6.17437458

>  <minimizedRMSD>
0.434057385

$$$$
