
 OpenBabel03272509293D

 38 40  0  0  1  0  0  0  0  0999 V2000
   35.8830   30.5020   48.6270 C   0  0  2  0  0  0  0  0  0  0  0  0
   36.9990   31.1450   49.3950 C   0  0  0  0  0  0  0  0  0  0  0  0
   37.7690   30.1620   50.2510 C   0  0  0  0  0  0  0  0  0  0  0  0
   36.8320   29.4530   51.2240 C   0  0  0  0  0  0  0  0  0  0  0  0
   35.4760   29.1320   50.6330 C   0  0  0  0  0  0  0  0  0  0  0  0
   35.6020   29.1160   49.1010 C   0  0  1  0  0  0  0  0  0  0  0  0
   34.8980   31.0500   48.7130 H   0  0  0  0  0  0  0  0  0  0  0  0
   37.6350   31.8280   48.8630 H   0  0  0  0  0  0  0  0  0  0  0  0
   36.4630   31.7920   50.1690 H   0  0  0  0  0  0  0  0  0  0  0  0
   38.4600   30.7650   50.8730 H   0  0  0  0  0  0  0  0  0  0  0  0
   38.2730   29.3700   49.6680 H   0  0  0  0  0  0  0  0  0  0  0  0
   37.2870   28.4810   51.5480 H   0  0  0  0  0  0  0  0  0  0  0  0
   36.6970   30.0540   52.1380 H   0  0  0  0  0  0  0  0  0  0  0  0
   34.7460   29.8850   50.9380 H   0  0  0  0  0  0  0  0  0  0  0  0
   35.1000   28.1280   50.9530 H   0  0  0  0  0  0  0  0  0  0  0  0
   36.4480   28.4850   48.9780 H   0  0  0  0  0  0  0  0  0  0  0  0
   36.1890   30.4590   47.1720 C   0  0  0  0  0  0  0  0  0  0  0  0
   37.5180   30.7270   46.8230 C   0  0  0  0  0  0  0  0  0  0  0  0
   37.8270   30.6900   45.4570 C   0  0  0  0  0  0  0  0  0  0  0  0
   36.8320   30.3980   44.5570 N   0  0  0  0  0  0  0  0  0  0  0  0
   35.5420   30.1420   44.9550 C   0  0  0  0  0  0  0  0  0  0  0  0
   35.2440   30.1790   46.2640 N   0  0  0  0  0  0  0  0  0  0  0  0
   38.3770   30.9580   47.4180 H   0  0  0  0  0  0  0  0  0  0  0  0
   38.8000   30.8750   45.0400 H   0  0  0  0  0  0  0  0  0  0  0  0
   34.7690   29.9130   44.2360 H   0  0  0  0  0  0  0  0  0  0  0  0
   33.2280   28.2580   48.8820 C   0  0  0  0  0  0  0  0  0  0  0  0
   32.6220   28.6850   49.9090 O   0  0  0  0  0  0  0  0  0  0  0  0
   34.5590   28.4410   48.4210 N   0  0  0  0  0  0  0  0  0  0  0  0
   34.6480   27.9800   47.4620 H   0  0  0  0  0  0  0  0  0  0  0  0
   34.2340   25.7640   47.6170 Cl  0  0  0  0  0  0  0  0  0  0  0  0
   32.5410   26.2720   47.5540 C   0  0  0  0  0  0  0  0  0  0  0  0
   32.1940   27.4590   48.1870 C   0  0  0  0  0  0  0  0  0  0  0  0
   30.8740   27.8950   48.1640 C   0  0  0  0  0  0  0  0  0  0  0  0
   30.6130   28.8110   48.6530 H   0  0  0  0  0  0  0  0  0  0  0  0
   29.9010   27.1460   47.5070 C   0  0  0  0  0  0  0  0  0  0  0  0
   28.8620   27.4450   47.4620 H   0  0  0  0  0  0  0  0  0  0  0  0
   30.2430   25.9510   46.8690 C   0  0  0  0  0  3  0  0  0  0  0  0
   31.5680   25.5280   46.9020 C   0  0  0  0  0  3  0  0  0  0  0  0
  1  7  1  1  0  0  0
  1  6  1  0  0  0  0
  1  2  1  0  0  0  0
  2  9  1  0  0  0  0
  2  3  1  0  0  0  0
  3 10  1  0  0  0  0
  3  4  1  0  0  0  0
  4 12  1  0  0  0  0
  4 13  1  0  0  0  0
  5 14  1  0  0  0  0
  5 15  1  0  0  0  0
  5  4  1  0  0  0  0
  6 16  1  6  0  0  0
  6  5  1  0  0  0  0
  8  2  1  0  0  0  0
 11  3  1  0  0  0  0
 17  1  1  0  0  0  0
 18 17  1  0  0  0  0
 18 23  1  0  0  0  0
 19 18  2  0  0  0  0
 20 21  2  0  0  0  0
 20 19  1  0  0  0  0
 21 22  1  0  0  0  0
 22 17  2  0  0  0  0
 24 19  1  0  0  0  0
 25 21  1  0  0  0  0
 26 27  2  0  0  0  0
 28 26  1  0  0  0  0
 28  6  1  0  0  0  0
 29 28  1  0  0  0  0
 31 30  1  0  0  0  0
 31 32  1  0  0  0  0
 32 26  1  0  0  0  0
 33 32  2  0  0  0  0
 33 34  1  0  0  0  0
 35 33  1  0  0  0  0
 36 35  1  0  0  0  0
 37 38  1  0  0  0  0
 37 35  2  0  0  0  0
 38 31  2  0  0  0  0
M  END
>  <minimizedAffinity>
-5.46038723

>  <minimizedRMSD>
0.99754411

$$$$
