
 OpenBabel03272505083D

 29 31  0  0  0  0  0  0  0  0999 V2000
   36.3920   30.9030   45.6930 Cl  0  0  0  0  0  0  0  0  0  0  0  0
   36.6800   30.7550   47.4070 C   0  0  0  0  0  0  0  0  0  0  0  0
   37.9380   31.0800   47.8680 C   0  0  0  0  0  0  0  0  0  0  0  0
   38.1740   30.9660   49.2300 C   0  0  0  0  0  0  0  0  0  0  0  0
   37.1770   30.5450   50.0660 C   0  0  0  0  0  0  0  0  0  0  0  0
   35.9310   30.2350   49.5310 C   0  0  0  0  0  0  0  0  0  0  0  0
   35.6270   30.3240   48.2000 C   0  0  0  0  0  0  0  0  0  0  0  0
   39.1520   31.2140   49.6230 H   0  0  0  0  0  0  0  0  0  0  0  0
   37.3170   30.4420   51.1380 H   0  0  0  0  0  0  0  0  0  0  0  0
   35.1590   29.9030   50.2210 H   0  0  0  0  0  0  0  0  0  0  0  0
   40.2010   33.3110   46.0850 C   0  0  0  0  0  0  0  0  0  0  0  0
   40.9140   32.4610   45.2130 C   0  0  0  0  0  0  0  0  0  0  0  0
   40.5950   31.0980   45.2560 C   0  0  0  0  0  0  0  0  0  0  0  0
   39.6290   30.6720   46.1210 N   0  0  0  0  0  0  0  0  0  0  0  0
   38.9840   31.5290   46.9280 C   0  0  0  0  0  0  0  0  0  0  0  0
   39.2710   32.8260   46.9040 N   0  0  0  0  0  0  0  0  0  0  0  0
   40.4120   34.3690   46.0880 H   0  0  0  0  0  0  0  0  0  0  0  0
   41.6680   32.8290   44.5440 H   0  0  0  0  0  0  0  0  0  0  0  0
   41.1010   30.3850   44.6170 H   0  0  0  0  0  0  0  0  0  0  0  0
   34.0450   29.9440   47.5060 S   0  0  0  0  0  0  0  0  0  0  0  0
   33.7490   29.1740   44.4650 Cl  0  0  0  0  0  0  0  0  0  0  0  0
   33.7810   27.9550   45.7200 C   0  0  0  0  0  0  0  0  0  0  0  0
   33.9070   28.2000   47.0880 C   0  0  0  0  0  0  0  0  0  0  0  0
   33.9190   27.1530   47.9780 C   0  0  0  0  0  0  0  0  0  0  0  0
   34.0210   27.4490   49.0090 H   0  0  0  0  0  0  0  0  0  0  0  0
   33.8060   25.8660   47.5290 C   0  0  0  0  0  0  0  0  0  0  0  0
   33.8190   25.0550   48.2640 H   0  0  0  0  0  0  0  0  0  0  0  0
   33.6770   25.5580   46.1800 C   0  0  0  0  0  3  0  0  0  0  0  0
   33.6690   26.6280   45.3130 C   0  0  0  0  0  3  0  0  0  0  0  0
  1  2  1  0  0  0  0
  2  3  2  0  0  0  0
  2  7  1  0  0  0  0
  3  4  1  0  0  0  0
  4  8  1  0  0  0  0
  4  5  2  0  0  0  0
  5  9  1  0  0  0  0
  6  5  1  0  0  0  0
  6 10  1  0  0  0  0
  7  6  2  0  0  0  0
 11 17  1  0  0  0  0
 11 16  1  0  0  0  0
 12 13  1  0  0  0  0
 12 11  2  0  0  0  0
 13 14  2  0  0  0  0
 14 15  1  0  0  0  0
 15  3  1  0  0  0  0
 16 15  2  0  0  0  0
 18 12  1  0  0  0  0
 19 13  1  0  0  0  0
 20  7  1  0  0  0  0
 21 22  1  0  0  0  0
 22 23  1  0  0  0  0
 23 20  1  0  0  0  0
 23 24  2  0  0  0  0
 24 25  1  0  0  0  0
 26 24  1  0  0  0  0
 26 27  1  0  0  0  0
 28 26  2  0  0  0  0
 29 22  2  0  0  0  0
 29 28  1  0  0  0  0
M  END
>  <minimizedAffinity>
-5.77021503

>  <minimizedRMSD>
1.31033754

$$$$
