
 OpenBabel03272505083D

 29 31  0  0  0  0  0  0  0  0999 V2000
   36.5070   30.9420   45.4080 Cl  0  0  0  0  0  0  0  0  0  0  0  0
   36.7180   30.8360   47.1360 C   0  0  0  0  0  0  0  0  0  0  0  0
   37.9590   31.1570   47.6430 C   0  0  0  0  0  0  0  0  0  0  0  0
   38.1330   31.0760   49.0160 C   0  0  0  0  0  0  0  0  0  0  0  0
   37.0950   30.6900   49.8180 C   0  0  0  0  0  0  0  0  0  0  0  0
   35.8690   30.3830   49.2380 C   0  0  0  0  0  0  0  0  0  0  0  0
   35.6250   30.4400   47.8920 C   0  0  0  0  0  0  0  0  0  0  0  0
   39.0970   31.3210   49.4460 H   0  0  0  0  0  0  0  0  0  0  0  0
   37.1870   30.6140   50.8980 H   0  0  0  0  0  0  0  0  0  0  0  0
   35.0640   30.0790   49.9020 H   0  0  0  0  0  0  0  0  0  0  0  0
   40.2920   33.3160   45.8620 C   0  0  0  0  0  0  0  0  0  0  0  0
   41.0640   32.4280   45.0830 C   0  0  0  0  0  0  0  0  0  0  0  0
   40.7600   31.0650   45.1880 C   0  0  0  0  0  0  0  0  0  0  0  0
   39.7520   30.6740   46.0210 N   0  0  0  0  0  0  0  0  0  0  0  0
   39.0510   31.5670   46.7390 C   0  0  0  0  0  0  0  0  0  0  0  0
   39.3230   32.8650   46.6550 N   0  0  0  0  0  0  0  0  0  0  0  0
   40.4900   34.3750   45.8150 H   0  0  0  0  0  0  0  0  0  0  0  0
   41.8510   32.7690   44.4370 H   0  0  0  0  0  0  0  0  0  0  0  0
   41.3100   30.3240   44.6210 H   0  0  0  0  0  0  0  0  0  0  0  0
   34.0690   30.0630   47.1400 S   0  0  0  0  0  0  0  0  0  0  0  0
   33.7050   27.7150   49.2100 Cl  0  0  0  0  0  0  0  0  0  0  0  0
   33.8670   27.4090   47.4950 C   0  0  0  0  0  0  0  0  0  0  0  0
   34.0310   28.3800   46.5070 C   0  0  0  0  0  0  0  0  0  0  0  0
   34.1480   28.0090   45.1890 C   0  0  0  0  0  0  0  0  0  0  0  0
   34.2710   28.8330   44.5070 H   0  0  0  0  0  0  0  0  0  0  0  0
   34.1030   26.6870   44.8390 C   0  0  0  0  0  0  0  0  0  0  0  0
   34.2000   26.4270   43.7800 H   0  0  0  0  0  0  0  0  0  0  0  0
   33.9420   25.6750   45.7770 C   0  0  0  0  0  3  0  0  0  0  0  0
   33.8280   26.0770   47.0880 C   0  0  0  0  0  3  0  0  0  0  0  0
  1  2  1  0  0  0  0
  2  3  2  0  0  0  0
  2  7  1  0  0  0  0
  3  4  1  0  0  0  0
  4  8  1  0  0  0  0
  4  5  2  0  0  0  0
  5  9  1  0  0  0  0
  6  5  1  0  0  0  0
  6 10  1  0  0  0  0
  7  6  2  0  0  0  0
 11 16  1  0  0  0  0
 12 13  1  0  0  0  0
 12 11  2  0  0  0  0
 13 14  2  0  0  0  0
 14 15  1  0  0  0  0
 15  3  1  0  0  0  0
 16 15  2  0  0  0  0
 17 11  1  0  0  0  0
 18 12  1  0  0  0  0
 19 13  1  0  0  0  0
 20  7  1  0  0  0  0
 22 21  1  0  0  0  0
 23 20  1  0  0  0  0
 23 22  2  0  0  0  0
 24 23  1  0  0  0  0
 25 24  1  0  0  0  0
 26 24  2  0  0  0  0
 26 28  1  0  0  0  0
 27 26  1  0  0  0  0
 28 29  2  0  0  0  0
 29 22  1  0  0  0  0
M  END
>  <minimizedAffinity>
-5.56191397

>  <minimizedRMSD>
1.58658624

$$$$
