
 OpenBabel03272505083D

 29 31  0  0  0  0  0  0  0  0999 V2000
   35.5710   30.5000   46.5170 Cl  0  0  0  0  0  0  0  0  0  0  0  0
   36.0520   30.0340   48.1270 C   0  0  0  0  0  0  0  0  0  0  0  0
   37.3480   30.3100   48.5060 C   0  0  0  0  0  0  0  0  0  0  0  0
   37.7370   29.9430   49.7850 C   0  0  0  0  0  0  0  0  0  0  0  0
   36.8470   29.3300   50.6230 C   0  0  0  0  0  0  0  0  0  0  0  0
   35.5550   29.0820   50.1740 C   0  0  0  0  0  0  0  0  0  0  0  0
   35.1010   29.4160   48.9270 C   0  0  0  0  0  0  0  0  0  0  0  0
   38.7480   30.1470   50.1130 H   0  0  0  0  0  0  0  0  0  0  0  0
   37.1090   29.0260   51.6330 H   0  0  0  0  0  0  0  0  0  0  0  0
   34.8710   28.5930   50.8640 H   0  0  0  0  0  0  0  0  0  0  0  0
   39.4410   32.9010   47.0270 C   0  0  0  0  0  0  0  0  0  0  0  0
   39.9900   32.2920   45.8790 C   0  0  0  0  0  0  0  0  0  0  0  0
   39.6210   30.9650   45.6270 C   0  0  0  0  0  0  0  0  0  0  0  0
   38.7650   30.3420   46.4890 N   0  0  0  0  0  0  0  0  0  0  0  0
   38.2740   30.9740   47.5670 C   0  0  0  0  0  0  0  0  0  0  0  0
   38.6110   32.2320   47.8250 N   0  0  0  0  0  0  0  0  0  0  0  0
   39.6970   33.9220   47.2620 H   0  0  0  0  0  0  0  0  0  0  0  0
   40.6610   32.8100   45.2200 H   0  0  0  0  0  0  0  0  0  0  0  0
   40.0030   30.4310   44.7650 H   0  0  0  0  0  0  0  0  0  0  0  0
   33.4580   29.1190   48.3450 S   0  0  0  0  0  0  0  0  0  0  0  0
   30.7200   27.7530   49.0980 Cl  0  0  0  0  0  0  0  0  0  0  0  0
   31.9810   26.8770   48.2590 C   0  0  0  0  0  0  0  0  0  0  0  0
   33.2210   27.3960   47.8860 C   0  0  0  0  0  0  0  0  0  0  0  0
   34.1300   26.6030   47.2280 C   0  0  0  0  0  0  0  0  0  0  0  0
   35.0550   27.0980   46.9840 H   0  0  0  0  0  0  0  0  0  0  0  0
   33.8260   25.3020   46.9360 C   0  0  0  0  0  0  0  0  0  0  0  0
   34.5730   24.6980   46.4100 H   0  0  0  0  0  0  0  0  0  0  0  0
   32.6070   24.7280   47.2820 C   0  0  0  0  0  3  0  0  0  0  0  0
   31.7180   25.5470   47.9400 C   0  0  0  0  0  3  0  0  0  0  0  0
  1  2  1  0  0  0  0
  2  3  2  0  0  0  0
  2  7  1  0  0  0  0
  3  4  1  0  0  0  0
  4  8  1  0  0  0  0
  4  5  2  0  0  0  0
  5  9  1  0  0  0  0
  6  5  1  0  0  0  0
  6 10  1  0  0  0  0
  7  6  2  0  0  0  0
 11 17  1  0  0  0  0
 11 16  1  0  0  0  0
 12 11  2  0  0  0  0
 13 12  1  0  0  0  0
 13 14  2  0  0  0  0
 14 15  1  0  0  0  0
 15 16  2  0  0  0  0
 15  3  1  0  0  0  0
 18 12  1  0  0  0  0
 19 13  1  0  0  0  0
 20  7  1  0  0  0  0
 22 21  1  0  0  0  0
 23 22  2  0  0  0  0
 23 20  1  0  0  0  0
 24 23  1  0  0  0  0
 25 24  1  0  0  0  0
 26 24  2  0  0  0  0
 26 28  1  0  0  0  0
 27 26  1  0  0  0  0
 28 29  2  0  0  0  0
 29 22  1  0  0  0  0
M  END
>  <minimizedAffinity>
-5.58454561

>  <minimizedRMSD>
1.31453693

$$$$
