
 OpenBabel03272505083D

 29 31  0  0  0  0  0  0  0  0999 V2000
   36.5070   30.9410   45.4070 Cl  0  0  0  0  0  0  0  0  0  0  0  0
   36.7170   30.8360   47.1350 C   0  0  0  0  0  0  0  0  0  0  0  0
   37.9580   31.1570   47.6420 C   0  0  0  0  0  0  0  0  0  0  0  0
   38.1320   31.0770   49.0150 C   0  0  0  0  0  0  0  0  0  0  0  0
   37.0940   30.6920   49.8170 C   0  0  0  0  0  0  0  0  0  0  0  0
   35.8690   30.3830   49.2370 C   0  0  0  0  0  0  0  0  0  0  0  0
   35.6240   30.4400   47.8920 C   0  0  0  0  0  0  0  0  0  0  0  0
   39.0960   31.3220   49.4450 H   0  0  0  0  0  0  0  0  0  0  0  0
   37.1860   30.6160   50.8970 H   0  0  0  0  0  0  0  0  0  0  0  0
   35.0630   30.0800   49.9010 H   0  0  0  0  0  0  0  0  0  0  0  0
   40.2920   33.3160   45.8610 C   0  0  0  0  0  0  0  0  0  0  0  0
   41.0640   32.4270   45.0820 C   0  0  0  0  0  0  0  0  0  0  0  0
   40.7590   31.0640   45.1870 C   0  0  0  0  0  0  0  0  0  0  0  0
   39.7510   30.6740   46.0200 N   0  0  0  0  0  0  0  0  0  0  0  0
   39.0500   31.5670   46.7380 C   0  0  0  0  0  0  0  0  0  0  0  0
   39.3230   32.8640   46.6540 N   0  0  0  0  0  0  0  0  0  0  0  0
   40.4900   34.3740   45.8140 H   0  0  0  0  0  0  0  0  0  0  0  0
   41.8510   32.7670   44.4360 H   0  0  0  0  0  0  0  0  0  0  0  0
   41.3090   30.3230   44.6200 H   0  0  0  0  0  0  0  0  0  0  0  0
   34.0690   30.0630   47.1380 S   0  0  0  0  0  0  0  0  0  0  0  0
   33.7070   27.7150   49.2110 Cl  0  0  0  0  0  0  0  0  0  0  0  0
   33.8680   27.4080   47.4960 C   0  0  0  0  0  0  0  0  0  0  0  0
   34.0310   28.3790   46.5070 C   0  0  0  0  0  0  0  0  0  0  0  0
   34.1470   28.0070   45.1890 C   0  0  0  0  0  0  0  0  0  0  0  0
   34.2700   28.8310   44.5050 H   0  0  0  0  0  0  0  0  0  0  0  0
   34.1020   26.6860   44.8380 C   0  0  0  0  0  0  0  0  0  0  0  0
   34.1970   26.4250   43.7800 H   0  0  0  0  0  0  0  0  0  0  0  0
   33.9410   25.6740   45.7780 C   0  0  0  0  0  3  0  0  0  0  0  0
   33.8290   26.0760   47.0880 C   0  0  0  0  0  3  0  0  0  0  0  0
  1  2  1  0  0  0  0
  2  3  2  0  0  0  0
  2  7  1  0  0  0  0
  3  4  1  0  0  0  0
  4  8  1  0  0  0  0
  4  5  2  0  0  0  0
  5  9  1  0  0  0  0
  6  5  1  0  0  0  0
  6 10  1  0  0  0  0
  7  6  2  0  0  0  0
 11 16  1  0  0  0  0
 12 13  1  0  0  0  0
 12 11  2  0  0  0  0
 13 14  2  0  0  0  0
 14 15  1  0  0  0  0
 15  3  1  0  0  0  0
 16 15  2  0  0  0  0
 17 11  1  0  0  0  0
 18 12  1  0  0  0  0
 19 13  1  0  0  0  0
 20  7  1  0  0  0  0
 22 21  1  0  0  0  0
 23 20  1  0  0  0  0
 23 22  2  0  0  0  0
 24 23  1  0  0  0  0
 25 24  1  0  0  0  0
 26 24  2  0  0  0  0
 26 28  1  0  0  0  0
 27 26  1  0  0  0  0
 28 29  2  0  0  0  0
 29 22  1  0  0  0  0
M  END
>  <minimizedAffinity>
-5.56266928

>  <minimizedRMSD>
1.45097232

$$$$
