REMARK  Name = 
REMARK  3 active torsions:
REMARK  status: ('A' for Active; 'I' for Inactive)
REMARK    1  A    between atoms: C_1  and  C_8
REMARK    2  A    between atoms: C_4  and  O_13
REMARK    3  A    between atoms: O_13  and  C_22
REMARK                            x       y       z     vdW  Elec       q    Type
REMARK                         _______ _______ _______ _____ _____    ______ ____
ROOT
ATOM      1  C   UNL     1      37.554  31.657  48.941  0.00  0.00    +0.000 A 
ATOM      2  C   UNL     1      38.193  32.722  49.494  0.00  0.00    +0.000 A 
ATOM      3  C   UNL     1      39.072  33.543  48.797  0.00  0.00    +0.000 A 
ATOM      4  C   UNL     1      39.351  33.319  47.486  0.00  0.00    +0.000 A 
ATOM      5  C   UNL     1      38.694  32.237  46.950  0.00  0.00    +0.000 A 
ATOM      6  N   UNL     1      37.849  31.458  47.641  0.00  0.00    +0.000 NA
ATOM      7  H   UNL     1      38.017  32.964  50.547  0.00  0.00    +0.000 HD
ATOM      8  H   UNL     1      39.550  34.387  49.317  0.00  0.00    +0.000 HD
ATOM      9  H   UNL     1      38.812  31.924  45.923  0.00  0.00    +0.000 HD
ENDROOT
BRANCH   1  11
ATOM     10  C   UNL     1      36.952  30.177  50.873  0.00  0.00    +0.000 A 
ATOM     11  C   UNL     1      36.640  30.797  49.648  0.00  0.00    +0.000 A 
ATOM     12  C   UNL     1      35.394  30.559  49.113  0.00  0.00    +0.000 A 
ATOM     13  N   UNL     1      34.518  29.747  49.772  0.00  0.00    +0.000 NA
ATOM     14  C   UNL     1      34.860  29.170  50.950  0.00  0.00    +0.000 A 
ATOM     15  N   UNL     1      36.080  29.381  51.508  0.00  0.00    +0.000 NA
ATOM     16  H   UNL     1      37.933  30.370  51.286  0.00  0.00    +0.000 HD
ATOM     17  H   UNL     1      35.069  30.987  48.187  0.00  0.00    +0.000 HD
ATOM     18  H   UNL     1      34.112  28.539  51.412  0.00  0.00    +0.000 HD
ENDBRANCH   1  11
BRANCH   4  19
ATOM     19  O   UNL     1      40.210  34.089  46.738  0.00  0.00    +0.000 OA
BRANCH  19  22
ATOM     20 CL   UNL     1      42.490  32.138  46.261  0.00  0.00    +0.000 Cl
ATOM     21  C   UNL     1      41.528  33.097  45.125  0.00  0.00    +0.000 A 
ATOM     22  C   UNL     1      40.481  33.978  45.414  0.00  0.00    +0.000 A 
ATOM     23  C   UNL     1      39.886  34.597  44.334  0.00  0.00    +0.000 A 
ATOM     24  H   UNL     1      39.077  35.269  44.645  0.00  0.00    +0.000 HD
ATOM     25  C   UNL     1      40.252  34.401  43.032  0.00  0.00    +0.000 A 
ATOM     26  H   UNL     1      39.715  34.940  42.250  0.00  0.00    +0.000 HD
ATOM     27  C   UNL     1      41.279  33.535  42.754  0.00  0.00    +0.000 A 
ATOM     28  C   UNL     1      41.910  32.890  43.795  0.00  0.00    +0.000 A 
ENDBRANCH  19  22
ENDBRANCH   4  19
TORSDOF 3
