
     RDKit          3D

 42 44  0  0  0  0  0  0  0  0999 V2000
   37.0803   30.9473   49.0299 C   0  0  0  0  0  0  0  0  0  0  0  0
   36.8110   31.8777   50.0355 C   0  0  0  0  0  0  0  0  0  0  0  0
   37.4223   33.1218   50.0637 C   0  0  0  0  0  0  0  0  0  0  0  0
   38.3348   33.4609   49.0597 C   0  0  0  0  0  0  0  0  0  0  0  0
   38.5898   32.5429   48.0823 C   0  0  0  0  0  0  0  0  0  0  0  0
   37.9589   31.3078   48.0882 C   0  0  0  0  0  0  0  0  0  0  0  0
   36.4667   29.6366   49.0174 C   0  0  1  0  0  0  0  0  0  0  0  0
   36.8653   28.8966   49.9895 O   0  0  0  0  0  0  0  0  0  0  0  0
   33.6129   30.1494   46.8252 C   0  0  0  0  0  0  0  0  0  0  0  0
   32.9538   28.9364   46.8444 C   0  0  0  0  0  0  0  0  0  0  0  0
   33.4487   27.9399   47.6645 C   0  0  0  0  0  0  0  0  0  0  0  0
   34.5707   28.1858   48.4258 N   0  0  0  0  0  0  0  0  0  0  0  0
   35.1563   29.3643   48.3613 C   0  0  0  0  0  0  0  0  0  0  0  0
   34.6850   30.3522   47.5667 N   0  0  0  0  0  0  0  0  0  0  0  0
   38.3439   30.4217   47.0135 C   0  0  0  0  0  0  0  0  0  0  0  0
   38.8231   30.8377   45.8368 C   0  0  0  0  0  0  0  0  0  0  0  0
   39.2897   30.0232   44.6912 C   0  0  0  0  0  0  0  0  0  0  0  0
   39.1797   30.9837   43.1782 S   0  0  0  0  0  0  0  0  0  0  0  0
   36.0994   31.6041   50.8116 H   0  0  0  0  0  0  0  0  0  0  0  0
   37.1489   33.7622   50.8761 H   0  0  0  0  0  0  0  0  0  0  0  0
   38.7569   34.4417   49.1621 H   0  0  0  0  0  0  0  0  0  0  0  0
   39.3171   32.9485   47.3792 H   0  0  0  0  0  0  0  0  0  0  0  0
   37.0066   29.0590   48.1727 H   0  0  0  0  0  0  0  0  0  0  0  0
   36.2866   28.2185   50.4101 H   0  0  0  0  0  0  0  0  0  0  0  0
   33.2532   30.9628   46.1919 H   0  0  0  0  0  0  0  0  0  0  0  0
   32.0824   28.8321   46.2136 H   0  0  0  0  0  0  0  0  0  0  0  0
   32.9382   26.9894   47.6857 H   0  0  0  0  0  0  0  0  0  0  0  0
   38.3599   29.3281   46.8949 H   0  0  0  0  0  0  0  0  0  0  0  0
   38.9228   31.9330   45.6887 H   0  0  0  0  0  0  0  0  0  0  0  0
   40.3632   29.7532   44.8884 H   0  0  0  0  0  0  0  0  0  0  0  0
   38.7023   29.0877   44.5731 H   0  0  0  0  0  0  0  0  0  0  0  0
   42.1981   31.1161   42.5409 Cl  0  0  0  0  0  0  0  0  0  0  0  0
   41.1106   30.0793   41.6171 C   0  0  0  0  0  0  0  0  0  0  0  0
   39.7532   29.9571   41.8307 C   0  0  0  0  0  0  0  0  0  0  0  0
   38.9957   29.1138   41.0460 C   0  0  0  0  0  0  0  0  0  0  0  0
   37.9415   29.0941   41.2995 H   0  0  0  0  0  0  0  0  0  0  0  0
   39.6283   28.3922   40.0387 C   0  0  0  0  0  0  0  0  0  0  0  0
   39.0039   27.7498   39.4534 H   0  0  0  0  0  0  0  0  0  0  0  0
   40.9841   28.5211   39.8334 C   0  0  0  0  0  0  0  0  0  0  0  0
   41.7593   29.3621   40.6109 C   0  0  0  0  0  0  0  0  0  0  0  0
   41.4695   27.9515   39.0419 H   0  0  0  0  0  0  0  0  0  0  0  0
   42.8253   29.4257   40.4053 H   0  0  0  0  0  0  0  0  0  0  0  0
  1  7  1  0
  1  2  2  0
  2  3  1  0
  4  3  2  0
  5  6  2  0
  5  4  1  0
  6  1  1  0
  7  8  1  0
  9 10  2  0
  9 14  1  0
 10 11  1  0
 11 12  2  0
 13 12  1  0
 13  7  1  0
 14 13  2  0
 15  6  1  0
 16 15  2  0
 17 16  1  0
 18 17  1  0
  2 19  1  0
  3 20  1  0
  4 21  1  0
  5 22  1  0
  7 23  1  6
  8 24  1  0
  9 25  1  0
 10 26  1  0
 11 27  1  0
 15 28  1  0
 16 29  1  0
 17 30  1  0
 17 31  1  0
 32 33  1  0
 33 34  2  0
 34 35  1  0
 35 36  1  0
 35 37  2  0
 37 38  1  0
 37 39  1  0
 39 40  2  0
 40 33  1  0
 39 41  1  0
 40 42  1  0
 18 34  1  0
M  ISO  8  19  14  20  14  21  14  22  14  23   8  24   3  25  14  26  14
M  ISO  5  27  14  30   8  31   8  36  15  38  16
M  END
>  <DihAtoms>  (1) 
16,17,33,32

>  <DihDeg>  (1) 
89.99823927398286

$$$$
