
 OpenBabel03272509423D

 38 40  0  0  1  0  0  0  0  0999 V2000
   37.0100   30.9080   49.0720 C   0  0  0  0  0  0  0  0  0  0  0  0
   36.7110   31.8060   50.0980 C   0  0  0  0  0  0  0  0  0  0  0  0
   37.2980   33.0590   50.1690 C   0  0  0  0  0  0  0  0  0  0  0  0
   38.2180   33.4420   49.1870 C   0  0  0  0  0  0  0  0  0  0  0  0
   38.5030   32.5560   48.1880 C   0  0  0  0  0  0  0  0  0  0  0  0
   37.8950   31.3100   48.1520 C   0  0  0  0  0  0  0  0  0  0  0  0
   35.9940   31.4980   50.8580 H   0  0  0  0  0  0  0  0  0  0  0  0
   37.0030   33.6720   50.9950 H   0  0  0  0  0  0  0  0  0  0  0  0
   38.6200   34.4280   49.3220 H   0  0  0  0  0  0  0  0  0  0  0  0
   39.2310   32.9950   47.5070 H   0  0  0  0  0  0  0  0  0  0  0  0
   36.4220   29.5880   49.0150 C   0  0  2  0  0  0  0  0  0  0  0  0
   36.9500   29.0590   48.1310 H   0  0  0  0  0  0  0  0  0  0  0  0
   33.5770   30.0550   46.8020 C   0  0  0  0  0  0  0  0  0  0  0  0
   32.8760   28.8690   46.9020 C   0  0  0  0  0  0  0  0  0  0  0  0
   33.3400   27.9130   47.7840 C   0  0  0  0  0  0  0  0  0  0  0  0
   34.4740   28.1680   48.5250 N   0  0  0  0  0  0  0  0  0  0  0  0
   35.0990   29.3180   48.3820 C   0  0  0  0  0  0  0  0  0  0  0  0
   34.6590   30.2680   47.5260 N   0  0  0  0  0  0  0  0  0  0  0  0
   33.2420   30.8380   46.1180 H   0  0  0  0  0  0  0  0  0  0  0  0
   31.9980   28.7550   46.2830 H   0  0  0  0  0  0  0  0  0  0  0  0
   32.7960   26.9840   47.8700 H   0  0  0  0  0  0  0  0  0  0  0  0
   36.8600   28.8120   49.9410 O   0  0  0  0  0  0  0  0  0  0  0  0
   36.3070   28.1030   50.3450 H   0  0  0  0  0  0  0  0  0  0  0  0
   38.3100   30.4610   47.0600 C   0  0  0  0  0  3  0  0  0  0  0  0
   38.8250   30.9170   45.9130 C   0  0  0  0  0  3  0  0  0  0  0  0
   39.3250   30.1410   44.7540 C   0  0  0  0  0  0  0  0  0  0  0  0
   40.4170   29.9420   44.9300 H   0  0  0  0  0  0  0  0  0  0  0  0
   38.7980   29.1700   44.6400 H   0  0  0  0  0  0  0  0  0  0  0  0
   39.1250   31.1010   43.2490 S   0  0  0  0  0  0  0  0  0  0  0  0
   39.0740   32.4560   40.4750 Cl  0  0  0  0  0  0  0  0  0  0  0  0
   40.1520   31.1020   40.8150 C   0  0  0  0  0  0  0  0  0  0  0  0
   40.2420   30.4380   42.0210 C   0  0  0  0  0  0  0  0  0  0  0  0
   41.1230   29.3890   42.1760 C   0  0  0  0  0  0  0  0  0  0  0  0
   41.1120   28.9380   43.1620 H   0  0  0  0  0  0  0  0  0  0  0  0
   41.9150   29.0170   41.0940 C   0  0  0  0  0  0  0  0  0  0  0  0
   42.5840   28.1980   41.2580 H   0  0  0  0  0  0  0  0  0  0  0  0
   41.8180   29.6860   39.8940 C   0  0  0  0  0  3  0  0  0  0  0  0
   40.9400   30.7420   39.7200 C   0  0  0  0  0  3  0  0  0  0  0  0
  1  2  1  0  0  0  0
  2  3  2  0  0  0  0
  2  7  1  0  0  0  0
  3  8  1  0  0  0  0
  4  9  1  0  0  0  0
  4  3  1  0  0  0  0
  5  4  2  0  0  0  0
  6  5  1  0  0  0  0
  6  1  2  0  0  0  0
 10  5  1  0  0  0  0
 11 12  1  6  0  0  0
 11  1  1  0  0  0  0
 11 22  1  0  0  0  0
 13 14  2  0  0  0  0
 13 18  1  0  0  0  0
 14 15  1  0  0  0  0
 15 21  1  0  0  0  0
 15 16  2  0  0  0  0
 17 16  1  0  0  0  0
 17 11  1  0  0  0  0
 18 17  2  0  0  0  0
 19 13  1  0  0  0  0
 20 14  1  0  0  0  0
 22 23  1  0  0  0  0
 24  6  1  0  0  0  0
 25 24  2  0  0  0  0
 26 27  1  0  0  0  0
 26 25  1  0  0  0  0
 28 26  1  0  0  0  0
 29 26  1  0  0  0  0
 30 31  1  0  0  0  0
 31 32  1  0  0  0  0
 32 33  2  0  0  0  0
 32 29  1  0  0  0  0
 33 34  1  0  0  0  0
 35 36  1  0  0  0  0
 35 33  1  0  0  0  0
 37 35  2  0  0  0  0
 38 37  1  0  0  0  0
 38 31  2  0  0  0  0
M  END
>  <minimizedAffinity>
-5.99677563

>  <minimizedRMSD>
0.62090224

$$$$
