
 OpenBabel03272510103D

 28 30  0  0  0  0  0  0  0  0999 V2000
   37.5500   31.2340   48.2770 C   0  0  0  0  0  0  0  0  0  0  0  0
   38.5660   32.1340   48.3570 C   0  0  0  0  0  0  0  0  0  0  0  0
   39.1200   32.7740   47.2550 C   0  0  0  0  0  0  0  0  0  0  0  0
   38.6650   32.5270   45.9980 C   0  0  0  0  0  0  0  0  0  0  0  0
   37.6390   31.6140   45.9430 C   0  0  0  0  0  0  0  0  0  0  0  0
   37.1180   31.0080   47.0200 N   0  0  0  0  0  0  0  0  0  0  0  0
   38.9840   32.3830   49.3380 H   0  0  0  0  0  0  0  0  0  0  0  0
   39.9410   33.4910   47.4030 H   0  0  0  0  0  0  0  0  0  0  0  0
   37.1710   31.3070   45.0190 H   0  0  0  0  0  0  0  0  0  0  0  0
   37.5640   30.5240   50.6820 C   0  0  0  0  0  0  0  0  0  0  0  0
   36.9640   30.5620   49.4090 C   0  0  0  0  0  0  0  0  0  0  0  0
   35.7560   29.9200   49.2550 C   0  0  0  0  0  0  0  0  0  0  0  0
   35.1890   29.2800   50.3180 N   0  0  0  0  0  0  0  0  0  0  0  0
   35.8020   29.2690   51.5270 C   0  0  0  0  0  0  0  0  0  0  0  0
   36.9940   29.8910   51.7160 N   0  0  0  0  0  0  0  0  0  0  0  0
   38.5130   31.0320   50.7930 H   0  0  0  0  0  0  0  0  0  0  0  0
   35.2260   29.8960   48.3250 H   0  0  0  0  0  0  0  0  0  0  0  0
   35.2900   28.7400   52.3210 H   0  0  0  0  0  0  0  0  0  0  0  0
   39.1670   33.1230   44.8660 O   0  0  0  0  0  0  0  0  0  0  0  0
   41.2390   30.9090   45.0640 Cl  0  0  0  0  0  0  0  0  0  0  0  0
   40.3290   31.5250   43.6750 C   0  0  0  0  0  0  0  0  0  0  0  0
   39.3790   32.5510   43.6550 C   0  0  0  0  0  0  0  0  0  0  0  0
   38.8050   32.8300   42.4310 C   0  0  0  0  0  0  0  0  0  0  0  0
   38.0740   33.6440   42.5010 H   0  0  0  0  0  0  0  0  0  0  0  0
   39.1050   32.1770   41.2690 C   0  0  0  0  0  0  0  0  0  0  0  0
   38.5930   32.4740   40.3530 H   0  0  0  0  0  0  0  0  0  0  0  0
   40.0380   31.1710   41.2940 C   0  0  0  0  0  3  0  0  0  0  0  0
   40.6440   30.8500   42.4900 C   0  0  0  0  0  3  0  0  0  0  0  0
  1  2  1  0  0  0  0
  1 11  1  0  0  0  0
  2  7  1  0  0  0  0
  3  8  1  0  0  0  0
  3  2  2  0  0  0  0
  4  3  1  0  0  0  0
  5  4  2  0  0  0  0
  5  6  1  0  0  0  0
  6  1  2  0  0  0  0
  9  5  1  0  0  0  0
 10 16  1  0  0  0  0
 10 15  1  0  0  0  0
 11 10  2  0  0  0  0
 12 11  1  0  0  0  0
 12 13  2  0  0  0  0
 13 14  1  0  0  0  0
 14 15  2  0  0  0  0
 14 18  1  0  0  0  0
 17 12  1  0  0  0  0
 19  4  1  0  0  0  0
 21 20  1  0  0  0  0
 22 21  1  0  0  0  0
 22 19  1  0  0  0  0
 23 24  1  0  0  0  0
 23 22  2  0  0  0  0
 25 27  2  0  0  0  0
 25 23  1  0  0  0  0
 26 25  1  0  0  0  0
 27 28  1  0  0  0  0
 28 21  2  0  0  0  0
M  END
>  <minimizedAffinity>
-5.49289417

>  <minimizedRMSD>
1.87508309

$$$$
