
 OpenBabel03272507523D

 32 34  0  0  0  0  0  0  0  0999 V2000
   36.3420   31.1800   48.8690 N   0  0  0  0  0  0  0  0  0  0  0  0
   36.5050   32.0420   49.8670 C   0  0  0  0  0  0  0  0  0  0  0  0
   37.5820   32.9270   49.8640 C   0  0  0  0  0  0  0  0  0  0  0  0
   38.4070   32.8100   48.7740 C   0  0  0  0  0  0  0  0  0  0  0  0
   39.3830   33.6230   48.7880 O   0  0  0  0  0  0  0  0  0  0  0  0
   38.2790   31.9560   47.7510 N   0  0  0  0  0  0  0  0  0  0  0  0
   37.2140   31.1320   47.8210 C   0  0  0  0  0  0  0  0  0  0  0  0
   37.0780   30.3190   46.8620 O   0  0  0  0  0  0  0  0  0  0  0  0
   35.8000   32.0650   50.6920 H   0  0  0  0  0  0  0  0  0  0  0  0
   37.7330   33.6300   50.6560 H   0  0  0  0  0  0  0  0  0  0  0  0
   39.9150   34.4440   47.1680 Cl  0  0  0  0  0  0  0  0  0  0  0  0
   40.0130   32.9510   46.2590 C   0  0  0  0  0  0  0  0  0  0  0  0
   39.1940   31.9160   46.6630 C   0  0  0  0  0  0  0  0  0  0  0  0
   39.1990   30.7000   46.0110 C   0  0  0  0  0  0  0  0  0  0  0  0
   38.5860   29.8480   46.2720 H   0  0  0  0  0  0  0  0  0  0  0  0
   40.0490   30.5160   44.9240 C   0  0  0  0  0  0  0  0  0  0  0  0
   40.0900   29.5640   44.3710 H   0  0  0  0  0  0  0  0  0  0  0  0
   40.8860   31.5500   44.5000 C   0  0  0  0  0  0  0  0  0  0  0  0
   40.8700   32.7780   45.1700 C   0  0  0  0  0  0  0  0  0  0  0  0
   35.0610   29.4200   49.9450 C   0  0  0  0  0  0  0  0  0  0  0  0
   35.2550   30.2440   48.8240 C   0  0  0  0  0  0  0  0  0  0  0  0
   34.3950   30.1210   47.7190 C   0  0  0  0  0  0  0  0  0  0  0  0
   33.4090   29.1930   47.8070 N   0  0  0  0  0  0  0  0  0  0  0  0
   33.2240   28.4160   48.8600 C   0  0  0  0  0  0  0  0  0  0  0  0
   34.0450   28.5280   49.9220 N   0  0  0  0  0  0  0  0  0  0  0  0
   34.6290   30.7910   46.9260 H   0  0  0  0  0  0  0  0  0  0  0  0
   32.4190   27.6910   48.8760 H   0  0  0  0  0  0  0  0  0  0  0  0
   37.2360   29.1300   51.3570 C   0  0  0  0  0  0  0  0  0  0  0  0
   37.9670   28.6470   50.4600 O   0  0  0  0  0  0  0  0  0  0  0  0
   35.8610   29.4730   51.1070 N   0  0  0  0  0  0  0  0  0  0  0  0
   37.7020   29.2700   52.3190 H   0  0  0  0  0  0  0  0  0  0  0  0
   35.4100   29.8310   52.0060 H   0  0  0  0  0  0  0  0  0  0  0  0
  1  2  1  0  0  0  0
  2  9  1  0  0  0  0
  3  2  2  0  0  0  0
  3 10  1  0  0  0  0
  4  5  2  0  0  0  0
  4  3  1  0  0  0  0
  6  7  1  0  0  0  0
  6  4  1  0  0  0  0
  7  1  1  0  0  0  0
  8  7  2  0  0  0  0
 12 13  1  0  0  0  0
 12 11  1  0  0  0  0
 13  6  1  0  0  0  0
 14 15  1  0  0  0  0
 14 13  2  0  0  0  0
 16 14  1  0  0  0  0
 17 16  1  0  0  0  0
 18 16  2  0  0  0  0
 18 19  1  0  0  0  0
 19 12  2  0  0  0  0
 20 30  1  0  0  0  0
 21  1  1  0  0  0  0
 21 20  2  0  0  0  0
 22 23  2  0  0  0  0
 22 21  1  0  0  0  0
 23 24  1  0  0  0  0
 24 27  1  0  0  0  0
 24 25  2  0  0  0  0
 25 20  1  0  0  0  0
 26 22  1  0  0  0  0
 28 31  1  0  0  0  0
 29 28  2  0  0  0  0
 30 28  1  0  0  0  0
 30 32  1  0  0  0  0
M  END
>  <minimizedAffinity>
-6.11083937

>  <minimizedRMSD>
1.15077448

$$$$
