
 OpenBabel03272500453D

 25 27  0  0  0  0  0  0  0  0999 V2000
   36.2400   30.3770   47.5470 C   0  0  0  0  0  0  0  0  0  0  0  0
   35.5670   29.9570   46.3980 C   0  0  0  0  0  0  0  0  0  0  0  0
   36.2210   30.5060   45.3040 C   0  0  0  0  0  0  0  0  0  0  0  0
   37.2490   31.2270   45.7980 N   0  0  0  0  0  0  0  0  0  0  0  0
   37.2320   31.1310   47.1160 N   0  0  0  0  0  0  0  0  0  0  0  0
   34.6940   29.3270   46.2550 H   0  0  0  0  0  0  0  0  0  0  0  0
   36.0640   30.4590   44.2520 H   0  0  0  0  0  0  0  0  0  0  0  0
   36.7480   29.7830   49.9310 C   0  0  0  0  0  0  0  0  0  0  0  0
   35.8270   29.9890   48.8830 C   0  0  0  0  0  0  0  0  0  0  0  0
   34.4790   29.8100   49.1620 C   0  0  0  0  0  0  0  0  0  0  0  0
   34.1110   29.4460   50.4230 N   0  0  0  0  0  0  0  0  0  0  0  0
   35.0360   29.2580   51.4060 C   0  0  0  0  0  0  0  0  0  0  0  0
   36.3440   29.4250   51.1610 N   0  0  0  0  0  0  0  0  0  0  0  0
   37.7720   29.9470   49.6170 H   0  0  0  0  0  0  0  0  0  0  0  0
   33.6940   29.9470   48.4150 H   0  0  0  0  0  0  0  0  0  0  0  0
   34.7250   28.9670   52.4110 H   0  0  0  0  0  0  0  0  0  0  0  0
   36.9520   31.6790   42.8850 Cl  0  0  0  0  0  0  0  0  0  0  0  0
   38.2450   32.2990   43.8650 C   0  0  0  0  0  0  0  0  0  0  0  0
   38.2870   32.0230   45.2350 C   0  0  0  0  0  0  0  0  0  0  0  0
   39.2910   32.4910   46.0620 C   0  0  0  0  0  0  0  0  0  0  0  0
   39.3070   32.2680   47.1170 H   0  0  0  0  0  0  0  0  0  0  0  0
   40.2920   33.2670   45.4810 C   0  0  0  0  0  0  0  0  0  0  0  0
   41.0810   33.6290   46.1480 H   0  0  0  0  0  0  0  0  0  0  0  0
   40.2890   33.5640   44.1260 C   0  0  0  0  0  3  0  0  0  0  0  0
   39.2640   33.0810   43.3100 C   0  0  0  0  0  3  0  0  0  0  0  0
  1  9  1  0  0  0  0
  2  1  1  0  0  0  0
  3  4  1  0  0  0  0
  3  2  2  0  0  0  0
  4  5  1  0  0  0  0
  5  1  2  0  0  0  0
  6  2  1  0  0  0  0
  7  3  1  0  0  0  0
  8 13  1  0  0  0  0
  9 10  1  0  0  0  0
  9  8  2  0  0  0  0
 10 11  2  0  0  0  0
 11 12  1  0  0  0  0
 12 16  1  0  0  0  0
 13 12  2  0  0  0  0
 14  8  1  0  0  0  0
 15 10  1  0  0  0  0
 17 18  1  0  0  0  0
 18 19  1  0  0  0  0
 19  4  1  0  0  0  0
 19 20  2  0  0  0  0
 20 21  1  0  0  0  0
 22 20  1  0  0  0  0
 22 23  1  0  0  0  0
 24 22  2  0  0  0  0
 25 18  2  0  0  0  0
 25 24  1  0  0  0  0
M  END
>  <minimizedAffinity>
-4.86832952

>  <minimizedRMSD>
4.32194757

$$$$
