
     RDKit          3D

 34 36  0  0  0  0  0  0  0  0999 V2000
   35.6500   29.3276   49.8369 C   0  0  0  0  0  0  0  0  0  0  0  0
   35.7450   30.2796   48.8082 C   0  0  0  0  0  0  0  0  0  0  0  0
   34.9048   30.1702   47.6861 C   0  0  0  0  0  0  0  0  0  0  0  0
   34.0360   29.1282   47.6680 N   0  0  0  0  0  0  0  0  0  0  0  0
   33.9446   28.2311   48.6339 C   0  0  0  0  0  0  0  0  0  0  0  0
   34.7467   28.3303   49.7111 N   0  0  0  0  0  0  0  0  0  0  0  0
   37.6380   30.0706   51.3549 C   0  0  0  0  0  0  0  0  0  0  0  0
   38.2160   30.8218   50.5355 O   0  0  0  0  0  0  0  0  0  0  0  0
   36.4383   29.3557   51.0082 N   0  0  0  0  0  0  0  0  0  0  0  0
   36.7132   31.3278   48.9613 N   0  0  0  0  0  0  0  0  0  0  0  0
   36.5529   32.3329   49.8149 C   0  0  0  0  0  0  0  0  0  0  0  0
   37.5277   33.3229   49.9283 C   0  0  0  0  0  0  0  0  0  0  0  0
   38.6090   33.1479   49.1032 C   0  0  0  0  0  0  0  0  0  0  0  0
   39.4880   34.0590   49.2192 O   0  0  0  0  0  0  0  0  0  0  0  0
   38.8086   32.1521   48.2311 N   0  0  0  0  0  0  0  0  0  0  0  0
   37.8239   31.2316   48.1762 C   0  0  0  0  0  0  0  0  0  0  0  0
   37.9973   30.2837   47.3570 O   0  0  0  0  0  0  0  0  0  0  0  0
   35.0584   30.9413   46.9676 H   0  0  0  0  0  0  0  0  0  0  0  0
   33.2312   27.4184   48.5662 H   0  0  0  0  0  0  0  0  0  0  0  0
   38.0947   29.9961   52.3275 H   0  0  0  0  0  0  0  0  0  0  0  0
   36.1300   28.7490   51.8298 H   0  0  0  0  0  0  0  0  0  0  0  0
   35.6614   32.3920   50.4314 H   0  0  0  0  0  0  0  0  0  0  0  0
   37.4196   34.1415   50.6093 H   0  0  0  0  0  0  0  0  0  0  0  0
   39.5096   34.5263   46.4768 Cl  0  0  0  0  0  0  0  0  0  0  0  0
   40.4367   33.0427   46.5638 C   0  0  0  0  0  0  0  0  0  0  0  0
   39.9722   32.0631   47.4172 C   0  0  0  0  0  0  0  0  0  0  0  0
   40.6317   30.8594   47.5565 C   0  0  0  0  0  0  0  0  0  0  0  0
   40.3264   30.0485   48.2043 H   0  0  0  0  0  0  0  0  0  0  0  0
   41.7907   30.6310   46.8187 C   0  0  0  0  0  0  0  0  0  0  0  0
   42.3526   29.6882   46.8942 H   0  0  0  0  0  0  0  0  0  0  0  0
   42.2768   31.6101   45.9495 C   0  0  0  0  0  0  0  0  0  0  0  0
   41.5975   32.8264   45.8184 C   0  0  0  0  0  0  0  0  0  0  0  0
   43.1684   31.4583   45.3695 H   0  0  0  0  0  0  0  0  0  0  0  0
   41.9342   33.6231   45.1547 H   0  0  0  0  0  0  0  0  0  0  0  0
  1  9  1  0
  2 10  1  0
  2  1  2  0
  3  2  1  0
  4  3  2  0
  4  5  1  0
  5  6  2  0
  6  1  1  0
  8  7  2  0
  9  7  1  0
 10 11  1  0
 11 12  2  0
 13 14  2  0
 13 12  1  0
 15 13  1  0
 16 15  1  0
 16 10  1  0
 17 16  2  0
  3 18  1  0
  5 19  1  0
  7 20  1  0
  9 21  1  0
 11 22  1  0
 12 23  1  0
 24 25  1  0
 25 26  2  0
 26 27  1  0
 27 28  1  0
 27 29  2  0
 29 30  1  0
 29 31  1  0
 31 32  2  0
 32 25  1  0
 31 33  1  0
 32 34  1  0
 15 26  1  0
M  ISO  7  18  14  19  14  20   6  22  14  23  14  28  15  30  16
M  END
>  <DihAtoms>  (1) 
12,14,25,24

>  <DihDeg>  (1) 
-84.98377269018206

$$$$
