
 OpenBabel03272508023D

 28 30  0  0  0  0  0  0  0  0999 V2000
   37.8400   31.1830   45.2440 C   0  0  0  0  0  0  0  0  0  0  0  0
   38.2330   32.3850   44.7410 C   0  0  0  0  0  0  0  0  0  0  0  0
   39.0050   32.2140   43.5970 C   0  0  0  0  0  0  0  0  0  0  0  0
   39.0570   30.8700   43.4370 N   0  0  0  0  0  0  0  0  0  0  0  0
   38.3750   30.2740   44.4010 N   0  0  0  0  0  0  0  0  0  0  0  0
   38.0020   33.3670   45.1410 H   0  0  0  0  0  0  0  0  0  0  0  0
   39.4820   32.9280   42.9410 H   0  0  0  0  0  0  0  0  0  0  0  0
   37.2760   30.1340   41.1080 Cl  0  0  0  0  0  0  0  0  0  0  0  0
   38.9600   29.7040   41.3260 C   0  0  0  0  0  0  0  0  0  0  0  0
   39.7050   30.0910   42.4380 C   0  0  0  0  0  0  0  0  0  0  0  0
   41.0230   29.7680   42.6320 C   0  0  0  0  0  0  0  0  0  0  0  0
   41.5590   30.0920   43.5130 H   0  0  0  0  0  0  0  0  0  0  0  0
   41.6750   29.0040   41.6630 C   0  0  0  0  0  0  0  0  0  0  0  0
   42.7160   28.7710   41.8530 H   0  0  0  0  0  0  0  0  0  0  0  0
   40.9560   28.6090   40.5490 C   0  0  0  0  0  3  0  0  0  0  0  0
   39.6300   28.9400   40.3660 C   0  0  0  0  0  3  0  0  0  0  0  0
   37.0290   30.9200   46.4180 C   0  0  0  0  0  0  0  0  0  0  0  0
   37.5050   31.3570   47.6760 C   0  0  0  0  0  0  0  0  0  0  0  0
   36.7370   31.1100   48.8070 C   0  0  0  0  0  0  0  0  0  0  0  0
   35.5590   30.4550   48.6390 N   0  0  0  0  0  0  0  0  0  0  0  0
   35.1120   30.0410   47.4310 C   0  0  0  0  0  0  0  0  0  0  0  0
   35.8600   30.2820   46.3370 N   0  0  0  0  0  0  0  0  0  0  0  0
   38.4590   31.8800   47.7620 H   0  0  0  0  0  0  0  0  0  0  0  0
   34.1780   29.5230   47.2970 H   0  0  0  0  0  0  0  0  0  0  0  0
   37.2280   31.5660   50.1310 C   0  0  0  0  0  0  0  0  0  0  0  0
   36.6360   32.7770   50.3630 F   0  0  0  0  0  0  0  0  0  0  0  0
   36.8850   30.6840   51.1540 F   0  0  0  0  0  0  0  0  0  0  0  0
   38.6100   31.7560   50.1340 F   0  0  0  0  0  0  0  0  0  0  0  0
  1 17  1  0  0  0  0
  2  6  1  0  0  0  0
  2  1  1  0  0  0  0
  3  2  2  0  0  0  0
  4  3  1  0  0  0  0
  4  5  1  0  0  0  0
  5  1  2  0  0  0  0
  7  3  1  0  0  0  0
  8  9  1  0  0  0  0
  9 10  1  0  0  0  0
 10 11  2  0  0  0  0
 10  4  1  0  0  0  0
 11 12  1  0  0  0  0
 13 14  1  0  0  0  0
 13 11  1  0  0  0  0
 15 13  2  0  0  0  0
 16 15  1  0  0  0  0
 16  9  2  0  0  0  0
 17 18  1  0  0  0  0
 18 23  1  0  0  0  0
 18 19  2  0  0  0  0
 19 25  1  0  0  0  0
 20 19  1  0  0  0  0
 21 20  2  0  0  0  0
 22 17  2  0  0  0  0
 22 21  1  0  0  0  0
 24 21  1  0  0  0  0
 25 28  1  0  0  0  0
 25 26  1  0  0  0  0
 25 27  1  0  0  0  0
M  END
>  <minimizedAffinity>
-5.76667786

>  <minimizedRMSD>
1.89402151

$$$$
