REMARK  Name = 
REMARK  2 active torsions:
REMARK  status: ('A' for Active; 'I' for Inactive)
REMARK    1  A    between atoms: C_2  and  C_7
REMARK    2  A    between atoms: N_10  and  C_19
REMARK                            x       y       z     vdW  Elec       q    Type
REMARK                         _______ _______ _______ _____ _____    ______ ____
ROOT
ATOM      1  C   UNL     1      37.947  32.029  48.969  0.00  0.00    +0.000 A 
ATOM      2  C   UNL     1      38.552  31.727  47.748  0.00  0.00    +0.000 A 
ATOM      3  C   UNL     1      39.280  32.840  47.353  0.00  0.00    +0.000 A 
ATOM      4  N   UNL     1      39.107  33.769  48.316  0.00  0.00    +0.000 N 
ATOM      5  N   UNL     1      38.320  33.262  49.249  0.00  0.00    +0.000 NA
ATOM      6  H   UNL     1      38.534  30.835  47.128  0.00  0.00    +0.000 HD
ATOM      7  H   UNL     1      39.888  33.061  46.507  0.00  0.00    +0.000 HD
ENDROOT
BRANCH   1   9
ATOM      8  C   UNL     1      37.494  30.483  50.893  0.00  0.00    +0.000 A 
ATOM      9  C   UNL     1      37.102  31.087  49.680  0.00  0.00    +0.000 A 
ATOM     10  C   UNL     1      35.857  30.754  49.165  0.00  0.00    +0.000 A 
ATOM     11  N   UNL     1      35.079  29.867  49.847  0.00  0.00    +0.000 NA
ATOM     12  C   UNL     1      35.498  29.308  51.017  0.00  0.00    +0.000 A 
ATOM     13  N   UNL     1      36.697  29.614  51.535  0.00  0.00    +0.000 NA
ATOM     14  H   UNL     1      38.478  30.805  51.214  0.00  0.00    +0.000 HD
ATOM     15  H   UNL     1      35.469  31.170  48.233  0.00  0.00    +0.000 HD
ATOM     16  H   UNL     1      34.863  28.599  51.552  0.00  0.00    +0.000 HD
ENDBRANCH   1   9
BRANCH   4  19
ATOM     17 CL   UNL     1      42.058  34.029  48.292  0.00  0.00    +0.000 Cl
ATOM     18  C   UNL     1      40.942  35.337  48.537  0.00  0.00    +0.000 A 
ATOM     19  C   UNL     1      39.564  35.100  48.529  0.00  0.00    +0.000 A 
ATOM     20  C   UNL     1      38.632  36.104  48.718  0.00  0.00    +0.000 A 
ATOM     21  H   UNL     1      37.572  35.902  48.709  0.00  0.00    +0.000 HD
ATOM     22  C   UNL     1      39.112  37.395  48.924  0.00  0.00    +0.000 A 
ATOM     23  H   UNL     1      38.361  38.179  49.073  0.00  0.00    +0.000 HD
ATOM     24  C   UNL     1      40.470  37.674  48.940  0.00  0.00    +0.000 A 
ATOM     25  C   UNL     1      41.394  36.645  48.746  0.00  0.00    +0.000 A 
ENDBRANCH   4  19
TORSDOF 2
