REMARK  Name = 
REMARK  4 active torsions:
REMARK  status: ('A' for Active; 'I' for Inactive)
REMARK    1  A    between atoms: N_1  and  C_6
REMARK    2  A    between atoms: C_3  and  C_13
REMARK    3  A    between atoms: C_10  and  S_12
REMARK    4  A    between atoms: S_12  and  C_28
REMARK                            x       y       z     vdW  Elec       q    Type
REMARK                         _______ _______ _______ _____ _____    ______ ____
ROOT
ATOM      1  C   UNL     1      35.293  29.546  47.926  0.00  0.00    +0.000 A 
ATOM      2  C   UNL     1      35.222  30.004  46.613  0.00  0.00    +0.000 A 
ATOM      3  C   UNL     1      34.087  29.677  45.877  0.00  0.00    +0.000 A 
ATOM      4  N   UNL     1      33.127  28.928  46.510  0.00  0.00    +0.000 NA
ATOM      5  C   UNL     1      33.225  28.508  47.762  0.00  0.00    +0.000 A 
ATOM      6  N   UNL     1      34.313  28.815  48.484  0.00  0.00    +0.000 NA
ATOM      7  H   UNL     1      36.011  30.587  46.180  0.00  0.00    +0.000 HD
ATOM      8  H   UNL     1      33.949  29.982  44.871  0.00  0.00    +0.000 HD
ENDROOT
BRANCH   1   9
ATOM      9  N   UNL     1      36.469  29.887  48.686  0.00  0.00    +0.000 N 
ATOM     10  C   UNL     1      37.592  30.646  48.229  0.00  0.00    +0.000 C 
ATOM     11  C   UNL     1      38.095  31.296  49.524  0.00  0.00    +0.000 C 
ATOM     12  C   UNL     1      37.110  30.894  50.598  0.00  0.00    +0.000 C 
ATOM     13  C   UNL     1      36.733  29.521  50.061  0.00  0.00    +0.000 C 
ATOM     14  H   UNL     1      38.375  30.065  47.733  0.00  0.00    +0.000 HD
ATOM     15  H   UNL     1      37.300  31.490  47.564  0.00  0.00    +0.000 HD
ATOM     16  H   UNL     1      39.077  30.834  49.833  0.00  0.00    +0.000 HD
ATOM     17  H   UNL     1      36.242  31.596  50.518  0.00  0.00    +0.000 HD
ATOM     18  H   UNL     1      37.556  30.847  51.594  0.00  0.00    +0.000 HD
ATOM     19  H   UNL     1      35.813  29.205  50.601  0.00  0.00    +0.000 HD
ATOM     20  H   UNL     1      37.584  28.859  50.207  0.00  0.00    +0.000 HD
BRANCH  11  21
ATOM     21  C   UNL     1      38.265  32.776  49.405  0.00  0.00    +0.000 C 
ATOM     22  F   UNL     1      37.093  33.342  49.880  0.00  0.00    +0.000 F 
ATOM     23  F   UNL     1      38.319  33.077  48.058  0.00  0.00    +0.000 F 
ATOM     24  F   UNL     1      39.372  33.263  50.025  0.00  0.00    +0.000 F 
ENDBRANCH  11  21
ENDBRANCH   1   9
BRANCH   5  25
ATOM     25  S   UNL     1      31.932  27.534  48.506  0.00  0.00    +0.000 S 
BRANCH  25  28
ATOM     26 CL   UNL     1      30.255  26.539  51.047  0.00  0.00    +0.000 Cl
ATOM     27  C   UNL     1      29.954  28.121  50.394  0.00  0.00    +0.000 A 
ATOM     28  C   UNL     1      30.696  28.516  49.297  0.00  0.00    +0.000 A 
ATOM     29  C   UNL     1      30.465  29.776  48.767  0.00  0.00    +0.000 A 
ATOM     30  H   UNL     1      31.019  30.156  47.895  0.00  0.00    +0.000 HD
ATOM     31  C   UNL     1      29.503  30.596  49.349  0.00  0.00    +0.000 A 
ATOM     32  H   UNL     1      29.344  31.580  48.909  0.00  0.00    +0.000 HD
ATOM     33  C   UNL     1      28.748  30.214  50.450  0.00  0.00    +0.000 A 
ATOM     34  C   UNL     1      28.990  28.947  50.973  0.00  0.00    +0.000 A 
ENDBRANCH  25  28
ENDBRANCH   5  25
TORSDOF 4
