REMARK  Name = 
REMARK  10 active torsions:
REMARK  status: ('A' for Active; 'I' for Inactive)
REMARK    1  A    between atoms: C_3  and  C_12
REMARK    2  A    between atoms: C_7  and  C_15
REMARK    3  A    between atoms: C_10  and  N_14
REMARK    4  A    between atoms: C_15  and  C_16
REMARK    5  A    between atoms: C_16  and  O_17
REMARK    6  A    between atoms: O_17  and  P_19
REMARK    7  A    between atoms: P_19  and  O_20
REMARK    8  A    between atoms: P_19  and  O_21
REMARK    9  A    between atoms: O_20  and  C_39
REMARK   10  A    between atoms: O_21  and  C_22
REMARK                            x       y       z     vdW  Elec       q    Type
REMARK                         _______ _______ _______ _____ _____    ______ ____
ROOT
ATOM      1  C   UNL     1      34.830  29.417  48.823  0.00  0.00    +0.000 C 
ATOM      2  H   UNL     1      34.179  30.238  49.250  0.00  0.00    +0.000 HD
ATOM      3  H   UNL     1      35.733  29.451  49.473  0.00  0.00    +0.000 HD
ENDROOT
BRANCH   1  10
ATOM      4 CL   UNL     1      37.602  30.457  48.514  0.00  0.00    +0.000 Cl
ATOM      5  C   UNL     1      36.447  30.318  47.188  0.00  0.00    +0.000 A 
ATOM      6  C   UNL     1      36.818  30.702  45.947  0.00  0.00    +0.000 A 
ATOM      7  C   UNL     1      35.925  30.599  44.903  0.00  0.00    +0.000 A 
ATOM      8  C   UNL     1      34.651  30.098  45.153  0.00  0.00    +0.000 A 
ATOM      9  C   UNL     1      34.339  29.719  46.473  0.00  0.00    +0.000 A 
ATOM     10  C   UNL     1      35.202  29.815  47.499  0.00  0.00    +0.000 A 
ATOM     11  H   UNL     1      36.249  30.917  43.904  0.00  0.00    +0.000 HD
ATOM     12  H   UNL     1      34.039  30.060  44.276  0.00  0.00    +0.000 HD
ATOM     13  H   UNL     1      33.363  29.383  46.447  0.00  0.00    +0.000 HD
BRANCH   6  18
ATOM     14  C   UNL     1      39.825  32.839  45.998  0.00  0.00    +0.000 A 
ATOM     15  C   UNL     1      40.688  32.094  45.110  0.00  0.00    +0.000 A 
ATOM     16  C   UNL     1      40.195  30.915  44.550  0.00  0.00    +0.000 A 
ATOM     17  N   UNL     1      38.933  30.510  44.856  0.00  0.00    +0.000 NA
ATOM     18  C   UNL     1      38.149  31.228  45.690  0.00  0.00    +0.000 A 
ATOM     19  N   UNL     1      38.597  32.367  46.243  0.00  0.00    +0.000 NA
ATOM     20  H   UNL     1      40.209  33.744  46.424  0.00  0.00    +0.000 HD
ATOM     21  H   UNL     1      41.673  32.434  44.887  0.00  0.00    +0.000 HD
BRANCH  16  22
ATOM     22  N   UNL     1      41.064  30.219  43.693  0.00  0.00    +0.000 N 
ATOM     23  H   UNL     1      40.933  30.582  42.745  0.00  0.00    +0.000 HD
ATOM     24  H   UNL     1      41.757  29.447  43.916  0.00  0.00    +0.000 HD
ENDBRANCH  16  22
ENDBRANCH   6  18
ENDBRANCH   1  10
BRANCH   1  25
ATOM     25  C   UNL     1      34.179  28.120  49.044  0.00  0.00    +0.000 C 
ATOM     26  H   UNL     1      34.674  27.480  49.810  0.00  0.00    +0.000 HD
ATOM     27  H   UNL     1      34.264  27.533  48.096  0.00  0.00    +0.000 HD
BRANCH  25  28
ATOM     28  O   UNL     1      32.863  28.282  49.397  0.00  0.00    +0.000 OA
BRANCH  28  30
ATOM     29  O   UNL     1      32.662  26.693  47.321  0.00  0.00    +0.000 OA
ATOM     30  P   UNL     1      31.868  27.522  48.301  0.00  0.00    +0.000 P 
BRANCH  30  31
ATOM     31  O   UNL     1      31.033  28.776  47.444  0.00  0.00    +0.000 OA
BRANCH  31  34
ATOM     32 CL   UNL     1      28.265  29.574  47.943  0.00  0.00    +0.000 Cl
ATOM     33  C   UNL     1      28.929  28.774  46.524  0.00  0.00    +0.000 A 
ATOM     34  C   UNL     1      30.264  28.421  46.351  0.00  0.00    +0.000 A 
ATOM     35  C   UNL     1      30.653  27.795  45.184  0.00  0.00    +0.000 A 
ATOM     36  H   UNL     1      31.708  27.561  45.145  0.00  0.00    +0.000 HD
ATOM     37  C   UNL     1      29.724  27.524  44.202  0.00  0.00    +0.000 A 
ATOM     38  H   UNL     1      30.078  27.035  43.312  0.00  0.00    +0.000 HD
ATOM     39  C   UNL     1      28.387  27.877  44.374  0.00  0.00    +0.000 A 
ATOM     40  C   UNL     1      27.975  28.506  45.537  0.00  0.00    +0.000 A 
ENDBRANCH  31  34
ENDBRANCH  30  31
BRANCH  30  41
ATOM     41  O   UNL     1      30.703  26.586  49.005  0.00  0.00    +0.000 OA
BRANCH  41  42
ATOM     42  C   UNL     1      29.846  27.365  49.766  0.00  0.00    +0.000 C 
ATOM     43  F   UNL     1      29.313  26.658  50.841  0.00  0.00    +0.000 F 
ATOM     44  F   UNL     1      30.500  28.445  50.315  0.00  0.00    +0.000 F 
ATOM     45  F   UNL     1      28.790  27.808  48.978  0.00  0.00    +0.000 F 
ENDBRANCH  41  42
ENDBRANCH  30  41
ENDBRANCH  28  30
ENDBRANCH  25  28
ENDBRANCH   1  25
TORSDOF 10
