
     RDKit          3D

 30 32  0  0  0  0  0  0  0  0999 V2000
   37.9245   30.8745   46.7354 C   0  0  0  0  0  0  0  0  0  0  0  0
   38.0442   31.0407   48.1337 C   0  0  0  0  0  0  0  0  0  0  0  0
   36.9295   30.8220   48.9340 C   0  0  0  0  0  0  0  0  0  0  0  0
   35.7743   30.4565   48.3193 N   0  0  0  0  0  0  0  0  0  0  0  0
   35.6699   30.2999   46.9786 C   0  0  0  0  0  0  0  0  0  0  0  0
   36.7541   30.5134   46.2084 N   0  0  0  0  0  0  0  0  0  0  0  0
   39.0963   31.1059   45.9100 C   0  0  0  0  0  0  0  0  0  0  0  0
   39.9293   32.1824   45.9105 C   0  0  0  0  0  0  0  0  0  0  0  0
   40.9397   32.0237   44.9681 C   0  0  0  0  0  0  0  0  0  0  0  0
   40.6790   30.8187   44.4091 N   0  0  0  0  0  0  0  0  0  0  0  0
   39.6024   30.2885   44.9629 N   0  0  0  0  0  0  0  0  0  0  0  0
   37.0451   30.9940   50.4033 C   0  0  0  0  0  0  0  0  0  0  0  0
   36.5515   32.2393   50.6827 F   0  0  0  0  0  0  0  0  0  0  0  0
   36.3112   30.0406   51.1056 F   0  0  0  0  0  0  0  0  0  0  0  0
   38.3729   30.9538   50.8274 F   0  0  0  0  0  0  0  0  0  0  0  0
   38.9939   31.3359   48.5839 H   0  0  0  0  0  0  0  0  0  0  0  0
   34.7554   30.0105   46.4920 H   0  0  0  0  0  0  0  0  0  0  0  0
   39.8574   33.0644   46.5381 H   0  0  0  0  0  0  0  0  0  0  0  0
   41.7667   32.6618   44.6914 H   0  0  0  0  0  0  0  0  0  0  0  0
   40.0253   31.7705   41.6148 Cl  0  0  0  0  0  0  0  0  0  0  0  0
   41.1304   30.4870   42.0624 C   0  0  0  0  0  0  0  0  0  0  0  0
   41.3698   30.1159   43.3822 C   0  0  0  0  0  0  0  0  0  0  0  0
   42.2293   29.1156   43.7578 C   0  0  0  0  0  0  0  0  0  0  0  0
   42.3823   28.8634   44.7975 H   0  0  0  0  0  0  0  0  0  0  0  0
   42.9158   28.4150   42.7642 C   0  0  0  0  0  0  0  0  0  0  0  0
   43.5849   27.6329   43.1020 H   0  0  0  0  0  0  0  0  0  0  0  0
   42.6947   28.7653   41.4452 C   0  0  0  0  0  0  0  0  0  0  0  0
   41.8269   29.7744   41.0815 C   0  0  0  0  0  0  0  0  0  0  0  0
   43.2492   28.1956   40.6962 H   0  0  0  0  0  0  0  0  0  0  0  0
   41.6716   30.0298   40.0314 H   0  0  0  0  0  0  0  0  0  0  0  0
  1  2  2  0
  2  3  1  0
  3 12  1  0
  4  3  2  0
  5  4  1  0
  6  1  1  0
  6  5  2  0
  7  1  1  0
  8  7  1  0
  9  8  2  0
 10  9  1  0
 10 11  1  0
 11  7  2  0
 12 13  1  0
 12 15  1  0
 12 14  1  0
  2 16  1  0
  5 17  1  0
  8 18  1  0
  9 19  1  0
 20 21  1  0
 21 22  2  0
 22 23  1  0
 23 24  1  0
 23 25  2  0
 25 26  1  0
 25 27  1  0
 27 28  2  0
 28 21  1  0
 27 29  1  0
 28 30  1  0
 10 22  1  0
M  ISO  6  16  14  17  14  18  14  19  14  24  15  26  16
M  END
>  <DihAtoms>  (1) 
8,9,21,20

>  <DihDeg>  (1) 
114.775237058597

$$$$
