
 OpenBabel03262522573D

 25 27  0  0  0  0  0  0  0  0999 V2000
   35.7950   29.6760   48.2390 C   0  0  0  0  0  0  0  0  0  0  0  0
   36.5140   29.5560   49.4000 C   0  0  0  0  0  0  0  0  0  0  0  0
   37.7180   30.1610   49.2710 C   0  0  0  0  0  0  0  0  0  0  0  0
   37.7390   30.6590   48.0120 N   0  0  0  0  0  0  0  0  0  0  0  0
   36.5740   30.3580   47.4090 N   0  0  0  0  0  0  0  0  0  0  0  0
   36.2270   29.0650   50.3240 H   0  0  0  0  0  0  0  0  0  0  0  0
   38.5800   30.3130   49.9020 H   0  0  0  0  0  0  0  0  0  0  0  0
   32.5710   29.0020   46.6160 C   0  0  0  0  0  0  0  0  0  0  0  0
   31.9380   28.1580   47.5550 C   0  0  0  0  0  0  0  0  0  0  0  0
   32.6310   27.8310   48.7360 C   0  0  0  0  0  0  0  0  0  0  0  0
   33.8810   28.3430   48.9220 N   0  0  0  0  0  0  0  0  0  0  0  0
   34.4570   29.1580   47.9860 C   0  0  0  0  0  0  0  0  0  0  0  0
   33.8040   29.4750   46.8560 N   0  0  0  0  0  0  0  0  0  0  0  0
   32.0590   29.2620   45.7090 H   0  0  0  0  0  0  0  0  0  0  0  0
   30.9570   27.7590   47.4000 H   0  0  0  0  0  0  0  0  0  0  0  0
   32.1720   27.1900   49.4650 H   0  0  0  0  0  0  0  0  0  0  0  0
   38.2300   33.4040   49.0380 Cl  0  0  0  0  0  0  0  0  0  0  0  0
   38.9780   32.6850   47.6270 C   0  0  0  0  0  0  0  0  0  0  0  0
   38.6810   31.3970   47.2320 C   0  0  0  0  0  0  0  0  0  0  0  0
   39.2070   30.7350   46.1450 C   0  0  0  0  0  0  0  0  0  0  0  0
   38.9190   29.7210   45.9050 H   0  0  0  0  0  0  0  0  0  0  0  0
   40.1260   31.4540   45.3810 C   0  0  0  0  0  0  0  0  0  0  0  0
   40.5700   30.9790   44.5170 H   0  0  0  0  0  0  0  0  0  0  0  0
   40.4610   32.7360   45.7240 C   0  0  0  0  0  0  0  0  0  0  0  0
   39.9030   33.3650   46.8340 C   0  0  0  0  0  0  0  0  0  0  0  0
  1  2  1  0  0  0  0
  2  6  1  0  0  0  0
  3  2  2  0  0  0  0
  3  7  1  0  0  0  0
  4  3  1  0  0  0  0
  5  4  1  0  0  0  0
  5  1  2  0  0  0  0
  8 13  2  0  0  0  0
  8  9  1  0  0  0  0
  9 10  2  0  0  0  0
 10 11  1  0  0  0  0
 10 16  1  0  0  0  0
 12  1  1  0  0  0  0
 12 11  2  0  0  0  0
 13 12  1  0  0  0  0
 14  8  1  0  0  0  0
 15  9  1  0  0  0  0
 18 17  1  0  0  0  0
 19 18  1  0  0  0  0
 19  4  1  0  0  0  0
 20 19  2  0  0  0  0
 21 20  1  0  0  0  0
 22 24  2  0  0  0  0
 22 20  1  0  0  0  0
 23 22  1  0  0  0  0
 24 25  1  0  0  0  0
 25 18  2  0  0  0  0
M  END
>  <minimizedAffinity>
-5.61245537

>  <minimizedRMSD>
7.27516603

$$$$
