
 OpenBabel03272510113D

 35 38  0  0  0  0  0  0  0  0999 V2000
   33.5560   28.5410   48.0940 C   0  0  0  0  0  0  0  0  0  0  0  0
   34.5510   28.2670   48.9650 C   0  0  0  0  0  0  0  0  0  0  0  0
   35.6820   29.0300   49.1550 C   0  0  0  0  0  0  0  0  0  0  0  0
   35.8430   30.1690   48.4150 C   0  0  0  0  0  0  0  0  0  0  0  0
   34.8280   30.4630   47.5160 C   0  0  0  0  0  0  0  0  0  0  0  0
   33.7440   29.6720   47.3790 N   0  0  0  0  0  0  0  0  0  0  0  0
   34.5130   27.3810   49.6000 H   0  0  0  0  0  0  0  0  0  0  0  0
   36.4740   28.8000   49.8570 H   0  0  0  0  0  0  0  0  0  0  0  0
   34.8790   31.3490   46.8900 H   0  0  0  0  0  0  0  0  0  0  0  0
   31.3360   27.6280   48.8470 C   0  0  0  0  0  0  0  0  0  0  0  0
   32.3900   27.7260   47.9200 C   0  0  0  0  0  0  0  0  0  0  0  0
   32.2550   26.9660   46.7680 C   0  0  0  0  0  0  0  0  0  0  0  0
   31.1460   26.1880   46.5950 N   0  0  0  0  0  0  0  0  0  0  0  0
   30.1760   26.1430   47.5260 C   0  0  0  0  0  0  0  0  0  0  0  0
   30.2580   26.8630   48.6670 N   0  0  0  0  0  0  0  0  0  0  0  0
   31.4110   28.2030   49.7460 H   0  0  0  0  0  0  0  0  0  0  0  0
   33.0040   26.9650   45.9860 H   0  0  0  0  0  0  0  0  0  0  0  0
   29.3160   25.5110   47.3450 H   0  0  0  0  0  0  0  0  0  0  0  0
   36.9190   31.0580   48.4750 O   0  0  0  0  0  0  0  0  0  0  0  0
   37.6830   31.3400   47.3470 C   0  0  0  0  0  0  0  0  0  0  0  0
   38.9790   31.7770   47.6530 C   0  0  0  0  0  0  0  0  0  0  0  0
   39.6460   32.0280   46.4590 C   0  0  0  0  0  0  0  0  0  0  0  0
   38.7530   31.7410   45.4960 N   0  0  0  0  0  0  0  0  0  0  0  0
   37.6140   31.3420   46.0050 N   0  0  0  0  0  0  0  0  0  0  0  0
   39.5500   31.9560   48.5750 H   0  0  0  0  0  0  0  0  0  0  0  0
   40.6480   32.3750   46.2410 H   0  0  0  0  0  0  0  0  0  0  0  0
   39.0830   29.1180   44.1270 Cl  0  0  0  0  0  0  0  0  0  0  0  0
   39.0670   30.6720   43.3190 C   0  0  0  0  0  0  0  0  0  0  0  0
   38.9050   31.8190   44.0810 C   0  0  0  0  0  0  0  0  0  0  0  0
   38.8960   33.0300   43.4180 C   0  0  0  0  0  0  0  0  0  0  0  0
   38.7710   33.9570   43.9780 H   0  0  0  0  0  0  0  0  0  0  0  0
   39.0370   33.1840   42.0540 C   0  0  0  0  0  0  0  0  0  0  0  0
   39.0260   34.1470   41.5680 H   0  0  0  0  0  0  0  0  0  0  0  0
   39.1990   32.0040   41.3260 C   0  0  0  0  0  3  0  0  0  0  0  0
   39.2150   30.7660   41.9350 C   0  0  0  0  0  3  0  0  0  0  0  0
  1  2  1  0  0  0  0
  2  3  2  0  0  0  0
  2  7  1  0  0  0  0
  3  8  1  0  0  0  0
  4 19  1  0  0  0  0
  4  3  1  0  0  0  0
  5  4  2  0  0  0  0
  6  5  1  0  0  0  0
  6  1  2  0  0  0  0
  9  5  1  0  0  0  0
 10 16  1  0  0  0  0
 11  1  1  0  0  0  0
 11 10  2  0  0  0  0
 12 11  1  0  0  0  0
 13 12  2  0  0  0  0
 13 14  1  0  0  0  0
 14 15  2  0  0  0  0
 15 10  1  0  0  0  0
 17 12  1  0  0  0  0
 18 14  1  0  0  0  0
 20 21  1  0  0  0  0
 20 19  1  0  0  0  0
 21 25  1  0  0  0  0
 22 21  2  0  0  0  0
 23 24  1  0  0  0  0
 23 22  1  0  0  0  0
 24 20  2  0  0  0  0
 26 22  1  0  0  0  0
 28 29  1  0  0  0  0
 28 27  1  0  0  0  0
 29 23  1  0  0  0  0
 30 31  1  0  0  0  0
 30 29  2  0  0  0  0
 32 30  1  0  0  0  0
 33 32  1  0  0  0  0
 34 35  1  0  0  0  0
 34 32  2  0  0  0  0
 35 28  2  0  0  0  0
M  END
>  <minimizedAffinity>
-5.43469906

>  <minimizedRMSD>
2.73011613

$$$$
