
 OpenBabel03272500443D

 25 27  0  0  0  0  0  0  0  0999 V2000
   36.2210   30.3680   47.4990 C   0  0  0  0  0  0  0  0  0  0  0  0
   35.5330   29.9430   46.3620 C   0  0  0  0  0  0  0  0  0  0  0  0
   36.1670   30.4920   45.2570 C   0  0  0  0  0  0  0  0  0  0  0  0
   37.1990   31.2190   45.7330 N   0  0  0  0  0  0  0  0  0  0  0  0
   37.2030   31.1250   47.0510 N   0  0  0  0  0  0  0  0  0  0  0  0
   34.6600   29.3090   46.2340 H   0  0  0  0  0  0  0  0  0  0  0  0
   35.9940   30.4420   44.2070 H   0  0  0  0  0  0  0  0  0  0  0  0
   36.7690   29.7770   49.8750 C   0  0  0  0  0  0  0  0  0  0  0  0
   35.8300   29.9820   48.8420 C   0  0  0  0  0  0  0  0  0  0  0  0
   34.4880   29.8030   49.1440 C   0  0  0  0  0  0  0  0  0  0  0  0
   34.1410   29.4400   50.4110 N   0  0  0  0  0  0  0  0  0  0  0  0
   35.0820   29.2540   51.3790 C   0  0  0  0  0  0  0  0  0  0  0  0
   36.3860   29.4210   51.1120 N   0  0  0  0  0  0  0  0  0  0  0  0
   37.7880   29.9410   49.5440 H   0  0  0  0  0  0  0  0  0  0  0  0
   33.6910   29.9390   48.4110 H   0  0  0  0  0  0  0  0  0  0  0  0
   34.7890   28.9630   52.3900 H   0  0  0  0  0  0  0  0  0  0  0  0
   39.1430   32.2710   47.7050 Cl  0  0  0  0  0  0  0  0  0  0  0  0
   39.1970   32.5660   45.9950 C   0  0  0  0  0  0  0  0  0  0  0  0
   38.2250   32.0170   45.1520 C   0  0  0  0  0  0  0  0  0  0  0  0
   38.2200   32.2200   43.7850 C   0  0  0  0  0  0  0  0  0  0  0  0
   37.4610   31.7890   43.1500 H   0  0  0  0  0  0  0  0  0  0  0  0
   39.2370   33.0070   43.2490 C   0  0  0  0  0  0  0  0  0  0  0  0
   39.2200   33.1570   42.1640 H   0  0  0  0  0  0  0  0  0  0  0  0
   40.2210   33.5680   44.0470 C   0  0  0  0  0  0  0  0  0  0  0  0
   40.2070   33.3510   45.4270 C   0  0  0  0  0  0  0  0  0  0  0  0
  1  9  1  0  0  0  0
  2  1  1  0  0  0  0
  3  4  1  0  0  0  0
  3  2  2  0  0  0  0
  4  5  1  0  0  0  0
  5  1  2  0  0  0  0
  6  2  1  0  0  0  0
  7  3  1  0  0  0  0
  8 13  1  0  0  0  0
  9 10  1  0  0  0  0
  9  8  2  0  0  0  0
 10 11  2  0  0  0  0
 11 12  1  0  0  0  0
 12 16  1  0  0  0  0
 13 12  2  0  0  0  0
 14  8  1  0  0  0  0
 15 10  1  0  0  0  0
 18 17  1  0  0  0  0
 19  4  1  0  0  0  0
 19 18  2  0  0  0  0
 20 19  1  0  0  0  0
 21 20  1  0  0  0  0
 22 20  2  0  0  0  0
 22 24  1  0  0  0  0
 23 22  1  0  0  0  0
 24 25  2  0  0  0  0
 25 18  1  0  0  0  0
M  END
>  <minimizedAffinity>
-5.08230877

>  <minimizedRMSD>
4.0771594

$$$$
