REMARK  Name = 
REMARK  3 active torsions:
REMARK  status: ('A' for Active; 'I' for Inactive)
REMARK    1  A    between atoms: C_1  and  C_7
REMARK    2  A    between atoms: C_3  and  C_12
REMARK    3  A    between atoms: N_10  and  C_22
REMARK                            x       y       z     vdW  Elec       q    Type
REMARK                         _______ _______ _______ _____ _____    ______ ____
ROOT
ATOM      1  C   UNL     1      39.096  31.106  45.910  0.00  0.00    +0.000 A 
ATOM      2  C   UNL     1      39.929  32.182  45.910  0.00  0.00    +0.000 A 
ATOM      3  C   UNL     1      40.940  32.024  44.968  0.00  0.00    +0.000 A 
ATOM      4  N   UNL     1      40.679  30.819  44.409  0.00  0.00    +0.000 N 
ATOM      5  N   UNL     1      39.602  30.288  44.963  0.00  0.00    +0.000 NA
ATOM      6  H   UNL     1      39.857  33.064  46.538  0.00  0.00    +0.000 HD
ATOM      7  H   UNL     1      41.767  32.662  44.691  0.00  0.00    +0.000 HD
ENDROOT
BRANCH   4  10
ATOM      8 CL   UNL     1      38.930  30.021  42.075  0.00  0.00    +0.000 Cl
ATOM      9  C   UNL     1      40.643  29.709  42.267  0.00  0.00    +0.000 A 
ATOM     10  C   UNL     1      41.370  30.116  43.382  0.00  0.00    +0.000 A 
ATOM     11  C   UNL     1      42.710  29.883  43.556  0.00  0.00    +0.000 A 
ATOM     12  H   UNL     1      43.231  30.220  44.441  0.00  0.00    +0.000 HD
ATOM     13  C   UNL     1      43.404  29.195  42.559  0.00  0.00    +0.000 A 
ATOM     14  H   UNL     1      44.461  29.032  42.734  0.00  0.00    +0.000 HD
ATOM     15  C   UNL     1      42.704  28.780  41.441  0.00  0.00    +0.000 A 
ATOM     16  C   UNL     1      41.355  29.021  41.280  0.00  0.00    +0.000 A 
ENDBRANCH   4  10
BRANCH   1  17
ATOM     17  C   UNL     1      37.925  30.875  46.735  0.00  0.00    +0.000 A 
ATOM     18  C   UNL     1      38.044  31.041  48.134  0.00  0.00    +0.000 A 
ATOM     19  C   UNL     1      36.929  30.822  48.934  0.00  0.00    +0.000 A 
ATOM     20  N   UNL     1      35.774  30.456  48.319  0.00  0.00    +0.000 NA
ATOM     21  C   UNL     1      35.670  30.300  46.979  0.00  0.00    +0.000 A 
ATOM     22  N   UNL     1      36.754  30.513  46.208  0.00  0.00    +0.000 NA
ATOM     23  H   UNL     1      38.994  31.336  48.584  0.00  0.00    +0.000 HD
ATOM     24  H   UNL     1      34.755  30.011  46.492  0.00  0.00    +0.000 HD
BRANCH  19  25
ATOM     25  C   UNL     1      37.045  30.994  50.403  0.00  0.00    +0.000 C 
ATOM     26  F   UNL     1      36.551  32.239  50.683  0.00  0.00    +0.000 F 
ATOM     27  F   UNL     1      36.311  30.041  51.106  0.00  0.00    +0.000 F 
ATOM     28  F   UNL     1      38.373  30.954  50.827  0.00  0.00    +0.000 F 
ENDBRANCH  19  25
ENDBRANCH   1  17
TORSDOF 3
