
 OpenBabel03272508193D

 31 33  0  0  0  0  0  0  0  0999 V2000
   37.0390   26.7460   33.6680 C   0  0  0  0  0  0  0  0  0  0  0  0
   36.3740   27.7060   32.8900 C   0  0  0  0  0  0  0  0  0  0  0  0
   35.9880   27.2180   31.6740 C   0  0  0  0  0  0  0  0  0  0  0  0
   36.2180   25.9570   31.2640 N   0  0  0  0  0  0  0  0  0  0  0  0
   36.8560   25.0640   32.0310 C   0  0  0  0  0  0  0  0  0  0  0  0
   37.2650   25.4630   33.2310 N   0  0  0  0  0  0  0  0  0  0  0  0
   35.4640   27.8390   30.9570 H   0  0  0  0  0  0  0  0  0  0  0  0
   37.0810   24.0530   31.7880 H   0  0  0  0  0  0  0  0  0  0  0  0
   37.4240   27.1810   35.0770 C   0  0  0  0  0  0  0  0  0  0  0  0
   38.1240   26.3180   35.9510 C   0  0  0  0  0  0  0  0  0  0  0  0
   38.9940   27.2650   35.1440 C   0  0  0  0  0  0  0  0  0  0  0  0
   37.0120   28.1730   35.4030 H   0  0  0  0  0  0  0  0  0  0  0  0
   38.1570   26.5410   37.0420 H   0  0  0  0  0  0  0  0  0  0  0  0
   38.2410   25.2220   35.7810 H   0  0  0  0  0  0  0  0  0  0  0  0
   39.4350   28.1520   35.5940 H   0  0  0  0  0  0  0  0  0  0  0  0
   39.5680   26.7730   34.3710 H   0  0  0  0  0  0  0  0  0  0  0  0
   36.1460   29.0670   33.3340 C   0  0  0  0  0  0  0  0  0  0  0  0
   36.8100   29.3630   34.1780 H   0  0  0  0  0  0  0  0  0  0  0  0
   36.4410   29.7600   32.5050 H   0  0  0  0  0  0  0  0  0  0  0  0
   34.7670   29.4250   33.7230 C   0  0  0  0  0  0  0  0  0  0  0  0
   34.2450   29.9520   32.8960 H   0  0  0  0  0  0  0  0  0  0  0  0
   34.1410   28.5020   33.9100 H   0  0  0  0  0  0  0  0  0  0  0  0
   32.0300   29.5180   34.8160 Cl  0  0  0  0  0  0  0  0  0  0  0  0
   33.3920   30.4440   35.4240 C   0  0  0  0  0  0  0  0  0  0  0  0
   34.6700   30.3680   34.8700 C   0  0  0  0  0  0  0  0  0  0  0  0
   35.7250   31.1050   35.3640 C   0  0  0  0  0  0  0  0  0  0  0  0
   36.6690   30.9890   34.8840 H   0  0  0  0  0  0  0  0  0  0  0  0
   35.4390   31.9200   36.4390 C   0  0  0  0  0  0  0  0  0  0  0  0
   36.2810   32.5070   36.8340 H   0  0  0  0  0  0  0  0  0  0  0  0
   34.1960   32.0270   37.0190 C   0  0  0  0  0  3  0  0  0  0  0  0
   33.1640   31.2860   36.5100 C   0  0  0  0  0  3  0  0  0  0  0  0
  1  9  1  0  0  0  0
  2 17  1  0  0  0  0
  2  1  2  0  0  0  0
  3  2  1  0  0  0  0
  4  3  2  0  0  0  0
  4  5  1  0  0  0  0
  5  6  2  0  0  0  0
  6  1  1  0  0  0  0
  7  3  1  0  0  0  0
  8  5  1  0  0  0  0
  9 11  1  0  0  0  0
  9 12  1  0  0  0  0
  9 10  1  0  0  0  0
 10 13  1  0  0  0  0
 11 15  1  0  0  0  0
 11 10  1  0  0  0  0
 14 10  1  0  0  0  0
 16 11  1  0  0  0  0
 17 20  1  0  0  0  0
 17 18  1  0  0  0  0
 19 17  1  0  0  0  0
 20 22  1  0  0  0  0
 20 25  1  0  0  0  0
 21 20  1  0  0  0  0
 23 24  1  0  0  0  0
 24 31  1  0  0  0  0
 25 26  1  0  0  0  0
 25 24  2  0  0  0  0
 26 28  2  0  0  0  0
 27 26  1  0  0  0  0
 28 29  1  0  0  0  0
 28 30  1  0  0  0  0
 31 30  2  0  0  0  0
M  END
>  <minimizedAffinity>
-5.1282196

$$$$

 OpenBabel03272508193D

 31 33  0  0  0  0  0  0  0  0999 V2000
   38.0840   25.1020   36.4080 C   0  0  0  0  0  0  0  0  0  0  0  0
   38.1550   23.7670   35.9800 C   0  0  0  0  0  0  0  0  0  0  0  0
   38.1460   22.8820   37.0200 C   0  0  0  0  0  0  0  0  0  0  0  0
   38.0760   23.2460   38.3140 N   0  0  0  0  0  0  0  0  0  0  0  0
   38.0080   24.5300   38.6900 C   0  0  0  0  0  0  0  0  0  0  0  0
   38.0140   25.4530   37.7350 N   0  0  0  0  0  0  0  0  0  0  0  0
   38.1970   21.8130   36.8520 H   0  0  0  0  0  0  0  0  0  0  0  0
   37.9520   24.9050   39.6840 H   0  0  0  0  0  0  0  0  0  0  0  0
   37.9980   26.1510   35.3060 C   0  0  0  0  0  0  0  0  0  0  0  0
   38.0610   27.5340   35.5970 C   0  0  0  0  0  0  0  0  0  0  0  0
   39.3860   26.8890   35.2330 C   0  0  0  0  0  0  0  0  0  0  0  0
   37.7640   25.7550   34.2830 H   0  0  0  0  0  0  0  0  0  0  0  0
   37.7300   28.2760   34.8340 H   0  0  0  0  0  0  0  0  0  0  0  0
   37.9460   27.9600   36.6210 H   0  0  0  0  0  0  0  0  0  0  0  0
   39.8350   27.0290   34.2520 H   0  0  0  0  0  0  0  0  0  0  0  0
   40.0640   26.7920   36.0700 H   0  0  0  0  0  0  0  0  0  0  0  0
   38.2480   23.3860   34.5850 C   0  0  0  0  0  0  0  0  0  0  0  0
   37.4750   23.8780   33.9500 H   0  0  0  0  0  0  0  0  0  0  0  0
   39.2160   23.7770   34.1780 H   0  0  0  0  0  0  0  0  0  0  0  0
   38.2050   21.9420   34.2780 C   0  0  0  0  0  0  0  0  0  0  0  0
   39.1890   21.5850   33.9070 H   0  0  0  0  0  0  0  0  0  0  0  0
   38.0160   21.3310   35.2100 H   0  0  0  0  0  0  0  0  0  0  0  0
   35.7460   20.7420   35.3770 Cl  0  0  0  0  0  0  0  0  0  0  0  0
   36.0710   20.9940   33.6700 C   0  0  0  0  0  0  0  0  0  0  0  0
   37.2520   21.5640   33.1980 C   0  0  0  0  0  0  0  0  0  0  0  0
   37.4860   21.7530   31.8530 C   0  0  0  0  0  0  0  0  0  0  0  0
   38.4140   22.1960   31.5750 H   0  0  0  0  0  0  0  0  0  0  0  0
   36.4790   21.3440   31.0040 C   0  0  0  0  0  0  0  0  0  0  0  0
   36.6640   21.4960   29.9300 H   0  0  0  0  0  0  0  0  0  0  0  0
   35.2970   20.7780   31.4230 C   0  0  0  0  0  3  0  0  0  0  0  0
   35.0890   20.6000   32.7640 C   0  0  0  0  0  3  0  0  0  0  0  0
  1  6  1  0  0  0  0
  2  1  2  0  0  0  0
  2  3  1  0  0  0  0
  3  4  2  0  0  0  0
  4  5  1  0  0  0  0
  5  8  1  0  0  0  0
  6  5  2  0  0  0  0
  7  3  1  0  0  0  0
  9 10  1  0  0  0  0
  9  1  1  0  0  0  0
 10 14  1  0  0  0  0
 11  9  1  0  0  0  0
 11 10  1  0  0  0  0
 11 16  1  0  0  0  0
 12  9  1  0  0  0  0
 13 10  1  0  0  0  0
 15 11  1  0  0  0  0
 17  2  1  0  0  0  0
 18 17  1  0  0  0  0
 19 17  1  0  0  0  0
 20 17  1  0  0  0  0
 20 22  1  0  0  0  0
 21 20  1  0  0  0  0
 24 23  1  0  0  0  0
 25 24  1  0  0  0  0
 25 20  1  0  0  0  0
 26 25  2  0  0  0  0
 27 26  1  0  0  0  0
 28 30  2  0  0  0  0
 28 26  1  0  0  0  0
 29 28  1  0  0  0  0
 30 31  1  0  0  0  0
 31 24  2  0  0  0  0
M  END
>  <minimizedAffinity>
-5.10960865

$$$$

 OpenBabel03272508193D

 31 33  0  0  0  0  0  0  0  0999 V2000
   37.0460   26.9430   33.8840 C   0  0  0  0  0  0  0  0  0  0  0  0
   36.3400   28.1130   33.5690 C   0  0  0  0  0  0  0  0  0  0  0  0
   35.8370   28.0950   32.2980 C   0  0  0  0  0  0  0  0  0  0  0  0
   35.9980   27.0690   31.4430 N   0  0  0  0  0  0  0  0  0  0  0  0
   36.6780   25.9630   31.7760 C   0  0  0  0  0  0  0  0  0  0  0  0
   37.2000   25.9060   32.9960 N   0  0  0  0  0  0  0  0  0  0  0  0
   35.2690   28.9280   31.9040 H   0  0  0  0  0  0  0  0  0  0  0  0
   36.8540   25.1100   31.1650 H   0  0  0  0  0  0  0  0  0  0  0  0
   37.5640   26.8430   35.3150 C   0  0  0  0  0  0  0  0  0  0  0  0
   38.4080   25.7840   35.7220 C   0  0  0  0  0  0  0  0  0  0  0  0
   39.1230   27.0480   35.2780 C   0  0  0  0  0  0  0  0  0  0  0  0
   37.1350   27.5890   36.0340 H   0  0  0  0  0  0  0  0  0  0  0  0
   38.5530   25.5770   36.8070 H   0  0  0  0  0  0  0  0  0  0  0  0
   38.5680   24.8530   35.1290 H   0  0  0  0  0  0  0  0  0  0  0  0
   39.5620   27.7340   36.0000 H   0  0  0  0  0  0  0  0  0  0  0  0
   39.6330   26.9460   34.3300 H   0  0  0  0  0  0  0  0  0  0  0  0
   36.1870   29.2210   34.4910 C   0  0  0  0  0  0  0  0  0  0  0  0
   35.9560   28.8890   35.5290 H   0  0  0  0  0  0  0  0  0  0  0  0
   37.1770   29.7350   34.5890 H   0  0  0  0  0  0  0  0  0  0  0  0
   35.1970   30.2580   34.1380 C   0  0  0  0  0  0  0  0  0  0  0  0
   35.6920   31.2350   33.9580 H   0  0  0  0  0  0  0  0  0  0  0  0
   34.6830   30.0170   33.1610 H   0  0  0  0  0  0  0  0  0  0  0  0
   36.1010   32.4390   35.9030 Cl  0  0  0  0  0  0  0  0  0  0  0  0
   34.5790   31.5780   36.0610 C   0  0  0  0  0  0  0  0  0  0  0  0
   34.1960   30.5490   35.2010 C   0  0  0  0  0  0  0  0  0  0  0  0
   32.9960   29.8870   35.3430 C   0  0  0  0  0  0  0  0  0  0  0  0
   32.7780   29.1130   34.6440 H   0  0  0  0  0  0  0  0  0  0  0  0
   32.1980   30.3050   36.3870 C   0  0  0  0  0  0  0  0  0  0  0  0
   31.2390   29.7780   36.5000 H   0  0  0  0  0  0  0  0  0  0  0  0
   32.5330   31.3150   37.2600 C   0  0  0  0  0  3  0  0  0  0  0  0
   33.7300   31.9570   37.0980 C   0  0  0  0  0  3  0  0  0  0  0  0
  1  9  1  0  0  0  0
  2  1  1  0  0  0  0
  2 17  1  0  0  0  0
  3  2  2  0  0  0  0
  4  5  2  0  0  0  0
  4  3  1  0  0  0  0
  5  6  1  0  0  0  0
  6  1  2  0  0  0  0
  7  3  1  0  0  0  0
  8  5  1  0  0  0  0
  9 10  1  0  0  0  0
  9 12  1  0  0  0  0
 10 13  1  0  0  0  0
 11  9  1  0  0  0  0
 11 10  1  0  0  0  0
 11 15  1  0  0  0  0
 14 10  1  0  0  0  0
 16 11  1  0  0  0  0
 17 19  1  0  0  0  0
 17 18  1  0  0  0  0
 20 17  1  0  0  0  0
 20 25  1  0  0  0  0
 21 20  1  0  0  0  0
 22 20  1  0  0  0  0
 23 24  1  0  0  0  0
 24 31  1  0  0  0  0
 25 26  1  0  0  0  0
 25 24  2  0  0  0  0
 26 28  2  0  0  0  0
 27 26  1  0  0  0  0
 28 29  1  0  0  0  0
 28 30  1  0  0  0  0
 31 30  2  0  0  0  0
M  END
>  <minimizedAffinity>
-5.09233427

$$$$

 OpenBabel03272508193D

 31 33  0  0  0  0  0  0  0  0999 V2000
   39.9510   22.5340   36.7540 C   0  0  0  0  0  0  0  0  0  0  0  0
   38.8250   22.5550   35.9160 C   0  0  0  0  0  0  0  0  0  0  0  0
   37.7040   23.0020   36.5570 C   0  0  0  0  0  0  0  0  0  0  0  0
   37.6790   23.3810   37.8470 N   0  0  0  0  0  0  0  0  0  0  0  0
   38.7720   23.3500   38.6210 C   0  0  0  0  0  0  0  0  0  0  0  0
   39.9040   22.9250   38.0700 N   0  0  0  0  0  0  0  0  0  0  0  0
   36.7530   23.0750   36.0440 H   0  0  0  0  0  0  0  0  0  0  0  0
   38.8410   23.6280   39.6460 H   0  0  0  0  0  0  0  0  0  0  0  0
   41.2650   22.1340   36.0930 C   0  0  0  0  0  0  0  0  0  0  0  0
   42.5120   22.4970   36.6530 C   0  0  0  0  0  0  0  0  0  0  0  0
   41.9990   21.1250   37.0520 C   0  0  0  0  0  0  0  0  0  0  0  0
   41.1680   21.6460   35.0880 H   0  0  0  0  0  0  0  0  0  0  0  0
   43.4360   22.4370   36.0320 H   0  0  0  0  0  0  0  0  0  0  0  0
   42.6360   23.2650   37.4500 H   0  0  0  0  0  0  0  0  0  0  0  0
   42.4080   20.2170   36.6150 H   0  0  0  0  0  0  0  0  0  0  0  0
   41.6760   21.0680   38.0830 H   0  0  0  0  0  0  0  0  0  0  0  0
   38.8590   22.1290   34.5320 C   0  0  0  0  0  0  0  0  0  0  0  0
   39.8720   22.2160   34.0770 H   0  0  0  0  0  0  0  0  0  0  0  0
   38.6450   21.0300   34.4980 H   0  0  0  0  0  0  0  0  0  0  0  0
   37.9120   22.7800   33.6040 C   0  0  0  0  0  0  0  0  0  0  0  0
   37.3510   23.5910   34.1150 H   0  0  0  0  0  0  0  0  0  0  0  0
   38.4560   23.3000   32.7610 H   0  0  0  0  0  0  0  0  0  0  0  0
   37.2870   23.4000   30.7900 Cl  0  0  0  0  0  0  0  0  0  0  0  0
   36.5200   22.1380   31.7410 C   0  0  0  0  0  0  0  0  0  0  0  0
   36.8480   21.8850   33.0720 C   0  0  0  0  0  0  0  0  0  0  0  0
   36.2330   20.8890   33.7990 C   0  0  0  0  0  0  0  0  0  0  0  0
   36.5410   20.7590   34.8110 H   0  0  0  0  0  0  0  0  0  0  0  0
   35.2750   20.1590   33.1290 C   0  0  0  0  0  0  0  0  0  0  0  0
   34.7840   19.3620   33.7080 H   0  0  0  0  0  0  0  0  0  0  0  0
   34.9180   20.3720   31.8160 C   0  0  0  0  0  3  0  0  0  0  0  0
   35.5430   21.3670   31.1160 C   0  0  0  0  0  3  0  0  0  0  0  0
  1  6  1  0  0  0  0
  2  3  1  0  0  0  0
  2  1  2  0  0  0  0
  3  4  2  0  0  0  0
  4  5  1  0  0  0  0
  5  8  1  0  0  0  0
  6  5  2  0  0  0  0
  7  3  1  0  0  0  0
  9 10  1  0  0  0  0
  9  1  1  0  0  0  0
  9 11  1  0  0  0  0
 10 11  1  0  0  0  0
 10 14  1  0  0  0  0
 11 16  1  0  0  0  0
 12  9  1  0  0  0  0
 13 10  1  0  0  0  0
 15 11  1  0  0  0  0
 17  2  1  0  0  0  0
 18 17  1  0  0  0  0
 19 17  1  0  0  0  0
 20 21  1  0  0  0  0
 20 17  1  0  0  0  0
 22 20  1  0  0  0  0
 23 24  1  0  0  0  0
 24 25  1  0  0  0  0
 25 20  1  0  0  0  0
 25 26  2  0  0  0  0
 26 27  1  0  0  0  0
 28 29  1  0  0  0  0
 28 26  1  0  0  0  0
 30 28  2  0  0  0  0
 31 24  2  0  0  0  0
 31 30  1  0  0  0  0
M  END
>  <minimizedAffinity>
-5.03799725

$$$$

 OpenBabel03272508193D

 31 33  0  0  0  0  0  0  0  0999 V2000
   36.3900   23.7300   32.0000 C   0  0  0  0  0  0  0  0  0  0  0  0
   37.3850   24.3660   32.7580 C   0  0  0  0  0  0  0  0  0  0  0  0
   37.3680   25.7240   32.6090 C   0  0  0  0  0  0  0  0  0  0  0  0
   36.4950   26.3820   31.8240 N   0  0  0  0  0  0  0  0  0  0  0  0
   35.5560   25.7440   31.1130 C   0  0  0  0  0  0  0  0  0  0  0  0
   35.5080   24.4200   31.2040 N   0  0  0  0  0  0  0  0  0  0  0  0
   38.0770   26.3580   33.1290 H   0  0  0  0  0  0  0  0  0  0  0  0
   34.8300   26.1820   30.4700 H   0  0  0  0  0  0  0  0  0  0  0  0
   36.2800   22.2200   32.1790 C   0  0  0  0  0  0  0  0  0  0  0  0
   35.5140   21.4260   31.2950 C   0  0  0  0  0  0  0  0  0  0  0  0
   36.9890   21.5360   30.9520 C   0  0  0  0  0  0  0  0  0  0  0  0
   36.7440   21.8120   33.1160 H   0  0  0  0  0  0  0  0  0  0  0  0
   35.2270   20.3900   31.5880 H   0  0  0  0  0  0  0  0  0  0  0  0
   34.7740   21.8380   30.5710 H   0  0  0  0  0  0  0  0  0  0  0  0
   37.6810   20.7220   31.1550 H   0  0  0  0  0  0  0  0  0  0  0  0
   37.1850   22.1350   30.0730 H   0  0  0  0  0  0  0  0  0  0  0  0
   38.3310   23.6470   33.5870 C   0  0  0  0  0  0  0  0  0  0  0  0
   37.8530   22.8420   34.1900 H   0  0  0  0  0  0  0  0  0  0  0  0
   39.0380   23.0960   32.9160 H   0  0  0  0  0  0  0  0  0  0  0  0
   39.1570   24.4480   34.5140 C   0  0  0  0  0  0  0  0  0  0  0  0
   40.2380   24.2580   34.3480 H   0  0  0  0  0  0  0  0  0  0  0  0
   39.0310   25.5550   34.3220 H   0  0  0  0  0  0  0  0  0  0  0  0
   41.1640   22.5270   35.5000 Cl  0  0  0  0  0  0  0  0  0  0  0  0
   39.8810   23.2340   36.4690 C   0  0  0  0  0  0  0  0  0  0  0  0
   38.9520   24.1370   35.9550 C   0  0  0  0  0  0  0  0  0  0  0  0
   37.9530   24.6800   36.7350 C   0  0  0  0  0  0  0  0  0  0  0  0
   37.2840   25.3640   36.2660 H   0  0  0  0  0  0  0  0  0  0  0  0
   37.9310   24.2740   38.0520 C   0  0  0  0  0  0  0  0  0  0  0  0
   37.1340   24.7080   38.6750 H   0  0  0  0  0  0  0  0  0  0  0  0
   38.8260   23.3860   38.6030 C   0  0  0  0  0  3  0  0  0  0  0  0
   39.8080   22.8610   37.8090 C   0  0  0  0  0  3  0  0  0  0  0  0
  1  9  1  0  0  0  0
  1  2  1  0  0  0  0
  2 17  1  0  0  0  0
  3  2  2  0  0  0  0
  3  7  1  0  0  0  0
  4  3  1  0  0  0  0
  5  6  1  0  0  0  0
  5  4  2  0  0  0  0
  6  1  2  0  0  0  0
  8  5  1  0  0  0  0
  9 12  1  0  0  0  0
 10 13  1  0  0  0  0
 10  9  1  0  0  0  0
 11 15  1  0  0  0  0
 11 10  1  0  0  0  0
 11  9  1  0  0  0  0
 14 10  1  0  0  0  0
 16 11  1  0  0  0  0
 17 18  1  0  0  0  0
 17 20  1  0  0  0  0
 19 17  1  0  0  0  0
 20 25  1  0  0  0  0
 21 20  1  0  0  0  0
 22 20  1  0  0  0  0
 23 24  1  0  0  0  0
 24 31  1  0  0  0  0
 25 24  2  0  0  0  0
 25 26  1  0  0  0  0
 26 28  2  0  0  0  0
 27 26  1  0  0  0  0
 28 30  1  0  0  0  0
 28 29  1  0  0  0  0
 31 30  2  0  0  0  0
M  END
>  <minimizedAffinity>
-4.95062971

$$$$

 OpenBabel03272508193D

 31 33  0  0  0  0  0  0  0  0999 V2000
   39.1330   25.1430   35.7040 C   0  0  0  0  0  0  0  0  0  0  0  0
   39.1560   26.4800   35.2790 C   0  0  0  0  0  0  0  0  0  0  0  0
   40.3410   26.8210   34.6900 C   0  0  0  0  0  0  0  0  0  0  0  0
   41.3730   25.9710   34.5330 N   0  0  0  0  0  0  0  0  0  0  0  0
   41.3180   24.6990   34.9510 C   0  0  0  0  0  0  0  0  0  0  0  0
   40.1970   24.2910   35.5350 N   0  0  0  0  0  0  0  0  0  0  0  0
   40.5160   27.8200   34.3100 H   0  0  0  0  0  0  0  0  0  0  0  0
   42.0820   23.9630   34.8690 H   0  0  0  0  0  0  0  0  0  0  0  0
   37.8120   24.6550   36.2910 C   0  0  0  0  0  0  0  0  0  0  0  0
   37.6860   23.3600   36.8450 C   0  0  0  0  0  0  0  0  0  0  0  0
   38.0160   24.4590   37.8390 C   0  0  0  0  0  0  0  0  0  0  0  0
   36.9380   25.3420   36.1430 H   0  0  0  0  0  0  0  0  0  0  0  0
   36.6730   22.9280   37.0160 H   0  0  0  0  0  0  0  0  0  0  0  0
   38.4300   22.5440   36.6950 H   0  0  0  0  0  0  0  0  0  0  0  0
   37.2600   24.8670   38.5050 H   0  0  0  0  0  0  0  0  0  0  0  0
   39.0270   24.4060   38.2220 H   0  0  0  0  0  0  0  0  0  0  0  0
   38.0470   27.3930   35.4670 C   0  0  0  0  0  0  0  0  0  0  0  0
   37.6900   27.4260   36.5220 H   0  0  0  0  0  0  0  0  0  0  0  0
   38.4120   28.4340   35.2750 H   0  0  0  0  0  0  0  0  0  0  0  0
   36.8570   27.1900   34.6160 C   0  0  0  0  0  0  0  0  0  0  0  0
   36.7370   26.1180   34.3510 H   0  0  0  0  0  0  0  0  0  0  0  0
   35.9080   27.4520   35.1690 H   0  0  0  0  0  0  0  0  0  0  0  0
   35.1090   29.5630   34.5760 Cl  0  0  0  0  0  0  0  0  0  0  0  0
   36.0990   29.0160   33.2330 C   0  0  0  0  0  0  0  0  0  0  0  0
   36.9090   27.8830   33.3000 C   0  0  0  0  0  0  0  0  0  0  0  0
   37.6790   27.4720   32.2330 C   0  0  0  0  0  0  0  0  0  0  0  0
   38.2700   26.5960   32.3650 H   0  0  0  0  0  0  0  0  0  0  0  0
   37.5990   28.2510   31.0980 C   0  0  0  0  0  0  0  0  0  0  0  0
   38.2140   27.9240   30.2460 H   0  0  0  0  0  0  0  0  0  0  0  0
   36.8150   29.3760   30.9860 C   0  0  0  0  0  3  0  0  0  0  0  0
   36.0590   29.7630   32.0590 C   0  0  0  0  0  3  0  0  0  0  0  0
  1  9  1  0  0  0  0
  2 17  1  0  0  0  0
  2  1  2  0  0  0  0
  3  2  1  0  0  0  0
  4  3  2  0  0  0  0
  4  5  1  0  0  0  0
  5  6  2  0  0  0  0
  6  1  1  0  0  0  0
  7  3  1  0  0  0  0
  8  5  1  0  0  0  0
  9 10  1  0  0  0  0
  9 11  1  0  0  0  0
 10 13  1  0  0  0  0
 10 11  1  0  0  0  0
 11 16  1  0  0  0  0
 11 15  1  0  0  0  0
 12  9  1  0  0  0  0
 14 10  1  0  0  0  0
 17 18  1  0  0  0  0
 19 17  1  0  0  0  0
 20 22  1  0  0  0  0
 20 17  1  0  0  0  0
 21 20  1  0  0  0  0
 24 25  1  0  0  0  0
 24 23  1  0  0  0  0
 25 20  1  0  0  0  0
 26 27  1  0  0  0  0
 26 25  2  0  0  0  0
 28 26  1  0  0  0  0
 29 28  1  0  0  0  0
 30 28  2  0  0  0  0
 30 31  1  0  0  0  0
 31 24  2  0  0  0  0
M  END
>  <minimizedAffinity>
-4.89728212

$$$$

 OpenBabel03272508193D

 31 33  0  0  0  0  0  0  0  0999 V2000
   38.1200   27.2720   32.7630 C   0  0  0  0  0  0  0  0  0  0  0  0
   39.4100   26.8610   33.1320 C   0  0  0  0  0  0  0  0  0  0  0  0
   40.3260   27.0540   32.1370 C   0  0  0  0  0  0  0  0  0  0  0  0
   40.0270   27.5810   30.9350 N   0  0  0  0  0  0  0  0  0  0  0  0
   38.7850   27.9640   30.6140 C   0  0  0  0  0  0  0  0  0  0  0  0
   37.8360   27.8080   31.5300 N   0  0  0  0  0  0  0  0  0  0  0  0
   41.3670   26.7850   32.2670 H   0  0  0  0  0  0  0  0  0  0  0  0
   38.4610   28.3870   29.6920 H   0  0  0  0  0  0  0  0  0  0  0  0
   37.0540   27.1760   33.8490 C   0  0  0  0  0  0  0  0  0  0  0  0
   37.0390   28.0660   34.9480 C   0  0  0  0  0  0  0  0  0  0  0  0
   36.1700   28.4750   33.7730 C   0  0  0  0  0  0  0  0  0  0  0  0
   36.3720   26.2890   33.7740 H   0  0  0  0  0  0  0  0  0  0  0  0
   36.4360   27.8190   35.8520 H   0  0  0  0  0  0  0  0  0  0  0  0
   37.8930   28.7260   35.2260 H   0  0  0  0  0  0  0  0  0  0  0  0
   35.0890   28.3540   33.7970 H   0  0  0  0  0  0  0  0  0  0  0  0
   36.5530   29.3270   33.2270 H   0  0  0  0  0  0  0  0  0  0  0  0
   39.7180   26.2790   34.4230 C   0  0  0  0  0  0  0  0  0  0  0  0
   40.7470   26.5250   34.7730 H   0  0  0  0  0  0  0  0  0  0  0  0
   39.0540   26.7530   35.1890 H   0  0  0  0  0  0  0  0  0  0  0  0
   39.5540   24.8170   34.5570 C   0  0  0  0  0  0  0  0  0  0  0  0
   38.7260   24.4500   33.9140 H   0  0  0  0  0  0  0  0  0  0  0  0
   40.4670   24.2670   34.1840 H   0  0  0  0  0  0  0  0  0  0  0  0
   41.3770   22.7100   35.5210 Cl  0  0  0  0  0  0  0  0  0  0  0  0
   40.0190   23.3600   36.4230 C   0  0  0  0  0  0  0  0  0  0  0  0
   39.1810   24.3560   35.9230 C   0  0  0  0  0  0  0  0  0  0  0  0
   38.1200   24.8520   36.6490 C   0  0  0  0  0  0  0  0  0  0  0  0
   37.5290   25.6130   36.1950 H   0  0  0  0  0  0  0  0  0  0  0  0
   37.9390   24.3030   37.9010 C   0  0  0  0  0  0  0  0  0  0  0  0
   37.0930   24.6990   38.4820 H   0  0  0  0  0  0  0  0  0  0  0  0
   38.7390   23.3190   38.4370 C   0  0  0  0  0  3  0  0  0  0  0  0
   39.7860   22.8430   37.6950 C   0  0  0  0  0  3  0  0  0  0  0  0
  1  2  1  0  0  0  0
  1  9  1  0  0  0  0
  2 17  1  0  0  0  0
  3  7  1  0  0  0  0
  3  2  2  0  0  0  0
  4  3  1  0  0  0  0
  5  4  2  0  0  0  0
  5  6  1  0  0  0  0
  6  1  2  0  0  0  0
  8  5  1  0  0  0  0
  9 10  1  0  0  0  0
 10 14  1  0  0  0  0
 10 13  1  0  0  0  0
 11 15  1  0  0  0  0
 11  9  1  0  0  0  0
 11 10  1  0  0  0  0
 12  9  1  0  0  0  0
 16 11  1  0  0  0  0
 17 20  1  0  0  0  0
 17 18  1  0  0  0  0
 17 19  1  0  0  0  0
 20 25  1  0  0  0  0
 21 20  1  0  0  0  0
 22 20  1  0  0  0  0
 23 24  1  0  0  0  0
 24 31  1  0  0  0  0
 25 24  2  0  0  0  0
 25 26  1  0  0  0  0
 26 28  2  0  0  0  0
 27 26  1  0  0  0  0
 28 30  1  0  0  0  0
 28 29  1  0  0  0  0
 31 30  2  0  0  0  0
M  END
>  <minimizedAffinity>
-4.7570715

$$$$

 OpenBabel03272508193D

 31 33  0  0  0  0  0  0  0  0999 V2000
   34.3910   30.8060   34.1080 C   0  0  0  0  0  0  0  0  0  0  0  0
   34.5270   29.7980   33.1410 C   0  0  0  0  0  0  0  0  0  0  0  0
   33.3430   29.1730   32.8670 C   0  0  0  0  0  0  0  0  0  0  0  0
   32.1750   29.4880   33.4570 N   0  0  0  0  0  0  0  0  0  0  0  0
   32.0790   30.4570   34.3760 C   0  0  0  0  0  0  0  0  0  0  0  0
   33.1890   31.1120   34.6980 N   0  0  0  0  0  0  0  0  0  0  0  0
   33.2830   28.3700   32.1430 H   0  0  0  0  0  0  0  0  0  0  0  0
   31.2020   30.7690   34.8910 H   0  0  0  0  0  0  0  0  0  0  0  0
   35.6490   31.6160   34.4060 C   0  0  0  0  0  0  0  0  0  0  0  0
   35.6670   32.6050   35.4160 C   0  0  0  0  0  0  0  0  0  0  0  0
   36.1390   31.2290   35.8500 C   0  0  0  0  0  0  0  0  0  0  0  0
   36.5030   31.4540   33.6970 H   0  0  0  0  0  0  0  0  0  0  0  0
   36.4870   33.3580   35.4390 H   0  0  0  0  0  0  0  0  0  0  0  0
   34.7500   33.0220   35.8950 H   0  0  0  0  0  0  0  0  0  0  0  0
   37.1960   31.0080   35.9840 H   0  0  0  0  0  0  0  0  0  0  0  0
   35.4480   30.7220   36.5090 H   0  0  0  0  0  0  0  0  0  0  0  0
   35.7920   29.4550   32.5240 C   0  0  0  0  0  0  0  0  0  0  0  0
   35.8650   29.7980   31.4670 H   0  0  0  0  0  0  0  0  0  0  0  0
   36.6030   30.0250   33.0460 H   0  0  0  0  0  0  0  0  0  0  0  0
   36.1860   28.0320   32.5440 C   0  0  0  0  0  0  0  0  0  0  0  0
   35.3220   27.3850   32.8080 H   0  0  0  0  0  0  0  0  0  0  0  0
   36.5000   27.6790   31.5180 H   0  0  0  0  0  0  0  0  0  0  0  0
   38.7070   27.1830   31.2730 Cl  0  0  0  0  0  0  0  0  0  0  0  0
   38.4320   27.2810   33.0050 C   0  0  0  0  0  0  0  0  0  0  0  0
   37.2190   27.6860   33.5590 C   0  0  0  0  0  0  0  0  0  0  0  0
   37.0260   27.7560   34.9220 C   0  0  0  0  0  0  0  0  0  0  0  0
   36.0690   28.0750   35.2650 H   0  0  0  0  0  0  0  0  0  0  0  0
   38.1060   27.4010   35.7020 C   0  0  0  0  0  0  0  0  0  0  0  0
   37.9520   27.4580   36.7900 H   0  0  0  0  0  0  0  0  0  0  0  0
   39.3220   26.9960   35.2000 C   0  0  0  0  0  3  0  0  0  0  0  0
   39.4880   26.9350   33.8440 C   0  0  0  0  0  3  0  0  0  0  0  0
  1  9  1  0  0  0  0
  1  6  1  0  0  0  0
  2  1  2  0  0  0  0
  3  2  1  0  0  0  0
  3  4  2  0  0  0  0
  4  5  1  0  0  0  0
  5  6  2  0  0  0  0
  5  8  1  0  0  0  0
  7  3  1  0  0  0  0
  9 10  1  0  0  0  0
  9 11  1  0  0  0  0
 10 13  1  0  0  0  0
 10 11  1  0  0  0  0
 10 14  1  0  0  0  0
 11 15  1  0  0  0  0
 11 16  1  0  0  0  0
 12  9  1  0  0  0  0
 17 20  1  0  0  0  0
 17 19  1  0  0  0  0
 17  2  1  0  0  0  0
 18 17  1  0  0  0  0
 20 21  1  0  0  0  0
 20 25  1  0  0  0  0
 22 20  1  0  0  0  0
 23 24  1  0  0  0  0
 24 25  2  0  0  0  0
 24 31  1  0  0  0  0
 25 26  1  0  0  0  0
 26 27  1  0  0  0  0
 26 28  2  0  0  0  0
 28 29  1  0  0  0  0
 30 28  1  0  0  0  0
 31 30  2  0  0  0  0
M  END
>  <minimizedAffinity>
-4.74855423

$$$$

 OpenBabel03272508193D

 31 33  0  0  0  0  0  0  0  0999 V2000
   40.0000   25.9890   34.9650 C   0  0  0  0  0  0  0  0  0  0  0  0
   38.7360   26.2370   35.5210 C   0  0  0  0  0  0  0  0  0  0  0  0
   38.2260   25.1480   36.1700 C   0  0  0  0  0  0  0  0  0  0  0  0
   38.8640   23.9680   36.2680 N   0  0  0  0  0  0  0  0  0  0  0  0
   40.0720   23.7630   35.7260 C   0  0  0  0  0  0  0  0  0  0  0  0
   40.6350   24.7760   35.0760 N   0  0  0  0  0  0  0  0  0  0  0  0
   37.2560   25.1810   36.6510 H   0  0  0  0  0  0  0  0  0  0  0  0
   40.6450   22.8670   35.7550 H   0  0  0  0  0  0  0  0  0  0  0  0
   40.6800   27.1810   34.3000 C   0  0  0  0  0  0  0  0  0  0  0  0
   41.9720   27.0720   33.7350 C   0  0  0  0  0  0  0  0  0  0  0  0
   40.8220   26.8600   32.7660 C   0  0  0  0  0  0  0  0  0  0  0  0
   40.1400   28.1590   34.3990 H   0  0  0  0  0  0  0  0  0  0  0  0
   42.5540   27.9930   33.5020 H   0  0  0  0  0  0  0  0  0  0  0  0
   42.6640   26.2190   33.9240 H   0  0  0  0  0  0  0  0  0  0  0  0
   40.5280   27.6310   32.0580 H   0  0  0  0  0  0  0  0  0  0  0  0
   40.7120   25.8340   32.4430 H   0  0  0  0  0  0  0  0  0  0  0  0
   38.0490   27.5070   35.3950 C   0  0  0  0  0  0  0  0  0  0  0  0
   37.9310   28.0330   36.3700 H   0  0  0  0  0  0  0  0  0  0  0  0
   38.6950   28.1980   34.7950 H   0  0  0  0  0  0  0  0  0  0  0  0
   36.7210   27.4920   34.7490 C   0  0  0  0  0  0  0  0  0  0  0  0
   36.3530   26.4520   34.6210 H   0  0  0  0  0  0  0  0  0  0  0  0
   35.9430   27.9890   35.4000 H   0  0  0  0  0  0  0  0  0  0  0  0
   35.1210   29.9660   34.6270 Cl  0  0  0  0  0  0  0  0  0  0  0  0
   35.9490   29.2310   33.2640 C   0  0  0  0  0  0  0  0  0  0  0  0
   36.6930   28.0560   33.3720 C   0  0  0  0  0  0  0  0  0  0  0  0
   37.3350   27.4970   32.2880 C   0  0  0  0  0  0  0  0  0  0  0  0
   37.8830   26.5980   32.4540 H   0  0  0  0  0  0  0  0  0  0  0  0
   37.1980   28.1710   31.0930 C   0  0  0  0  0  0  0  0  0  0  0  0
   37.7110   27.7260   30.2280 H   0  0  0  0  0  0  0  0  0  0  0  0
   36.4750   29.3330   30.9390 C   0  0  0  0  0  3  0  0  0  0  0  0
   35.8460   29.8680   32.0300 C   0  0  0  0  0  3  0  0  0  0  0  0
  1  6  2  0  0  0  0
  1  2  1  0  0  0  0
  2  3  2  0  0  0  0
  3  4  1  0  0  0  0
  3  7  1  0  0  0  0
  5  8  1  0  0  0  0
  5  4  2  0  0  0  0
  6  5  1  0  0  0  0
  9 12  1  0  0  0  0
  9  1  1  0  0  0  0
 10 14  1  0  0  0  0
 10  9  1  0  0  0  0
 11 10  1  0  0  0  0
 11  9  1  0  0  0  0
 13 10  1  0  0  0  0
 15 11  1  0  0  0  0
 16 11  1  0  0  0  0
 17  2  1  0  0  0  0
 17 18  1  0  0  0  0
 19 17  1  0  0  0  0
 20 17  1  0  0  0  0
 20 22  1  0  0  0  0
 21 20  1  0  0  0  0
 24 25  1  0  0  0  0
 24 23  1  0  0  0  0
 25 20  1  0  0  0  0
 26 27  1  0  0  0  0
 26 25  2  0  0  0  0
 28 26  1  0  0  0  0
 29 28  1  0  0  0  0
 30 28  2  0  0  0  0
 30 31  1  0  0  0  0
 31 24  2  0  0  0  0
M  END
>  <minimizedAffinity>
-4.72215366

$$$$
