
     RDKit          3D

 33 35  0  0  0  0  0  0  0  0999 V2000
   37.1441   31.2270   48.5962 C   0  0  0  0  0  0  0  0  0  0  0  0
   38.0703   32.2635   48.4063 C   0  0  0  0  0  0  0  0  0  0  0  0
   38.4180   32.4208   47.0944 C   0  0  0  0  0  0  0  0  0  0  0  0
   37.9277   31.6668   46.0925 N   0  0  0  0  0  0  0  0  0  0  0  0
   37.0436   30.6842   46.3081 C   0  0  0  0  0  0  0  0  0  0  0  0
   36.6558   30.4676   47.5599 N   0  0  0  0  0  0  0  0  0  0  0  0
   36.6329   31.0445   50.0211 C   0  0  0  0  0  0  0  0  0  0  0  0
   35.8972   29.8967   50.3991 C   0  0  0  0  0  0  0  0  0  0  0  0
   37.3918   29.8182   50.6506 C   0  0  0  0  0  0  0  0  0  0  0  0
   38.6055   33.0593   49.4927 C   0  0  0  0  0  0  0  0  0  0  0  0
   39.5661   34.1234   49.1381 C   0  0  0  0  0  0  0  0  0  0  0  0
   39.1255   33.1802   46.7854 H   0  0  0  0  0  0  0  0  0  0  0  0
   36.6078   30.0420   45.5798 H   0  0  0  0  0  0  0  0  0  0  0  0
   36.7776   31.9249   50.6996 H   0  0  0  0  0  0  0  0  0  0  0  0
   35.3097   29.9027   51.3456 H   0  0  0  0  0  0  0  0  0  0  0  0
   35.4467   29.1801   49.6736 H   0  0  0  0  0  0  0  0  0  0  0  0
   37.8063   29.9374   51.6496 H   0  0  0  0  0  0  0  0  0  0  0  0
   37.9067   29.1363   49.9880 H   0  0  0  0  0  0  0  0  0  0  0  0
   37.8100   33.5317   50.1140 H   0  0  0  0  0  0  0  0  0  0  0  0
   39.1282   32.3717   50.2062 H   0  0  0  0  0  0  0  0  0  0  0  0
   39.8729   34.6971   50.0379 H   0  0  0  0  0  0  0  0  0  0  0  0
   40.5292   33.6880   48.7382 H   0  0  0  0  0  0  0  0  0  0  0  0
   40.9508   34.0657   46.5358 Cl  0  0  0  0  0  0  0  0  0  0  0  0
   39.6553   35.1701   46.9656 C   0  0  0  0  0  0  0  0  0  0  0  0
   39.0325   35.1603   48.2127 C   0  0  0  0  0  0  0  0  0  0  0  0
   38.0158   36.0357   48.5293 C   0  0  0  0  0  0  0  0  0  0  0  0
   37.5920   35.9627   49.5044 H   0  0  0  0  0  0  0  0  0  0  0  0
   37.6541   36.9208   47.5358 C   0  0  0  0  0  0  0  0  0  0  0  0
   36.8423   37.6200   47.7873 H   0  0  0  0  0  0  0  0  0  0  0  0
   38.2386   36.9684   46.2910 C   0  0  0  0  0  0  0  0  0  0  0  0
   39.2463   36.0878   46.0017 C   0  0  0  0  0  0  0  0  0  0  0  0
   37.8879   37.7039   45.5626 H   0  0  0  0  0  0  0  0  0  0  0  0
   39.7315   36.0998   45.0196 H   0  0  0  0  0  0  0  0  0  0  0  0
  1  7  1  0
  2  1  1  0
  2 10  1  0
  3  2  2  0
  4  5  2  0
  4  3  1  0
  5  6  1  0
  6  1  2  0
  7  8  1  0
  7  9  1  0
  8  9  1  0
 11 10  1  0
  3 12  1  0
  5 13  1  0
  7 14  1  0
  8 15  1  0
  8 16  1  0
  9 17  1  0
  9 18  1  0
 10 19  1  0
 10 20  1  0
 11 21  1  0
 11 22  1  0
 23 24  1  0
 24 25  2  0
 25 26  1  0
 26 27  1  0
 26 28  2  0
 28 29  1  0
 28 30  1  0
 30 31  2  0
 31 24  1  0
 30 32  1  0
 31 33  1  0
 11 25  1  0
M  ISO  8  12  14  13  14  14  13  15  13  16  13  17  13  18  13  19   8
M  ISO  5  20   8  21   8  22   8  27  15  29  16
M  END
>  <DihAtoms>  (1) 
9,10,24,23

>  <DihDeg>  (1) 
-159.33505415022083

$$$$
