
 OpenBabel03272500233D

 37 39  0  0  0  0  0  0  0  0999 V2000
   38.1400   25.9560   36.7950 C   0  0  0  0  0  0  0  0  0  0  0  0
   38.1920   24.5210   36.8410 C   0  0  0  0  0  0  0  0  0  0  0  0
   38.1510   23.8110   35.6410 C   0  0  0  0  0  0  0  0  0  0  0  0
   38.0630   24.5260   34.4850 N   0  0  0  0  0  0  0  0  0  0  0  0
   38.0140   25.8520   34.4540 C   0  0  0  0  0  0  0  0  0  0  0  0
   38.0510   26.5750   35.5910 N   0  0  0  0  0  0  0  0  0  0  0  0
   38.1700   26.5210   37.7190 H   0  0  0  0  0  0  0  0  0  0  0  0
   36.0490   28.1370   34.3330 Cl  0  0  0  0  0  0  0  0  0  0  0  0
   37.0360   27.6180   32.9870 C   0  0  0  0  0  0  0  0  0  0  0  0
   37.9120   26.5400   33.1590 C   0  0  0  0  0  0  0  0  0  0  0  0
   38.7270   26.0760   32.1150 C   0  0  0  0  0  0  0  0  0  0  0  0
   38.6080   26.7560   30.8920 C   0  0  0  0  0  0  0  0  0  0  0  0
   37.7620   27.8060   30.7060 C   0  0  0  0  0  0  0  0  0  0  0  0
   37.7050   28.5680   29.1420 Cl  0  0  0  0  0  0  0  0  0  0  0  0
   36.9690   28.2360   31.7720 C   0  0  0  0  0  0  0  0  0  0  0  0
   39.4050   25.2570   32.2170 H   0  0  0  0  0  0  0  0  0  0  0  0
   39.2440   26.3890   30.0940 H   0  0  0  0  0  0  0  0  0  0  0  0
   36.0370   29.3810   31.5920 C   0  0  0  0  0  0  0  0  0  0  0  0
   36.5160   30.5070   32.2680 F   0  0  0  0  0  0  0  0  0  0  0  0
   34.7620   29.0850   31.9960 F   0  0  0  0  0  0  0  0  0  0  0  0
   35.9870   29.7360   30.2690 F   0  0  0  0  0  0  0  0  0  0  0  0
   38.2890   23.8840   38.1850 C   0  0  0  0  0  0  0  0  0  0  0  0
   39.5390   23.2880   38.3460 F   0  0  0  0  0  0  0  0  0  0  0  0
   38.1710   24.8910   39.1270 F   0  0  0  0  0  0  0  0  0  0  0  0
   37.3060   22.9570   38.4230 F   0  0  0  0  0  0  0  0  0  0  0  0
   38.1890   22.3600   35.7000 C   0  0  0  0  0  0  0  0  0  0  0  0
   37.7870   21.9220   36.6360 H   0  0  0  0  0  0  0  0  0  0  0  0
   39.2790   22.0650   35.6510 H   0  0  0  0  0  0  0  0  0  0  0  0
   35.5650   21.0550   36.4430 Cl  0  0  0  0  0  0  0  0  0  0  0  0
   36.2150   21.0770   34.8050 C   0  0  0  0  0  0  0  0  0  0  0  0
   37.4190   21.7200   34.6070 C   0  0  0  0  0  0  0  0  0  0  0  0
   37.8610   21.7110   33.2980 C   0  0  0  0  0  0  0  0  0  0  0  0
   38.8150   22.2170   33.1090 H   0  0  0  0  0  0  0  0  0  0  0  0
   37.2120   21.1300   32.2190 C   0  0  0  0  0  0  0  0  0  0  0  0
   37.6770   21.1990   31.2350 H   0  0  0  0  0  0  0  0  0  0  0  0
   36.0100   20.4980   32.4700 C   0  0  0  0  0  3  0  0  0  0  0  0
   35.5180   20.4740   33.7600 C   0  0  0  0  0  3  0  0  0  0  0  0
  1  2  1  0  0  0  0
  1  7  1  0  0  0  0
  2 22  1  0  0  0  0
  3 26  1  0  0  0  0
  3  2  2  0  0  0  0
  4  3  1  0  0  0  0
  5  4  2  0  0  0  0
  5  6  1  0  0  0  0
  6  1  2  0  0  0  0
  9 10  1  0  0  0  0
  9  8  1  0  0  0  0
 10  5  1  0  0  0  0
 11 16  1  0  0  0  0
 11 10  2  0  0  0  0
 12 11  1  0  0  0  0
 13 12  2  0  0  0  0
 13 15  1  0  0  0  0
 14 13  1  0  0  0  0
 15  9  2  0  0  0  0
 17 12  1  0  0  0  0
 18 15  1  0  0  0  0
 18 20  1  0  0  0  0
 18 19  1  0  0  0  0
 21 18  1  0  0  0  0
 22 23  1  0  0  0  0
 22 25  1  0  0  0  0
 22 24  1  0  0  0  0
 26 27  1  0  0  0  0
 28 26  1  0  0  0  0
 30 29  1  0  0  0  0
 31 30  1  0  0  0  0
 31 26  1  0  0  0  0
 32 31  2  0  0  0  0
 33 32  1  0  0  0  0
 34 36  2  0  0  0  0
 34 32  1  0  0  0  0
 35 34  1  0  0  0  0
 36 37  1  0  0  0  0
 37 30  2  0  0  0  0
M  END
>  <minimizedAffinity>
-7.18829203

$$$$

 OpenBabel03272500233D

 37 39  0  0  0  0  0  0  0  0999 V2000
   38.0760   25.9190   36.7170 C   0  0  0  0  0  0  0  0  0  0  0  0
   38.1550   24.4860   36.7640 C   0  0  0  0  0  0  0  0  0  0  0  0
   38.1410   23.7750   35.5620 C   0  0  0  0  0  0  0  0  0  0  0  0
   38.0530   24.4890   34.4060 N   0  0  0  0  0  0  0  0  0  0  0  0
   37.9800   25.8140   34.3740 C   0  0  0  0  0  0  0  0  0  0  0  0
   37.9900   26.5370   35.5120 N   0  0  0  0  0  0  0  0  0  0  0  0
   38.0860   26.4850   37.6410 H   0  0  0  0  0  0  0  0  0  0  0  0
   40.6000   26.4880   33.0400 Cl  0  0  0  0  0  0  0  0  0  0  0  0
   39.0300   26.8580   32.3650 C   0  0  0  0  0  0  0  0  0  0  0  0
   37.8800   26.5000   33.0780 C   0  0  0  0  0  0  0  0  0  0  0  0
   36.5930   26.7730   32.5900 C   0  0  0  0  0  0  0  0  0  0  0  0
   36.5310   27.4260   31.3470 C   0  0  0  0  0  0  0  0  0  0  0  0
   37.6390   27.7820   30.6400 C   0  0  0  0  0  0  0  0  0  0  0  0
   37.4330   28.5870   29.1120 Cl  0  0  0  0  0  0  0  0  0  0  0  0
   38.9010   27.4910   31.1630 C   0  0  0  0  0  0  0  0  0  0  0  0
   35.6980   26.5110   33.1100 H   0  0  0  0  0  0  0  0  0  0  0  0
   35.5310   27.6300   30.9800 H   0  0  0  0  0  0  0  0  0  0  0  0
   40.1250   27.8700   30.4090 C   0  0  0  0  0  0  0  0  0  0  0  0
   40.3340   26.9850   29.3470 F   0  0  0  0  0  0  0  0  0  0  0  0
   41.2340   27.9300   31.2090 F   0  0  0  0  0  0  0  0  0  0  0  0
   39.9530   29.1030   29.8360 F   0  0  0  0  0  0  0  0  0  0  0  0
   38.2480   23.8510   38.1090 C   0  0  0  0  0  0  0  0  0  0  0  0
   39.4960   23.2500   38.2720 F   0  0  0  0  0  0  0  0  0  0  0  0
   38.1330   24.8600   39.0490 F   0  0  0  0  0  0  0  0  0  0  0  0
   37.2620   22.9280   38.3460 F   0  0  0  0  0  0  0  0  0  0  0  0
   38.2060   22.3260   35.6220 C   0  0  0  0  0  0  0  0  0  0  0  0
   37.8270   21.8810   36.5650 H   0  0  0  0  0  0  0  0  0  0  0  0
   39.3000   22.0500   35.5560 H   0  0  0  0  0  0  0  0  0  0  0  0
   35.5700   21.0620   36.3910 Cl  0  0  0  0  0  0  0  0  0  0  0  0
   36.2190   21.0430   34.7530 C   0  0  0  0  0  0  0  0  0  0  0  0
   37.4300   21.6710   34.5420 C   0  0  0  0  0  0  0  0  0  0  0  0
   37.8720   21.6320   33.2340 C   0  0  0  0  0  0  0  0  0  0  0  0
   38.8300   22.1240   33.0350 H   0  0  0  0  0  0  0  0  0  0  0  0
   37.2170   21.0340   32.1670 C   0  0  0  0  0  0  0  0  0  0  0  0
   37.6830   21.0790   31.1820 H   0  0  0  0  0  0  0  0  0  0  0  0
   36.0090   20.4190   32.4300 C   0  0  0  0  0  3  0  0  0  0  0  0
   35.5170   20.4270   33.7200 C   0  0  0  0  0  3  0  0  0  0  0  0
  1  2  1  0  0  0  0
  1  7  1  0  0  0  0
  2 22  1  0  0  0  0
  3 26  1  0  0  0  0
  3  2  2  0  0  0  0
  4  3  1  0  0  0  0
  5  4  2  0  0  0  0
  5  6  1  0  0  0  0
  6  1  2  0  0  0  0
  9  8  1  0  0  0  0
  9 10  1  0  0  0  0
 10  5  1  0  0  0  0
 11 10  2  0  0  0  0
 11 16  1  0  0  0  0
 12 11  1  0  0  0  0
 13 15  1  0  0  0  0
 13 12  2  0  0  0  0
 14 13  1  0  0  0  0
 15  9  2  0  0  0  0
 17 12  1  0  0  0  0
 18 15  1  0  0  0  0
 18 20  1  0  0  0  0
 19 18  1  0  0  0  0
 21 18  1  0  0  0  0
 22 23  1  0  0  0  0
 22 25  1  0  0  0  0
 22 24  1  0  0  0  0
 26 27  1  0  0  0  0
 28 26  1  0  0  0  0
 30 29  1  0  0  0  0
 31 30  1  0  0  0  0
 31 26  1  0  0  0  0
 32 31  2  0  0  0  0
 33 32  1  0  0  0  0
 34 36  2  0  0  0  0
 34 32  1  0  0  0  0
 35 34  1  0  0  0  0
 36 37  1  0  0  0  0
 37 30  2  0  0  0  0
M  END
>  <minimizedAffinity>
-6.78322792

$$$$

 OpenBabel03272500233D

 37 39  0  0  0  0  0  0  0  0999 V2000
   38.1610   26.0940   36.6600 C   0  0  0  0  0  0  0  0  0  0  0  0
   38.3700   24.6740   36.6930 C   0  0  0  0  0  0  0  0  0  0  0  0
   38.6400   24.0080   35.4950 C   0  0  0  0  0  0  0  0  0  0  0  0
   38.6890   24.7520   34.3560 N   0  0  0  0  0  0  0  0  0  0  0  0
   38.4930   26.0650   34.3360 C   0  0  0  0  0  0  0  0  0  0  0  0
   38.2300   26.7440   35.4710 N   0  0  0  0  0  0  0  0  0  0  0  0
   37.9500   26.6240   37.5810 H   0  0  0  0  0  0  0  0  0  0  0  0
   36.1690   27.8930   33.7390 Cl  0  0  0  0  0  0  0  0  0  0  0  0
   37.5380   27.6650   32.6760 C   0  0  0  0  0  0  0  0  0  0  0  0
   38.5580   26.7850   33.0570 C   0  0  0  0  0  0  0  0  0  0  0  0
   39.6800   26.5580   32.2440 C   0  0  0  0  0  0  0  0  0  0  0  0
   39.7140   27.2640   31.0300 C   0  0  0  0  0  0  0  0  0  0  0  0
   38.7310   28.1230   30.6430 C   0  0  0  0  0  0  0  0  0  0  0  0
   38.8870   28.9390   29.1140 Cl  0  0  0  0  0  0  0  0  0  0  0  0
   37.6320   28.3200   31.4820 C   0  0  0  0  0  0  0  0  0  0  0  0
   40.4740   25.8950   32.5090 H   0  0  0  0  0  0  0  0  0  0  0  0
   40.5860   27.0810   30.4120 H   0  0  0  0  0  0  0  0  0  0  0  0
   36.5460   29.2530   31.0810 C   0  0  0  0  0  0  0  0  0  0  0  0
   35.3020   28.7370   31.4550 F   0  0  0  0  0  0  0  0  0  0  0  0
   36.5660   29.5330   29.7410 F   0  0  0  0  0  0  0  0  0  0  0  0
   36.6760   30.4360   31.7600 F   0  0  0  0  0  0  0  0  0  0  0  0
   38.2850   24.0010   38.0200 C   0  0  0  0  0  0  0  0  0  0  0  0
   39.4890   23.3620   38.3140 F   0  0  0  0  0  0  0  0  0  0  0  0
   38.0810   24.9890   38.9680 F   0  0  0  0  0  0  0  0  0  0  0  0
   37.2550   23.1000   38.1100 F   0  0  0  0  0  0  0  0  0  0  0  0
   38.8350   22.5700   35.5380 C   0  0  0  0  0  0  0  0  0  0  0  0
   38.9020   22.1400   36.5580 H   0  0  0  0  0  0  0  0  0  0  0  0
   39.8280   22.3650   35.0390 H   0  0  0  0  0  0  0  0  0  0  0  0
   39.1830   21.9560   32.5990 Cl  0  0  0  0  0  0  0  0  0  0  0  0
   37.7640   21.4870   33.5320 C   0  0  0  0  0  0  0  0  0  0  0  0
   37.7440   21.8220   34.8700 C   0  0  0  0  0  0  0  0  0  0  0  0
   36.6090   21.4110   35.5430 C   0  0  0  0  0  0  0  0  0  0  0  0
   36.5650   21.6610   36.6090 H   0  0  0  0  0  0  0  0  0  0  0  0
   35.5390   20.7180   34.9960 C   0  0  0  0  0  0  0  0  0  0  0  0
   34.7050   20.4550   35.6470 H   0  0  0  0  0  0  0  0  0  0  0  0
   35.6080   20.4070   33.6520 C   0  0  0  0  0  3  0  0  0  0  0  0
   36.7190   20.7920   32.9280 C   0  0  0  0  0  3  0  0  0  0  0  0
  1  2  1  0  0  0  0
  1  7  1  0  0  0  0
  2 22  1  0  0  0  0
  3 26  1  0  0  0  0
  3  2  2  0  0  0  0
  4  3  1  0  0  0  0
  5  4  2  0  0  0  0
  5  6  1  0  0  0  0
  6  1  2  0  0  0  0
  9 10  1  0  0  0  0
  9  8  1  0  0  0  0
 10  5  1  0  0  0  0
 11 16  1  0  0  0  0
 11 10  2  0  0  0  0
 12 11  1  0  0  0  0
 13 12  2  0  0  0  0
 13 15  1  0  0  0  0
 14 13  1  0  0  0  0
 15  9  2  0  0  0  0
 17 12  1  0  0  0  0
 18 19  1  0  0  0  0
 18 15  1  0  0  0  0
 18 21  1  0  0  0  0
 20 18  1  0  0  0  0
 22 25  1  0  0  0  0
 22 23  1  0  0  0  0
 22 24  1  0  0  0  0
 26 27  1  0  0  0  0
 28 26  1  0  0  0  0
 29 30  1  0  0  0  0
 30 31  1  0  0  0  0
 31 26  1  0  0  0  0
 31 32  2  0  0  0  0
 32 33  1  0  0  0  0
 34 32  1  0  0  0  0
 34 35  1  0  0  0  0
 36 34  2  0  0  0  0
 37 30  2  0  0  0  0
 37 36  1  0  0  0  0
M  END
>  <minimizedAffinity>
-6.7381258

$$$$

 OpenBabel03272500233D

 37 39  0  0  0  0  0  0  0  0999 V2000
   38.2840   25.4500   36.2330 C   0  0  0  0  0  0  0  0  0  0  0  0
   38.5640   24.2390   35.5140 C   0  0  0  0  0  0  0  0  0  0  0  0
   38.3050   24.1990   34.1430 C   0  0  0  0  0  0  0  0  0  0  0  0
   37.7970   25.3220   33.5620 N   0  0  0  0  0  0  0  0  0  0  0  0
   37.5420   26.4360   34.2360 C   0  0  0  0  0  0  0  0  0  0  0  0
   37.7780   26.5150   35.5610 N   0  0  0  0  0  0  0  0  0  0  0  0
   38.4800   25.4960   37.2980 H   0  0  0  0  0  0  0  0  0  0  0  0
   38.5510   26.8620   31.4260 Cl  0  0  0  0  0  0  0  0  0  0  0  0
   37.3790   27.8910   32.2150 C   0  0  0  0  0  0  0  0  0  0  0  0
   36.9870   27.5970   33.5270 C   0  0  0  0  0  0  0  0  0  0  0  0
   36.0530   28.3880   34.2130 C   0  0  0  0  0  0  0  0  0  0  0  0
   35.5390   29.4880   33.5070 C   0  0  0  0  0  0  0  0  0  0  0  0
   35.9080   29.7890   32.2320 C   0  0  0  0  0  0  0  0  0  0  0  0
   35.2010   31.1800   31.4610 Cl  0  0  0  0  0  0  0  0  0  0  0  0
   36.8410   28.9750   31.5840 C   0  0  0  0  0  0  0  0  0  0  0  0
   35.7340   28.1880   35.2130 H   0  0  0  0  0  0  0  0  0  0  0  0
   34.8180   30.0900   34.0480 H   0  0  0  0  0  0  0  0  0  0  0  0
   37.2600   29.2840   30.1920 C   0  0  0  0  0  0  0  0  0  0  0  0
   36.8710   30.5820   29.8450 F   0  0  0  0  0  0  0  0  0  0  0  0
   36.7750   28.3790   29.2870 F   0  0  0  0  0  0  0  0  0  0  0  0
   38.6280   29.2730   30.1060 F   0  0  0  0  0  0  0  0  0  0  0  0
   39.1190   23.0950   36.2920 C   0  0  0  0  0  0  0  0  0  0  0  0
   40.3960   22.7750   35.8310 F   0  0  0  0  0  0  0  0  0  0  0  0
   39.2300   23.5090   37.6080 F   0  0  0  0  0  0  0  0  0  0  0  0
   38.3270   21.9760   36.2580 F   0  0  0  0  0  0  0  0  0  0  0  0
   38.5770   22.9650   33.4280 C   0  0  0  0  0  0  0  0  0  0  0  0
   39.1470   22.2090   34.0060 H   0  0  0  0  0  0  0  0  0  0  0  0
   39.2210   23.2420   32.5410 H   0  0  0  0  0  0  0  0  0  0  0  0
   37.5950   23.5410   30.6280 Cl  0  0  0  0  0  0  0  0  0  0  0  0
   36.7760   22.4500   31.7440 C   0  0  0  0  0  0  0  0  0  0  0  0
   37.3440   22.2710   32.9890 C   0  0  0  0  0  0  0  0  0  0  0  0
   36.6580   21.3920   33.8060 C   0  0  0  0  0  0  0  0  0  0  0  0
   37.0860   21.2280   34.8010 H   0  0  0  0  0  0  0  0  0  0  0  0
   35.4950   20.7100   33.4810 C   0  0  0  0  0  0  0  0  0  0  0  0
   35.0590   20.0440   34.2260 H   0  0  0  0  0  0  0  0  0  0  0  0
   34.9670   20.9250   32.2230 C   0  0  0  0  0  3  0  0  0  0  0  0
   35.6100   21.7930   31.3620 C   0  0  0  0  0  3  0  0  0  0  0  0
  1  7  1  0  0  0  0
  2  1  2  0  0  0  0
  2 22  1  0  0  0  0
  3  2  1  0  0  0  0
  4  3  2  0  0  0  0
  4  5  1  0  0  0  0
  5  6  2  0  0  0  0
  6  1  1  0  0  0  0
  8  9  1  0  0  0  0
  9 10  1  0  0  0  0
 10 11  2  0  0  0  0
 10  5  1  0  0  0  0
 11 16  1  0  0  0  0
 12 17  1  0  0  0  0
 12 11  1  0  0  0  0
 13 12  2  0  0  0  0
 14 13  1  0  0  0  0
 15  9  2  0  0  0  0
 15 13  1  0  0  0  0
 18 15  1  0  0  0  0
 19 18  1  0  0  0  0
 20 18  1  0  0  0  0
 21 18  1  0  0  0  0
 22 24  1  0  0  0  0
 23 22  1  0  0  0  0
 25 22  1  0  0  0  0
 26 27  1  0  0  0  0
 26  3  1  0  0  0  0
 28 26  1  0  0  0  0
 29 30  1  0  0  0  0
 30 31  1  0  0  0  0
 31 26  1  0  0  0  0
 31 32  2  0  0  0  0
 32 33  1  0  0  0  0
 34 32  1  0  0  0  0
 34 35  1  0  0  0  0
 36 34  2  0  0  0  0
 37 30  2  0  0  0  0
 37 36  1  0  0  0  0
M  END
>  <minimizedAffinity>
-6.64058733

$$$$

 OpenBabel03272500233D

 37 39  0  0  0  0  0  0  0  0999 V2000
   37.4870   27.0860   33.2970 C   0  0  0  0  0  0  0  0  0  0  0  0
   36.9440   26.3120   32.2160 C   0  0  0  0  0  0  0  0  0  0  0  0
   37.5330   25.0840   31.9100 C   0  0  0  0  0  0  0  0  0  0  0  0
   38.5970   24.6870   32.6620 N   0  0  0  0  0  0  0  0  0  0  0  0
   39.0910   25.4110   33.6580 C   0  0  0  0  0  0  0  0  0  0  0  0
   38.5510   26.6030   33.9850 N   0  0  0  0  0  0  0  0  0  0  0  0
   37.0410   28.0420   33.5450 H   0  0  0  0  0  0  0  0  0  0  0  0
   38.4970   23.2690   35.6970 Cl  0  0  0  0  0  0  0  0  0  0  0  0
   40.0930   23.9080   35.3810 C   0  0  0  0  0  0  0  0  0  0  0  0
   40.2480   24.9070   34.4110 C   0  0  0  0  0  0  0  0  0  0  0  0
   41.5030   25.4610   34.1150 C   0  0  0  0  0  0  0  0  0  0  0  0
   42.5890   24.9550   34.8490 C   0  0  0  0  0  0  0  0  0  0  0  0
   42.4570   23.9850   35.7950 C   0  0  0  0  0  0  0  0  0  0  0  0
   43.8780   23.4400   36.6390 Cl  0  0  0  0  0  0  0  0  0  0  0  0
   41.1900   23.4600   36.0590 C   0  0  0  0  0  0  0  0  0  0  0  0
   41.6520   26.2220   33.3810 H   0  0  0  0  0  0  0  0  0  0  0  0
   43.5520   25.3900   34.6110 H   0  0  0  0  0  0  0  0  0  0  0  0
   41.0210   22.4000   37.0880 C   0  0  0  0  0  0  0  0  0  0  0  0
   40.4290   22.9310   38.2380 F   0  0  0  0  0  0  0  0  0  0  0  0
   42.2020   21.7800   37.3980 F   0  0  0  0  0  0  0  0  0  0  0  0
   40.1510   21.4440   36.6310 F   0  0  0  0  0  0  0  0  0  0  0  0
   35.7750   26.8820   31.4870 C   0  0  0  0  0  0  0  0  0  0  0  0
   35.2530   27.9670   32.1900 F   0  0  0  0  0  0  0  0  0  0  0  0
   36.2360   27.3430   30.2670 F   0  0  0  0  0  0  0  0  0  0  0  0
   34.7790   25.9680   31.2530 F   0  0  0  0  0  0  0  0  0  0  0  0
   36.9850   24.3160   30.8050 C   0  0  0  0  0  0  0  0  0  0  0  0
   37.6550   24.2220   29.9270 H   0  0  0  0  0  0  0  0  0  0  0  0
   36.0680   24.8740   30.4500 H   0  0  0  0  0  0  0  0  0  0  0  0
   38.9530   22.1530   30.0410 Cl  0  0  0  0  0  0  0  0  0  0  0  0
   37.4400   21.8400   30.8890 C   0  0  0  0  0  0  0  0  0  0  0  0
   36.6420   22.9260   31.1860 C   0  0  0  0  0  0  0  0  0  0  0  0
   35.4800   22.6100   31.8640 C   0  0  0  0  0  0  0  0  0  0  0  0
   34.8270   23.4520   32.1160 H   0  0  0  0  0  0  0  0  0  0  0  0
   35.0770   21.3400   32.2500 C   0  0  0  0  0  0  0  0  0  0  0  0
   34.1320   21.2350   32.7830 H   0  0  0  0  0  0  0  0  0  0  0  0
   35.9120   20.2870   31.9280 C   0  0  0  0  0  3  0  0  0  0  0  0
   37.0870   20.5420   31.2500 C   0  0  0  0  0  3  0  0  0  0  0  0
  1  7  1  0  0  0  0
  1  6  1  0  0  0  0
  2  1  2  0  0  0  0
  3  2  1  0  0  0  0
  3  4  2  0  0  0  0
  4  5  1  0  0  0  0
  5  6  2  0  0  0  0
  5 10  1  0  0  0  0
  9  8  1  0  0  0  0
  9 15  1  0  0  0  0
 10  9  2  0  0  0  0
 11 10  1  0  0  0  0
 11 12  2  0  0  0  0
 12 13  1  0  0  0  0
 13 15  2  0  0  0  0
 13 14  1  0  0  0  0
 15 18  1  0  0  0  0
 16 11  1  0  0  0  0
 17 12  1  0  0  0  0
 18 20  1  0  0  0  0
 18 19  1  0  0  0  0
 21 18  1  0  0  0  0
 22 23  1  0  0  0  0
 22  2  1  0  0  0  0
 24 22  1  0  0  0  0
 25 22  1  0  0  0  0
 26 31  1  0  0  0  0
 26  3  1  0  0  0  0
 27 26  1  0  0  0  0
 28 26  1  0  0  0  0
 29 30  1  0  0  0  0
 30 31  2  0  0  0  0
 30 37  1  0  0  0  0
 31 32  1  0  0  0  0
 32 33  1  0  0  0  0
 32 34  2  0  0  0  0
 34 35  1  0  0  0  0
 36 34  1  0  0  0  0
 37 36  2  0  0  0  0
M  END
>  <minimizedAffinity>
-6.50634718

$$$$

 OpenBabel03272500233D

 37 39  0  0  0  0  0  0  0  0999 V2000
   37.9690   25.5780   35.9330 C   0  0  0  0  0  0  0  0  0  0  0  0
   38.2520   24.2110   35.5960 C   0  0  0  0  0  0  0  0  0  0  0  0
   38.3540   23.8610   34.2480 C   0  0  0  0  0  0  0  0  0  0  0  0
   38.1770   24.8450   33.3240 N   0  0  0  0  0  0  0  0  0  0  0  0
   37.9140   26.1050   33.6470 C   0  0  0  0  0  0  0  0  0  0  0  0
   37.8080   26.4840   34.9360 N   0  0  0  0  0  0  0  0  0  0  0  0
   37.8860   25.8640   36.9750 H   0  0  0  0  0  0  0  0  0  0  0  0
   35.8810   28.2640   34.2000 Cl  0  0  0  0  0  0  0  0  0  0  0  0
   36.8160   28.1500   32.7280 C   0  0  0  0  0  0  0  0  0  0  0  0
   37.7300   27.1000   32.5800 C   0  0  0  0  0  0  0  0  0  0  0  0
   38.5070   26.9540   31.4210 C   0  0  0  0  0  0  0  0  0  0  0  0
   38.3110   27.9220   30.4220 C   0  0  0  0  0  0  0  0  0  0  0  0
   37.4270   28.9500   30.5480 C   0  0  0  0  0  0  0  0  0  0  0  0
   37.2730   30.0870   29.2400 Cl  0  0  0  0  0  0  0  0  0  0  0  0
   36.6740   29.0580   31.7190 C   0  0  0  0  0  0  0  0  0  0  0  0
   39.2120   26.1650   31.2800 H   0  0  0  0  0  0  0  0  0  0  0  0
   38.9170   27.7990   29.5320 H   0  0  0  0  0  0  0  0  0  0  0  0
   35.7020   30.1720   31.8800 C   0  0  0  0  0  0  0  0  0  0  0  0
   35.4520   30.7780   30.6450 F   0  0  0  0  0  0  0  0  0  0  0  0
   36.1180   31.1010   32.7950 F   0  0  0  0  0  0  0  0  0  0  0  0
   34.4950   29.6770   32.3010 F   0  0  0  0  0  0  0  0  0  0  0  0
   38.4210   23.2500   36.7230 C   0  0  0  0  0  0  0  0  0  0  0  0
   38.5550   23.9400   37.9270 F   0  0  0  0  0  0  0  0  0  0  0  0
   37.2670   22.4900   36.7910 F   0  0  0  0  0  0  0  0  0  0  0  0
   39.4870   22.4010   36.5630 F   0  0  0  0  0  0  0  0  0  0  0  0
   38.6260   22.4730   33.9190 C   0  0  0  0  0  0  0  0  0  0  0  0
   38.8660   21.8270   34.7870 H   0  0  0  0  0  0  0  0  0  0  0  0
   39.5430   22.4740   33.2580 H   0  0  0  0  0  0  0  0  0  0  0  0
   38.6600   22.4240   30.8970 Cl  0  0  0  0  0  0  0  0  0  0  0  0
   37.3670   21.7260   31.8690 C   0  0  0  0  0  0  0  0  0  0  0  0
   37.4880   21.8090   33.2410 C   0  0  0  0  0  0  0  0  0  0  0  0
   36.4470   21.2290   33.9410 C   0  0  0  0  0  0  0  0  0  0  0  0
   36.5160   21.2780   35.0330 H   0  0  0  0  0  0  0  0  0  0  0  0
   35.3410   20.5980   33.3900 C   0  0  0  0  0  0  0  0  0  0  0  0
   34.5920   20.1820   34.0640 H   0  0  0  0  0  0  0  0  0  0  0  0
   35.2680   20.5420   32.0120 C   0  0  0  0  0  3  0  0  0  0  0  0
   36.2800   21.1050   31.2600 C   0  0  0  0  0  3  0  0  0  0  0  0
  1  7  1  0  0  0  0
  2  1  1  0  0  0  0
  2 22  1  0  0  0  0
  3  2  2  0  0  0  0
  4  5  2  0  0  0  0
  4  3  1  0  0  0  0
  5  6  1  0  0  0  0
  6  1  2  0  0  0  0
  9  8  1  0  0  0  0
 10  9  1  0  0  0  0
 10  5  1  0  0  0  0
 11 10  2  0  0  0  0
 12 13  2  0  0  0  0
 12 11  1  0  0  0  0
 13 15  1  0  0  0  0
 14 13  1  0  0  0  0
 15 18  1  0  0  0  0
 15  9  2  0  0  0  0
 16 11  1  0  0  0  0
 17 12  1  0  0  0  0
 18 21  1  0  0  0  0
 18 20  1  0  0  0  0
 19 18  1  0  0  0  0
 22 24  1  0  0  0  0
 22 23  1  0  0  0  0
 25 22  1  0  0  0  0
 26  3  1  0  0  0  0
 26 27  1  0  0  0  0
 28 26  1  0  0  0  0
 29 30  1  0  0  0  0
 30 31  1  0  0  0  0
 31 26  1  0  0  0  0
 31 32  2  0  0  0  0
 32 33  1  0  0  0  0
 34 32  1  0  0  0  0
 34 35  1  0  0  0  0
 36 34  2  0  0  0  0
 37 30  2  0  0  0  0
 37 36  1  0  0  0  0
M  END
>  <minimizedAffinity>
-6.3317585

$$$$

 OpenBabel03272500233D

 37 39  0  0  0  0  0  0  0  0999 V2000
   32.6590   29.7840   34.5520 C   0  0  0  0  0  0  0  0  0  0  0  0
   33.1170   30.6340   35.6150 C   0  0  0  0  0  0  0  0  0  0  0  0
   34.4630   31.0030   35.6450 C   0  0  0  0  0  0  0  0  0  0  0  0
   35.2700   30.5330   34.6540 N   0  0  0  0  0  0  0  0  0  0  0  0
   34.8360   29.7470   33.6760 C   0  0  0  0  0  0  0  0  0  0  0  0
   33.5440   29.3680   33.6120 N   0  0  0  0  0  0  0  0  0  0  0  0
   31.6170   29.4890   34.5160 H   0  0  0  0  0  0  0  0  0  0  0  0
   36.7350   27.5690   34.5380 Cl  0  0  0  0  0  0  0  0  0  0  0  0
   36.7070   28.2700   32.9370 C   0  0  0  0  0  0  0  0  0  0  0  0
   35.7810   29.2810   32.6520 C   0  0  0  0  0  0  0  0  0  0  0  0
   35.7130   29.8840   31.3860 C   0  0  0  0  0  0  0  0  0  0  0  0
   36.6270   29.4140   30.4290 C   0  0  0  0  0  0  0  0  0  0  0  0
   37.5340   28.4330   30.6890 C   0  0  0  0  0  0  0  0  0  0  0  0
   38.6160   27.9360   29.4190 Cl  0  0  0  0  0  0  0  0  0  0  0  0
   37.5690   27.8590   31.9610 C   0  0  0  0  0  0  0  0  0  0  0  0
   35.0170   30.6560   31.1390 H   0  0  0  0  0  0  0  0  0  0  0  0
   36.5640   29.8880   29.4560 H   0  0  0  0  0  0  0  0  0  0  0  0
   38.5510   26.7860   32.2690 C   0  0  0  0  0  0  0  0  0  0  0  0
   39.4640   26.6500   31.2190 F   0  0  0  0  0  0  0  0  0  0  0  0
   37.9480   25.5860   32.5380 F   0  0  0  0  0  0  0  0  0  0  0  0
   39.2950   27.1380   33.3650 F   0  0  0  0  0  0  0  0  0  0  0  0
   32.1100   31.0670   36.6250 C   0  0  0  0  0  0  0  0  0  0  0  0
   31.7740   32.4050   36.4270 F   0  0  0  0  0  0  0  0  0  0  0  0
   30.9720   30.3050   36.4240 F   0  0  0  0  0  0  0  0  0  0  0  0
   32.5240   30.8870   37.9210 F   0  0  0  0  0  0  0  0  0  0  0  0
   34.9180   31.8500   36.7330 C   0  0  0  0  0  0  0  0  0  0  0  0
   35.6930   31.3950   37.3830 H   0  0  0  0  0  0  0  0  0  0  0  0
   34.0190   32.0380   37.3920 H   0  0  0  0  0  0  0  0  0  0  0  0
   33.7410   34.4010   37.8480 Cl  0  0  0  0  0  0  0  0  0  0  0  0
   35.0560   34.3640   36.6750 C   0  0  0  0  0  0  0  0  0  0  0  0
   35.5040   33.1270   36.2610 C   0  0  0  0  0  0  0  0  0  0  0  0
   36.5450   33.1720   35.3540 C   0  0  0  0  0  0  0  0  0  0  0  0
   36.9240   32.2040   35.0080 H   0  0  0  0  0  0  0  0  0  0  0  0
   37.1450   34.3180   34.8530 C   0  0  0  0  0  0  0  0  0  0  0  0
   37.9620   34.2060   34.1400 H   0  0  0  0  0  0  0  0  0  0  0  0
   36.6600   35.5320   35.2990 C   0  0  0  0  0  3  0  0  0  0  0  0
   35.6190   35.5490   36.2070 C   0  0  0  0  0  3  0  0  0  0  0  0
  1  2  1  0  0  0  0
  2  3  2  0  0  0  0
  2 22  1  0  0  0  0
  3 26  1  0  0  0  0
  4  3  1  0  0  0  0
  5  4  2  0  0  0  0
  6  5  1  0  0  0  0
  6  1  2  0  0  0  0
  7  1  1  0  0  0  0
  9  8  1  0  0  0  0
 10  9  1  0  0  0  0
 10  5  1  0  0  0  0
 11 10  2  0  0  0  0
 12 13  2  0  0  0  0
 12 11  1  0  0  0  0
 13 15  1  0  0  0  0
 14 13  1  0  0  0  0
 15 18  1  0  0  0  0
 15  9  2  0  0  0  0
 16 11  1  0  0  0  0
 17 12  1  0  0  0  0
 18 20  1  0  0  0  0
 18 21  1  0  0  0  0
 19 18  1  0  0  0  0
 22 25  1  0  0  0  0
 23 22  1  0  0  0  0
 24 22  1  0  0  0  0
 26 27  1  0  0  0  0
 26 28  1  0  0  0  0
 30 29  1  0  0  0  0
 31 30  1  0  0  0  0
 31 26  1  0  0  0  0
 32 31  2  0  0  0  0
 33 32  1  0  0  0  0
 34 36  2  0  0  0  0
 34 32  1  0  0  0  0
 35 34  1  0  0  0  0
 36 37  1  0  0  0  0
 37 30  2  0  0  0  0
M  END
>  <minimizedAffinity>
-6.31090784

$$$$

 OpenBabel03272500233D

 37 39  0  0  0  0  0  0  0  0999 V2000
   37.9420   26.0680   36.4690 C   0  0  0  0  0  0  0  0  0  0  0  0
   38.2490   24.6650   36.4670 C   0  0  0  0  0  0  0  0  0  0  0  0
   38.4650   24.0280   35.2430 C   0  0  0  0  0  0  0  0  0  0  0  0
   38.3710   24.7820   34.1130 N   0  0  0  0  0  0  0  0  0  0  0  0
   38.0860   26.0780   34.1260 C   0  0  0  0  0  0  0  0  0  0  0  0
   37.8700   26.7290   35.2860 N   0  0  0  0  0  0  0  0  0  0  0  0
   37.7720   26.5760   37.4110 H   0  0  0  0  0  0  0  0  0  0  0  0
   40.6660   26.3530   32.5880 Cl  0  0  0  0  0  0  0  0  0  0  0  0
   39.1310   26.9950   32.0540 C   0  0  0  0  0  0  0  0  0  0  0  0
   37.9980   26.8100   32.8550 C   0  0  0  0  0  0  0  0  0  0  0  0
   36.7390   27.3050   32.4800 C   0  0  0  0  0  0  0  0  0  0  0  0
   36.6880   27.9960   31.2580 C   0  0  0  0  0  0  0  0  0  0  0  0
   37.7790   28.1870   30.4670 C   0  0  0  0  0  0  0  0  0  0  0  0
   37.5880   29.0610   28.9740 Cl  0  0  0  0  0  0  0  0  0  0  0  0
   39.0130   27.6770   30.8770 C   0  0  0  0  0  0  0  0  0  0  0  0
   35.8570   27.1770   33.0690 H   0  0  0  0  0  0  0  0  0  0  0  0
   35.7100   28.3730   30.9800 H   0  0  0  0  0  0  0  0  0  0  0  0
   40.2180   27.8730   30.0300 C   0  0  0  0  0  0  0  0  0  0  0  0
   41.2440   28.4610   30.7750 F   0  0  0  0  0  0  0  0  0  0  0  0
   39.9550   28.6130   28.9080 F   0  0  0  0  0  0  0  0  0  0  0  0
   40.7050   26.6570   29.6260 F   0  0  0  0  0  0  0  0  0  0  0  0
   38.3180   23.9790   37.7880 C   0  0  0  0  0  0  0  0  0  0  0  0
   39.5680   23.3860   37.9590 F   0  0  0  0  0  0  0  0  0  0  0  0
   38.1680   24.9500   38.7640 F   0  0  0  0  0  0  0  0  0  0  0  0
   37.3370   23.0360   37.9660 F   0  0  0  0  0  0  0  0  0  0  0  0
   38.7600   22.6060   35.2520 C   0  0  0  0  0  0  0  0  0  0  0  0
   38.8890   22.1640   36.2610 H   0  0  0  0  0  0  0  0  0  0  0  0
   39.7490   22.4800   34.7190 H   0  0  0  0  0  0  0  0  0  0  0  0
   39.1640   21.8910   32.3440 Cl  0  0  0  0  0  0  0  0  0  0  0  0
   37.7500   21.4100   33.2790 C   0  0  0  0  0  0  0  0  0  0  0  0
   37.7030   21.7960   34.6030 C   0  0  0  0  0  0  0  0  0  0  0  0
   36.5750   21.3730   35.2800 C   0  0  0  0  0  0  0  0  0  0  0  0
   36.5100   21.6630   36.3340 H   0  0  0  0  0  0  0  0  0  0  0  0
   35.5360   20.6230   34.7490 C   0  0  0  0  0  0  0  0  0  0  0  0
   34.7030   20.3570   35.4010 H   0  0  0  0  0  0  0  0  0  0  0  0
   35.6310   20.2620   33.4200 C   0  0  0  0  0  3  0  0  0  0  0  0
   36.7360   20.6570   32.6920 C   0  0  0  0  0  3  0  0  0  0  0  0
  1  7  1  0  0  0  0
  2  1  1  0  0  0  0
  2 22  1  0  0  0  0
  3 26  1  0  0  0  0
  3  2  2  0  0  0  0
  4  5  2  0  0  0  0
  4  3  1  0  0  0  0
  5  6  1  0  0  0  0
  6  1  2  0  0  0  0
  9  8  1  0  0  0  0
  9 10  1  0  0  0  0
 10  5  1  0  0  0  0
 11 10  2  0  0  0  0
 11 16  1  0  0  0  0
 12 11  1  0  0  0  0
 13 15  1  0  0  0  0
 13 12  2  0  0  0  0
 14 13  1  0  0  0  0
 15  9  2  0  0  0  0
 17 12  1  0  0  0  0
 18 19  1  0  0  0  0
 18 15  1  0  0  0  0
 20 18  1  0  0  0  0
 21 18  1  0  0  0  0
 22 23  1  0  0  0  0
 22 25  1  0  0  0  0
 22 24  1  0  0  0  0
 26 27  1  0  0  0  0
 28 26  1  0  0  0  0
 29 30  1  0  0  0  0
 30 31  1  0  0  0  0
 31 26  1  0  0  0  0
 31 32  2  0  0  0  0
 32 33  1  0  0  0  0
 34 32  1  0  0  0  0
 34 35  1  0  0  0  0
 36 34  2  0  0  0  0
 37 30  2  0  0  0  0
 37 36  1  0  0  0  0
M  END
>  <minimizedAffinity>
-6.29141474

$$$$

 OpenBabel03272500233D

 37 39  0  0  0  0  0  0  0  0999 V2000
   40.5380   25.1860   35.1430 C   0  0  0  0  0  0  0  0  0  0  0  0
   39.9530   23.8970   35.3840 C   0  0  0  0  0  0  0  0  0  0  0  0
   38.5910   23.7220   35.1310 C   0  0  0  0  0  0  0  0  0  0  0  0
   37.8910   24.7940   34.6670 N   0  0  0  0  0  0  0  0  0  0  0  0
   38.4420   25.9820   34.4490 C   0  0  0  0  0  0  0  0  0  0  0  0
   39.7540   26.1910   34.6800 N   0  0  0  0  0  0  0  0  0  0  0  0
   41.5940   25.3370   35.3350 H   0  0  0  0  0  0  0  0  0  0  0  0
   38.4740   26.4140   31.4640 Cl  0  0  0  0  0  0  0  0  0  0  0  0
   37.5400   27.3750   32.5850 C   0  0  0  0  0  0  0  0  0  0  0  0
   37.6070   27.0850   33.9530 C   0  0  0  0  0  0  0  0  0  0  0  0
   36.8820   27.8230   34.9020 C   0  0  0  0  0  0  0  0  0  0  0  0
   36.0910   28.8670   34.3960 C   0  0  0  0  0  0  0  0  0  0  0  0
   36.0130   29.1640   33.0700 C   0  0  0  0  0  0  0  0  0  0  0  0
   34.9970   30.4840   32.5660 Cl  0  0  0  0  0  0  0  0  0  0  0  0
   36.7500   28.4040   32.1590 C   0  0  0  0  0  0  0  0  0  0  0  0
   36.9120   27.6240   35.9510 H   0  0  0  0  0  0  0  0  0  0  0  0
   35.5350   29.4290   35.1390 H   0  0  0  0  0  0  0  0  0  0  0  0
   36.6820   28.7100   30.7060 C   0  0  0  0  0  0  0  0  0  0  0  0
   37.9280   29.1450   30.2430 F   0  0  0  0  0  0  0  0  0  0  0  0
   35.7130   29.6310   30.4100 F   0  0  0  0  0  0  0  0  0  0  0  0
   36.4050   27.5670   30.0030 F   0  0  0  0  0  0  0  0  0  0  0  0
   40.8520   22.8220   35.8920 C   0  0  0  0  0  0  0  0  0  0  0  0
   40.9770   21.8100   34.9420 F   0  0  0  0  0  0  0  0  0  0  0  0
   42.1010   23.3870   36.0820 F   0  0  0  0  0  0  0  0  0  0  0  0
   40.4390   22.2830   37.0840 F   0  0  0  0  0  0  0  0  0  0  0  0
   38.0060   22.4190   35.3930 C   0  0  0  0  0  0  0  0  0  0  0  0
   37.2470   22.4030   36.2000 H   0  0  0  0  0  0  0  0  0  0  0  0
   38.8510   21.7500   35.7350 H   0  0  0  0  0  0  0  0  0  0  0  0
   35.5270   20.7630   35.8900 Cl  0  0  0  0  0  0  0  0  0  0  0  0
   36.1960   21.0600   34.2870 C   0  0  0  0  0  0  0  0  0  0  0  0
   37.3270   21.8460   34.2070 C   0  0  0  0  0  0  0  0  0  0  0  0
   37.7880   22.0500   32.9200 C   0  0  0  0  0  0  0  0  0  0  0  0
   38.6850   22.6730   32.8240 H   0  0  0  0  0  0  0  0  0  0  0  0
   37.2230   21.5450   31.7580 C   0  0  0  0  0  0  0  0  0  0  0  0
   37.6930   21.7880   30.8050 H   0  0  0  0  0  0  0  0  0  0  0  0
   36.0920   20.7640   31.8940 C   0  0  0  0  0  3  0  0  0  0  0  0
   35.5850   20.5260   33.1560 C   0  0  0  0  0  3  0  0  0  0  0  0
  1  7  1  0  0  0  0
  1  2  1  0  0  0  0
  2 22  1  0  0  0  0
  3  2  2  0  0  0  0
  3 26  1  0  0  0  0
  4  3  1  0  0  0  0
  5  4  2  0  0  0  0
  5  6  1  0  0  0  0
  6  1  2  0  0  0  0
  8  9  1  0  0  0  0
  9 10  1  0  0  0  0
 10  5  1  0  0  0  0
 10 11  2  0  0  0  0
 11 16  1  0  0  0  0
 12 11  1  0  0  0  0
 12 17  1  0  0  0  0
 13 12  2  0  0  0  0
 14 13  1  0  0  0  0
 15  9  2  0  0  0  0
 15 13  1  0  0  0  0
 18 15  1  0  0  0  0
 19 18  1  0  0  0  0
 20 18  1  0  0  0  0
 21 18  1  0  0  0  0
 22 24  1  0  0  0  0
 22 25  1  0  0  0  0
 23 22  1  0  0  0  0
 26 28  1  0  0  0  0
 26 27  1  0  0  0  0
 30 29  1  0  0  0  0
 31 30  1  0  0  0  0
 31 26  1  0  0  0  0
 32 31  2  0  0  0  0
 33 32  1  0  0  0  0
 34 36  2  0  0  0  0
 34 32  1  0  0  0  0
 35 34  1  0  0  0  0
 36 37  1  0  0  0  0
 37 30  2  0  0  0  0
M  END
>  <minimizedAffinity>
-6.27800369

$$$$
