
 OpenBabel03272508083D

 24 25  0  0  0  0  0  0  0  0999 V2000
   38.7950   32.2660   47.2240 O   0  0  0  0  0  0  0  0  0  0  0  0
   38.1750   31.1780   46.4240 P   0  0  2  0  0  0  0  0  0  0  0  0
   37.0130   31.8440   45.3600 O   0  0  0  0  0  0  0  0  0  0  0  0
   36.4420   31.1020   45.0320 H   0  0  0  0  0  0  0  0  0  0  0  0
   37.4470   29.9560   47.3520 O   0  0  0  0  0  0  0  0  0  0  0  0
   37.4570   30.3410   51.0340 C   0  0  0  0  0  0  0  0  0  0  0  0
   37.9370   30.4960   49.7190 C   0  0  0  0  0  0  0  0  0  0  0  0
   37.1970   29.9420   48.6770 C   0  0  0  0  0  0  0  0  0  0  0  0
   36.0400   29.2750   48.9920 N   0  0  0  0  0  0  0  0  0  0  0  0
   35.6160   29.1500   50.2630 C   0  0  0  0  0  0  0  0  0  0  0  0
   36.3250   29.6830   51.2740 N   0  0  0  0  0  0  0  0  0  0  0  0
   38.1090   30.8110   51.7680 H   0  0  0  0  0  0  0  0  0  0  0  0
   38.8290   31.0010   49.3990 H   0  0  0  0  0  0  0  0  0  0  0  0
   34.6930   28.6170   50.4980 H   0  0  0  0  0  0  0  0  0  0  0  0
   39.3350   30.4860   45.4270 O   0  0  0  0  0  0  0  0  0  0  0  0
   38.6650   27.9930   44.0840 Cl  0  0  0  0  0  0  0  0  0  0  0  0
   39.2360   29.5040   43.3570 C   0  0  0  0  0  0  0  0  0  0  0  0
   39.5350   30.6590   44.0850 C   0  0  0  0  0  0  0  0  0  0  0  0
   39.9730   31.7660   43.3790 C   0  0  0  0  0  0  0  0  0  0  0  0
   40.1800   32.6130   44.0190 H   0  0  0  0  0  0  0  0  0  0  0  0
   40.1040   31.7190   42.0050 C   0  0  0  0  0  0  0  0  0  0  0  0
   40.4590   32.6540   41.5440 H   0  0  0  0  0  0  0  0  0  0  0  0
   39.8150   30.5980   41.2830 C   0  0  0  0  0  3  0  0  0  0  0  0
   39.3820   29.4970   41.9680 C   0  0  0  0  0  3  0  0  0  0  0  0
  2  1  2  1  0  0  0
  2  5  1  0  0  0  0
  3  2  1  0  0  0  0
  4  3  1  0  0  0  0
  5  8  1  0  0  0  0
  6 11  1  0  0  0  0
  6 12  1  0  0  0  0
  7  6  2  0  0  0  0
  8  9  2  0  0  0  0
  8  7  1  0  0  0  0
  9 10  1  0  0  0  0
 10 14  1  0  0  0  0
 10 11  2  0  0  0  0
 13  7  1  0  0  0  0
 15  2  1  0  0  0  0
 17 16  1  0  0  0  0
 17 18  1  0  0  0  0
 18 15  1  0  0  0  0
 19 20  1  0  0  0  0
 19 18  2  0  0  0  0
 21 19  1  0  0  0  0
 22 21  1  0  0  0  0
 23 24  1  0  0  0  0
 23 21  2  0  0  0  0
 24 17  2  0  0  0  0
M  END
>  <minimizedAffinity>
-4.19216108

>  <minimizedRMSD>
3.49454308

$$$$
