REMARK  Name = 
REMARK  5 active torsions:
REMARK  status: ('A' for Active; 'I' for Inactive)
REMARK    1  A    between atoms: C_5  and  O_7
REMARK    2  A    between atoms: O_7  and  P_9
REMARK    3  A    between atoms: P_9  and  O_10
REMARK    4  A    between atoms: P_9  and  O_11
REMARK    5  A    between atoms: O_11  and  C_18
REMARK                            x       y       z     vdW  Elec       q    Type
REMARK                         _______ _______ _______ _____ _____    ______ ____
ROOT
ATOM      1  O   UNL     1      32.520  28.068  49.050  0.00  0.00    +0.000 OA
ATOM      2  P   UNL     1      33.855  28.505  48.440  0.00  0.00    +0.000 P 
ENDROOT
BRANCH   2   3
ATOM      3  O   UNL     1      34.067  27.587  47.054  0.00  0.00    +0.000 OA
ATOM      4  H   UNL     1      33.844  28.144  46.269  0.00  0.00    +0.000 HD
ENDBRANCH   2   3
BRANCH   2   5
ATOM      5  O   UNL     1      35.059  28.186  49.607  0.00  0.00    +0.000 OA
BRANCH   5  10
ATOM      6  C   UNL     1      37.441  30.313  51.373  0.00  0.00    +0.000 A 
ATOM      7  C   UNL     1      38.136  30.885  50.266  0.00  0.00    +0.000 A 
ATOM      8  C   UNL     1      37.727  30.491  48.985  0.00  0.00    +0.000 A 
ATOM      9  N   UNL     1      36.709  29.602  48.879  0.00  0.00    +0.000 NA
ATOM     10  C   UNL     1      36.067  29.075  49.946  0.00  0.00    +0.000 A 
ATOM     11  N   UNL     1      36.433  29.430  51.197  0.00  0.00    +0.000 NA
ATOM     12  H   UNL     1      37.743  30.606  52.372  0.00  0.00    +0.000 HD
ATOM     13  H   UNL     1      38.938  31.588  50.450  0.00  0.00    +0.000 HD
ATOM     14  H   UNL     1      38.230  30.903  48.130  0.00  0.00    +0.000 HD
ENDBRANCH   5  10
ENDBRANCH   2   5
BRANCH   2  15
ATOM     15  O   UNL     1      33.730  30.118  48.044  0.00  0.00    +0.000 OA
BRANCH  15  18
ATOM     16 CL   UNL     1      32.702  32.556  49.244  0.00  0.00    +0.000 Cl
ATOM     17  C   UNL     1      32.115  31.755  47.798  0.00  0.00    +0.000 A 
ATOM     18  C   UNL     1      32.667  30.581  47.284  0.00  0.00    +0.000 A 
ATOM     19  C   UNL     1      32.170  29.990  46.143  0.00  0.00    +0.000 A 
ATOM     20  H   UNL     1      32.645  29.084  45.804  0.00  0.00    +0.000 HD
ATOM     21  C   UNL     1      31.093  30.598  45.508  0.00  0.00    +0.000 A 
ATOM     22  H   UNL     1      30.695  30.128  44.599  0.00  0.00    +0.000 HD
ATOM     23  C   UNL     1      30.551  31.762  46.023  0.00  0.00    +0.000 A 
ATOM     24  C   UNL     1      31.040  32.367  47.169  0.00  0.00    +0.000 A 
ENDBRANCH  15  18
ENDBRANCH   2  15
TORSDOF 5
