
     RDKit          3D

 43 46  0  0  0  0  0  0  0  0999 V2000
   38.4998   31.1391   45.9719 C   0  0  0  0  0  0  0  0  0  0  0  0
   39.8195   31.1953   46.3077 C   0  0  0  0  0  0  0  0  0  0  0  0
   40.4705   31.5194   45.1208 C   0  0  0  0  0  0  0  0  0  0  0  0
   39.5666   31.6464   44.1357 N   0  0  0  0  0  0  0  0  0  0  0  0
   38.3582   31.4142   44.6529 N   0  0  0  0  0  0  0  0  0  0  0  0
   36.4424   30.6268   49.0604 C   0  0  0  0  0  0  0  0  0  0  0  0
   37.5170   30.9283   48.2482 C   0  0  0  0  0  0  0  0  0  0  0  0
   37.4004   30.8336   46.8726 C   0  0  0  0  0  0  0  0  0  0  0  0
   36.2111   30.4405   46.3725 N   0  0  0  0  0  0  0  0  0  0  0  0
   35.1640   30.1480   47.1945 C   0  0  0  0  0  0  0  0  0  0  0  0
   35.2619   30.2343   48.5077 N   0  0  0  0  0  0  0  0  0  0  0  0
   36.7330   30.7753   50.4192 O   0  0  0  0  0  0  0  0  0  0  0  0
   36.7857   29.6902   51.3136 C   0  0  0  0  0  0  0  0  0  0  0  0
   35.5292   29.1951   51.6244 F   0  0  0  0  0  0  0  0  0  0  0  0
   37.4552   30.1018   52.4424 F   0  0  0  0  0  0  0  0  0  0  0  0
   37.5366   28.6898   50.7255 F   0  0  0  0  0  0  0  0  0  0  0  0
   39.9203   30.7069   41.8976 C   0  0  2  0  0  0  0  0  0  0  0  0
   39.9271   31.9799   42.7759 C   0  0  1  0  0  0  0  0  0  0  0  0
   38.8625   32.7538   42.0726 C   0  0  0  0  0  0  0  0  0  0  0  0
   38.9726   32.4882   40.7297 O   0  0  0  0  0  0  0  0  0  0  0  0
   39.8030   31.4287   40.5350 C   0  0  0  0  0  0  0  0  0  0  0  0
   38.7584   30.0615   42.1622 O   0  0  0  0  0  0  0  0  0  0  0  0
   40.2209   31.0206   47.2851 H   0  0  0  0  0  0  0  0  0  0  0  0
   41.5497   31.6378   45.0651 H   0  0  0  0  0  0  0  0  0  0  0  0
   38.4914   31.2480   48.6006 H   0  0  0  0  0  0  0  0  0  0  0  0
   34.2104   29.8324   46.7836 H   0  0  0  0  0  0  0  0  0  0  0  0
   40.8729   30.1857   41.9746 H   0  0  0  0  0  0  0  0  0  0  0  0
   40.8741   32.5102   42.7344 H   0  0  0  0  0  0  0  0  0  0  0  0
   37.8822   32.3150   42.4039 H   0  0  0  0  0  0  0  0  0  0  0  0
   38.9224   33.8472   42.2720 H   0  0  0  0  0  0  0  0  0  0  0  0
   39.3707   30.6641   39.8627 H   0  0  0  0  0  0  0  0  0  0  0  0
   40.8174   31.7028   40.1750 H   0  0  0  0  0  0  0  0  0  0  0  0
   40.4753   27.5357   41.4462 Cl  0  0  0  0  0  0  0  0  0  0  0  0
   39.0194   27.5486   42.3923 C   0  0  0  0  0  0  0  0  0  0  0  0
   38.4707   28.7909   42.5518 C   0  0  0  0  0  0  0  0  0  0  0  0
   37.2919   28.8375   43.3122 C   0  0  0  0  0  0  0  0  0  0  0  0
   36.6665   29.6983   43.5825 H   0  0  0  0  0  0  0  0  0  0  0  0
   36.7206   27.6848   43.8679 C   0  0  0  0  0  0  0  0  0  0  0  0
   35.8277   27.6359   44.4573 H   0  0  0  0  0  0  0  0  0  0  0  0
   37.3266   26.4640   43.6676 C   0  0  0  0  0  0  0  0  0  0  0  0
   38.4806   26.4011   42.9258 C   0  0  0  0  0  0  0  0  0  0  0  0
   36.9899   25.5083   44.0391 H   0  0  0  0  0  0  0  0  0  0  0  0
   39.0294   25.4984   42.7121 H   0  0  0  0  0  0  0  0  0  0  0  0
  1  2  1  0
  1  8  1  0
  3  2  2  0
  4  5  1  0
  4  3  1  0
  5  1  2  0
  6 12  1  0
  7  6  2  0
  8  7  1  0
  9  8  2  0
  9 10  1  0
 10 11  2  0
 11  6  1  0
 12 13  1  0
 13 14  1  0
 13 15  1  0
 16 13  1  0
 17 22  1  0
 17 18  1  0
 18  4  1  0
 19 18  1  0
 20 19  1  0
 21 20  1  0
 21 17  1  0
  2 23  1  0
  3 24  1  0
  7 25  1  0
 10 26  1  0
 17 27  1  6
 18 28  1  1
 19 29  1  0
 19 30  1  0
 21 31  1  0
 21 32  1  0
 33 34  1  0
 34 35  2  0
 35 36  1  0
 36 37  1  0
 36 38  2  0
 38 39  1  0
 38 40  1  0
 40 41  2  0
 41 34  1  0
 40 42  1  0
 41 43  1  0
 22 35  1  0
M  ISO  8  23  14  24  14  25  14  26  14  27  13  28  13  29  13  30  13
M  ISO  4  31  13  32  13  37  15  39  16
M  END
>  <DihAtoms>  (1) 
16,21,34,33

>  <DihDeg>  (1) 
0.0900773311497603

$$$$
