
 OpenBabel03272502263D

 40 43  0  0  0  0  0  0  0  0999 V2000
   37.6200   30.2650   50.9510 C   0  0  0  0  0  0  0  0  0  0  0  0
   38.1200   30.7960   49.7570 C   0  0  0  0  0  0  0  0  0  0  0  0
   37.3750   30.6120   48.6120 C   0  0  0  0  0  0  0  0  0  0  0  0
   36.2210   29.9380   48.7150 N   0  0  0  0  0  0  0  0  0  0  0  0
   35.7440   29.4300   49.8660 C   0  0  0  0  0  0  0  0  0  0  0  0
   36.4500   29.5970   50.9820 N   0  0  0  0  0  0  0  0  0  0  0  0
   38.1730   30.3850   51.8770 H   0  0  0  0  0  0  0  0  0  0  0  0
   39.0570   31.3330   49.7170 H   0  0  0  0  0  0  0  0  0  0  0  0
   37.7820   31.1200   47.3160 C   0  0  0  0  0  0  0  0  0  0  0  0
   37.0760   30.7740   46.1650 C   0  0  0  0  0  0  0  0  0  0  0  0
   37.4150   31.2300   44.9110 C   0  0  0  0  0  0  0  0  0  0  0  0
   38.4860   32.0560   44.7880 N   0  0  0  0  0  0  0  0  0  0  0  0
   39.1540   32.3780   45.9070 C   0  0  0  0  0  0  0  0  0  0  0  0
   38.8390   31.9440   47.1430 N   0  0  0  0  0  0  0  0  0  0  0  0
   36.2280   30.1140   46.3010 H   0  0  0  0  0  0  0  0  0  0  0  0
   36.8280   30.9260   44.0550 H   0  0  0  0  0  0  0  0  0  0  0  0
   40.3250   33.2780   45.7910 C   0  0  0  0  0  0  0  0  0  0  0  0
   40.4040   34.0100   46.9980 F   0  0  0  0  0  0  0  0  0  0  0  0
   41.4730   32.5920   45.5380 F   0  0  0  0  0  0  0  0  0  0  0  0
   40.1310   34.2530   44.8260 F   0  0  0  0  0  0  0  0  0  0  0  0
   34.5300   28.7580   49.7920 O   0  0  0  0  0  0  0  0  0  0  0  0
   33.6240   26.5820   46.9840 N   0  0  0  0  0  0  0  0  0  0  0  0
   34.0930   26.9010   48.2010 C   0  0  0  0  0  0  0  0  0  0  0  0
   34.1030   28.2130   48.6100 C   0  0  0  0  0  0  0  0  0  0  0  0
   33.6160   29.1900   47.7290 C   0  0  0  0  0  0  0  0  0  0  0  0
   33.5280   30.4420   47.8860 O   0  0  0  0  0  0  0  0  0  0  0  0
   33.1550   28.7980   46.5080 N   0  0  0  0  0  0  0  0  0  0  0  0
   33.1600   27.5070   46.1430 C   0  0  0  0  0  0  0  0  0  0  0  0
   32.7390   27.1090   45.0160 O   0  0  0  0  0  0  0  0  0  0  0  0
   33.6670   25.5550   46.7850 H   0  0  0  0  0  0  0  0  0  0  0  0
   34.4830   26.2090   48.9340 H   0  0  0  0  0  0  0  0  0  0  0  0
   30.1840   29.4310   46.4230 Cl  0  0  0  0  0  0  0  0  0  0  0  0
   31.3480   30.1140   45.3260 C   0  0  0  0  0  0  0  0  0  0  0  0
   32.6390   29.6970   45.5340 C   0  0  0  0  0  0  0  0  0  0  0  0
   33.6520   30.1880   44.7030 C   0  0  0  0  0  0  0  0  0  0  0  0
   34.6980   29.9380   44.7660 H   0  0  0  0  0  0  0  0  0  0  0  0
   33.3850   31.0830   43.6770 C   0  0  0  0  0  0  0  0  0  0  0  0
   34.1290   31.4860   43.0180 H   0  0  0  0  0  0  0  0  0  0  0  0
   32.0720   31.4970   43.4780 C   0  0  0  0  0  0  0  0  0  0  0  0
   31.0810   31.0030   44.3060 C   0  0  0  0  0  0  0  0  0  0  0  0
  1  6  1  0  0  0  0
  1  7  1  0  0  0  0
  2  1  2  0  0  0  0
  3  4  2  0  0  0  0
  3  2  1  0  0  0  0
  4  5  1  0  0  0  0
  5  6  2  0  0  0  0
  8  2  1  0  0  0  0
  9  3  1  0  0  0  0
 10 15  1  0  0  0  0
 10  9  2  0  0  0  0
 11 10  1  0  0  0  0
 12 11  2  0  0  0  0
 12 13  1  0  0  0  0
 13 14  2  0  0  0  0
 14  9  1  0  0  0  0
 16 11  1  0  0  0  0
 17 13  1  0  0  0  0
 17 18  1  0  0  0  0
 19 17  1  0  0  0  0
 20 17  1  0  0  0  0
 21  5  1  0  0  0  0
 22 23  1  0  0  0  0
 23 24  2  0  0  0  0
 23 31  1  0  0  0  0
 24 21  1  0  0  0  0
 25 26  2  0  0  0  0
 25 24  1  0  0  0  0
 27 25  1  0  0  0  0
 28 27  1  0  0  0  0
 28 22  1  0  0  0  0
 29 28  2  0  0  0  0
 30 22  1  0  0  0  0
 33 34  1  0  0  0  0
 33 32  1  0  0  0  0
 34 27  1  0  0  0  0
 35 36  1  0  0  0  0
 35 34  2  0  0  0  0
 37 35  1  0  0  0  0
 38 37  1  0  0  0  0
 39 37  2  0  0  0  0
 39 40  1  0  0  0  0
 40 33  2  0  0  0  0
M  END
>  <minimizedAffinity>
-6.67686319

>  <minimizedRMSD>
1.54638267

$$$$
