REMARK  Name = 
REMARK  3 active torsions:
REMARK  status: ('A' for Active; 'I' for Inactive)
REMARK    1  A    between atoms: C_2  and  C_12
REMARK    2  A    between atoms: C_6  and  O_16
REMARK    3  A    between atoms: O_16  and  C_26
REMARK                            x       y       z     vdW  Elec       q    Type
REMARK                         _______ _______ _______ _____ _____    ______ ____
ROOT
ATOM      1  C   UNL     1      36.860  30.550  46.911  0.00  0.00    +0.000 A 
ATOM      2  C   UNL     1      37.523  31.038  48.026  0.00  0.00    +0.000 A 
ATOM      3  C   UNL     1      38.515  31.996  47.902  0.00  0.00    +0.000 A 
ATOM      4  C   UNL     1      38.792  32.427  46.598  0.00  0.00    +0.000 A 
ATOM      5  N   UNL     1      39.729  33.363  46.236  0.00  0.00    +0.000 N 
ATOM      6  C   UNL     1      39.641  33.450  44.903  0.00  0.00    +0.000 A 
ATOM      7  N   UNL     1      38.716  32.631  44.426  0.00  0.00    +0.000 NA
ATOM      8  C   UNL     1      38.156  31.967  45.466  0.00  0.00    +0.000 A 
ATOM      9  C   UNL     1      37.171  31.008  45.640  0.00  0.00    +0.000 A 
ATOM     10  H   UNL     1      36.088  29.802  47.021  0.00  0.00    +0.000 HD
ATOM     11  H   UNL     1      39.035  32.382  48.754  0.00  0.00    +0.000 HD
ATOM     12  H   UNL     1      40.380  33.901  46.871  0.00  0.00    +0.000 HD
ATOM     13  H   UNL     1      36.665  30.640  44.757  0.00  0.00    +0.000 HD
ENDROOT
BRANCH   2  16
ATOM     14  C   UNL     1      37.376  30.070  51.656  0.00  0.00    +0.000 A 
ATOM     15  C   UNL     1      37.873  30.634  50.485  0.00  0.00    +0.000 A 
ATOM     16  C   UNL     1      37.137  30.506  49.321  0.00  0.00    +0.000 A 
ATOM     17  N   UNL     1      35.966  29.828  49.414  0.00  0.00    +0.000 NA
ATOM     18  C   UNL     1      35.492  29.284  50.556  0.00  0.00    +0.000 A 
ATOM     19  N   UNL     1      36.204  29.412  51.661  0.00  0.00    +0.000 NA
ATOM     20  H   UNL     1      38.042  30.235  52.506  0.00  0.00    +0.000 HD
ATOM     21  H   UNL     1      38.809  31.177  50.406  0.00  0.00    +0.000 HD
ATOM     22  H   UNL     1      34.550  28.753  50.567  0.00  0.00    +0.000 HD
ENDBRANCH   2  16
BRANCH   6  23
ATOM     23  O   UNL     1      40.445  34.309  44.157  0.00  0.00    +0.000 OA
BRANCH  23  26
ATOM     24 CL   UNL     1      41.023  36.901  42.718  0.00  0.00    +0.000 Cl
ATOM     25  C   UNL     1      40.492  35.412  41.961  0.00  0.00    +0.000 A 
ATOM     26  C   UNL     1      40.276  34.325  42.776  0.00  0.00    +0.000 A 
ATOM     27  C   UNL     1      39.858  33.117  42.260  0.00  0.00    +0.000 A 
ATOM     28  H   UNL     1      39.664  32.206  42.842  0.00  0.00    +0.000 HD
ATOM     29  C   UNL     1      39.642  32.962  40.904  0.00  0.00    +0.000 A 
ATOM     30  H   UNL     1      39.316  32.049  40.442  0.00  0.00    +0.000 HD
ATOM     31  C   UNL     1      39.858  34.052  40.081  0.00  0.00    +0.000 A 
ATOM     32  C   UNL     1      40.274  35.248  40.608  0.00  0.00    +0.000 A 
ENDBRANCH  23  26
ENDBRANCH   6  23
TORSDOF 3
