
     RDKit          3D

 26 27  0  0  0  0  0  0  0  0999 V2000
   37.4411   30.3132   51.3734 C   0  0  0  0  0  0  0  0  0  0  0  0
   38.1363   30.8854   50.2664 C   0  0  0  0  0  0  0  0  0  0  0  0
   37.7272   30.4910   48.9853 C   0  0  0  0  0  0  0  0  0  0  0  0
   36.7094   29.6017   48.8788 N   0  0  0  0  0  0  0  0  0  0  0  0
   36.0673   29.0745   49.9460 C   0  0  0  0  0  0  0  0  0  0  0  0
   36.4332   29.4303   51.1969 N   0  0  0  0  0  0  0  0  0  0  0  0
   35.0588   28.1862   49.6074 O   0  0  0  0  0  0  0  0  0  0  0  0
   32.5195   28.0677   49.0496 O   0  0  0  0  0  0  0  0  0  0  0  0
   33.8551   28.5054   48.4399 P   0  0  2  0  0  0  0  0  0  0  0  0
   34.0673   27.5875   47.0544 O   0  0  0  0  0  0  0  0  0  0  0  0
   33.7299   30.1180   48.0438 O   0  0  0  0  0  0  0  0  0  0  0  0
   37.7430   30.6058   52.3723 H   0  0  0  0  0  0  0  0  0  0  0  0
   38.9375   31.5885   50.4498 H   0  0  0  0  0  0  0  0  0  0  0  0
   38.2295   30.9029   48.1300 H   0  0  0  0  0  0  0  0  0  0  0  0
   33.8439   28.1439   46.2687 H   0  0  0  0  0  0  0  0  0  0  0  0
   32.7021   32.5561   49.2441 Cl  0  0  0  0  0  0  0  0  0  0  0  0
   32.1154   31.7553   47.7977 C   0  0  0  0  0  0  0  0  0  0  0  0
   32.6670   30.5811   47.2840 C   0  0  0  0  0  0  0  0  0  0  0  0
   32.1702   29.9898   46.1434 C   0  0  0  0  0  0  0  0  0  0  0  0
   32.6450   29.0842   45.8037 H   0  0  0  0  0  0  0  0  0  0  0  0
   31.0926   30.5982   45.5083 C   0  0  0  0  0  0  0  0  0  0  0  0
   30.6954   30.1280   44.5988 H   0  0  0  0  0  0  0  0  0  0  0  0
   30.5506   31.7625   46.0231 C   0  0  0  0  0  0  0  0  0  0  0  0
   31.0403   32.3673   47.1686 C   0  0  0  0  0  0  0  0  0  0  0  0
   29.7180   32.1604   45.4622 H   0  0  0  0  0  0  0  0  0  0  0  0
   30.5928   33.2775   47.5441 H   0  0  0  0  0  0  0  0  0  0  0  0
  2  1  2  0
  3  2  1  0
  4  3  2  0
  4  5  1  0
  5  6  2  0
  6  1  1  0
  7  5  1  0
  9  8  2  0
  9  7  1  1
 10  9  1  0
 11  9  1  0
  1 12  1  0
  2 13  1  0
  3 14  1  0
 10 15  1  0
 16 17  1  0
 17 18  2  0
 18 19  1  0
 19 20  1  0
 19 21  2  0
 21 22  1  0
 21 23  1  0
 23 24  2  0
 24 17  1  0
 23 25  1  0
 24 26  1  0
 11 18  1  0
M  ISO  6  12  14  13  14  14  14  15   3  20  15  22  16
M  END
>  <DihAtoms>  (1) 
8,10,17,16

>  <DihDeg>  (1) 
-179.99763670794133

$$$$
