
 OpenBabel03272503413D

 41 44  0  0  1  0  0  0  0  0999 V2000
   39.9340   31.1680   41.7420 C   0  0  2  0  0  0  0  0  0  0  0  0
   39.5890   32.3340   42.6970 C   0  0  1  0  0  0  0  0  0  0  0  0
   38.3650   32.8430   42.0100 C   0  0  0  0  0  0  0  0  0  0  0  0
   38.5620   32.7090   40.6570 O   0  0  0  0  0  0  0  0  0  0  0  0
   39.6470   31.9240   40.4230 C   0  0  0  0  0  0  0  0  0  0  0  0
   40.9900   30.9150   41.8160 H   0  0  0  0  0  0  0  0  0  0  0  0
   40.3600   33.0980   42.7180 H   0  0  0  0  0  0  0  0  0  0  0  0
   37.5340   32.1380   42.2820 H   0  0  0  0  0  0  0  0  0  0  0  0
   38.1280   33.8970   42.2780 H   0  0  0  0  0  0  0  0  0  0  0  0
   39.4450   31.1190   39.6920 H   0  0  0  0  0  0  0  0  0  0  0  0
   40.5560   32.4810   40.1130 H   0  0  0  0  0  0  0  0  0  0  0  0
   38.3580   31.1490   45.8660 C   0  0  0  0  0  0  0  0  0  0  0  0
   39.6980   30.9940   46.0580 C   0  0  0  0  0  0  0  0  0  0  0  0
   40.2770   31.4310   44.8690 C   0  0  0  0  0  0  0  0  0  0  0  0
   39.3120   31.8240   44.0210 N   0  0  0  0  0  0  0  0  0  0  0  0
   38.1350   31.6530   44.6280 N   0  0  0  0  0  0  0  0  0  0  0  0
   40.1600   30.6150   46.9460 H   0  0  0  0  0  0  0  0  0  0  0  0
   41.3530   31.4300   44.7120 H   0  0  0  0  0  0  0  0  0  0  0  0
   36.4820   30.6100   49.0630 C   0  0  0  0  0  0  0  0  0  0  0  0
   37.5070   30.9240   48.1930 C   0  0  0  0  0  0  0  0  0  0  0  0
   37.3140   30.8310   46.8260 C   0  0  0  0  0  0  0  0  0  0  0  0
   36.1030   30.4260   46.3930 N   0  0  0  0  0  0  0  0  0  0  0  0
   35.1070   30.1200   47.2700 C   0  0  0  0  0  0  0  0  0  0  0  0
   35.2770   30.2050   48.5770 N   0  0  0  0  0  0  0  0  0  0  0  0
   38.4950   31.2540   48.4910 H   0  0  0  0  0  0  0  0  0  0  0  0
   34.1350   29.7940   46.9140 H   0  0  0  0  0  0  0  0  0  0  0  0
   36.8470   30.7590   50.4040 O   0  0  0  0  0  0  0  0  0  0  0  0
   36.8820   29.6850   51.3120 C   0  0  0  0  0  0  0  0  0  0  0  0
   35.6170   29.2310   51.6480 F   0  0  0  0  0  0  0  0  0  0  0  0
   37.5810   30.0920   52.4240 F   0  0  0  0  0  0  0  0  0  0  0  0
   37.5950   28.6560   50.7250 F   0  0  0  0  0  0  0  0  0  0  0  0
   38.9830   30.2200   41.9280 O   0  0  0  0  0  0  0  0  0  0  0  0
   38.5800   28.7280   39.1990 Cl  0  0  0  0  0  0  0  0  0  0  0  0
   38.8300   27.9800   40.7470 C   0  0  0  0  0  0  0  0  0  0  0  0
   38.9780   28.8690   41.7760 C   0  0  0  0  0  0  0  0  0  0  0  0
   39.1820   28.2980   43.0420 C   0  0  0  0  0  0  0  0  0  0  0  0
   39.3270   28.7870   44.0150 H   0  0  0  0  0  0  0  0  0  0  0  0
   39.2300   26.9110   43.2320 C   0  0  0  0  0  0  0  0  0  0  0  0
   39.3810   26.3990   44.1600 H   0  0  0  0  0  0  0  0  0  0  0  0
   39.0740   26.0720   42.1510 C   0  0  0  0  0  3  0  0  0  0  0  0
   38.8730   26.6150   40.9050 C   0  0  0  0  0  3  0  0  0  0  0  0
  1  6  1  1  0  0  0
  1 32  1  0  0  0  0
  1  2  1  0  0  0  0
  2  7  1  1  0  0  0
  2 15  1  0  0  0  0
  3  9  1  0  0  0  0
  3  8  1  0  0  0  0
  3  2  1  0  0  0  0
  4  3  1  0  0  0  0
  5  4  1  0  0  0  0
  5  1  1  0  0  0  0
 10  5  1  0  0  0  0
 11  5  1  0  0  0  0
 12 13  1  0  0  0  0
 12 21  1  0  0  0  0
 13 17  1  0  0  0  0
 14 13  2  0  0  0  0
 15 16  1  0  0  0  0
 15 14  1  0  0  0  0
 16 12  2  0  0  0  0
 18 14  1  0  0  0  0
 19 27  1  0  0  0  0
 20 25  1  0  0  0  0
 20 19  2  0  0  0  0
 21 20  1  0  0  0  0
 22 21  2  0  0  0  0
 22 23  1  0  0  0  0
 23 24  2  0  0  0  0
 24 19  1  0  0  0  0
 26 23  1  0  0  0  0
 27 28  1  0  0  0  0
 28 29  1  0  0  0  0
 28 30  1  0  0  0  0
 31 28  1  0  0  0  0
 33 34  1  0  0  0  0
 34 41  2  0  0  0  0
 34 35  1  0  0  0  0
 35 32  1  0  0  0  0
 35 36  2  0  0  0  0
 36 38  1  0  0  0  0
 36 37  1  0  0  0  0
 38 39  1  0  0  0  0
 40 38  2  0  0  0  0
 41 40  1  0  0  0  0
M  END
>  <minimizedAffinity>
-6.24729633

>  <minimizedRMSD>
0.839969635

$$$$
