
     RDKit          3D

 26 27  0  0  0  0  0  0  0  0999 V2000
   37.3376   30.1513   51.3621 C   0  0  0  0  0  0  0  0  0  0  0  0
   38.0003   30.5137   50.1744 C   0  0  0  0  0  0  0  0  0  0  0  0
   37.4207   30.1536   48.9586 C   0  0  0  0  0  0  0  0  0  0  0  0
   36.2353   29.4652   48.9898 N   0  0  0  0  0  0  0  0  0  0  0  0
   35.6343   29.1380   50.1488 C   0  0  0  0  0  0  0  0  0  0  0  0
   36.1867   29.4816   51.3249 N   0  0  0  0  0  0  0  0  0  0  0  0
   37.8582   30.3838   47.7038 O   0  0  0  0  0  0  0  0  0  0  0  0
   39.0516   32.7398   48.1401 O   0  0  0  0  0  0  0  0  0  0  0  0
   38.7230   31.7193   47.1121 P   0  0  2  0  0  0  0  0  0  0  0  0
   37.8333   32.4505   45.8467 O   0  0  0  0  0  0  0  0  0  0  0  0
   40.1390   31.1753   46.3918 O   0  0  0  0  0  0  0  0  0  0  0  0
   37.8739   30.4799   52.2499 H   0  0  0  0  0  0  0  0  0  0  0  0
   38.9250   31.0492   50.0734 H   0  0  0  0  0  0  0  0  0  0  0  0
   34.6900   28.5893   50.1580 H   0  0  0  0  0  0  0  0  0  0  0  0
   37.4107   31.7261   45.3155 H   0  0  0  0  0  0  0  0  0  0  0  0
   39.5541   33.8549   45.4212 Cl  0  0  0  0  0  0  0  0  0  0  0  0
   41.1402   33.1345   45.7472 C   0  0  0  0  0  0  0  0  0  0  0  0
   41.3259   31.8307   46.2149 C   0  0  0  0  0  0  0  0  0  0  0  0
   42.6258   31.4056   46.4238 C   0  0  0  0  0  0  0  0  0  0  0  0
   42.6780   30.3870   46.7849 H   0  0  0  0  0  0  0  0  0  0  0  0
   43.6921   32.2471   46.1758 C   0  0  0  0  0  0  0  0  0  0  0  0
   44.6818   31.8073   46.3758 H   0  0  0  0  0  0  0  0  0  0  0  0
   43.5237   33.5218   45.7191 C   0  0  0  0  0  0  0  0  0  0  0  0
   42.2440   33.9555   45.5081 C   0  0  0  0  0  0  0  0  0  0  0  0
   44.3989   34.1488   45.5381 H   0  0  0  0  0  0  0  0  0  0  0  0
   42.1277   34.9743   45.1439 H   0  0  0  0  0  0  0  0  0  0  0  0
  2  1  2  0
  3  4  2  0
  3  2  1  0
  4  5  1  0
  5  6  2  0
  6  1  1  0
  7  3  1  0
  9  7  1  1
  9  8  2  0
 10  9  1  0
 11  9  1  0
  1 12  1  0
  2 13  1  0
  5 14  1  0
 10 15  1  0
 16 17  1  0
 17 18  2  0
 18 19  1  0
 19 20  1  0
 19 21  2  0
 21 22  1  0
 21 23  1  0
 23 24  2  0
 24 17  1  0
 23 25  1  0
 24 26  1  0
 11 18  1  0
M  ISO  6  12  14  13  14  14  14  15   3  20  15  22  16
M  END
>  <DihAtoms>  (1) 
8,10,17,16

>  <DihDeg>  (1) 
179.99991570743518

$$$$
