
 OpenBabel03272503413D

 41 44  0  0  1  0  0  0  0  0999 V2000
   39.7650   31.4710   41.7800 C   0  0  2  0  0  0  0  0  0  0  0  0
   39.4030   32.5740   42.8000 C   0  0  1  0  0  0  0  0  0  0  0  0
   38.1630   33.0940   42.1510 C   0  0  0  0  0  0  0  0  0  0  0  0
   38.3520   33.0390   40.7920 O   0  0  0  0  0  0  0  0  0  0  0  0
   39.4520   32.2920   40.5070 C   0  0  0  0  0  0  0  0  0  0  0  0
   40.8280   31.2370   41.8330 H   0  0  0  0  0  0  0  0  0  0  0  0
   40.1580   33.3530   42.8580 H   0  0  0  0  0  0  0  0  0  0  0  0
   37.3490   32.3570   42.3900 H   0  0  0  0  0  0  0  0  0  0  0  0
   37.9060   34.1250   42.4790 H   0  0  0  0  0  0  0  0  0  0  0  0
   39.2610   31.5250   39.7330 H   0  0  0  0  0  0  0  0  0  0  0  0
   40.3460   32.8860   40.2220 H   0  0  0  0  0  0  0  0  0  0  0  0
   38.2260   31.2190   45.9200 C   0  0  0  0  0  0  0  0  0  0  0  0
   39.5650   31.0120   46.0610 C   0  0  0  0  0  0  0  0  0  0  0  0
   40.1230   31.5100   44.8870 C   0  0  0  0  0  0  0  0  0  0  0  0
   39.1480   31.9860   44.0960 N   0  0  0  0  0  0  0  0  0  0  0  0
   37.9840   31.8100   44.7260 N   0  0  0  0  0  0  0  0  0  0  0  0
   40.0400   30.5620   46.9090 H   0  0  0  0  0  0  0  0  0  0  0  0
   41.1940   31.4880   44.6980 H   0  0  0  0  0  0  0  0  0  0  0  0
   36.3960   30.6110   49.1320 C   0  0  0  0  0  0  0  0  0  0  0  0
   37.4030   30.9570   48.2540 C   0  0  0  0  0  0  0  0  0  0  0  0
   37.1990   30.8670   46.8890 C   0  0  0  0  0  0  0  0  0  0  0  0
   35.9950   30.4340   46.4650 N   0  0  0  0  0  0  0  0  0  0  0  0
   35.0160   30.0970   47.3500 C   0  0  0  0  0  0  0  0  0  0  0  0
   35.1970   30.1780   48.6550 N   0  0  0  0  0  0  0  0  0  0  0  0
   38.3860   31.3110   48.5450 H   0  0  0  0  0  0  0  0  0  0  0  0
   34.0490   29.7490   47.0010 H   0  0  0  0  0  0  0  0  0  0  0  0
   36.7700   30.7610   50.4700 O   0  0  0  0  0  0  0  0  0  0  0  0
   36.8340   29.6840   51.3740 C   0  0  0  0  0  0  0  0  0  0  0  0
   35.5820   29.1870   51.6980 F   0  0  0  0  0  0  0  0  0  0  0  0
   37.5110   30.1080   52.4930 F   0  0  0  0  0  0  0  0  0  0  0  0
   37.5840   28.6820   50.7870 F   0  0  0  0  0  0  0  0  0  0  0  0
   38.8370   30.4930   41.9200 O   0  0  0  0  0  0  0  0  0  0  0  0
   41.5050   28.8450   41.9840 Cl  0  0  0  0  0  0  0  0  0  0  0  0
   39.9120   28.2250   42.2880 C   0  0  0  0  0  0  0  0  0  0  0  0
   38.9230   29.1650   42.1950 C   0  0  0  0  0  0  0  0  0  0  0  0
   37.6210   28.6980   42.4360 C   0  0  0  0  0  0  0  0  0  0  0  0
   36.6680   29.2420   42.4230 H   0  0  0  0  0  0  0  0  0  0  0  0
   37.3600   27.3570   42.7520 C   0  0  0  0  0  0  0  0  0  0  0  0
   36.4010   26.9230   42.9490 H   0  0  0  0  0  0  0  0  0  0  0  0
   38.4060   26.4630   42.8300 C   0  0  0  0  0  3  0  0  0  0  0  0
   39.6850   26.9040   42.5960 C   0  0  0  0  0  3  0  0  0  0  0  0
  1  6  1  1  0  0  0
  1 32  1  0  0  0  0
  1  2  1  0  0  0  0
  2  7  1  1  0  0  0
  2 15  1  0  0  0  0
  3  8  1  0  0  0  0
  3  9  1  0  0  0  0
  3  2  1  0  0  0  0
  4  3  1  0  0  0  0
  5  4  1  0  0  0  0
  5  1  1  0  0  0  0
 10  5  1  0  0  0  0
 11  5  1  0  0  0  0
 12 13  1  0  0  0  0
 12 21  1  0  0  0  0
 13 17  1  0  0  0  0
 14 13  2  0  0  0  0
 15 16  1  0  0  0  0
 15 14  1  0  0  0  0
 16 12  2  0  0  0  0
 18 14  1  0  0  0  0
 19 27  1  0  0  0  0
 20 25  1  0  0  0  0
 20 19  2  0  0  0  0
 21 20  1  0  0  0  0
 22 21  2  0  0  0  0
 22 23  1  0  0  0  0
 23 24  2  0  0  0  0
 24 19  1  0  0  0  0
 26 23  1  0  0  0  0
 27 28  1  0  0  0  0
 28 29  1  0  0  0  0
 28 30  1  0  0  0  0
 31 28  1  0  0  0  0
 32 35  1  0  0  0  0
 33 34  1  0  0  0  0
 34 41  1  0  0  0  0
 35 34  2  0  0  0  0
 35 36  1  0  0  0  0
 36 38  2  0  0  0  0
 37 36  1  0  0  0  0
 38 40  1  0  0  0  0
 38 39  1  0  0  0  0
 41 40  2  0  0  0  0
M  END
>  <minimizedAffinity>
-6.52201939

>  <minimizedRMSD>
0.702760458

$$$$
