
 OpenBabel03272510243D

 32 35  0  0  0  0  0  0  0  0999 V2000
   37.1260   30.6010   45.2600 C   0  0  0  0  0  0  0  0  0  0  0  0
   38.1630   30.9600   46.1070 C   0  0  0  0  0  0  0  0  0  0  0  0
   39.4820   30.8610   45.6980 C   0  0  0  0  0  0  0  0  0  0  0  0
   39.6870   30.3850   44.3960 C   0  0  0  0  0  0  0  0  0  0  0  0
   40.9010   30.2060   43.7810 N   0  0  0  0  0  0  0  0  0  0  0  0
   40.6100   29.7390   42.5610 C   0  0  0  0  0  0  0  0  0  0  0  0
   39.3030   29.6200   42.3880 N   0  0  0  0  0  0  0  0  0  0  0  0
   38.6840   30.0190   43.5260 C   0  0  0  0  0  0  0  0  0  0  0  0
   37.3800   30.1350   43.9800 C   0  0  0  0  0  0  0  0  0  0  0  0
   36.1000   30.6830   45.5910 H   0  0  0  0  0  0  0  0  0  0  0  0
   40.2930   31.1350   46.3410 H   0  0  0  0  0  0  0  0  0  0  0  0
   41.8600   30.3950   44.1820 H   0  0  0  0  0  0  0  0  0  0  0  0
   36.5840   29.8500   43.3040 H   0  0  0  0  0  0  0  0  0  0  0  0
   37.9700   32.8510   49.3510 C   0  0  0  0  0  0  0  0  0  0  0  0
   38.4140   32.5030   48.0780 C   0  0  0  0  0  0  0  0  0  0  0  0
   37.8110   31.4400   47.4320 C   0  0  0  0  0  0  0  0  0  0  0  0
   36.8150   30.8070   48.1010 N   0  0  0  0  0  0  0  0  0  0  0  0
   36.3920   31.1520   49.3360 C   0  0  0  0  0  0  0  0  0  0  0  0
   36.9750   32.1680   49.9440 N   0  0  0  0  0  0  0  0  0  0  0  0
   38.5190   33.7020   49.7590 H   0  0  0  0  0  0  0  0  0  0  0  0
   39.2090   33.0070   47.5400 H   0  0  0  0  0  0  0  0  0  0  0  0
   35.5920   30.6070   49.8200 H   0  0  0  0  0  0  0  0  0  0  0  0
   41.5960   29.4300   41.6260 O   0  0  0  0  0  0  0  0  0  0  0  0
   40.5740   26.9580   40.2250 Cl  0  0  0  0  0  0  0  0  0  0  0  0
   40.7970   28.5300   39.4820 C   0  0  0  0  0  0  0  0  0  0  0  0
   41.2740   29.5470   40.2770 C   0  0  0  0  0  0  0  0  0  0  0  0
   41.4790   30.8130   39.7700 C   0  0  0  0  0  0  0  0  0  0  0  0
   41.8570   31.6750   40.3380 H   0  0  0  0  0  0  0  0  0  0  0  0
   41.2090   31.0990   38.4470 C   0  0  0  0  0  0  0  0  0  0  0  0
   41.3470   32.0630   37.9930 H   0  0  0  0  0  0  0  0  0  0  0  0
   40.7290   30.0800   37.6440 C   0  0  0  0  0  3  0  0  0  0  0  0
   40.5310   28.8250   38.1620 C   0  0  0  0  0  3  0  0  0  0  0  0
  1 10  1  0  0  0  0
  1  2  1  0  0  0  0
  2 16  1  0  0  0  0
  3  2  2  0  0  0  0
  3 11  1  0  0  0  0
  4  3  1  0  0  0  0
  5 12  1  0  0  0  0
  5  4  1  0  0  0  0
  6  5  1  0  0  0  0
  7  6  2  0  0  0  0
  7  8  1  0  0  0  0
  8  9  1  0  0  0  0
  8  4  2  0  0  0  0
  9  1  2  0  0  0  0
 13  9  1  0  0  0  0
 14 20  1  0  0  0  0
 14 19  1  0  0  0  0
 15 14  2  0  0  0  0
 16 15  1  0  0  0  0
 16 17  2  0  0  0  0
 17 18  1  0  0  0  0
 18 22  1  0  0  0  0
 18 19  2  0  0  0  0
 21 15  1  0  0  0  0
 23  6  1  0  0  0  0
 25 24  1  0  0  0  0
 25 26  1  0  0  0  0
 26 23  1  0  0  0  0
 27 26  2  0  0  0  0
 27 28  1  0  0  0  0
 29 27  1  0  0  0  0
 30 29  1  0  0  0  0
 31 32  1  0  0  0  0
 31 29  2  0  0  0  0
 32 25  2  0  0  0  0
M  END
>  <minimizedAffinity>
-5.39847708

>  <minimizedRMSD>
4.03333044

$$$$
