
 OpenBabel03272510243D

 32 35  0  0  0  0  0  0  0  0999 V2000
   36.0190   30.2260   46.9420 C   0  0  0  0  0  0  0  0  0  0  0  0
   37.0580   30.4560   47.8300 C   0  0  0  0  0  0  0  0  0  0  0  0
   38.2680   30.9680   47.3930 C   0  0  0  0  0  0  0  0  0  0  0  0
   38.3630   31.2310   46.0200 C   0  0  0  0  0  0  0  0  0  0  0  0
   39.4590   31.7370   45.3660 N   0  0  0  0  0  0  0  0  0  0  0  0
   39.0930   31.8190   44.0810 C   0  0  0  0  0  0  0  0  0  0  0  0
   37.8510   31.3960   43.9050 N   0  0  0  0  0  0  0  0  0  0  0  0
   37.3540   31.0170   45.1070 C   0  0  0  0  0  0  0  0  0  0  0  0
   36.1620   30.5030   45.5910 C   0  0  0  0  0  0  0  0  0  0  0  0
   35.0790   29.8260   47.2950 H   0  0  0  0  0  0  0  0  0  0  0  0
   39.0790   31.1500   48.0670 H   0  0  0  0  0  0  0  0  0  0  0  0
   40.3910   32.0060   45.7850 H   0  0  0  0  0  0  0  0  0  0  0  0
   35.3630   30.3300   44.8820 H   0  0  0  0  0  0  0  0  0  0  0  0
   37.3500   30.0420   51.5550 C   0  0  0  0  0  0  0  0  0  0  0  0
   37.7090   30.4030   50.2600 C   0  0  0  0  0  0  0  0  0  0  0  0
   36.8260   30.1400   49.2280 C   0  0  0  0  0  0  0  0  0  0  0  0
   35.6580   29.5390   49.5660 N   0  0  0  0  0  0  0  0  0  0  0  0
   35.3190   29.1920   50.8270 C   0  0  0  0  0  0  0  0  0  0  0  0
   36.1710   29.4480   51.8040 N   0  0  0  0  0  0  0  0  0  0  0  0
   38.1240   30.2990   52.2820 H   0  0  0  0  0  0  0  0  0  0  0  0
   38.6420   30.8840   49.9850 H   0  0  0  0  0  0  0  0  0  0  0  0
   34.3720   28.7130   51.0340 H   0  0  0  0  0  0  0  0  0  0  0  0
   39.9500   32.2940   43.0910 O   0  0  0  0  0  0  0  0  0  0  0  0
   38.3660   33.8760   41.0630 Cl  0  0  0  0  0  0  0  0  0  0  0  0
   39.1500   32.3360   40.7670 C   0  0  0  0  0  0  0  0  0  0  0  0
   39.8310   31.7570   41.8130 C   0  0  0  0  0  0  0  0  0  0  0  0
   40.4760   30.5480   41.6630 C   0  0  0  0  0  0  0  0  0  0  0  0
   41.0380   30.0220   42.4460 H   0  0  0  0  0  0  0  0  0  0  0  0
   40.4560   29.8780   40.4550 C   0  0  0  0  0  0  0  0  0  0  0  0
   40.9360   28.9350   40.2750 H   0  0  0  0  0  0  0  0  0  0  0  0
   39.7720   30.4570   39.4010 C   0  0  0  0  0  3  0  0  0  0  0  0
   39.1360   31.6610   39.5630 C   0  0  0  0  0  3  0  0  0  0  0  0
  1 10  1  0  0  0  0
  1  2  1  0  0  0  0
  2 16  1  0  0  0  0
  3  2  2  0  0  0  0
  3 11  1  0  0  0  0
  4  3  1  0  0  0  0
  5 12  1  0  0  0  0
  5  4  1  0  0  0  0
  6  5  1  0  0  0  0
  7  6  2  0  0  0  0
  7  8  1  0  0  0  0
  8  9  1  0  0  0  0
  8  4  2  0  0  0  0
  9  1  2  0  0  0  0
 13  9  1  0  0  0  0
 14 19  1  0  0  0  0
 14 20  1  0  0  0  0
 15 14  2  0  0  0  0
 16 17  2  0  0  0  0
 16 15  1  0  0  0  0
 17 18  1  0  0  0  0
 18 22  1  0  0  0  0
 18 19  2  0  0  0  0
 21 15  1  0  0  0  0
 23  6  1  0  0  0  0
 25 24  1  0  0  0  0
 25 26  1  0  0  0  0
 26 23  1  0  0  0  0
 27 26  2  0  0  0  0
 27 28  1  0  0  0  0
 29 27  1  0  0  0  0
 30 29  1  0  0  0  0
 31 32  1  0  0  0  0
 31 29  2  0  0  0  0
 32 25  2  0  0  0  0
M  END
>  <minimizedAffinity>
-5.53226995

>  <minimizedRMSD>
2.17919588

$$$$
