REMARK  Name = 
REMARK  2 active torsions:
REMARK  status: ('A' for Active; 'I' for Inactive)
REMARK    1  A    between atoms: N_1  and  C_6
REMARK    2  A    between atoms: C_2  and  C_12
REMARK                            x       y       z     vdW  Elec       q    Type
REMARK                         _______ _______ _______ _____ _____    ______ ____
ROOT
ATOM      1  N   UNL     1      36.531  29.802  49.195  0.00  0.00    +0.000 N 
ATOM      2  C   UNL     1      37.235  30.991  48.743  0.00  0.00    +0.000 C 
ATOM      3  C   UNL     1      37.986  31.363  50.013  0.00  0.00    +0.000 C 
ATOM      4  C   UNL     1      37.559  30.396  51.100  0.00  0.00    +0.000 C 
ATOM      5  C   UNL     1      37.232  29.182  50.286  0.00  0.00    +0.000 C 
ATOM      6  H   UNL     1      36.505  31.778  48.464  0.00  0.00    +0.000 HD
ATOM      7  H   UNL     1      39.068  31.424  49.870  0.00  0.00    +0.000 HD
ATOM      8  H   UNL     1      37.620  32.381  50.331  0.00  0.00    +0.000 HD
ATOM      9  H   UNL     1      38.500  30.145  51.661  0.00  0.00    +0.000 HD
ATOM     10  H   UNL     1      36.738  30.748  51.716  0.00  0.00    +0.000 HD
ATOM     11  H   UNL     1      38.060  28.540  50.032  0.00  0.00    +0.000 HD
ATOM     12  H   UNL     1      36.517  28.565  50.894  0.00  0.00    +0.000 HD
ENDROOT
BRANCH   1  13
ATOM     13  C   UNL     1      35.313  29.325  48.636  0.00  0.00    +0.000 A 
ATOM     14  C   UNL     1      34.733  30.072  47.599  0.00  0.00    +0.000 A 
ATOM     15  C   UNL     1      33.538  29.642  47.020  0.00  0.00    +0.000 A 
ATOM     16  N   UNL     1      32.998  28.481  47.522  0.00  0.00    +0.000 NA
ATOM     17  C   UNL     1      33.578  27.782  48.522  0.00  0.00    +0.000 A 
ATOM     18  N   UNL     1      34.740  28.204  49.081  0.00  0.00    +0.000 NA
ATOM     19  H   UNL     1      35.137  30.984  47.187  0.00  0.00    +0.000 HD
ATOM     20  H   UNL     1      33.075  30.194  46.226  0.00  0.00    +0.000 HD
ATOM     21  H   UNL     1      33.074  26.883  48.845  0.00  0.00    +0.000 HD
ENDBRANCH   1  13
BRANCH   2  22
ATOM     22  C   UNL     1      38.145  30.731  47.620  0.00  0.00    +0.000 C 
ATOM     23  O   UNL     1      39.017  31.557  47.419  0.00  0.00    +0.000 OA
ATOM     24  N   UNL     1      38.501  29.865  46.551  0.00  0.00    +0.000 N 
ATOM     25  C   UNL     1      38.465  30.415  45.215  0.00  0.00    +0.000 C 
ATOM     26  C   UNL     1      37.353  29.812  44.383  0.00  0.00    +0.000 C 
ATOM     27  C   UNL     1      37.341  28.314  44.599  0.00  0.00    +0.000 C 
ATOM     28  H   UNL     1      37.289  27.857  43.596  0.00  0.00    +0.000 HD
ATOM     29  C   UNL     1      38.636  27.832  45.216  0.00  0.00    +0.000 C 
ATOM     30  C   UNL     1      38.912  28.453  46.570  0.00  0.00    +0.000 C 
ENDBRANCH   2  22
TORSDOF 2
