
     RDKit          3D

 39 41  0  0  0  0  0  0  0  0999 V2000
   36.5305   29.8022   49.1952 N   0  0  0  0  0  0  0  0  0  0  0  0
   37.2353   30.9911   48.7432 C   0  0  1  0  0  0  0  0  0  0  0  0
   37.9864   31.3633   50.0133 C   0  0  0  0  0  0  0  0  0  0  0  0
   37.5595   30.3956   51.0999 C   0  0  0  0  0  0  0  0  0  0  0  0
   37.2322   29.1821   50.2864 C   0  0  0  0  0  0  0  0  0  0  0  0
   35.3133   29.3248   48.6358 C   0  0  0  0  0  0  0  0  0  0  0  0
   34.7333   30.0717   47.5987 C   0  0  0  0  0  0  0  0  0  0  0  0
   33.5383   29.6416   47.0197 C   0  0  0  0  0  0  0  0  0  0  0  0
   32.9981   28.4811   47.5223 N   0  0  0  0  0  0  0  0  0  0  0  0
   33.5784   27.7818   48.5220 C   0  0  0  0  0  0  0  0  0  0  0  0
   34.7397   28.2039   49.0814 N   0  0  0  0  0  0  0  0  0  0  0  0
   38.1449   30.7309   47.6202 C   0  0  0  0  0  0  0  0  0  0  0  0
   39.0170   31.5568   47.4189 O   0  0  0  0  0  0  0  0  0  0  0  0
   36.5053   31.7780   48.4637 H   0  0  0  0  0  0  0  0  0  0  0  0
   39.0683   31.4243   49.8696 H   0  0  0  0  0  0  0  0  0  0  0  0
   37.6196   32.3810   50.3306 H   0  0  0  0  0  0  0  0  0  0  0  0
   38.5001   30.1454   51.6611 H   0  0  0  0  0  0  0  0  0  0  0  0
   36.7379   30.7479   51.7159 H   0  0  0  0  0  0  0  0  0  0  0  0
   38.0601   28.5401   50.0322 H   0  0  0  0  0  0  0  0  0  0  0  0
   36.5167   28.5650   50.8939 H   0  0  0  0  0  0  0  0  0  0  0  0
   35.1372   30.9841   47.1869 H   0  0  0  0  0  0  0  0  0  0  0  0
   33.0749   30.1944   46.2259 H   0  0  0  0  0  0  0  0  0  0  0  0
   33.0735   26.8830   48.8447 H   0  0  0  0  0  0  0  0  0  0  0  0
   38.5006   29.8648   46.5509 N   0  0  0  0  0  0  0  0  0  0  0  0
   39.9043   29.5643   46.3827 C   0  0  0  0  0  0  0  0  0  0  0  0
   40.4684   30.1810   45.1210 C   0  0  0  0  0  0  0  0  0  0  0  0
   39.4917   29.9516   43.9871 C   0  0  0  0  0  0  0  0  0  0  0  0
   40.0845   29.5684   43.1401 H   0  0  0  0  0  0  0  0  0  0  0  0
   38.4915   28.8686   44.3287 C   0  0  0  0  0  0  0  0  0  0  0  0
   37.6560   29.1985   45.5479 C   0  0  0  0  0  0  0  0  0  0  0  0
   40.5429   29.7698   47.2345 H   0  0  0  0  0  0  0  0  0  0  0  0
   39.9725   28.4461   46.2263 H   0  0  0  0  0  0  0  0  0  0  0  0
   40.6440   31.2424   45.3526 H   0  0  0  0  0  0  0  0  0  0  0  0
   41.4517   29.6889   44.9496 H   0  0  0  0  0  0  0  0  0  0  0  0
   39.0326   30.8939   43.6965 H   0  0  0  0  0  0  0  0  0  0  0  0
   39.0126   27.9264   44.5041 H   0  0  0  0  0  0  0  0  0  0  0  0
   37.8022   28.7901   43.4694 H   0  0  0  0  0  0  0  0  0  0  0  0
   37.3566   28.2374   46.0135 H   0  0  0  0  0  0  0  0  0  0  0  0
   36.7667   29.7744   45.2895 H   0  0  0  0  0  0  0  0  0  0  0  0
  1  5  1  0
  2  1  1  0
  2  3  1  0
  3  4  1  0
  5  4  1  0
  6 11  1  0
  6  1  1  0
  7  6  2  0
  8  9  2  0
  8  7  1  0
  9 10  1  0
 10 11  2  0
 12  2  1  0
 13 12  2  0
  2 14  1  6
  3 15  1  0
  3 16  1  0
  4 17  1  0
  4 18  1  0
  5 19  1  0
  5 20  1  0
  7 21  1  0
  8 22  1  0
 10 23  1  0
 24 25  1  0
 25 26  1  0
 26 27  1  0
 27 28  1  0
 27 29  1  0
 29 30  1  0
 30 24  1  0
 25 31  1  0
 25 32  1  0
 26 33  1  0
 26 34  1  0
 27 35  1  0
 29 36  1  0
 29 37  1  0
 30 38  1  0
 30 39  1  0
 12 24  1  0
M  ISO  8  14  13  15  13  16  13  17  13  18  13  19  13  20  13  21  14
M  ISO  3  22  14  23  14  28  15
M  END
>  <DihAtoms>  (1) 
1,11,23,24

>  <DihDeg>  (1) 
179.78260340261426

$$$$
