
 OpenBabel03272503243D

 30 32  0  0  1  0  0  0  0  0999 V2000
   36.1480   29.8150   49.1900 N   0  0  0  0  0  0  0  0  0  0  0  0
   36.7200   31.1500   49.1180 C   0  0  1  0  0  0  0  0  0  0  0  0
   37.2870   31.2800   50.5240 C   0  0  0  0  0  0  0  0  0  0  0  0
   36.8970   30.0340   51.2950 C   0  0  0  0  0  0  0  0  0  0  0  0
   36.8210   29.0280   50.1870 C   0  0  0  0  0  0  0  0  0  0  0  0
   35.9180   31.8950   48.9390 H   0  0  0  0  0  0  0  0  0  0  0  0
   38.3590   31.4950   50.5370 H   0  0  0  0  0  0  0  0  0  0  0  0
   36.7550   32.1410   51.0210 H   0  0  0  0  0  0  0  0  0  0  0  0
   37.8060   29.7590   51.8960 H   0  0  0  0  0  0  0  0  0  0  0  0
   35.9800   30.1290   51.8670 H   0  0  0  0  0  0  0  0  0  0  0  0
   37.7510   28.5660   49.8980 H   0  0  0  0  0  0  0  0  0  0  0  0
   36.1440   28.2050   50.5400 H   0  0  0  0  0  0  0  0  0  0  0  0
   35.0680   29.3570   48.3860 C   0  0  0  0  0  0  0  0  0  0  0  0
   34.4100   30.2970   47.5780 C   0  0  0  0  0  0  0  0  0  0  0  0
   33.3440   29.8930   46.7720 C   0  0  0  0  0  0  0  0  0  0  0  0
   33.0050   28.5610   46.8300 N   0  0  0  0  0  0  0  0  0  0  0  0
   33.6550   27.6780   47.6180 C   0  0  0  0  0  0  0  0  0  0  0  0
   34.6910   28.0760   48.3990 N   0  0  0  0  0  0  0  0  0  0  0  0
   34.6580   31.3450   47.5130 H   0  0  0  0  0  0  0  0  0  0  0  0
   32.8260   30.5910   46.1450 H   0  0  0  0  0  0  0  0  0  0  0  0
   33.3110   26.6550   47.5920 H   0  0  0  0  0  0  0  0  0  0  0  0
   37.7610   31.2780   48.0900 C   0  0  0  0  0  0  0  0  0  0  0  0
   38.8500   31.6770   48.4590 O   0  0  0  0  0  0  0  0  0  0  0  0
   38.1040   31.1350   46.7180 N   0  0  0  0  0  0  0  0  0  0  0  0
   39.4550   31.4760   46.3350 C   0  0  0  0  0  2  0  0  0  0  0  0
   39.5030   32.7230   45.4780 C   0  0  0  0  0  2  0  0  0  0  0  0
   38.4060   32.6410   44.4370 C   0  0  0  0  0  3  0  0  0  0  0  0
   38.8760   32.8960   43.4710 H   0  0  0  0  0  0  0  0  0  0  0  0
   37.8820   31.2290   44.2940 C   0  0  0  0  0  2  0  0  0  0  0  0
   37.2900   30.6860   45.5780 C   0  0  0  0  0  2  0  0  0  0  0  0
  1  5  1  0  0  0  0
  2  6  1  6  0  0  0
  2  1  1  0  0  0  0
  2  3  1  0  0  0  0
  3  7  1  0  0  0  0
  3  8  1  0  0  0  0
  3  4  1  0  0  0  0
  4 10  1  0  0  0  0
  4  9  1  0  0  0  0
  5 12  1  0  0  0  0
  5  4  1  0  0  0  0
 11  5  1  0  0  0  0
 13 18  1  0  0  0  0
 13  1  1  0  0  0  0
 14 13  2  0  0  0  0
 15 16  2  0  0  0  0
 15 14  1  0  0  0  0
 16 17  1  0  0  0  0
 17 18  2  0  0  0  0
 19 14  1  0  0  0  0
 20 15  1  0  0  0  0
 21 17  1  0  0  0  0
 22 23  2  0  0  0  0
 22  2  1  0  0  0  0
 24 22  1  0  0  0  0
 25 24  1  0  0  0  0
 26 25  1  0  0  0  0
 27 26  1  0  0  0  0
 28 27  1  0  0  0  0
 29 27  1  0  0  0  0
 29 30  1  0  0  0  0
 30 24  1  0  0  0  0
M  END
>  <minimizedAffinity>
-5.63969088

>  <minimizedRMSD>
1.42674065

$$$$
