
 OpenBabel03272500573D

 33 35  0  0  0  0  0  0  0  0999 V2000
   38.1100   31.8860   47.4240 C   0  0  0  0  0  0  0  0  0  0  0  0
   38.5710   32.8050   48.3250 C   0  0  0  0  0  0  0  0  0  0  0  0
   38.0680   32.8650   49.6230 C   0  0  0  0  0  0  0  0  0  0  0  0
   37.0370   31.9230   49.9920 C   0  0  0  0  0  0  0  0  0  0  0  0
   36.6200   31.0320   49.0470 C   0  0  0  0  0  0  0  0  0  0  0  0
   37.1060   30.9800   47.7990 C   0  0  0  0  0  0  0  0  0  0  0  0
   39.3540   33.5320   48.0720 H   0  0  0  0  0  0  0  0  0  0  0  0
   38.4730   33.6210   50.3020 H   0  0  0  0  0  0  0  0  0  0  0  0
   36.7600   32.0930   51.0020 H   0  0  0  0  0  0  0  0  0  0  0  0
   35.8840   30.4260   49.5500 H   0  0  0  0  0  0  0  0  0  0  0  0
   40.0140   31.2740   46.0080 C   0  0  0  0  0  0  0  0  0  0  0  0
   38.7460   31.9210   46.1230 C   0  0  0  0  0  0  0  0  0  0  0  0
   38.2760   32.5010   44.9720 C   0  0  0  0  0  0  0  0  0  0  0  0
   38.9850   32.4450   43.8330 N   0  0  0  0  0  0  0  0  0  0  0  0
   40.1610   31.8410   43.7370 C   0  0  0  0  0  0  0  0  0  0  0  0
   40.6690   31.2570   44.8310 N   0  0  0  0  0  0  0  0  0  0  0  0
   40.4940   30.7790   46.8430 H   0  0  0  0  0  0  0  0  0  0  0  0
   37.3180   32.9890   45.0630 H   0  0  0  0  0  0  0  0  0  0  0  0
   40.7640   31.7720   42.8390 H   0  0  0  0  0  0  0  0  0  0  0  0
   35.1360   30.0040   46.9460 C   0  0  0  0  0  0  0  0  0  0  0  0
   34.5300   30.6510   47.8570 O   0  0  0  0  0  0  0  0  0  0  0  0
   36.6180   30.0810   46.8830 N   0  0  0  0  0  0  0  0  0  0  0  0
   37.1190   29.5000   46.2110 H   0  0  0  0  0  0  0  0  0  0  0  0
   34.4910   29.2000   45.9560 O   0  0  0  0  0  0  0  0  0  0  0  0
   33.3050   29.6550   45.4140 C   0  0  0  0  0  0  0  0  0  0  0  0
   33.4350   30.5990   44.5960 O   0  0  0  0  0  0  0  0  0  0  0  0
   31.9070   29.3210   45.5540 N   0  0  0  0  0  0  0  0  0  0  0  0
   31.3190   28.7850   46.7610 C   0  0  0  0  0  2  0  0  0  0  0  0
   30.5050   27.5530   46.5230 C   0  0  0  0  0  2  0  0  0  0  0  0
   30.5410   27.0700   45.1020 C   0  0  0  0  0  3  0  0  0  0  0  0
   29.7360   26.3260   44.9310 H   0  0  0  0  0  0  0  0  0  0  0  0
   30.3810   28.1380   44.0680 C   0  0  0  0  0  2  0  0  0  0  0  0
   30.8990   29.4630   44.5470 C   0  0  0  0  0  2  0  0  0  0  0  0
  1  6  2  0  0  0  0
  1  2  1  0  0  0  0
  2  3  2  0  0  0  0
  3  4  1  0  0  0  0
  3  8  1  0  0  0  0
  4  9  1  0  0  0  0
  5 10  1  0  0  0  0
  5  4  2  0  0  0  0
  6  5  1  0  0  0  0
  7  2  1  0  0  0  0
 11 12  1  0  0  0  0
 11 17  1  0  0  0  0
 12  1  1  0  0  0  0
 13 18  1  0  0  0  0
 13 12  2  0  0  0  0
 14 13  1  0  0  0  0
 15 14  2  0  0  0  0
 15 16  1  0  0  0  0
 16 11  2  0  0  0  0
 19 15  1  0  0  0  0
 20 21  2  0  0  0  0
 22 20  1  0  0  0  0
 22  6  1  0  0  0  0
 23 22  1  0  0  0  0
 24 20  1  0  0  0  0
 25 27  1  0  0  0  0
 25 24  1  0  0  0  0
 26 25  2  0  0  0  0
 27 28  1  0  0  0  0
 29 28  1  0  0  0  0
 30 29  1  0  0  0  0
 31 30  1  0  0  0  0
 32 33  1  0  0  0  0
 32 30  1  0  0  0  0
 33 27  1  0  0  0  0
M  END
>  <minimizedAffinity>
-5.51361656

>  <minimizedRMSD>
0.0248322003

$$$$
