REMARK  Name = 
REMARK  2 active torsions:
REMARK  status: ('A' for Active; 'I' for Inactive)
REMARK    1  A    between atoms: C_3  and  C_10
REMARK    2  A    between atoms: C_8  and  C_15
REMARK                            x       y       z     vdW  Elec       q    Type
REMARK                         _______ _______ _______ _____ _____    ______ ____
ROOT
ATOM      1 CL   UNL     1      36.736  31.819  50.232  0.00  0.00    +0.000 Cl
ATOM      2  C   UNL     1      37.389  31.729  48.630  0.00  0.00    +0.000 A 
ATOM      3  C   UNL     1      36.732  30.858  47.814  0.00  0.00    +0.000 A 
ATOM      4  C   UNL     1      37.173  30.730  46.475  0.00  0.00    +0.000 A 
ATOM      5  C   UNL     1      38.234  31.459  45.995  0.00  0.00    +0.000 A 
ATOM      6  C   UNL     1      38.869  32.328  46.859  0.00  0.00    +0.000 A 
ATOM      7 CL   UNL     1      40.209  33.283  46.267  0.00  0.00    +0.000 Cl
ATOM      8  C   UNL     1      38.444  32.454  48.163  0.00  0.00    +0.000 A 
ATOM      9  H   UNL     1      36.721  30.071  45.755  0.00  0.00    +0.000 HD
ATOM     10  H   UNL     1      38.583  31.373  44.975  0.00  0.00    +0.000 HD
ENDROOT
BRANCH   3  12
ATOM     11  C   UNL     1      35.775  28.991  49.110  0.00  0.00    +0.000 A 
ATOM     12  C   UNL     1      35.599  29.977  48.095  0.00  0.00    +0.000 A 
ATOM     13  C   UNL     1      34.379  30.026  47.454  0.00  0.00    +0.000 A 
ATOM     14  N   UNL     1      33.418  29.133  47.826  0.00  0.00    +0.000 NA
ATOM     15  C   UNL     1      33.614  28.217  48.785  0.00  0.00    +0.000 A 
ATOM     16  N   UNL     1      34.799  28.141  49.434  0.00  0.00    +0.000 NA
ATOM     17  H   UNL     1      36.726  28.911  49.650  0.00  0.00    +0.000 HD
ATOM     18  H   UNL     1      34.250  30.776  46.685  0.00  0.00    +0.000 HD
ATOM     19  H   UNL     1      32.734  27.621  48.917  0.00  0.00    +0.000 HD
ENDBRANCH   3  12
BRANCH   8  20
ATOM     20  C   UNL     1      39.136  33.340  49.096  0.00  0.00    +0.000 C 
ATOM     21  O   UNL     1      39.341  34.594  48.923  0.00  0.00    +0.000 OA
ATOM     22  N   UNL     1      39.676  32.833  50.354  0.00  0.00    +0.000 N 
ATOM     23  C   UNL     1      39.355  31.762  51.309  0.00  0.00    +0.000 C 
ATOM     24  C   UNL     1      40.604  30.996  51.686  0.00  0.00    +0.000 C 
ATOM     25  C   UNL     1      41.509  31.814  52.578  0.00  0.00    +0.000 C 
ATOM     26  H   UNL     1      41.332  31.504  53.616  0.00  0.00    +0.000 HD
ATOM     27  C   UNL     1      41.068  33.270  52.365  0.00  0.00    +0.000 C 
ATOM     28  C   UNL     1      40.858  33.462  50.908  0.00  0.00    +0.000 C 
ENDBRANCH   8  20
TORSDOF 2
