
 OpenBabel03272500573D

 33 35  0  0  0  0  0  0  0  0999 V2000
   38.0250   31.8430   47.4480 C   0  0  0  0  0  0  0  0  0  0  0  0
   38.5580   32.6960   48.3740 C   0  0  0  0  0  0  0  0  0  0  0  0
   38.0750   32.7450   49.6790 C   0  0  0  0  0  0  0  0  0  0  0  0
   36.9860   31.8620   50.0300 C   0  0  0  0  0  0  0  0  0  0  0  0
   36.4990   31.0360   49.0610 C   0  0  0  0  0  0  0  0  0  0  0  0
   36.9670   30.9940   47.8060 C   0  0  0  0  0  0  0  0  0  0  0  0
   39.3870   33.3760   48.1360 H   0  0  0  0  0  0  0  0  0  0  0  0
   38.5390   33.4470   50.3780 H   0  0  0  0  0  0  0  0  0  0  0  0
   36.7330   32.0160   51.0490 H   0  0  0  0  0  0  0  0  0  0  0  0
   35.7290   30.4640   49.5530 H   0  0  0  0  0  0  0  0  0  0  0  0
   39.9020   31.2100   46.0040 C   0  0  0  0  0  0  0  0  0  0  0  0
   38.6480   31.8800   46.1400 C   0  0  0  0  0  0  0  0  0  0  0  0
   38.1770   32.4810   45.0010 C   0  0  0  0  0  0  0  0  0  0  0  0
   38.8730   32.4240   43.8540 N   0  0  0  0  0  0  0  0  0  0  0  0
   40.0360   31.7990   43.7380 C   0  0  0  0  0  0  0  0  0  0  0  0
   40.5440   31.1940   44.8200 N   0  0  0  0  0  0  0  0  0  0  0  0
   40.3820   30.6970   46.8290 H   0  0  0  0  0  0  0  0  0  0  0  0
   37.2300   32.9860   45.1070 H   0  0  0  0  0  0  0  0  0  0  0  0
   40.6280   31.7290   42.8330 H   0  0  0  0  0  0  0  0  0  0  0  0
   34.9430   30.0280   47.0740 C   0  0  0  0  0  0  0  0  0  0  0  0
   34.4200   30.5690   48.0990 O   0  0  0  0  0  0  0  0  0  0  0  0
   36.4080   30.1630   46.8660 N   0  0  0  0  0  0  0  0  0  0  0  0
   36.8500   29.6630   46.0960 H   0  0  0  0  0  0  0  0  0  0  0  0
   34.2190   29.2920   46.0860 O   0  0  0  0  0  0  0  0  0  0  0  0
   32.8380   29.3100   46.1370 C   0  0  0  0  0  0  0  0  0  0  0  0
   32.3200   30.4070   45.8090 O   0  0  0  0  0  0  0  0  0  0  0  0
   31.8030   28.3680   46.4900 N   0  0  0  0  0  0  0  0  0  0  0  0
   30.4320   28.7360   46.7650 C   0  0  0  0  0  2  0  0  0  0  0  0
   29.9180   28.1760   48.0530 C   0  0  0  0  0  2  0  0  0  0  0  0
   30.9540   27.4280   48.8440 C   0  0  0  0  0  3  0  0  0  0  0  0
   30.4680   26.8300   49.6420 H   0  0  0  0  0  0  0  0  0  0  0  0
   31.8020   26.4920   48.0450 C   0  0  0  0  0  2  0  0  0  0  0  0
   31.9590   26.9510   46.6250 C   0  0  0  0  0  2  0  0  0  0  0  0
  1  6  2  0  0  0  0
  1  2  1  0  0  0  0
  2  3  2  0  0  0  0
  3  4  1  0  0  0  0
  3  8  1  0  0  0  0
  4  9  1  0  0  0  0
  5 10  1  0  0  0  0
  5  4  2  0  0  0  0
  6  5  1  0  0  0  0
  7  2  1  0  0  0  0
 11 12  1  0  0  0  0
 11 17  1  0  0  0  0
 12  1  1  0  0  0  0
 13 18  1  0  0  0  0
 13 12  2  0  0  0  0
 14 13  1  0  0  0  0
 15 14  2  0  0  0  0
 15 16  1  0  0  0  0
 16 11  2  0  0  0  0
 19 15  1  0  0  0  0
 20 21  2  0  0  0  0
 22 20  1  0  0  0  0
 22  6  1  0  0  0  0
 23 22  1  0  0  0  0
 24 25  1  0  0  0  0
 24 20  1  0  0  0  0
 25 27  1  0  0  0  0
 26 25  2  0  0  0  0
 27 33  1  0  0  0  0
 27 28  1  0  0  0  0
 28 29  1  0  0  0  0
 29 30  1  0  0  0  0
 30 31  1  0  0  0  0
 32 30  1  0  0  0  0
 33 32  1  0  0  0  0
M  END
>  <minimizedAffinity>
-6.23800135

>  <minimizedRMSD>
1.20205581

$$$$
