
 OpenBabel03272503243D

 30 32  0  0  1  0  0  0  0  0999 V2000
   36.8290   30.2800   48.8410 N   0  0  0  0  0  0  0  0  0  0  0  0
   37.2140   31.6700   48.6620 C   0  0  1  0  0  0  0  0  0  0  0  0
   37.8740   31.9460   50.0050 C   0  0  0  0  0  0  0  0  0  0  0  0
   37.7140   30.7030   50.8600 C   0  0  0  0  0  0  0  0  0  0  0  0
   37.6780   29.6390   49.8070 C   0  0  0  0  0  0  0  0  0  0  0  0
   36.3100   32.2980   48.5240 H   0  0  0  0  0  0  0  0  0  0  0  0
   38.9060   32.2940   49.9140 H   0  0  0  0  0  0  0  0  0  0  0  0
   37.2770   32.7580   50.5100 H   0  0  0  0  0  0  0  0  0  0  0  0
   38.6980   30.5780   51.3890 H   0  0  0  0  0  0  0  0  0  0  0  0
   36.8430   30.7130   51.5070 H   0  0  0  0  0  0  0  0  0  0  0  0
   38.6330   29.2820   49.4560 H   0  0  0  0  0  0  0  0  0  0  0  0
   37.1460   28.7560   50.2530 H   0  0  0  0  0  0  0  0  0  0  0  0
   35.7540   29.6470   48.1570 C   0  0  0  0  0  0  0  0  0  0  0  0
   35.3800   30.1640   46.9070 C   0  0  0  0  0  0  0  0  0  0  0  0
   34.3310   29.5760   46.1990 C   0  0  0  0  0  0  0  0  0  0  0  0
   33.7200   28.4970   46.7950 N   0  0  0  0  0  0  0  0  0  0  0  0
   34.1000   28.0210   48.0010 C   0  0  0  0  0  0  0  0  0  0  0  0
   35.1210   28.5960   48.6840 N   0  0  0  0  0  0  0  0  0  0  0  0
   35.8430   31.0070   46.4170 H   0  0  0  0  0  0  0  0  0  0  0  0
   34.0260   29.9510   45.2420 H   0  0  0  0  0  0  0  0  0  0  0  0
   33.5570   27.1690   48.3830 H   0  0  0  0  0  0  0  0  0  0  0  0
   38.1400   31.8730   47.5410 C   0  0  0  0  0  0  0  0  0  0  0  0
   38.9980   32.7260   47.6850 O   0  0  0  0  0  0  0  0  0  0  0  0
   38.5240   31.4870   46.2280 N   0  0  0  0  0  0  0  0  0  0  0  0
   38.4910   32.5060   45.2030 C   0  0  0  0  0  2  0  0  0  0  0  0
   37.3990   32.2510   44.1850 C   0  0  0  0  0  2  0  0  0  0  0  0
   37.4150   30.7840   43.8120 C   0  0  0  0  0  3  0  0  0  0  0  0
   37.3820   30.7450   42.7100 H   0  0  0  0  0  0  0  0  0  0  0  0
   38.7130   30.1220   44.2200 C   0  0  0  0  0  2  0  0  0  0  0  0
   38.9630   30.1810   45.7130 C   0  0  0  0  0  2  0  0  0  0  0  0
  1  5  1  0  0  0  0
  2  6  1  6  0  0  0
  2  1  1  0  0  0  0
  2  3  1  0  0  0  0
  3  8  1  0  0  0  0
  3  4  1  0  0  0  0
  4  9  1  0  0  0  0
  4 10  1  0  0  0  0
  5 12  1  0  0  0  0
  5  4  1  0  0  0  0
  7  3  1  0  0  0  0
 11  5  1  0  0  0  0
 13 18  1  0  0  0  0
 13  1  1  0  0  0  0
 14 13  2  0  0  0  0
 15 16  2  0  0  0  0
 15 14  1  0  0  0  0
 16 17  1  0  0  0  0
 17 21  1  0  0  0  0
 17 18  2  0  0  0  0
 19 14  1  0  0  0  0
 20 15  1  0  0  0  0
 22 23  2  0  0  0  0
 22  2  1  0  0  0  0
 24 22  1  0  0  0  0
 25 24  1  0  0  0  0
 26 25  1  0  0  0  0
 27 26  1  0  0  0  0
 27 29  1  0  0  0  0
 28 27  1  0  0  0  0
 29 30  1  0  0  0  0
 30 24  1  0  0  0  0
M  END
>  <minimizedAffinity>
-5.31402874

>  <minimizedRMSD>
1.44113648

$$$$
