
 OpenBabel03272508423D

 18 19  0  0  0  0  0  0  0  0999 V2000
   37.5210   30.0160   51.2100 C   0  0  0  0  0  0  0  0  0  0  0  0
   38.5020   30.6400   50.4280 C   0  0  0  0  0  0  0  0  0  0  0  0
   38.1090   31.1850   49.2080 C   0  0  0  0  0  0  0  0  0  0  0  0
   36.7980   31.0790   48.8480 N   0  0  0  0  0  0  0  0  0  0  0  0
   35.8850   30.4700   49.6330 C   0  0  0  0  0  0  0  0  0  0  0  0
   36.2360   29.9420   50.8030 N   0  0  0  0  0  0  0  0  0  0  0  0
   37.8370   29.5880   52.1720 H   0  0  0  0  0  0  0  0  0  0  0  0
   39.5120   30.6650   50.8130 H   0  0  0  0  0  0  0  0  0  0  0  0
   38.8540   31.6670   48.5960 H   0  0  0  0  0  0  0  0  0  0  0  0
   34.4890   30.3530   49.2580 C   0  0  0  0  0  0  0  0  0  0  0  0
   33.5770   31.1000   49.7190 O   0  0  0  0  0  0  0  0  0  0  0  0
   33.9250   29.4190   48.3440 N   0  0  0  0  0  0  0  0  0  0  0  0
   33.4830   28.1640   48.9240 C   0  0  0  0  0  2  0  0  0  0  0  0
   34.3360   27.1080   48.2120 C   0  0  0  0  0  2  0  0  0  0  0  0
   33.7860   27.0690   46.8060 C   0  0  0  0  0  3  0  0  0  0  0  0
   34.3310   26.2740   46.2550 H   0  0  0  0  0  0  0  0  0  0  0  0
   34.0340   28.3720   46.0970 C   0  0  0  0  0  2  0  0  0  0  0  0
   33.7500   29.5850   46.9280 C   0  0  0  0  0  2  0  0  0  0  0  0
  1  7  1  0  0  0  0
  2  8  1  0  0  0  0
  2  1  2  0  0  0  0
  3  2  1  0  0  0  0
  4  3  2  0  0  0  0
  4  5  1  0  0  0  0
  5  6  2  0  0  0  0
  6  1  1  0  0  0  0
  9  3  1  0  0  0  0
 10  5  1  0  0  0  0
 10 11  2  0  0  0  0
 12 13  1  0  0  0  0
 12 10  1  0  0  0  0
 14 13  1  0  0  0  0
 15 14  1  0  0  0  0
 16 15  1  0  0  0  0
 17 15  1  0  0  0  0
 17 18  1  0  0  0  0
 18 12  1  0  0  0  0
M  END
>  <minimizedAffinity>
-2.81605172

>  <minimizedRMSD>
2.45781422

$$$$
