
 OpenBabel03272507273D

 37 39  0  0  1  0  0  0  0  0999 V2000
   36.9520   29.3360   50.2920 C   0  0  0  0  0  0  0  0  0  0  0  0
   37.7550   30.0650   49.3910 C   0  0  0  0  0  0  0  0  0  0  0  0
   37.2080   30.3840   48.1400 C   0  0  0  0  0  0  0  0  0  0  0  0
   35.9630   29.9830   47.8780 N   0  0  0  0  0  0  0  0  0  0  0  0
   35.2230   29.2880   48.7620 C   0  0  0  0  0  0  0  0  0  0  0  0
   35.7180   28.9710   49.9570 N   0  0  0  0  0  0  0  0  0  0  0  0
   37.9650   31.1060   47.2030 N   0  0  0  0  0  0  0  0  0  0  0  0
   39.0250   32.0710   47.5190 C   0  0  0  0  0  0  0  0  0  0  0  0
   39.3960   32.7510   46.2440 C   0  0  0  0  0  0  0  0  0  0  0  0
   38.2230   32.4790   45.3770 C   0  0  0  0  0  0  0  0  0  0  0  0
   37.8830   31.0680   45.7730 C   0  0  2  0  0  0  0  0  0  0  0  0
   37.3530   29.0860   51.2470 H   0  0  0  0  0  0  0  0  0  0  0  0
   38.7650   30.3700   49.6500 H   0  0  0  0  0  0  0  0  0  0  0  0
   34.2250   29.0190   48.4310 H   0  0  0  0  0  0  0  0  0  0  0  0
   38.5910   32.7370   48.2760 H   0  0  0  0  0  0  0  0  0  0  0  0
   39.8630   31.5260   47.9890 H   0  0  0  0  0  0  0  0  0  0  0  0
   40.3800   32.4980   45.8330 H   0  0  0  0  0  0  0  0  0  0  0  0
   39.4690   33.8520   46.4890 H   0  0  0  0  0  0  0  0  0  0  0  0
   37.3870   33.1250   45.6330 H   0  0  0  0  0  0  0  0  0  0  0  0
   38.4490   32.5580   44.2930 H   0  0  0  0  0  0  0  0  0  0  0  0
   36.6110   30.5780   45.1620 C   0  0  0  0  0  0  0  0  0  0  0  0
   35.5870   30.9990   46.0000 F   0  0  0  0  0  0  0  0  0  0  0  0
   36.4980   29.2280   45.0250 F   0  0  0  0  0  0  0  0  0  0  0  0
   36.4540   31.2790   43.9750 F   0  0  0  0  0  0  0  0  0  0  0  0
   38.9860   30.1710   45.3300 C   0  0  0  0  0  0  0  0  0  0  0  0
   38.7900   29.1990   45.8310 H   0  0  0  0  0  0  0  0  0  0  0  0
   39.9200   30.5630   45.8370 H   0  0  0  0  0  0  0  0  0  0  0  0
   39.1510   30.3840   44.1150 O   0  0  0  0  0  0  0  0  0  0  0  0
   39.4640   29.6670   43.0090 C   0  0  0  0  0  0  0  0  0  0  0  0
   38.5210   29.7690   42.1870 O   0  0  0  0  0  0  0  0  0  0  0  0
   40.3520   28.8380   42.2970 N   0  0  0  0  0  0  0  0  0  0  0  0
   39.8530   27.5320   41.9200 C   0  0  0  0  0  2  0  0  0  0  0  0
   40.3430   27.1170   40.5530 C   0  0  0  0  0  2  0  0  0  0  0  0
   40.5230   28.3690   39.7290 C   0  0  0  0  0  3  0  0  0  0  0  0
   40.7880   28.0820   38.6890 H   0  0  0  0  0  0  0  0  0  0  0  0
   41.7310   29.0840   40.3020 C   0  0  0  0  0  2  0  0  0  0  0  0
   41.7330   28.9460   41.8020 C   0  0  0  0  0  2  0  0  0  0  0  0
  1 12  1  0  0  0  0
  2 13  1  0  0  0  0
  2  1  2  0  0  0  0
  3  2  1  0  0  0  0
  4  3  2  0  0  0  0
  4  5  1  0  0  0  0
  5  6  2  0  0  0  0
  6  1  1  0  0  0  0
  7  8  1  0  0  0  0
  7  3  1  0  0  0  0
  8 16  1  0  0  0  0
  8 15  1  0  0  0  0
  9 18  1  0  0  0  0
  9  8  1  0  0  0  0
 10 19  1  0  0  0  0
 10 11  1  0  0  0  0
 10  9  1  0  0  0  0
 11 21  1  6  0  0  0
 11  7  1  0  0  0  0
 14  5  1  0  0  0  0
 17  9  1  0  0  0  0
 20 10  1  0  0  0  0
 21 22  1  0  0  0  0
 23 21  1  0  0  0  0
 24 21  1  0  0  0  0
 25 11  1  0  0  0  0
 25 26  1  0  0  0  0
 25 27  1  0  0  0  0
 28 25  1  0  0  0  0
 29 28  1  0  0  0  0
 30 29  2  0  0  0  0
 31 29  1  0  0  0  0
 32 31  1  0  0  0  0
 33 32  1  0  0  0  0
 34 36  1  0  0  0  0
 34 33  1  0  0  0  0
 35 34  1  0  0  0  0
 36 37  1  0  0  0  0
 37 31  1  0  0  0  0
M  END
>  <minimizedAffinity>
-5.17652559

>  <minimizedRMSD>
1.59982073

$$$$
