
     RDKit          3D

 27 28  0  0  0  0  0  0  0  0999 V2000
   37.2668   30.1815   51.4184 C   0  0  0  0  0  0  0  0  0  0  0  0
   38.0967   30.7586   50.4469 C   0  0  0  0  0  0  0  0  0  0  0  0
   37.8081   30.4987   49.1100 C   0  0  0  0  0  0  0  0  0  0  0  0
   36.7392   29.7011   48.8255 N   0  0  0  0  0  0  0  0  0  0  0  0
   35.9646   29.1645   49.7922 C   0  0  0  0  0  0  0  0  0  0  0  0
   36.2213   29.3990   51.0765 N   0  0  0  0  0  0  0  0  0  0  0  0
   34.8268   28.3157   49.4982 C   0  0  0  0  0  0  0  0  0  0  0  0
   33.6265   28.7139   49.5512 O   0  0  0  0  0  0  0  0  0  0  0  0
   37.4998   30.3904   52.4719 H   0  0  0  0  0  0  0  0  0  0  0  0
   38.9169   31.3751   50.7884 H   0  0  0  0  0  0  0  0  0  0  0  0
   38.4379   30.9360   48.3530 H   0  0  0  0  0  0  0  0  0  0  0  0
   34.8598   26.9457   49.1152 N   0  0  0  0  0  0  0  0  0  0  0  0
   35.5813   26.6547   47.8901 C   0  0  0  0  0  0  0  0  0  0  0  0
   34.5169   26.0416   46.9726 C   0  0  0  0  0  0  0  0  0  0  0  0
   34.2499   24.6784   47.5666 C   0  0  0  0  0  0  0  0  0  0  0  0
   33.5239   24.1609   46.9052 H   0  0  0  0  0  0  0  0  0  0  0  0
   33.6251   24.8007   48.9296 C   0  0  0  0  0  0  0  0  0  0  0  0
   34.2618   25.8360   49.8050 C   0  0  0  0  0  0  0  0  0  0  0  0
   36.0195   27.5208   47.4034 H   0  0  0  0  0  0  0  0  0  0  0  0
   36.3182   25.8306   48.0701 H   0  0  0  0  0  0  0  0  0  0  0  0
   34.8221   25.9739   45.9326 H   0  0  0  0  0  0  0  0  0  0  0  0
   33.5652   26.6161   47.0716 H   0  0  0  0  0  0  0  0  0  0  0  0
   35.1600   24.0503   47.5700 H   0  0  0  0  0  0  0  0  0  0  0  0
   32.5235   24.8995   48.8310 H   0  0  0  0  0  0  0  0  0  0  0  0
   33.7895   23.8085   49.4399 H   0  0  0  0  0  0  0  0  0  0  0  0
   35.0350   25.4035   50.4836 H   0  0  0  0  0  0  0  0  0  0  0  0
   33.4616   26.2448   50.4633 H   0  0  0  0  0  0  0  0  0  0  0  0
  2  1  2  0
  3  2  1  0
  4  3  2  0
  4  5  1  0
  5  6  2  0
  6  1  1  0
  7  8  2  0
  7  5  1  0
  1  9  1  0
  2 10  1  0
  3 11  1  0
 12 13  1  0
 13 14  1  0
 14 15  1  0
 15 16  1  0
 15 17  1  0
 17 18  1  0
 18 12  1  0
 13 19  1  0
 13 20  1  0
 14 21  1  0
 14 22  1  0
 15 23  1  0
 17 24  1  0
 17 25  1  0
 18 26  1  0
 18 27  1  0
  7 12  1  0
M  ISO  4   9  14  10  14  11  14  16  15
M  END
>  <DihAtoms>  (1) 
7,6,11,12

>  <DihDeg>  (1) 
-0.00045810759305365477

$$$$
