REMARK  Name = 
REMARK  4 active torsions:
REMARK  status: ('A' for Active; 'I' for Inactive)
REMARK    1  A    between atoms: C_11  and  C_12
REMARK    2  A    between atoms: C_11  and  C_16
REMARK    3  A    between atoms: C_16  and  O_17
REMARK    4  A    between atoms: O_17  and  C_18
REMARK                            x       y       z     vdW  Elec       q    Type
REMARK                         _______ _______ _______ _____ _____    ______ ____
ROOT
ATOM      1  C   UNL     1      36.679  29.914  49.041  0.00  0.00    +0.000 A 
ATOM      2  C   UNL     1      37.699  30.589  48.340  0.00  0.00    +0.000 A 
ATOM      3  C   UNL     1      37.471  30.895  46.991  0.00  0.00    +0.000 A 
ATOM      4  N   UNL     1      36.305  30.532  46.453  0.00  0.00    +0.000 NA
ATOM      5  C   UNL     1      35.352  29.888  47.151  0.00  0.00    +0.000 A 
ATOM      6  N   UNL     1      35.543  29.585  48.434  0.00  0.00    +0.000 NA
ATOM      7  N   UNL     1      38.453  31.565  46.244  0.00  0.00    +0.000 N 
ATOM      8  C   UNL     1      39.450  32.499  46.782  0.00  0.00    +0.000 C 
ATOM      9  C   UNL     1      40.134  33.131  45.617  0.00  0.00    +0.000 C 
ATOM     10  C   UNL     1      39.185  32.879  44.505  0.00  0.00    +0.000 C 
ATOM     11  C   UNL     1      38.704  31.492  44.835  0.00  0.00    +0.000 C 
ATOM     12  H   UNL     1      36.837  29.674  50.068  0.00  0.00    +0.000 HD
ATOM     13  H   UNL     1      38.632  30.864  48.822  0.00  0.00    +0.000 HD
ATOM     14  H   UNL     1      34.448  29.646  46.602  0.00  0.00    +0.000 HD
ATOM     15  H   UNL     1      38.880  33.199  47.405  0.00  0.00    +0.000 HD
ATOM     16  H   UNL     1      40.133  31.936  47.443  0.00  0.00    +0.000 HD
ATOM     17  H   UNL     1      41.176  32.833  45.451  0.00  0.00    +0.000 HD
ATOM     18  H   UNL     1      40.194  34.235  45.853  0.00  0.00    +0.000 HD
ATOM     19  H   UNL     1      38.339  33.561  44.548  0.00  0.00    +0.000 HD
ATOM     20  H   UNL     1      39.659  32.922  43.502  0.00  0.00    +0.000 HD
ENDROOT
BRANCH  11  21
ATOM     21  C   UNL     1      37.590  31.033  43.953  0.00  0.00    +0.000 C 
ATOM     22  F   UNL     1      36.464  31.747  44.340  0.00  0.00    +0.000 F 
ATOM     23  F   UNL     1      37.279  29.709  44.027  0.00  0.00    +0.000 F 
ATOM     24  F   UNL     1      37.903  31.466  42.672  0.00  0.00    +0.000 F 
ENDBRANCH  11  21
BRANCH  11  25
ATOM     25  C   UNL     1      39.842  30.545  44.676  0.00  0.00    +0.000 C 
ATOM     26  H   UNL     1      39.471  29.575  45.071  0.00  0.00    +0.000 HD
ATOM     27  H   UNL     1      40.620  30.874  45.431  0.00  0.00    +0.000 HD
BRANCH  25  28
ATOM     28  O   UNL     1      40.342  30.774  43.560  0.00  0.00    +0.000 OA
BRANCH  28  29
ATOM     29  C   UNL     1      40.899  30.062  42.550  0.00  0.00    +0.000 C 
ATOM     30  O   UNL     1      40.646  30.643  41.467  0.00  0.00    +0.000 OA
ATOM     31  N   UNL     1      41.647  28.959  42.096  0.00  0.00    +0.000 N 
ATOM     32  C   UNL     1      41.331  28.468  40.771  0.00  0.00    +0.000 C 
ATOM     33  C   UNL     1      42.570  28.026  40.028  0.00  0.00    +0.000 C 
ATOM     34  C   UNL     1      43.723  28.875  40.505  0.00  0.00    +0.000 C 
ATOM     35  H   UNL     1      44.624  28.634  39.902  0.00  0.00    +0.000 HD
ATOM     36  C   UNL     1      44.019  28.427  41.924  0.00  0.00    +0.000 C 
ATOM     37  C   UNL     1      42.728  28.120  42.635  0.00  0.00    +0.000 C 
ENDBRANCH  28  29
ENDBRANCH  25  28
ENDBRANCH  11  25
TORSDOF 4
