
 OpenBabel03272507313D

 27 29  0  0  0  0  0  0  0  0999 V2000
   36.7010   25.5120   32.4160 C   0  0  0  0  0  0  0  0  0  0  0  0
   36.6840   26.8640   32.4920 C   0  0  0  0  0  0  0  0  0  0  0  0
   37.3710   27.2370   33.6490 C   0  0  0  0  0  0  0  0  0  0  0  0
   37.7790   26.0370   34.2260 C   0  0  0  0  0  0  0  0  0  0  0  0
   37.3530   25.0940   33.4540 O   0  0  0  0  0  0  0  0  0  0  0  0
   36.2260   27.5800   31.7920 H   0  0  0  0  0  0  0  0  0  0  0  0
   37.5680   28.2190   34.0480 H   0  0  0  0  0  0  0  0  0  0  0  0
   38.5430   25.9310   35.4760 C   0  0  0  0  0  0  0  0  0  0  0  0
   39.0890   26.9590   35.9660 O   0  0  0  0  0  0  0  0  0  0  0  0
   38.6660   24.6740   36.1250 N   0  0  0  0  0  0  0  0  0  0  0  0
   39.7890   23.7640   36.2000 C   0  0  0  0  0  2  0  0  0  0  0  0
   39.7520   22.8540   37.3690 C   0  0  0  0  0  2  0  0  0  0  0  0
   39.0630   23.3740   38.5770 C   0  0  0  0  0  3  0  0  0  0  0  0
   38.6160   22.4730   39.0920 H   0  0  0  0  0  0  0  0  0  0  0  0
   37.9160   24.3120   38.3130 C   0  0  0  0  0  2  0  0  0  0  0  0
   37.5350   24.1350   36.8560 C   0  0  0  0  0  2  0  0  0  0  0  0
   36.0790   24.7790   31.3370 C   0  0  0  0  0  0  0  0  0  0  0  0
   35.1780   25.3460   30.6760 O   0  0  0  0  0  0  0  0  0  0  0  0
   36.5370   23.4330   31.0880 C   0  0  0  0  0  0  0  0  0  0  0  0
   35.6240   22.4060   31.2920 C   0  0  0  0  0  0  0  0  0  0  0  0
   36.0440   21.0990   31.0580 C   0  0  0  0  0  0  0  0  0  0  0  0
   37.3330   20.8990   30.6390 N   0  0  0  0  0  0  0  0  0  0  0  0
   38.2000   21.9160   30.4490 C   0  0  0  0  0  0  0  0  0  0  0  0
   37.8000   23.1720   30.6730 N   0  0  0  0  0  0  0  0  0  0  0  0
   34.6170   22.5760   31.6190 H   0  0  0  0  0  0  0  0  0  0  0  0
   35.3590   20.2740   31.2060 H   0  0  0  0  0  0  0  0  0  0  0  0
   39.1780   21.6280   30.1210 H   0  0  0  0  0  0  0  0  0  0  0  0
  1  2  2  0  0  0  0
  1  5  1  0  0  0  0
  2  3  1  0  0  0  0
  3  7  1  0  0  0  0
  3  4  2  0  0  0  0
  4  8  1  0  0  0  0
  5  4  1  0  0  0  0
  6  2  1  0  0  0  0
  8  9  2  0  0  0  0
  8 10  1  0  0  0  0
 10 11  1  0  0  0  0
 10 16  1  0  0  0  0
 11 12  1  0  0  0  0
 12 13  1  0  0  0  0
 13 14  1  0  0  0  0
 15 13  1  0  0  0  0
 16 15  1  0  0  0  0
 17  1  1  0  0  0  0
 18 17  2  0  0  0  0
 19 20  1  0  0  0  0
 19 17  1  0  0  0  0
 20 25  1  0  0  0  0
 21 26  1  0  0  0  0
 21 20  2  0  0  0  0
 22 21  1  0  0  0  0
 23 22  2  0  0  0  0
 23 24  1  0  0  0  0
 24 19  2  0  0  0  0
 27 23  1  0  0  0  0
M  END
>  <minimizedAffinity>
-5.79532671

$$$$

 OpenBabel03272507313D

 27 29  0  0  0  0  0  0  0  0999 V2000
   36.7010   25.6860   32.2900 C   0  0  0  0  0  0  0  0  0  0  0  0
   37.1890   24.4370   32.1010 C   0  0  0  0  0  0  0  0  0  0  0  0
   37.9980   24.1230   33.1960 C   0  0  0  0  0  0  0  0  0  0  0  0
   37.9460   25.2480   34.0140 C   0  0  0  0  0  0  0  0  0  0  0  0
   37.1790   26.1010   33.4200 O   0  0  0  0  0  0  0  0  0  0  0  0
   37.0080   23.7550   31.2550 H   0  0  0  0  0  0  0  0  0  0  0  0
   38.5560   23.2250   33.4050 H   0  0  0  0  0  0  0  0  0  0  0  0
   38.6530   25.3800   35.2940 C   0  0  0  0  0  0  0  0  0  0  0  0
   39.1550   26.4910   35.6220 O   0  0  0  0  0  0  0  0  0  0  0  0
   38.7670   24.2570   36.1570 N   0  0  0  0  0  0  0  0  0  0  0  0
   39.9020   23.4030   36.4370 C   0  0  0  0  0  2  0  0  0  0  0  0
   39.8270   22.7080   37.7440 C   0  0  0  0  0  2  0  0  0  0  0  0
   39.0720   23.4100   38.8130 C   0  0  0  0  0  3  0  0  0  0  0  0
   38.6180   22.6000   39.4560 H   0  0  0  0  0  0  0  0  0  0  0  0
   37.9210   24.2580   38.3400 C   0  0  0  0  0  2  0  0  0  0  0  0
   37.6130   23.8230   36.9210 C   0  0  0  0  0  2  0  0  0  0  0  0
   35.8200   26.3350   31.3450 C   0  0  0  0  0  0  0  0  0  0  0  0
   34.9750   25.6330   30.7430 O   0  0  0  0  0  0  0  0  0  0  0  0
   35.9730   27.7570   31.1540 C   0  0  0  0  0  0  0  0  0  0  0  0
   36.8290   28.1710   30.1400 C   0  0  0  0  0  0  0  0  0  0  0  0
   36.9920   29.5390   29.9370 C   0  0  0  0  0  0  0  0  0  0  0  0
   36.2990   30.4010   30.7470 N   0  0  0  0  0  0  0  0  0  0  0  0
   35.4730   29.9710   31.7240 C   0  0  0  0  0  0  0  0  0  0  0  0
   35.3150   28.6580   31.9220 N   0  0  0  0  0  0  0  0  0  0  0  0
   37.3650   27.4860   29.5130 H   0  0  0  0  0  0  0  0  0  0  0  0
   37.6510   29.8970   29.1570 H   0  0  0  0  0  0  0  0  0  0  0  0
   34.9900   30.7430   32.2870 H   0  0  0  0  0  0  0  0  0  0  0  0
  1  5  1  0  0  0  0
  2  1  2  0  0  0  0
  2  3  1  0  0  0  0
  3  7  1  0  0  0  0
  3  4  2  0  0  0  0
  4  8  1  0  0  0  0
  5  4  1  0  0  0  0
  6  2  1  0  0  0  0
  8  9  2  0  0  0  0
  8 10  1  0  0  0  0
 10 11  1  0  0  0  0
 10 16  1  0  0  0  0
 11 12  1  0  0  0  0
 12 13  1  0  0  0  0
 13 14  1  0  0  0  0
 15 13  1  0  0  0  0
 16 15  1  0  0  0  0
 17  1  1  0  0  0  0
 18 17  2  0  0  0  0
 19 17  1  0  0  0  0
 19 24  1  0  0  0  0
 20 19  2  0  0  0  0
 21 20  1  0  0  0  0
 21 22  2  0  0  0  0
 22 23  1  0  0  0  0
 23 24  2  0  0  0  0
 23 27  1  0  0  0  0
 25 20  1  0  0  0  0
 26 21  1  0  0  0  0
M  END
>  <minimizedAffinity>
-5.5487833

$$$$

 OpenBabel03272507313D

 27 29  0  0  0  0  0  0  0  0999 V2000
   37.4860   24.1250   32.0620 C   0  0  0  0  0  0  0  0  0  0  0  0
   36.8400   25.3140   32.1290 C   0  0  0  0  0  0  0  0  0  0  0  0
   37.1910   25.9240   33.3350 C   0  0  0  0  0  0  0  0  0  0  0  0
   38.0640   25.0300   33.9490 C   0  0  0  0  0  0  0  0  0  0  0  0
   38.1800   24.0220   33.1500 O   0  0  0  0  0  0  0  0  0  0  0  0
   36.1540   25.7600   31.3910 H   0  0  0  0  0  0  0  0  0  0  0  0
   36.8820   26.8730   33.7430 H   0  0  0  0  0  0  0  0  0  0  0  0
   38.6980   25.2490   35.2550 C   0  0  0  0  0  0  0  0  0  0  0  0
   39.1260   26.3970   35.5600 O   0  0  0  0  0  0  0  0  0  0  0  0
   38.8260   24.1690   36.1680 N   0  0  0  0  0  0  0  0  0  0  0  0
   39.9870   23.3880   36.5380 C   0  0  0  0  0  2  0  0  0  0  0  0
   39.8820   22.7410   37.8680 C   0  0  0  0  0  2  0  0  0  0  0  0
   39.0410   23.4440   38.8690 C   0  0  0  0  0  3  0  0  0  0  0  0
   38.5970   22.6370   39.5230 H   0  0  0  0  0  0  0  0  0  0  0  0
   37.8740   24.2110   38.3070 C   0  0  0  0  0  2  0  0  0  0  0  0
   37.6590   23.7040   36.8940 C   0  0  0  0  0  2  0  0  0  0  0  0
   37.3530   23.2230   30.9400 C   0  0  0  0  0  0  0  0  0  0  0  0
   37.8610   23.5590   29.8450 O   0  0  0  0  0  0  0  0  0  0  0  0
   36.6390   21.9870   31.1550 C   0  0  0  0  0  0  0  0  0  0  0  0
   35.5480   22.0280   32.0150 C   0  0  0  0  0  0  0  0  0  0  0  0
   34.8440   20.8480   32.2370 C   0  0  0  0  0  0  0  0  0  0  0  0
   35.2650   19.7120   31.5950 N   0  0  0  0  0  0  0  0  0  0  0  0
   36.3280   19.7010   30.7650 C   0  0  0  0  0  0  0  0  0  0  0  0
   37.0070   20.8330   30.5490 N   0  0  0  0  0  0  0  0  0  0  0  0
   35.2290   22.9240   32.5100 H   0  0  0  0  0  0  0  0  0  0  0  0
   33.9880   20.8420   32.9010 H   0  0  0  0  0  0  0  0  0  0  0  0
   36.5560   18.7510   30.3250 H   0  0  0  0  0  0  0  0  0  0  0  0
  1  2  2  0  0  0  0
  1  5  1  0  0  0  0
  2  3  1  0  0  0  0
  3  7  1  0  0  0  0
  3  4  2  0  0  0  0
  4  8  1  0  0  0  0
  5  4  1  0  0  0  0
  6  2  1  0  0  0  0
  8  9  2  0  0  0  0
  8 10  1  0  0  0  0
 10 11  1  0  0  0  0
 10 16  1  0  0  0  0
 11 12  1  0  0  0  0
 12 13  1  0  0  0  0
 13 14  1  0  0  0  0
 15 13  1  0  0  0  0
 16 15  1  0  0  0  0
 17 19  1  0  0  0  0
 17  1  1  0  0  0  0
 18 17  2  0  0  0  0
 19 20  1  0  0  0  0
 20 21  2  0  0  0  0
 20 25  1  0  0  0  0
 21 26  1  0  0  0  0
 22 21  1  0  0  0  0
 23 22  2  0  0  0  0
 24 23  1  0  0  0  0
 24 19  2  0  0  0  0
 27 23  1  0  0  0  0
M  END
>  <minimizedAffinity>
-5.38993597

$$$$

 OpenBabel03272507313D

 27 29  0  0  0  0  0  0  0  0999 V2000
   37.7280   27.2100   34.4350 C   0  0  0  0  0  0  0  0  0  0  0  0
   37.3960   27.1550   33.1230 C   0  0  0  0  0  0  0  0  0  0  0  0
   36.3660   28.0710   32.9030 C   0  0  0  0  0  0  0  0  0  0  0  0
   36.1280   28.6490   34.1470 C   0  0  0  0  0  0  0  0  0  0  0  0
   36.9540   28.0980   34.9730 O   0  0  0  0  0  0  0  0  0  0  0  0
   37.8320   26.5200   32.3360 H   0  0  0  0  0  0  0  0  0  0  0  0
   35.8410   28.3130   31.9930 H   0  0  0  0  0  0  0  0  0  0  0  0
   35.1160   29.6820   34.4070 C   0  0  0  0  0  0  0  0  0  0  0  0
   33.8920   29.3710   34.4190 O   0  0  0  0  0  0  0  0  0  0  0  0
   35.5200   31.0230   34.6410 N   0  0  0  0  0  0  0  0  0  0  0  0
   35.4510   32.1860   33.7830 C   0  0  0  0  0  2  0  0  0  0  0  0
   35.4430   33.4760   34.5120 C   0  0  0  0  0  2  0  0  0  0  0  0
   34.8500   33.4520   35.8720 C   0  0  0  0  0  3  0  0  0  0  0  0
   35.4080   34.2320   36.4690 H   0  0  0  0  0  0  0  0  0  0  0  0
   35.0140   32.1590   36.6250 C   0  0  0  0  0  2  0  0  0  0  0  0
   36.1060   31.3790   35.9190 C   0  0  0  0  0  2  0  0  0  0  0  0
   38.7660   26.3890   35.0160 C   0  0  0  0  0  0  0  0  0  0  0  0
   39.9090   26.8850   35.1520 O   0  0  0  0  0  0  0  0  0  0  0  0
   38.4180   25.0430   35.4040 C   0  0  0  0  0  0  0  0  0  0  0  0
   37.9890   24.8530   36.7120 C   0  0  0  0  0  0  0  0  0  0  0  0
   37.6470   23.5630   37.1090 C   0  0  0  0  0  0  0  0  0  0  0  0
   37.7530   22.5530   36.1890 N   0  0  0  0  0  0  0  0  0  0  0  0
   38.1730   22.7660   34.9240 C   0  0  0  0  0  0  0  0  0  0  0  0
   38.5020   24.0040   34.5400 N   0  0  0  0  0  0  0  0  0  0  0  0
   37.9100   25.6520   37.4230 H   0  0  0  0  0  0  0  0  0  0  0  0
   37.3090   23.3780   38.1210 H   0  0  0  0  0  0  0  0  0  0  0  0
   38.2130   21.8950   34.3020 H   0  0  0  0  0  0  0  0  0  0  0  0
  1  5  1  0  0  0  0
  1 17  1  0  0  0  0
  2  1  2  0  0  0  0
  3  2  1  0  0  0  0
  3  4  2  0  0  0  0
  4  8  1  0  0  0  0
  4  5  1  0  0  0  0
  6  2  1  0  0  0  0
  7  3  1  0  0  0  0
  8  9  2  0  0  0  0
  8 10  1  0  0  0  0
 10 16  1  0  0  0  0
 11 12  1  0  0  0  0
 11 10  1  0  0  0  0
 12 13  1  0  0  0  0
 13 14  1  0  0  0  0
 13 15  1  0  0  0  0
 16 15  1  0  0  0  0
 17 18  2  0  0  0  0
 17 19  1  0  0  0  0
 19 20  1  0  0  0  0
 20 21  2  0  0  0  0
 20 25  1  0  0  0  0
 21 26  1  0  0  0  0
 22 21  1  0  0  0  0
 23 22  2  0  0  0  0
 24 23  1  0  0  0  0
 24 19  2  0  0  0  0
 27 23  1  0  0  0  0
M  END
>  <minimizedAffinity>
-5.32555771

$$$$

 OpenBabel03272507313D

 27 29  0  0  0  0  0  0  0  0999 V2000
   37.1690   27.2530   34.4680 C   0  0  0  0  0  0  0  0  0  0  0  0
   37.9410   27.5590   35.5380 C   0  0  0  0  0  0  0  0  0  0  0  0
   38.5430   26.3790   35.9830 C   0  0  0  0  0  0  0  0  0  0  0  0
   38.0780   25.3920   35.1180 C   0  0  0  0  0  0  0  0  0  0  0  0
   37.2930   25.9790   34.2770 O   0  0  0  0  0  0  0  0  0  0  0  0
   38.0980   28.5430   36.0070 H   0  0  0  0  0  0  0  0  0  0  0  0
   39.2210   26.2190   36.8050 H   0  0  0  0  0  0  0  0  0  0  0  0
   38.4460   23.9730   35.2000 C   0  0  0  0  0  0  0  0  0  0  0  0
   37.7840   23.1150   34.5520 O   0  0  0  0  0  0  0  0  0  0  0  0
   39.5440   23.5730   36.0080 N   0  0  0  0  0  0  0  0  0  0  0  0
   39.5680   22.9150   37.2970 C   0  0  0  0  0  2  0  0  0  0  0  0
   40.8240   22.1800   37.5770 C   0  0  0  0  0  2  0  0  0  0  0  0
   41.5430   21.6440   36.3930 C   0  0  0  0  0  3  0  0  0  0  0  0
   42.6400   21.6650   36.6590 H   0  0  0  0  0  0  0  0  0  0  0  0
   41.4070   22.4560   35.1330 C   0  0  0  0  0  2  0  0  0  0  0  0
   40.8970   23.8220   35.5480 C   0  0  0  0  0  2  0  0  0  0  0  0
   36.3960   28.2430   33.7510 C   0  0  0  0  0  0  0  0  0  0  0  0
   35.4490   28.8040   34.3490 O   0  0  0  0  0  0  0  0  0  0  0  0
   36.7670   28.5210   32.3840 C   0  0  0  0  0  0  0  0  0  0  0  0
   36.0200   29.4800   31.7090 C   0  0  0  0  0  0  0  0  0  0  0  0
   36.3590   29.7660   30.3900 C   0  0  0  0  0  0  0  0  0  0  0  0
   37.4100   29.0870   29.8300 N   0  0  0  0  0  0  0  0  0  0  0  0
   38.1180   28.1600   30.5090 C   0  0  0  0  0  0  0  0  0  0  0  0
   37.7950   27.8830   31.7770 N   0  0  0  0  0  0  0  0  0  0  0  0
   35.2000   30.0040   32.1600 H   0  0  0  0  0  0  0  0  0  0  0  0
   35.8000   30.5070   29.8330 H   0  0  0  0  0  0  0  0  0  0  0  0
   38.9150   27.7000   29.9600 H   0  0  0  0  0  0  0  0  0  0  0  0
  1  2  2  0  0  0  0
  2  3  1  0  0  0  0
  2  6  1  0  0  0  0
  3  7  1  0  0  0  0
  4  8  1  0  0  0  0
  4  3  2  0  0  0  0
  5  1  1  0  0  0  0
  5  4  1  0  0  0  0
  8 10  1  0  0  0  0
  9  8  2  0  0  0  0
 10 11  1  0  0  0  0
 11 12  1  0  0  0  0
 13 14  1  0  0  0  0
 13 12  1  0  0  0  0
 15 16  1  0  0  0  0
 15 13  1  0  0  0  0
 16 10  1  0  0  0  0
 17 18  2  0  0  0  0
 17  1  1  0  0  0  0
 19 17  1  0  0  0  0
 20 25  1  0  0  0  0
 20 19  2  0  0  0  0
 21 20  1  0  0  0  0
 22 21  2  0  0  0  0
 22 23  1  0  0  0  0
 23 24  2  0  0  0  0
 24 19  1  0  0  0  0
 26 21  1  0  0  0  0
 27 23  1  0  0  0  0
M  END
>  <minimizedAffinity>
-5.32172918

$$$$

 OpenBabel03272507313D

 27 29  0  0  0  0  0  0  0  0999 V2000
   38.4280   25.0120   33.7270 C   0  0  0  0  0  0  0  0  0  0  0  0
   38.3780   25.7410   32.5870 C   0  0  0  0  0  0  0  0  0  0  0  0
   37.5480   25.0700   31.6850 C   0  0  0  0  0  0  0  0  0  0  0  0
   37.1290   23.9300   32.3650 C   0  0  0  0  0  0  0  0  0  0  0  0
   37.6800   23.9720   33.5310 O   0  0  0  0  0  0  0  0  0  0  0  0
   38.8830   26.6940   32.3650 H   0  0  0  0  0  0  0  0  0  0  0  0
   37.2650   25.3370   30.6800 H   0  0  0  0  0  0  0  0  0  0  0  0
   36.2310   22.9100   31.8060 C   0  0  0  0  0  0  0  0  0  0  0  0
   35.3970   23.2300   30.9130 O   0  0  0  0  0  0  0  0  0  0  0  0
   36.3060   21.5710   32.2720 N   0  0  0  0  0  0  0  0  0  0  0  0
   35.4240   20.8360   33.1540 C   0  0  0  0  0  2  0  0  0  0  0  0
   35.4940   19.3640   32.9890 C   0  0  0  0  0  2  0  0  0  0  0  0
   35.8570   18.8780   31.6340 C   0  0  0  0  0  3  0  0  0  0  0  0
   36.4170   17.9100   31.7910 H   0  0  0  0  0  0  0  0  0  0  0  0
   36.7840   19.7710   30.8540 C   0  0  0  0  0  2  0  0  0  0  0  0
   37.4080   20.7280   31.8500 C   0  0  0  0  0  2  0  0  0  0  0  0
   39.2000   25.4130   34.8810 C   0  0  0  0  0  0  0  0  0  0  0  0
   39.9110   26.4410   34.7910 O   0  0  0  0  0  0  0  0  0  0  0  0
   39.1030   24.5990   36.0690 C   0  0  0  0  0  0  0  0  0  0  0  0
   38.0870   24.9070   36.9650 C   0  0  0  0  0  0  0  0  0  0  0  0
   37.9730   24.1350   38.1180 C   0  0  0  0  0  0  0  0  0  0  0  0
   38.8690   23.1140   38.3050 N   0  0  0  0  0  0  0  0  0  0  0  0
   39.8470   22.8370   37.4170 C   0  0  0  0  0  0  0  0  0  0  0  0
   39.9590   23.5770   36.3090 N   0  0  0  0  0  0  0  0  0  0  0  0
   37.3920   25.7070   36.8070 H   0  0  0  0  0  0  0  0  0  0  0  0
   37.1930   24.3460   38.8390 H   0  0  0  0  0  0  0  0  0  0  0  0
   40.4830   22.0150   37.6780 H   0  0  0  0  0  0  0  0  0  0  0  0
  1 17  1  0  0  0  0
  2  1  2  0  0  0  0
  3  4  2  0  0  0  0
  3  2  1  0  0  0  0
  4  5  1  0  0  0  0
  5  1  1  0  0  0  0
  6  2  1  0  0  0  0
  7  3  1  0  0  0  0
  8 10  1  0  0  0  0
  8  4  1  0  0  0  0
  9  8  2  0  0  0  0
 10 11  1  0  0  0  0
 12 11  1  0  0  0  0
 13 14  1  0  0  0  0
 13 12  1  0  0  0  0
 15 13  1  0  0  0  0
 15 16  1  0  0  0  0
 16 10  1  0  0  0  0
 17 19  1  0  0  0  0
 18 17  2  0  0  0  0
 19 24  2  0  0  0  0
 19 20  1  0  0  0  0
 20 21  2  0  0  0  0
 21 22  1  0  0  0  0
 21 26  1  0  0  0  0
 23 27  1  0  0  0  0
 23 22  2  0  0  0  0
 24 23  1  0  0  0  0
 25 20  1  0  0  0  0
M  END
>  <minimizedAffinity>
-5.20041132

$$$$

 OpenBabel03272507313D

 27 29  0  0  0  0  0  0  0  0999 V2000
   35.9070   28.5760   33.7450 C   0  0  0  0  0  0  0  0  0  0  0  0
   36.5140   28.2630   32.5760 C   0  0  0  0  0  0  0  0  0  0  0  0
   37.6240   27.4660   32.8690 C   0  0  0  0  0  0  0  0  0  0  0  0
   37.6190   27.3410   34.2550 C   0  0  0  0  0  0  0  0  0  0  0  0
   36.6000   28.0080   34.6820 O   0  0  0  0  0  0  0  0  0  0  0  0
   36.2230   28.5590   31.5560 H   0  0  0  0  0  0  0  0  0  0  0  0
   38.3500   27.0250   32.2050 H   0  0  0  0  0  0  0  0  0  0  0  0
   38.6120   26.5820   35.0260 C   0  0  0  0  0  0  0  0  0  0  0  0
   39.6390   27.1650   35.4720 O   0  0  0  0  0  0  0  0  0  0  0  0
   38.4120   25.1960   35.2650 N   0  0  0  0  0  0  0  0  0  0  0  0
   39.0480   24.0410   34.6680 C   0  0  0  0  0  2  0  0  0  0  0  0
   39.0020   22.8230   35.5110 C   0  0  0  0  0  2  0  0  0  0  0  0
   38.9690   23.0470   36.9790 C   0  0  0  0  0  3  0  0  0  0  0  0
   38.3760   22.1890   37.4110 H   0  0  0  0  0  0  0  0  0  0  0  0
   38.2670   24.3020   37.4240 C   0  0  0  0  0  2  0  0  0  0  0  0
   37.4330   24.7750   36.2500 C   0  0  0  0  0  2  0  0  0  0  0  0
   34.7180   29.3930   33.8170 C   0  0  0  0  0  0  0  0  0  0  0  0
   33.8310   29.2280   32.9480 O   0  0  0  0  0  0  0  0  0  0  0  0
   34.6270   30.3530   34.8910 C   0  0  0  0  0  0  0  0  0  0  0  0
   35.7520   31.1300   35.1420 C   0  0  0  0  0  0  0  0  0  0  0  0
   35.6880   32.0630   36.1730 C   0  0  0  0  0  0  0  0  0  0  0  0
   34.5200   32.1630   36.8840 N   0  0  0  0  0  0  0  0  0  0  0  0
   33.4430   31.3950   36.6190 C   0  0  0  0  0  0  0  0  0  0  0  0
   33.5010   30.4980   35.6290 N   0  0  0  0  0  0  0  0  0  0  0  0
   36.6590   31.0420   34.5780 H   0  0  0  0  0  0  0  0  0  0  0  0
   36.5450   32.6850   36.3970 H   0  0  0  0  0  0  0  0  0  0  0  0
   32.5910   31.5690   37.2460 H   0  0  0  0  0  0  0  0  0  0  0  0
  1 17  1  0  0  0  0
  1  5  1  0  0  0  0
  2  3  1  0  0  0  0
  2  1  2  0  0  0  0
  3  4  2  0  0  0  0
  4  5  1  0  0  0  0
  4  8  1  0  0  0  0
  6  2  1  0  0  0  0
  7  3  1  0  0  0  0
  8 10  1  0  0  0  0
  8  9  2  0  0  0  0
 10 16  1  0  0  0  0
 11 10  1  0  0  0  0
 11 12  1  0  0  0  0
 12 13  1  0  0  0  0
 13 14  1  0  0  0  0
 13 15  1  0  0  0  0
 16 15  1  0  0  0  0
 17 19  1  0  0  0  0
 18 17  2  0  0  0  0
 19 20  2  0  0  0  0
 19 24  1  0  0  0  0
 20 21  1  0  0  0  0
 21 26  1  0  0  0  0
 21 22  2  0  0  0  0
 23 22  1  0  0  0  0
 23 27  1  0  0  0  0
 24 23  2  0  0  0  0
 25 20  1  0  0  0  0
M  END
>  <minimizedAffinity>
-5.17708635

$$$$

 OpenBabel03272507313D

 27 29  0  0  0  0  0  0  0  0999 V2000
   38.2020   25.2810   35.1190 C   0  0  0  0  0  0  0  0  0  0  0  0
   38.3240   24.5200   36.2320 C   0  0  0  0  0  0  0  0  0  0  0  0
   38.2560   23.1800   35.8440 C   0  0  0  0  0  0  0  0  0  0  0  0
   38.0900   23.2140   34.4630 C   0  0  0  0  0  0  0  0  0  0  0  0
   38.0690   24.4610   34.1260 O   0  0  0  0  0  0  0  0  0  0  0  0
   38.4560   24.8520   37.2740 H   0  0  0  0  0  0  0  0  0  0  0  0
   38.3150   22.2850   36.4430 H   0  0  0  0  0  0  0  0  0  0  0  0
   37.9680   22.0260   33.6080 C   0  0  0  0  0  0  0  0  0  0  0  0
   38.9770   21.2940   33.4030 O   0  0  0  0  0  0  0  0  0  0  0  0
   36.7170   21.7070   33.0170 N   0  0  0  0  0  0  0  0  0  0  0  0
   36.2610   21.8530   31.6510 C   0  0  0  0  0  2  0  0  0  0  0  0
   35.1490   20.9450   31.2840 C   0  0  0  0  0  2  0  0  0  0  0  0
   35.1010   19.6490   32.0070 C   0  0  0  0  0  3  0  0  0  0  0  0
   34.0080   19.3750   32.0810 H   0  0  0  0  0  0  0  0  0  0  0  0
   35.6170   19.6790   33.4210 C   0  0  0  0  0  2  0  0  0  0  0  0
   35.6650   21.1360   33.8370 C   0  0  0  0  0  2  0  0  0  0  0  0
   38.2290   26.7260   35.1500 C   0  0  0  0  0  0  0  0  0  0  0  0
   38.9000   27.2880   36.0470 O   0  0  0  0  0  0  0  0  0  0  0  0
   37.4760   27.4330   34.1420 C   0  0  0  0  0  0  0  0  0  0  0  0
   37.9640   27.3870   32.8410 C   0  0  0  0  0  0  0  0  0  0  0  0
   37.2540   28.0610   31.8510 C   0  0  0  0  0  0  0  0  0  0  0  0
   36.1150   28.7310   32.2130 N   0  0  0  0  0  0  0  0  0  0  0  0
   35.6640   28.7590   33.4850 C   0  0  0  0  0  0  0  0  0  0  0  0
   36.3430   28.1120   34.4380 N   0  0  0  0  0  0  0  0  0  0  0  0
   38.8560   26.8580   32.5710 H   0  0  0  0  0  0  0  0  0  0  0  0
   37.6050   28.0480   30.8270 H   0  0  0  0  0  0  0  0  0  0  0  0
   34.7630   29.3170   33.6390 H   0  0  0  0  0  0  0  0  0  0  0  0
  1 17  1  0  0  0  0
  1  2  2  0  0  0  0
  2  6  1  0  0  0  0
  3  2  1  0  0  0  0
  3  7  1  0  0  0  0
  4  3  2  0  0  0  0
  5  4  1  0  0  0  0
  5  1  1  0  0  0  0
  8  4  1  0  0  0  0
  9  8  2  0  0  0  0
 10  8  1  0  0  0  0
 10 16  1  0  0  0  0
 11 10  1  0  0  0  0
 12 11  1  0  0  0  0
 12 13  1  0  0  0  0
 13 14  1  0  0  0  0
 13 15  1  0  0  0  0
 15 16  1  0  0  0  0
 17 18  2  0  0  0  0
 19 24  1  0  0  0  0
 19 17  1  0  0  0  0
 20 19  2  0  0  0  0
 21 22  2  0  0  0  0
 21 20  1  0  0  0  0
 22 23  1  0  0  0  0
 23 27  1  0  0  0  0
 23 24  2  0  0  0  0
 25 20  1  0  0  0  0
 26 21  1  0  0  0  0
M  END
>  <minimizedAffinity>
-5.11881113

$$$$

 OpenBabel03272507313D

 27 29  0  0  0  0  0  0  0  0999 V2000
   36.1570   27.8850   32.3800 C   0  0  0  0  0  0  0  0  0  0  0  0
   36.8680   27.6620   33.5110 C   0  0  0  0  0  0  0  0  0  0  0  0
   36.3010   28.4290   34.5310 C   0  0  0  0  0  0  0  0  0  0  0  0
   35.2380   29.0970   33.9290 C   0  0  0  0  0  0  0  0  0  0  0  0
   35.2250   28.7280   32.6920 O   0  0  0  0  0  0  0  0  0  0  0  0
   37.7410   27.0040   33.6490 H   0  0  0  0  0  0  0  0  0  0  0  0
   36.5870   28.5180   35.5670 H   0  0  0  0  0  0  0  0  0  0  0  0
   34.3400   30.0290   34.6230 C   0  0  0  0  0  0  0  0  0  0  0  0
   33.2040   29.6370   35.0080 O   0  0  0  0  0  0  0  0  0  0  0  0
   34.7550   31.3670   34.8560 N   0  0  0  0  0  0  0  0  0  0  0  0
   34.3620   32.5980   34.2040 C   0  0  0  0  0  2  0  0  0  0  0  0
   34.5590   33.8110   35.0310 C   0  0  0  0  0  2  0  0  0  0  0  0
   34.4610   33.6200   36.5010 C   0  0  0  0  0  3  0  0  0  0  0  0
   35.1620   34.3780   36.9600 H   0  0  0  0  0  0  0  0  0  0  0  0
   34.9130   32.2770   37.0080 C   0  0  0  0  0  2  0  0  0  0  0  0
   35.7270   31.6420   35.8980 C   0  0  0  0  0  2  0  0  0  0  0  0
   36.4690   27.2480   31.1200 C   0  0  0  0  0  0  0  0  0  0  0  0
   36.6500   27.9760   30.1160 O   0  0  0  0  0  0  0  0  0  0  0  0
   36.5510   25.8080   31.0990 C   0  0  0  0  0  0  0  0  0  0  0  0
   37.7870   25.2490   30.7970 C   0  0  0  0  0  0  0  0  0  0  0  0
   37.8910   23.8610   30.7710 C   0  0  0  0  0  0  0  0  0  0  0  0
   36.7690   23.1230   31.0460 N   0  0  0  0  0  0  0  0  0  0  0  0
   35.5810   23.6920   31.3360 C   0  0  0  0  0  0  0  0  0  0  0  0
   35.4780   25.0250   31.3620 N   0  0  0  0  0  0  0  0  0  0  0  0
   38.6580   25.8380   30.5850 H   0  0  0  0  0  0  0  0  0  0  0  0
   38.8390   23.3910   30.5400 H   0  0  0  0  0  0  0  0  0  0  0  0
   34.7800   23.0070   31.5320 H   0  0  0  0  0  0  0  0  0  0  0  0
  1  5  1  0  0  0  0
  1  2  2  0  0  0  0
  2  6  1  0  0  0  0
  2  3  1  0  0  0  0
  3  7  1  0  0  0  0
  4  3  2  0  0  0  0
  4  8  1  0  0  0  0
  5  4  1  0  0  0  0
  8 10  1  0  0  0  0
  8  9  2  0  0  0  0
 10 16  1  0  0  0  0
 11 10  1  0  0  0  0
 11 12  1  0  0  0  0
 12 13  1  0  0  0  0
 13 14  1  0  0  0  0
 13 15  1  0  0  0  0
 16 15  1  0  0  0  0
 17  1  1  0  0  0  0
 18 17  2  0  0  0  0
 19 17  1  0  0  0  0
 19 24  1  0  0  0  0
 20 19  2  0  0  0  0
 21 20  1  0  0  0  0
 21 22  2  0  0  0  0
 22 23  1  0  0  0  0
 23 24  2  0  0  0  0
 23 27  1  0  0  0  0
 25 20  1  0  0  0  0
 26 21  1  0  0  0  0
M  END
>  <minimizedAffinity>
-5.03207207

$$$$
