
 OpenBabel03272507273D

 37 39  0  0  1  0  0  0  0  0999 V2000
   36.8520   29.8520   49.6660 C   0  0  0  0  0  0  0  0  0  0  0  0
   37.8000   30.5650   48.9040 C   0  0  0  0  0  0  0  0  0  0  0  0
   37.4820   30.8490   47.5680 C   0  0  0  0  0  0  0  0  0  0  0  0
   36.3050   30.4320   47.1000 N   0  0  0  0  0  0  0  0  0  0  0  0
   35.4220   29.7530   47.8560 C   0  0  0  0  0  0  0  0  0  0  0  0
   35.6990   29.4690   49.1270 N   0  0  0  0  0  0  0  0  0  0  0  0
   38.3900   31.5540   46.7620 N   0  0  0  0  0  0  0  0  0  0  0  0
   39.3740   32.5350   47.2370 C   0  0  0  0  0  0  0  0  0  0  0  0
   39.9630   33.1860   46.0310 C   0  0  0  0  0  0  0  0  0  0  0  0
   38.9640   32.8840   44.9760 C   0  0  0  0  0  0  0  0  0  0  0  0
   38.5630   31.4800   45.3420 C   0  0  2  0  0  0  0  0  0  0  0  0
   37.0790   29.6280   50.6840 H   0  0  0  0  0  0  0  0  0  0  0  0
   38.7460   30.8840   49.3300 H   0  0  0  0  0  0  0  0  0  0  0  0
   34.4990   29.4680   47.3610 H   0  0  0  0  0  0  0  0  0  0  0  0
   38.8110   33.2150   47.8870 H   0  0  0  0  0  0  0  0  0  0  0  0
   40.1180   32.0080   47.8610 H   0  0  0  0  0  0  0  0  0  0  0  0
   41.0060   32.9320   45.8070 H   0  0  0  0  0  0  0  0  0  0  0  0
   39.9880   34.2940   46.2560 H   0  0  0  0  0  0  0  0  0  0  0  0
   38.0930   33.5290   45.0640 H   0  0  0  0  0  0  0  0  0  0  0  0
   39.3770   32.9390   43.9480 H   0  0  0  0  0  0  0  0  0  0  0  0
   37.4220   30.9660   44.5280 C   0  0  0  0  0  0  0  0  0  0  0  0
   36.2650   31.4470   45.1270 F   0  0  0  0  0  0  0  0  0  0  0  0
   37.3090   29.6110   44.4500 F   0  0  0  0  0  0  0  0  0  0  0  0
   37.5090   31.5950   43.2930 F   0  0  0  0  0  0  0  0  0  0  0  0
   39.7300   30.5820   45.1230 C   0  0  0  0  0  0  0  0  0  0  0  0
   39.3980   29.5820   45.4760 H   0  0  0  0  0  0  0  0  0  0  0  0
   40.5070   30.9020   45.8830 H   0  0  0  0  0  0  0  0  0  0  0  0
   40.2060   30.8810   44.0130 O   0  0  0  0  0  0  0  0  0  0  0  0
   40.4520   30.2620   42.8330 C   0  0  0  0  0  0  0  0  0  0  0  0
   40.0520   31.0050   41.9030 O   0  0  0  0  0  0  0  0  0  0  0  0
   40.9510   29.1650   42.1050 N   0  0  0  0  0  0  0  0  0  0  0  0
   40.1360   27.9680   42.1050 C   0  0  0  0  0  2  0  0  0  0  0  0
   40.1620   27.2710   40.7650 C   0  0  0  0  0  2  0  0  0  0  0  0
   40.3460   28.3260   39.7010 C   0  0  0  0  0  3  0  0  0  0  0  0
   40.2690   27.8490   38.7010 H   0  0  0  0  0  0  0  0  0  0  0  0
   41.7730   28.8200   39.8370 C   0  0  0  0  0  2  0  0  0  0  0  0
   42.1470   28.8890   41.2940 C   0  0  0  0  0  2  0  0  0  0  0  0
  1 12  1  0  0  0  0
  2 13  1  0  0  0  0
  2  1  2  0  0  0  0
  3  2  1  0  0  0  0
  4  3  2  0  0  0  0
  4  5  1  0  0  0  0
  5  6  2  0  0  0  0
  6  1  1  0  0  0  0
  7  8  1  0  0  0  0
  7  3  1  0  0  0  0
  8 16  1  0  0  0  0
  8 15  1  0  0  0  0
  9 18  1  0  0  0  0
  9  8  1  0  0  0  0
 10 19  1  0  0  0  0
 10 11  1  0  0  0  0
 10  9  1  0  0  0  0
 11 21  1  6  0  0  0
 11  7  1  0  0  0  0
 14  5  1  0  0  0  0
 17  9  1  0  0  0  0
 20 10  1  0  0  0  0
 21 22  1  0  0  0  0
 23 21  1  0  0  0  0
 24 21  1  0  0  0  0
 25 11  1  0  0  0  0
 25 26  1  0  0  0  0
 25 27  1  0  0  0  0
 28 25  1  0  0  0  0
 29 28  1  0  0  0  0
 30 29  2  0  0  0  0
 31 29  1  0  0  0  0
 32 31  1  0  0  0  0
 33 32  1  0  0  0  0
 34 36  1  0  0  0  0
 34 33  1  0  0  0  0
 35 34  1  0  0  0  0
 36 37  1  0  0  0  0
 37 31  1  0  0  0  0
M  END
>  <minimizedAffinity>
-5.27045488

>  <minimizedRMSD>
0.763520718

$$$$
