
 OpenBabel03272508423D

 18 19  0  0  0  0  0  0  0  0999 V2000
   37.6530   30.2950   51.1040 C   0  0  0  0  0  0  0  0  0  0  0  0
   38.2500   31.2190   50.2340 C   0  0  0  0  0  0  0  0  0  0  0  0
   37.5720   31.5340   49.0600 C   0  0  0  0  0  0  0  0  0  0  0  0
   36.3720   30.9300   48.8250 N   0  0  0  0  0  0  0  0  0  0  0  0
   35.8330   30.0460   49.6910 C   0  0  0  0  0  0  0  0  0  0  0  0
   36.4610   29.7280   50.8200 N   0  0  0  0  0  0  0  0  0  0  0  0
   38.1920   30.0500   52.0300 H   0  0  0  0  0  0  0  0  0  0  0  0
   39.2050   31.6360   50.5220 H   0  0  0  0  0  0  0  0  0  0  0  0
   38.0200   32.2420   48.3820 H   0  0  0  0  0  0  0  0  0  0  0  0
   34.5580   29.3980   49.4500 C   0  0  0  0  0  0  0  0  0  0  0  0
   33.5850   29.4500   50.2570 O   0  0  0  0  0  0  0  0  0  0  0  0
   34.1940   28.6260   48.3120 N   0  0  0  0  0  0  0  0  0  0  0  0
   33.9190   29.3810   47.1030 C   0  0  0  0  0  2  0  0  0  0  0  0
   32.4590   29.0440   46.7820 C   0  0  0  0  0  2  0  0  0  0  0  0
   32.4990   27.6100   46.3100 C   0  0  0  0  0  3  0  0  0  0  0  0
   31.4690   27.3280   46.0060 H   0  0  0  0  0  0  0  0  0  0  0  0
   32.9180   26.6900   47.4240 C   0  0  0  0  0  2  0  0  0  0  0  0
   34.0720   27.1960   48.2350 C   0  0  0  0  0  2  0  0  0  0  0  0
  1  7  1  0  0  0  0
  2  8  1  0  0  0  0
  2  1  2  0  0  0  0
  3  2  1  0  0  0  0
  4  3  2  0  0  0  0
  4  5  1  0  0  0  0
  5  6  2  0  0  0  0
  6  1  1  0  0  0  0
  9  3  1  0  0  0  0
 10  5  1  0  0  0  0
 10 11  2  0  0  0  0
 12 10  1  0  0  0  0
 13 12  1  0  0  0  0
 14 13  1  0  0  0  0
 15 14  1  0  0  0  0
 15 17  1  0  0  0  0
 16 15  1  0  0  0  0
 17 18  1  0  0  0  0
 18 12  1  0  0  0  0
M  END
>  <minimizedAffinity>
-4.05207825

>  <minimizedRMSD>
2.04280686

$$$$
