
 OpenBabel03272507273D

 37 39  0  0  1  0  0  0  0  0999 V2000
   36.9310   29.4380   50.1730 C   0  0  0  0  0  0  0  0  0  0  0  0
   37.7390   30.1330   49.2510 C   0  0  0  0  0  0  0  0  0  0  0  0
   37.1930   30.4220   47.9920 C   0  0  0  0  0  0  0  0  0  0  0  0
   35.9430   30.0260   47.7440 N   0  0  0  0  0  0  0  0  0  0  0  0
   35.1980   29.3630   48.6470 C   0  0  0  0  0  0  0  0  0  0  0  0
   35.6930   29.0760   49.8500 N   0  0  0  0  0  0  0  0  0  0  0  0
   37.9540   31.1110   47.0350 N   0  0  0  0  0  0  0  0  0  0  0  0
   39.0250   32.0740   47.3220 C   0  0  0  0  0  0  0  0  0  0  0  0
   39.3990   32.7140   46.0280 C   0  0  0  0  0  0  0  0  0  0  0  0
   38.2230   32.4290   45.1700 C   0  0  0  0  0  0  0  0  0  0  0  0
   37.8700   31.0330   45.6060 C   0  0  2  0  0  0  0  0  0  0  0  0
   37.3310   29.2100   51.1340 H   0  0  0  0  0  0  0  0  0  0  0  0
   38.7520   30.4360   49.5000 H   0  0  0  0  0  0  0  0  0  0  0  0
   34.1970   29.0940   48.3260 H   0  0  0  0  0  0  0  0  0  0  0  0
   38.5980   32.7650   48.0600 H   0  0  0  0  0  0  0  0  0  0  0  0
   39.8580   31.5340   47.8050 H   0  0  0  0  0  0  0  0  0  0  0  0
   40.3810   32.4410   45.6220 H   0  0  0  0  0  0  0  0  0  0  0  0
   39.4830   33.8210   46.2410 H   0  0  0  0  0  0  0  0  0  0  0  0
   37.3930   33.0900   45.4090 H   0  0  0  0  0  0  0  0  0  0  0  0
   38.4470   32.4760   44.0840 H   0  0  0  0  0  0  0  0  0  0  0  0
   36.5920   30.5390   45.0110 C   0  0  0  0  0  0  0  0  0  0  0  0
   35.5690   31.0580   45.7930 F   0  0  0  0  0  0  0  0  0  0  0  0
   36.4350   29.1870   44.9780 F   0  0  0  0  0  0  0  0  0  0  0  0
   36.4790   31.1480   43.7690 F   0  0  0  0  0  0  0  0  0  0  0  0
   38.9630   30.1140   45.1860 C   0  0  0  0  0  0  0  0  0  0  0  0
   38.8490   29.2140   45.8270 H   0  0  0  0  0  0  0  0  0  0  0  0
   39.9220   30.5950   45.5500 H   0  0  0  0  0  0  0  0  0  0  0  0
   39.0140   30.1660   43.9440 O   0  0  0  0  0  0  0  0  0  0  0  0
   39.3580   29.3430   42.9230 C   0  0  0  0  0  0  0  0  0  0  0  0
   38.3090   28.9580   42.3520 O   0  0  0  0  0  0  0  0  0  0  0  0
   40.3400   28.6850   42.1580 N   0  0  0  0  0  0  0  0  0  0  0  0
   39.9540   27.4210   41.5660 C   0  0  0  0  0  2  0  0  0  0  0  0
   40.5460   27.2460   40.1870 C   0  0  0  0  0  2  0  0  0  0  0  0
   40.6820   28.6150   39.5650 C   0  0  0  0  0  3  0  0  0  0  0  0
   41.0240   28.5020   38.5140 H   0  0  0  0  0  0  0  0  0  0  0  0
   41.8050   29.3090   40.3130 C   0  0  0  0  0  2  0  0  0  0  0  0
   41.7340   28.9490   41.7730 C   0  0  0  0  0  2  0  0  0  0  0  0
  1 12  1  0  0  0  0
  2 13  1  0  0  0  0
  2  1  2  0  0  0  0
  3  2  1  0  0  0  0
  4  3  2  0  0  0  0
  4  5  1  0  0  0  0
  5  6  2  0  0  0  0
  6  1  1  0  0  0  0
  7  8  1  0  0  0  0
  7  3  1  0  0  0  0
  8 16  1  0  0  0  0
  8 15  1  0  0  0  0
  9 18  1  0  0  0  0
  9  8  1  0  0  0  0
 10 19  1  0  0  0  0
 10 11  1  0  0  0  0
 10  9  1  0  0  0  0
 11 21  1  6  0  0  0
 11  7  1  0  0  0  0
 14  5  1  0  0  0  0
 17  9  1  0  0  0  0
 20 10  1  0  0  0  0
 21 22  1  0  0  0  0
 23 21  1  0  0  0  0
 24 21  1  0  0  0  0
 25 27  1  0  0  0  0
 25 11  1  0  0  0  0
 25 26  1  0  0  0  0
 28 25  1  0  0  0  0
 29 28  1  0  0  0  0
 30 29  2  0  0  0  0
 31 29  1  0  0  0  0
 32 31  1  0  0  0  0
 33 32  1  0  0  0  0
 34 33  1  0  0  0  0
 34 36  1  0  0  0  0
 35 34  1  0  0  0  0
 36 37  1  0  0  0  0
 37 31  1  0  0  0  0
M  END
>  <minimizedAffinity>
-5.09284067

>  <minimizedRMSD>
1.72150445

$$$$
