
 OpenBabel03272507273D

 37 39  0  0  1  0  0  0  0  0999 V2000
   36.7250   29.8150   49.4240 C   0  0  0  0  0  0  0  0  0  0  0  0
   37.7080   30.5140   48.6940 C   0  0  0  0  0  0  0  0  0  0  0  0
   37.4300   30.8200   47.3540 C   0  0  0  0  0  0  0  0  0  0  0  0
   36.2560   30.4340   46.8520 N   0  0  0  0  0  0  0  0  0  0  0  0
   35.3400   29.7670   47.5770 C   0  0  0  0  0  0  0  0  0  0  0  0
   35.5780   29.4630   48.8520 N   0  0  0  0  0  0  0  0  0  0  0  0
   38.3740   31.5140   46.5800 N   0  0  0  0  0  0  0  0  0  0  0  0
   39.3670   32.4680   47.0900 C   0  0  0  0  0  0  0  0  0  0  0  0
   40.0000   33.1190   45.9070 C   0  0  0  0  0  0  0  0  0  0  0  0
   39.0220   32.8500   44.8240 C   0  0  0  0  0  0  0  0  0  0  0  0
   38.5810   31.4520   45.1630 C   0  0  2  0  0  0  0  0  0  0  0  0
   36.9210   29.5740   50.4440 H   0  0  0  0  0  0  0  0  0  0  0  0
   38.6490   30.8080   49.1480 H   0  0  0  0  0  0  0  0  0  0  0  0
   34.4240   29.5070   47.0550 H   0  0  0  0  0  0  0  0  0  0  0  0
   38.8010   33.1530   47.7340 H   0  0  0  0  0  0  0  0  0  0  0  0
   40.0820   31.9180   47.7270 H   0  0  0  0  0  0  0  0  0  0  0  0
   41.0420   32.8440   45.7070 H   0  0  0  0  0  0  0  0  0  0  0  0
   40.0430   34.2230   46.1460 H   0  0  0  0  0  0  0  0  0  0  0  0
   38.1630   33.5140   44.8970 H   0  0  0  0  0  0  0  0  0  0  0  0
   39.4630   32.9080   43.8070 H   0  0  0  0  0  0  0  0  0  0  0  0
   37.4500   30.9720   44.3150 C   0  0  0  0  0  0  0  0  0  0  0  0
   36.3000   31.5540   44.8300 F   0  0  0  0  0  0  0  0  0  0  0  0
   37.2520   29.6250   44.2930 F   0  0  0  0  0  0  0  0  0  0  0  0
   37.6400   31.5320   43.0590 F   0  0  0  0  0  0  0  0  0  0  0  0
   39.7340   30.5310   44.9640 C   0  0  0  0  0  0  0  0  0  0  0  0
   39.3710   29.5340   45.2960 H   0  0  0  0  0  0  0  0  0  0  0  0
   40.4980   30.8240   45.7480 H   0  0  0  0  0  0  0  0  0  0  0  0
   40.2460   30.8320   43.8710 O   0  0  0  0  0  0  0  0  0  0  0  0
   40.5270   30.2160   42.6960 C   0  0  0  0  0  0  0  0  0  0  0  0
   40.4660   31.0680   41.7770 O   0  0  0  0  0  0  0  0  0  0  0  0
   40.8660   29.0590   41.9700 N   0  0  0  0  0  0  0  0  0  0  0  0
   40.1330   27.8540   42.2980 C   0  0  0  0  0  2  0  0  0  0  0  0
   39.8400   27.0260   41.0690 C   0  0  0  0  0  2  0  0  0  0  0  0
   39.6960   27.9690   39.9000 C   0  0  0  0  0  3  0  0  0  0  0  0
   39.3830   27.3910   39.0040 H   0  0  0  0  0  0  0  0  0  0  0  0
   41.0870   28.4990   39.6090 C   0  0  0  0  0  2  0  0  0  0  0  0
   41.8220   28.7220   40.9040 C   0  0  0  0  0  2  0  0  0  0  0  0
  1 12  1  0  0  0  0
  2 13  1  0  0  0  0
  2  1  2  0  0  0  0
  3  2  1  0  0  0  0
  4  3  2  0  0  0  0
  4  5  1  0  0  0  0
  5  6  2  0  0  0  0
  6  1  1  0  0  0  0
  7  8  1  0  0  0  0
  7  3  1  0  0  0  0
  8 16  1  0  0  0  0
  8 15  1  0  0  0  0
  9 18  1  0  0  0  0
  9  8  1  0  0  0  0
 10 19  1  0  0  0  0
 10 11  1  0  0  0  0
 10  9  1  0  0  0  0
 11 21  1  6  0  0  0
 11  7  1  0  0  0  0
 14  5  1  0  0  0  0
 17  9  1  0  0  0  0
 20 10  1  0  0  0  0
 21 22  1  0  0  0  0
 23 21  1  0  0  0  0
 24 21  1  0  0  0  0
 25 11  1  0  0  0  0
 25 26  1  0  0  0  0
 25 27  1  0  0  0  0
 28 25  1  0  0  0  0
 29 28  1  0  0  0  0
 30 29  2  0  0  0  0
 31 32  1  0  0  0  0
 31 29  1  0  0  0  0
 33 32  1  0  0  0  0
 34 33  1  0  0  0  0
 35 34  1  0  0  0  0
 36 34  1  0  0  0  0
 36 37  1  0  0  0  0
 37 31  1  0  0  0  0
M  END
>  <minimizedAffinity>
-5.44579268

>  <minimizedRMSD>
0.731212139

$$$$
