REMARK  Name = 
REMARK  3 active torsions:
REMARK  status: ('A' for Active; 'I' for Inactive)
REMARK    1  A    between atoms: C_1  and  C_3
REMARK    2  A    between atoms: C_1  and  C_9
REMARK    3  A    between atoms: C_12  and  C_14
REMARK                            x       y       z     vdW  Elec       q    Type
REMARK                         _______ _______ _______ _____ _____    ______ ____
ROOT
ATOM      1  C   UNL     1      35.920  29.581  49.905  0.00  0.00    +0.000 A 
ATOM      2  C   UNL     1      34.692  29.890  50.385  0.00  0.00    +0.000 A 
ATOM      3  C   UNL     1      33.768  29.034  49.781  0.00  0.00    +0.000 A 
ATOM      4  C   UNL     1      34.526  28.226  48.938  0.00  0.00    +0.000 A 
ATOM      5  O   UNL     1      35.753  28.606  49.069  0.00  0.00    +0.000 OA
ATOM      6  H   UNL     1      34.422  30.666  51.119  0.00  0.00    +0.000 HD
ATOM      7  H   UNL     1      32.699  28.974  49.907  0.00  0.00    +0.000 HD
ENDROOT
BRANCH   4   8
ATOM      8  C   UNL     1      33.976  27.163  48.087  0.00  0.00    +0.000 C 
ATOM      9  O   UNL     1      32.737  26.920  48.109  0.00  0.00    +0.000 OA
ATOM     10  N   UNL     1      34.840  26.414  47.245  0.00  0.00    +0.000 N 
ATOM     11  C   UNL     1      35.976  25.580  47.572  0.00  0.00    +0.000 C 
ATOM     12  C   UNL     1      36.287  24.553  46.550  0.00  0.00    +0.000 C 
ATOM     13  C   UNL     1      35.135  24.057  45.755  0.00  0.00    +0.000 C 
ATOM     14  H   UNL     1      35.551  23.794  44.737  0.00  0.00    +0.000 HD
ATOM     15  C   UNL     1      34.040  25.059  45.510  0.00  0.00    +0.000 C 
ATOM     16  C   UNL     1      34.624  26.426  45.810  0.00  0.00    +0.000 C 
ENDBRANCH   4   8
BRANCH   1  17
ATOM     17  C   UNL     1      37.120  30.273  50.318  0.00  0.00    +0.000 C 
ATOM     18  O   UNL     1      37.512  30.128  51.499  0.00  0.00    +0.000 OA
BRANCH  17  19
ATOM     19  C   UNL     1      37.793  31.091  49.338  0.00  0.00    +0.000 A 
ATOM     20  C   UNL     1      38.102  32.395  49.707  0.00  0.00    +0.000 A 
ATOM     21  C   UNL     1      38.752  33.203  48.778  0.00  0.00    +0.000 A 
ATOM     22  N   UNL     1      39.051  32.668  47.552  0.00  0.00    +0.000 NA
ATOM     23  C   UNL     1      38.739  31.398  47.220  0.00  0.00    +0.000 A 
ATOM     24  N   UNL     1      38.115  30.619  48.110  0.00  0.00    +0.000 NA
ATOM     25  H   UNL     1      37.863  32.801  50.670  0.00  0.00    +0.000 HD
ATOM     26  H   UNL     1      39.008  34.224  49.031  0.00  0.00    +0.000 HD
ATOM     27  H   UNL     1      39.026  31.099  46.232  0.00  0.00    +0.000 HD
ENDBRANCH  17  19
ENDBRANCH   1  17
TORSDOF 3
