
 OpenBabel03272509433D

 36 38  0  0  1  0  0  0  0  0999 V2000
   37.0400   30.9290   49.0730 C   0  0  0  0  0  0  0  0  0  0  0  0
   36.7470   31.8600   50.0700 C   0  0  0  0  0  0  0  0  0  0  0  0
   37.3320   33.1150   50.0980 C   0  0  0  0  0  0  0  0  0  0  0  0
   38.2450   33.4680   49.1030 C   0  0  0  0  0  0  0  0  0  0  0  0
   38.5250   32.5500   48.1320 C   0  0  0  0  0  0  0  0  0  0  0  0
   37.9200   31.3030   48.1380 C   0  0  0  0  0  0  0  0  0  0  0  0
   36.0340   31.6070   50.8620 H   0  0  0  0  0  0  0  0  0  0  0  0
   37.0540   33.7750   50.9000 H   0  0  0  0  0  0  0  0  0  0  0  0
   38.6380   34.4570   49.2140 H   0  0  0  0  0  0  0  0  0  0  0  0
   39.2500   32.9710   47.4340 H   0  0  0  0  0  0  0  0  0  0  0  0
   36.4550   29.6060   49.0630 C   0  0  2  0  0  0  0  0  0  0  0  0
   36.9590   29.0590   48.1750 H   0  0  0  0  0  0  0  0  0  0  0  0
   33.5960   29.9380   46.8450 C   0  0  0  0  0  0  0  0  0  0  0  0
   32.8560   28.7990   47.0740 C   0  0  0  0  0  0  0  0  0  0  0  0
   33.2980   27.9240   48.0470 C   0  0  0  0  0  0  0  0  0  0  0  0
   34.4500   28.2130   48.7470 N   0  0  0  0  0  0  0  0  0  0  0  0
   35.1150   29.3180   48.4780 C   0  0  0  0  0  0  0  0  0  0  0  0
   34.6950   30.1880   47.5310 N   0  0  0  0  0  0  0  0  0  0  0  0
   33.2170   30.5860   46.0870 H   0  0  0  0  0  0  0  0  0  0  0  0
   31.9450   28.5080   46.5650 H   0  0  0  0  0  0  0  0  0  0  0  0
   32.7920   26.9900   48.3190 H   0  0  0  0  0  0  0  0  0  0  0  0
   36.9250   28.8550   49.9940 O   0  0  0  0  0  0  0  0  0  0  0  0
   36.4060   28.4760   50.7170 H   0  0  0  0  0  0  0  0  0  0  0  0
   38.3310   30.4210   47.0710 C   0  0  0  0  0  3  0  0  0  0  0  0
   38.9010   30.8340   45.9340 C   0  0  0  0  0  3  0  0  0  0  0  0
   39.3950   30.0190   44.7990 C   0  0  0  0  0  0  0  0  0  0  0  0
   39.1830   28.9300   44.9570 H   0  0  0  0  0  0  0  0  0  0  0  0
   40.5050   30.0790   44.7260 H   0  0  0  0  0  0  0  0  0  0  0  0
   38.7030   30.6440   43.2640 S   0  0  0  0  0  0  0  0  0  0  0  0
   39.8370   29.0780   39.4830 H   0  0  0  0  0  0  0  0  0  0  0  0
   40.8280   29.2250   39.7340 N   0  0  0  0  0  0  0  0  0  0  0  0
   41.1810   28.4150   40.8850 C   0  0  0  0  0  2  0  0  0  0  0  0
   40.4810   28.8670   42.1530 C   0  0  0  0  0  2  0  0  0  0  0  0
   39.5150   29.9760   41.7890 C   0  0  0  0  0  3  0  0  0  0  0  0
   40.3270   31.1070   41.1810 C   0  0  0  0  0  2  0  0  0  0  0  0
   41.1160   30.6260   39.9950 C   0  0  0  0  0  2  0  0  0  0  0  0
  1  2  1  0  0  0  0
  2  3  2  0  0  0  0
  2  7  1  0  0  0  0
  3  8  1  0  0  0  0
  4  9  1  0  0  0  0
  4  3  1  0  0  0  0
  5  6  1  0  0  0  0
  5  4  2  0  0  0  0
  6  1  2  0  0  0  0
 10  5  1  0  0  0  0
 11 12  1  6  0  0  0
 11  1  1  0  0  0  0
 11 22  1  0  0  0  0
 13 14  2  0  0  0  0
 13 18  1  0  0  0  0
 14 15  1  0  0  0  0
 15 21  1  0  0  0  0
 15 16  2  0  0  0  0
 17 16  1  0  0  0  0
 17 11  1  0  0  0  0
 18 17  2  0  0  0  0
 19 13  1  0  0  0  0
 20 14  1  0  0  0  0
 22 23  1  0  0  0  0
 24  6  1  0  0  0  0
 25 24  2  0  0  0  0
 26 27  1  0  0  0  0
 26 25  1  0  0  0  0
 28 26  1  0  0  0  0
 29 26  1  0  0  0  0
 30 31  1  0  0  0  0
 31 36  1  0  0  0  0
 31 32  1  0  0  0  0
 32 33  1  0  0  0  0
 34 33  1  0  0  0  0
 34 29  1  0  0  0  0
 35 34  1  0  0  0  0
 36 35  1  0  0  0  0
M  END
>  <minimizedAffinity>
-5.71061945

>  <minimizedRMSD>
0.380216092

$$$$
