
 OpenBabel03272509433D

 36 38  0  0  1  0  0  0  0  0999 V2000
   37.0750   30.9350   49.0600 C   0  0  0  0  0  0  0  0  0  0  0  0
   36.8060   31.8630   50.0660 C   0  0  0  0  0  0  0  0  0  0  0  0
   37.3970   33.1150   50.0870 C   0  0  0  0  0  0  0  0  0  0  0  0
   38.2900   33.4690   49.0750 C   0  0  0  0  0  0  0  0  0  0  0  0
   38.5470   32.5530   48.0950 C   0  0  0  0  0  0  0  0  0  0  0  0
   37.9370   31.3090   48.1080 C   0  0  0  0  0  0  0  0  0  0  0  0
   36.1090   31.6090   50.8720 H   0  0  0  0  0  0  0  0  0  0  0  0
   37.1380   33.7730   50.8970 H   0  0  0  0  0  0  0  0  0  0  0  0
   38.6900   34.4560   49.1810 H   0  0  0  0  0  0  0  0  0  0  0  0
   39.2590   32.9740   47.3840 H   0  0  0  0  0  0  0  0  0  0  0  0
   36.4840   29.6140   49.0580 C   0  0  2  0  0  0  0  0  0  0  0  0
   36.9820   29.0610   48.1700 H   0  0  0  0  0  0  0  0  0  0  0  0
   33.6120   29.9600   46.8590 C   0  0  0  0  0  0  0  0  0  0  0  0
   32.8740   28.8190   47.0840 C   0  0  0  0  0  0  0  0  0  0  0  0
   33.3230   27.9370   48.0480 C   0  0  0  0  0  0  0  0  0  0  0  0
   34.4780   28.2220   48.7430 N   0  0  0  0  0  0  0  0  0  0  0  0
   35.1410   29.3290   48.4780 C   0  0  0  0  0  0  0  0  0  0  0  0
   34.7150   30.2060   47.5400 N   0  0  0  0  0  0  0  0  0  0  0  0
   33.2280   30.6140   46.1080 H   0  0  0  0  0  0  0  0  0  0  0  0
   31.9600   28.5310   46.5780 H   0  0  0  0  0  0  0  0  0  0  0  0
   32.8190   27.0010   48.3170 H   0  0  0  0  0  0  0  0  0  0  0  0
   36.9540   28.8640   49.9890 O   0  0  0  0  0  0  0  0  0  0  0  0
   36.4370   28.4900   50.7160 H   0  0  0  0  0  0  0  0  0  0  0  0
   38.3220   30.4290   47.0300 C   0  0  0  0  0  3  0  0  0  0  0  0
   38.8870   30.8420   45.8910 C   0  0  0  0  0  3  0  0  0  0  0  0
   39.3570   30.0290   44.7440 C   0  0  0  0  0  0  0  0  0  0  0  0
   38.8620   29.0240   44.7290 H   0  0  0  0  0  0  0  0  0  0  0  0
   40.4430   29.8030   44.8410 H   0  0  0  0  0  0  0  0  0  0  0  0
   39.1120   30.9440   43.2190 S   0  0  0  0  0  0  0  0  0  0  0  0
   40.0490   28.7570   39.7000 H   0  0  0  0  0  0  0  0  0  0  0  0
   40.9740   29.2150   39.6790 N   0  0  0  0  0  0  0  0  0  0  0  0
   41.7380   28.8660   40.8630 C   0  0  0  0  0  2  0  0  0  0  0  0
   41.1460   29.4500   42.1310 C   0  0  0  0  0  2  0  0  0  0  0  0
   39.8420   30.1330   41.7730 C   0  0  0  0  0  3  0  0  0  0  0  0
   40.1600   31.2250   40.7660 C   0  0  0  0  0  2  0  0  0  0  0  0
   40.8570   30.6600   39.5610 C   0  0  0  0  0  2  0  0  0  0  0  0
  1  2  1  0  0  0  0
  2  3  2  0  0  0  0
  2  7  1  0  0  0  0
  3  8  1  0  0  0  0
  4  9  1  0  0  0  0
  4  3  1  0  0  0  0
  5  6  1  0  0  0  0
  5  4  2  0  0  0  0
  6  1  2  0  0  0  0
 10  5  1  0  0  0  0
 11 12  1  6  0  0  0
 11  1  1  0  0  0  0
 11 22  1  0  0  0  0
 13 14  2  0  0  0  0
 13 18  1  0  0  0  0
 14 15  1  0  0  0  0
 15 21  1  0  0  0  0
 15 16  2  0  0  0  0
 17 16  1  0  0  0  0
 17 11  1  0  0  0  0
 18 17  2  0  0  0  0
 19 13  1  0  0  0  0
 20 14  1  0  0  0  0
 22 23  1  0  0  0  0
 24  6  1  0  0  0  0
 25 24  2  0  0  0  0
 26 28  1  0  0  0  0
 26 25  1  0  0  0  0
 27 26  1  0  0  0  0
 29 26  1  0  0  0  0
 31 30  1  0  0  0  0
 31 32  1  0  0  0  0
 32 33  1  0  0  0  0
 34 33  1  0  0  0  0
 34 29  1  0  0  0  0
 35 34  1  0  0  0  0
 36 31  1  0  0  0  0
 36 35  1  0  0  0  0
M  END
>  <minimizedAffinity>
-5.81240082

>  <minimizedRMSD>
0.42784667

$$$$
