
 OpenBabel03272509433D

 36 38  0  0  1  0  0  0  0  0999 V2000
   37.0430   30.9200   49.0420 C   0  0  0  0  0  0  0  0  0  0  0  0
   36.7590   31.8280   50.0620 C   0  0  0  0  0  0  0  0  0  0  0  0
   37.3530   33.0770   50.1190 C   0  0  0  0  0  0  0  0  0  0  0  0
   38.2650   33.4490   49.1300 C   0  0  0  0  0  0  0  0  0  0  0  0
   38.5350   32.5540   48.1360 C   0  0  0  0  0  0  0  0  0  0  0  0
   37.9220   31.3110   48.1130 C   0  0  0  0  0  0  0  0  0  0  0  0
   36.0480   31.5590   50.8510 H   0  0  0  0  0  0  0  0  0  0  0  0
   37.0820   33.7190   50.9390 H   0  0  0  0  0  0  0  0  0  0  0  0
   38.6650   34.4330   49.2640 H   0  0  0  0  0  0  0  0  0  0  0  0
   39.2600   32.9880   47.4450 H   0  0  0  0  0  0  0  0  0  0  0  0
   36.4480   29.6010   49.0010 C   0  0  2  0  0  0  0  0  0  0  0  0
   36.9720   29.0600   48.1210 H   0  0  0  0  0  0  0  0  0  0  0  0
   33.5910   30.0650   46.8060 C   0  0  0  0  0  0  0  0  0  0  0  0
   32.8910   28.8820   46.9070 C   0  0  0  0  0  0  0  0  0  0  0  0
   33.3590   27.9260   47.7860 C   0  0  0  0  0  0  0  0  0  0  0  0
   34.4970   28.1800   48.5230 N   0  0  0  0  0  0  0  0  0  0  0  0
   35.1230   29.3300   48.3770 C   0  0  0  0  0  0  0  0  0  0  0  0
   34.6770   30.2790   47.5230 N   0  0  0  0  0  0  0  0  0  0  0  0
   33.1930   30.7760   46.1160 H   0  0  0  0  0  0  0  0  0  0  0  0
   31.9940   28.6150   46.3620 H   0  0  0  0  0  0  0  0  0  0  0  0
   32.8860   26.9510   47.9540 H   0  0  0  0  0  0  0  0  0  0  0  0
   36.8880   28.8360   49.9360 O   0  0  0  0  0  0  0  0  0  0  0  0
   36.3470   28.4530   50.6410 H   0  0  0  0  0  0  0  0  0  0  0  0
   38.3230   30.4530   47.0230 C   0  0  0  0  0  3  0  0  0  0  0  0
   38.8780   30.8910   45.8880 C   0  0  0  0  0  3  0  0  0  0  0  0
   39.3610   30.1030   44.7300 C   0  0  0  0  0  0  0  0  0  0  0  0
   38.9460   29.0620   44.7460 H   0  0  0  0  0  0  0  0  0  0  0  0
   40.4650   29.9640   44.7830 H   0  0  0  0  0  0  0  0  0  0  0  0
   38.9830   30.9760   43.2080 S   0  0  0  0  0  0  0  0  0  0  0  0
   40.3340   28.2510   40.2450 H   0  0  0  0  0  0  0  0  0  0  0  0
   40.0690   28.9320   39.5160 N   0  0  0  0  0  0  0  0  0  0  0  0
   40.8460   30.1490   39.6570 C   0  0  0  0  0  2  0  0  0  0  0  0
   40.5050   30.9160   40.9200 C   0  0  0  0  0  2  0  0  0  0  0  0
   39.5210   30.0900   41.7220 C   0  0  0  0  0  3  0  0  0  0  0  0
   38.2870   29.8840   40.8590 C   0  0  0  0  0  2  0  0  0  0  0  0
   38.6460   29.2340   39.5520 C   0  0  0  0  0  2  0  0  0  0  0  0
  1  2  1  0  0  0  0
  2  3  2  0  0  0  0
  2  7  1  0  0  0  0
  3  8  1  0  0  0  0
  4  9  1  0  0  0  0
  4  3  1  0  0  0  0
  5  4  2  0  0  0  0
  6  5  1  0  0  0  0
  6  1  2  0  0  0  0
 10  5  1  0  0  0  0
 11 12  1  6  0  0  0
 11  1  1  0  0  0  0
 11 22  1  0  0  0  0
 13 14  2  0  0  0  0
 13 18  1  0  0  0  0
 14 15  1  0  0  0  0
 15 21  1  0  0  0  0
 15 16  2  0  0  0  0
 17 16  1  0  0  0  0
 17 11  1  0  0  0  0
 18 17  2  0  0  0  0
 19 13  1  0  0  0  0
 20 14  1  0  0  0  0
 22 23  1  0  0  0  0
 24  6  1  0  0  0  0
 25 24  2  0  0  0  0
 26 27  1  0  0  0  0
 26 28  1  0  0  0  0
 26 25  1  0  0  0  0
 29 26  1  0  0  0  0
 31 36  1  0  0  0  0
 31 32  1  0  0  0  0
 31 30  1  0  0  0  0
 32 33  1  0  0  0  0
 33 34  1  0  0  0  0
 34 29  1  0  0  0  0
 35 34  1  0  0  0  0
 36 35  1  0  0  0  0
M  END
>  <minimizedAffinity>
-5.44571495

>  <minimizedRMSD>
0.150933906

$$$$
