REMARK  Name = 
REMARK  7 active torsions:
REMARK  status: ('A' for Active; 'I' for Inactive)
REMARK    1  A    between atoms: C_1  and  C_7
REMARK    2  A    between atoms: C_6  and  C_15
REMARK    3  A    between atoms: C_7  and  O_8
REMARK    4  A    between atoms: C_7  and  C_13
REMARK    5  A    between atoms: C_16  and  C_17
REMARK    6  A    between atoms: C_17  and  S_18
REMARK    7  A    between atoms: S_18  and  C_36
REMARK                            x       y       z     vdW  Elec       q    Type
REMARK                         _______ _______ _______ _____ _____    ______ ____
ROOT
ATOM      1  C   UNL     1      37.079  30.948  49.029  0.00  0.00    +0.000 A 
ATOM      2  C   UNL     1      36.813  31.880  50.032  0.00  0.00    +0.000 A 
ATOM      3  C   UNL     1      37.425  33.122  50.061  0.00  0.00    +0.000 A 
ATOM      4  C   UNL     1      38.337  33.461  49.060  0.00  0.00    +0.000 A 
ATOM      5  C   UNL     1      38.590  32.542  48.083  0.00  0.00    +0.000 A 
ATOM      6  C   UNL     1      37.959  31.308  48.088  0.00  0.00    +0.000 A 
ATOM      7  H   UNL     1      36.102  31.638  50.829  0.00  0.00    +0.000 HD
ATOM      8  H   UNL     1      37.167  33.784  50.868  0.00  0.00    +0.000 HD
ATOM      9  H   UNL     1      38.752  34.441  49.172  0.00  0.00    +0.000 HD
ATOM     10  H   UNL     1      39.318  32.951  47.381  0.00  0.00    +0.000 HD
ENDROOT
BRANCH   1  11
ATOM     11  C   UNL     1      36.466  29.637  49.018  0.00  0.00    +0.000 C 
ATOM     12  H   UNL     1      37.008  29.057  48.175  0.00  0.00    +0.000 HD
BRANCH  11  17
ATOM     13  C   UNL     1      33.613  30.146  46.827  0.00  0.00    +0.000 A 
ATOM     14  C   UNL     1      32.954  28.936  46.842  0.00  0.00    +0.000 A 
ATOM     15  C   UNL     1      33.449  27.940  47.661  0.00  0.00    +0.000 A 
ATOM     16  N   UNL     1      34.570  28.184  48.425  0.00  0.00    +0.000 NA
ATOM     17  C   UNL     1      35.156  29.362  48.363  0.00  0.00    +0.000 A 
ATOM     18  N   UNL     1      34.684  30.350  47.569  0.00  0.00    +0.000 NA
ATOM     19  H   UNL     1      33.195  30.887  46.182  0.00  0.00    +0.000 HD
ATOM     20  H   UNL     1      32.072  28.674  46.271  0.00  0.00    +0.000 HD
ATOM     21  H   UNL     1      33.009  26.940  47.759  0.00  0.00    +0.000 HD
ENDBRANCH  11  17
BRANCH  11  22
ATOM     22  O   UNL     1      36.865  28.901  49.993  0.00  0.00    +0.000 OA
ATOM     23  H   UNL     1      36.297  28.552  50.694  0.00  0.00    +0.000 HD
ENDBRANCH  11  22
ENDBRANCH   1  11
BRANCH   6  24
ATOM     24  C   UNL     1      38.343  30.422  47.014  0.00  0.00    +0.000 C 
ATOM     25  C   UNL     1      38.823  30.835  45.837  0.00  0.00    +0.000 C 
BRANCH  25  26
ATOM     26  C   UNL     1      39.283  30.019  44.688  0.00  0.00    +0.000 C 
ATOM     27  H   UNL     1      38.713  29.057  44.619  0.00  0.00    +0.000 HD
ATOM     28  H   UNL     1      40.343  29.706  44.828  0.00  0.00    +0.000 HD
BRANCH  26  29
ATOM     29  S   UNL     1      39.184  30.992  43.182  0.00  0.00    +0.000 S 
BRANCH  29  34
ATOM     30  H   UNL     1      41.046  28.560  40.239  0.00  0.00    +0.000 HD
ATOM     31  N   UNL     1      40.253  28.746  39.604  0.00  0.00    +0.000 NA
ATOM     32  C   UNL     1      40.175  30.161  39.297  0.00  0.00    +0.000 C 
ATOM     33  C   UNL     1      39.793  31.000  40.502  0.00  0.00    +0.000 C 
ATOM     34  C   UNL     1      39.729  30.088  41.710  0.00  0.00    +0.000 C 
ATOM     35  C   UNL     1      38.677  29.028  41.427  0.00  0.00    +0.000 C 
ATOM     36  C   UNL     1      38.993  28.279  40.163  0.00  0.00    +0.000 C 
ENDBRANCH  29  34
ENDBRANCH  26  29
ENDBRANCH  25  26
ENDBRANCH   6  24
TORSDOF 7
