
 OpenBabel03262521533D

 21 22  0  0  0  0  0  0  0  0999 V2000
   38.4160   21.8390   33.6640 C   0  0  0  0  0  0  0  0  0  0  0  0
   39.1070   22.6950   33.4190 H   0  0  0  0  0  0  0  0  0  0  0  0
   39.0500   20.9280   33.5750 H   0  0  0  0  0  0  0  0  0  0  0  0
   37.0480   21.8640   32.5140 S   0  0  0  0  0  0  0  0  0  0  0  0
   36.6250   23.5540   32.1450 C   0  0  0  0  0  0  0  0  0  0  0  0
   35.5390   23.7090   31.2720 C   0  0  0  0  0  0  0  0  0  0  0  0
   35.1500   25.0030   30.9380 C   0  0  0  0  0  0  0  0  0  0  0  0
   35.8540   26.0630   31.4830 N   0  0  0  0  0  0  0  0  0  0  0  0
   36.8870   25.8410   32.3160 C   0  0  0  0  0  0  0  0  0  0  0  0
   37.2670   24.6170   32.6410 N   0  0  0  0  0  0  0  0  0  0  0  0
   34.9980   22.8890   30.8530 H   0  0  0  0  0  0  0  0  0  0  0  0
   34.3140   25.1390   30.2650 H   0  0  0  0  0  0  0  0  0  0  0  0
   37.3860   26.7330   32.7000 H   0  0  0  0  0  0  0  0  0  0  0  0
   37.9010   22.1090   35.3840 S   0  0  0  0  0  0  0  0  0  0  0  0
   39.1400   21.5290   37.5840 H   0  0  0  0  0  0  0  0  0  0  0  0
   39.6470   22.3600   37.9470 N   0  0  0  0  0  0  0  0  0  0  0  0
   38.7420   23.3720   38.4410 C   0  0  0  0  0  2  0  0  0  0  0  0
   37.7520   23.8430   37.4010 C   0  0  0  0  0  2  0  0  0  0  0  0
   38.3360   23.7340   35.9960 C   0  0  0  0  0  3  0  0  0  0  0  0
   39.8280   23.9430   36.1060 C   0  0  0  0  0  2  0  0  0  0  0  0
   40.5030   22.8340   36.8790 C   0  0  0  0  0  2  0  0  0  0  0  0
  1 14  1  0  0  0  0
  2  1  1  0  0  0  0
  3  1  1  0  0  0  0
  4  1  1  0  0  0  0
  5  4  1  0  0  0  0
  5 10  1  0  0  0  0
  6  5  2  0  0  0  0
  7  6  1  0  0  0  0
  7  8  2  0  0  0  0
  8  9  1  0  0  0  0
  9 10  2  0  0  0  0
  9 13  1  0  0  0  0
 11  6  1  0  0  0  0
 12  7  1  0  0  0  0
 14 19  1  0  0  0  0
 15 16  1  0  0  0  0
 16 17  1  0  0  0  0
 18 17  1  0  0  0  0
 19 20  1  0  0  0  0
 19 18  1  0  0  0  0
 20 21  1  0  0  0  0
 21 16  1  0  0  0  0
M  END
>  <minimizedAffinity>
-4.29588509

$$$$

 OpenBabel03262521533D

 21 22  0  0  0  0  0  0  0  0999 V2000
   37.6600   24.2430   33.3000 C   0  0  0  0  0  0  0  0  0  0  0  0
   36.8410   24.2510   34.0750 H   0  0  0  0  0  0  0  0  0  0  0  0
   37.6430   23.2120   32.8790 H   0  0  0  0  0  0  0  0  0  0  0  0
   39.2060   24.6520   34.1010 S   0  0  0  0  0  0  0  0  0  0  0  0
   39.1700   24.0550   35.7790 C   0  0  0  0  0  0  0  0  0  0  0  0
   38.0720   24.4930   36.5340 C   0  0  0  0  0  0  0  0  0  0  0  0
   37.9780   24.0660   37.8550 C   0  0  0  0  0  0  0  0  0  0  0  0
   38.9670   23.2360   38.3520 N   0  0  0  0  0  0  0  0  0  0  0  0
   39.9940   22.8540   37.5700 C   0  0  0  0  0  0  0  0  0  0  0  0
   40.0970   23.2520   36.3130 N   0  0  0  0  0  0  0  0  0  0  0  0
   37.3100   25.1330   36.1470 H   0  0  0  0  0  0  0  0  0  0  0  0
   37.1360   24.3960   38.4500 H   0  0  0  0  0  0  0  0  0  0  0  0
   40.7300   22.2000   38.0410 H   0  0  0  0  0  0  0  0  0  0  0  0
   37.1620   25.4650   32.0550 S   0  0  0  0  0  0  0  0  0  0  0  0
   36.4030   26.7470   29.9350 H   0  0  0  0  0  0  0  0  0  0  0  0
   36.5710   27.7670   30.0460 N   0  0  0  0  0  0  0  0  0  0  0  0
   37.9800   28.0870   30.0290 C   0  0  0  0  0  2  0  0  0  0  0  0
   38.7670   27.3630   31.0960 C   0  0  0  0  0  2  0  0  0  0  0  0
   37.9020   27.0730   32.3190 C   0  0  0  0  0  3  0  0  0  0  0  0
   36.8800   28.1810   32.4260 C   0  0  0  0  0  2  0  0  0  0  0  0
   35.9090   28.1740   31.2690 C   0  0  0  0  0  2  0  0  0  0  0  0
  1  2  1  0  0  0  0
  1  4  1  0  0  0  0
  3  1  1  0  0  0  0
  4  5  1  0  0  0  0
  5 10  2  0  0  0  0
  5  6  1  0  0  0  0
  6  7  2  0  0  0  0
  7  8  1  0  0  0  0
  7 12  1  0  0  0  0
  9 13  1  0  0  0  0
  9  8  2  0  0  0  0
 10  9  1  0  0  0  0
 11  6  1  0  0  0  0
 14 19  1  0  0  0  0
 14  1  1  0  0  0  0
 15 16  1  0  0  0  0
 16 21  1  0  0  0  0
 17 16  1  0  0  0  0
 17 18  1  0  0  0  0
 18 19  1  0  0  0  0
 19 20  1  0  0  0  0
 21 20  1  0  0  0  0
M  END
>  <minimizedAffinity>
-3.88133979

$$$$

 OpenBabel03262521533D

 21 22  0  0  0  0  0  0  0  0999 V2000
   37.8120   24.3380   32.4030 C   0  0  0  0  0  0  0  0  0  0  0  0
   37.7700   25.4240   32.7000 H   0  0  0  0  0  0  0  0  0  0  0  0
   38.6900   24.2620   31.7240 H   0  0  0  0  0  0  0  0  0  0  0  0
   36.2680   23.9050   31.6110 S   0  0  0  0  0  0  0  0  0  0  0  0
   36.1430   22.1320   31.5050 C   0  0  0  0  0  0  0  0  0  0  0  0
   35.0700   21.5760   32.2180 C   0  0  0  0  0  0  0  0  0  0  0  0
   34.9090   20.1950   32.1810 C   0  0  0  0  0  0  0  0  0  0  0  0
   35.8110   19.4450   31.4450 N   0  0  0  0  0  0  0  0  0  0  0  0
   36.8180   20.0450   30.7840 C   0  0  0  0  0  0  0  0  0  0  0  0
   36.9840   21.3570   30.8110 N   0  0  0  0  0  0  0  0  0  0  0  0
   34.3760   22.1570   32.7840 H   0  0  0  0  0  0  0  0  0  0  0  0
   34.0860   19.7510   32.7260 H   0  0  0  0  0  0  0  0  0  0  0  0
   37.4840   19.3810   30.2300 H   0  0  0  0  0  0  0  0  0  0  0  0
   38.0980   23.4230   33.9440 S   0  0  0  0  0  0  0  0  0  0  0  0
   37.7500   21.9870   36.0720 H   0  0  0  0  0  0  0  0  0  0  0  0
   38.3800   22.3060   36.8350 N   0  0  0  0  0  0  0  0  0  0  0  0
   37.9920   23.5990   37.3510 C   0  0  0  0  0  2  0  0  0  0  0  0
   37.9540   24.6750   36.2910 C   0  0  0  0  0  2  0  0  0  0  0  0
   38.9590   24.3900   35.1800 C   0  0  0  0  0  3  0  0  0  0  0  0
   40.1240   23.6530   35.7990 C   0  0  0  0  0  2  0  0  0  0  0  0
   39.7280   22.2860   36.3050 C   0  0  0  0  0  2  0  0  0  0  0  0
  1  2  1  0  0  0  0
  1 14  1  0  0  0  0
  3  1  1  0  0  0  0
  4  1  1  0  0  0  0
  5  4  1  0  0  0  0
  5  6  1  0  0  0  0
  6 11  1  0  0  0  0
  7  6  2  0  0  0  0
  7 12  1  0  0  0  0
  8  7  1  0  0  0  0
  9 10  1  0  0  0  0
  9  8  2  0  0  0  0
 10  5  2  0  0  0  0
 13  9  1  0  0  0  0
 14 19  1  0  0  0  0
 15 16  1  0  0  0  0
 16 17  1  0  0  0  0
 18 17  1  0  0  0  0
 19 20  1  0  0  0  0
 19 18  1  0  0  0  0
 20 21  1  0  0  0  0
 21 16  1  0  0  0  0
M  END
>  <minimizedAffinity>
-3.84743214

$$$$

 OpenBabel03262521533D

 21 22  0  0  0  0  0  0  0  0999 V2000
   37.7480   23.3690   33.2350 C   0  0  0  0  0  0  0  0  0  0  0  0
   36.8810   23.9700   33.6330 H   0  0  0  0  0  0  0  0  0  0  0  0
   37.4540   23.1000   32.1950 H   0  0  0  0  0  0  0  0  0  0  0  0
   37.9870   21.9470   34.2920 S   0  0  0  0  0  0  0  0  0  0  0  0
   38.3760   22.5020   35.9390 C   0  0  0  0  0  0  0  0  0  0  0  0
   39.7010   22.2720   36.3380 C   0  0  0  0  0  0  0  0  0  0  0  0
   40.0770   22.6790   37.6130 C   0  0  0  0  0  0  0  0  0  0  0  0
   39.1290   23.2880   38.4180 N   0  0  0  0  0  0  0  0  0  0  0  0
   37.8740   23.4770   37.9700 C   0  0  0  0  0  0  0  0  0  0  0  0
   37.5020   23.0950   36.7600 N   0  0  0  0  0  0  0  0  0  0  0  0
   40.4300   21.8020   35.7140 H   0  0  0  0  0  0  0  0  0  0  0  0
   41.0960   22.5090   37.9360 H   0  0  0  0  0  0  0  0  0  0  0  0
   37.1900   23.9630   38.6690 H   0  0  0  0  0  0  0  0  0  0  0  0
   39.1660   24.5020   33.2390 S   0  0  0  0  0  0  0  0  0  0  0  0
   38.3730   25.1170   35.6280 H   0  0  0  0  0  0  0  0  0  0  0  0
   38.2700   26.1470   35.7240 N   0  0  0  0  0  0  0  0  0  0  0  0
   37.1520   26.6530   34.9620 C   0  0  0  0  0  2  0  0  0  0  0  0
   37.2390   26.3250   33.4890 C   0  0  0  0  0  2  0  0  0  0  0  0
   38.6910   26.2150   33.0350 C   0  0  0  0  0  3  0  0  0  0  0  0
   39.5070   27.1590   33.8870 C   0  0  0  0  0  2  0  0  0  0  0  0
   39.5360   26.7360   35.3370 C   0  0  0  0  0  2  0  0  0  0  0  0
  1 14  1  0  0  0  0
  1  2  1  0  0  0  0
  1  4  1  0  0  0  0
  3  1  1  0  0  0  0
  4  5  1  0  0  0  0
  5  6  2  0  0  0  0
  5 10  1  0  0  0  0
  6  7  1  0  0  0  0
  7 12  1  0  0  0  0
  7  8  2  0  0  0  0
  9  8  1  0  0  0  0
  9 13  1  0  0  0  0
 10  9  2  0  0  0  0
 11  6  1  0  0  0  0
 15 16  1  0  0  0  0
 17 16  1  0  0  0  0
 18 17  1  0  0  0  0
 19 14  1  0  0  0  0
 19 18  1  0  0  0  0
 19 20  1  0  0  0  0
 20 21  1  0  0  0  0
 21 16  1  0  0  0  0
M  END
>  <minimizedAffinity>
-3.83832431

$$$$

 OpenBabel03262521533D

 21 22  0  0  0  0  0  0  0  0999 V2000
   39.2180   22.9150   33.2080 C   0  0  0  0  0  0  0  0  0  0  0  0
   40.0800   22.5100   33.8110 H   0  0  0  0  0  0  0  0  0  0  0  0
   39.6900   23.3730   32.3100 H   0  0  0  0  0  0  0  0  0  0  0  0
   38.3230   24.0910   34.2130 S   0  0  0  0  0  0  0  0  0  0  0  0
   38.6390   23.7510   35.9320 C   0  0  0  0  0  0  0  0  0  0  0  0
   37.7280   24.3370   36.8230 C   0  0  0  0  0  0  0  0  0  0  0  0
   37.9120   24.1130   38.1840 C   0  0  0  0  0  0  0  0  0  0  0  0
   38.9790   23.3280   38.5850 N   0  0  0  0  0  0  0  0  0  0  0  0
   39.8160   22.7970   37.6740 C   0  0  0  0  0  0  0  0  0  0  0  0
   39.6530   23.0010   36.3780 N   0  0  0  0  0  0  0  0  0  0  0  0
   36.9050   24.9410   36.5110 H   0  0  0  0  0  0  0  0  0  0  0  0
   37.2170   24.5590   38.8840 H   0  0  0  0  0  0  0  0  0  0  0  0
   40.6310   22.1920   38.0760 H   0  0  0  0  0  0  0  0  0  0  0  0
   38.2210   21.4680   32.7530 S   0  0  0  0  0  0  0  0  0  0  0  0
   36.3320   19.7180   33.0420 H   0  0  0  0  0  0  0  0  0  0  0  0
   35.5670   19.8920   32.3600 N   0  0  0  0  0  0  0  0  0  0  0  0
   35.9700   19.5880   31.0070 C   0  0  0  0  0  2  0  0  0  0  0  0
   37.1840   20.3690   30.5590 C   0  0  0  0  0  2  0  0  0  0  0  0
   37.2620   21.7200   31.2640 C   0  0  0  0  0  3  0  0  0  0  0  0
   35.8460   22.1680   31.5430 C   0  0  0  0  0  2  0  0  0  0  0  0
   35.1490   21.2680   32.5350 C   0  0  0  0  0  2  0  0  0  0  0  0
  1  2  1  0  0  0  0
  1  4  1  0  0  0  0
  3  1  1  0  0  0  0
  4  5  1  0  0  0  0
  5 10  2  0  0  0  0
  5  6  1  0  0  0  0
  6  7  2  0  0  0  0
  7  8  1  0  0  0  0
  7 12  1  0  0  0  0
  9 13  1  0  0  0  0
  9  8  2  0  0  0  0
 10  9  1  0  0  0  0
 11  6  1  0  0  0  0
 14  1  1  0  0  0  0
 16 21  1  0  0  0  0
 16 15  1  0  0  0  0
 17 16  1  0  0  0  0
 18 17  1  0  0  0  0
 18 19  1  0  0  0  0
 19 20  1  0  0  0  0
 19 14  1  0  0  0  0
 20 21  1  0  0  0  0
M  END
>  <minimizedAffinity>
-3.80960321

$$$$

 OpenBabel03262521533D

 21 22  0  0  0  0  0  0  0  0999 V2000
   38.6750   23.4110   33.2630 C   0  0  0  0  0  0  0  0  0  0  0  0
   38.9770   22.8970   32.3060 H   0  0  0  0  0  0  0  0  0  0  0  0
   39.6150   23.8660   33.6500 H   0  0  0  0  0  0  0  0  0  0  0  0
   37.9720   22.1940   34.3670 S   0  0  0  0  0  0  0  0  0  0  0  0
   38.3530   22.6410   36.0480 C   0  0  0  0  0  0  0  0  0  0  0  0
   39.6780   22.3950   36.4350 C   0  0  0  0  0  0  0  0  0  0  0  0
   40.0490   22.7200   37.7370 C   0  0  0  0  0  0  0  0  0  0  0  0
   39.0940   23.2670   38.5770 N   0  0  0  0  0  0  0  0  0  0  0  0
   37.8390   23.4760   38.1390 C   0  0  0  0  0  0  0  0  0  0  0  0
   37.4730   23.1720   36.9050 N   0  0  0  0  0  0  0  0  0  0  0  0
   40.4120   21.9730   35.7850 H   0  0  0  0  0  0  0  0  0  0  0  0
   41.0680   22.5350   38.0500 H   0  0  0  0  0  0  0  0  0  0  0  0
   37.1500   23.9100   38.8660 H   0  0  0  0  0  0  0  0  0  0  0  0
   37.4870   24.6920   32.7710 S   0  0  0  0  0  0  0  0  0  0  0  0
   39.5070   26.1090   31.9810 H   0  0  0  0  0  0  0  0  0  0  0  0
   39.4770   27.0560   32.4080 N   0  0  0  0  0  0  0  0  0  0  0  0
   39.7490   27.0200   33.8260 C   0  0  0  0  0  2  0  0  0  0  0  0
   38.7970   26.1300   34.5910 C   0  0  0  0  0  2  0  0  0  0  0  0
   37.4320   26.0700   33.9120 C   0  0  0  0  0  3  0  0  0  0  0  0
   37.2090   27.3960   33.2230 C   0  0  0  0  0  2  0  0  0  0  0  0
   38.1820   27.6210   32.0900 C   0  0  0  0  0  2  0  0  0  0  0  0
  1  3  1  0  0  0  0
  1  4  1  0  0  0  0
  2  1  1  0  0  0  0
  4  5  1  0  0  0  0
  5  6  2  0  0  0  0
  5 10  1  0  0  0  0
  6  7  1  0  0  0  0
  7 12  1  0  0  0  0
  7  8  2  0  0  0  0
  9  8  1  0  0  0  0
  9 13  1  0  0  0  0
 10  9  2  0  0  0  0
 11  6  1  0  0  0  0
 14  1  1  0  0  0  0
 14 19  1  0  0  0  0
 15 16  1  0  0  0  0
 16 17  1  0  0  0  0
 17 18  1  0  0  0  0
 19 18  1  0  0  0  0
 20 19  1  0  0  0  0
 21 16  1  0  0  0  0
 21 20  1  0  0  0  0
M  END
>  <minimizedAffinity>
-3.74669933

$$$$

 OpenBabel03262521533D

 21 22  0  0  0  0  0  0  0  0999 V2000
   37.9010   21.5410   34.0910 C   0  0  0  0  0  0  0  0  0  0  0  0
   38.6860   22.2230   33.6570 H   0  0  0  0  0  0  0  0  0  0  0  0
   38.3960   20.5460   34.1610 H   0  0  0  0  0  0  0  0  0  0  0  0
   36.4800   21.5470   33.0070 S   0  0  0  0  0  0  0  0  0  0  0  0
   36.6750   20.2700   31.7810 C   0  0  0  0  0  0  0  0  0  0  0  0
   37.3730   20.6640   30.6300 C   0  0  0  0  0  0  0  0  0  0  0  0
   37.5640   19.7180   29.6270 C   0  0  0  0  0  0  0  0  0  0  0  0
   37.0570   18.4440   29.8180 N   0  0  0  0  0  0  0  0  0  0  0  0
   36.3970   18.1340   30.9490 C   0  0  0  0  0  0  0  0  0  0  0  0
   36.2070   19.0230   31.9100 N   0  0  0  0  0  0  0  0  0  0  0  0
   37.7620   21.6480   30.4860 H   0  0  0  0  0  0  0  0  0  0  0  0
   38.1000   20.0080   28.7330 H   0  0  0  0  0  0  0  0  0  0  0  0
   36.0300   17.1080   31.0180 H   0  0  0  0  0  0  0  0  0  0  0  0
   37.5370   22.2060   35.7400 S   0  0  0  0  0  0  0  0  0  0  0  0
   38.3380   21.8510   38.1790 H   0  0  0  0  0  0  0  0  0  0  0  0
   39.0350   22.5750   38.4420 N   0  0  0  0  0  0  0  0  0  0  0  0
   38.4350   23.8820   38.5750 C   0  0  0  0  0  2  0  0  0  0  0  0
   37.7330   24.3430   37.3180 C   0  0  0  0  0  2  0  0  0  0  0  0
   38.3820   23.7480   36.0730 C   0  0  0  0  0  3  0  0  0  0  0  0
   39.8520   23.5620   36.3720 C   0  0  0  0  0  2  0  0  0  0  0  0
   40.0880   22.5290   37.4480 C   0  0  0  0  0  2  0  0  0  0  0  0
  1  3  1  0  0  0  0
  1 14  1  0  0  0  0
  2  1  1  0  0  0  0
  4  1  1  0  0  0  0
  5 10  1  0  0  0  0
  5  4  1  0  0  0  0
  6  5  2  0  0  0  0
  7  8  2  0  0  0  0
  7  6  1  0  0  0  0
  8  9  1  0  0  0  0
  9 13  1  0  0  0  0
  9 10  2  0  0  0  0
 11  6  1  0  0  0  0
 12  7  1  0  0  0  0
 14 19  1  0  0  0  0
 15 16  1  0  0  0  0
 16 17  1  0  0  0  0
 18 17  1  0  0  0  0
 19 20  1  0  0  0  0
 19 18  1  0  0  0  0
 20 21  1  0  0  0  0
 21 16  1  0  0  0  0
M  END
>  <minimizedAffinity>
-3.71327591

$$$$

 OpenBabel03262521533D

 21 22  0  0  0  0  0  0  0  0999 V2000
   38.8260   27.0940   35.3570 C   0  0  0  0  0  0  0  0  0  0  0  0
   37.9350   27.7780   35.4520 H   0  0  0  0  0  0  0  0  0  0  0  0
   39.6280   27.5890   35.9500 H   0  0  0  0  0  0  0  0  0  0  0  0
   39.2310   26.9260   33.6240 S   0  0  0  0  0  0  0  0  0  0  0  0
   37.7250   26.8240   32.6790 C   0  0  0  0  0  0  0  0  0  0  0  0
   37.3600   25.5250   32.2960 C   0  0  0  0  0  0  0  0  0  0  0  0
   36.1920   25.3680   31.5550 C   0  0  0  0  0  0  0  0  0  0  0  0
   35.4570   26.4960   31.2360 N   0  0  0  0  0  0  0  0  0  0  0  0
   35.8670   27.7140   31.6370 C   0  0  0  0  0  0  0  0  0  0  0  0
   36.9740   27.8780   32.3420 N   0  0  0  0  0  0  0  0  0  0  0  0
   37.9290   24.6560   32.5440 H   0  0  0  0  0  0  0  0  0  0  0  0
   35.8970   24.3710   31.2520 H   0  0  0  0  0  0  0  0  0  0  0  0
   35.2290   28.5490   31.3420 H   0  0  0  0  0  0  0  0  0  0  0  0
   38.3210   25.5280   36.1220 S   0  0  0  0  0  0  0  0  0  0  0  0
   38.3930   23.7690   38.0230 H   0  0  0  0  0  0  0  0  0  0  0  0
   38.5370   22.8160   37.6320 N   0  0  0  0  0  0  0  0  0  0  0  0
   39.8670   22.6460   37.0970 C   0  0  0  0  0  2  0  0  0  0  0  0
   40.2080   23.6500   36.0200 C   0  0  0  0  0  2  0  0  0  0  0  0
   38.9590   24.0930   35.2640 C   0  0  0  0  0  3  0  0  0  0  0  0
   37.9930   22.9310   35.2620 C   0  0  0  0  0  2  0  0  0  0  0  0
   37.4940   22.6010   36.6490 C   0  0  0  0  0  2  0  0  0  0  0  0
  1  2  1  0  0  0  0
  1  3  1  0  0  0  0
  1 14  1  0  0  0  0
  4  1  1  0  0  0  0
  5  4  1  0  0  0  0
  6 11  1  0  0  0  0
  6  5  2  0  0  0  0
  7  6  1  0  0  0  0
  8  7  2  0  0  0  0
  8  9  1  0  0  0  0
  9 10  2  0  0  0  0
 10  5  1  0  0  0  0
 12  7  1  0  0  0  0
 13  9  1  0  0  0  0
 16 15  1  0  0  0  0
 17 16  1  0  0  0  0
 18 17  1  0  0  0  0
 19 18  1  0  0  0  0
 19 14  1  0  0  0  0
 20 19  1  0  0  0  0
 20 21  1  0  0  0  0
 21 16  1  0  0  0  0
M  END
>  <minimizedAffinity>
-3.67605066

$$$$

 OpenBabel03262521533D

 21 22  0  0  0  0  0  0  0  0999 V2000
   38.6430   23.9330   32.8850 C   0  0  0  0  0  0  0  0  0  0  0  0
   39.4130   23.1800   33.2170 H   0  0  0  0  0  0  0  0  0  0  0  0
   39.0280   24.3240   31.9160 H   0  0  0  0  0  0  0  0  0  0  0  0
   38.4950   25.1910   34.1460 S   0  0  0  0  0  0  0  0  0  0  0  0
   38.6150   24.4270   35.7500 C   0  0  0  0  0  0  0  0  0  0  0  0
   39.6670   23.5090   35.8850 C   0  0  0  0  0  0  0  0  0  0  0  0
   39.8230   22.8720   37.1120 C   0  0  0  0  0  0  0  0  0  0  0  0
   38.9360   23.1760   38.1310 N   0  0  0  0  0  0  0  0  0  0  0  0
   37.9480   24.0680   37.9310 C   0  0  0  0  0  0  0  0  0  0  0  0
   37.7880   24.6810   36.7710 N   0  0  0  0  0  0  0  0  0  0  0  0
   40.3510   23.2770   35.0980 H   0  0  0  0  0  0  0  0  0  0  0  0
   40.6310   22.1610   37.2320 H   0  0  0  0  0  0  0  0  0  0  0  0
   37.2930   24.2480   38.7860 H   0  0  0  0  0  0  0  0  0  0  0  0
   37.1130   22.9870   32.6440 S   0  0  0  0  0  0  0  0  0  0  0  0
   35.4590   21.7670   31.0660 H   0  0  0  0  0  0  0  0  0  0  0  0
   35.5830   20.7380   31.1330 N   0  0  0  0  0  0  0  0  0  0  0  0
   35.1290   20.2200   32.4030 C   0  0  0  0  0  2  0  0  0  0  0  0
   35.8230   20.8550   33.5860 C   0  0  0  0  0  2  0  0  0  0  0  0
   37.2370   21.2980   33.2230 C   0  0  0  0  0  3  0  0  0  0  0  0
   37.7530   20.3500   32.1660 C   0  0  0  0  0  2  0  0  0  0  0  0
   36.9820   20.4630   30.8730 C   0  0  0  0  0  2  0  0  0  0  0  0
  1  2  1  0  0  0  0
  1  4  1  0  0  0  0
  3  1  1  0  0  0  0
  4  5  1  0  0  0  0
  5  6  2  0  0  0  0
  5 10  1  0  0  0  0
  6  7  1  0  0  0  0
  7 12  1  0  0  0  0
  7  8  2  0  0  0  0
  9  8  1  0  0  0  0
  9 13  1  0  0  0  0
 10  9  2  0  0  0  0
 11  6  1  0  0  0  0
 14  1  1  0  0  0  0
 14 19  1  0  0  0  0
 15 16  1  0  0  0  0
 16 17  1  0  0  0  0
 17 18  1  0  0  0  0
 19 18  1  0  0  0  0
 20 19  1  0  0  0  0
 21 16  1  0  0  0  0
 21 20  1  0  0  0  0
M  END
>  <minimizedAffinity>
-3.60561228

$$$$
