
 OpenBabel03272509433D

 36 38  0  0  1  0  0  0  0  0999 V2000
   37.0490   30.9200   49.0760 C   0  0  0  0  0  0  0  0  0  0  0  0
   36.7700   31.8430   50.0840 C   0  0  0  0  0  0  0  0  0  0  0  0
   37.3570   33.0970   50.1150 C   0  0  0  0  0  0  0  0  0  0  0  0
   38.2570   33.4580   49.1100 C   0  0  0  0  0  0  0  0  0  0  0  0
   38.5230   32.5480   48.1290 C   0  0  0  0  0  0  0  0  0  0  0  0
   37.9170   31.3010   48.1320 C   0  0  0  0  0  0  0  0  0  0  0  0
   36.0680   31.5840   50.8840 H   0  0  0  0  0  0  0  0  0  0  0  0
   37.0900   33.7510   50.9250 H   0  0  0  0  0  0  0  0  0  0  0  0
   38.6530   34.4450   49.2240 H   0  0  0  0  0  0  0  0  0  0  0  0
   39.2390   32.9740   47.4240 H   0  0  0  0  0  0  0  0  0  0  0  0
   36.4620   29.5970   49.0630 C   0  0  2  0  0  0  0  0  0  0  0  0
   36.9620   29.0540   48.1720 H   0  0  0  0  0  0  0  0  0  0  0  0
   33.5990   29.9370   46.8530 C   0  0  0  0  0  0  0  0  0  0  0  0
   32.8560   28.8000   47.0840 C   0  0  0  0  0  0  0  0  0  0  0  0
   33.2980   27.9240   48.0560 C   0  0  0  0  0  0  0  0  0  0  0  0
   34.4530   28.2100   48.7530 N   0  0  0  0  0  0  0  0  0  0  0  0
   35.1200   29.3130   48.4820 C   0  0  0  0  0  0  0  0  0  0  0  0
   34.7000   30.1840   47.5360 N   0  0  0  0  0  0  0  0  0  0  0  0
   33.2190   30.5860   46.0960 H   0  0  0  0  0  0  0  0  0  0  0  0
   31.9430   28.5110   46.5780 H   0  0  0  0  0  0  0  0  0  0  0  0
   32.7910   26.9910   48.3300 H   0  0  0  0  0  0  0  0  0  0  0  0
   36.9350   28.8420   49.9900 O   0  0  0  0  0  0  0  0  0  0  0  0
   36.4180   28.4610   50.7130 H   0  0  0  0  0  0  0  0  0  0  0  0
   38.3130   30.4270   47.0530 C   0  0  0  0  0  3  0  0  0  0  0  0
   38.8630   30.8490   45.9100 C   0  0  0  0  0  3  0  0  0  0  0  0
   39.3410   30.0430   44.7610 C   0  0  0  0  0  0  0  0  0  0  0  0
   38.7600   29.0900   44.6630 H   0  0  0  0  0  0  0  0  0  0  0  0
   40.3930   29.7130   44.9230 H   0  0  0  0  0  0  0  0  0  0  0  0
   39.2940   31.0390   43.2680 S   0  0  0  0  0  0  0  0  0  0  0  0
   39.9860   28.7340   39.7680 H   0  0  0  0  0  0  0  0  0  0  0  0
   40.9190   29.1670   39.6840 N   0  0  0  0  0  0  0  0  0  0  0  0
   41.7370   28.8300   40.8340 C   0  0  0  0  0  2  0  0  0  0  0  0
   41.2290   29.4640   42.1160 C   0  0  0  0  0  2  0  0  0  0  0  0
   39.9250   30.1700   41.8090 C   0  0  0  0  0  3  0  0  0  0  0  0
   40.2140   31.2270   40.7560 C   0  0  0  0  0  2  0  0  0  0  0  0
   40.8310   30.6110   39.5310 C   0  0  0  0  0  2  0  0  0  0  0  0
  1  2  1  0  0  0  0
  2  3  2  0  0  0  0
  2  7  1  0  0  0  0
  3  8  1  0  0  0  0
  4  9  1  0  0  0  0
  4  3  1  0  0  0  0
  5  6  1  0  0  0  0
  5  4  2  0  0  0  0
  6  1  2  0  0  0  0
 10  5  1  0  0  0  0
 11 12  1  6  0  0  0
 11  1  1  0  0  0  0
 11 22  1  0  0  0  0
 13 14  2  0  0  0  0
 13 18  1  0  0  0  0
 14 15  1  0  0  0  0
 15 21  1  0  0  0  0
 15 16  2  0  0  0  0
 17 16  1  0  0  0  0
 17 11  1  0  0  0  0
 18 17  2  0  0  0  0
 19 13  1  0  0  0  0
 20 14  1  0  0  0  0
 22 23  1  0  0  0  0
 24  6  1  0  0  0  0
 25 24  2  0  0  0  0
 26 28  1  0  0  0  0
 26 25  1  0  0  0  0
 27 26  1  0  0  0  0
 29 26  1  0  0  0  0
 31 30  1  0  0  0  0
 31 32  1  0  0  0  0
 32 33  1  0  0  0  0
 34 33  1  0  0  0  0
 34 29  1  0  0  0  0
 35 34  1  0  0  0  0
 36 31  1  0  0  0  0
 36 35  1  0  0  0  0
M  END
>  <minimizedAffinity>
-5.81231785

>  <minimizedRMSD>
0.240833253

$$$$
