
 OpenBabel03272509433D

 36 38  0  0  1  0  0  0  0  0999 V2000
   37.0130   30.9080   49.0680 C   0  0  0  0  0  0  0  0  0  0  0  0
   36.7200   31.8100   50.0900 C   0  0  0  0  0  0  0  0  0  0  0  0
   37.3100   33.0610   50.1570 C   0  0  0  0  0  0  0  0  0  0  0  0
   38.2270   33.4410   49.1760 C   0  0  0  0  0  0  0  0  0  0  0  0
   38.5070   32.5510   48.1790 C   0  0  0  0  0  0  0  0  0  0  0  0
   37.8980   31.3060   48.1460 C   0  0  0  0  0  0  0  0  0  0  0  0
   36.0040   31.5360   50.8720 H   0  0  0  0  0  0  0  0  0  0  0  0
   37.0310   33.6990   50.9770 H   0  0  0  0  0  0  0  0  0  0  0  0
   38.6240   34.4250   49.3170 H   0  0  0  0  0  0  0  0  0  0  0  0
   39.2360   32.9890   47.4960 H   0  0  0  0  0  0  0  0  0  0  0  0
   36.4230   29.5870   49.0170 C   0  0  2  0  0  0  0  0  0  0  0  0
   36.9530   29.0530   48.1360 H   0  0  0  0  0  0  0  0  0  0  0  0
   33.5780   30.0500   46.8050 C   0  0  0  0  0  0  0  0  0  0  0  0
   32.8780   28.8670   46.9020 C   0  0  0  0  0  0  0  0  0  0  0  0
   33.3430   27.9110   47.7830 C   0  0  0  0  0  0  0  0  0  0  0  0
   34.4750   28.1650   48.5270 N   0  0  0  0  0  0  0  0  0  0  0  0
   35.1010   29.3160   48.3850 C   0  0  0  0  0  0  0  0  0  0  0  0
   34.6600   30.2650   47.5290 N   0  0  0  0  0  0  0  0  0  0  0  0
   33.1830   30.7610   46.1140 H   0  0  0  0  0  0  0  0  0  0  0  0
   31.9850   28.5990   46.3520 H   0  0  0  0  0  0  0  0  0  0  0  0
   32.8690   26.9350   47.9480 H   0  0  0  0  0  0  0  0  0  0  0  0
   36.8610   28.8190   49.9490 O   0  0  0  0  0  0  0  0  0  0  0  0
   36.3190   28.4300   50.6490 H   0  0  0  0  0  0  0  0  0  0  0  0
   38.3090   30.4540   47.0550 C   0  0  0  0  0  3  0  0  0  0  0  0
   38.8140   30.9030   45.9020 C   0  0  0  0  0  3  0  0  0  0  0  0
   39.3030   30.1240   44.7400 C   0  0  0  0  0  0  0  0  0  0  0  0
   38.7170   29.1780   44.6100 H   0  0  0  0  0  0  0  0  0  0  0  0
   40.3500   29.7820   44.9090 H   0  0  0  0  0  0  0  0  0  0  0  0
   39.2830   31.1570   43.2720 S   0  0  0  0  0  0  0  0  0  0  0  0
   42.7830   30.4320   40.9770 H   0  0  0  0  0  0  0  0  0  0  0  0
   42.2300   29.8260   40.3500 N   0  0  0  0  0  0  0  0  0  0  0  0
   41.1910   30.5960   39.6920 C   0  0  0  0  0  2  0  0  0  0  0  0
   40.1240   31.0800   40.6560 C   0  0  0  0  0  2  0  0  0  0  0  0
   40.5500   30.7010   42.0600 C   0  0  0  0  0  3  0  0  0  0  0  0
   40.6800   29.1880   42.1050 C   0  0  0  0  0  2  0  0  0  0  0  0
   41.6490   28.6990   41.0640 C   0  0  0  0  0  2  0  0  0  0  0  0
  1  2  1  0  0  0  0
  2  3  2  0  0  0  0
  2  7  1  0  0  0  0
  3  8  1  0  0  0  0
  4  9  1  0  0  0  0
  4  3  1  0  0  0  0
  5  4  2  0  0  0  0
  6  5  1  0  0  0  0
  6  1  2  0  0  0  0
 10  5  1  0  0  0  0
 11 12  1  6  0  0  0
 11  1  1  0  0  0  0
 11 22  1  0  0  0  0
 13 14  2  0  0  0  0
 13 18  1  0  0  0  0
 14 15  1  0  0  0  0
 15 21  1  0  0  0  0
 15 16  2  0  0  0  0
 17 16  1  0  0  0  0
 17 11  1  0  0  0  0
 18 17  2  0  0  0  0
 19 13  1  0  0  0  0
 20 14  1  0  0  0  0
 22 23  1  0  0  0  0
 24  6  1  0  0  0  0
 25 24  2  0  0  0  0
 26 28  1  0  0  0  0
 26 25  1  0  0  0  0
 27 26  1  0  0  0  0
 29 26  1  0  0  0  0
 31 30  1  0  0  0  0
 31 36  1  0  0  0  0
 32 31  1  0  0  0  0
 32 33  1  0  0  0  0
 33 34  1  0  0  0  0
 34 35  1  0  0  0  0
 34 29  1  0  0  0  0
 36 35  1  0  0  0  0
M  END
>  <minimizedAffinity>
-5.98491287

>  <minimizedRMSD>
0.893752635

$$$$
