
 OpenBabel03272501313D

 18 19  0  0  0  0  0  0  0  0999 V2000
   38.1280   23.4190   38.2070 C   0  0  0  0  0  0  0  0  0  0  0  0
   39.5020   23.1140   38.2080 C   0  0  0  0  0  0  0  0  0  0  0  0
   40.0320   22.4840   37.0720 C   0  0  0  0  0  0  0  0  0  0  0  0
   39.1850   22.2130   36.0510 N   0  0  0  0  0  0  0  0  0  0  0  0
   37.8850   22.5200   36.0870 C   0  0  0  0  0  0  0  0  0  0  0  0
   37.3350   23.1210   37.1520 N   0  0  0  0  0  0  0  0  0  0  0  0
   37.6410   23.9050   39.0430 H   0  0  0  0  0  0  0  0  0  0  0  0
   40.0950   23.3710   39.0730 H   0  0  0  0  0  0  0  0  0  0  0  0
   37.3300   22.2370   35.1850 H   0  0  0  0  0  0  0  0  0  0  0  0
   41.4390   22.1610   37.0510 C   0  0  0  0  0  0  0  0  0  0  0  0
   41.9190   21.0960   37.5430 O   0  0  0  0  0  0  0  0  0  0  0  0
   42.2930   23.1220   36.4320 N   0  0  0  0  0  0  0  0  0  0  0  0
   43.7510   23.2330   36.5140 C   0  0  0  0  0  2  0  0  0  0  0  0
   44.1490   24.6880   36.3780 C   0  0  0  0  0  2  0  0  0  0  0  0
   43.8250   25.2390   35.0040 C   0  0  0  0  0  3  0  0  0  0  0  0
   43.5560   26.3220   35.0380 H   0  0  0  0  0  0  0  0  0  0  0  0
   42.6370   24.4730   34.4190 C   0  0  0  0  0  2  0  0  0  0  0  0
   41.7020   24.1610   35.5930 C   0  0  0  0  0  2  0  0  0  0  0  0
  1  2  1  0  0  0  0
  1  7  1  0  0  0  0
  2  8  1  0  0  0  0
  3  2  2  0  0  0  0
  4  5  2  0  0  0  0
  4  3  1  0  0  0  0
  5  6  1  0  0  0  0
  6  1  2  0  0  0  0
  9  5  1  0  0  0  0
 10  3  1  0  0  0  0
 10 11  2  0  0  0  0
 12 13  1  0  0  0  0
 12 10  1  0  0  0  0
 14 13  1  0  0  0  0
 15 16  1  0  0  0  0
 15 14  1  0  0  0  0
 17 15  1  0  0  0  0
 17 18  1  0  0  0  0
 18 12  1  0  0  0  0
M  END
>  <minimizedAffinity>
-4.11414528

$$$$

 OpenBabel03272501313D

 18 19  0  0  0  0  0  0  0  0999 V2000
   39.9520   22.8600   37.7660 C   0  0  0  0  0  0  0  0  0  0  0  0
   39.6500   22.8560   36.3910 C   0  0  0  0  0  0  0  0  0  0  0  0
   38.3460   23.2020   36.0080 C   0  0  0  0  0  0  0  0  0  0  0  0
   37.4660   23.5170   36.9870 N   0  0  0  0  0  0  0  0  0  0  0  0
   37.7910   23.5100   38.2820 C   0  0  0  0  0  0  0  0  0  0  0  0
   39.0250   23.1860   38.6950 N   0  0  0  0  0  0  0  0  0  0  0  0
   40.9350   22.6060   38.1450 H   0  0  0  0  0  0  0  0  0  0  0  0
   40.4240   22.5890   35.6860 H   0  0  0  0  0  0  0  0  0  0  0  0
   36.9700   23.7880   38.9540 H   0  0  0  0  0  0  0  0  0  0  0  0
   38.0140   23.2040   34.6020 C   0  0  0  0  0  0  0  0  0  0  0  0
   37.6910   22.1600   33.9590 O   0  0  0  0  0  0  0  0  0  0  0  0
   38.0670   24.4700   33.9480 N   0  0  0  0  0  0  0  0  0  0  0  0
   38.0820   24.7560   32.5120 C   0  0  0  0  0  2  0  0  0  0  0  0
   38.8550   26.0350   32.2650 C   0  0  0  0  0  2  0  0  0  0  0  0
   38.1600   27.2420   32.8620 C   0  0  0  0  0  3  0  0  0  0  0  0
   38.8850   28.0150   33.2100 H   0  0  0  0  0  0  0  0  0  0  0  0
   37.3220   26.8010   34.0640 C   0  0  0  0  0  2  0  0  0  0  0  0
   38.1140   25.6860   34.7570 C   0  0  0  0  0  2  0  0  0  0  0  0
  1  7  1  0  0  0  0
  1  6  1  0  0  0  0
  2  1  2  0  0  0  0
  3  2  1  0  0  0  0
  3  4  2  0  0  0  0
  4  5  1  0  0  0  0
  5  6  2  0  0  0  0
  5  9  1  0  0  0  0
  8  2  1  0  0  0  0
 10  3  1  0  0  0  0
 11 10  2  0  0  0  0
 12 10  1  0  0  0  0
 12 18  1  0  0  0  0
 13 12  1  0  0  0  0
 14 13  1  0  0  0  0
 14 15  1  0  0  0  0
 15 16  1  0  0  0  0
 15 17  1  0  0  0  0
 17 18  1  0  0  0  0
M  END
>  <minimizedAffinity>
-3.99416995

$$$$

 OpenBabel03272501313D

 18 19  0  0  0  0  0  0  0  0999 V2000
   37.8800   24.0440   38.0130 C   0  0  0  0  0  0  0  0  0  0  0  0
   37.7790   24.4220   36.6610 C   0  0  0  0  0  0  0  0  0  0  0  0
   38.7650   23.9580   35.7780 C   0  0  0  0  0  0  0  0  0  0  0  0
   39.7470   23.1760   36.2860 N   0  0  0  0  0  0  0  0  0  0  0  0
   39.8080   22.8380   37.5760 C   0  0  0  0  0  0  0  0  0  0  0  0
   38.8880   23.2590   38.4570 N   0  0  0  0  0  0  0  0  0  0  0  0
   37.1600   24.3590   38.7590 H   0  0  0  0  0  0  0  0  0  0  0  0
   36.9560   25.0510   36.3530 H   0  0  0  0  0  0  0  0  0  0  0  0
   40.6610   22.2010   37.8360 H   0  0  0  0  0  0  0  0  0  0  0  0
   38.6820   24.3350   34.3850 C   0  0  0  0  0  0  0  0  0  0  0  0
   39.2250   25.3760   33.9100 O   0  0  0  0  0  0  0  0  0  0  0  0
   37.9380   23.4560   33.5430 N   0  0  0  0  0  0  0  0  0  0  0  0
   37.4270   23.7020   32.1930 C   0  0  0  0  0  2  0  0  0  0  0  0
   36.1590   22.9000   31.9860 C   0  0  0  0  0  2  0  0  0  0  0  0
   36.4220   21.4080   32.0010 C   0  0  0  0  0  3  0  0  0  0  0  0
   35.5620   20.8340   32.4210 H   0  0  0  0  0  0  0  0  0  0  0  0
   37.6520   21.1200   32.8650 C   0  0  0  0  0  2  0  0  0  0  0  0
   37.6080   22.1180   34.0280 C   0  0  0  0  0  2  0  0  0  0  0  0
  1  6  1  0  0  0  0
  1  7  1  0  0  0  0
  2  1  2  0  0  0  0
  3  4  2  0  0  0  0
  3  2  1  0  0  0  0
  4  5  1  0  0  0  0
  5  9  1  0  0  0  0
  5  6  2  0  0  0  0
  8  2  1  0  0  0  0
 10  3  1  0  0  0  0
 11 10  2  0  0  0  0
 12 18  1  0  0  0  0
 12 10  1  0  0  0  0
 13 12  1  0  0  0  0
 14 15  1  0  0  0  0
 14 13  1  0  0  0  0
 15 16  1  0  0  0  0
 15 17  1  0  0  0  0
 17 18  1  0  0  0  0
M  END
>  <minimizedAffinity>
-3.96120906

$$$$

 OpenBabel03272501313D

 18 19  0  0  0  0  0  0  0  0999 V2000
   36.8480   22.5730   31.3310 C   0  0  0  0  0  0  0  0  0  0  0  0
   37.8650   23.5240   31.5380 C   0  0  0  0  0  0  0  0  0  0  0  0
   37.5110   24.8800   31.4930 C   0  0  0  0  0  0  0  0  0  0  0  0
   36.2130   25.1830   31.2540 N   0  0  0  0  0  0  0  0  0  0  0  0
   35.2750   24.2510   31.0630 C   0  0  0  0  0  0  0  0  0  0  0  0
   35.5680   22.9430   31.0960 N   0  0  0  0  0  0  0  0  0  0  0  0
   37.0370   21.5070   31.3500 H   0  0  0  0  0  0  0  0  0  0  0  0
   38.8730   23.1810   31.7220 H   0  0  0  0  0  0  0  0  0  0  0  0
   34.2710   24.6530   30.8800 H   0  0  0  0  0  0  0  0  0  0  0  0
   38.5390   25.8730   31.7030 C   0  0  0  0  0  0  0  0  0  0  0  0
   39.2860   26.3110   30.7780 O   0  0  0  0  0  0  0  0  0  0  0  0
   38.6800   26.3550   33.0390 N   0  0  0  0  0  0  0  0  0  0  0  0
   39.7900   27.1120   33.6220 C   0  0  0  0  0  2  0  0  0  0  0  0
   39.9010   26.7780   35.0950 C   0  0  0  0  0  2  0  0  0  0  0  0
   38.6940   27.2530   35.8780 C   0  0  0  0  0  3  0  0  0  0  0  0
   38.4590   26.5810   36.7370 H   0  0  0  0  0  0  0  0  0  0  0  0
   37.4740   27.2880   34.9550 C   0  0  0  0  0  2  0  0  0  0  0  0
   37.6160   26.0930   34.0050 C   0  0  0  0  0  2  0  0  0  0  0  0
  1  7  1  0  0  0  0
  1  2  1  0  0  0  0
  2  8  1  0  0  0  0
  3  2  2  0  0  0  0
  3 10  1  0  0  0  0
  4  3  1  0  0  0  0
  5  6  1  0  0  0  0
  5  4  2  0  0  0  0
  6  1  2  0  0  0  0
  9  5  1  0  0  0  0
 10 12  1  0  0  0  0
 11 10  2  0  0  0  0
 12 13  1  0  0  0  0
 12 18  1  0  0  0  0
 13 14  1  0  0  0  0
 14 15  1  0  0  0  0
 15 16  1  0  0  0  0
 17 15  1  0  0  0  0
 18 17  1  0  0  0  0
M  END
>  <minimizedAffinity>
-3.95464396

$$$$

 OpenBabel03272501313D

 18 19  0  0  0  0  0  0  0  0999 V2000
   34.8860   25.2750   30.8290 C   0  0  0  0  0  0  0  0  0  0  0  0
   35.9930   26.1070   31.0780 C   0  0  0  0  0  0  0  0  0  0  0  0
   37.1990   25.4950   31.4520 C   0  0  0  0  0  0  0  0  0  0  0  0
   37.2150   24.1440   31.5470 N   0  0  0  0  0  0  0  0  0  0  0  0
   36.1420   23.3880   31.3010 C   0  0  0  0  0  0  0  0  0  0  0  0
   34.9690   23.9290   30.9410 N   0  0  0  0  0  0  0  0  0  0  0  0
   33.9200   25.6670   30.5350 H   0  0  0  0  0  0  0  0  0  0  0  0
   35.8790   27.1760   30.9760 H   0  0  0  0  0  0  0  0  0  0  0  0
   36.3120   22.3120   31.4200 H   0  0  0  0  0  0  0  0  0  0  0  0
   38.3480   26.3290   31.7140 C   0  0  0  0  0  0  0  0  0  0  0  0
   39.1090   26.7750   30.8030 O   0  0  0  0  0  0  0  0  0  0  0  0
   38.5980   26.6400   33.0830 N   0  0  0  0  0  0  0  0  0  0  0  0
   39.8130   27.1900   33.6870 C   0  0  0  0  0  2  0  0  0  0  0  0
   39.9370   26.6850   35.1090 C   0  0  0  0  0  2  0  0  0  0  0  0
   38.8280   27.2100   35.9980 C   0  0  0  0  0  3  0  0  0  0  0  0
   38.5440   26.4790   36.7920 H   0  0  0  0  0  0  0  0  0  0  0  0
   37.5890   27.4910   35.1460 C   0  0  0  0  0  2  0  0  0  0  0  0
   37.5460   26.4010   34.0690 C   0  0  0  0  0  2  0  0  0  0  0  0
  1  6  2  0  0  0  0
  1  2  1  0  0  0  0
  2  3  2  0  0  0  0
  3  4  1  0  0  0  0
  3 10  1  0  0  0  0
  5  9  1  0  0  0  0
  5  4  2  0  0  0  0
  6  5  1  0  0  0  0
  7  1  1  0  0  0  0
  8  2  1  0  0  0  0
 10 12  1  0  0  0  0
 11 10  2  0  0  0  0
 12 13  1  0  0  0  0
 12 18  1  0  0  0  0
 13 14  1  0  0  0  0
 14 15  1  0  0  0  0
 15 16  1  0  0  0  0
 17 15  1  0  0  0  0
 18 17  1  0  0  0  0
M  END
>  <minimizedAffinity>
-3.95267844

$$$$

 OpenBabel03272501313D

 18 19  0  0  0  0  0  0  0  0999 V2000
   39.8990   22.8120   37.3710 C   0  0  0  0  0  0  0  0  0  0  0  0
   39.7920   23.1330   36.0050 C   0  0  0  0  0  0  0  0  0  0  0  0
   38.6480   23.8260   35.5840 C   0  0  0  0  0  0  0  0  0  0  0  0
   37.7220   24.1400   36.5210 N   0  0  0  0  0  0  0  0  0  0  0  0
   37.8600   23.8190   37.8100 C   0  0  0  0  0  0  0  0  0  0  0  0
   38.9360   23.1570   38.2580 N   0  0  0  0  0  0  0  0  0  0  0  0
   40.7500   22.2800   37.7780 H   0  0  0  0  0  0  0  0  0  0  0  0
   40.5860   22.8370   35.3340 H   0  0  0  0  0  0  0  0  0  0  0  0
   37.0270   24.1410   38.4460 H   0  0  0  0  0  0  0  0  0  0  0  0
   38.5170   24.1650   34.1850 C   0  0  0  0  0  0  0  0  0  0  0  0
   39.0530   25.1870   33.6620 O   0  0  0  0  0  0  0  0  0  0  0  0
   37.7360   23.2710   33.3950 N   0  0  0  0  0  0  0  0  0  0  0  0
   37.1780   23.4850   32.0580 C   0  0  0  0  0  2  0  0  0  0  0  0
   35.8960   22.6910   31.9190 C   0  0  0  0  0  2  0  0  0  0  0  0
   36.1460   21.1970   31.9660 C   0  0  0  0  0  3  0  0  0  0  0  0
   35.2970   20.6430   32.4320 H   0  0  0  0  0  0  0  0  0  0  0  0
   37.4030   20.9200   32.7920 C   0  0  0  0  0  2  0  0  0  0  0  0
   37.4110   21.9500   33.9280 C   0  0  0  0  0  2  0  0  0  0  0  0
  1  7  1  0  0  0  0
  1  6  1  0  0  0  0
  2  1  2  0  0  0  0
  3  2  1  0  0  0  0
  3  4  2  0  0  0  0
  4  5  1  0  0  0  0
  5  6  2  0  0  0  0
  5  9  1  0  0  0  0
  8  2  1  0  0  0  0
 10  3  1  0  0  0  0
 11 10  2  0  0  0  0
 12 18  1  0  0  0  0
 12 10  1  0  0  0  0
 13 12  1  0  0  0  0
 14 15  1  0  0  0  0
 14 13  1  0  0  0  0
 15 16  1  0  0  0  0
 15 17  1  0  0  0  0
 17 18  1  0  0  0  0
M  END
>  <minimizedAffinity>
-3.92197371

$$$$

 OpenBabel03272501313D

 18 19  0  0  0  0  0  0  0  0999 V2000
   38.0550   24.8530   35.3900 C   0  0  0  0  0  0  0  0  0  0  0  0
   38.3100   23.9670   34.3270 C   0  0  0  0  0  0  0  0  0  0  0  0
   38.4340   22.6030   34.6290 C   0  0  0  0  0  0  0  0  0  0  0  0
   38.3000   22.2310   35.9240 N   0  0  0  0  0  0  0  0  0  0  0  0
   38.0570   23.1030   36.9060 C   0  0  0  0  0  0  0  0  0  0  0  0
   37.9310   24.4150   36.6650 N   0  0  0  0  0  0  0  0  0  0  0  0
   37.9440   25.9200   35.2430 H   0  0  0  0  0  0  0  0  0  0  0  0
   38.4000   24.3630   33.3260 H   0  0  0  0  0  0  0  0  0  0  0  0
   37.9750   22.6500   37.9010 H   0  0  0  0  0  0  0  0  0  0  0  0
   38.6960   21.6750   33.5530 C   0  0  0  0  0  0  0  0  0  0  0  0
   39.8610   21.3840   33.1500 O   0  0  0  0  0  0  0  0  0  0  0  0
   37.5500   21.0830   32.9440 N   0  0  0  0  0  0  0  0  0  0  0  0
   37.4620   20.3610   31.6730 C   0  0  0  0  0  2  0  0  0  0  0  0
   36.0840   20.5630   31.0780 C   0  0  0  0  0  2  0  0  0  0  0  0
   35.0010   19.9260   31.9260 C   0  0  0  0  0  3  0  0  0  0  0  0
   34.0420   20.4950   31.8790 H   0  0  0  0  0  0  0  0  0  0  0  0
   35.4590   19.8860   33.3850 C   0  0  0  0  0  2  0  0  0  0  0  0
   36.2590   21.1710   33.6240 C   0  0  0  0  0  2  0  0  0  0  0  0
  1  6  1  0  0  0  0
  2  3  1  0  0  0  0
  2  1  2  0  0  0  0
  3  4  2  0  0  0  0
  4  5  1  0  0  0  0
  5  9  1  0  0  0  0
  6  5  2  0  0  0  0
  7  1  1  0  0  0  0
  8  2  1  0  0  0  0
 10  3  1  0  0  0  0
 11 10  2  0  0  0  0
 12 10  1  0  0  0  0
 12 18  1  0  0  0  0
 13 12  1  0  0  0  0
 14 13  1  0  0  0  0
 14 15  1  0  0  0  0
 15 17  1  0  0  0  0
 16 15  1  0  0  0  0
 17 18  1  0  0  0  0
M  END
>  <minimizedAffinity>
-3.88306808

$$$$

 OpenBabel03272501313D

 18 19  0  0  0  0  0  0  0  0999 V2000
   38.6800   23.8910   36.9330 C   0  0  0  0  0  0  0  0  0  0  0  0
   37.5470   23.1210   36.6110 C   0  0  0  0  0  0  0  0  0  0  0  0
   37.6970   22.1090   35.6510 C   0  0  0  0  0  0  0  0  0  0  0  0
   38.9220   21.9420   35.0990 N   0  0  0  0  0  0  0  0  0  0  0  0
   39.9740   22.6940   35.4320 C   0  0  0  0  0  0  0  0  0  0  0  0
   39.8780   23.6720   36.3440 N   0  0  0  0  0  0  0  0  0  0  0  0
   38.6500   24.6900   37.6640 H   0  0  0  0  0  0  0  0  0  0  0  0
   36.6110   23.3320   37.1080 H   0  0  0  0  0  0  0  0  0  0  0  0
   40.8980   22.4390   34.8990 H   0  0  0  0  0  0  0  0  0  0  0  0
   36.5470   21.3060   35.3040 C   0  0  0  0  0  0  0  0  0  0  0  0
   35.8210   20.7200   36.1620 O   0  0  0  0  0  0  0  0  0  0  0  0
   36.2550   21.1980   33.9120 N   0  0  0  0  0  0  0  0  0  0  0  0
   35.3720   20.2460   33.2360 C   0  0  0  0  0  2  0  0  0  0  0  0
   35.8940   19.9860   31.8390 C   0  0  0  0  0  2  0  0  0  0  0  0
   35.8190   21.2230   30.9660 C   0  0  0  0  0  3  0  0  0  0  0  0
   36.6490   21.2630   30.2220 H   0  0  0  0  0  0  0  0  0  0  0  0
   35.9110   22.4700   31.8480 C   0  0  0  0  0  2  0  0  0  0  0  0
   36.8870   22.1290   32.9800 C   0  0  0  0  0  2  0  0  0  0  0  0
  1  7  1  0  0  0  0
  2  1  1  0  0  0  0
  2  8  1  0  0  0  0
  3  2  2  0  0  0  0
  4  5  2  0  0  0  0
  4  3  1  0  0  0  0
  5  6  1  0  0  0  0
  6  1  2  0  0  0  0
  9  5  1  0  0  0  0
 10  3  1  0  0  0  0
 10 11  2  0  0  0  0
 12 10  1  0  0  0  0
 13 12  1  0  0  0  0
 14 13  1  0  0  0  0
 15 14  1  0  0  0  0
 15 17  1  0  0  0  0
 16 15  1  0  0  0  0
 17 18  1  0  0  0  0
 18 12  1  0  0  0  0
M  END
>  <minimizedAffinity>
-3.86350179

$$$$

 OpenBabel03272501313D

 18 19  0  0  0  0  0  0  0  0999 V2000
   39.8470   27.0920   34.0550 C   0  0  0  0  0  0  0  0  0  0  0  0
   38.9370   26.7750   33.0290 C   0  0  0  0  0  0  0  0  0  0  0  0
   37.6510   26.3590   33.4030 C   0  0  0  0  0  0  0  0  0  0  0  0
   37.3710   26.2910   34.7260 N   0  0  0  0  0  0  0  0  0  0  0  0
   38.2630   26.6020   35.6710 C   0  0  0  0  0  0  0  0  0  0  0  0
   39.5040   27.0040   35.3610 N   0  0  0  0  0  0  0  0  0  0  0  0
   40.8590   27.4220   33.8520 H   0  0  0  0  0  0  0  0  0  0  0  0
   39.2570   26.8610   32.0010 H   0  0  0  0  0  0  0  0  0  0  0  0
   37.8890   26.4970   36.6960 H   0  0  0  0  0  0  0  0  0  0  0  0
   36.7000   26.0280   32.3660 C   0  0  0  0  0  0  0  0  0  0  0  0
   35.9550   26.8840   31.8030 O   0  0  0  0  0  0  0  0  0  0  0  0
   36.6350   24.6530   31.9930 N   0  0  0  0  0  0  0  0  0  0  0  0
   35.6000   23.9660   31.2180 C   0  0  0  0  0  2  0  0  0  0  0  0
   35.5140   22.5230   31.6680 C   0  0  0  0  0  2  0  0  0  0  0  0
   36.7750   21.7500   31.3420 C   0  0  0  0  0  3  0  0  0  0  0  0
   36.9920   20.9600   32.0990 H   0  0  0  0  0  0  0  0  0  0  0  0
   37.9640   22.7130   31.3080 C   0  0  0  0  0  2  0  0  0  0  0  0
   37.7100   23.7540   32.4050 C   0  0  0  0  0  2  0  0  0  0  0  0
  1  6  1  0  0  0  0
  2  3  1  0  0  0  0
  2  1  2  0  0  0  0
  3  4  2  0  0  0  0
  4  5  1  0  0  0  0
  5  9  1  0  0  0  0
  6  5  2  0  0  0  0
  7  1  1  0  0  0  0
  8  2  1  0  0  0  0
 10  3  1  0  0  0  0
 11 10  2  0  0  0  0
 12 10  1  0  0  0  0
 12 18  1  0  0  0  0
 13 14  1  0  0  0  0
 13 12  1  0  0  0  0
 15 14  1  0  0  0  0
 15 16  1  0  0  0  0
 17 15  1  0  0  0  0
 17 18  1  0  0  0  0
M  END
>  <minimizedAffinity>
-3.84488988

$$$$
