
 OpenBabel03272509433D

 36 38  0  0  1  0  0  0  0  0999 V2000
   37.0690   30.8900   49.1160 C   0  0  0  0  0  0  0  0  0  0  0  0
   36.7790   31.8140   50.1200 C   0  0  0  0  0  0  0  0  0  0  0  0
   37.3280   33.0850   50.1280 C   0  0  0  0  0  0  0  0  0  0  0  0
   38.2000   33.4630   49.1050 C   0  0  0  0  0  0  0  0  0  0  0  0
   38.4770   32.5510   48.1280 C   0  0  0  0  0  0  0  0  0  0  0  0
   37.9090   31.2870   48.1540 C   0  0  0  0  0  0  0  0  0  0  0  0
   36.0990   31.5420   50.9340 H   0  0  0  0  0  0  0  0  0  0  0  0
   37.0550   33.7390   50.9370 H   0  0  0  0  0  0  0  0  0  0  0  0
   38.5680   34.4630   49.2020 H   0  0  0  0  0  0  0  0  0  0  0  0
   39.1680   32.9910   47.4070 H   0  0  0  0  0  0  0  0  0  0  0  0
   36.5230   29.5500   49.1270 C   0  0  2  0  0  0  0  0  0  0  0  0
   37.0100   29.0180   48.2210 H   0  0  0  0  0  0  0  0  0  0  0  0
   33.6160   29.7360   46.9560 C   0  0  0  0  0  0  0  0  0  0  0  0
   32.8840   28.6120   47.2720 C   0  0  0  0  0  0  0  0  0  0  0  0
   33.3510   27.8010   48.2880 C   0  0  0  0  0  0  0  0  0  0  0  0
   34.5170   28.1360   48.9420 N   0  0  0  0  0  0  0  0  0  0  0  0
   35.1720   29.2230   48.5900 C   0  0  0  0  0  0  0  0  0  0  0  0
   34.7280   30.0310   47.6000 N   0  0  0  0  0  0  0  0  0  0  0  0
   33.2170   30.3340   46.1670 H   0  0  0  0  0  0  0  0  0  0  0  0
   31.9640   28.2870   46.8020 H   0  0  0  0  0  0  0  0  0  0  0  0
   32.8540   26.8840   48.6290 H   0  0  0  0  0  0  0  0  0  0  0  0
   37.0480   28.8130   50.0390 O   0  0  0  0  0  0  0  0  0  0  0  0
   36.5670   28.4190   50.7800 H   0  0  0  0  0  0  0  0  0  0  0  0
   38.3140   30.4140   47.0770 C   0  0  0  0  0  3  0  0  0  0  0  0
   38.7820   30.8420   45.9010 C   0  0  0  0  0  3  0  0  0  0  0  0
   39.2610   30.0410   44.7490 C   0  0  0  0  0  0  0  0  0  0  0  0
   38.4050   29.6720   44.1270 H   0  0  0  0  0  0  0  0  0  0  0  0
   39.7710   29.1150   45.0990 H   0  0  0  0  0  0  0  0  0  0  0  0
   40.4430   31.0030   43.7980 S   0  0  0  0  0  0  0  0  0  0  0  0
   41.1960   30.4520   39.6540 H   0  0  0  0  0  0  0  0  0  0  0  0
   40.8230   29.4930   39.7280 N   0  0  0  0  0  0  0  0  0  0  0  0
   39.4250   29.5240   40.1170 C   0  0  0  0  0  2  0  0  0  0  0  0
   39.2250   30.0310   41.5330 C   0  0  0  0  0  2  0  0  0  0  0  0
   40.5720   30.4710   42.0710 C   0  0  0  0  0  3  0  0  0  0  0  0
   41.4910   29.2600   42.0490 C   0  0  0  0  0  2  0  0  0  0  0  0
   41.5890   28.6850   40.6640 C   0  0  0  0  0  2  0  0  0  0  0  0
  1 11  1  0  0  0  0
  1  2  1  0  0  0  0
  2  3  2  0  0  0  0
  2  7  1  0  0  0  0
  3  8  1  0  0  0  0
  4  9  1  0  0  0  0
  4  3  1  0  0  0  0
  5  6  1  0  0  0  0
  5  4  2  0  0  0  0
  6  1  2  0  0  0  0
 10  5  1  0  0  0  0
 11 12  1  6  0  0  0
 11 22  1  0  0  0  0
 13 14  2  0  0  0  0
 13 18  1  0  0  0  0
 14 15  1  0  0  0  0
 15 21  1  0  0  0  0
 15 16  2  0  0  0  0
 17 16  1  0  0  0  0
 17 11  1  0  0  0  0
 18 17  2  0  0  0  0
 19 13  1  0  0  0  0
 20 14  1  0  0  0  0
 22 23  1  0  0  0  0
 24  6  1  0  0  0  0
 25 24  2  0  0  0  0
 26 28  1  0  0  0  0
 26 25  1  0  0  0  0
 27 26  1  0  0  0  0
 29 26  1  0  0  0  0
 30 31  1  0  0  0  0
 31 32  1  0  0  0  0
 31 36  1  0  0  0  0
 32 33  1  0  0  0  0
 33 34  1  0  0  0  0
 34 29  1  0  0  0  0
 35 34  1  0  0  0  0
 36 35  1  0  0  0  0
M  END
>  <minimizedAffinity>
-5.91981316

>  <minimizedRMSD>
0.59877789

$$$$
