
 OpenBabel03272505243D

 26 28  0  0  0  0  0  0  0  0999 V2000
   36.5800   29.1790   50.5420 C   0  0  0  0  0  0  0  0  0  0  0  0
   36.7400   29.3980   49.1510 C   0  0  0  0  0  0  0  0  0  0  0  0
   35.6660   29.8440   48.4050 C   0  0  0  0  0  0  0  0  0  0  0  0
   34.5040   30.0450   49.0590 N   0  0  0  0  0  0  0  0  0  0  0  0
   34.3300   29.8420   50.3810 C   0  0  0  0  0  0  0  0  0  0  0  0
   35.3810   29.4060   51.1200 N   0  0  0  0  0  0  0  0  0  0  0  0
   35.7620   30.0850   47.0140 N   0  0  0  0  0  0  0  0  0  0  0  0
   34.7100   29.8910   46.1920 C   0  0  0  0  0  0  0  0  0  0  0  0
   34.8300   30.1350   44.8190 C   0  0  0  0  0  0  0  0  0  0  0  0
   36.0700   30.5860   44.3300 C   0  0  0  0  0  0  0  0  0  0  0  0
   36.1860   30.8050   43.1180 O   0  0  0  0  0  0  0  0  0  0  0  0
   37.1150   30.7740   45.1860 N   0  0  0  0  0  0  0  0  0  0  0  0
   36.9050   30.5140   46.4840 C   0  0  0  0  0  0  0  0  0  0  0  0
   37.8940   30.7040   47.2370 O   0  0  0  0  0  0  0  0  0  0  0  0
   37.3650   28.8360   51.1860 H   0  0  0  0  0  0  0  0  0  0  0  0
   37.7180   29.1720   48.8180 H   0  0  0  0  0  0  0  0  0  0  0  0
   33.3360   30.0430   50.7910 H   0  0  0  0  0  0  0  0  0  0  0  0
   33.7790   29.5490   46.5730 H   0  0  0  0  0  0  0  0  0  0  0  0
   34.0120   29.9900   44.1370 H   0  0  0  0  0  0  0  0  0  0  0  0
   41.2020   33.2120   44.4490 H   0  0  0  0  0  0  0  0  0  0  0  0
   40.9770   32.5590   45.2290 N   0  0  0  0  0  0  0  0  0  0  0  0
   40.8100   31.2370   44.7170 C   0  0  0  0  0  2  0  0  0  0  0  0
   39.5690   30.5410   45.3050 C   0  0  0  0  0  2  0  0  0  0  0  0
   38.3890   31.2290   44.7350 C   0  0  0  0  0  3  0  0  0  0  0  0
   38.5570   32.7270   44.9980 C   0  0  0  0  0  2  0  0  0  0  0  0
   39.7790   32.9970   45.8690 C   0  0  0  0  0  2  0  0  0  0  0  0
  1  6  1  0  0  0  0
  1 15  1  0  0  0  0
  2  1  2  0  0  0  0
  3  4  2  0  0  0  0
  3  2  1  0  0  0  0
  4  5  1  0  0  0  0
  5 17  1  0  0  0  0
  5  6  2  0  0  0  0
  7  3  1  0  0  0  0
  8 18  1  0  0  0  0
  8  7  1  0  0  0  0
  9  8  2  0  0  0  0
 10  9  1  0  0  0  0
 10 12  1  0  0  0  0
 11 10  2  0  0  0  0
 12 13  1  0  0  0  0
 13  7  1  0  0  0  0
 13 14  2  0  0  0  0
 16  2  1  0  0  0  0
 19  9  1  0  0  0  0
 20 21  1  0  0  0  0
 21 26  1  0  0  0  0
 22 21  1  0  0  0  0
 22 23  1  0  0  0  0
 24 25  1  0  0  0  0
 24 12  1  0  0  0  0
 24 23  1  0  0  0  0
 25 26  1  0  0  0  0
M  END
>  <minimizedAffinity>
-5.48653555

>  <minimizedRMSD>
4.07732773

$$$$
