
     RDKit          3D

 45 47  0  0  0  0  0  0  0  0999 V2000
   36.0734   30.6884   49.0650 C   0  0  2  0  0  0  0  0  0  0  0  0
   37.0137   31.6402   49.7436 C   0  0  0  0  0  0  0  0  0  0  0  0
   38.0486   30.9390   50.5997 C   0  0  0  0  0  0  0  0  0  0  0  0
   37.3424   30.0870   51.6567 C   0  0  0  0  0  0  0  0  0  0  0  0
   36.1316   29.3621   51.1444 C   0  0  0  0  0  0  0  0  0  0  0  0
   36.1888   29.3049   49.6080 C   0  0  1  0  0  0  0  0  0  0  0  0
   36.3179   30.6475   47.5990 C   0  0  0  0  0  0  0  0  0  0  0  0
   37.5841   31.1112   47.1802 C   0  0  0  0  0  0  0  0  0  0  0  0
   37.8304   31.0774   45.8032 C   0  0  0  0  0  0  0  0  0  0  0  0
   36.8513   30.6061   44.9586 N   0  0  0  0  0  0  0  0  0  0  0  0
   35.6379   30.1668   45.4215 C   0  0  0  0  0  0  0  0  0  0  0  0
   35.3884   30.1951   46.7472 N   0  0  0  0  0  0  0  0  0  0  0  0
   33.9388   28.1966   49.2432 C   0  0  0  0  0  0  0  0  0  0  0  0
   33.1252   28.8756   49.9361 O   0  0  0  0  0  0  0  0  0  0  0  0
   35.3354   28.3390   49.0216 N   0  0  0  0  0  0  0  0  0  0  0  0
   34.9881   30.9820   49.1574 H   0  0  0  0  0  0  0  0  0  0  0  0
   36.3617   32.1713   50.5163 H   0  0  0  0  0  0  0  0  0  0  0  0
   37.4247   32.4348   49.1490 H   0  0  0  0  0  0  0  0  0  0  0  0
   38.6946   30.2454   50.0317 H   0  0  0  0  0  0  0  0  0  0  0  0
   38.6117   31.7261   51.1055 H   0  0  0  0  0  0  0  0  0  0  0  0
   38.1066   29.4297   52.1041 H   0  0  0  0  0  0  0  0  0  0  0  0
   36.9818   30.8084   52.4213 H   0  0  0  0  0  0  0  0  0  0  0  0
   35.1709   29.8353   51.3818 H   0  0  0  0  0  0  0  0  0  0  0  0
   36.1535   28.3167   51.5235 H   0  0  0  0  0  0  0  0  0  0  0  0
   37.1721   28.9308   49.4570 H   0  0  0  0  0  0  0  0  0  0  0  0
   38.4130   31.4867   47.7402 H   0  0  0  0  0  0  0  0  0  0  0  0
   38.7448   31.3969   45.3342 H   0  0  0  0  0  0  0  0  0  0  0  0
   34.9204   29.8106   44.6941 H   0  0  0  0  0  0  0  0  0  0  0  0
   35.6446   27.5878   48.3288 H   0  0  0  0  0  0  0  0  0  0  0  0
   33.1046   27.1764   48.6838 N   0  0  0  0  0  0  0  0  0  0  0  0
   32.6852   26.1056   49.5667 C   0  0  0  0  0  0  0  0  0  0  0  0
   31.2208   26.3271   49.9266 C   0  0  0  0  0  0  0  0  0  0  0  0
   30.5440   27.0236   48.7465 C   0  0  0  0  0  0  0  0  0  0  0  0
   30.6976   28.1159   48.8102 H   0  0  0  0  0  0  0  0  0  0  0  0
   31.1518   26.4609   47.4667 C   0  0  0  0  0  0  0  0  0  0  0  0
   32.5679   26.9994   47.3255 C   0  0  0  0  0  0  0  0  0  0  0  0
   32.7969   25.1307   49.0500 H   0  0  0  0  0  0  0  0  0  0  0  0
   33.2614   26.0842   50.4917 H   0  0  0  0  0  0  0  0  0  0  0  0
   30.7090   25.3552   50.0944 H   0  0  0  0  0  0  0  0  0  0  0  0
   31.1209   27.0053   50.7960 H   0  0  0  0  0  0  0  0  0  0  0  0
   29.4600   26.8140   48.7847 H   0  0  0  0  0  0  0  0  0  0  0  0
   31.2003   25.3551   47.6177 H   0  0  0  0  0  0  0  0  0  0  0  0
   30.5369   26.7144   46.6015 H   0  0  0  0  0  0  0  0  0  0  0  0
   33.1548   26.1979   46.8552 H   0  0  0  0  0  0  0  0  0  0  0  0
   32.6013   27.9254   46.7489 H   0  0  0  0  0  0  0  0  0  0  0  0
  1  6  1  0
  1  2  1  0
  2  3  1  0
  3  4  1  0
  5  4  1  0
  6  5  1  0
  7  1  1  0
  8  7  2  0
  9  8  1  0
 10 11  1  0
 10  9  2  0
 11 12  2  0
 12  7  1  0
 13 14  2  0
 15 13  1  0
 15  6  1  0
  1 16  1  6
  2 17  1  0
  2 18  1  0
  3 19  1  0
  3 20  1  0
  4 21  1  0
  4 22  1  0
  5 23  1  0
  5 24  1  0
  6 25  1  1
  8 26  1  0
  9 27  1  0
 11 28  1  0
 15 29  1  0
 30 31  1  0
 31 32  1  0
 32 33  1  0
 33 34  1  0
 33 35  1  0
 35 36  1  0
 36 30  1  0
 31 37  1  0
 31 38  1  0
 32 39  1  0
 32 40  1  0
 33 41  1  0
 35 42  1  0
 35 43  1  0
 36 44  1  0
 36 45  1  0
 13 30  1  0
M  ISO  8  16  13  17  13  18  13  19  13  20  13  21  13  22  13  23  13
M  ISO  6  24  13  25  13  26  14  27  14  28  14  34  15
M  END
>  <DihAtoms>  (1) 
13,12,29,30

>  <DihDeg>  (1) 
-0.015723812237039624

$$$$
