
 OpenBabel03272509303D

 36 38  0  0  1  0  0  0  0  0999 V2000
   36.2360   30.6480   48.9400 C   0  0  2  0  0  0  0  0  0  0  0  0
   37.1020   31.3920   49.9150 C   0  0  0  0  0  0  0  0  0  0  0  0
   37.7910   30.4810   50.9090 C   0  0  0  0  0  0  0  0  0  0  0  0
   36.7390   29.6780   51.6780 C   0  0  0  0  0  0  0  0  0  0  0  0
   35.6050   29.1880   50.8260 C   0  0  0  0  0  0  0  0  0  0  0  0
   36.0280   29.2290   49.3470 C   0  0  1  0  0  0  0  0  0  0  0  0
   35.2110   31.1000   48.8080 H   0  0  0  0  0  0  0  0  0  0  0  0
   36.3580   31.9630   50.5660 H   0  0  0  0  0  0  0  0  0  0  0  0
   37.7490   32.1530   49.5180 H   0  0  0  0  0  0  0  0  0  0  0  0
   38.4570   29.7360   50.4370 H   0  0  0  0  0  0  0  0  0  0  0  0
   38.3140   31.1330   51.6100 H   0  0  0  0  0  0  0  0  0  0  0  0
   37.2760   28.8800   52.2190 H   0  0  0  0  0  0  0  0  0  0  0  0
   36.3040   30.3920   52.4090 H   0  0  0  0  0  0  0  0  0  0  0  0
   34.6880   29.7870   50.8830 H   0  0  0  0  0  0  0  0  0  0  0  0
   35.3930   28.1280   51.0880 H   0  0  0  0  0  0  0  0  0  0  0  0
   36.9590   28.7180   49.3900 H   0  0  0  0  0  0  0  0  0  0  0  0
   33.8280   28.2090   48.6120 C   0  0  0  0  0  0  0  0  0  0  0  0
   32.9770   28.6310   49.4490 O   0  0  0  0  0  0  0  0  0  0  0  0
   35.2220   28.4510   48.4810 N   0  0  0  0  0  0  0  0  0  0  0  0
   35.5720   27.9450   47.6090 H   0  0  0  0  0  0  0  0  0  0  0  0
   33.0430   27.3710   47.7560 N   0  0  0  0  0  0  0  0  0  0  0  0
   32.7110   27.8910   46.4430 C   0  0  0  0  0  2  0  0  0  0  0  0
   33.5810   27.1790   45.4140 C   0  0  0  0  0  2  0  0  0  0  0  0
   33.8670   25.7690   45.9290 C   0  0  0  0  0  3  0  0  0  0  0  0
   34.7350   25.7840   46.6130 H   0  0  0  0  0  0  0  0  0  0  0  0
   32.6150   25.2760   46.6460 C   0  0  0  0  0  2  0  0  0  0  0  0
   32.4830   26.0260   47.9620 C   0  0  0  0  0  2  0  0  0  0  0  0
   36.8250   30.6720   47.5750 C   0  0  0  0  0  0  0  0  0  0  0  0
   38.2120   30.9270   47.5140 C   0  0  0  0  0  0  0  0  0  0  0  0
   38.7800   30.9510   46.2360 C   0  0  0  0  0  0  0  0  0  0  0  0
   37.9770   30.7280   45.1410 N   0  0  0  0  0  0  0  0  0  0  0  0
   36.6340   30.4840   45.2600 C   0  0  0  0  0  0  0  0  0  0  0  0
   36.0730   30.4590   46.4860 N   0  0  0  0  0  0  0  0  0  0  0  0
   38.9260   31.1040   48.2890 H   0  0  0  0  0  0  0  0  0  0  0  0
   39.8210   31.1330   46.0290 H   0  0  0  0  0  0  0  0  0  0  0  0
   36.0700   30.3180   44.3500 H   0  0  0  0  0  0  0  0  0  0  0  0
  1  7  1  6  0  0  0
  1  6  1  0  0  0  0
  1  2  1  0  0  0  0
  2  8  1  0  0  0  0
  2  3  1  0  0  0  0
  3 11  1  0  0  0  0
  3  4  1  0  0  0  0
  4 12  1  0  0  0  0
  4 13  1  0  0  0  0
  5 14  1  0  0  0  0
  5 15  1  0  0  0  0
  5  4  1  0  0  0  0
  6 16  1  6  0  0  0
  6  5  1  0  0  0  0
  9  2  1  0  0  0  0
 10  3  1  0  0  0  0
 17 18  2  0  0  0  0
 19 17  1  0  0  0  0
 19  6  1  0  0  0  0
 20 19  1  0  0  0  0
 21 27  1  0  0  0  0
 21 17  1  0  0  0  0
 22 21  1  0  0  0  0
 23 24  1  0  0  0  0
 23 22  1  0  0  0  0
 24 25  1  0  0  0  0
 24 26  1  0  0  0  0
 26 27  1  0  0  0  0
 28  1  1  0  0  0  0
 29 28  1  0  0  0  0
 29 34  1  0  0  0  0
 30 29  2  0  0  0  0
 31 32  2  0  0  0  0
 31 30  1  0  0  0  0
 32 33  1  0  0  0  0
 33 28  2  0  0  0  0
 35 30  1  0  0  0  0
 36 32  1  0  0  0  0
M  END
>  <minimizedAffinity>
-5.8371191

>  <minimizedRMSD>
0.939069688

$$$$
