REMARK  Name = 
REMARK  2 active torsions:
REMARK  status: ('A' for Active; 'I' for Inactive)
REMARK    1  A    between atoms: C_3  and  C_10
REMARK    2  A    between atoms: C_7  and  N_16
REMARK                            x       y       z     vdW  Elec       q    Type
REMARK                         _______ _______ _______ _____ _____    ______ ____
ROOT
ATOM      1  F   UNL     1      38.453  30.446  47.313  0.00  0.00    +0.000 F 
ATOM      2  C   UNL     1      38.756  31.683  47.793  0.00  0.00    +0.000 A 
ATOM      3  C   UNL     1      38.234  32.075  48.995  0.00  0.00    +0.000 A 
ATOM      4  C   UNL     1      38.577  33.334  49.425  0.00  0.00    +0.000 A 
ATOM      5  C   UNL     1      39.399  34.177  48.707  0.00  0.00    +0.000 A 
ATOM      6  C   UNL     1      39.911  33.746  47.493  0.00  0.00    +0.000 A 
ATOM      7  C   UNL     1      39.583  32.473  47.026  0.00  0.00    +0.000 A 
ATOM      8  H   UNL     1      38.179  33.672  50.373  0.00  0.00    +0.000 HD
ATOM      9  H   UNL     1      39.654  35.172  49.075  0.00  0.00    +0.000 HD
ATOM     10  H   UNL     1      40.554  34.411  46.936  0.00  0.00    +0.000 HD
ENDROOT
BRANCH   7  13
ATOM     11  C   UNL     1      39.181  32.154  44.696  0.00  0.00    +0.000 C 
ATOM     12  O   UNL     1      38.082  32.714  44.980  0.00  0.00    +0.000 OA
ATOM     13  N   UNL     1      40.096  32.006  45.781  0.00  0.00    +0.000 N 
ATOM     14  H   UNL     1      41.015  31.580  45.542  0.00  0.00    +0.000 HD
ATOM     15  N   UNL     1      39.419  31.728  43.364  0.00  0.00    +0.000 N 
ATOM     16  C   UNL     1      40.273  30.579  43.135  0.00  0.00    +0.000 C 
ATOM     17  C   UNL     1      41.360  31.070  42.201  0.00  0.00    +0.000 C 
ATOM     18  C   UNL     1      40.715  31.346  40.862  0.00  0.00    +0.000 C 
ATOM     19  H   UNL     1      40.823  30.378  40.288  0.00  0.00    +0.000 HD
ATOM     20  C   UNL     1      39.278  31.732  40.935  0.00  0.00    +0.000 C 
ATOM     21  C   UNL     1      38.846  32.391  42.209  0.00  0.00    +0.000 C 
ENDBRANCH   7  13
BRANCH   3  24
ATOM     22  C   UNL     1      36.918  29.599  51.532  0.00  0.00    +0.000 A 
ATOM     23  C   UNL     1      37.784  30.488  50.859  0.00  0.00    +0.000 A 
ATOM     24  C   UNL     1      37.368  31.149  49.718  0.00  0.00    +0.000 A 
ATOM     25  N   UNL     1      36.094  30.901  49.280  0.00  0.00    +0.000 NA
ATOM     26  C   UNL     1      35.285  30.045  49.942  0.00  0.00    +0.000 A 
ATOM     27  N   UNL     1      35.685  29.416  51.031  0.00  0.00    +0.000 NA
ATOM     28  H   UNL     1      37.312  29.113  52.425  0.00  0.00    +0.000 HD
ATOM     29  H   UNL     1      38.787  30.679  51.210  0.00  0.00    +0.000 HD
ATOM     30  H   UNL     1      34.270  29.819  49.632  0.00  0.00    +0.000 HD
ENDBRANCH   3  24
TORSDOF 2
