
 OpenBabel03272509313D

 36 38  0  0  1  0  0  0  0  0999 V2000
   36.3860   30.7160   48.9090 C   0  0  2  0  0  0  0  0  0  0  0  0
   37.3270   31.4500   49.8180 C   0  0  0  0  0  0  0  0  0  0  0  0
   38.0360   30.5360   50.7970 C   0  0  0  0  0  0  0  0  0  0  0  0
   36.9980   29.7900   51.6400 C   0  0  0  0  0  0  0  0  0  0  0  0
   35.8040   29.3230   50.8600 C   0  0  0  0  0  0  0  0  0  0  0  0
   36.1500   29.3150   49.3610 C   0  0  1  0  0  0  0  0  0  0  0  0
   35.3720   31.2020   48.8190 H   0  0  0  0  0  0  0  0  0  0  0  0
   36.6400   32.0620   50.4930 H   0  0  0  0  0  0  0  0  0  0  0  0
   37.9790   32.1770   49.3690 H   0  0  0  0  0  0  0  0  0  0  0  0
   38.6490   29.7570   50.3090 H   0  0  0  0  0  0  0  0  0  0  0  0
   38.6180   31.1850   51.4540 H   0  0  0  0  0  0  0  0  0  0  0  0
   37.5340   28.9860   52.1710 H   0  0  0  0  0  0  0  0  0  0  0  0
   36.6280   30.5360   52.3750 H   0  0  0  0  0  0  0  0  0  0  0  0
   34.9130   29.9570   50.9500 H   0  0  0  0  0  0  0  0  0  0  0  0
   35.5690   28.2780   51.1590 H   0  0  0  0  0  0  0  0  0  0  0  0
   37.0620   28.7710   49.3680 H   0  0  0  0  0  0  0  0  0  0  0  0
   33.8810   28.3490   48.7740 C   0  0  0  0  0  0  0  0  0  0  0  0
   33.0940   28.8090   49.6520 O   0  0  0  0  0  0  0  0  0  0  0  0
   35.2710   28.5480   48.5580 N   0  0  0  0  0  0  0  0  0  0  0  0
   35.5540   28.0180   47.6750 H   0  0  0  0  0  0  0  0  0  0  0  0
   33.0230   27.5210   47.9810 N   0  0  0  0  0  0  0  0  0  0  0  0
   33.3580   27.3720   46.5780 C   0  0  0  0  0  2  0  0  0  0  0  0
   33.9580   25.9860   46.3730 C   0  0  0  0  0  2  0  0  0  0  0  0
   33.3240   25.0410   47.3950 C   0  0  0  0  0  3  0  0  0  0  0  0
   33.8640   25.1040   48.3570 H   0  0  0  0  0  0  0  0  0  0  0  0
   31.8650   25.4500   47.5600 C   0  0  0  0  0  2  0  0  0  0  0  0
   31.8130   26.7610   48.3320 C   0  0  0  0  0  2  0  0  0  0  0  0
   36.9020   30.6870   47.5150 C   0  0  0  0  0  0  0  0  0  0  0  0
   38.2910   30.8960   47.3750 C   0  0  0  0  0  0  0  0  0  0  0  0
   38.7910   30.8700   46.0680 C   0  0  0  0  0  0  0  0  0  0  0  0
   37.9250   30.6460   45.0230 N   0  0  0  0  0  0  0  0  0  0  0  0
   36.5830   30.4480   45.2180 C   0  0  0  0  0  0  0  0  0  0  0  0
   36.0870   30.4710   46.4720 N   0  0  0  0  0  0  0  0  0  0  0  0
   39.0500   31.0700   48.1060 H   0  0  0  0  0  0  0  0  0  0  0  0
   39.8250   31.0130   45.8030 H   0  0  0  0  0  0  0  0  0  0  0  0
   35.9670   30.2780   44.3440 H   0  0  0  0  0  0  0  0  0  0  0  0
  1  7  1  1  0  0  0
  1  6  1  0  0  0  0
  1  2  1  0  0  0  0
  2  8  1  0  0  0  0
  2  3  1  0  0  0  0
  3 11  1  0  0  0  0
  3  4  1  0  0  0  0
  4 12  1  0  0  0  0
  4 13  1  0  0  0  0
  5 14  1  0  0  0  0
  5 15  1  0  0  0  0
  5  4  1  0  0  0  0
  6 16  1  6  0  0  0
  6  5  1  0  0  0  0
  9  2  1  0  0  0  0
 10  3  1  0  0  0  0
 17 18  2  0  0  0  0
 19 17  1  0  0  0  0
 19  6  1  0  0  0  0
 20 19  1  0  0  0  0
 21 27  1  0  0  0  0
 21 17  1  0  0  0  0
 22 21  1  0  0  0  0
 23 22  1  0  0  0  0
 23 24  1  0  0  0  0
 24 26  1  0  0  0  0
 24 25  1  0  0  0  0
 26 27  1  0  0  0  0
 28  1  1  0  0  0  0
 29 28  1  0  0  0  0
 29 34  1  0  0  0  0
 30 29  2  0  0  0  0
 31 32  2  0  0  0  0
 31 30  1  0  0  0  0
 32 33  1  0  0  0  0
 33 28  2  0  0  0  0
 35 30  1  0  0  0  0
 36 32  1  0  0  0  0
M  END
>  <minimizedAffinity>
-6.25788164

>  <minimizedRMSD>
0.841634929

$$$$
