
     RDKit          3D

 35 37  0  0  0  0  0  0  0  0999 V2000
   37.4775   30.2582   51.3266 C   0  0  0  0  0  0  0  0  0  0  0  0
   38.1421   30.9779   50.3036 C   0  0  0  0  0  0  0  0  0  0  0  0
   37.8274   30.7286   48.9821 C   0  0  0  0  0  0  0  0  0  0  0  0
   36.8857   29.7927   48.7404 N   0  0  0  0  0  0  0  0  0  0  0  0
   36.2421   29.0964   49.6978 C   0  0  0  0  0  0  0  0  0  0  0  0
   36.5461   29.3373   50.9979 N   0  0  0  0  0  0  0  0  0  0  0  0
   38.4517   31.4163   47.9152 N   0  0  0  0  0  0  0  0  0  0  0  0
   38.6654   30.8207   46.7234 C   0  0  0  0  0  0  0  0  0  0  0  0
   39.2871   31.5214   45.6832 C   0  0  0  0  0  0  0  0  0  0  0  0
   39.6779   32.8518   45.9176 C   0  0  0  0  0  0  0  0  0  0  0  0
   40.2282   33.4798   45.0055 O   0  0  0  0  0  0  0  0  0  0  0  0
   39.4481   33.4270   47.1336 N   0  0  0  0  0  0  0  0  0  0  0  0
   38.8465   32.6777   48.0676 C   0  0  0  0  0  0  0  0  0  0  0  0
   38.6521   33.2493   49.1724 O   0  0  0  0  0  0  0  0  0  0  0  0
   37.6661   30.3958   52.3726 H   0  0  0  0  0  0  0  0  0  0  0  0
   38.8557   31.6567   50.6889 H   0  0  0  0  0  0  0  0  0  0  0  0
   35.4986   28.3640   49.3693 H   0  0  0  0  0  0  0  0  0  0  0  0
   38.3658   29.8148   46.5584 H   0  0  0  0  0  0  0  0  0  0  0  0
   39.4715   31.0757   44.7224 H   0  0  0  0  0  0  0  0  0  0  0  0
   39.7526   37.9298   48.8127 H   0  0  0  0  0  0  0  0  0  0  0  0
   40.0591   37.0504   49.2793 N   0  0  0  0  0  0  0  0  0  0  0  0
   41.1357   36.4669   48.5459 C   0  0  0  0  0  0  0  0  0  0  0  0
   40.9550   34.9496   48.3588 C   0  0  0  0  0  0  0  0  0  0  0  0
   39.8270   34.7715   47.4174 C   0  0  0  0  0  0  0  0  0  0  0  0
   38.6405   35.5704   47.9621 C   0  0  0  0  0  0  0  0  0  0  0  0
   38.9547   36.1483   49.3372 C   0  0  0  0  0  0  0  0  0  0  0  0
   42.0711   36.5671   49.1374 H   0  0  0  0  0  0  0  0  0  0  0  0
   41.3025   36.9242   47.5488 H   0  0  0  0  0  0  0  0  0  0  0  0
   40.7960   34.5736   49.3799 H   0  0  0  0  0  0  0  0  0  0  0  0
   41.9574   34.6578   47.9250 H   0  0  0  0  0  0  0  0  0  0  0  0
   40.1041   35.2680   46.4612 H   0  0  0  0  0  0  0  0  0  0  0  0
   37.7807   34.8662   48.1662 H   0  0  0  0  0  0  0  0  0  0  0  0
   38.2863   36.3421   47.2673 H   0  0  0  0  0  0  0  0  0  0  0  0
   39.0304   35.3321   50.0628 H   0  0  0  0  0  0  0  0  0  0  0  0
   38.0345   36.7206   49.6165 H   0  0  0  0  0  0  0  0  0  0  0  0
  2  1  2  0
  3  2  1  0
  4  3  2  0
  4  5  1  0
  5  6  2  0
  6  1  1  0
  7 13  1  0
  7  3  1  0
  8  7  1  0
  9 10  1  0
  9  8  2  0
 10 12  1  0
 11 10  2  0
 12 13  1  0
 13 14  2  0
  1 15  1  0
  2 16  1  0
  5 17  1  0
  8 18  1  0
  9 19  1  0
 20 21  1  0
 21 22  1  0
 22 23  1  0
 23 24  1  0
 24 25  1  0
 25 26  1  0
 26 21  1  0
 22 27  1  0
 22 28  1  0
 23 29  1  0
 23 30  1  0
 24 31  1  0
 25 32  1  0
 25 33  1  0
 26 34  1  0
 26 35  1  0
 12 24  1  0
M  ISO  6  15  14  16  14  17  14  18  14  19  14  20   5
M  END
>  <DihAtoms>  (1) 
9,11,23,22

>  <DihDeg>  (1) 
-4.551743516265613

$$$$
