
 OpenBabel03272509313D

 36 38  0  0  1  0  0  0  0  0999 V2000
   36.7060   30.9370   48.6210 C   0  0  2  0  0  0  0  0  0  0  0  0
   37.6290   31.7450   49.4860 C   0  0  0  0  0  0  0  0  0  0  0  0
   38.3330   30.9130   50.5380 C   0  0  0  0  0  0  0  0  0  0  0  0
   37.2910   30.2210   51.4200 C   0  0  0  0  0  0  0  0  0  0  0  0
   36.1120   29.6850   50.6620 C   0  0  0  0  0  0  0  0  0  0  0  0
   36.4770   29.5710   49.1720 C   0  0  1  0  0  0  0  0  0  0  0  0
   35.6890   31.4050   48.4840 H   0  0  0  0  0  0  0  0  0  0  0  0
   36.9270   32.3990   50.1050 H   0  0  0  0  0  0  0  0  0  0  0  0
   38.2800   32.4440   48.9930 H   0  0  0  0  0  0  0  0  0  0  0  0
   38.9600   30.1070   50.1170 H   0  0  0  0  0  0  0  0  0  0  0  0
   38.9000   31.6150   51.1530 H   0  0  0  0  0  0  0  0  0  0  0  0
   37.8270   29.4630   52.0160 H   0  0  0  0  0  0  0  0  0  0  0  0
   36.9040   31.0140   52.0940 H   0  0  0  0  0  0  0  0  0  0  0  0
   35.2140   30.3150   50.6940 H   0  0  0  0  0  0  0  0  0  0  0  0
   35.8820   28.6630   51.0340 H   0  0  0  0  0  0  0  0  0  0  0  0
   37.3940   29.0390   49.2300 H   0  0  0  0  0  0  0  0  0  0  0  0
   34.2470   28.9780   48.1230 C   0  0  0  0  0  0  0  0  0  0  0  0
   33.4890   29.9560   48.3940 O   0  0  0  0  0  0  0  0  0  0  0  0
   35.6160   28.7380   48.4160 N   0  0  0  0  0  0  0  0  0  0  0  0
   35.9000   27.8120   47.9670 H   0  0  0  0  0  0  0  0  0  0  0  0
   33.3800   28.0940   47.4050 N   0  0  0  0  0  0  0  0  0  0  0  0
   32.6420   27.1150   48.1800 C   0  0  0  0  0  2  0  0  0  0  0  0
   31.1900   27.5710   48.2670 C   0  0  0  0  0  2  0  0  0  0  0  0
   30.8600   28.3470   46.9940 C   0  0  0  0  0  3  0  0  0  0  0  0
   31.1690   29.4030   47.1000 H   0  0  0  0  0  0  0  0  0  0  0  0
   31.5960   27.6780   45.8390 C   0  0  0  0  0  2  0  0  0  0  0  0
   33.0810   27.9840   45.9680 C   0  0  0  0  0  2  0  0  0  0  0  0
   37.2400   30.8120   47.2390 C   0  0  0  0  0  0  0  0  0  0  0  0
   38.6380   30.9640   47.1110 C   0  0  0  0  0  0  0  0  0  0  0  0
   39.1560   30.8460   45.8160 C   0  0  0  0  0  0  0  0  0  0  0  0
   38.2970   30.5940   44.7710 N   0  0  0  0  0  0  0  0  0  0  0  0
   36.9460   30.4540   44.9550 C   0  0  0  0  0  0  0  0  0  0  0  0
   36.4340   30.5660   46.1980 N   0  0  0  0  0  0  0  0  0  0  0  0
   39.3930   31.1510   47.8440 H   0  0  0  0  0  0  0  0  0  0  0  0
   40.1980   30.9380   45.5610 H   0  0  0  0  0  0  0  0  0  0  0  0
   36.3370   30.2570   44.0820 H   0  0  0  0  0  0  0  0  0  0  0  0
  1  7  1  6  0  0  0
  1  6  1  0  0  0  0
  1  2  1  0  0  0  0
  2  8  1  0  0  0  0
  2  3  1  0  0  0  0
  3 11  1  0  0  0  0
  3  4  1  0  0  0  0
  4 12  1  0  0  0  0
  4 13  1  0  0  0  0
  5 14  1  0  0  0  0
  5 15  1  0  0  0  0
  5  4  1  0  0  0  0
  6 16  1  6  0  0  0
  6  5  1  0  0  0  0
  9  2  1  0  0  0  0
 10  3  1  0  0  0  0
 17 18  2  0  0  0  0
 17 19  1  0  0  0  0
 19  6  1  0  0  0  0
 20 19  1  0  0  0  0
 21 17  1  0  0  0  0
 21 22  1  0  0  0  0
 22 23  1  0  0  0  0
 24 25  1  0  0  0  0
 24 23  1  0  0  0  0
 26 27  1  0  0  0  0
 26 24  1  0  0  0  0
 27 21  1  0  0  0  0
 28  1  1  0  0  0  0
 29 28  1  0  0  0  0
 29 34  1  0  0  0  0
 30 29  2  0  0  0  0
 31 32  2  0  0  0  0
 31 30  1  0  0  0  0
 32 33  1  0  0  0  0
 33 28  2  0  0  0  0
 35 30  1  0  0  0  0
 36 32  1  0  0  0  0
M  END
>  <minimizedAffinity>
-5.62508202

>  <minimizedRMSD>
1.47831869

$$$$
