REMARK  Name = 
REMARK  2 active torsions:
REMARK  status: ('A' for Active; 'I' for Inactive)
REMARK    1  A    between atoms: C_1  and  C_7
REMARK    2  A    between atoms: C_6  and  N_15
REMARK                            x       y       z     vdW  Elec       q    Type
REMARK                         _______ _______ _______ _____ _____    ______ ____
ROOT
ATOM      1  C   UNL     1      36.073  30.688  49.065  0.00  0.00    +0.000 C 
ATOM      2  C   UNL     1      37.014  31.640  49.744  0.00  0.00    +0.000 C 
ATOM      3  C   UNL     1      38.049  30.939  50.600  0.00  0.00    +0.000 C 
ATOM      4  C   UNL     1      37.342  30.087  51.657  0.00  0.00    +0.000 C 
ATOM      5  C   UNL     1      36.132  29.362  51.144  0.00  0.00    +0.000 C 
ATOM      6  C   UNL     1      36.189  29.305  49.608  0.00  0.00    +0.000 C 
ATOM      7  H   UNL     1      34.988  30.982  49.157  0.00  0.00    +0.000 HD
ATOM      8  H   UNL     1      36.362  32.171  50.516  0.00  0.00    +0.000 HD
ATOM      9  H   UNL     1      37.425  32.435  49.149  0.00  0.00    +0.000 HD
ATOM     10  H   UNL     1      38.695  30.245  50.032  0.00  0.00    +0.000 HD
ATOM     11  H   UNL     1      38.612  31.726  51.105  0.00  0.00    +0.000 HD
ATOM     12  H   UNL     1      38.107  29.430  52.104  0.00  0.00    +0.000 HD
ATOM     13  H   UNL     1      36.982  30.808  52.421  0.00  0.00    +0.000 HD
ATOM     14  H   UNL     1      35.171  29.835  51.382  0.00  0.00    +0.000 HD
ATOM     15  H   UNL     1      36.154  28.317  51.523  0.00  0.00    +0.000 HD
ATOM     16  H   UNL     1      37.172  28.931  49.457  0.00  0.00    +0.000 HD
ENDROOT
BRANCH   6  19
ATOM     17  C   UNL     1      33.939  28.197  49.243  0.00  0.00    +0.000 C 
ATOM     18  O   UNL     1      33.125  28.876  49.936  0.00  0.00    +0.000 OA
ATOM     19  N   UNL     1      35.335  28.339  49.022  0.00  0.00    +0.000 N 
ATOM     20  H   UNL     1      35.645  27.588  48.329  0.00  0.00    +0.000 HD
ATOM     21  N   UNL     1      33.105  27.176  48.684  0.00  0.00    +0.000 N 
ATOM     22  C   UNL     1      31.828  27.591  48.136  0.00  0.00    +0.000 C 
ATOM     23  C   UNL     1      31.928  27.564  46.615  0.00  0.00    +0.000 C 
ATOM     24  C   UNL     1      32.917  26.466  46.225  0.00  0.00    +0.000 C 
ATOM     25  H   UNL     1      33.950  26.854  46.260  0.00  0.00    +0.000 HD
ATOM     26  C   UNL     1      32.734  25.311  47.204  0.00  0.00    +0.000 C 
ATOM     27  C   UNL     1      33.304  25.725  48.553  0.00  0.00    +0.000 C 
ENDBRANCH   6  19
BRANCH   1  28
ATOM     28  C   UNL     1      36.318  30.648  47.599  0.00  0.00    +0.000 A 
ATOM     29  C   UNL     1      37.584  31.111  47.180  0.00  0.00    +0.000 A 
ATOM     30  C   UNL     1      37.830  31.077  45.803  0.00  0.00    +0.000 A 
ATOM     31  N   UNL     1      36.851  30.606  44.959  0.00  0.00    +0.000 NA
ATOM     32  C   UNL     1      35.638  30.167  45.422  0.00  0.00    +0.000 A 
ATOM     33  N   UNL     1      35.388  30.195  46.747  0.00  0.00    +0.000 NA
ATOM     34  H   UNL     1      38.413  31.487  47.740  0.00  0.00    +0.000 HD
ATOM     35  H   UNL     1      38.745  31.397  45.334  0.00  0.00    +0.000 HD
ATOM     36  H   UNL     1      34.920  29.811  44.694  0.00  0.00    +0.000 HD
ENDBRANCH   1  28
TORSDOF 2
