
 OpenBabel03272505243D

 26 28  0  0  0  0  0  0  0  0999 V2000
   36.3880   28.9080   32.5480 C   0  0  0  0  0  0  0  0  0  0  0  0
   36.6510   27.6480   33.1410 C   0  0  0  0  0  0  0  0  0  0  0  0
   36.9650   26.5700   32.3360 C   0  0  0  0  0  0  0  0  0  0  0  0
   37.0000   26.7860   31.0050 N   0  0  0  0  0  0  0  0  0  0  0  0
   36.7510   27.9750   30.4200 C   0  0  0  0  0  0  0  0  0  0  0  0
   36.4440   29.0380   31.2060 N   0  0  0  0  0  0  0  0  0  0  0  0
   37.2420   25.2880   32.8660 N   0  0  0  0  0  0  0  0  0  0  0  0
   36.9260   24.1630   32.1910 C   0  0  0  0  0  0  0  0  0  0  0  0
   37.2080   22.9060   32.7370 C   0  0  0  0  0  0  0  0  0  0  0  0
   37.8270   22.8540   34.0000 C   0  0  0  0  0  0  0  0  0  0  0  0
   38.0820   21.7470   34.4910 O   0  0  0  0  0  0  0  0  0  0  0  0
   38.1360   24.0080   34.6580 N   0  0  0  0  0  0  0  0  0  0  0  0
   37.8270   25.1650   34.0550 C   0  0  0  0  0  0  0  0  0  0  0  0
   38.1320   26.2030   34.6970 O   0  0  0  0  0  0  0  0  0  0  0  0
   36.1390   29.7890   33.1060 H   0  0  0  0  0  0  0  0  0  0  0  0
   36.5610   27.6730   34.1950 H   0  0  0  0  0  0  0  0  0  0  0  0
   36.8120   28.0180   29.3290 H   0  0  0  0  0  0  0  0  0  0  0  0
   36.4580   24.2160   31.2390 H   0  0  0  0  0  0  0  0  0  0  0  0
   36.9690   21.9920   32.2250 H   0  0  0  0  0  0  0  0  0  0  0  0
   39.1370   23.6920   39.3570 H   0  0  0  0  0  0  0  0  0  0  0  0
   39.0470   22.9170   38.6680 N   0  0  0  0  0  0  0  0  0  0  0  0
   40.0920   23.0090   37.7010 C   0  0  0  0  0  2  0  0  0  0  0  0
   39.5730   22.8080   36.2660 C   0  0  0  0  0  2  0  0  0  0  0  0
   38.7620   24.0030   35.9380 C   0  0  0  0  0  3  0  0  0  0  0  0
   37.7290   24.1780   37.0530 C   0  0  0  0  0  2  0  0  0  0  0  0
   37.7740   23.0090   38.0300 C   0  0  0  0  0  2  0  0  0  0  0  0
  1 15  1  0  0  0  0
  1  2  1  0  0  0  0
  2 16  1  0  0  0  0
  3  7  1  0  0  0  0
  3  2  2  0  0  0  0
  4  3  1  0  0  0  0
  5  4  2  0  0  0  0
  5  6  1  0  0  0  0
  6  1  2  0  0  0  0
  7 13  1  0  0  0  0
  8  9  2  0  0  0  0
  8  7  1  0  0  0  0
  9 10  1  0  0  0  0
 10 11  2  0  0  0  0
 10 12  1  0  0  0  0
 12 24  1  0  0  0  0
 13 12  1  0  0  0  0
 13 14  2  0  0  0  0
 17  5  1  0  0  0  0
 18  8  1  0  0  0  0
 19  9  1  0  0  0  0
 21 20  1  0  0  0  0
 22 21  1  0  0  0  0
 23 22  1  0  0  0  0
 24 23  1  0  0  0  0
 24 25  1  0  0  0  0
 25 26  1  0  0  0  0
 26 21  1  0  0  0  0
M  END
>  <minimizedAffinity>
-5.58476019

$$$$

 OpenBabel03272505243D

 26 28  0  0  0  0  0  0  0  0999 V2000
   36.9070   19.7280   32.0270 C   0  0  0  0  0  0  0  0  0  0  0  0
   37.4950   20.8580   32.6490 C   0  0  0  0  0  0  0  0  0  0  0  0
   37.0020   22.1190   32.3760 C   0  0  0  0  0  0  0  0  0  0  0  0
   35.9680   22.2000   31.5120 N   0  0  0  0  0  0  0  0  0  0  0  0
   35.3950   21.1400   30.9090 C   0  0  0  0  0  0  0  0  0  0  0  0
   35.8740   19.8990   31.1740 N   0  0  0  0  0  0  0  0  0  0  0  0
   37.5420   23.2850   32.9660 N   0  0  0  0  0  0  0  0  0  0  0  0
   37.5600   24.4630   32.3100 C   0  0  0  0  0  0  0  0  0  0  0  0
   38.1010   25.6030   32.9150 C   0  0  0  0  0  0  0  0  0  0  0  0
   38.6200   25.4820   34.2170 C   0  0  0  0  0  0  0  0  0  0  0  0
   39.1010   26.4840   34.7610 O   0  0  0  0  0  0  0  0  0  0  0  0
   38.5870   24.2770   34.8560 N   0  0  0  0  0  0  0  0  0  0  0  0
   38.0480   23.2420   34.1960 C   0  0  0  0  0  0  0  0  0  0  0  0
   38.0370   22.1520   34.8240 O   0  0  0  0  0  0  0  0  0  0  0  0
   37.2340   18.7210   32.1900 H   0  0  0  0  0  0  0  0  0  0  0  0
   38.3020   20.5940   33.2810 H   0  0  0  0  0  0  0  0  0  0  0  0
   34.5630   21.3410   30.2290 H   0  0  0  0  0  0  0  0  0  0  0  0
   37.1660   24.5420   31.3260 H   0  0  0  0  0  0  0  0  0  0  0  0
   38.1310   26.5560   32.4190 H   0  0  0  0  0  0  0  0  0  0  0  0
   39.1470   23.5940   39.5900 H   0  0  0  0  0  0  0  0  0  0  0  0
   38.9760   22.8770   38.8540 N   0  0  0  0  0  0  0  0  0  0  0  0
   40.0940   22.8200   37.9690 C   0  0  0  0  0  2  0  0  0  0  0  0
   39.6620   22.7740   36.4930 C   0  0  0  0  0  2  0  0  0  0  0  0
   39.1010   24.1070   36.1750 C   0  0  0  0  0  3  0  0  0  0  0  0
   38.0310   24.4180   37.2220 C   0  0  0  0  0  2  0  0  0  0  0  0
   37.7930   23.2210   38.1350 C   0  0  0  0  0  2  0  0  0  0  0  0
  1 15  1  0  0  0  0
  1  2  1  0  0  0  0
  2 16  1  0  0  0  0
  3  2  2  0  0  0  0
  3  7  1  0  0  0  0
  4  3  1  0  0  0  0
  5  6  1  0  0  0  0
  5  4  2  0  0  0  0
  6  1  2  0  0  0  0
  7 13  1  0  0  0  0
  8  9  2  0  0  0  0
  8  7  1  0  0  0  0
  9 10  1  0  0  0  0
 10 11  2  0  0  0  0
 10 12  1  0  0  0  0
 12 24  1  0  0  0  0
 13 14  2  0  0  0  0
 13 12  1  0  0  0  0
 17  5  1  0  0  0  0
 18  8  1  0  0  0  0
 19  9  1  0  0  0  0
 21 20  1  0  0  0  0
 22 21  1  0  0  0  0
 23 22  1  0  0  0  0
 24 23  1  0  0  0  0
 24 25  1  0  0  0  0
 25 26  1  0  0  0  0
 26 21  1  0  0  0  0
M  END
>  <minimizedAffinity>
-5.49798155

$$$$

 OpenBabel03272505243D

 26 28  0  0  0  0  0  0  0  0999 V2000
   37.5540   20.3850   32.3270 C   0  0  0  0  0  0  0  0  0  0  0  0
   37.4880   21.7940   32.1920 C   0  0  0  0  0  0  0  0  0  0  0  0
   36.2690   22.3980   31.9520 C   0  0  0  0  0  0  0  0  0  0  0  0
   35.1910   21.5920   31.8570 N   0  0  0  0  0  0  0  0  0  0  0  0
   35.2320   20.2500   31.9810 C   0  0  0  0  0  0  0  0  0  0  0  0
   36.4260   19.6510   32.2180 N   0  0  0  0  0  0  0  0  0  0  0  0
   36.1360   23.7990   31.8110 N   0  0  0  0  0  0  0  0  0  0  0  0
   35.2050   24.3400   30.9990 C   0  0  0  0  0  0  0  0  0  0  0  0
   35.0940   25.7300   30.8740 C   0  0  0  0  0  0  0  0  0  0  0  0
   35.9750   26.5360   31.6180 C   0  0  0  0  0  0  0  0  0  0  0  0
   35.8850   27.7660   31.5160 O   0  0  0  0  0  0  0  0  0  0  0  0
   36.9060   25.9600   32.4320 N   0  0  0  0  0  0  0  0  0  0  0  0
   36.9360   24.6210   32.4860 C   0  0  0  0  0  0  0  0  0  0  0  0
   37.8080   24.1340   33.2510 O   0  0  0  0  0  0  0  0  0  0  0  0
   38.4610   19.8450   32.5140 H   0  0  0  0  0  0  0  0  0  0  0  0
   38.4380   22.2510   32.2820 H   0  0  0  0  0  0  0  0  0  0  0  0
   34.2850   19.7110   31.8830 H   0  0  0  0  0  0  0  0  0  0  0  0
   34.5450   23.7210   30.4420 H   0  0  0  0  0  0  0  0  0  0  0  0
   34.3630   26.1920   30.2360 H   0  0  0  0  0  0  0  0  0  0  0  0
   39.3430   28.1440   35.9640 H   0  0  0  0  0  0  0  0  0  0  0  0
   39.4320   27.1590   35.6390 N   0  0  0  0  0  0  0  0  0  0  0  0
   39.9380   27.1380   34.3040 C   0  0  0  0  0  2  0  0  0  0  0  0
   39.1650   26.1540   33.4070 C   0  0  0  0  0  2  0  0  0  0  0  0
   37.8200   26.7370   33.2030 C   0  0  0  0  0  3  0  0  0  0  0  0
   37.2390   27.0510   34.5830 C   0  0  0  0  0  2  0  0  0  0  0  0
   38.1500   26.5350   35.6910 C   0  0  0  0  0  2  0  0  0  0  0  0
  1 15  1  0  0  0  0
  2 16  1  0  0  0  0
  2  1  2  0  0  0  0
  3  2  1  0  0  0  0
  4  3  2  0  0  0  0
  4  5  1  0  0  0  0
  5  6  2  0  0  0  0
  6  1  1  0  0  0  0
  7  3  1  0  0  0  0
  7 13  1  0  0  0  0
  8  7  1  0  0  0  0
  9  8  2  0  0  0  0
  9 10  1  0  0  0  0
 10 12  1  0  0  0  0
 11 10  2  0  0  0  0
 12 13  1  0  0  0  0
 12 24  1  0  0  0  0
 13 14  2  0  0  0  0
 17  5  1  0  0  0  0
 18  8  1  0  0  0  0
 19  9  1  0  0  0  0
 21 26  1  0  0  0  0
 21 20  1  0  0  0  0
 22 21  1  0  0  0  0
 23 22  1  0  0  0  0
 24 23  1  0  0  0  0
 24 25  1  0  0  0  0
 25 26  1  0  0  0  0
M  END
>  <minimizedAffinity>
-5.27460384

$$$$

 OpenBabel03272505243D

 26 28  0  0  0  0  0  0  0  0999 V2000
   40.0450   22.1520   36.4690 C   0  0  0  0  0  0  0  0  0  0  0  0
   39.0110   22.3720   35.5250 C   0  0  0  0  0  0  0  0  0  0  0  0
   39.1500   23.3740   34.5850 C   0  0  0  0  0  0  0  0  0  0  0  0
   40.2850   24.1010   34.6240 N   0  0  0  0  0  0  0  0  0  0  0  0
   41.2810   23.9100   35.5130 C   0  0  0  0  0  0  0  0  0  0  0  0
   41.1510   22.9260   36.4380 N   0  0  0  0  0  0  0  0  0  0  0  0
   38.1560   23.6410   33.6140 N   0  0  0  0  0  0  0  0  0  0  0  0
   37.9400   24.8900   33.1520 C   0  0  0  0  0  0  0  0  0  0  0  0
   36.9490   25.1290   32.1930 C   0  0  0  0  0  0  0  0  0  0  0  0
   36.1940   24.0360   31.7300 C   0  0  0  0  0  0  0  0  0  0  0  0
   35.3160   24.2370   30.8820 O   0  0  0  0  0  0  0  0  0  0  0  0
   36.4360   22.7840   32.2160 N   0  0  0  0  0  0  0  0  0  0  0  0
   37.4050   22.6530   33.1320 C   0  0  0  0  0  0  0  0  0  0  0  0
   37.5960   21.4820   33.5490 O   0  0  0  0  0  0  0  0  0  0  0  0
   40.0100   21.3950   37.2260 H   0  0  0  0  0  0  0  0  0  0  0  0
   38.1950   21.7120   35.6630 H   0  0  0  0  0  0  0  0  0  0  0  0
   42.1510   24.5680   35.4380 H   0  0  0  0  0  0  0  0  0  0  0  0
   38.5160   25.7080   33.5100 H   0  0  0  0  0  0  0  0  0  0  0  0
   36.7530   26.1120   31.8050 H   0  0  0  0  0  0  0  0  0  0  0  0
   35.0380   18.5430   30.4150 H   0  0  0  0  0  0  0  0  0  0  0  0
   35.4450   18.7380   31.3540 N   0  0  0  0  0  0  0  0  0  0  0  0
   34.5440   19.5450   32.1110 C   0  0  0  0  0  2  0  0  0  0  0  0
   35.2650   20.7000   32.8290 C   0  0  0  0  0  2  0  0  0  0  0  0
   35.6960   21.6480   31.7760 C   0  0  0  0  0  3  0  0  0  0  0  0
   36.4850   20.8520   30.7350 C   0  0  0  0  0  2  0  0  0  0  0  0
   36.6920   19.4110   31.1880 C   0  0  0  0  0  2  0  0  0  0  0  0
  1 15  1  0  0  0  0
  2 16  1  0  0  0  0
  2  1  2  0  0  0  0
  3  4  2  0  0  0  0
  3  2  1  0  0  0  0
  4  5  1  0  0  0  0
  5  6  2  0  0  0  0
  6  1  1  0  0  0  0
  7  3  1  0  0  0  0
  8 18  1  0  0  0  0
  8  7  1  0  0  0  0
  9  8  2  0  0  0  0
 10  9  1  0  0  0  0
 10 12  1  0  0  0  0
 11 10  2  0  0  0  0
 12 13  1  0  0  0  0
 13 14  2  0  0  0  0
 13  7  1  0  0  0  0
 17  5  1  0  0  0  0
 19  9  1  0  0  0  0
 20 21  1  0  0  0  0
 21 22  1  0  0  0  0
 22 23  1  0  0  0  0
 24 12  1  0  0  0  0
 24 23  1  0  0  0  0
 25 26  1  0  0  0  0
 25 24  1  0  0  0  0
 26 21  1  0  0  0  0
M  END
>  <minimizedAffinity>
-5.20580626

$$$$

 OpenBabel03272505243D

 26 28  0  0  0  0  0  0  0  0999 V2000
   37.4990   25.4940   32.9680 C   0  0  0  0  0  0  0  0  0  0  0  0
   37.0740   26.8240   33.2120 C   0  0  0  0  0  0  0  0  0  0  0  0
   36.2520   27.4540   32.2980 C   0  0  0  0  0  0  0  0  0  0  0  0
   35.8980   26.7510   31.2030 N   0  0  0  0  0  0  0  0  0  0  0  0
   36.2910   25.4860   30.9510 C   0  0  0  0  0  0  0  0  0  0  0  0
   37.0970   24.8610   31.8460 N   0  0  0  0  0  0  0  0  0  0  0  0
   35.7920   28.7780   32.4850 N   0  0  0  0  0  0  0  0  0  0  0  0
   35.5700   29.6010   31.4390 C   0  0  0  0  0  0  0  0  0  0  0  0
   35.1160   30.9080   31.6500 C   0  0  0  0  0  0  0  0  0  0  0  0
   34.8990   31.3310   32.9740 C   0  0  0  0  0  0  0  0  0  0  0  0
   34.4960   32.4840   33.1710 O   0  0  0  0  0  0  0  0  0  0  0  0
   35.1300   30.4750   34.0110 N   0  0  0  0  0  0  0  0  0  0  0  0
   35.5640   29.2430   33.7110 C   0  0  0  0  0  0  0  0  0  0  0  0
   35.7620   28.4880   34.6980 O   0  0  0  0  0  0  0  0  0  0  0  0
   38.1340   24.9400   33.6300 H   0  0  0  0  0  0  0  0  0  0  0  0
   37.4670   27.2120   34.1150 H   0  0  0  0  0  0  0  0  0  0  0  0
   35.9330   25.0260   30.0250 H   0  0  0  0  0  0  0  0  0  0  0  0
   35.7390   29.2710   30.4440 H   0  0  0  0  0  0  0  0  0  0  0  0
   34.9300   31.5880   30.8390 H   0  0  0  0  0  0  0  0  0  0  0  0
   35.1300   32.7170   38.2730 H   0  0  0  0  0  0  0  0  0  0  0  0
   34.5530   32.9360   37.4340 N   0  0  0  0  0  0  0  0  0  0  0  0
   33.6550   31.8570   37.1740 C   0  0  0  0  0  2  0  0  0  0  0  0
   33.6170   31.4820   35.6810 C   0  0  0  0  0  2  0  0  0  0  0  0
   34.9240   30.8600   35.3690 C   0  0  0  0  0  3  0  0  0  0  0  0
   36.0170   31.8240   35.8350 C   0  0  0  0  0  2  0  0  0  0  0  0
   35.4170   33.1400   36.3170 C   0  0  0  0  0  2  0  0  0  0  0  0
  1  2  1  0  0  0  0
  1 15  1  0  0  0  0
  2 16  1  0  0  0  0
  3  7  1  0  0  0  0
  3  2  2  0  0  0  0
  4  3  1  0  0  0  0
  5  4  2  0  0  0  0
  5  6  1  0  0  0  0
  6  1  2  0  0  0  0
  7 13  1  0  0  0  0
  8  9  2  0  0  0  0
  8  7  1  0  0  0  0
  9 10  1  0  0  0  0
 10 11  2  0  0  0  0
 10 12  1  0  0  0  0
 12 24  1  0  0  0  0
 13 12  1  0  0  0  0
 13 14  2  0  0  0  0
 17  5  1  0  0  0  0
 18  8  1  0  0  0  0
 19  9  1  0  0  0  0
 21 20  1  0  0  0  0
 22 21  1  0  0  0  0
 23 22  1  0  0  0  0
 24 23  1  0  0  0  0
 24 25  1  0  0  0  0
 25 26  1  0  0  0  0
 26 21  1  0  0  0  0
M  END
>  <minimizedAffinity>
-5.1152935

$$$$

 OpenBabel03272505243D

 26 28  0  0  0  0  0  0  0  0999 V2000
   39.9700   27.6520   30.8360 C   0  0  0  0  0  0  0  0  0  0  0  0
   39.4970   26.7160   31.7880 C   0  0  0  0  0  0  0  0  0  0  0  0
   39.1140   25.4560   31.3700 C   0  0  0  0  0  0  0  0  0  0  0  0
   39.2140   25.1880   30.0520 N   0  0  0  0  0  0  0  0  0  0  0  0
   39.6610   26.0640   29.1290 C   0  0  0  0  0  0  0  0  0  0  0  0
   40.0390   27.3030   29.5330 N   0  0  0  0  0  0  0  0  0  0  0  0
   38.6360   24.4750   32.2710 N   0  0  0  0  0  0  0  0  0  0  0  0
   37.7140   23.5650   31.8970 C   0  0  0  0  0  0  0  0  0  0  0  0
   37.2550   22.6050   32.8060 C   0  0  0  0  0  0  0  0  0  0  0  0
   37.7830   22.6200   34.1110 C   0  0  0  0  0  0  0  0  0  0  0  0
   37.3860   21.7750   34.9220 O   0  0  0  0  0  0  0  0  0  0  0  0
   38.7170   23.5520   34.4590 N   0  0  0  0  0  0  0  0  0  0  0  0
   39.0940   24.4300   33.5200 C   0  0  0  0  0  0  0  0  0  0  0  0
   39.9570   25.2700   33.8840 O   0  0  0  0  0  0  0  0  0  0  0  0
   40.2860   28.6460   31.0830 H   0  0  0  0  0  0  0  0  0  0  0  0
   39.4770   27.1140   32.7680 H   0  0  0  0  0  0  0  0  0  0  0  0
   39.6930   25.7230   28.0910 H   0  0  0  0  0  0  0  0  0  0  0  0
   37.3220   23.5640   30.9090 H   0  0  0  0  0  0  0  0  0  0  0  0
   36.5210   21.8670   32.5400 H   0  0  0  0  0  0  0  0  0  0  0  0
   39.4490   23.7940   39.2130 H   0  0  0  0  0  0  0  0  0  0  0  0
   39.1800   22.9620   38.6470 N   0  0  0  0  0  0  0  0  0  0  0  0
   40.2430   22.6190   37.7580 C   0  0  0  0  0  2  0  0  0  0  0  0
   39.7350   22.3170   36.3370 C   0  0  0  0  0  2  0  0  0  0  0  0
   39.2790   23.6050   35.7680 C   0  0  0  0  0  3  0  0  0  0  0  0
   38.2930   24.2240   36.7610 C   0  0  0  0  0  2  0  0  0  0  0  0
   37.9970   23.2660   37.9090 C   0  0  0  0  0  2  0  0  0  0  0  0
  1 15  1  0  0  0  0
  1  2  1  0  0  0  0
  2 16  1  0  0  0  0
  3  2  2  0  0  0  0
  3  7  1  0  0  0  0
  4  3  1  0  0  0  0
  5  6  1  0  0  0  0
  5  4  2  0  0  0  0
  6  1  2  0  0  0  0
  7 13  1  0  0  0  0
  8  7  1  0  0  0  0
  8  9  2  0  0  0  0
  9 10  1  0  0  0  0
 10 12  1  0  0  0  0
 10 11  2  0  0  0  0
 12 24  1  0  0  0  0
 13 14  2  0  0  0  0
 13 12  1  0  0  0  0
 17  5  1  0  0  0  0
 18  8  1  0  0  0  0
 19  9  1  0  0  0  0
 21 20  1  0  0  0  0
 22 21  1  0  0  0  0
 23 22  1  0  0  0  0
 24 23  1  0  0  0  0
 24 25  1  0  0  0  0
 25 26  1  0  0  0  0
 26 21  1  0  0  0  0
M  END
>  <minimizedAffinity>
-5.01566076

$$$$

 OpenBabel03272505243D

 26 28  0  0  0  0  0  0  0  0999 V2000
   35.5920   30.1060   34.5380 C   0  0  0  0  0  0  0  0  0  0  0  0
   36.0140   28.7560   34.4560 C   0  0  0  0  0  0  0  0  0  0  0  0
   36.3730   28.2290   33.2300 C   0  0  0  0  0  0  0  0  0  0  0  0
   36.2960   29.0500   32.1620 N   0  0  0  0  0  0  0  0  0  0  0  0
   35.8960   30.3370   32.2180 C   0  0  0  0  0  0  0  0  0  0  0  0
   35.5440   30.8600   33.4190 N   0  0  0  0  0  0  0  0  0  0  0  0
   36.8070   26.8910   33.0810 N   0  0  0  0  0  0  0  0  0  0  0  0
   36.5540   26.1900   31.9570 C   0  0  0  0  0  0  0  0  0  0  0  0
   36.9910   24.8660   31.8340 C   0  0  0  0  0  0  0  0  0  0  0  0
   37.6970   24.2960   32.9100 C   0  0  0  0  0  0  0  0  0  0  0  0
   38.0890   23.1270   32.8110 O   0  0  0  0  0  0  0  0  0  0  0  0
   37.9390   25.0310   34.0340 N   0  0  0  0  0  0  0  0  0  0  0  0
   37.4810   26.2910   34.0590 C   0  0  0  0  0  0  0  0  0  0  0  0
   37.7280   26.9310   35.1130 O   0  0  0  0  0  0  0  0  0  0  0  0
   35.2990   30.5840   35.4510 H   0  0  0  0  0  0  0  0  0  0  0  0
   35.9950   28.2700   35.3950 H   0  0  0  0  0  0  0  0  0  0  0  0
   35.8780   30.8950   31.2780 H   0  0  0  0  0  0  0  0  0  0  0  0
   36.0190   26.6300   31.1510 H   0  0  0  0  0  0  0  0  0  0  0  0
   36.8060   24.2800   30.9520 H   0  0  0  0  0  0  0  0  0  0  0  0
   39.5040   22.3440   37.7100 H   0  0  0  0  0  0  0  0  0  0  0  0
   39.6730   22.1990   36.6930 N   0  0  0  0  0  0  0  0  0  0  0  0
   40.4650   23.2710   36.1790 C   0  0  0  0  0  2  0  0  0  0  0  0
   39.9210   23.8030   34.8410 C   0  0  0  0  0  2  0  0  0  0  0  0
   38.6490   24.4960   35.1480 C   0  0  0  0  0  3  0  0  0  0  0  0
   37.7720   23.5230   35.9380 C   0  0  0  0  0  2  0  0  0  0  0  0
   38.4180   22.1440   36.0170 C   0  0  0  0  0  2  0  0  0  0  0  0
  1 15  1  0  0  0  0
  2  1  1  0  0  0  0
  2 16  1  0  0  0  0
  3  2  2  0  0  0  0
  4  5  2  0  0  0  0
  4  3  1  0  0  0  0
  5  6  1  0  0  0  0
  6  1  2  0  0  0  0
  7  3  1  0  0  0  0
  7 13  1  0  0  0  0
  8  7  1  0  0  0  0
  9  8  2  0  0  0  0
  9 10  1  0  0  0  0
 10 12  1  0  0  0  0
 11 10  2  0  0  0  0
 12 13  1  0  0  0  0
 12 24  1  0  0  0  0
 13 14  2  0  0  0  0
 17  5  1  0  0  0  0
 18  8  1  0  0  0  0
 19  9  1  0  0  0  0
 21 20  1  0  0  0  0
 22 21  1  0  0  0  0
 23 24  1  0  0  0  0
 23 22  1  0  0  0  0
 24 25  1  0  0  0  0
 25 26  1  0  0  0  0
 26 21  1  0  0  0  0
M  END
>  <minimizedAffinity>
-4.86974525

$$$$

 OpenBabel03272505243D

 26 28  0  0  0  0  0  0  0  0999 V2000
   36.3140   28.0010   30.4700 C   0  0  0  0  0  0  0  0  0  0  0  0
   36.5690   26.6710   30.8860 C   0  0  0  0  0  0  0  0  0  0  0  0
   36.9120   26.4240   32.2020 C   0  0  0  0  0  0  0  0  0  0  0  0
   36.9880   27.4880   33.0280 N   0  0  0  0  0  0  0  0  0  0  0  0
   36.7510   28.7610   32.6520 C   0  0  0  0  0  0  0  0  0  0  0  0
   36.4120   29.0100   31.3620 N   0  0  0  0  0  0  0  0  0  0  0  0
   37.1750   25.1190   32.6800 N   0  0  0  0  0  0  0  0  0  0  0  0
   38.0700   24.8970   33.6650 C   0  0  0  0  0  0  0  0  0  0  0  0
   38.3140   23.5960   34.1200 C   0  0  0  0  0  0  0  0  0  0  0  0
   37.6020   22.5390   33.5250 C   0  0  0  0  0  0  0  0  0  0  0  0
   37.8090   21.3850   33.9210 O   0  0  0  0  0  0  0  0  0  0  0  0
   36.7010   22.7950   32.5320 N   0  0  0  0  0  0  0  0  0  0  0  0
   36.5350   24.0730   32.1630 C   0  0  0  0  0  0  0  0  0  0  0  0
   35.6940   24.2620   31.2470 O   0  0  0  0  0  0  0  0  0  0  0  0
   36.0430   28.2720   29.4690 H   0  0  0  0  0  0  0  0  0  0  0  0
   36.4740   25.9770   30.0940 H   0  0  0  0  0  0  0  0  0  0  0  0
   36.8460   29.5340   33.4200 H   0  0  0  0  0  0  0  0  0  0  0  0
   38.6030   25.7040   34.1050 H   0  0  0  0  0  0  0  0  0  0  0  0
   39.0210   23.3860   34.9020 H   0  0  0  0  0  0  0  0  0  0  0  0
   35.2920   18.8030   30.2390 H   0  0  0  0  0  0  0  0  0  0  0  0
   35.5510   18.9080   31.2420 N   0  0  0  0  0  0  0  0  0  0  0  0
   34.6030   19.7490   31.8990 C   0  0  0  0  0  2  0  0  0  0  0  0
   35.2830   20.7930   32.8020 C   0  0  0  0  0  2  0  0  0  0  0  0
   35.9570   21.7560   31.9010 C   0  0  0  0  0  3  0  0  0  0  0  0
   36.8430   20.9520   30.9470 C   0  0  0  0  0  2  0  0  0  0  0  0
   36.8570   19.4750   31.3260 C   0  0  0  0  0  2  0  0  0  0  0  0
  1  2  2  0  0  0  0
  1  6  1  0  0  0  0
  2  3  1  0  0  0  0
  3  7  1  0  0  0  0
  3  4  2  0  0  0  0
  5  4  1  0  0  0  0
  5 17  1  0  0  0  0
  6  5  2  0  0  0  0
  7  8  1  0  0  0  0
  8 18  1  0  0  0  0
  8  9  2  0  0  0  0
  9 19  1  0  0  0  0
 10 11  2  0  0  0  0
 10  9  1  0  0  0  0
 12 10  1  0  0  0  0
 13 12  1  0  0  0  0
 13  7  1  0  0  0  0
 14 13  2  0  0  0  0
 15  1  1  0  0  0  0
 16  2  1  0  0  0  0
 20 21  1  0  0  0  0
 21 26  1  0  0  0  0
 21 22  1  0  0  0  0
 22 23  1  0  0  0  0
 24 12  1  0  0  0  0
 24 23  1  0  0  0  0
 25 26  1  0  0  0  0
 25 24  1  0  0  0  0
M  END
>  <minimizedAffinity>
-4.80097246

$$$$

 OpenBabel03272505243D

 26 28  0  0  0  0  0  0  0  0999 V2000
   36.7440   27.9540   30.5260 C   0  0  0  0  0  0  0  0  0  0  0  0
   37.1560   26.7740   31.1920 C   0  0  0  0  0  0  0  0  0  0  0  0
   37.0260   26.6870   32.5650 C   0  0  0  0  0  0  0  0  0  0  0  0
   36.5050   27.7560   33.2020 N   0  0  0  0  0  0  0  0  0  0  0  0
   36.1080   28.8890   32.5870 C   0  0  0  0  0  0  0  0  0  0  0  0
   36.2320   28.9800   31.2400 N   0  0  0  0  0  0  0  0  0  0  0  0
   37.4140   25.5350   33.2880 N   0  0  0  0  0  0  0  0  0  0  0  0
   37.8940   25.6220   34.5460 C   0  0  0  0  0  0  0  0  0  0  0  0
   38.2740   24.4680   35.2410 C   0  0  0  0  0  0  0  0  0  0  0  0
   38.1400   23.2270   34.5920 C   0  0  0  0  0  0  0  0  0  0  0  0
   38.4720   22.2010   35.1980 O   0  0  0  0  0  0  0  0  0  0  0  0
   37.6500   23.1710   33.3190 N   0  0  0  0  0  0  0  0  0  0  0  0
   37.3120   24.3290   32.7350 C   0  0  0  0  0  0  0  0  0  0  0  0
   36.8640   24.2290   31.5640 O   0  0  0  0  0  0  0  0  0  0  0  0
   36.8120   28.0960   29.4650 H   0  0  0  0  0  0  0  0  0  0  0  0
   37.5510   26.0530   30.5260 H   0  0  0  0  0  0  0  0  0  0  0  0
   35.7020   29.6840   33.2190 H   0  0  0  0  0  0  0  0  0  0  0  0
   37.9920   26.5660   35.0250 H   0  0  0  0  0  0  0  0  0  0  0  0
   38.6600   24.5040   36.2440 H   0  0  0  0  0  0  0  0  0  0  0  0
   35.9750   19.3610   30.8970 H   0  0  0  0  0  0  0  0  0  0  0  0
   36.2270   20.2990   30.5220 N   0  0  0  0  0  0  0  0  0  0  0  0
   37.6300   20.5150   30.6680 C   0  0  0  0  0  2  0  0  0  0  0  0
   37.9460   21.9200   31.2130 C   0  0  0  0  0  2  0  0  0  0  0  0
   37.4970   21.9360   32.6230 C   0  0  0  0  0  3  0  0  0  0  0  0
   36.0390   21.4730   32.6480 C   0  0  0  0  0  2  0  0  0  0  0  0
   35.4960   21.2960   31.2350 C   0  0  0  0  0  2  0  0  0  0  0  0
  1  2  2  0  0  0  0
  1  6  1  0  0  0  0
  2  3  1  0  0  0  0
  3  4  2  0  0  0  0
  3  7  1  0  0  0  0
  5  4  1  0  0  0  0
  5 17  1  0  0  0  0
  6  5  2  0  0  0  0
  7  8  1  0  0  0  0
  8 18  1  0  0  0  0
  8  9  2  0  0  0  0
  9 19  1  0  0  0  0
 10 11  2  0  0  0  0
 10  9  1  0  0  0  0
 12 10  1  0  0  0  0
 13  7  1  0  0  0  0
 13 12  1  0  0  0  0
 14 13  2  0  0  0  0
 15  1  1  0  0  0  0
 16  2  1  0  0  0  0
 21 22  1  0  0  0  0
 21 20  1  0  0  0  0
 21 26  1  0  0  0  0
 22 23  1  0  0  0  0
 23 24  1  0  0  0  0
 24 25  1  0  0  0  0
 24 12  1  0  0  0  0
 26 25  1  0  0  0  0
M  END
>  <minimizedAffinity>
-4.6840663

$$$$
