REMARK  Name = 
REMARK  1 active torsions:
REMARK  status: ('A' for Active; 'I' for Inactive)
REMARK    1  A    between atoms: N_12  and  C_24
REMARK                            x       y       z     vdW  Elec       q    Type
REMARK                         _______ _______ _______ _____ _____    ______ ____
ROOT
ATOM      1  C   UNL     1      37.477  30.258  51.327  0.00  0.00    +0.000 A 
ATOM      2  C   UNL     1      38.142  30.978  50.304  0.00  0.00    +0.000 A 
ATOM      3  C   UNL     1      37.827  30.729  48.982  0.00  0.00    +0.000 A 
ATOM      4  N   UNL     1      36.886  29.793  48.740  0.00  0.00    +0.000 NA
ATOM      5  C   UNL     1      36.242  29.096  49.698  0.00  0.00    +0.000 A 
ATOM      6  N   UNL     1      36.546  29.337  50.998  0.00  0.00    +0.000 NA
ATOM      7  N   UNL     1      38.452  31.416  47.915  0.00  0.00    +0.000 N 
ATOM      8  C   UNL     1      38.665  30.821  46.723  0.00  0.00    +0.000 A 
ATOM      9  C   UNL     1      39.287  31.521  45.683  0.00  0.00    +0.000 A 
ATOM     10  C   UNL     1      39.678  32.852  45.918  0.00  0.00    +0.000 A 
ATOM     11  O   UNL     1      40.228  33.480  45.005  0.00  0.00    +0.000 OA
ATOM     12  N   UNL     1      39.448  33.427  47.134  0.00  0.00    +0.000 N 
ATOM     13  C   UNL     1      38.846  32.678  48.068  0.00  0.00    +0.000 A 
ATOM     14  O   UNL     1      38.652  33.249  49.172  0.00  0.00    +0.000 OA
ATOM     15  H   UNL     1      37.666  30.396  52.373  0.00  0.00    +0.000 HD
ATOM     16  H   UNL     1      38.856  31.657  50.689  0.00  0.00    +0.000 HD
ATOM     17  H   UNL     1      35.499  28.364  49.369  0.00  0.00    +0.000 HD
ATOM     18  H   UNL     1      38.366  29.815  46.558  0.00  0.00    +0.000 HD
ATOM     19  H   UNL     1      39.471  31.076  44.722  0.00  0.00    +0.000 HD
ENDROOT
BRANCH  12  24
ATOM     20  H   UNL     1      39.753  37.930  48.813  0.00  0.00    +0.000 HD
ATOM     21  N   UNL     1      40.059  37.050  49.279  0.00  0.00    +0.000 NA
ATOM     22  C   UNL     1      41.136  36.467  48.546  0.00  0.00    +0.000 C 
ATOM     23  C   UNL     1      40.955  34.950  48.359  0.00  0.00    +0.000 C 
ATOM     24  C   UNL     1      39.827  34.772  47.417  0.00  0.00    +0.000 C 
ATOM     25  C   UNL     1      38.641  35.570  47.962  0.00  0.00    +0.000 C 
ATOM     26  C   UNL     1      38.955  36.148  49.337  0.00  0.00    +0.000 C 
ENDBRANCH  12  24
TORSDOF 1
