
 OpenBabel03272509313D

 36 38  0  0  1  0  0  0  0  0999 V2000
   37.0850   31.2980   48.1660 C   0  0  2  0  0  0  0  0  0  0  0  0
   37.9340   32.0150   49.1750 C   0  0  0  0  0  0  0  0  0  0  0  0
   38.3750   31.1230   50.3170 C   0  0  0  0  0  0  0  0  0  0  0  0
   37.1420   30.5440   51.0150 C   0  0  0  0  0  0  0  0  0  0  0  0
   36.0510   30.1240   50.0730 C   0  0  0  0  0  0  0  0  0  0  0  0
   36.6360   29.9660   48.6590 C   0  0  1  0  0  0  0  0  0  0  0  0
   36.1550   31.8650   47.8730 H   0  0  0  0  0  0  0  0  0  0  0  0
   37.2120   32.7390   49.6810 H   0  0  0  0  0  0  0  0  0  0  0  0
   38.7220   32.6420   48.7990 H   0  0  0  0  0  0  0  0  0  0  0  0
   38.9770   30.2550   49.9930 H   0  0  0  0  0  0  0  0  0  0  0  0
   38.9040   31.7670   51.0210 H   0  0  0  0  0  0  0  0  0  0  0  0
   37.4980   29.7390   51.6810 H   0  0  0  0  0  0  0  0  0  0  0  0
   36.7340   31.3760   51.6260 H   0  0  0  0  0  0  0  0  0  0  0  0
   35.2270   30.8410   49.9680 H   0  0  0  0  0  0  0  0  0  0  0  0
   35.6640   29.1320   50.3930 H   0  0  0  0  0  0  0  0  0  0  0  0
   37.4750   29.3440   48.8570 H   0  0  0  0  0  0  0  0  0  0  0  0
   34.5300   29.5660   47.3070 C   0  0  0  0  0  0  0  0  0  0  0  0
   33.8120   30.5880   47.5120 O   0  0  0  0  0  0  0  0  0  0  0  0
   35.8280   29.2180   47.7680 N   0  0  0  0  0  0  0  0  0  0  0  0
   36.1050   28.2860   47.3260 H   0  0  0  0  0  0  0  0  0  0  0  0
   33.7070   28.7670   46.4500 N   0  0  0  0  0  0  0  0  0  0  0  0
   32.4170   28.3540   46.9670 C   0  0  0  0  0  2  0  0  0  0  0  0
   31.3380   29.1940   46.2930 C   0  0  0  0  0  2  0  0  0  0  0  0
   31.8270   29.5530   44.8900 C   0  0  0  0  0  3  0  0  0  0  0  0
   32.4670   30.4530   44.9280 H   0  0  0  0  0  0  0  0  0  0  0  0
   32.6000   28.3560   44.3490 C   0  0  0  0  0  2  0  0  0  0  0  0
   33.9290   28.2650   45.0850 C   0  0  0  0  0  2  0  0  0  0  0  0
   37.8180   31.1120   46.8850 C   0  0  0  0  0  0  0  0  0  0  0  0
   39.2230   31.2270   46.9650 C   0  0  0  0  0  0  0  0  0  0  0  0
   39.9260   31.0520   45.7680 C   0  0  0  0  0  0  0  0  0  0  0  0
   39.2280   30.7830   44.6140 N   0  0  0  0  0  0  0  0  0  0  0  0
   37.8610   30.6800   44.5950 C   0  0  0  0  0  0  0  0  0  0  0  0
   37.1710   30.8480   45.7420 N   0  0  0  0  0  0  0  0  0  0  0  0
   39.8630   31.4240   47.7980 H   0  0  0  0  0  0  0  0  0  0  0  0
   40.9970   31.1110   45.6710 H   0  0  0  0  0  0  0  0  0  0  0  0
   37.3850   30.4660   43.6470 H   0  0  0  0  0  0  0  0  0  0  0  0
  1  7  1  6  0  0  0
  1  6  1  0  0  0  0
  1  2  1  0  0  0  0
  2  8  1  0  0  0  0
  2  3  1  0  0  0  0
  3  4  1  0  0  0  0
  3 11  1  0  0  0  0
  4 13  1  0  0  0  0
  4 12  1  0  0  0  0
  5 15  1  0  0  0  0
  5  4  1  0  0  0  0
  6 16  1  1  0  0  0
  6  5  1  0  0  0  0
  9  2  1  0  0  0  0
 10  3  1  0  0  0  0
 14  5  1  0  0  0  0
 17 18  2  0  0  0  0
 17 19  1  0  0  0  0
 19  6  1  0  0  0  0
 20 19  1  0  0  0  0
 21 22  1  0  0  0  0
 21 17  1  0  0  0  0
 23 22  1  0  0  0  0
 24 25  1  0  0  0  0
 24 23  1  0  0  0  0
 26 24  1  0  0  0  0
 26 27  1  0  0  0  0
 27 21  1  0  0  0  0
 28 29  1  0  0  0  0
 28  1  1  0  0  0  0
 29 34  1  0  0  0  0
 30 29  2  0  0  0  0
 31 30  1  0  0  0  0
 32 31  2  0  0  0  0
 32 33  1  0  0  0  0
 33 28  2  0  0  0  0
 35 30  1  0  0  0  0
 36 32  1  0  0  0  0
M  END
>  <minimizedAffinity>
-5.51222277

>  <minimizedRMSD>
2.47507024

$$$$
