
 OpenBabel03272509313D

 36 38  0  0  1  0  0  0  0  0999 V2000
   36.3060   30.6660   49.0000 C   0  0  2  0  0  0  0  0  0  0  0  0
   37.2490   31.4260   49.8860 C   0  0  0  0  0  0  0  0  0  0  0  0
   38.0050   30.5340   50.8490 C   0  0  0  0  0  0  0  0  0  0  0  0
   37.0080   29.7620   51.7170 C   0  0  0  0  0  0  0  0  0  0  0  0
   35.8080   29.2620   50.9660 C   0  0  0  0  0  0  0  0  0  0  0  0
   36.1180   29.2610   49.4600 C   0  0  1  0  0  0  0  0  0  0  0  0
   35.2780   31.1260   48.9350 H   0  0  0  0  0  0  0  0  0  0  0  0
   36.5630   32.0220   50.5760 H   0  0  0  0  0  0  0  0  0  0  0  0
   37.8710   32.1690   49.4210 H   0  0  0  0  0  0  0  0  0  0  0  0
   38.6270   29.7690   50.3480 H   0  0  0  0  0  0  0  0  0  0  0  0
   38.5860   31.1990   51.4910 H   0  0  0  0  0  0  0  0  0  0  0  0
   37.5770   28.9730   52.2360 H   0  0  0  0  0  0  0  0  0  0  0  0
   36.6350   30.4990   52.4600 H   0  0  0  0  0  0  0  0  0  0  0  0
   34.9030   29.8730   51.0770 H   0  0  0  0  0  0  0  0  0  0  0  0
   35.6070   28.2120   51.2720 H   0  0  0  0  0  0  0  0  0  0  0  0
   37.0440   28.7410   49.4450 H   0  0  0  0  0  0  0  0  0  0  0  0
   33.8280   28.3910   48.8080 C   0  0  0  0  0  0  0  0  0  0  0  0
   33.0190   29.0000   49.5690 O   0  0  0  0  0  0  0  0  0  0  0  0
   35.2410   28.4690   48.6780 N   0  0  0  0  0  0  0  0  0  0  0  0
   35.5430   27.8250   47.8820 H   0  0  0  0  0  0  0  0  0  0  0  0
   32.9660   27.5390   48.0450 N   0  0  0  0  0  0  0  0  0  0  0  0
   31.7490   27.0820   48.6870 C   0  0  0  0  0  2  0  0  0  0  0  0
   30.5770   27.8600   48.1030 C   0  0  0  0  0  2  0  0  0  0  0  0
   30.9160   28.2110   46.6550 C   0  0  0  0  0  3  0  0  0  0  0  0
   31.5160   29.1380   46.6190 H   0  0  0  0  0  0  0  0  0  0  0  0
   31.6890   27.0370   46.0630 C   0  0  0  0  0  2  0  0  0  0  0  0
   33.0830   27.0200   46.6740 C   0  0  0  0  0  2  0  0  0  0  0  0
   36.7890   30.6490   47.5940 C   0  0  0  0  0  0  0  0  0  0  0  0
   38.1710   30.8770   47.4220 C   0  0  0  0  0  0  0  0  0  0  0  0
   38.6410   30.8610   46.1040 C   0  0  0  0  0  0  0  0  0  0  0  0
   37.7530   30.6290   45.0790 N   0  0  0  0  0  0  0  0  0  0  0  0
   36.4190   30.4120   45.3050 C   0  0  0  0  0  0  0  0  0  0  0  0
   35.9530   30.4260   46.5710 N   0  0  0  0  0  0  0  0  0  0  0  0
   38.9460   31.0580   48.1360 H   0  0  0  0  0  0  0  0  0  0  0  0
   39.6660   31.0190   45.8150 H   0  0  0  0  0  0  0  0  0  0  0  0
   35.7850   30.2370   44.4450 H   0  0  0  0  0  0  0  0  0  0  0  0
  1  7  1  1  0  0  0
  1  6  1  0  0  0  0
  1  2  1  0  0  0  0
  2  8  1  0  0  0  0
  2  3  1  0  0  0  0
  3 11  1  0  0  0  0
  3  4  1  0  0  0  0
  4 12  1  0  0  0  0
  4 13  1  0  0  0  0
  5 14  1  0  0  0  0
  5 15  1  0  0  0  0
  5  4  1  0  0  0  0
  6 16  1  6  0  0  0
  6  5  1  0  0  0  0
  9  2  1  0  0  0  0
 10  3  1  0  0  0  0
 17 18  2  0  0  0  0
 19 17  1  0  0  0  0
 19  6  1  0  0  0  0
 20 19  1  0  0  0  0
 21 22  1  0  0  0  0
 21 17  1  0  0  0  0
 23 22  1  0  0  0  0
 24 23  1  0  0  0  0
 25 24  1  0  0  0  0
 26 24  1  0  0  0  0
 26 27  1  0  0  0  0
 27 21  1  0  0  0  0
 28  1  1  0  0  0  0
 29 28  1  0  0  0  0
 29 34  1  0  0  0  0
 30 29  2  0  0  0  0
 31 32  2  0  0  0  0
 31 30  1  0  0  0  0
 32 33  1  0  0  0  0
 33 28  2  0  0  0  0
 35 30  1  0  0  0  0
 36 32  1  0  0  0  0
M  END
>  <minimizedAffinity>
-5.87312365

>  <minimizedRMSD>
0.690715671

$$$$
