
 OpenBabel03272509313D

 36 38  0  0  1  0  0  0  0  0999 V2000
   36.2840   30.6660   49.0050 C   0  0  2  0  0  0  0  0  0  0  0  0
   37.2220   31.5480   49.7770 C   0  0  0  0  0  0  0  0  0  0  0  0
   38.1080   30.7760   50.7330 C   0  0  0  0  0  0  0  0  0  0  0  0
   37.2340   29.9880   51.7120 C   0  0  0  0  0  0  0  0  0  0  0  0
   36.0300   29.3540   51.0790 C   0  0  0  0  0  0  0  0  0  0  0  0
   36.2380   29.2820   49.5570 C   0  0  1  0  0  0  0  0  0  0  0  0
   35.2210   31.0430   48.9870 H   0  0  0  0  0  0  0  0  0  0  0  0
   36.5380   32.1330   50.4790 H   0  0  0  0  0  0  0  0  0  0  0  0
   37.7510   32.3050   49.2270 H   0  0  0  0  0  0  0  0  0  0  0  0
   38.7530   30.0310   50.2330 H   0  0  0  0  0  0  0  0  0  0  0  0
   38.6760   31.5210   51.2930 H   0  0  0  0  0  0  0  0  0  0  0  0
   37.8970   29.2780   52.2340 H   0  0  0  0  0  0  0  0  0  0  0  0
   36.8550   30.7400   52.4360 H   0  0  0  0  0  0  0  0  0  0  0  0
   35.0890   29.9010   51.2190 H   0  0  0  0  0  0  0  0  0  0  0  0
   35.9330   28.3130   51.4580 H   0  0  0  0  0  0  0  0  0  0  0  0
   37.1990   28.8330   49.5060 H   0  0  0  0  0  0  0  0  0  0  0  0
   33.9650   28.2940   49.0260 C   0  0  0  0  0  0  0  0  0  0  0  0
   33.1440   28.9830   49.7020 O   0  0  0  0  0  0  0  0  0  0  0  0
   35.3760   28.3800   48.8870 N   0  0  0  0  0  0  0  0  0  0  0  0
   35.6900   27.6420   48.1810 H   0  0  0  0  0  0  0  0  0  0  0  0
   33.1190   27.3360   48.3820 N   0  0  0  0  0  0  0  0  0  0  0  0
   31.6970   27.4150   48.6580 C   0  0  0  0  0  2  0  0  0  0  0  0
   31.0060   28.0170   47.4380 C   0  0  0  0  0  2  0  0  0  0  0  0
   31.8010   27.6140   46.1970 C   0  0  0  0  0  3  0  0  0  0  0  0
   32.6380   28.3160   46.0360 H   0  0  0  0  0  0  0  0  0  0  0  0
   32.3140   26.1950   46.4170 C   0  0  0  0  0  2  0  0  0  0  0  0
   33.4280   26.2390   47.4530 C   0  0  0  0  0  2  0  0  0  0  0  0
   36.6720   30.5960   47.5720 C   0  0  0  0  0  0  0  0  0  0  0  0
   38.0460   30.7730   47.3040 C   0  0  0  0  0  0  0  0  0  0  0  0
   38.4270   30.7080   45.9590 C   0  0  0  0  0  0  0  0  0  0  0  0
   37.4670   30.4810   45.0010 N   0  0  0  0  0  0  0  0  0  0  0  0
   36.1440   30.3150   45.3190 C   0  0  0  0  0  0  0  0  0  0  0  0
   35.7640   30.3760   46.6120 N   0  0  0  0  0  0  0  0  0  0  0  0
   38.8720   30.9460   47.9600 H   0  0  0  0  0  0  0  0  0  0  0  0
   39.4360   30.8250   45.5990 H   0  0  0  0  0  0  0  0  0  0  0  0
   35.4490   30.1390   44.5080 H   0  0  0  0  0  0  0  0  0  0  0  0
  1  7  1  1  0  0  0
  1  6  1  0  0  0  0
  1  2  1  0  0  0  0
  2  8  1  0  0  0  0
  2  3  1  0  0  0  0
  3 11  1  0  0  0  0
  3  4  1  0  0  0  0
  4 12  1  0  0  0  0
  4 13  1  0  0  0  0
  5 14  1  0  0  0  0
  5 15  1  0  0  0  0
  5  4  1  0  0  0  0
  6 16  1  6  0  0  0
  6  5  1  0  0  0  0
  9  2  1  0  0  0  0
 10  3  1  0  0  0  0
 17 18  2  0  0  0  0
 19 17  1  0  0  0  0
 19  6  1  0  0  0  0
 20 19  1  0  0  0  0
 21 22  1  0  0  0  0
 21 17  1  0  0  0  0
 23 22  1  0  0  0  0
 24 26  1  0  0  0  0
 24 23  1  0  0  0  0
 25 24  1  0  0  0  0
 26 27  1  0  0  0  0
 27 21  1  0  0  0  0
 28  1  1  0  0  0  0
 29 28  1  0  0  0  0
 29 34  1  0  0  0  0
 30 29  2  0  0  0  0
 31 32  2  0  0  0  0
 31 30  1  0  0  0  0
 32 33  1  0  0  0  0
 33 28  2  0  0  0  0
 35 30  1  0  0  0  0
 36 32  1  0  0  0  0
M  END
>  <minimizedAffinity>
-6.14490223

>  <minimizedRMSD>
0.401564598

$$$$
