
     RDKit          3D

 39 41  0  0  0  0  0  0  0  0999 V2000
   38.4531   30.4457   47.3129 F   0  0  0  0  0  0  0  0  0  0  0  0
   38.7564   31.6825   47.7931 C   0  0  0  0  0  0  0  0  0  0  0  0
   38.2338   32.0748   48.9953 C   0  0  0  0  0  0  0  0  0  0  0  0
   38.5773   33.3343   49.4250 C   0  0  0  0  0  0  0  0  0  0  0  0
   39.3994   34.1769   48.7074 C   0  0  0  0  0  0  0  0  0  0  0  0
   39.9107   33.7456   47.4933 C   0  0  0  0  0  0  0  0  0  0  0  0
   39.5834   32.4733   47.0256 C   0  0  0  0  0  0  0  0  0  0  0  0
   36.9177   29.5985   51.5318 C   0  0  0  0  0  0  0  0  0  0  0  0
   37.7842   30.4880   50.8593 C   0  0  0  0  0  0  0  0  0  0  0  0
   37.3685   31.1488   49.7180 C   0  0  0  0  0  0  0  0  0  0  0  0
   36.0944   30.9006   49.2803 N   0  0  0  0  0  0  0  0  0  0  0  0
   35.2855   30.0447   49.9423 C   0  0  0  0  0  0  0  0  0  0  0  0
   35.6851   29.4157   51.0310 N   0  0  0  0  0  0  0  0  0  0  0  0
   39.1807   32.1543   44.6958 C   0  0  0  0  0  0  0  0  0  0  0  0
   38.0823   32.7136   44.9801 O   0  0  0  0  0  0  0  0  0  0  0  0
   40.0956   32.0056   45.7809 N   0  0  0  0  0  0  0  0  0  0  0  0
   38.1786   33.6721   50.3727 H   0  0  0  0  0  0  0  0  0  0  0  0
   39.6542   35.1715   49.0749 H   0  0  0  0  0  0  0  0  0  0  0  0
   40.5545   34.4109   46.9361 H   0  0  0  0  0  0  0  0  0  0  0  0
   37.3121   29.1127   52.4247 H   0  0  0  0  0  0  0  0  0  0  0  0
   38.7874   30.6793   51.2096 H   0  0  0  0  0  0  0  0  0  0  0  0
   34.2700   29.8190   49.6316 H   0  0  0  0  0  0  0  0  0  0  0  0
   41.0151   31.5801   45.5423 H   0  0  0  0  0  0  0  0  0  0  0  0
   39.4188   31.7282   43.3635 N   0  0  0  0  0  0  0  0  0  0  0  0
   39.6698   30.3229   43.1088 C   0  0  0  0  0  0  0  0  0  0  0  0
   41.0023   30.2796   42.3898 C   0  0  0  0  0  0  0  0  0  0  0  0
   40.7975   30.8905   41.0219 C   0  0  0  0  0  0  0  0  0  0  0  0
   40.5418   30.0160   40.3532 H   0  0  0  0  0  0  0  0  0  0  0  0
   39.7138   31.9112   40.9561 C   0  0  0  0  0  0  0  0  0  0  0  0
   39.4252   32.6356   42.2336 C   0  0  0  0  0  0  0  0  0  0  0  0
   39.6773   29.7519   44.0490 H   0  0  0  0  0  0  0  0  0  0  0  0
   38.8928   29.9169   42.3988 H   0  0  0  0  0  0  0  0  0  0  0  0
   41.7031   30.9605   42.9437 H   0  0  0  0  0  0  0  0  0  0  0  0
   41.4236   29.2636   42.3375 H   0  0  0  0  0  0  0  0  0  0  0  0
   41.7872   31.2563   40.6183 H   0  0  0  0  0  0  0  0  0  0  0  0
   38.8131   31.4565   40.4918 H   0  0  0  0  0  0  0  0  0  0  0  0
   40.0566   32.6872   40.2117 H   0  0  0  0  0  0  0  0  0  0  0  0
   40.1048   33.4952   42.3498 H   0  0  0  0  0  0  0  0  0  0  0  0
   38.3745   33.0382   42.1316 H   0  0  0  0  0  0  0  0  0  0  0  0
  1  2  1  0
  2  3  2  0
  3  4  1  0
  3 10  1  0
  5  4  2  0
  6  5  1  0
  7  6  2  0
  7  2  1  0
  9  8  2  0
 10  9  1  0
 11 10  2  0
 11 12  1  0
 12 13  2  0
 13  8  1  0
 14 15  2  0
 14 16  1  0
 16  7  1  0
  4 17  1  0
  5 18  1  0
  6 19  1  0
  8 20  1  0
  9 21  1  0
 12 22  1  0
 16 23  1  0
 24 25  1  0
 25 26  1  0
 26 27  1  0
 27 28  1  0
 27 29  1  0
 29 30  1  0
 30 24  1  0
 25 31  1  0
 25 32  1  0
 26 33  1  0
 26 34  1  0
 27 35  1  0
 29 36  1  0
 29 37  1  0
 30 38  1  0
 30 39  1  0
 14 24  1  0
M  ISO  7  17  14  18  14  19  14  20  14  21  14  22  14  28  15
M  END
>  <DihAtoms>  (1) 
14,13,23,24

>  <DihDeg>  (1) 
0.03482524592322202

$$$$
