
 OpenBabel03272509303D

 36 38  0  0  1  0  0  0  0  0999 V2000
   36.3900   30.7220   48.8940 C   0  0  2  0  0  0  0  0  0  0  0  0
   37.2980   31.5290   49.7760 C   0  0  0  0  0  0  0  0  0  0  0  0
   38.0650   30.6800   50.7690 C   0  0  0  0  0  0  0  0  0  0  0  0
   37.0770   29.8990   51.6400 C   0  0  0  0  0  0  0  0  0  0  0  0
   35.9030   29.3480   50.8830 C   0  0  0  0  0  0  0  0  0  0  0  0
   36.2350   29.3230   49.3820 C   0  0  1  0  0  0  0  0  0  0  0  0
   35.3500   31.1510   48.8030 H   0  0  0  0  0  0  0  0  0  0  0  0
   36.5840   32.1190   50.4430 H   0  0  0  0  0  0  0  0  0  0  0  0
   37.9050   32.2790   49.3030 H   0  0  0  0  0  0  0  0  0  0  0  0
   38.7150   29.9230   50.2940 H   0  0  0  0  0  0  0  0  0  0  0  0
   38.6160   31.3750   51.4040 H   0  0  0  0  0  0  0  0  0  0  0  0
   37.6610   29.1380   52.1850 H   0  0  0  0  0  0  0  0  0  0  0  0
   36.6720   30.6410   52.3600 H   0  0  0  0  0  0  0  0  0  0  0  0
   34.9790   29.9340   50.9670 H   0  0  0  0  0  0  0  0  0  0  0  0
   35.7280   28.3000   51.2090 H   0  0  0  0  0  0  0  0  0  0  0  0
   37.1760   28.8300   49.3920 H   0  0  0  0  0  0  0  0  0  0  0  0
   34.0150   28.2290   48.8340 C   0  0  0  0  0  0  0  0  0  0  0  0
   33.2080   28.6780   49.7010 O   0  0  0  0  0  0  0  0  0  0  0  0
   35.3930   28.4890   48.6060 N   0  0  0  0  0  0  0  0  0  0  0  0
   35.6990   27.9470   47.7390 H   0  0  0  0  0  0  0  0  0  0  0  0
   33.1960   27.3370   48.0700 N   0  0  0  0  0  0  0  0  0  0  0  0
   31.8800   27.8110   47.6870 C   0  0  0  0  0  2  0  0  0  0  0  0
   31.9110   28.1620   46.2040 C   0  0  0  0  0  2  0  0  0  0  0  0
   32.9220   27.2430   45.5200 C   0  0  0  0  0  3  0  0  0  0  0  0
   33.9400   27.6600   45.6140 H   0  0  0  0  0  0  0  0  0  0  0  0
   32.8290   25.8750   46.1900 C   0  0  0  0  0  2  0  0  0  0  0  0
   33.4450   25.9740   47.5780 C   0  0  0  0  0  2  0  0  0  0  0  0
   36.8940   30.6880   47.4950 C   0  0  0  0  0  0  0  0  0  0  0  0
   38.2810   30.8990   47.3430 C   0  0  0  0  0  0  0  0  0  0  0  0
   38.7710   30.8670   46.0320 C   0  0  0  0  0  0  0  0  0  0  0  0
   37.8960   30.6370   44.9960 N   0  0  0  0  0  0  0  0  0  0  0  0
   36.5560   30.4370   45.2030 C   0  0  0  0  0  0  0  0  0  0  0  0
   36.0710   30.4660   46.4610 N   0  0  0  0  0  0  0  0  0  0  0  0
   39.0470   31.0770   48.0670 H   0  0  0  0  0  0  0  0  0  0  0  0
   39.8020   31.0120   45.7580 H   0  0  0  0  0  0  0  0  0  0  0  0
   35.9330   30.2620   44.3350 H   0  0  0  0  0  0  0  0  0  0  0  0
  1  7  1  6  0  0  0
  1  6  1  0  0  0  0
  1  2  1  0  0  0  0
  2  8  1  0  0  0  0
  2  3  1  0  0  0  0
  3 11  1  0  0  0  0
  3  4  1  0  0  0  0
  4 12  1  0  0  0  0
  4 13  1  0  0  0  0
  5 14  1  0  0  0  0
  5 15  1  0  0  0  0
  5  4  1  0  0  0  0
  6 16  1  6  0  0  0
  6  5  1  0  0  0  0
  9  2  1  0  0  0  0
 10  3  1  0  0  0  0
 17 18  2  0  0  0  0
 19 17  1  0  0  0  0
 19  6  1  0  0  0  0
 20 19  1  0  0  0  0
 21 17  1  0  0  0  0
 22 21  1  0  0  0  0
 23 22  1  0  0  0  0
 24 25  1  0  0  0  0
 24 26  1  0  0  0  0
 24 23  1  0  0  0  0
 26 27  1  0  0  0  0
 27 21  1  0  0  0  0
 28  1  1  0  0  0  0
 29 28  1  0  0  0  0
 29 34  1  0  0  0  0
 30 29  2  0  0  0  0
 31 32  2  0  0  0  0
 31 30  1  0  0  0  0
 32 33  1  0  0  0  0
 33 28  2  0  0  0  0
 35 30  1  0  0  0  0
 36 32  1  0  0  0  0
M  END
>  <minimizedAffinity>
-6.03858852

>  <minimizedRMSD>
0.701007426

$$$$
