
     RDKit          3D

 36 38  0  0  0  0  0  0  0  0999 V2000
   36.3687   30.4770   46.3873 Cl  0  0  0  0  0  0  0  0  0  0  0  0
   36.7985   30.5380   48.0732 C   0  0  0  0  0  0  0  0  0  0  0  0
   38.0238   31.0831   48.3827 C   0  0  0  0  0  0  0  0  0  0  0  0
   38.3904   31.1436   49.7333 C   0  0  0  0  0  0  0  0  0  0  0  0
   37.5324   30.6666   50.6911 C   0  0  0  0  0  0  0  0  0  0  0  0
   36.3141   30.1315   50.3022 C   0  0  0  0  0  0  0  0  0  0  0  0
   35.8917   30.0407   49.0020 C   0  0  0  0  0  0  0  0  0  0  0  0
   39.9981   33.4244   46.4052 C   0  0  0  0  0  0  0  0  0  0  0  0
   40.5706   32.6222   45.3838 C   0  0  0  0  0  0  0  0  0  0  0  0
   40.2476   31.2525   45.4090 C   0  0  0  0  0  0  0  0  0  0  0  0
   39.4240   30.7917   46.3905 N   0  0  0  0  0  0  0  0  0  0  0  0
   38.9145   31.5858   47.3237 C   0  0  0  0  0  0  0  0  0  0  0  0
   39.2005   32.9008   47.3319 N   0  0  0  0  0  0  0  0  0  0  0  0
   34.3419   29.3631   48.4861 S   0  0  0  0  0  0  0  0  0  0  0  0
   39.3545   31.5743   49.9629 H   0  0  0  0  0  0  0  0  0  0  0  0
   37.7856   30.7000   51.7278 H   0  0  0  0  0  0  0  0  0  0  0  0
   35.6432   29.7561   51.0730 H   0  0  0  0  0  0  0  0  0  0  0  0
   40.2619   34.4672   46.3624 H   0  0  0  0  0  0  0  0  0  0  0  0
   41.2184   32.9719   44.6069 H   0  0  0  0  0  0  0  0  0  0  0  0
   40.6233   30.5638   44.6936 H   0  0  0  0  0  0  0  0  0  0  0  0
   34.1421   24.3413   46.7474 H   0  0  0  0  0  0  0  0  0  0  0  0
   34.7408   25.1813   46.6241 N   0  0  0  0  0  0  0  0  0  0  0  0
   35.5405   25.5279   47.7723 C   0  0  0  0  0  0  0  0  0  0  0  0
   35.7413   27.0476   47.8602 C   0  0  0  0  0  0  0  0  0  0  0  0
   34.3792   27.6045   48.1512 C   0  0  0  0  0  0  0  0  0  0  0  0
   33.5130   27.3047   46.9644 C   0  0  0  0  0  0  0  0  0  0  0  0
   34.1031   26.3085   46.0029 C   0  0  0  0  0  0  0  0  0  0  0  0
   34.9825   25.2391   48.6931 H   0  0  0  0  0  0  0  0  0  0  0  0
   36.4895   24.9813   47.7679 H   0  0  0  0  0  0  0  0  0  0  0  0
   36.0727   27.3856   46.8588 H   0  0  0  0  0  0  0  0  0  0  0  0
   36.4561   27.2502   48.6550 H   0  0  0  0  0  0  0  0  0  0  0  0
   33.9642   27.0264   49.0283 H   0  0  0  0  0  0  0  0  0  0  0  0
   32.5115   26.9637   47.3084 H   0  0  0  0  0  0  0  0  0  0  0  0
   33.3653   28.2442   46.3888 H   0  0  0  0  0  0  0  0  0  0  0  0
   34.8185   26.7554   45.2992 H   0  0  0  0  0  0  0  0  0  0  0  0
   33.2586   25.9126   45.3890 H   0  0  0  0  0  0  0  0  0  0  0  0
  1  2  1  0
  2  3  2  0
  2  7  1  0
  3  4  1  0
  4  5  2  0
  6  5  1  0
  7  6  2  0
  8 13  2  0
  9 10  2  0
  9  8  1  0
 10 11  1  0
 11 12  2  0
 12  3  1  0
 13 12  1  0
 14  7  1  0
  4 15  1  0
  5 16  1  0
  6 17  1  0
  8 18  1  0
  9 19  1  0
 10 20  1  0
 21 22  1  0
 22 23  1  0
 23 24  1  0
 24 25  1  0
 25 26  1  0
 26 27  1  0
 27 22  1  0
 23 28  1  0
 23 29  1  0
 24 30  1  0
 24 31  1  0
 25 32  1  0
 26 33  1  0
 26 34  1  0
 27 35  1  0
 27 36  1  0
 14 25  1  0
M  ISO  7  15  14  16  14  17  14  18  14  19  14  20  14  21   5
M  END
>  <DihAtoms>  (1) 
6,13,24,23

>  <DihDeg>  (1) 
-66.31398965363663

$$$$
