
 OpenBabel03272504223D

 37 39  0  0  1  0  0  0  0  0999 V2000
   38.8700   32.3540   47.8290 C   0  0  2  0  0  0  0  0  0  0  0  0
   38.2030   31.3660   48.7650 C   0  0  1  0  0  0  0  0  0  0  0  0
   38.7190   31.9330   50.0900 C   0  0  0  0  0  0  0  0  0  0  0  0
   38.4230   33.2660   49.9480 O   0  0  0  0  0  0  0  0  0  0  0  0
   38.6720   33.6390   48.6460 C   0  0  0  0  0  0  0  0  0  0  0  0
   39.9450   32.2270   47.7340 H   0  0  0  0  0  0  0  0  0  0  0  0
   38.5230   30.3220   48.6180 H   0  0  0  0  0  0  0  0  0  0  0  0
   39.7910   31.7450   50.1840 H   0  0  0  0  0  0  0  0  0  0  0  0
   38.1270   31.5450   50.9550 H   0  0  0  0  0  0  0  0  0  0  0  0
   37.8640   34.2570   48.1940 H   0  0  0  0  0  0  0  0  0  0  0  0
   39.5720   34.2690   48.6380 H   0  0  0  0  0  0  0  0  0  0  0  0
   36.8440   31.5850   48.6700 O   0  0  0  0  0  0  0  0  0  0  0  0
   35.9050   29.8540   46.9700 O   0  0  0  0  0  0  0  0  0  0  0  0
   35.9660   30.1700   48.4390 P   0  0  1  0  0  0  0  0  0  0  0  0
   36.7490   28.8720   49.2250 O   0  0  0  0  0  0  0  0  0  0  0  0
   37.3400   28.3660   48.6150 H   0  0  0  0  0  0  0  0  0  0  0  0
   34.4050   30.3330   49.0710 O   0  0  0  0  0  0  0  0  0  0  0  0
   34.1290   29.1990   49.8040 C   0  0  0  0  0  0  0  0  0  0  0  0
   35.0370   28.6440   50.1230 H   0  0  0  0  0  0  0  0  0  0  0  0
   33.6170   29.5010   50.7530 H   0  0  0  0  0  0  0  0  0  0  0  0
   33.2670   28.2300   49.0890 C   0  0  0  0  0  0  0  0  0  0  0  0
   33.8980   27.3360   48.2550 C   0  0  0  0  0  0  0  0  0  0  0  0
   33.1390   26.3970   47.5530 C   0  0  0  0  0  0  0  0  0  0  0  0
   31.7900   26.4260   47.7450 N   0  0  0  0  0  0  0  0  0  0  0  0
   31.1870   27.3140   48.5700 C   0  0  0  0  0  0  0  0  0  0  0  0
   31.9330   28.2220   49.2470 N   0  0  0  0  0  0  0  0  0  0  0  0
   34.9430   27.2390   48.0440 H   0  0  0  0  0  0  0  0  0  0  0  0
   33.5420   25.6550   46.8770 H   0  0  0  0  0  0  0  0  0  0  0  0
   30.1040   27.2980   48.6890 H   0  0  0  0  0  0  0  0  0  0  0  0
   38.1680   32.3830   46.6540 O   0  0  0  0  0  0  0  0  0  0  0  0
   40.4500   31.6620   42.2870 H   0  0  0  0  0  0  0  0  0  0  0  0
   39.8530   31.7600   43.1460 N   0  0  0  0  0  0  0  0  0  0  0  0
   39.8700   33.1330   43.5370 C   0  0  0  0  0  2  0  0  0  0  0  0
   39.6110   33.3640   45.0100 C   0  0  0  0  0  2  0  0  0  0  0  0
   38.8370   32.1620   45.5120 C   0  0  0  0  0  3  0  0  0  0  0  0
   39.7820   31.0030   45.4820 C   0  0  0  0  0  2  0  0  0  0  0  0
   40.3800   30.8350   44.1190 C   0  0  0  0  0  2  0  0  0  0  0  0
  1  6  1  6  0  0  0
  1  5  1  0  0  0  0
  1  2  1  0  0  0  0
  2  7  1  6  0  0  0
  2  3  1  0  0  0  0
  3  8  1  0  0  0  0
  3  9  1  0  0  0  0
  4  3  1  0  0  0  0
  5  4  1  0  0  0  0
 10  5  1  0  0  0  0
 11  5  1  0  0  0  0
 12  2  1  0  0  0  0
 14 13  2  6  0  0  0
 14 12  1  0  0  0  0
 14 17  1  0  0  0  0
 14 15  1  0  0  0  0
 16 15  1  0  0  0  0
 17 18  1  0  0  0  0
 18 19  1  0  0  0  0
 18 20  1  0  0  0  0
 21 26  1  0  0  0  0
 21 18  1  0  0  0  0
 22 21  2  0  0  0  0
 23 24  2  0  0  0  0
 23 22  1  0  0  0  0
 24 25  1  0  0  0  0
 25 29  1  0  0  0  0
 25 26  2  0  0  0  0
 27 22  1  0  0  0  0
 28 23  1  0  0  0  0
 30  1  1  0  0  0  0
 31 32  1  0  0  0  0
 32 33  1  0  0  0  0
 32 37  1  0  0  0  0
 33 34  1  0  0  0  0
 34 35  1  0  0  0  0
 35 30  1  0  0  0  0
 36 35  1  0  0  0  0
 37 36  1  0  0  0  0
M  END
>  <minimizedAffinity>
-4.88578129

>  <minimizedRMSD>
0.31450969

$$$$
