
     RDKit          3D

 46 48  0  0  0  0  0  0  0  0999 V2000
   36.0324   29.9461   46.9708 O   0  0  0  0  0  0  0  0  0  0  0  0
   36.0328   30.2293   48.4478 P   0  0  2  0  0  0  0  0  0  0  0  0
   36.7983   28.9200   49.2342 O   0  0  0  0  0  0  0  0  0  0  0  0
   34.4474   30.3617   49.0224 O   0  0  0  0  0  0  0  0  0  0  0  0
   34.1749   29.2357   49.7678 C   0  0  0  0  0  0  0  0  0  0  0  0
   33.3149   28.2561   49.0660 C   0  0  0  0  0  0  0  0  0  0  0  0
   33.9445   27.3694   48.2243 C   0  0  0  0  0  0  0  0  0  0  0  0
   33.1867   26.4205   47.5335 C   0  0  0  0  0  0  0  0  0  0  0  0
   31.8395   26.4341   47.7427 N   0  0  0  0  0  0  0  0  0  0  0  0
   31.2379   27.3160   48.5762 C   0  0  0  0  0  0  0  0  0  0  0  0
   31.9830   28.2325   49.2415 N   0  0  0  0  0  0  0  0  0  0  0  0
   36.8868   31.6461   48.7451 O   0  0  0  0  0  0  0  0  0  0  0  0
   38.8458   32.4739   47.8066 C   0  0  2  0  0  0  0  0  0  0  0  0
   38.2528   31.4584   48.7631 C   0  0  1  0  0  0  0  0  0  0  0  0
   38.8279   32.0192   50.0670 C   0  0  0  0  0  0  0  0  0  0  0  0
   38.4938   33.3462   49.9606 O   0  0  0  0  0  0  0  0  0  0  0  0
   38.6643   33.7420   48.6529 C   0  0  0  0  0  0  0  0  0  0  0  0
   38.0811   32.5017   46.6726 O   0  0  0  0  0  0  0  0  0  0  0  0
   37.4184   28.4337   48.6365 H   0  0  0  0  0  0  0  0  0  0  0  0
   35.0850   28.6872   50.0916 H   0  0  0  0  0  0  0  0  0  0  0  0
   33.6643   29.5469   50.7144 H   0  0  0  0  0  0  0  0  0  0  0  0
   34.9874   27.2842   47.9991 H   0  0  0  0  0  0  0  0  0  0  0  0
   33.5893   25.6835   46.8517 H   0  0  0  0  0  0  0  0  0  0  0  0
   30.1568   27.2875   48.7104 H   0  0  0  0  0  0  0  0  0  0  0  0
   39.9167   32.3729   47.6525 H   0  0  0  0  0  0  0  0  0  0  0  0
   38.5893   30.4245   48.5839 H   0  0  0  0  0  0  0  0  0  0  0  0
   39.9070   31.8551   50.0997 H   0  0  0  0  0  0  0  0  0  0  0  0
   38.2928   31.6045   50.9574 H   0  0  0  0  0  0  0  0  0  0  0  0
   37.8180   34.3468   48.2537 H   0  0  0  0  0  0  0  0  0  0  0  0
   39.5468   34.3931   48.6065 H   0  0  0  0  0  0  0  0  0  0  0  0
   40.3570   32.3934   42.2448 H   0  0  0  0  0  0  0  0  0  0  0  0
   39.7805   32.4993   43.1166 N   0  0  0  0  0  0  0  0  0  0  0  0
   40.6174   33.0461   44.1346 C   0  0  0  0  0  0  0  0  0  0  0  0
   40.1857   32.7072   45.5448 C   0  0  0  0  0  0  0  0  0  0  0  0
   38.7035   32.4037   45.4884 C   0  0  0  0  0  0  0  0  0  0  0  0
   38.5582   31.1173   44.7393 C   0  0  0  0  0  0  0  0  0  0  0  0
   39.2298   31.1972   43.4027 C   0  0  0  0  0  0  0  0  0  0  0  0
   40.5103   34.1675   44.0434 H   0  0  0  0  0  0  0  0  0  0  0  0
   41.7003   32.8676   43.9771 H   0  0  0  0  0  0  0  0  0  0  0  0
   40.7344   31.7783   45.8463 H   0  0  0  0  0  0  0  0  0  0  0  0
   40.4107   33.5493   46.2215 H   0  0  0  0  0  0  0  0  0  0  0  0
   38.2533   33.1855   44.8145 H   0  0  0  0  0  0  0  0  0  0  0  0
   38.9873   30.2434   45.2609 H   0  0  0  0  0  0  0  0  0  0  0  0
   37.4849   30.8825   44.5894 H   0  0  0  0  0  0  0  0  0  0  0  0
   38.5094   30.9846   42.5922 H   0  0  0  0  0  0  0  0  0  0  0  0
   40.0315   30.4149   43.2761 H   0  0  0  0  0  0  0  0  0  0  0  0
  2  1  2  0
  2 12  1  6
  2  4  1  0
  2  3  1  0
  4  5  1  0
  6 11  1  0
  6  5  1  0
  7  6  2  0
  8  9  2  0
  8  7  1  0
  9 10  1  0
 10 11  2  0
 13 18  1  0
 13 17  1  0
 13 14  1  0
 14 12  1  0
 14 15  1  0
 16 15  1  0
 17 16  1  0
  3 19  1  0
  5 20  1  0
  5 21  1  0
  7 22  1  0
  8 23  1  0
 10 24  1  0
 13 25  1  6
 14 26  1  6
 15 27  1  0
 15 28  1  0
 17 29  1  0
 17 30  1  0
 31 32  1  0
 32 33  1  0
 33 34  1  0
 34 35  1  0
 35 36  1  0
 36 37  1  0
 37 32  1  0
 33 38  1  0
 33 39  1  0
 34 40  1  0
 34 41  1  0
 35 42  1  0
 36 43  1  0
 36 44  1  0
 37 45  1  0
 37 46  1  0
 18 35  1  0
M  ISO  8  19   3  20   8  21   8  22  14  23  14  24  14  25  13  26  13
M  ISO  5  27  13  28  13  29  13  30  13  31   5
M  END
>  <DihAtoms>  (1) 
12,17,34,33

>  <DihDeg>  (1) 
116.79931859044645

$$$$
