
 OpenBabel03272506253D

 30 32  0  0  0  0  0  0  0  0999 V2000
   33.6920   30.0240   46.2450 C   0  0  0  0  0  0  0  0  0  0  0  0
   32.3510   30.2360   46.0660 C   0  0  0  0  0  0  0  0  0  0  0  0
   31.7630   30.6870   44.8890 C   0  0  0  0  0  0  0  0  0  0  0  0
   32.6090   30.9470   43.7910 C   0  0  0  0  0  0  0  0  0  0  0  0
   33.9610   30.7330   43.9710 C   0  0  0  0  0  0  0  0  0  0  0  0
   34.5200   30.2860   45.1490 C   0  0  0  0  0  0  0  0  0  0  0  0
   31.6190   30.0590   46.8680 H   0  0  0  0  0  0  0  0  0  0  0  0
   30.6970   30.8410   44.7920 H   0  0  0  0  0  0  0  0  0  0  0  0
   32.2300   31.2990   42.8460 H   0  0  0  0  0  0  0  0  0  0  0  0
   34.6230   30.9290   43.1370 H   0  0  0  0  0  0  0  0  0  0  0  0
   34.5930   30.5260   48.4530 C   0  0  0  0  0  0  0  0  0  0  0  0
   34.1260   29.5520   47.5370 C   0  0  0  0  0  0  0  0  0  0  0  0
   34.1230   28.2200   47.9530 C   0  0  0  0  0  0  0  0  0  0  0  0
   34.5610   27.9170   49.1980 N   0  0  0  0  0  0  0  0  0  0  0  0
   35.0070   28.8740   50.0630 C   0  0  0  0  0  0  0  0  0  0  0  0
   35.0160   30.1810   49.6700 N   0  0  0  0  0  0  0  0  0  0  0  0
   34.6080   31.5680   48.1550 H   0  0  0  0  0  0  0  0  0  0  0  0
   35.3190   28.4660   51.0150 H   0  0  0  0  0  0  0  0  0  0  0  0
   33.6540   27.0970   47.0820 C   0  0  0  0  0  0  0  0  0  0  0  0
   34.0400   25.8720   47.6830 F   0  0  0  0  0  0  0  0  0  0  0  0
   32.3390   27.0400   46.8180 F   0  0  0  0  0  0  0  0  0  0  0  0
   34.3690   27.0960   45.8930 F   0  0  0  0  0  0  0  0  0  0  0  0
   36.2490   30.0080   45.3820 S   0  0  0  0  0  0  0  0  0  0  0  0
   40.1210   33.3100   47.4260 H   0  0  0  0  0  0  0  0  0  0  0  0
   39.1930   32.9550   47.0760 N   0  0  0  0  0  0  0  0  0  0  0  0
   39.3480   32.4890   45.7260 C   0  0  0  0  0  2  0  0  0  0  0  0
   37.9930   32.1520   45.1340 C   0  0  0  0  0  2  0  0  0  0  0  0
   37.1290   31.3930   46.1170 C   0  0  0  0  0  3  0  0  0  0  0  0
   38.0480   30.7840   47.1760 C   0  0  0  0  0  2  0  0  0  0  0  0
   38.8670   31.8090   47.8900 C   0  0  0  0  0  2  0  0  0  0  0  0
  1 12  1  0  0  0  0
  2  1  1  0  0  0  0
  2  7  1  0  0  0  0
  3  2  2  0  0  0  0
  4  5  2  0  0  0  0
  4  3  1  0  0  0  0
  5  6  1  0  0  0  0
  6 23  1  0  0  0  0
  6  1  2  0  0  0  0
  8  3  1  0  0  0  0
  9  4  1  0  0  0  0
 10  5  1  0  0  0  0
 11 16  1  0  0  0  0
 12 13  1  0  0  0  0
 12 11  2  0  0  0  0
 13 14  2  0  0  0  0
 14 15  1  0  0  0  0
 15 18  1  0  0  0  0
 16 15  2  0  0  0  0
 17 11  1  0  0  0  0
 19 20  1  0  0  0  0
 19 13  1  0  0  0  0
 21 19  1  0  0  0  0
 22 19  1  0  0  0  0
 23 28  1  0  0  0  0
 25 24  1  0  0  0  0
 25 30  1  0  0  0  0
 26 25  1  0  0  0  0
 27 26  1  0  0  0  0
 27 28  1  0  0  0  0
 28 29  1  0  0  0  0
 29 30  1  0  0  0  0
M  END
>  <minimizedAffinity>
-4.60041475

>  <minimizedRMSD>
5.0356555

$$$$
