
 OpenBabel03272504223D

 37 39  0  0  1  0  0  0  0  0999 V2000
   38.8370   32.3920   47.8280 C   0  0  2  0  0  0  0  0  0  0  0  0
   38.1950   31.3760   48.7520 C   0  0  1  0  0  0  0  0  0  0  0  0
   38.7350   31.9140   50.0810 C   0  0  0  0  0  0  0  0  0  0  0  0
   38.4260   33.2470   49.9780 O   0  0  0  0  0  0  0  0  0  0  0  0
   38.6470   33.6540   48.6810 C   0  0  0  0  0  0  0  0  0  0  0  0
   39.9100   32.2750   47.7090 H   0  0  0  0  0  0  0  0  0  0  0  0
   38.5200   30.3390   48.5730 H   0  0  0  0  0  0  0  0  0  0  0  0
   39.8100   31.7320   50.1480 H   0  0  0  0  0  0  0  0  0  0  0  0
   38.1640   31.4990   50.9480 H   0  0  0  0  0  0  0  0  0  0  0  0
   37.8250   34.2770   48.2610 H   0  0  0  0  0  0  0  0  0  0  0  0
   39.5410   34.2910   48.6710 H   0  0  0  0  0  0  0  0  0  0  0  0
   36.8340   31.5870   48.6900 O   0  0  0  0  0  0  0  0  0  0  0  0
   35.9020   29.8590   46.9830 O   0  0  0  0  0  0  0  0  0  0  0  0
   35.9600   30.1710   48.4530 P   0  0  1  0  0  0  0  0  0  0  0  0
   36.7460   28.8710   49.2350 O   0  0  0  0  0  0  0  0  0  0  0  0
   37.3400   28.3700   48.6240 H   0  0  0  0  0  0  0  0  0  0  0  0
   34.3980   30.3260   49.0840 O   0  0  0  0  0  0  0  0  0  0  0  0
   34.1240   29.1870   49.8100 C   0  0  0  0  0  0  0  0  0  0  0  0
   35.0320   28.6310   50.1250 H   0  0  0  0  0  0  0  0  0  0  0  0
   33.6130   29.4830   50.7610 H   0  0  0  0  0  0  0  0  0  0  0  0
   33.2620   28.2210   49.0900 C   0  0  0  0  0  0  0  0  0  0  0  0
   33.8930   27.3300   48.2540 C   0  0  0  0  0  0  0  0  0  0  0  0
   33.1340   26.3950   47.5480 C   0  0  0  0  0  0  0  0  0  0  0  0
   31.7850   26.4240   47.7370 N   0  0  0  0  0  0  0  0  0  0  0  0
   31.1810   27.3100   48.5650 C   0  0  0  0  0  0  0  0  0  0  0  0
   31.9270   28.2150   49.2460 N   0  0  0  0  0  0  0  0  0  0  0  0
   34.9380   27.2330   48.0450 H   0  0  0  0  0  0  0  0  0  0  0  0
   33.5370   25.6550   46.8690 H   0  0  0  0  0  0  0  0  0  0  0  0
   30.0980   27.2950   48.6820 H   0  0  0  0  0  0  0  0  0  0  0  0
   38.1110   32.4450   46.6690 O   0  0  0  0  0  0  0  0  0  0  0  0
   39.9270   30.3630   42.5260 H   0  0  0  0  0  0  0  0  0  0  0  0
   39.5110   30.6700   43.4400 N   0  0  0  0  0  0  0  0  0  0  0  0
   38.4590   31.5910   43.1590 C   0  0  0  0  0  2  0  0  0  0  0  0
   38.1720   32.5690   44.2760 C   0  0  0  0  0  2  0  0  0  0  0  0
   38.6550   31.9260   45.5580 C   0  0  0  0  0  3  0  0  0  0  0  0
   40.1490   31.8840   45.4790 C   0  0  0  0  0  2  0  0  0  0  0  0
   40.6000   31.1970   44.2270 C   0  0  0  0  0  2  0  0  0  0  0  0
  1  6  1  6  0  0  0
  1  5  1  0  0  0  0
  1  2  1  0  0  0  0
  2  7  1  6  0  0  0
  2  3  1  0  0  0  0
  3  8  1  0  0  0  0
  3  9  1  0  0  0  0
  4  3  1  0  0  0  0
  5  4  1  0  0  0  0
 10  5  1  0  0  0  0
 11  5  1  0  0  0  0
 12  2  1  0  0  0  0
 14 13  2  6  0  0  0
 14 12  1  0  0  0  0
 14 17  1  0  0  0  0
 14 15  1  0  0  0  0
 16 15  1  0  0  0  0
 17 18  1  0  0  0  0
 18 19  1  0  0  0  0
 18 20  1  0  0  0  0
 21 26  1  0  0  0  0
 21 18  1  0  0  0  0
 22 21  2  0  0  0  0
 23 24  2  0  0  0  0
 23 22  1  0  0  0  0
 24 25  1  0  0  0  0
 25 29  1  0  0  0  0
 25 26  2  0  0  0  0
 27 22  1  0  0  0  0
 28 23  1  0  0  0  0
 30  1  1  0  0  0  0
 31 32  1  0  0  0  0
 32 37  1  0  0  0  0
 33 32  1  0  0  0  0
 33 34  1  0  0  0  0
 34 35  1  0  0  0  0
 35 30  1  0  0  0  0
 36 35  1  0  0  0  0
 37 36  1  0  0  0  0
M  END
>  <minimizedAffinity>
-4.77678633

>  <minimizedRMSD>
0.499311447

$$$$
