REMARK  Name = 
REMARK  3 active torsions:
REMARK  status: ('A' for Active; 'I' for Inactive)
REMARK    1  A    between atoms: C_3  and  C_12
REMARK    2  A    between atoms: C_7  and  S_14
REMARK    3  A    between atoms: S_14  and  C_25
REMARK                            x       y       z     vdW  Elec       q    Type
REMARK                         _______ _______ _______ _____ _____    ______ ____
ROOT
ATOM      1 CL   UNL     1      36.369  30.477  46.387  0.00  0.00    +0.000 Cl
ATOM      2  C   UNL     1      36.798  30.538  48.073  0.00  0.00    +0.000 A 
ATOM      3  C   UNL     1      38.024  31.083  48.383  0.00  0.00    +0.000 A 
ATOM      4  C   UNL     1      38.390  31.144  49.733  0.00  0.00    +0.000 A 
ATOM      5  C   UNL     1      37.532  30.667  50.691  0.00  0.00    +0.000 A 
ATOM      6  C   UNL     1      36.314  30.131  50.302  0.00  0.00    +0.000 A 
ATOM      7  C   UNL     1      35.892  30.041  49.002  0.00  0.00    +0.000 A 
ATOM      8  H   UNL     1      39.355  31.574  49.963  0.00  0.00    +0.000 HD
ATOM      9  H   UNL     1      37.786  30.700  51.728  0.00  0.00    +0.000 HD
ATOM     10  H   UNL     1      35.643  29.756  51.073  0.00  0.00    +0.000 HD
ENDROOT
BRANCH   3  15
ATOM     11  C   UNL     1      39.998  33.424  46.405  0.00  0.00    +0.000 A 
ATOM     12  C   UNL     1      40.571  32.622  45.384  0.00  0.00    +0.000 A 
ATOM     13  C   UNL     1      40.248  31.253  45.409  0.00  0.00    +0.000 A 
ATOM     14  N   UNL     1      39.424  30.792  46.391  0.00  0.00    +0.000 NA
ATOM     15  C   UNL     1      38.914  31.586  47.324  0.00  0.00    +0.000 A 
ATOM     16  N   UNL     1      39.200  32.901  47.332  0.00  0.00    +0.000 NA
ATOM     17  H   UNL     1      40.262  34.467  46.362  0.00  0.00    +0.000 HD
ATOM     18  H   UNL     1      41.218  32.972  44.607  0.00  0.00    +0.000 HD
ATOM     19  H   UNL     1      40.623  30.564  44.694  0.00  0.00    +0.000 HD
ENDBRANCH   3  15
BRANCH   7  20
ATOM     20  S   UNL     1      34.342  29.363  48.486  0.00  0.00    +0.000 S 
BRANCH  20  25
ATOM     21  H   UNL     1      33.629  24.168  47.598  0.00  0.00    +0.000 HD
ATOM     22  N   UNL     1      33.503  25.066  47.091  0.00  0.00    +0.000 NA
ATOM     23  C   UNL     1      34.728  25.715  46.697  0.00  0.00    +0.000 C 
ATOM     24  C   UNL     1      34.566  27.242  46.708  0.00  0.00    +0.000 C 
ATOM     25  C   UNL     1      34.379  27.605  48.151  0.00  0.00    +0.000 C 
ATOM     26  C   UNL     1      33.091  26.984  48.603  0.00  0.00    +0.000 C 
ATOM     27  C   UNL     1      32.530  25.961  47.652  0.00  0.00    +0.000 C 
ENDBRANCH  20  25
ENDBRANCH   7  20
TORSDOF 3
