
 OpenBabel03272505093D

 27 29  0  0  0  0  0  0  0  0999 V2000
   36.4110   30.6850   45.9070 Cl  0  0  0  0  0  0  0  0  0  0  0  0
   36.7230   30.7140   47.6200 C   0  0  0  0  0  0  0  0  0  0  0  0
   37.9670   31.1490   48.0180 C   0  0  0  0  0  0  0  0  0  0  0  0
   38.2400   31.1830   49.3900 C   0  0  0  0  0  0  0  0  0  0  0  0
   37.2770   30.7880   50.2840 C   0  0  0  0  0  0  0  0  0  0  0  0
   36.0470   30.3610   49.8070 C   0  0  0  0  0  0  0  0  0  0  0  0
   35.7120   30.3040   48.4800 C   0  0  0  0  0  0  0  0  0  0  0  0
   39.2210   31.5260   49.6900 H   0  0  0  0  0  0  0  0  0  0  0  0
   37.4580   30.8020   51.3360 H   0  0  0  0  0  0  0  0  0  0  0  0
   35.2920   30.0500   50.5280 H   0  0  0  0  0  0  0  0  0  0  0  0
   40.1780   33.3240   46.1010 C   0  0  0  0  0  0  0  0  0  0  0  0
   40.8400   32.4460   45.2040 C   0  0  0  0  0  0  0  0  0  0  0  0
   40.4930   31.0850   45.2900 C   0  0  0  0  0  0  0  0  0  0  0  0
   39.5620   30.7030   46.2100 N   0  0  0  0  0  0  0  0  0  0  0  0
   38.9720   31.5670   47.0260 C   0  0  0  0  0  0  0  0  0  0  0  0
   39.2780   32.8760   46.9730 N   0  0  0  0  0  0  0  0  0  0  0  0
   40.4630   34.3590   46.0130 H   0  0  0  0  0  0  0  0  0  0  0  0
   41.5710   32.7330   44.4770 H   0  0  0  0  0  0  0  0  0  0  0  0
   40.9280   30.3440   44.6690 H   0  0  0  0  0  0  0  0  0  0  0  0
   34.1490   29.7650   47.8540 S   0  0  0  0  0  0  0  0  0  0  0  0
   32.4750   24.7560   48.4810 H   0  0  0  0  0  0  0  0  0  0  0  0
   32.4550   25.4940   47.7500 N   0  0  0  0  0  0  0  0  0  0  0  0
   33.7280   25.7700   47.1330 C   0  0  0  0  0  2  0  0  0  0  0  0
   33.8310   27.2470   46.7270 C   0  0  0  0  0  2  0  0  0  0  0  0
   33.8520   28.0070   48.0200 C   0  0  0  0  0  3  0  0  0  0  0  0
   32.5270   27.7860   48.6870 C   0  0  0  0  0  2  0  0  0  0  0  0
   31.7090   26.6740   48.0870 C   0  0  0  0  0  2  0  0  0  0  0  0
  1  2  1  0  0  0  0
  2  3  2  0  0  0  0
  2  7  1  0  0  0  0
  3  4  1  0  0  0  0
  4  8  1  0  0  0  0
  4  5  2  0  0  0  0
  5  9  1  0  0  0  0
  6  5  1  0  0  0  0
  6 10  1  0  0  0  0
  7  6  2  0  0  0  0
 11 16  1  0  0  0  0
 12 13  1  0  0  0  0
 12 11  2  0  0  0  0
 13 14  2  0  0  0  0
 14 15  1  0  0  0  0
 15  3  1  0  0  0  0
 16 15  2  0  0  0  0
 17 11  1  0  0  0  0
 18 12  1  0  0  0  0
 19 13  1  0  0  0  0
 20 25  1  0  0  0  0
 20  7  1  0  0  0  0
 22 27  1  0  0  0  0
 22 21  1  0  0  0  0
 23 22  1  0  0  0  0
 24 23  1  0  0  0  0
 24 25  1  0  0  0  0
 25 26  1  0  0  0  0
 27 26  1  0  0  0  0
M  END
>  <minimizedAffinity>
-5.88444996

>  <minimizedRMSD>
1.28843737

$$$$
