
     RDKit          3D

 36 38  0  0  0  0  0  0  0  0999 V2000
   36.3687   30.4770   46.3873 Cl  0  0  0  0  0  0  0  0  0  0  0  0
   36.7985   30.5380   48.0732 C   0  0  0  0  0  0  0  0  0  0  0  0
   38.0238   31.0831   48.3827 C   0  0  0  0  0  0  0  0  0  0  0  0
   38.3904   31.1436   49.7333 C   0  0  0  0  0  0  0  0  0  0  0  0
   37.5324   30.6666   50.6911 C   0  0  0  0  0  0  0  0  0  0  0  0
   36.3141   30.1315   50.3022 C   0  0  0  0  0  0  0  0  0  0  0  0
   35.8917   30.0407   49.0020 C   0  0  0  0  0  0  0  0  0  0  0  0
   39.9981   33.4244   46.4052 C   0  0  0  0  0  0  0  0  0  0  0  0
   40.5706   32.6222   45.3838 C   0  0  0  0  0  0  0  0  0  0  0  0
   40.2476   31.2525   45.4090 C   0  0  0  0  0  0  0  0  0  0  0  0
   39.4240   30.7917   46.3905 N   0  0  0  0  0  0  0  0  0  0  0  0
   38.9145   31.5858   47.3237 C   0  0  0  0  0  0  0  0  0  0  0  0
   39.2005   32.9008   47.3319 N   0  0  0  0  0  0  0  0  0  0  0  0
   34.3419   29.3631   48.4861 S   0  0  0  0  0  0  0  0  0  0  0  0
   39.3545   31.5743   49.9629 H   0  0  0  0  0  0  0  0  0  0  0  0
   37.7856   30.7000   51.7278 H   0  0  0  0  0  0  0  0  0  0  0  0
   35.6432   29.7561   51.0730 H   0  0  0  0  0  0  0  0  0  0  0  0
   40.2619   34.4672   46.3624 H   0  0  0  0  0  0  0  0  0  0  0  0
   41.2184   32.9719   44.6069 H   0  0  0  0  0  0  0  0  0  0  0  0
   40.6233   30.5638   44.6936 H   0  0  0  0  0  0  0  0  0  0  0  0
   33.9404   24.0714   48.1422 H   0  0  0  0  0  0  0  0  0  0  0  0
   33.3755   24.9091   47.9010 N   0  0  0  0  0  0  0  0  0  0  0  0
   33.8793   25.6794   46.7916 C   0  0  0  0  0  0  0  0  0  0  0  0
   33.5606   27.1706   46.9715 C   0  0  0  0  0  0  0  0  0  0  0  0
   34.3792   27.6045   48.1512 C   0  0  0  0  0  0  0  0  0  0  0  0
   33.8670   26.8585   49.3469 C   0  0  0  0  0  0  0  0  0  0  0  0
   32.9521   25.7104   49.0154 C   0  0  0  0  0  0  0  0  0  0  0  0
   34.9914   25.6031   46.7830 H   0  0  0  0  0  0  0  0  0  0  0  0
   33.5070   25.2852   45.8400 H   0  0  0  0  0  0  0  0  0  0  0  0
   32.4840   27.2401   47.2229 H   0  0  0  0  0  0  0  0  0  0  0  0
   33.8360   27.6896   46.0558 H   0  0  0  0  0  0  0  0  0  0  0  0
   35.4387   27.2601   47.9652 H   0  0  0  0  0  0  0  0  0  0  0  0
   34.7234   26.5052   49.9629 H   0  0  0  0  0  0  0  0  0  0  0  0
   33.2735   27.5596   49.9730 H   0  0  0  0  0  0  0  0  0  0  0  0
   31.9143   26.0209   48.8327 H   0  0  0  0  0  0  0  0  0  0  0  0
   32.9315   25.0444   49.9114 H   0  0  0  0  0  0  0  0  0  0  0  0
  1  2  1  0
  2  3  2  0
  2  7  1  0
  3  4  1  0
  4  5  2  0
  6  5  1  0
  7  6  2  0
  8 13  2  0
  9 10  2  0
  9  8  1  0
 10 11  1  0
 11 12  2  0
 12  3  1  0
 13 12  1  0
 14  7  1  0
  4 15  1  0
  5 16  1  0
  6 17  1  0
  8 18  1  0
  9 19  1  0
 10 20  1  0
 21 22  1  0
 22 23  1  0
 23 24  1  0
 24 25  1  0
 25 26  1  0
 26 27  1  0
 27 22  1  0
 23 28  1  0
 23 29  1  0
 24 30  1  0
 24 31  1  0
 25 32  1  0
 26 33  1  0
 26 34  1  0
 27 35  1  0
 27 36  1  0
 14 25  1  0
M  ISO  7  15  14  16  14  17  14  18  14  19  14  20  14  21   5
M  END
>  <DihAtoms>  (1) 
6,13,24,23

>  <DihDeg>  (1) 
-66.31398965363663

$$$$
