
     RDKit          3D

 39 41  0  0  0  0  0  0  0  0999 V2000
   38.0189   30.3186   50.1965 C   0  0  0  0  0  0  0  0  0  0  0  0
   37.3980   30.4948   48.9356 C   0  0  0  0  0  0  0  0  0  0  0  0
   36.0656   30.0967   48.8091 C   0  0  0  0  0  0  0  0  0  0  0  0
   35.4313   29.5667   49.8799 N   0  0  0  0  0  0  0  0  0  0  0  0
   36.0515   29.4068   51.0864 C   0  0  0  0  0  0  0  0  0  0  0  0
   37.3537   29.7912   51.2254 N   0  0  0  0  0  0  0  0  0  0  0  0
   38.2014   31.0719   47.8855 C   0  0  0  0  0  0  0  0  0  0  0  0
   38.5248   30.2696   46.8235 C   0  0  0  0  0  0  0  0  0  0  0  0
   39.2892   30.6631   45.7304 C   0  0  0  0  0  0  0  0  0  0  0  0
   39.7707   31.9877   45.7079 C   0  0  0  0  0  0  0  0  0  0  0  0
   39.4441   32.7962   46.7791 C   0  0  0  0  0  0  0  0  0  0  0  0
   38.6843   32.3826   47.8518 C   0  0  0  0  0  0  0  0  0  0  0  0
   38.2669   33.4141   49.2254 S   0  0  0  0  0  0  0  0  0  0  0  0
   35.2971   30.2301   47.5325 C   0  0  0  0  0  0  0  0  0  0  0  0
   34.0203   30.7686   47.8321 F   0  0  0  0  0  0  0  0  0  0  0  0
   35.8511   30.9775   46.5635 F   0  0  0  0  0  0  0  0  0  0  0  0
   34.9923   28.9718   47.0346 F   0  0  0  0  0  0  0  0  0  0  0  0
   39.0527   30.6172   50.3231 H   0  0  0  0  0  0  0  0  0  0  0  0
   35.4046   28.9713   51.8352 H   0  0  0  0  0  0  0  0  0  0  0  0
   38.1921   29.2229   46.7586 H   0  0  0  0  0  0  0  0  0  0  0  0
   39.5213   29.9947   44.9119 H   0  0  0  0  0  0  0  0  0  0  0  0
   40.3684   32.3675   44.8959 H   0  0  0  0  0  0  0  0  0  0  0  0
   39.8075   33.8159   46.7751 H   0  0  0  0  0  0  0  0  0  0  0  0
   33.9205   36.6607   50.0212 H   0  0  0  0  0  0  0  0  0  0  0  0
   34.6256   36.0314   49.5571 N   0  0  0  0  0  0  0  0  0  0  0  0
   35.9342   36.6086   49.6954 C   0  0  0  0  0  0  0  0  0  0  0  0
   36.9383   35.8242   48.8734 C   0  0  0  0  0  0  0  0  0  0  0  0
   36.7353   34.3317   49.0233 C   0  0  0  0  0  0  0  0  0  0  0  0
   35.9381   34.0942   50.3048 C   0  0  0  0  0  0  0  0  0  0  0  0
   34.6207   34.7990   50.3079 C   0  0  0  0  0  0  0  0  0  0  0  0
   36.2245   36.6324   50.7468 H   0  0  0  0  0  0  0  0  0  0  0  0
   35.9921   37.6487   49.3270 H   0  0  0  0  0  0  0  0  0  0  0  0
   36.7765   36.1230   47.8050 H   0  0  0  0  0  0  0  0  0  0  0  0
   37.9514   36.0753   49.2173 H   0  0  0  0  0  0  0  0  0  0  0  0
   36.1308   33.9751   48.1623 H   0  0  0  0  0  0  0  0  0  0  0  0
   35.8050   33.0095   50.4562 H   0  0  0  0  0  0  0  0  0  0  0  0
   36.5633   34.4732   51.1349 H   0  0  0  0  0  0  0  0  0  0  0  0
   33.8016   34.1465   49.9459 H   0  0  0  0  0  0  0  0  0  0  0  0
   34.3766   34.9938   51.3932 H   0  0  0  0  0  0  0  0  0  0  0  0
  1  6  2  0
  2  1  1  0
  3  2  2  0
  3  4  1  0
  4  5  2  0
  5  6  1  0
  7  2  1  0
  8  7  2  0
  9  8  1  0
 10  9  2  0
 10 11  1  0
 11 12  2  0
 12  7  1  0
 12 13  1  0
 14 15  1  0
 14  3  1  0
 16 14  1  0
 17 14  1  0
  1 18  1  0
  5 19  1  0
  8 20  1  0
  9 21  1  0
 10 22  1  0
 11 23  1  0
 24 25  1  0
 25 26  1  0
 26 27  1  0
 27 28  1  0
 28 29  1  0
 29 30  1  0
 30 25  1  0
 26 31  1  0
 26 32  1  0
 27 33  1  0
 27 34  1  0
 28 35  1  0
 29 36  1  0
 29 37  1  0
 30 38  1  0
 30 39  1  0
 13 28  1  0
M  ISO  7  18  14  19  14  20  14  21  14  22  14  23  14  24   5
M  END
>  <DihAtoms>  (1) 
11,12,27,26

>  <DihDeg>  (1) 
-66.18833256607464

$$$$
