
 OpenBabel03272503433D

 39 42  0  0  1  0  0  0  0  0999 V2000
   37.3100   27.1130   33.2720 C   0  0  0  0  0  0  0  0  0  0  0  0
   38.5570   27.1340   33.8360 C   0  0  0  0  0  0  0  0  0  0  0  0
   39.0360   25.8330   33.6600 C   0  0  0  0  0  0  0  0  0  0  0  0
   38.1210   25.1000   33.0290 N   0  0  0  0  0  0  0  0  0  0  0  0
   37.0610   25.8710   32.7860 N   0  0  0  0  0  0  0  0  0  0  0  0
   39.0080   28.0110   34.3010 H   0  0  0  0  0  0  0  0  0  0  0  0
   40.0190   25.5280   34.0080 H   0  0  0  0  0  0  0  0  0  0  0  0
   38.6160   22.8950   33.9470 C   0  0  2  0  0  0  0  0  0  0  0  0
   38.3180   23.7130   32.7030 C   0  0  1  0  0  0  0  0  0  0  0  0
   37.0310   23.0250   32.2940 C   0  0  0  0  0  0  0  0  0  0  0  0
   37.1500   21.6920   32.6040 O   0  0  0  0  0  0  0  0  0  0  0  0
   38.2300   21.5000   33.4080 C   0  0  0  0  0  0  0  0  0  0  0  0
   39.6570   22.8840   34.2540 H   0  0  0  0  0  0  0  0  0  0  0  0
   39.0630   23.5850   31.9200 H   0  0  0  0  0  0  0  0  0  0  0  0
   36.1630   23.4680   32.8300 H   0  0  0  0  0  0  0  0  0  0  0  0
   36.8280   23.1090   31.2040 H   0  0  0  0  0  0  0  0  0  0  0  0
   37.9150   20.9380   34.3230 H   0  0  0  0  0  0  0  0  0  0  0  0
   39.1030   21.0290   32.9290 H   0  0  0  0  0  0  0  0  0  0  0  0
   37.7030   23.2530   34.9200 O   0  0  0  0  0  0  0  0  0  0  0  0
   38.4210   21.9140   38.7400 H   0  0  0  0  0  0  0  0  0  0  0  0
   38.9010   22.8150   38.6710 N   0  0  0  0  0  0  0  0  0  0  0  0
   40.0200   22.8170   37.7570 C   0  0  0  0  0  2  0  0  0  0  0  0
   39.6160   22.7150   36.3050 C   0  0  0  0  0  2  0  0  0  0  0  0
   38.1710   23.1520   36.2080 C   0  0  0  0  0  3  0  0  0  0  0  0
   38.0130   24.4050   37.0240 C   0  0  0  0  0  2  0  0  0  0  0  0
   38.0330   23.9540   38.4870 C   0  0  0  0  0  2  0  0  0  0  0  0
   35.0570   29.9690   34.1770 C   0  0  0  0  0  0  0  0  0  0  0  0
   35.9210   28.8950   34.3090 C   0  0  0  0  0  0  0  0  0  0  0  0
   36.4090   28.2380   33.2080 C   0  0  0  0  0  0  0  0  0  0  0  0
   36.0000   28.6950   31.9890 N   0  0  0  0  0  0  0  0  0  0  0  0
   35.1470   29.7560   31.8810 C   0  0  0  0  0  0  0  0  0  0  0  0
   34.6800   30.3860   32.9400 N   0  0  0  0  0  0  0  0  0  0  0  0
   36.2800   28.4880   35.2580 H   0  0  0  0  0  0  0  0  0  0  0  0
   34.8670   30.0640   30.8830 H   0  0  0  0  0  0  0  0  0  0  0  0
   34.6700   30.5060   35.4050 O   0  0  0  0  0  0  0  0  0  0  0  0
   35.2700   31.6540   35.9720 C   0  0  0  0  0  0  0  0  0  0  0  0
   36.6490   31.5210   36.0450 F   0  0  0  0  0  0  0  0  0  0  0  0
   34.7420   31.8690   37.2110 F   0  0  0  0  0  0  0  0  0  0  0  0
   34.9540   32.7480   35.1820 F   0  0  0  0  0  0  0  0  0  0  0  0
  1  2  1  0  0  0  0
  2  6  1  0  0  0  0
  3  2  2  0  0  0  0
  3  7  1  0  0  0  0
  4  3  1  0  0  0  0
  5  4  1  0  0  0  0
  5  1  2  0  0  0  0
  8 13  1  1  0  0  0
  8 19  1  0  0  0  0
  9 14  1  6  0  0  0
  9  4  1  0  0  0  0
  9  8  1  0  0  0  0
 10 11  1  0  0  0  0
 10  9  1  0  0  0  0
 10 15  1  0  0  0  0
 11 12  1  0  0  0  0
 12  8  1  0  0  0  0
 12 17  1  0  0  0  0
 16 10  1  0  0  0  0
 18 12  1  0  0  0  0
 19 24  1  0  0  0  0
 21 20  1  0  0  0  0
 22 21  1  0  0  0  0
 23 22  1  0  0  0  0
 24 23  1  0  0  0  0
 24 25  1  0  0  0  0
 25 26  1  0  0  0  0
 26 21  1  0  0  0  0
 27 28  1  0  0  0  0
 27 35  1  0  0  0  0
 28 33  1  0  0  0  0
 29  1  1  0  0  0  0
 29 28  2  0  0  0  0
 30 29  1  0  0  0  0
 31 30  2  0  0  0  0
 31 32  1  0  0  0  0
 32 27  2  0  0  0  0
 34 31  1  0  0  0  0
 35 36  1  0  0  0  0
 36 37  1  0  0  0  0
 36 38  1  0  0  0  0
 39 36  1  0  0  0  0
M  END
>  <minimizedAffinity>
-6.34333229

$$$$

 OpenBabel03272503433D

 39 42  0  0  1  0  0  0  0  0999 V2000
   35.8150   29.0300   31.4990 C   0  0  0  0  0  0  0  0  0  0  0  0
   36.8970   29.1450   30.6690 C   0  0  0  0  0  0  0  0  0  0  0  0
   37.2320   27.8240   30.3580 C   0  0  0  0  0  0  0  0  0  0  0  0
   36.3920   26.9920   30.9710 N   0  0  0  0  0  0  0  0  0  0  0  0
   35.5210   27.7180   31.6720 N   0  0  0  0  0  0  0  0  0  0  0  0
   37.3430   30.0920   30.3640 H   0  0  0  0  0  0  0  0  0  0  0  0
   38.0660   27.5780   29.7060 H   0  0  0  0  0  0  0  0  0  0  0  0
   37.3150   24.9660   31.9670 C   0  0  2  0  0  0  0  0  0  0  0  0
   36.4790   25.5610   30.8480 C   0  0  1  0  0  0  0  0  0  0  0  0
   35.1680   24.8720   31.1670 C   0  0  0  0  0  0  0  0  0  0  0  0
   35.4570   23.6120   31.6300 O   0  0  0  0  0  0  0  0  0  0  0  0
   36.7840   23.5160   31.9090 C   0  0  0  0  0  0  0  0  0  0  0  0
   38.3860   24.9610   31.7920 H   0  0  0  0  0  0  0  0  0  0  0  0
   36.8160   25.2610   29.8580 H   0  0  0  0  0  0  0  0  0  0  0  0
   34.6020   25.4430   31.9340 H   0  0  0  0  0  0  0  0  0  0  0  0
   34.5100   24.7690   30.2760 H   0  0  0  0  0  0  0  0  0  0  0  0
   36.9160   23.1420   32.9560 H   0  0  0  0  0  0  0  0  0  0  0  0
   37.3800   22.9280   31.1950 H   0  0  0  0  0  0  0  0  0  0  0  0
   36.9010   25.5340   33.1570 O   0  0  0  0  0  0  0  0  0  0  0  0
   39.9800   25.9810   35.8440 H   0  0  0  0  0  0  0  0  0  0  0  0
   39.8050   26.9170   35.4690 N   0  0  0  0  0  0  0  0  0  0  0  0
   40.1310   27.0620   34.0690 C   0  0  0  0  0  2  0  0  0  0  0  0
   39.1910   26.3190   33.1490 C   0  0  0  0  0  2  0  0  0  0  0  0
   37.9110   26.0730   33.9150 C   0  0  0  0  0  3  0  0  0  0  0  0
   37.5420   27.3500   34.6180 C   0  0  0  0  0  2  0  0  0  0  0  0
   38.5120   27.4710   35.7970 C   0  0  0  0  0  2  0  0  0  0  0  0
   34.3260   31.4460   33.9480 C   0  0  0  0  0  0  0  0  0  0  0  0
   35.0260   30.3640   33.4440 C   0  0  0  0  0  0  0  0  0  0  0  0
   35.1050   30.1370   32.0930 C   0  0  0  0  0  0  0  0  0  0  0  0
   34.4620   31.0280   31.2830 N   0  0  0  0  0  0  0  0  0  0  0  0
   33.7770   32.0890   31.8010 C   0  0  0  0  0  0  0  0  0  0  0  0
   33.7030   32.3040   33.0990 N   0  0  0  0  0  0  0  0  0  0  0  0
   35.5580   29.6210   34.0450 H   0  0  0  0  0  0  0  0  0  0  0  0
   33.2930   32.7540   31.0990 H   0  0  0  0  0  0  0  0  0  0  0  0
   34.3590   31.5100   35.3420 O   0  0  0  0  0  0  0  0  0  0  0  0
   35.5060   31.8950   36.0720 C   0  0  0  0  0  0  0  0  0  0  0  0
   36.4420   30.8730   36.1210 F   0  0  0  0  0  0  0  0  0  0  0  0
   35.1320   32.2640   37.3310 F   0  0  0  0  0  0  0  0  0  0  0  0
   36.0660   33.0030   35.4560 F   0  0  0  0  0  0  0  0  0  0  0  0
  1  5  2  0  0  0  0
  1 29  1  0  0  0  0
  2  1  1  0  0  0  0
  3  2  2  0  0  0  0
  3  4  1  0  0  0  0
  4  5  1  0  0  0  0
  6  2  1  0  0  0  0
  7  3  1  0  0  0  0
  8 13  1  6  0  0  0
  8 19  1  0  0  0  0
  9 14  1  6  0  0  0
  9  4  1  0  0  0  0
  9 10  1  0  0  0  0
  9  8  1  0  0  0  0
 10 11  1  0  0  0  0
 10 15  1  0  0  0  0
 11 12  1  0  0  0  0
 12  8  1  0  0  0  0
 12 17  1  0  0  0  0
 16 10  1  0  0  0  0
 18 12  1  0  0  0  0
 19 24  1  0  0  0  0
 21 26  1  0  0  0  0
 21 20  1  0  0  0  0
 22 21  1  0  0  0  0
 23 24  1  0  0  0  0
 23 22  1  0  0  0  0
 24 25  1  0  0  0  0
 25 26  1  0  0  0  0
 27 35  1  0  0  0  0
 28 27  1  0  0  0  0
 28 33  1  0  0  0  0
 29 28  2  0  0  0  0
 30 31  2  0  0  0  0
 30 29  1  0  0  0  0
 31 32  1  0  0  0  0
 32 27  2  0  0  0  0
 34 31  1  0  0  0  0
 35 36  1  0  0  0  0
 36 37  1  0  0  0  0
 36 38  1  0  0  0  0
 39 36  1  0  0  0  0
M  END
>  <minimizedAffinity>
-5.75704241

$$$$

 OpenBabel03272503433D

 39 42  0  0  1  0  0  0  0  0999 V2000
   36.4280   28.0770   33.7980 C   0  0  0  0  0  0  0  0  0  0  0  0
   35.8570   28.4340   32.6070 C   0  0  0  0  0  0  0  0  0  0  0  0
   35.3830   29.7300   32.8280 C   0  0  0  0  0  0  0  0  0  0  0  0
   35.6640   30.1040   34.0750 N   0  0  0  0  0  0  0  0  0  0  0  0
   36.3040   29.1020   34.6780 N   0  0  0  0  0  0  0  0  0  0  0  0
   35.8180   27.7930   31.7260 H   0  0  0  0  0  0  0  0  0  0  0  0
   34.8690   30.2960   32.0560 H   0  0  0  0  0  0  0  0  0  0  0  0
   33.8630   31.4000   35.0870 C   0  0  2  0  0  0  0  0  0  0  0  0
   35.3030   31.3910   34.6060 C   0  0  1  0  0  0  0  0  0  0  0  0
   35.9760   31.6790   35.9330 C   0  0  0  0  0  0  0  0  0  0  0  0
   35.1660   32.5370   36.6370 O   0  0  0  0  0  0  0  0  0  0  0  0
   33.9440   32.6070   36.0470 C   0  0  0  0  0  0  0  0  0  0  0  0
   33.1220   31.6020   34.3200 H   0  0  0  0  0  0  0  0  0  0  0  0
   35.5240   32.1930   33.9050 H   0  0  0  0  0  0  0  0  0  0  0  0
   36.1290   30.7390   36.5070 H   0  0  0  0  0  0  0  0  0  0  0  0
   36.9700   32.1630   35.8140 H   0  0  0  0  0  0  0  0  0  0  0  0
   33.1520   32.3950   36.8090 H   0  0  0  0  0  0  0  0  0  0  0  0
   33.7320   33.5370   35.4970 H   0  0  0  0  0  0  0  0  0  0  0  0
   33.6570   30.2590   35.8380 O   0  0  0  0  0  0  0  0  0  0  0  0
   31.0470   27.1630   35.1310 H   0  0  0  0  0  0  0  0  0  0  0  0
   30.5540   28.0100   34.8360 N   0  0  0  0  0  0  0  0  0  0  0  0
   30.2270   28.9070   35.9190 C   0  0  0  0  0  2  0  0  0  0  0  0
   31.4290   29.5970   36.5180 C   0  0  0  0  0  2  0  0  0  0  0  0
   32.5400   29.5400   35.4920 C   0  0  0  0  0  3  0  0  0  0  0  0
   31.9530   29.9110   34.1590 C   0  0  0  0  0  2  0  0  0  0  0  0
   31.1410   28.6930   33.7070 C   0  0  0  0  0  2  0  0  0  0  0  0
   38.1900   25.2240   35.4740 C   0  0  0  0  0  0  0  0  0  0  0  0
   37.5950   26.4580   35.2820 C   0  0  0  0  0  0  0  0  0  0  0  0
   37.0610   26.8090   34.0680 C   0  0  0  0  0  0  0  0  0  0  0  0
   37.1490   25.8830   33.0690 N   0  0  0  0  0  0  0  0  0  0  0  0
   37.7400   24.6700   33.2800 C   0  0  0  0  0  0  0  0  0  0  0  0
   38.2510   24.3360   34.4460 N   0  0  0  0  0  0  0  0  0  0  0  0
   37.4970   27.2360   36.0450 H   0  0  0  0  0  0  0  0  0  0  0  0
   37.7720   23.9860   32.4420 H   0  0  0  0  0  0  0  0  0  0  0  0
   38.6720   25.0500   36.7720 O   0  0  0  0  0  0  0  0  0  0  0  0
   38.1060   24.1400   37.6930 C   0  0  0  0  0  0  0  0  0  0  0  0
   38.9830   23.1080   37.9890 F   0  0  0  0  0  0  0  0  0  0  0  0
   36.9410   23.6490   37.1790 F   0  0  0  0  0  0  0  0  0  0  0  0
   37.7970   24.8290   38.8550 F   0  0  0  0  0  0  0  0  0  0  0  0
  1 29  1  0  0  0  0
  1  5  2  0  0  0  0
  2  3  2  0  0  0  0
  2  1  1  0  0  0  0
  3  4  1  0  0  0  0
  4  9  1  0  0  0  0
  4  5  1  0  0  0  0
  6  2  1  0  0  0  0
  7  3  1  0  0  0  0
  8 13  1  6  0  0  0
  8 19  1  0  0  0  0
  8 12  1  0  0  0  0
  9 14  1  6  0  0  0
  9  8  1  0  0  0  0
  9 10  1  0  0  0  0
 10 15  1  0  0  0  0
 10 11  1  0  0  0  0
 12 11  1  0  0  0  0
 12 17  1  0  0  0  0
 16 10  1  0  0  0  0
 18 12  1  0  0  0  0
 21 20  1  0  0  0  0
 21 22  1  0  0  0  0
 22 23  1  0  0  0  0
 24 19  1  0  0  0  0
 24 23  1  0  0  0  0
 25 24  1  0  0  0  0
 26 25  1  0  0  0  0
 26 21  1  0  0  0  0
 27 35  1  0  0  0  0
 28 27  1  0  0  0  0
 28 33  1  0  0  0  0
 29 28  2  0  0  0  0
 30 31  2  0  0  0  0
 30 29  1  0  0  0  0
 31 32  1  0  0  0  0
 32 27  2  0  0  0  0
 34 31  1  0  0  0  0
 35 36  1  0  0  0  0
 36 37  1  0  0  0  0
 36 39  1  0  0  0  0
 38 36  1  0  0  0  0
M  END
>  <minimizedAffinity>
-5.73997355

$$$$

 OpenBabel03272503433D

 39 42  0  0  1  0  0  0  0  0999 V2000
   36.5760   27.8510   33.0470 C   0  0  0  0  0  0  0  0  0  0  0  0
   36.5330   26.8780   32.0850 C   0  0  0  0  0  0  0  0  0  0  0  0
   37.7920   26.2760   32.1500 C   0  0  0  0  0  0  0  0  0  0  0  0
   38.5230   26.8650   33.0960 N   0  0  0  0  0  0  0  0  0  0  0  0
   37.7900   27.8300   33.6510 N   0  0  0  0  0  0  0  0  0  0  0  0
   35.6710   26.6780   31.4490 H   0  0  0  0  0  0  0  0  0  0  0  0
   38.0730   25.4530   31.4990 H   0  0  0  0  0  0  0  0  0  0  0  0
   39.9780   25.9490   34.8260 C   0  0  2  0  0  0  0  0  0  0  0  0
   39.8710   26.4680   33.4030 C   0  0  1  0  0  0  0  0  0  0  0  0
   40.2810   25.2010   32.6790 C   0  0  0  0  0  0  0  0  0  0  0  0
   41.2360   24.5730   33.4400 O   0  0  0  0  0  0  0  0  0  0  0  0
   41.2800   25.1310   34.6790 C   0  0  0  0  0  0  0  0  0  0  0  0
   40.1190   26.7110   35.5850 H   0  0  0  0  0  0  0  0  0  0  0  0
   40.5840   27.2590   33.1820 H   0  0  0  0  0  0  0  0  0  0  0  0
   39.4050   24.5320   32.5330 H   0  0  0  0  0  0  0  0  0  0  0  0
   40.7170   25.4030   31.6760 H   0  0  0  0  0  0  0  0  0  0  0  0
   41.1770   24.3270   35.4510 H   0  0  0  0  0  0  0  0  0  0  0  0
   42.1500   25.7730   34.8820 H   0  0  0  0  0  0  0  0  0  0  0  0
   38.9330   25.0710   35.0390 O   0  0  0  0  0  0  0  0  0  0  0  0
   40.3720   23.3520   38.4850 H   0  0  0  0  0  0  0  0  0  0  0  0
   39.5950   22.7560   38.1840 N   0  0  0  0  0  0  0  0  0  0  0  0
   38.3010   23.3930   38.2610 C   0  0  0  0  0  2  0  0  0  0  0  0
   38.1000   24.4830   37.2350 C   0  0  0  0  0  2  0  0  0  0  0  0
   39.0950   24.2410   36.1210 C   0  0  0  0  0  3  0  0  0  0  0  0
   39.0650   22.7760   35.7870 C   0  0  0  0  0  2  0  0  0  0  0  0
   39.8040   22.0730   36.9290 C   0  0  0  0  0  2  0  0  0  0  0  0
   34.3530   30.3370   34.7580 C   0  0  0  0  0  0  0  0  0  0  0  0
   35.4190   29.4890   34.5180 C   0  0  0  0  0  0  0  0  0  0  0  0
   35.4960   28.7540   33.3610 C   0  0  0  0  0  0  0  0  0  0  0  0
   34.4730   28.9060   32.4700 N   0  0  0  0  0  0  0  0  0  0  0  0
   33.4300   29.7490   32.7270 C   0  0  0  0  0  0  0  0  0  0  0  0
   33.3590   30.4520   33.8380 N   0  0  0  0  0  0  0  0  0  0  0  0
   36.2630   29.3300   35.1950 H   0  0  0  0  0  0  0  0  0  0  0  0
   32.6560   29.8180   31.9750 H   0  0  0  0  0  0  0  0  0  0  0  0
   34.4510   30.9970   35.9840 O   0  0  0  0  0  0  0  0  0  0  0  0
   35.2500   32.1460   36.1830 C   0  0  0  0  0  0  0  0  0  0  0  0
   34.9750   32.7490   37.4020 F   0  0  0  0  0  0  0  0  0  0  0  0
   35.0410   33.0200   35.1570 F   0  0  0  0  0  0  0  0  0  0  0  0
   36.5820   31.7640   36.1490 F   0  0  0  0  0  0  0  0  0  0  0  0
  1 29  1  0  0  0  0
  1  5  2  0  0  0  0
  2  3  2  0  0  0  0
  2  1  1  0  0  0  0
  3  4  1  0  0  0  0
  4  9  1  0  0  0  0
  4  5  1  0  0  0  0
  6  2  1  0  0  0  0
  7  3  1  0  0  0  0
  8 19  1  0  0  0  0
  8 13  1  1  0  0  0
  9 14  1  6  0  0  0
  9  8  1  0  0  0  0
 10  9  1  0  0  0  0
 10 11  1  0  0  0  0
 11 12  1  0  0  0  0
 12  8  1  0  0  0  0
 12 18  1  0  0  0  0
 12 17  1  0  0  0  0
 15 10  1  0  0  0  0
 16 10  1  0  0  0  0
 19 24  1  0  0  0  0
 21 22  1  0  0  0  0
 21 20  1  0  0  0  0
 23 22  1  0  0  0  0
 24 23  1  0  0  0  0
 25 24  1  0  0  0  0
 25 26  1  0  0  0  0
 26 21  1  0  0  0  0
 27 35  1  0  0  0  0
 28 27  1  0  0  0  0
 28 33  1  0  0  0  0
 29 28  2  0  0  0  0
 30 31  2  0  0  0  0
 30 29  1  0  0  0  0
 31 32  1  0  0  0  0
 32 27  2  0  0  0  0
 34 31  1  0  0  0  0
 35 36  1  0  0  0  0
 36 37  1  0  0  0  0
 38 36  1  0  0  0  0
 39 36  1  0  0  0  0
M  END
>  <minimizedAffinity>
-5.70200443

$$$$

 OpenBabel03272503433D

 39 42  0  0  1  0  0  0  0  0999 V2000
   39.1300   25.4270   34.9450 C   0  0  0  0  0  0  0  0  0  0  0  0
   40.2830   25.7310   34.2730 C   0  0  0  0  0  0  0  0  0  0  0  0
   39.8550   26.5050   33.1910 C   0  0  0  0  0  0  0  0  0  0  0  0
   38.5310   26.6430   33.2330 N   0  0  0  0  0  0  0  0  0  0  0  0
   38.0760   25.9880   34.3010 N   0  0  0  0  0  0  0  0  0  0  0  0
   41.2780   25.4040   34.5760 H   0  0  0  0  0  0  0  0  0  0  0  0
   40.5500   26.9060   32.4580 H   0  0  0  0  0  0  0  0  0  0  0  0
   37.0470   26.4600   31.3060 C   0  0  2  0  0  0  0  0  0  0  0  0
   37.7900   27.3880   32.2510 C   0  0  1  0  0  0  0  0  0  0  0  0
   36.5910   28.0980   32.8460 C   0  0  0  0  0  0  0  0  0  0  0  0
   35.6480   28.2320   31.8560 O   0  0  0  0  0  0  0  0  0  0  0  0
   35.9820   27.4550   30.7920 C   0  0  0  0  0  0  0  0  0  0  0  0
   37.6290   26.0940   30.4670 H   0  0  0  0  0  0  0  0  0  0  0  0
   38.4190   28.1090   31.7330 H   0  0  0  0  0  0  0  0  0  0  0  0
   36.1740   27.5160   33.6970 H   0  0  0  0  0  0  0  0  0  0  0  0
   36.8390   29.1130   33.2260 H   0  0  0  0  0  0  0  0  0  0  0  0
   35.1140   26.8010   30.5250 H   0  0  0  0  0  0  0  0  0  0  0  0
   36.3660   27.9910   29.9110 H   0  0  0  0  0  0  0  0  0  0  0  0
   36.4120   25.4980   32.0670 O   0  0  0  0  0  0  0  0  0  0  0  0
   37.6440   21.5810   32.2800 H   0  0  0  0  0  0  0  0  0  0  0  0
   37.4380   21.7510   31.2920 N   0  0  0  0  0  0  0  0  0  0  0  0
   36.0400   21.9830   31.0140 C   0  0  0  0  0  2  0  0  0  0  0  0
   35.5300   23.3060   31.5340 C   0  0  0  0  0  2  0  0  0  0  0  0
   36.7310   24.2040   31.7340 C   0  0  0  0  0  3  0  0  0  0  0  0
   37.6090   24.0750   30.5200 C   0  0  0  0  0  2  0  0  0  0  0  0
   38.2990   22.7140   30.6480 C   0  0  0  0  0  2  0  0  0  0  0  0
   39.6990   22.8010   37.5590 C   0  0  0  0  0  0  0  0  0  0  0  0
   39.8210   23.5190   36.3830 C   0  0  0  0  0  0  0  0  0  0  0  0
   39.0550   24.6330   36.1480 C   0  0  0  0  0  0  0  0  0  0  0  0
   38.1760   24.9900   37.1280 N   0  0  0  0  0  0  0  0  0  0  0  0
   38.0710   24.2680   38.2820 C   0  0  0  0  0  0  0  0  0  0  0  0
   38.8070   23.1990   38.5050 N   0  0  0  0  0  0  0  0  0  0  0  0
   40.5070   23.2780   35.5660 H   0  0  0  0  0  0  0  0  0  0  0  0
   37.3530   24.6110   39.0150 H   0  0  0  0  0  0  0  0  0  0  0  0
   40.5580   21.7030   37.6160 O   0  0  0  0  0  0  0  0  0  0  0  0
   41.8520   21.7030   37.0480 C   0  0  0  0  0  0  0  0  0  0  0  0
   42.6880   20.8020   37.6910 F   0  0  0  0  0  0  0  0  0  0  0  0
   42.3690   22.9650   37.1090 F   0  0  0  0  0  0  0  0  0  0  0  0
   41.7440   21.3560   35.7100 F   0  0  0  0  0  0  0  0  0  0  0  0
  1 29  1  0  0  0  0
  2  6  1  0  0  0  0
  2  1  1  0  0  0  0
  3  4  1  0  0  0  0
  3  2  2  0  0  0  0
  4  5  1  0  0  0  0
  5  1  2  0  0  0  0
  7  3  1  0  0  0  0
  8 13  1  6  0  0  0
  8 19  1  0  0  0  0
  8  9  1  0  0  0  0
  9 14  1  6  0  0  0
  9 10  1  0  0  0  0
  9  4  1  0  0  0  0
 10 16  1  0  0  0  0
 10 15  1  0  0  0  0
 11 10  1  0  0  0  0
 12  8  1  0  0  0  0
 12 11  1  0  0  0  0
 17 12  1  0  0  0  0
 18 12  1  0  0  0  0
 21 20  1  0  0  0  0
 22 21  1  0  0  0  0
 22 23  1  0  0  0  0
 23 24  1  0  0  0  0
 24 19  1  0  0  0  0
 25 26  1  0  0  0  0
 25 24  1  0  0  0  0
 26 21  1  0  0  0  0
 27 35  1  0  0  0  0
 27 32  1  0  0  0  0
 28 27  2  0  0  0  0
 29 28  1  0  0  0  0
 29 30  2  0  0  0  0
 30 31  1  0  0  0  0
 31 32  2  0  0  0  0
 31 34  1  0  0  0  0
 33 28  1  0  0  0  0
 36 38  1  0  0  0  0
 36 35  1  0  0  0  0
 36 37  1  0  0  0  0
 39 36  1  0  0  0  0
M  END
>  <minimizedAffinity>
-5.66984224

$$$$

 OpenBabel03272503433D

 39 42  0  0  1  0  0  0  0  0999 V2000
   37.8160   25.6260   32.9550 C   0  0  0  0  0  0  0  0  0  0  0  0
   38.8980   26.4250   32.6980 C   0  0  0  0  0  0  0  0  0  0  0  0
   38.3630   27.5160   32.0090 C   0  0  0  0  0  0  0  0  0  0  0  0
   37.0470   27.3610   31.8750 N   0  0  0  0  0  0  0  0  0  0  0  0
   36.7010   26.2090   32.4490 N   0  0  0  0  0  0  0  0  0  0  0  0
   39.9210   26.1920   32.9960 H   0  0  0  0  0  0  0  0  0  0  0  0
   38.9810   28.3390   31.6610 H   0  0  0  0  0  0  0  0  0  0  0  0
   35.2390   28.9710   32.1770 C   0  0  2  0  0  0  0  0  0  0  0  0
   36.2100   28.3210   31.2070 C   0  0  1  0  0  0  0  0  0  0  0  0
   36.9710   29.5660   30.7960 C   0  0  0  0  0  0  0  0  0  0  0  0
   36.0800   30.6110   30.7620 O   0  0  0  0  0  0  0  0  0  0  0  0
   34.9180   30.2470   31.3680 C   0  0  0  0  0  0  0  0  0  0  0  0
   34.3220   28.4180   32.3510 H   0  0  0  0  0  0  0  0  0  0  0  0
   35.7190   27.8910   30.3360 H   0  0  0  0  0  0  0  0  0  0  0  0
   37.7890   29.7810   31.5170 H   0  0  0  0  0  0  0  0  0  0  0  0
   37.4310   29.4730   29.7880 H   0  0  0  0  0  0  0  0  0  0  0  0
   34.6580   31.0010   32.1520 H   0  0  0  0  0  0  0  0  0  0  0  0
   34.0690   30.0590   30.6940 H   0  0  0  0  0  0  0  0  0  0  0  0
   35.9460   29.3370   33.3050 O   0  0  0  0  0  0  0  0  0  0  0  0
   33.7060   32.4500   34.7830 H   0  0  0  0  0  0  0  0  0  0  0  0
   33.9980   31.9100   35.6020 N   0  0  0  0  0  0  0  0  0  0  0  0
   33.4140   30.5910   35.6750 C   0  0  0  0  0  2  0  0  0  0  0  0
   33.9420   29.6360   34.6300 C   0  0  0  0  0  2  0  0  0  0  0  0
   35.2720   30.1780   34.1550 C   0  0  0  0  0  3  0  0  0  0  0  0
   36.0580   30.5950   35.3670 C   0  0  0  0  0  2  0  0  0  0  0  0
   35.4210   31.9010   35.8490 C   0  0  0  0  0  2  0  0  0  0  0  0
   37.4380   22.0120   33.8770 C   0  0  0  0  0  0  0  0  0  0  0  0
   37.3600   23.1900   33.1540 C   0  0  0  0  0  0  0  0  0  0  0  0
   37.8640   24.3640   33.6520 C   0  0  0  0  0  0  0  0  0  0  0  0
   38.4400   24.3080   34.8890 N   0  0  0  0  0  0  0  0  0  0  0  0
   38.5060   23.1360   35.5860 C   0  0  0  0  0  0  0  0  0  0  0  0
   38.0210   22.0100   35.1040 N   0  0  0  0  0  0  0  0  0  0  0  0
   36.9110   23.2920   32.1610 H   0  0  0  0  0  0  0  0  0  0  0  0
   38.9770   23.1670   36.5590 H   0  0  0  0  0  0  0  0  0  0  0  0
   36.8730   20.9270   33.2070 O   0  0  0  0  0  0  0  0  0  0  0  0
   35.6080   20.3880   33.5340 C   0  0  0  0  0  0  0  0  0  0  0  0
   35.2380   20.7150   34.8310 F   0  0  0  0  0  0  0  0  0  0  0  0
   35.6430   19.0330   33.3730 F   0  0  0  0  0  0  0  0  0  0  0  0
   34.6720   20.8950   32.6470 F   0  0  0  0  0  0  0  0  0  0  0  0
  1 29  1  0  0  0  0
  2  1  1  0  0  0  0
  2  6  1  0  0  0  0
  3  2  2  0  0  0  0
  4  3  1  0  0  0  0
  4  5  1  0  0  0  0
  5  1  2  0  0  0  0
  7  3  1  0  0  0  0
  8 13  1  1  0  0  0
  8 19  1  0  0  0  0
  9 14  1  6  0  0  0
  9  4  1  0  0  0  0
  9  8  1  0  0  0  0
 10  9  1  0  0  0  0
 10 15  1  0  0  0  0
 11 10  1  0  0  0  0
 11 12  1  0  0  0  0
 12 17  1  0  0  0  0
 12  8  1  0  0  0  0
 16 10  1  0  0  0  0
 18 12  1  0  0  0  0
 19 24  1  0  0  0  0
 20 21  1  0  0  0  0
 21 22  1  0  0  0  0
 21 26  1  0  0  0  0
 23 22  1  0  0  0  0
 24 23  1  0  0  0  0
 24 25  1  0  0  0  0
 25 26  1  0  0  0  0
 27 32  1  0  0  0  0
 28 29  1  0  0  0  0
 28 27  2  0  0  0  0
 29 30  2  0  0  0  0
 30 31  1  0  0  0  0
 31 34  1  0  0  0  0
 32 31  2  0  0  0  0
 33 28  1  0  0  0  0
 35 36  1  0  0  0  0
 35 27  1  0  0  0  0
 36 37  1  0  0  0  0
 38 36  1  0  0  0  0
 39 36  1  0  0  0  0
M  END
>  <minimizedAffinity>
-5.66432524

$$$$

 OpenBabel03272503433D

 39 42  0  0  1  0  0  0  0  0999 V2000
   37.1010   26.7820   33.3500 C   0  0  0  0  0  0  0  0  0  0  0  0
   37.4360   25.9730   32.2980 C   0  0  0  0  0  0  0  0  0  0  0  0
   37.9030   24.8010   32.9010 C   0  0  0  0  0  0  0  0  0  0  0  0
   37.8410   24.9230   34.2260 N   0  0  0  0  0  0  0  0  0  0  0  0
   37.3530   26.1300   34.5130 N   0  0  0  0  0  0  0  0  0  0  0  0
   37.3340   26.2510   31.2490 H   0  0  0  0  0  0  0  0  0  0  0  0
   38.2500   23.9520   32.3200 H   0  0  0  0  0  0  0  0  0  0  0  0
   39.7660   23.8380   35.2570 C   0  0  2  0  0  0  0  0  0  0  0  0
   38.2540   23.8820   35.1280 C   0  0  1  0  0  0  0  0  0  0  0  0
   37.9220   24.2010   36.5720 C   0  0  0  0  0  0  0  0  0  0  0  0
   38.8340   23.5500   37.3660 O   0  0  0  0  0  0  0  0  0  0  0  0
   39.8640   23.0910   36.6060 C   0  0  0  0  0  0  0  0  0  0  0  0
   40.2780   23.2630   34.4920 H   0  0  0  0  0  0  0  0  0  0  0  0
   37.8210   22.9210   34.8590 H   0  0  0  0  0  0  0  0  0  0  0  0
   37.9690   25.2970   36.7510 H   0  0  0  0  0  0  0  0  0  0  0  0
   36.9050   23.8580   36.8630 H   0  0  0  0  0  0  0  0  0  0  0  0
   40.8320   23.4480   37.0390 H   0  0  0  0  0  0  0  0  0  0  0  0
   39.8800   22.0040   36.4310 H   0  0  0  0  0  0  0  0  0  0  0  0
   40.2160   25.1310   35.4420 O   0  0  0  0  0  0  0  0  0  0  0  0
   42.4090   25.6470   32.0040 H   0  0  0  0  0  0  0  0  0  0  0  0
   42.9250   26.1440   32.7350 N   0  0  0  0  0  0  0  0  0  0  0  0
   42.2400   27.3040   33.2550 C   0  0  0  0  0  2  0  0  0  0  0  0
   41.0250   26.9680   34.0870 C   0  0  0  0  0  2  0  0  0  0  0  0
   41.1780   25.5350   34.5500 C   0  0  0  0  0  3  0  0  0  0  0  0
   42.5890   25.3570   35.0370 C   0  0  0  0  0  2  0  0  0  0  0  0
   43.4600   25.3010   33.7790 C   0  0  0  0  0  2  0  0  0  0  0  0
   35.4420   30.0650   34.0700 C   0  0  0  0  0  0  0  0  0  0  0  0
   35.9330   28.7840   34.2500 C   0  0  0  0  0  0  0  0  0  0  0  0
   36.5670   28.1170   33.2320 C   0  0  0  0  0  0  0  0  0  0  0  0
   36.6840   28.7790   32.0450 N   0  0  0  0  0  0  0  0  0  0  0  0
   36.1920   30.0430   31.8880 C   0  0  0  0  0  0  0  0  0  0  0  0
   35.5840   30.6810   32.8670 N   0  0  0  0  0  0  0  0  0  0  0  0
   35.8670   28.2080   35.1780 H   0  0  0  0  0  0  0  0  0  0  0  0
   36.3230   30.5060   30.9190 H   0  0  0  0  0  0  0  0  0  0  0  0
   34.8320   30.5780   35.2150 O   0  0  0  0  0  0  0  0  0  0  0  0
   35.3630   31.6560   35.9580 C   0  0  0  0  0  0  0  0  0  0  0  0
   34.7890   31.7340   37.2190 F   0  0  0  0  0  0  0  0  0  0  0  0
   35.1640   32.8160   35.2690 F   0  0  0  0  0  0  0  0  0  0  0  0
   36.7300   31.4700   36.0860 F   0  0  0  0  0  0  0  0  0  0  0  0
  1  5  2  0  0  0  0
  2  3  2  0  0  0  0
  2  1  1  0  0  0  0
  3  4  1  0  0  0  0
  4  5  1  0  0  0  0
  4  9  1  0  0  0  0
  6  2  1  0  0  0  0
  7  3  1  0  0  0  0
  8 13  1  6  0  0  0
  8 19  1  0  0  0  0
  8 12  1  0  0  0  0
  9 14  1  6  0  0  0
  9  8  1  0  0  0  0
  9 10  1  0  0  0  0
 10 15  1  0  0  0  0
 10 16  1  0  0  0  0
 10 11  1  0  0  0  0
 12 17  1  0  0  0  0
 12 11  1  0  0  0  0
 18 12  1  0  0  0  0
 20 21  1  0  0  0  0
 21 22  1  0  0  0  0
 21 26  1  0  0  0  0
 22 23  1  0  0  0  0
 23 24  1  0  0  0  0
 24 25  1  0  0  0  0
 24 19  1  0  0  0  0
 26 25  1  0  0  0  0
 27 28  1  0  0  0  0
 27 35  1  0  0  0  0
 28 33  1  0  0  0  0
 29  1  1  0  0  0  0
 29 28  2  0  0  0  0
 30 29  1  0  0  0  0
 31 30  2  0  0  0  0
 31 32  1  0  0  0  0
 32 27  2  0  0  0  0
 34 31  1  0  0  0  0
 35 36  1  0  0  0  0
 36 39  1  0  0  0  0
 36 37  1  0  0  0  0
 38 36  1  0  0  0  0
M  END
>  <minimizedAffinity>
-5.65804005

$$$$

 OpenBabel03272503433D

 39 42  0  0  1  0  0  0  0  0999 V2000
   37.1770   27.7120   33.1780 C   0  0  0  0  0  0  0  0  0  0  0  0
   37.4730   28.1130   31.9030 C   0  0  0  0  0  0  0  0  0  0  0  0
   36.3760   28.8910   31.5240 C   0  0  0  0  0  0  0  0  0  0  0  0
   35.4940   28.9390   32.5220 N   0  0  0  0  0  0  0  0  0  0  0  0
   35.9730   28.2210   33.5380 N   0  0  0  0  0  0  0  0  0  0  0  0
   38.3840   27.8440   31.3680 H   0  0  0  0  0  0  0  0  0  0  0  0
   36.3110   29.3600   30.5470 H   0  0  0  0  0  0  0  0  0  0  0  0
   34.0520   30.5470   33.6540 C   0  0  2  0  0  0  0  0  0  0  0  0
   34.2550   29.6640   32.4360 C   0  0  1  0  0  0  0  0  0  0  0  0
   34.2930   30.7530   31.3830 C   0  0  0  0  0  0  0  0  0  0  0  0
   33.4130   31.7370   31.7630 O   0  0  0  0  0  0  0  0  0  0  0  0
   33.0340   31.5420   33.0550 C   0  0  0  0  0  0  0  0  0  0  0  0
   33.6070   30.0540   34.5120 H   0  0  0  0  0  0  0  0  0  0  0  0
   33.4130   29.0020   32.2430 H   0  0  0  0  0  0  0  0  0  0  0  0
   35.3190   31.1710   31.2880 H   0  0  0  0  0  0  0  0  0  0  0  0
   33.9880   30.3880   30.3780 H   0  0  0  0  0  0  0  0  0  0  0  0
   33.2060   32.4830   33.6360 H   0  0  0  0  0  0  0  0  0  0  0  0
   32.0110   31.1630   33.1990 H   0  0  0  0  0  0  0  0  0  0  0  0
   35.2330   31.2230   33.8920 O   0  0  0  0  0  0  0  0  0  0  0  0
   33.9860   34.4100   36.1680 H   0  0  0  0  0  0  0  0  0  0  0  0
   34.8680   34.1030   36.5870 N   0  0  0  0  0  0  0  0  0  0  0  0
   34.8050   32.7960   37.2000 C   0  0  0  0  0  2  0  0  0  0  0  0
   34.6730   31.6670   36.2060 C   0  0  0  0  0  2  0  0  0  0  0  0
   35.1550   32.1850   34.8680 C   0  0  0  0  0  3  0  0  0  0  0  0
   36.4370   32.9350   35.1010 C   0  0  0  0  0  2  0  0  0  0  0  0
   36.0300   34.2640   35.7450 C   0  0  0  0  0  2  0  0  0  0  0  0
   38.4090   25.1220   35.5910 C   0  0  0  0  0  0  0  0  0  0  0  0
   37.5460   25.8870   34.8260 C   0  0  0  0  0  0  0  0  0  0  0  0
   38.0170   26.8770   34.0010 C   0  0  0  0  0  0  0  0  0  0  0  0
   39.3690   27.0630   33.9770 N   0  0  0  0  0  0  0  0  0  0  0  0
   40.2030   26.2970   34.7400 C   0  0  0  0  0  0  0  0  0  0  0  0
   39.7480   25.3470   35.5320 N   0  0  0  0  0  0  0  0  0  0  0  0
   36.4580   25.7800   34.8060 H   0  0  0  0  0  0  0  0  0  0  0  0
   41.2630   26.5010   34.6690 H   0  0  0  0  0  0  0  0  0  0  0  0
   37.7460   24.1680   36.3640 O   0  0  0  0  0  0  0  0  0  0  0  0
   38.0790   23.8940   37.7100 C   0  0  0  0  0  0  0  0  0  0  0  0
   37.2160   22.9600   38.2650 F   0  0  0  0  0  0  0  0  0  0  0  0
   38.0510   25.0570   38.4240 F   0  0  0  0  0  0  0  0  0  0  0  0
   39.3740   23.4040   37.7500 F   0  0  0  0  0  0  0  0  0  0  0  0
  1  5  2  0  0  0  0
  1 29  1  0  0  0  0
  2  1  1  0  0  0  0
  3  2  2  0  0  0  0
  3  4  1  0  0  0  0
  4  5  1  0  0  0  0
  6  2  1  0  0  0  0
  7  3  1  0  0  0  0
  8 19  1  0  0  0  0
  8 13  1  1  0  0  0
  9 14  1  6  0  0  0
  9  4  1  0  0  0  0
  9  8  1  0  0  0  0
 10 11  1  0  0  0  0
 10  9  1  0  0  0  0
 11 12  1  0  0  0  0
 12 18  1  0  0  0  0
 12 17  1  0  0  0  0
 12  8  1  0  0  0  0
 15 10  1  0  0  0  0
 16 10  1  0  0  0  0
 19 24  1  0  0  0  0
 20 21  1  0  0  0  0
 21 22  1  0  0  0  0
 23 22  1  0  0  0  0
 24 25  1  0  0  0  0
 24 23  1  0  0  0  0
 25 26  1  0  0  0  0
 26 21  1  0  0  0  0
 27 35  1  0  0  0  0
 28 27  2  0  0  0  0
 29 28  1  0  0  0  0
 30 29  2  0  0  0  0
 30 31  1  0  0  0  0
 31 32  2  0  0  0  0
 32 27  1  0  0  0  0
 33 28  1  0  0  0  0
 34 31  1  0  0  0  0
 35 36  1  0  0  0  0
 36 39  1  0  0  0  0
 36 37  1  0  0  0  0
 36 38  1  0  0  0  0
M  END
>  <minimizedAffinity>
-5.56361341

$$$$

 OpenBabel03272503433D

 39 42  0  0  1  0  0  0  0  0999 V2000
   37.7990   25.7450   32.6800 C   0  0  0  0  0  0  0  0  0  0  0  0
   36.5770   25.2840   32.2700 C   0  0  0  0  0  0  0  0  0  0  0  0
   36.1850   26.1880   31.2790 C   0  0  0  0  0  0  0  0  0  0  0  0
   37.1240   27.1190   31.1230 N   0  0  0  0  0  0  0  0  0  0  0  0
   38.1170   26.8590   31.9740 N   0  0  0  0  0  0  0  0  0  0  0  0
   36.0840   24.4010   32.6740 H   0  0  0  0  0  0  0  0  0  0  0  0
   35.2400   26.0920   30.7500 H   0  0  0  0  0  0  0  0  0  0  0  0
   36.2020   29.3450   30.7440 C   0  0  2  0  0  0  0  0  0  0  0  0
   37.0110   28.1940   30.1740 C   0  0  1  0  0  0  0  0  0  0  0  0
   38.3210   28.9290   29.9720 C   0  0  0  0  0  0  0  0  0  0  0  0
   38.0270   30.2190   29.6020 O   0  0  0  0  0  0  0  0  0  0  0  0
   36.7080   30.4700   29.8140 C   0  0  0  0  0  0  0  0  0  0  0  0
   35.1260   29.2500   30.6380 H   0  0  0  0  0  0  0  0  0  0  0  0
   36.6390   27.8460   29.2130 H   0  0  0  0  0  0  0  0  0  0  0  0
   38.9200   28.9260   30.9090 H   0  0  0  0  0  0  0  0  0  0  0  0
   38.9480   28.4760   29.1740 H   0  0  0  0  0  0  0  0  0  0  0  0
   36.6030   31.3960   30.4350 H   0  0  0  0  0  0  0  0  0  0  0  0
   36.0800   30.5200   28.9120 H   0  0  0  0  0  0  0  0  0  0  0  0
   36.6620   29.5970   32.0220 O   0  0  0  0  0  0  0  0  0  0  0  0
   34.5600   30.1670   35.5090 H   0  0  0  0  0  0  0  0  0  0  0  0
   33.9440   30.4950   34.7600 N   0  0  0  0  0  0  0  0  0  0  0  0
   34.4180   31.6780   34.0810 C   0  0  0  0  0  2  0  0  0  0  0  0
   35.6350   31.4340   33.2200 C   0  0  0  0  0  2  0  0  0  0  0  0
   35.6870   29.9520   32.9220 C   0  0  0  0  0  3  0  0  0  0  0  0
   34.3020   29.5110   32.5390 C   0  0  0  0  0  2  0  0  0  0  0  0
   33.5020   29.4690   33.8440 C   0  0  0  0  0  2  0  0  0  0  0  0
   38.9500   23.8700   35.7150 C   0  0  0  0  0  0  0  0  0  0  0  0
   38.1120   24.4280   34.7660 C   0  0  0  0  0  0  0  0  0  0  0  0
   38.6130   25.1370   33.7040 C   0  0  0  0  0  0  0  0  0  0  0  0
   39.9710   25.2610   33.6360 N   0  0  0  0  0  0  0  0  0  0  0  0
   40.7800   24.7030   34.5830 C   0  0  0  0  0  0  0  0  0  0  0  0
   40.2960   24.0230   35.6020 N   0  0  0  0  0  0  0  0  0  0  0  0
   37.0200   24.3590   34.7710 H   0  0  0  0  0  0  0  0  0  0  0  0
   41.8460   24.8420   34.4640 H   0  0  0  0  0  0  0  0  0  0  0  0
   38.2570   23.1880   36.7160 O   0  0  0  0  0  0  0  0  0  0  0  0
   38.3130   23.5500   38.0810 C   0  0  0  0  0  0  0  0  0  0  0  0
   39.5550   23.2650   38.6300 F   0  0  0  0  0  0  0  0  0  0  0  0
   37.3270   22.8950   38.7590 F   0  0  0  0  0  0  0  0  0  0  0  0
   38.0650   24.9100   38.1840 F   0  0  0  0  0  0  0  0  0  0  0  0
  1 29  1  0  0  0  0
  2  6  1  0  0  0  0
  2  1  1  0  0  0  0
  3  2  2  0  0  0  0
  4  3  1  0  0  0  0
  4  5  1  0  0  0  0
  5  1  2  0  0  0  0
  7  3  1  0  0  0  0
  8 13  1  6  0  0  0
  8 19  1  0  0  0  0
  9 14  1  6  0  0  0
  9  8  1  0  0  0  0
  9  4  1  0  0  0  0
 10  9  1  0  0  0  0
 10 15  1  0  0  0  0
 11 12  1  0  0  0  0
 11 10  1  0  0  0  0
 12 17  1  0  0  0  0
 12  8  1  0  0  0  0
 16 10  1  0  0  0  0
 18 12  1  0  0  0  0
 19 24  1  0  0  0  0
 21 20  1  0  0  0  0
 22 21  1  0  0  0  0
 23 22  1  0  0  0  0
 24 23  1  0  0  0  0
 25 24  1  0  0  0  0
 25 26  1  0  0  0  0
 26 21  1  0  0  0  0
 27 35  1  0  0  0  0
 28 33  1  0  0  0  0
 28 27  2  0  0  0  0
 29 28  1  0  0  0  0
 30 29  2  0  0  0  0
 30 31  1  0  0  0  0
 31 32  2  0  0  0  0
 32 27  1  0  0  0  0
 34 31  1  0  0  0  0
 35 36  1  0  0  0  0
 36 39  1  0  0  0  0
 36 37  1  0  0  0  0
 36 38  1  0  0  0  0
M  END
>  <minimizedAffinity>
-5.48535538

$$$$
