
 OpenBabel03272504223D

 37 39  0  0  1  0  0  0  0  0999 V2000
   38.8230   32.3770   47.8320 C   0  0  2  0  0  0  0  0  0  0  0  0
   38.1860   31.3730   48.7720 C   0  0  1  0  0  0  0  0  0  0  0  0
   38.7390   31.9230   50.0900 C   0  0  0  0  0  0  0  0  0  0  0  0
   38.4330   33.2560   49.9760 O   0  0  0  0  0  0  0  0  0  0  0  0
   38.6440   33.6490   48.6730 C   0  0  0  0  0  0  0  0  0  0  0  0
   39.8950   32.2560   47.7050 H   0  0  0  0  0  0  0  0  0  0  0  0
   38.5070   30.3330   48.6010 H   0  0  0  0  0  0  0  0  0  0  0  0
   39.8130   31.7380   50.1510 H   0  0  0  0  0  0  0  0  0  0  0  0
   38.1730   31.5200   50.9660 H   0  0  0  0  0  0  0  0  0  0  0  0
   37.8200   34.2700   48.2530 H   0  0  0  0  0  0  0  0  0  0  0  0
   39.5410   34.2830   48.6490 H   0  0  0  0  0  0  0  0  0  0  0  0
   36.8250   31.5880   48.7190 O   0  0  0  0  0  0  0  0  0  0  0  0
   35.8730   29.8710   47.0120 O   0  0  0  0  0  0  0  0  0  0  0  0
   35.9460   30.1740   48.4830 P   0  0  1  0  0  0  0  0  0  0  0  0
   36.7370   28.8690   49.2500 O   0  0  0  0  0  0  0  0  0  0  0  0
   37.3240   28.3700   48.6300 H   0  0  0  0  0  0  0  0  0  0  0  0
   34.3910   30.3290   49.1290 O   0  0  0  0  0  0  0  0  0  0  0  0
   34.1150   29.1810   49.8400 C   0  0  0  0  0  0  0  0  0  0  0  0
   35.0240   28.6220   50.1490 H   0  0  0  0  0  0  0  0  0  0  0  0
   33.6020   29.4630   50.7930 H   0  0  0  0  0  0  0  0  0  0  0  0
   33.2570   28.2240   49.1050 C   0  0  0  0  0  0  0  0  0  0  0  0
   33.8910   27.3400   48.2640 C   0  0  0  0  0  0  0  0  0  0  0  0
   33.1350   26.4140   47.5430 C   0  0  0  0  0  0  0  0  0  0  0  0
   31.7840   26.4430   47.7250 N   0  0  0  0  0  0  0  0  0  0  0  0
   31.1770   27.3210   48.5580 C   0  0  0  0  0  0  0  0  0  0  0  0
   31.9210   28.2180   49.2530 N   0  0  0  0  0  0  0  0  0  0  0  0
   34.9370   27.2440   48.0590 H   0  0  0  0  0  0  0  0  0  0  0  0
   33.5410   25.6800   46.8590 H   0  0  0  0  0  0  0  0  0  0  0  0
   30.0930   27.3070   48.6700 H   0  0  0  0  0  0  0  0  0  0  0  0
   38.0880   32.4200   46.6780 O   0  0  0  0  0  0  0  0  0  0  0  0
   40.4950   31.3530   42.4520 H   0  0  0  0  0  0  0  0  0  0  0  0
   39.9930   31.7130   43.3010 N   0  0  0  0  0  0  0  0  0  0  0  0
   40.7320   31.3100   44.4540 C   0  0  0  0  0  2  0  0  0  0  0  0
   39.9030   31.1880   45.7140 C   0  0  0  0  0  2  0  0  0  0  0  0
   38.6920   32.0790   45.5300 C   0  0  0  0  0  3  0  0  0  0  0  0
   37.8500   31.4430   44.4720 C   0  0  0  0  0  2  0  0  0  0  0  0
   38.6450   31.2060   43.2240 C   0  0  0  0  0  2  0  0  0  0  0  0
  1  6  1  6  0  0  0
  1  5  1  0  0  0  0
  1  2  1  0  0  0  0
  2  7  1  6  0  0  0
  2  3  1  0  0  0  0
  3  8  1  0  0  0  0
  3  9  1  0  0  0  0
  4  3  1  0  0  0  0
  5  4  1  0  0  0  0
 10  5  1  0  0  0  0
 11  5  1  0  0  0  0
 12  2  1  0  0  0  0
 14 13  2  6  0  0  0
 14 12  1  0  0  0  0
 14 17  1  0  0  0  0
 14 15  1  0  0  0  0
 16 15  1  0  0  0  0
 17 18  1  0  0  0  0
 18 19  1  0  0  0  0
 18 20  1  0  0  0  0
 21 26  1  0  0  0  0
 21 18  1  0  0  0  0
 22 21  2  0  0  0  0
 23 24  2  0  0  0  0
 23 22  1  0  0  0  0
 24 25  1  0  0  0  0
 25 29  1  0  0  0  0
 25 26  2  0  0  0  0
 27 22  1  0  0  0  0
 28 23  1  0  0  0  0
 30  1  1  0  0  0  0
 31 32  1  0  0  0  0
 32 33  1  0  0  0  0
 33 34  1  0  0  0  0
 35 34  1  0  0  0  0
 35 30  1  0  0  0  0
 36 35  1  0  0  0  0
 37 32  1  0  0  0  0
 37 36  1  0  0  0  0
M  END
>  <minimizedAffinity>
-4.80753803

>  <minimizedRMSD>
0.365123242

$$$$
