
 OpenBabel03272504433D

 43 45  0  0  0  0  0  0  0  0999 V2000
   39.5220   25.2880   30.7870 C   0  0  0  0  0  0  0  0  0  0  0  0
   40.0950   24.3450   30.6610 H   0  0  0  0  0  0  0  0  0  0  0  0
   39.6020   25.7830   29.7820 H   0  0  0  0  0  0  0  0  0  0  0  0
   38.9790   22.4910   31.6170 Cl  0  0  0  0  0  0  0  0  0  0  0  0
   37.7160   23.7160   31.3920 C   0  0  0  0  0  0  0  0  0  0  0  0
   36.4270   23.3790   31.6080 C   0  0  0  0  0  0  0  0  0  0  0  0
   35.4400   24.3160   31.4390 C   0  0  0  0  0  0  0  0  0  0  0  0
   35.8040   25.5950   31.0480 C   0  0  0  0  0  0  0  0  0  0  0  0
   37.1620   25.8760   30.8400 C   0  0  0  0  0  0  0  0  0  0  0  0
   38.1420   24.9630   31.0030 C   0  0  0  0  0  0  0  0  0  0  0  0
   34.4020   24.0250   31.6190 H   0  0  0  0  0  0  0  0  0  0  0  0
   34.9700   26.2670   30.9390 H   0  0  0  0  0  0  0  0  0  0  0  0
   37.2360   26.8810   30.5590 H   0  0  0  0  0  0  0  0  0  0  0  0
   35.4940   19.8110   31.5300 C   0  0  0  0  0  0  0  0  0  0  0  0
   35.3720   19.5330   32.9270 C   0  0  0  0  0  0  0  0  0  0  0  0
   35.6180   20.5850   33.8410 C   0  0  0  0  0  0  0  0  0  0  0  0
   35.9560   21.8140   33.3670 N   0  0  0  0  0  0  0  0  0  0  0  0
   36.0600   22.0310   32.0150 C   0  0  0  0  0  0  0  0  0  0  0  0
   35.8310   21.0450   31.1300 N   0  0  0  0  0  0  0  0  0  0  0  0
   35.3160   19.0430   30.8130 H   0  0  0  0  0  0  0  0  0  0  0  0
   35.1030   18.5510   33.2600 H   0  0  0  0  0  0  0  0  0  0  0  0
   35.4900   20.2630   35.1870 N   0  0  0  0  0  0  0  0  0  0  0  0
   36.0690   19.4840   35.6040 H   0  0  0  0  0  0  0  0  0  0  0  0
   34.8940   20.6530   35.9510 H   0  0  0  0  0  0  0  0  0  0  0  0
   40.2390   26.1080   31.7790 C   0  0  0  0  0  0  0  0  0  0  0  0
   39.6970   27.0350   32.1020 H   0  0  0  0  0  0  0  0  0  0  0  0
   41.1840   26.4830   31.3300 H   0  0  0  0  0  0  0  0  0  0  0  0
   40.4910   25.3920   32.9250 O   0  0  0  0  0  0  0  0  0  0  0  0
   40.5300   26.5390   35.2980 O   0  0  0  0  0  0  0  0  0  0  0  0
   39.6220   26.0310   34.2200 P   0  0  2  0  0  0  0  0  0  0  0  0
   38.6320   24.7590   34.8140 O   0  0  0  0  0  0  0  0  0  0  0  0
   39.6210   22.7100   39.3440 H   0  0  0  0  0  0  0  0  0  0  0  0
   39.1330   22.7020   38.4250 N   0  0  0  0  0  0  0  0  0  0  0  0
   40.1840   22.6760   37.4240 C   0  0  0  0  0  2  0  0  0  0  0  0
   39.6250   23.0270   36.0500 C   0  0  0  0  0  2  0  0  0  0  0  0
   38.9530   24.3690   36.0850 C   0  0  0  0  0  3  0  0  0  0  0  0
   37.7340   24.1510   36.9900 C   0  0  0  0  0  2  0  0  0  0  0  0
   38.3120   23.8700   38.3820 C   0  0  0  0  0  2  0  0  0  0  0  0
   38.5910   27.2410   33.7320 O   0  0  0  0  0  0  0  0  0  0  0  0
   37.4920   27.3310   34.5540 C   0  0  0  0  0  0  0  0  0  0  0  0
   37.8480   27.4560   35.9050 F   0  0  0  0  0  0  0  0  0  0  0  0
   36.7470   28.4650   34.2640 F   0  0  0  0  0  0  0  0  0  0  0  0
   36.6770   26.2340   34.4320 F   0  0  0  0  0  0  0  0  0  0  0  0
  1 10  1  0  0  0  0
  1 25  1  0  0  0  0
  2  1  1  0  0  0  0
  3  1  1  0  0  0  0
  5  6  1  0  0  0  0
  5  4  1  0  0  0  0
  6 18  1  0  0  0  0
  7  6  2  0  0  0  0
  7 11  1  0  0  0  0
  8  7  1  0  0  0  0
  9 10  1  0  0  0  0
  9  8  2  0  0  0  0
 10  5  2  0  0  0  0
 12  8  1  0  0  0  0
 13  9  1  0  0  0  0
 14 15  1  0  0  0  0
 15 21  1  0  0  0  0
 15 16  2  0  0  0  0
 16 22  1  0  0  0  0
 17 16  1  0  0  0  0
 18 17  2  0  0  0  0
 19 14  2  0  0  0  0
 19 18  1  0  0  0  0
 20 14  1  0  0  0  0
 22 23  1  0  0  0  0
 22 24  1  0  0  0  0
 25 26  1  0  0  0  0
 25 28  1  0  0  0  0
 27 25  1  0  0  0  0
 28 30  1  0  0  0  0
 30 31  1  0  0  0  0
 30 29  2  1  0  0  0
 31 36  1  0  0  0  0
 33 32  1  0  0  0  0
 34 33  1  0  0  0  0
 35 36  1  0  0  0  0
 35 34  1  0  0  0  0
 36 37  1  0  0  0  0
 37 38  1  0  0  0  0
 38 33  1  0  0  0  0
 39 30  1  0  0  0  0
 39 40  1  0  0  0  0
 40 41  1  0  0  0  0
 42 40  1  0  0  0  0
 43 40  1  0  0  0  0
M  END
>  <minimizedAffinity>
-6.22775316

$$$$

 OpenBabel03272504433D

 43 45  0  0  0  0  0  0  0  0999 V2000
   37.6360   27.6570   32.3290 C   0  0  0  0  0  0  0  0  0  0  0  0
   38.4870   27.9740   31.6890 H   0  0  0  0  0  0  0  0  0  0  0  0
   38.0730   27.6440   33.3640 H   0  0  0  0  0  0  0  0  0  0  0  0
   36.2910   28.2140   34.9140 Cl  0  0  0  0  0  0  0  0  0  0  0  0
   35.9100   29.0580   33.4010 C   0  0  0  0  0  0  0  0  0  0  0  0
   34.9570   30.0160   33.4050 C   0  0  0  0  0  0  0  0  0  0  0  0
   34.6530   30.6770   32.2430 C   0  0  0  0  0  0  0  0  0  0  0  0
   35.3420   30.3380   31.0900 C   0  0  0  0  0  0  0  0  0  0  0  0
   36.3190   29.3340   31.1580 C   0  0  0  0  0  0  0  0  0  0  0  0
   36.6280   28.6760   32.2950 C   0  0  0  0  0  0  0  0  0  0  0  0
   33.8790   31.4490   32.2650 H   0  0  0  0  0  0  0  0  0  0  0  0
   35.0430   30.9050   30.2250 H   0  0  0  0  0  0  0  0  0  0  0  0
   36.7270   29.2250   30.2010 H   0  0  0  0  0  0  0  0  0  0  0  0
   32.3980   30.1640   36.0570 C   0  0  0  0  0  0  0  0  0  0  0  0
   32.9970   31.0980   36.9580 C   0  0  0  0  0  0  0  0  0  0  0  0
   34.2590   31.6390   36.6170 C   0  0  0  0  0  0  0  0  0  0  0  0
   34.8550   31.2590   35.4560 N   0  0  0  0  0  0  0  0  0  0  0  0
   34.2390   30.3580   34.6230 C   0  0  0  0  0  0  0  0  0  0  0  0
   33.0410   29.8320   34.9290 N   0  0  0  0  0  0  0  0  0  0  0  0
   31.4480   29.7360   36.2810 H   0  0  0  0  0  0  0  0  0  0  0  0
   32.4940   31.3720   37.8640 H   0  0  0  0  0  0  0  0  0  0  0  0
   34.8000   32.5400   37.5280 N   0  0  0  0  0  0  0  0  0  0  0  0
   34.9620   32.2500   38.5300 H   0  0  0  0  0  0  0  0  0  0  0  0
   35.1130   33.5320   37.4350 H   0  0  0  0  0  0  0  0  0  0  0  0
   37.2890   26.2780   31.9430 C   0  0  0  0  0  0  0  0  0  0  0  0
   38.0940   25.7290   31.3880 H   0  0  0  0  0  0  0  0  0  0  0  0
   36.4320   26.2990   31.2350 H   0  0  0  0  0  0  0  0  0  0  0  0
   36.9940   25.5140   33.0470 O   0  0  0  0  0  0  0  0  0  0  0  0
   39.2770   24.2790   32.5850 O   0  0  0  0  0  0  0  0  0  0  0  0
   38.3960   24.8170   33.6710 P   0  0  2  0  0  0  0  0  0  0  0  0
   37.8850   23.5530   34.7160 O   0  0  0  0  0  0  0  0  0  0  0  0
   40.0070   23.0280   39.2900 H   0  0  0  0  0  0  0  0  0  0  0  0
   39.3850   22.6880   38.5270 N   0  0  0  0  0  0  0  0  0  0  0  0
   40.2390   22.5440   37.3620 C   0  0  0  0  0  2  0  0  0  0  0  0
   39.4000   22.4080   36.0960 C   0  0  0  0  0  2  0  0  0  0  0  0
   38.4840   23.5880   35.9450 C   0  0  0  0  0  3  0  0  0  0  0  0
   37.5030   23.4490   37.1150 C   0  0  0  0  0  2  0  0  0  0  0  0
   38.3480   23.6600   38.3770 C   0  0  0  0  0  2  0  0  0  0  0  0
   39.2500   25.8890   34.6120 O   0  0  0  0  0  0  0  0  0  0  0  0
   40.5530   26.0090   34.1880 C   0  0  0  0  0  0  0  0  0  0  0  0
   40.6410   26.3340   32.8270 F   0  0  0  0  0  0  0  0  0  0  0  0
   41.2000   27.0400   34.8550 F   0  0  0  0  0  0  0  0  0  0  0  0
   41.2600   24.8500   34.3920 F   0  0  0  0  0  0  0  0  0  0  0  0
  1  3  1  0  0  0  0
  2  1  1  0  0  0  0
  5  6  1  0  0  0  0
  5  4  1  0  0  0  0
  6 18  1  0  0  0  0
  7 11  1  0  0  0  0
  7  6  2  0  0  0  0
  8  9  2  0  0  0  0
  8  7  1  0  0  0  0
  9 10  1  0  0  0  0
 10  1  1  0  0  0  0
 10  5  2  0  0  0  0
 12  8  1  0  0  0  0
 13  9  1  0  0  0  0
 14 20  1  0  0  0  0
 14 15  1  0  0  0  0
 15 21  1  0  0  0  0
 16 15  2  0  0  0  0
 16 22  1  0  0  0  0
 17 16  1  0  0  0  0
 18 19  1  0  0  0  0
 18 17  2  0  0  0  0
 19 14  2  0  0  0  0
 22 23  1  0  0  0  0
 24 22  1  0  0  0  0
 25  1  1  0  0  0  0
 25 28  1  0  0  0  0
 26 25  1  0  0  0  0
 27 25  1  0  0  0  0
 28 30  1  0  0  0  0
 30 29  2  6  0  0  0
 30 39  1  0  0  0  0
 30 31  1  0  0  0  0
 31 36  1  0  0  0  0
 33 32  1  0  0  0  0
 34 33  1  0  0  0  0
 35 34  1  0  0  0  0
 36 35  1  0  0  0  0
 36 37  1  0  0  0  0
 37 38  1  0  0  0  0
 38 33  1  0  0  0  0
 40 43  1  0  0  0  0
 40 39  1  0  0  0  0
 40 42  1  0  0  0  0
 41 40  1  0  0  0  0
M  END
>  <minimizedAffinity>
-6.21349764

$$$$

 OpenBabel03272504433D

 43 45  0  0  0  0  0  0  0  0999 V2000
   38.5110   26.4070   32.7300 C   0  0  0  0  0  0  0  0  0  0  0  0
   39.4120   26.4590   32.0830 H   0  0  0  0  0  0  0  0  0  0  0  0
   38.9060   26.6490   33.7530 H   0  0  0  0  0  0  0  0  0  0  0  0
   36.8580   27.5280   34.9240 Cl  0  0  0  0  0  0  0  0  0  0  0  0
   36.7740   28.0840   33.2410 C   0  0  0  0  0  0  0  0  0  0  0  0
   35.9160   29.0760   32.9200 C   0  0  0  0  0  0  0  0  0  0  0  0
   35.8410   29.5170   31.6230 C   0  0  0  0  0  0  0  0  0  0  0  0
   36.6580   28.9220   30.6750 C   0  0  0  0  0  0  0  0  0  0  0  0
   37.5250   27.8970   31.0790 C   0  0  0  0  0  0  0  0  0  0  0  0
   37.6090   27.4550   32.3510 C   0  0  0  0  0  0  0  0  0  0  0  0
   35.1400   30.3200   31.3810 H   0  0  0  0  0  0  0  0  0  0  0  0
   36.5360   29.3270   29.6840 H   0  0  0  0  0  0  0  0  0  0  0  0
   38.0570   27.5820   30.2350 H   0  0  0  0  0  0  0  0  0  0  0  0
   32.9830   29.9870   34.9620 C   0  0  0  0  0  0  0  0  0  0  0  0
   33.5680   30.9200   35.8730 C   0  0  0  0  0  0  0  0  0  0  0  0
   34.9500   31.1980   35.7480 C   0  0  0  0  0  0  0  0  0  0  0  0
   35.6690   30.5770   34.7760 N   0  0  0  0  0  0  0  0  0  0  0  0
   35.0610   29.6880   33.9250 C   0  0  0  0  0  0  0  0  0  0  0  0
   33.7500   29.4100   34.0270 N   0  0  0  0  0  0  0  0  0  0  0  0
   31.9450   29.7530   35.0260 H   0  0  0  0  0  0  0  0  0  0  0  0
   32.9660   31.3890   36.6250 H   0  0  0  0  0  0  0  0  0  0  0  0
   35.4710   32.1100   36.6600 N   0  0  0  0  0  0  0  0  0  0  0  0
   35.3860   31.9310   37.6980 H   0  0  0  0  0  0  0  0  0  0  0  0
   35.9740   33.0160   36.5390 H   0  0  0  0  0  0  0  0  0  0  0  0
   38.0460   25.0090   32.7200 C   0  0  0  0  0  0  0  0  0  0  0  0
   37.7760   24.6110   31.7060 H   0  0  0  0  0  0  0  0  0  0  0  0
   37.1040   24.9310   33.3060 H   0  0  0  0  0  0  0  0  0  0  0  0
   39.0060   24.1630   33.2210 O   0  0  0  0  0  0  0  0  0  0  0  0
   39.1870   21.5800   33.7180 O   0  0  0  0  0  0  0  0  0  0  0  0
   38.2930   22.7750   33.8580 P   0  0  2  0  0  0  0  0  0  0  0  0
   36.8310   22.5400   32.9890 O   0  0  0  0  0  0  0  0  0  0  0  0
   35.5670   17.9610   31.2160 H   0  0  0  0  0  0  0  0  0  0  0  0
   35.3280   18.9450   31.4590 N   0  0  0  0  0  0  0  0  0  0  0  0
   36.1990   19.7720   30.6440 C   0  0  0  0  0  2  0  0  0  0  0  0
   36.2120   21.2070   31.1580 C   0  0  0  0  0  2  0  0  0  0  0  0
   36.6330   21.2440   32.5980 C   0  0  0  0  0  3  0  0  0  0  0  0
   35.4870   20.5430   33.3390 C   0  0  0  0  0  2  0  0  0  0  0  0
   35.5340   19.0860   32.8650 C   0  0  0  0  0  2  0  0  0  0  0  0
   37.8660   22.9790   35.4520 O   0  0  0  0  0  0  0  0  0  0  0  0
   38.8360   23.6590   36.1530 C   0  0  0  0  0  0  0  0  0  0  0  0
   38.7200   25.0490   36.0060 F   0  0  0  0  0  0  0  0  0  0  0  0
   38.7210   23.4220   37.5150 F   0  0  0  0  0  0  0  0  0  0  0  0
   40.0970   23.2950   35.7530 F   0  0  0  0  0  0  0  0  0  0  0  0
  1  3  1  0  0  0  0
  2  1  1  0  0  0  0
  5  4  1  0  0  0  0
  6  5  1  0  0  0  0
  6 18  1  0  0  0  0
  7  6  2  0  0  0  0
  8  9  2  0  0  0  0
  8  7  1  0  0  0  0
  9 10  1  0  0  0  0
 10  1  1  0  0  0  0
 10  5  2  0  0  0  0
 11  7  1  0  0  0  0
 12  8  1  0  0  0  0
 13  9  1  0  0  0  0
 14 20  1  0  0  0  0
 14 15  1  0  0  0  0
 15 21  1  0  0  0  0
 16 15  2  0  0  0  0
 16 22  1  0  0  0  0
 17 16  1  0  0  0  0
 18 19  1  0  0  0  0
 18 17  2  0  0  0  0
 19 14  2  0  0  0  0
 22 23  1  0  0  0  0
 24 22  1  0  0  0  0
 25  1  1  0  0  0  0
 25 28  1  0  0  0  0
 25 27  1  0  0  0  0
 26 25  1  0  0  0  0
 28 30  1  0  0  0  0
 30 29  2  6  0  0  0
 30 39  1  0  0  0  0
 31 30  1  0  0  0  0
 32 33  1  0  0  0  0
 33 38  1  0  0  0  0
 34 35  1  0  0  0  0
 34 33  1  0  0  0  0
 35 36  1  0  0  0  0
 36 31  1  0  0  0  0
 36 37  1  0  0  0  0
 38 37  1  0  0  0  0
 39 40  1  0  0  0  0
 40 42  1  0  0  0  0
 41 40  1  0  0  0  0
 43 40  1  0  0  0  0
M  END
>  <minimizedAffinity>
-6.0438385

$$$$

 OpenBabel03272504433D

 43 45  0  0  0  0  0  0  0  0999 V2000
   37.8330   27.6840   32.1670 C   0  0  0  0  0  0  0  0  0  0  0  0
   38.8790   27.6460   31.7950 H   0  0  0  0  0  0  0  0  0  0  0  0
   37.9480   27.9200   33.2590 H   0  0  0  0  0  0  0  0  0  0  0  0
   35.5210   28.7810   33.6690 Cl  0  0  0  0  0  0  0  0  0  0  0  0
   36.0770   29.4180   32.1100 C   0  0  0  0  0  0  0  0  0  0  0  0
   35.4260   30.4650   31.5590 C   0  0  0  0  0  0  0  0  0  0  0  0
   35.8450   30.9690   30.3540 C   0  0  0  0  0  0  0  0  0  0  0  0
   36.9370   30.3810   29.7360 C   0  0  0  0  0  0  0  0  0  0  0  0
   37.5650   29.2960   30.3650 C   0  0  0  0  0  0  0  0  0  0  0  0
   37.1630   28.7910   31.5490 C   0  0  0  0  0  0  0  0  0  0  0  0
   35.3060   31.8160   29.9220 H   0  0  0  0  0  0  0  0  0  0  0  0
   37.1990   30.8360   28.7960 H   0  0  0  0  0  0  0  0  0  0  0  0
   38.3610   28.9950   29.7560 H   0  0  0  0  0  0  0  0  0  0  0  0
   33.3260   32.6080   33.7040 C   0  0  0  0  0  0  0  0  0  0  0  0
   32.0240   32.1140   33.3870 C   0  0  0  0  0  0  0  0  0  0  0  0
   31.9190   31.0620   32.4460 C   0  0  0  0  0  0  0  0  0  0  0  0
   33.0490   30.5600   31.8800 N   0  0  0  0  0  0  0  0  0  0  0  0
   34.2790   31.0700   32.2180 C   0  0  0  0  0  0  0  0  0  0  0  0
   34.3990   32.0680   33.1090 N   0  0  0  0  0  0  0  0  0  0  0  0
   33.4430   33.3990   34.4080 H   0  0  0  0  0  0  0  0  0  0  0  0
   31.1570   32.5360   33.8550 H   0  0  0  0  0  0  0  0  0  0  0  0
   30.6300   30.6200   32.1690 N   0  0  0  0  0  0  0  0  0  0  0  0
   29.9030   31.2950   31.8090 H   0  0  0  0  0  0  0  0  0  0  0  0
   30.1780   29.6820   32.2440 H   0  0  0  0  0  0  0  0  0  0  0  0
   37.2710   26.3280   32.0320 C   0  0  0  0  0  0  0  0  0  0  0  0
   37.9220   25.6030   31.4780 H   0  0  0  0  0  0  0  0  0  0  0  0
   36.3370   26.3760   31.4300 H   0  0  0  0  0  0  0  0  0  0  0  0
   37.0320   25.7660   33.2630 O   0  0  0  0  0  0  0  0  0  0  0  0
   39.4940   24.9070   32.8790 O   0  0  0  0  0  0  0  0  0  0  0  0
   38.4660   25.1850   33.9320 P   0  0  2  0  0  0  0  0  0  0  0  0
   38.0580   23.7430   34.7720 O   0  0  0  0  0  0  0  0  0  0  0  0
   40.2570   22.6360   39.2030 H   0  0  0  0  0  0  0  0  0  0  0  0
   39.5880   22.4180   38.4360 N   0  0  0  0  0  0  0  0  0  0  0  0
   40.3930   22.3110   37.2330 C   0  0  0  0  0  2  0  0  0  0  0  0
   39.5100   22.3580   35.9910 C   0  0  0  0  0  2  0  0  0  0  0  0
   38.6930   23.6170   35.9770 C   0  0  0  0  0  3  0  0  0  0  0  0
   37.7370   23.4540   37.1650 C   0  0  0  0  0  2  0  0  0  0  0  0
   38.6330   23.4800   38.4090 C   0  0  0  0  0  2  0  0  0  0  0  0
   39.0850   26.2310   35.0660 O   0  0  0  0  0  0  0  0  0  0  0  0
   38.0860   26.8620   35.7710 C   0  0  0  0  0  0  0  0  0  0  0  0
   38.2910   26.7970   37.1570 F   0  0  0  0  0  0  0  0  0  0  0  0
   38.0460   28.2160   35.4680 F   0  0  0  0  0  0  0  0  0  0  0  0
   36.8550   26.3200   35.4990 F   0  0  0  0  0  0  0  0  0  0  0  0
  1  3  1  0  0  0  0
  2  1  1  0  0  0  0
  5  4  1  0  0  0  0
  6  5  1  0  0  0  0
  6 18  1  0  0  0  0
  7  6  2  0  0  0  0
  8  7  1  0  0  0  0
  8  9  2  0  0  0  0
  9 10  1  0  0  0  0
 10  5  2  0  0  0  0
 10  1  1  0  0  0  0
 11  7  1  0  0  0  0
 12  8  1  0  0  0  0
 13  9  1  0  0  0  0
 14 20  1  0  0  0  0
 15 14  1  0  0  0  0
 15 21  1  0  0  0  0
 16 15  2  0  0  0  0
 17 18  2  0  0  0  0
 17 16  1  0  0  0  0
 18 19  1  0  0  0  0
 19 14  2  0  0  0  0
 22 24  1  0  0  0  0
 22 16  1  0  0  0  0
 23 22  1  0  0  0  0
 25  1  1  0  0  0  0
 25 28  1  0  0  0  0
 26 25  1  0  0  0  0
 27 25  1  0  0  0  0
 28 30  1  0  0  0  0
 30 29  2  6  0  0  0
 30 31  1  0  0  0  0
 30 39  1  0  0  0  0
 31 36  1  0  0  0  0
 33 32  1  0  0  0  0
 34 33  1  0  0  0  0
 35 34  1  0  0  0  0
 36 35  1  0  0  0  0
 36 37  1  0  0  0  0
 37 38  1  0  0  0  0
 38 33  1  0  0  0  0
 39 40  1  0  0  0  0
 40 41  1  0  0  0  0
 42 40  1  0  0  0  0
 43 40  1  0  0  0  0
M  END
>  <minimizedAffinity>
-5.93248272

$$$$

 OpenBabel03272504433D

 43 45  0  0  0  0  0  0  0  0999 V2000
   39.1240   26.0010   33.9140 C   0  0  0  0  0  0  0  0  0  0  0  0
   40.2120   26.2180   33.8720 H   0  0  0  0  0  0  0  0  0  0  0  0
   38.8220   26.3560   34.9370 H   0  0  0  0  0  0  0  0  0  0  0  0
   36.8320   27.5740   34.9520 Cl  0  0  0  0  0  0  0  0  0  0  0  0
   37.3730   27.6150   33.2630 C   0  0  0  0  0  0  0  0  0  0  0  0
   36.7190   28.4040   32.3830 C   0  0  0  0  0  0  0  0  0  0  0  0
   37.1270   28.4460   31.0750 C   0  0  0  0  0  0  0  0  0  0  0  0
   38.2100   27.6700   30.6940 C   0  0  0  0  0  0  0  0  0  0  0  0
   38.8420   26.8740   31.6610 C   0  0  0  0  0  0  0  0  0  0  0  0
   38.4510   26.8230   32.9510 C   0  0  0  0  0  0  0  0  0  0  0  0
   36.5860   29.0900   30.3760 H   0  0  0  0  0  0  0  0  0  0  0  0
   38.4640   27.7620   29.6520 H   0  0  0  0  0  0  0  0  0  0  0  0
   39.6300   26.3710   31.1900 H   0  0  0  0  0  0  0  0  0  0  0  0
   34.6550   31.1470   33.7310 C   0  0  0  0  0  0  0  0  0  0  0  0
   33.3420   30.6210   33.5290 C   0  0  0  0  0  0  0  0  0  0  0  0
   33.2190   29.3420   32.9360 C   0  0  0  0  0  0  0  0  0  0  0  0
   34.3410   28.6620   32.5810 N   0  0  0  0  0  0  0  0  0  0  0  0
   35.5810   29.2100   32.7960 C   0  0  0  0  0  0  0  0  0  0  0  0
   35.7200   30.4230   33.3580 N   0  0  0  0  0  0  0  0  0  0  0  0
   34.7860   32.1070   34.1750 H   0  0  0  0  0  0  0  0  0  0  0  0
   32.4820   31.1890   33.8230 H   0  0  0  0  0  0  0  0  0  0  0  0
   31.9210   28.8770   32.7580 N   0  0  0  0  0  0  0  0  0  0  0  0
   31.2280   29.4370   32.1910 H   0  0  0  0  0  0  0  0  0  0  0  0
   31.4300   28.0170   33.0900 H   0  0  0  0  0  0  0  0  0  0  0  0
   38.9660   24.5370   33.8550 C   0  0  0  0  0  0  0  0  0  0  0  0
   39.8040   23.9560   34.3240 H   0  0  0  0  0  0  0  0  0  0  0  0
   38.9660   24.2100   32.7920 H   0  0  0  0  0  0  0  0  0  0  0  0
   37.8170   24.1350   34.4930 O   0  0  0  0  0  0  0  0  0  0  0  0
   39.6250   22.6820   35.7440 O   0  0  0  0  0  0  0  0  0  0  0  0
   38.1510   22.8920   35.5800 P   0  0  2  0  0  0  0  0  0  0  0  0
   37.4070   21.4810   34.9450 O   0  0  0  0  0  0  0  0  0  0  0  0
   35.5530   21.4210   30.2270 H   0  0  0  0  0  0  0  0  0  0  0  0
   35.9730   20.9410   31.0490 N   0  0  0  0  0  0  0  0  0  0  0  0
   35.0410   21.1490   32.1420 C   0  0  0  0  0  2  0  0  0  0  0  0
   35.6990   20.8170   33.4780 C   0  0  0  0  0  2  0  0  0  0  0  0
   36.9390   21.6400   33.6690 C   0  0  0  0  0  3  0  0  0  0  0  0
   37.8990   21.1230   32.5900 C   0  0  0  0  0  2  0  0  0  0  0  0
   37.2600   21.5280   31.2560 C   0  0  0  0  0  2  0  0  0  0  0  0
   37.4510   23.1670   37.0630 O   0  0  0  0  0  0  0  0  0  0  0  0
   38.1780   24.0660   37.8070 C   0  0  0  0  0  0  0  0  0  0  0  0
   38.5340   25.2030   37.0660 F   0  0  0  0  0  0  0  0  0  0  0  0
   37.4320   24.5430   38.8760 F   0  0  0  0  0  0  0  0  0  0  0  0
   39.3290   23.5040   38.2980 F   0  0  0  0  0  0  0  0  0  0  0  0
  1  3  1  0  0  0  0
  2  1  1  0  0  0  0
  5  4  1  0  0  0  0
  6 18  1  0  0  0  0
  6  5  2  0  0  0  0
  7  6  1  0  0  0  0
  8  7  2  0  0  0  0
  8  9  1  0  0  0  0
  9 10  2  0  0  0  0
 10  5  1  0  0  0  0
 10  1  1  0  0  0  0
 11  7  1  0  0  0  0
 12  8  1  0  0  0  0
 13  9  1  0  0  0  0
 14 20  1  0  0  0  0
 15 14  1  0  0  0  0
 15 21  1  0  0  0  0
 16 15  2  0  0  0  0
 17 18  2  0  0  0  0
 17 16  1  0  0  0  0
 18 19  1  0  0  0  0
 19 14  2  0  0  0  0
 22 16  1  0  0  0  0
 22 24  1  0  0  0  0
 23 22  1  0  0  0  0
 25  1  1  0  0  0  0
 25 26  1  0  0  0  0
 25 28  1  0  0  0  0
 27 25  1  0  0  0  0
 28 30  1  0  0  0  0
 30 29  2  1  0  0  0
 30 39  1  0  0  0  0
 31 30  1  0  0  0  0
 32 33  1  0  0  0  0
 33 38  1  0  0  0  0
 33 34  1  0  0  0  0
 34 35  1  0  0  0  0
 35 36  1  0  0  0  0
 36 31  1  0  0  0  0
 37 36  1  0  0  0  0
 38 37  1  0  0  0  0
 39 40  1  0  0  0  0
 40 43  1  0  0  0  0
 40 42  1  0  0  0  0
 41 40  1  0  0  0  0
M  END
>  <minimizedAffinity>
-5.91095114

$$$$

 OpenBabel03272504433D

 43 45  0  0  0  0  0  0  0  0999 V2000
   36.7580   27.9140   33.8890 C   0  0  0  0  0  0  0  0  0  0  0  0
   36.0270   27.9550   34.7240 H   0  0  0  0  0  0  0  0  0  0  0  0
   37.6380   28.4940   34.2780 H   0  0  0  0  0  0  0  0  0  0  0  0
   38.3820   26.7710   36.0930 Cl  0  0  0  0  0  0  0  0  0  0  0  0
   37.9330   25.8730   34.6310 C   0  0  0  0  0  0  0  0  0  0  0  0
   38.3400   24.5930   34.4950 C   0  0  0  0  0  0  0  0  0  0  0  0
   37.9990   23.8870   33.3700 C   0  0  0  0  0  0  0  0  0  0  0  0
   37.2370   24.5170   32.3990 C   0  0  0  0  0  0  0  0  0  0  0  0
   36.8480   25.8480   32.6060 C   0  0  0  0  0  0  0  0  0  0  0  0
   37.1770   26.5550   33.7080 C   0  0  0  0  0  0  0  0  0  0  0  0
   38.3380   22.8520   33.2770 H   0  0  0  0  0  0  0  0  0  0  0  0
   37.0140   23.8920   31.5510 H   0  0  0  0  0  0  0  0  0  0  0  0
   36.2820   26.1440   31.7780 H   0  0  0  0  0  0  0  0  0  0  0  0
   41.1610   23.0520   36.3030 C   0  0  0  0  0  0  0  0  0  0  0  0
   40.5360   22.7200   37.5450 C   0  0  0  0  0  0  0  0  0  0  0  0
   39.1680   23.0410   37.7110 C   0  0  0  0  0  0  0  0  0  0  0  0
   38.4980   23.6470   36.6950 N   0  0  0  0  0  0  0  0  0  0  0  0
   39.1430   23.9460   35.5210 C   0  0  0  0  0  0  0  0  0  0  0  0
   40.4420   23.6490   35.3430 N   0  0  0  0  0  0  0  0  0  0  0  0
   42.1900   22.8250   36.1430 H   0  0  0  0  0  0  0  0  0  0  0  0
   41.0990   22.2420   38.3220 H   0  0  0  0  0  0  0  0  0  0  0  0
   38.6090   22.7020   38.9380 N   0  0  0  0  0  0  0  0  0  0  0  0
   39.0220   23.0790   39.8340 H   0  0  0  0  0  0  0  0  0  0  0  0
   37.7950   22.1010   39.1980 H   0  0  0  0  0  0  0  0  0  0  0  0
   36.1690   28.6490   32.7550 C   0  0  0  0  0  0  0  0  0  0  0  0
   36.4160   28.2290   31.7450 H   0  0  0  0  0  0  0  0  0  0  0  0
   36.5820   29.6810   32.7330 H   0  0  0  0  0  0  0  0  0  0  0  0
   34.7970   28.6700   32.8370 O   0  0  0  0  0  0  0  0  0  0  0  0
   35.1300   31.1800   33.5720 O   0  0  0  0  0  0  0  0  0  0  0  0
   34.2310   30.2570   32.8070 P   0  0  2  0  0  0  0  0  0  0  0  0
   32.6630   30.2240   33.5080 O   0  0  0  0  0  0  0  0  0  0  0  0
   32.0540   29.4610   38.4830 H   0  0  0  0  0  0  0  0  0  0  0  0
   31.6960   29.7710   37.5560 N   0  0  0  0  0  0  0  0  0  0  0  0
   31.7780   28.6050   36.6950 C   0  0  0  0  0  2  0  0  0  0  0  0
   31.6330   29.0070   35.2310 C   0  0  0  0  0  2  0  0  0  0  0  0
   32.6770   30.0200   34.8610 C   0  0  0  0  0  3  0  0  0  0  0  0
   32.2970   31.2620   35.6770 C   0  0  0  0  0  2  0  0  0  0  0  0
   32.5170   30.8640   37.1410 C   0  0  0  0  0  2  0  0  0  0  0  0
   34.0400   30.8140   31.2520 O   0  0  0  0  0  0  0  0  0  0  0  0
   33.0640   31.7800   31.1770 C   0  0  0  0  0  0  0  0  0  0  0  0
   31.7740   31.2310   31.1490 F   0  0  0  0  0  0  0  0  0  0  0  0
   33.0910   32.6000   32.2960 F   0  0  0  0  0  0  0  0  0  0  0  0
   33.2140   32.5650   30.0610 F   0  0  0  0  0  0  0  0  0  0  0  0
  1  3  1  0  0  0  0
  1  2  1  0  0  0  0
  5  4  1  0  0  0  0
  6  5  1  0  0  0  0
  6 18  1  0  0  0  0
  7  6  2  0  0  0  0
  8  9  2  0  0  0  0
  8  7  1  0  0  0  0
  9 10  1  0  0  0  0
 10  1  1  0  0  0  0
 10  5  2  0  0  0  0
 11  7  1  0  0  0  0
 12  8  1  0  0  0  0
 13  9  1  0  0  0  0
 14 15  1  0  0  0  0
 15 16  2  0  0  0  0
 15 21  1  0  0  0  0
 16 22  1  0  0  0  0
 17 16  1  0  0  0  0
 18 17  2  0  0  0  0
 19 18  1  0  0  0  0
 19 14  2  0  0  0  0
 20 14  1  0  0  0  0
 22 24  1  0  0  0  0
 22 23  1  0  0  0  0
 25 28  1  0  0  0  0
 25  1  1  0  0  0  0
 26 25  1  0  0  0  0
 27 25  1  0  0  0  0
 30 28  1  0  0  0  0
 30 31  1  0  0  0  0
 30 29  2  1  0  0  0
 31 36  1  0  0  0  0
 33 32  1  0  0  0  0
 34 33  1  0  0  0  0
 35 34  1  0  0  0  0
 36 35  1  0  0  0  0
 36 37  1  0  0  0  0
 37 38  1  0  0  0  0
 38 33  1  0  0  0  0
 39 30  1  0  0  0  0
 40 39  1  0  0  0  0
 40 42  1  0  0  0  0
 41 40  1  0  0  0  0
 43 40  1  0  0  0  0
M  END
>  <minimizedAffinity>
-5.83360624

$$$$

 OpenBabel03272504433D

 43 45  0  0  0  0  0  0  0  0999 V2000
   38.8900   26.3550   32.7610 C   0  0  0  0  0  0  0  0  0  0  0  0
   39.9230   26.4370   32.3630 H   0  0  0  0  0  0  0  0  0  0  0  0
   39.0020   26.6190   33.8480 H   0  0  0  0  0  0  0  0  0  0  0  0
   36.6620   27.3890   34.4260 Cl  0  0  0  0  0  0  0  0  0  0  0  0
   37.0070   27.9520   32.7800 C   0  0  0  0  0  0  0  0  0  0  0  0
   36.2250   28.9080   32.2350 C   0  0  0  0  0  0  0  0  0  0  0  0
   36.4810   29.3530   30.9630 C   0  0  0  0  0  0  0  0  0  0  0  0
   37.5480   28.8020   30.2720 C   0  0  0  0  0  0  0  0  0  0  0  0
   38.3180   27.8120   30.8990 C   0  0  0  0  0  0  0  0  0  0  0  0
   38.0770   27.3650   32.1490 C   0  0  0  0  0  0  0  0  0  0  0  0
   35.8370   30.1280   30.5380 H   0  0  0  0  0  0  0  0  0  0  0  0
   37.6780   29.2070   29.2830 H   0  0  0  0  0  0  0  0  0  0  0  0
   39.0700   27.5260   30.2300 H   0  0  0  0  0  0  0  0  0  0  0  0
   34.2220   30.8760   34.6260 C   0  0  0  0  0  0  0  0  0  0  0  0
   32.9000   30.4590   34.2780 C   0  0  0  0  0  0  0  0  0  0  0  0
   32.7500   29.5180   33.2320 C   0  0  0  0  0  0  0  0  0  0  0  0
   33.8570   29.0430   32.6000 N   0  0  0  0  0  0  0  0  0  0  0  0
   35.1060   29.4750   32.9710 C   0  0  0  0  0  0  0  0  0  0  0  0
   35.2700   30.3690   33.9610 N   0  0  0  0  0  0  0  0  0  0  0  0
   34.3730   31.5840   35.4080 H   0  0  0  0  0  0  0  0  0  0  0  0
   32.0540   30.8570   34.8010 H   0  0  0  0  0  0  0  0  0  0  0  0
   31.4450   29.1480   32.9300 N   0  0  0  0  0  0  0  0  0  0  0  0
   30.7350   29.8800   32.6540 H   0  0  0  0  0  0  0  0  0  0  0  0
   30.9620   28.2220   32.9120 H   0  0  0  0  0  0  0  0  0  0  0  0
   38.4910   24.9400   32.6560 C   0  0  0  0  0  0  0  0  0  0  0  0
   38.5240   24.5190   31.6160 H   0  0  0  0  0  0  0  0  0  0  0  0
   37.4280   24.8340   32.9630 H   0  0  0  0  0  0  0  0  0  0  0  0
   39.3050   24.1370   33.4190 O   0  0  0  0  0  0  0  0  0  0  0  0
   39.2520   21.5490   33.9160 O   0  0  0  0  0  0  0  0  0  0  0  0
   38.4450   22.8090   33.9990 P   0  0  2  0  0  0  0  0  0  0  0  0
   37.0330   22.6860   33.0280 O   0  0  0  0  0  0  0  0  0  0  0  0
   35.4660   18.1980   31.2680 H   0  0  0  0  0  0  0  0  0  0  0  0
   35.2900   19.1920   31.5210 N   0  0  0  0  0  0  0  0  0  0  0  0
   36.1860   19.9720   30.6880 C   0  0  0  0  0  2  0  0  0  0  0  0
   36.2940   21.4020   31.2080 C   0  0  0  0  0  2  0  0  0  0  0  0
   36.7520   21.4060   32.6370 C   0  0  0  0  0  3  0  0  0  0  0  0
   35.5870   20.7670   33.4030 C   0  0  0  0  0  2  0  0  0  0  0  0
   35.5380   19.3130   32.9230 C   0  0  0  0  0  2  0  0  0  0  0  0
   37.9240   23.0460   35.5600 O   0  0  0  0  0  0  0  0  0  0  0  0
   38.8220   23.7950   36.2850 C   0  0  0  0  0  0  0  0  0  0  0  0
   38.6720   23.6130   37.6670 F   0  0  0  0  0  0  0  0  0  0  0  0
   40.1260   23.4150   36.0030 F   0  0  0  0  0  0  0  0  0  0  0  0
   38.6930   25.1350   36.0180 F   0  0  0  0  0  0  0  0  0  0  0  0
  1  3  1  0  0  0  0
  2  1  1  0  0  0  0
  5  4  1  0  0  0  0
  6  5  1  0  0  0  0
  6 18  1  0  0  0  0
  7  6  2  0  0  0  0
  8  9  2  0  0  0  0
  8  7  1  0  0  0  0
  9 10  1  0  0  0  0
 10  1  1  0  0  0  0
 10  5  2  0  0  0  0
 11  7  1  0  0  0  0
 12  8  1  0  0  0  0
 13  9  1  0  0  0  0
 14 20  1  0  0  0  0
 15 14  1  0  0  0  0
 15 21  1  0  0  0  0
 16 15  2  0  0  0  0
 17 18  2  0  0  0  0
 17 16  1  0  0  0  0
 18 19  1  0  0  0  0
 19 14  2  0  0  0  0
 22 16  1  0  0  0  0
 23 22  1  0  0  0  0
 24 22  1  0  0  0  0
 25  1  1  0  0  0  0
 25 27  1  0  0  0  0
 25 28  1  0  0  0  0
 26 25  1  0  0  0  0
 28 30  1  0  0  0  0
 30 29  2  6  0  0  0
 30 39  1  0  0  0  0
 31 30  1  0  0  0  0
 32 33  1  0  0  0  0
 33 38  1  0  0  0  0
 34 35  1  0  0  0  0
 34 33  1  0  0  0  0
 35 36  1  0  0  0  0
 36 31  1  0  0  0  0
 36 37  1  0  0  0  0
 38 37  1  0  0  0  0
 39 40  1  0  0  0  0
 40 41  1  0  0  0  0
 42 40  1  0  0  0  0
 43 40  1  0  0  0  0
M  END
>  <minimizedAffinity>
-5.7868948

$$$$

 OpenBabel03272504433D

 43 45  0  0  0  0  0  0  0  0999 V2000
   36.1280   27.3080   32.5130 C   0  0  0  0  0  0  0  0  0  0  0  0
   35.4770   26.6930   33.1690 H   0  0  0  0  0  0  0  0  0  0  0  0
   35.6800   27.1730   31.4910 H   0  0  0  0  0  0  0  0  0  0  0  0
   36.5270   29.2600   30.3140 Cl  0  0  0  0  0  0  0  0  0  0  0  0
   36.1270   29.7190   31.9800 C   0  0  0  0  0  0  0  0  0  0  0  0
   35.9880   31.0270   32.2860 C   0  0  0  0  0  0  0  0  0  0  0  0
   35.6780   31.3960   33.5690 C   0  0  0  0  0  0  0  0  0  0  0  0
   35.5140   30.4020   34.5220 C   0  0  0  0  0  0  0  0  0  0  0  0
   35.6730   29.0640   34.1340 C   0  0  0  0  0  0  0  0  0  0  0  0
   35.9780   28.6880   32.8750 C   0  0  0  0  0  0  0  0  0  0  0  0
   35.5700   32.4590   33.7990 H   0  0  0  0  0  0  0  0  0  0  0  0
   35.2720   30.7780   35.5010 H   0  0  0  0  0  0  0  0  0  0  0  0
   35.5070   28.4690   34.9780 H   0  0  0  0  0  0  0  0  0  0  0  0
   37.4340   33.7330   30.2390 C   0  0  0  0  0  0  0  0  0  0  0  0
   36.3660   33.9780   29.3220 C   0  0  0  0  0  0  0  0  0  0  0  0
   35.1900   33.2000   29.4430 C   0  0  0  0  0  0  0  0  0  0  0  0
   35.1140   32.2560   30.4190 N   0  0  0  0  0  0  0  0  0  0  0  0
   36.1680   32.0590   31.2770 C   0  0  0  0  0  0  0  0  0  0  0  0
   37.2930   32.7870   31.1780 N   0  0  0  0  0  0  0  0  0  0  0  0
   38.3350   34.3000   30.1780 H   0  0  0  0  0  0  0  0  0  0  0  0
   36.4650   34.7310   28.5670 H   0  0  0  0  0  0  0  0  0  0  0  0
   34.1830   33.4740   28.5250 N   0  0  0  0  0  0  0  0  0  0  0  0
   34.3740   33.4030   27.4890 H   0  0  0  0  0  0  0  0  0  0  0  0
   33.1850   33.7620   28.6400 H   0  0  0  0  0  0  0  0  0  0  0  0
   37.4680   26.6960   32.5280 C   0  0  0  0  0  0  0  0  0  0  0  0
   38.2940   27.3640   32.1670 H   0  0  0  0  0  0  0  0  0  0  0  0
   37.4850   25.8330   31.8270 H   0  0  0  0  0  0  0  0  0  0  0  0
   37.8200   26.3040   33.7970 O   0  0  0  0  0  0  0  0  0  0  0  0
   38.9910   24.4460   32.3390 O   0  0  0  0  0  0  0  0  0  0  0  0
   38.8380   24.9620   33.7380 P   0  0  2  0  0  0  0  0  0  0  0  0
   38.1240   23.7680   34.7460 O   0  0  0  0  0  0  0  0  0  0  0  0
   39.7590   23.1620   39.5060 H   0  0  0  0  0  0  0  0  0  0  0  0
   39.1830   22.8610   38.6930 N   0  0  0  0  0  0  0  0  0  0  0  0
   40.1240   22.6170   37.6160 C   0  0  0  0  0  2  0  0  0  0  0  0
   39.3970   22.5260   36.2780 C   0  0  0  0  0  2  0  0  0  0  0  0
   38.6080   23.7780   36.0250 C   0  0  0  0  0  3  0  0  0  0  0  0
   37.5140   23.7510   37.1000 C   0  0  0  0  0  2  0  0  0  0  0  0
   38.2540   23.9150   38.4320 C   0  0  0  0  0  2  0  0  0  0  0  0
   40.3330   25.2930   34.3860 O   0  0  0  0  0  0  0  0  0  0  0  0
   40.5520   26.6470   34.4860 C   0  0  0  0  0  0  0  0  0  0  0  0
   41.8680   26.9460   34.8690 F   0  0  0  0  0  0  0  0  0  0  0  0
   40.3760   27.2700   33.2590 F   0  0  0  0  0  0  0  0  0  0  0  0
   39.7050   27.2310   35.3940 F   0  0  0  0  0  0  0  0  0  0  0  0
  1 25  1  0  0  0  0
  1 10  1  0  0  0  0
  1  2  1  0  0  0  0
  3  1  1  0  0  0  0
  4  5  1  0  0  0  0
  5  6  2  0  0  0  0
  5 10  1  0  0  0  0
  6  7  1  0  0  0  0
  7 11  1  0  0  0  0
  7  8  2  0  0  0  0
  8 12  1  0  0  0  0
  9  8  1  0  0  0  0
  9 13  1  0  0  0  0
 10  9  2  0  0  0  0
 14 19  1  0  0  0  0
 15 16  1  0  0  0  0
 15 14  2  0  0  0  0
 16 17  2  0  0  0  0
 17 18  1  0  0  0  0
 18  6  1  0  0  0  0
 19 18  2  0  0  0  0
 20 14  1  0  0  0  0
 21 15  1  0  0  0  0
 22 24  1  0  0  0  0
 22 16  1  0  0  0  0
 23 22  1  0  0  0  0
 25 28  1  0  0  0  0
 26 25  1  0  0  0  0
 27 25  1  0  0  0  0
 30 29  2  6  0  0  0
 30 28  1  0  0  0  0
 30 39  1  0  0  0  0
 30 31  1  0  0  0  0
 31 36  1  0  0  0  0
 33 32  1  0  0  0  0
 34 33  1  0  0  0  0
 35 34  1  0  0  0  0
 36 35  1  0  0  0  0
 36 37  1  0  0  0  0
 37 38  1  0  0  0  0
 38 33  1  0  0  0  0
 39 40  1  0  0  0  0
 40 41  1  0  0  0  0
 40 43  1  0  0  0  0
 42 40  1  0  0  0  0
M  END
>  <minimizedAffinity>
-5.74135256

$$$$

 OpenBabel03272504433D

 43 45  0  0  0  0  0  0  0  0999 V2000
   36.5500   28.1150   33.9780 C   0  0  0  0  0  0  0  0  0  0  0  0
   35.7550   28.0110   34.7470 H   0  0  0  0  0  0  0  0  0  0  0  0
   37.3630   28.6770   34.5120 H   0  0  0  0  0  0  0  0  0  0  0  0
   38.6950   27.1050   35.7620 Cl  0  0  0  0  0  0  0  0  0  0  0  0
   38.0490   26.1950   34.3840 C   0  0  0  0  0  0  0  0  0  0  0  0
   38.5460   24.9690   34.1140 C   0  0  0  0  0  0  0  0  0  0  0  0
   38.0560   24.2540   33.0520 C   0  0  0  0  0  0  0  0  0  0  0  0
   37.0530   24.8200   32.2810 C   0  0  0  0  0  0  0  0  0  0  0  0
   36.5830   26.0980   32.6180 C   0  0  0  0  0  0  0  0  0  0  0  0
   37.0570   26.8120   33.6600 C   0  0  0  0  0  0  0  0  0  0  0  0
   38.4710   23.2630   32.8490 H   0  0  0  0  0  0  0  0  0  0  0  0
   36.7260   24.1930   31.4690 H   0  0  0  0  0  0  0  0  0  0  0  0
   35.8340   26.3490   31.9330 H   0  0  0  0  0  0  0  0  0  0  0  0
   41.8610   24.0040   35.4130 C   0  0  0  0  0  0  0  0  0  0  0  0
   41.4880   23.2350   36.5590 C   0  0  0  0  0  0  0  0  0  0  0  0
   40.1100   23.0800   36.8400 C   0  0  0  0  0  0  0  0  0  0  0  0
   39.1940   23.6600   36.0190 N   0  0  0  0  0  0  0  0  0  0  0  0
   39.6020   24.3900   34.9300 C   0  0  0  0  0  0  0  0  0  0  0  0
   40.9060   24.5480   34.6460 N   0  0  0  0  0  0  0  0  0  0  0  0
   42.8890   24.1410   35.1710 H   0  0  0  0  0  0  0  0  0  0  0  0
   42.2410   22.7940   37.1810 H   0  0  0  0  0  0  0  0  0  0  0  0
   39.8000   22.3270   37.9670 N   0  0  0  0  0  0  0  0  0  0  0  0
   40.1760   22.6080   38.9130 H   0  0  0  0  0  0  0  0  0  0  0  0
   39.2260   21.4660   38.1010 H   0  0  0  0  0  0  0  0  0  0  0  0
   36.0110   28.9660   32.9030 C   0  0  0  0  0  0  0  0  0  0  0  0
   36.4710   28.7960   31.8940 H   0  0  0  0  0  0  0  0  0  0  0  0
   36.2350   30.0310   33.1320 H   0  0  0  0  0  0  0  0  0  0  0  0
   34.6600   28.7710   32.7460 O   0  0  0  0  0  0  0  0  0  0  0  0
   33.3300   30.6720   31.4940 O   0  0  0  0  0  0  0  0  0  0  0  0
   33.8390   30.2400   32.8360 P   0  0  2  0  0  0  0  0  0  0  0  0
   34.9620   31.3850   33.4520 O   0  0  0  0  0  0  0  0  0  0  0  0
   34.0420   33.8510   37.7850 H   0  0  0  0  0  0  0  0  0  0  0  0
   34.6800   33.5710   37.0110 N   0  0  0  0  0  0  0  0  0  0  0  0
   34.0680   34.0800   35.7970 C   0  0  0  0  0  2  0  0  0  0  0  0
   34.6970   33.4330   34.5680 C   0  0  0  0  0  2  0  0  0  0  0  0
   34.5750   31.9390   34.6410 C   0  0  0  0  0  3  0  0  0  0  0  0
   35.4710   31.5510   35.8240 C   0  0  0  0  0  2  0  0  0  0  0  0
   34.7870   32.1470   37.0600 C   0  0  0  0  0  2  0  0  0  0  0  0
   32.5830   30.1800   33.9240 O   0  0  0  0  0  0  0  0  0  0  0  0
   31.5350   29.4290   33.4450 C   0  0  0  0  0  0  0  0  0  0  0  0
   31.9700   28.3100   32.7200 F   0  0  0  0  0  0  0  0  0  0  0  0
   30.7740   28.9190   34.4870 F   0  0  0  0  0  0  0  0  0  0  0  0
   30.7150   30.1680   32.6300 F   0  0  0  0  0  0  0  0  0  0  0  0
  1  3  1  0  0  0  0
  1  2  1  0  0  0  0
  5  4  1  0  0  0  0
  6  5  1  0  0  0  0
  6 18  1  0  0  0  0
  7  6  2  0  0  0  0
  8  9  2  0  0  0  0
  8  7  1  0  0  0  0
  9 10  1  0  0  0  0
 10  1  1  0  0  0  0
 10  5  2  0  0  0  0
 11  7  1  0  0  0  0
 12  8  1  0  0  0  0
 13  9  1  0  0  0  0
 14 15  1  0  0  0  0
 15 16  2  0  0  0  0
 15 21  1  0  0  0  0
 16 22  1  0  0  0  0
 17 16  1  0  0  0  0
 18 17  2  0  0  0  0
 19 18  1  0  0  0  0
 19 14  2  0  0  0  0
 20 14  1  0  0  0  0
 22 24  1  0  0  0  0
 22 23  1  0  0  0  0
 25 27  1  0  0  0  0
 25  1  1  0  0  0  0
 26 25  1  0  0  0  0
 28 30  1  0  0  0  0
 28 25  1  0  0  0  0
 30 29  2  6  0  0  0
 30 31  1  0  0  0  0
 30 39  1  0  0  0  0
 31 36  1  0  0  0  0
 33 38  1  0  0  0  0
 33 32  1  0  0  0  0
 34 33  1  0  0  0  0
 35 36  1  0  0  0  0
 35 34  1  0  0  0  0
 36 37  1  0  0  0  0
 37 38  1  0  0  0  0
 40 39  1  0  0  0  0
 40 42  1  0  0  0  0
 41 40  1  0  0  0  0
 43 40  1  0  0  0  0
M  END
>  <minimizedAffinity>
-5.66608667

$$$$
