
 OpenBabel03272508273D

 36 39  0  0  1  0  0  0  0  0999 V2000
   33.8050   28.8630   47.2240 C   0  0  2  0  0  0  0  0  0  0  0  0
   34.4800   28.1220   48.3690 C   0  0  2  0  0  0  0  0  0  0  0  0
   33.5230   27.9970   49.3380 O   0  0  0  0  0  0  0  0  0  0  0  0
   32.2820   28.0470   48.7960 C   0  0  0  0  0  0  0  0  0  0  0  0
   32.4220   28.2060   47.2950 C   0  0  1  0  0  0  0  0  0  0  0  0
   33.6570   29.9310   47.4370 H   0  0  0  0  0  0  0  0  0  0  0  0
   34.7750   27.1320   48.0020 H   0  0  0  0  0  0  0  0  0  0  0  0
   31.7490   27.0870   48.9710 H   0  0  0  0  0  0  0  0  0  0  0  0
   31.6240   28.8420   49.2120 H   0  0  0  0  0  0  0  0  0  0  0  0
   32.5470   27.2020   46.8650 H   0  0  0  0  0  0  0  0  0  0  0  0
   35.5510   30.3990   48.9790 C   0  0  1  0  0  0  0  0  0  0  0  0
   35.6290   28.9650   48.8220 C   0  0  1  0  0  0  0  0  0  0  0  0
   35.7090   29.4980   50.2140 C   0  0  0  0  0  0  0  0  0  0  0  0
   34.6420   31.0200   49.1030 H   0  0  0  0  0  0  0  0  0  0  0  0
   36.6140   28.5770   48.4330 H   0  0  0  0  0  0  0  0  0  0  0  0
   36.6710   29.5070   50.7520 H   0  0  0  0  0  0  0  0  0  0  0  0
   34.8340   29.2920   50.8460 H   0  0  0  0  0  0  0  0  0  0  0  0
   36.7690   31.2810   48.7630 C   0  0  0  0  0  0  0  0  0  0  0  0
   37.0290   32.2590   49.7220 C   0  0  0  0  0  0  0  0  0  0  0  0
   38.1380   33.0540   49.4580 C   0  0  0  0  0  0  0  0  0  0  0  0
   38.8940   32.8650   48.3310 N   0  0  0  0  0  0  0  0  0  0  0  0
   38.6020   31.9000   47.4270 C   0  0  0  0  0  0  0  0  0  0  0  0
   37.5220   31.0960   47.6480 N   0  0  0  0  0  0  0  0  0  0  0  0
   36.4230   32.3860   50.5920 H   0  0  0  0  0  0  0  0  0  0  0  0
   38.4140   33.8450   50.1560 H   0  0  0  0  0  0  0  0  0  0  0  0
   39.1900   31.7390   46.5360 H   0  0  0  0  0  0  0  0  0  0  0  0
   34.4020   28.6440   45.9970 O   0  0  0  0  0  0  0  0  0  0  0  0
   34.2430   29.4410   45.4390 H   0  0  0  0  0  0  0  0  0  0  0  0
   31.4640   28.9750   46.7020 O   0  0  0  0  0  0  0  0  0  0  0  0
   28.1800   31.1790   46.0990 H   0  0  0  0  0  0  0  0  0  0  0  0
   28.5820   30.2700   45.7430 N   0  0  0  0  0  0  0  0  0  0  0  0
   28.9130   29.3980   46.8380 C   0  0  0  0  0  2  0  0  0  0  0  0
   29.3880   28.0750   46.2330 C   0  0  0  0  0  2  0  0  0  0  0  0
   30.7720   28.4200   45.6630 C   0  0  0  0  0  3  0  0  0  0  0  0
   30.4860   29.3820   44.5360 C   0  0  0  0  0  2  0  0  0  0  0  0
   29.7890   30.6260   45.0390 C   0  0  0  0  0  2  0  0  0  0  0  0
  1  5  1  0  0  0  0
  1  6  1  1  0  0  0
  1  2  1  0  0  0  0
  2  7  1  6  0  0  0
  2 12  1  0  0  0  0
  2  3  1  0  0  0  0
  4  8  1  0  0  0  0
  4  9  1  0  0  0  0
  4  3  1  0  0  0  0
  5 10  1  6  0  0  0
  5  4  1  0  0  0  0
 11 14  1  6  0  0  0
 11 13  1  0  0  0  0
 12 15  1  6  0  0  0
 12 11  1  0  0  0  0
 12 13  1  0  0  0  0
 13 16  1  0  0  0  0
 13 17  1  0  0  0  0
 18 11  1  0  0  0  0
 18 19  1  0  0  0  0
 19 24  1  0  0  0  0
 20 19  2  0  0  0  0
 20 25  1  0  0  0  0
 21 20  1  0  0  0  0
 22 23  1  0  0  0  0
 22 21  2  0  0  0  0
 23 18  2  0  0  0  0
 26 22  1  0  0  0  0
 27  1  1  0  0  0  0
 28 27  1  0  0  0  0
 29  5  1  0  0  0  0
 31 30  1  0  0  0  0
 31 32  1  0  0  0  0
 33 32  1  0  0  0  0
 34 33  1  0  0  0  0
 34 29  1  0  0  0  0
 35 36  1  0  0  0  0
 35 34  1  0  0  0  0
 36 31  1  0  0  0  0
M  END
>  <minimizedAffinity>
-5.09352779

>  <minimizedRMSD>
0.425458878

$$$$
