
 OpenBabel03272508293D

 36 39  0  0  1  0  0  0  0  0999 V2000
   38.2140   25.2360   33.8570 C   0  0  2  0  0  0  0  0  0  0  0  0
   38.6670   26.3170   32.8840 C   0  0  2  0  0  0  0  0  0  0  0  0
   39.3790   27.2100   33.6370 O   0  0  0  0  0  0  0  0  0  0  0  0
   39.8820   26.6110   34.7440 C   0  0  0  0  0  0  0  0  0  0  0  0
   39.4750   25.1510   34.7240 C   0  0  1  0  0  0  0  0  0  0  0  0
   37.4010   25.5710   34.5160 H   0  0  0  0  0  0  0  0  0  0  0  0
   39.3190   25.8480   32.1390 H   0  0  0  0  0  0  0  0  0  0  0  0
   40.9930   26.6380   34.7220 H   0  0  0  0  0  0  0  0  0  0  0  0
   39.5840   27.0850   35.7060 H   0  0  0  0  0  0  0  0  0  0  0  0
   40.2170   24.6080   34.1190 H   0  0  0  0  0  0  0  0  0  0  0  0
   37.3860   28.2750   31.7750 C   0  0  1  0  0  0  0  0  0  0  0  0
   37.4330   26.9320   32.3060 C   0  0  1  0  0  0  0  0  0  0  0  0
   37.2430   27.0700   30.8310 C   0  0  0  0  0  0  0  0  0  0  0  0
   38.2350   28.9000   31.4310 H   0  0  0  0  0  0  0  0  0  0  0  0
   36.5020   26.5970   32.8480 H   0  0  0  0  0  0  0  0  0  0  0  0
   36.2590   26.8720   30.3770 H   0  0  0  0  0  0  0  0  0  0  0  0
   38.1000   26.7610   30.2180 H   0  0  0  0  0  0  0  0  0  0  0  0
   36.1120   29.1010   31.8350 C   0  0  0  0  0  0  0  0  0  0  0  0
   36.0540   30.2460   31.0400 C   0  0  0  0  0  0  0  0  0  0  0  0
   34.8770   30.9750   31.1580 C   0  0  0  0  0  0  0  0  0  0  0  0
   33.8740   30.5750   32.0000 N   0  0  0  0  0  0  0  0  0  0  0  0
   33.9770   29.4540   32.7530 C   0  0  0  0  0  0  0  0  0  0  0  0
   35.1150   28.7060   32.6670 N   0  0  0  0  0  0  0  0  0  0  0  0
   36.8500   30.5360   30.3920 H   0  0  0  0  0  0  0  0  0  0  0  0
   34.7470   31.8860   30.5720 H   0  0  0  0  0  0  0  0  0  0  0  0
   33.1940   29.1260   33.4190 H   0  0  0  0  0  0  0  0  0  0  0  0
   37.9410   24.0260   33.2470 O   0  0  0  0  0  0  0  0  0  0  0  0
   37.2630   23.5620   33.7920 H   0  0  0  0  0  0  0  0  0  0  0  0
   39.2130   24.6050   35.9460 O   0  0  0  0  0  0  0  0  0  0  0  0
   39.7400   22.8580   39.5080 H   0  0  0  0  0  0  0  0  0  0  0  0
   39.2620   22.6310   38.5930 N   0  0  0  0  0  0  0  0  0  0  0  0
   40.1800   22.7650   37.4940 C   0  0  0  0  0  2  0  0  0  0  0  0
   39.4370   22.3220   36.2290 C   0  0  0  0  0  2  0  0  0  0  0  0
   38.4510   23.4720   35.9730 C   0  0  0  0  0  3  0  0  0  0  0  0
   37.4900   23.4100   37.1340 C   0  0  0  0  0  2  0  0  0  0  0  0
   38.2060   23.6030   38.4530 C   0  0  0  0  0  2  0  0  0  0  0  0
  1  6  1  1  0  0  0
  1  5  1  0  0  0  0
  2  7  1  6  0  0  0
  2  3  1  0  0  0  0
  2  1  1  0  0  0  0
  3  4  1  0  0  0  0
  4  9  1  0  0  0  0
  5 10  1  6  0  0  0
  5  4  1  0  0  0  0
  5 29  1  0  0  0  0
  8  4  1  0  0  0  0
 11 14  1  6  0  0  0
 11 18  1  0  0  0  0
 11 12  1  0  0  0  0
 12 15  1  1  0  0  0
 12  2  1  0  0  0  0
 13 11  1  0  0  0  0
 13 12  1  0  0  0  0
 16 13  1  0  0  0  0
 17 13  1  0  0  0  0
 18 23  1  0  0  0  0
 19 20  1  0  0  0  0
 19 18  2  0  0  0  0
 20 21  2  0  0  0  0
 21 22  1  0  0  0  0
 22 26  1  0  0  0  0
 23 22  2  0  0  0  0
 24 19  1  0  0  0  0
 25 20  1  0  0  0  0
 27 28  1  0  0  0  0
 27  1  1  0  0  0  0
 29 34  1  0  0  0  0
 31 30  1  0  0  0  0
 32 31  1  0  0  0  0
 33 32  1  0  0  0  0
 34 33  1  0  0  0  0
 34 35  1  0  0  0  0
 35 36  1  0  0  0  0
 36 31  1  0  0  0  0
M  END
>  <minimizedAffinity>
-5.46088123

$$$$

 OpenBabel03272508293D

 36 39  0  0  1  0  0  0  0  0999 V2000
   35.7280   25.8340   31.4480 C   0  0  2  0  0  0  0  0  0  0  0  0
   36.6210   27.0610   31.5770 C   0  0  2  0  0  0  0  0  0  0  0  0
   37.5590   26.7320   32.5170 O   0  0  0  0  0  0  0  0  0  0  0  0
   37.7190   25.3880   32.5850 C   0  0  0  0  0  0  0  0  0  0  0  0
   36.8000   24.7440   31.5670 C   0  0  1  0  0  0  0  0  0  0  0  0
   35.0530   25.7070   32.3060 H   0  0  0  0  0  0  0  0  0  0  0  0
   37.1030   27.2300   30.6070 H   0  0  0  0  0  0  0  0  0  0  0  0
   38.7580   25.1120   32.3020 H   0  0  0  0  0  0  0  0  0  0  0  0
   37.5510   24.9500   33.5940 H   0  0  0  0  0  0  0  0  0  0  0  0
   37.3260   24.7370   30.6010 H   0  0  0  0  0  0  0  0  0  0  0  0
   36.1180   29.1080   33.0800 C   0  0  1  0  0  0  0  0  0  0  0  0
   35.7520   28.1920   32.0250 C   0  0  1  0  0  0  0  0  0  0  0  0
   36.0340   29.6030   31.6270 C   0  0  0  0  0  0  0  0  0  0  0  0
   37.1330   29.3220   33.4720 H   0  0  0  0  0  0  0  0  0  0  0  0
   34.6570   27.9230   31.9810 H   0  0  0  0  0  0  0  0  0  0  0  0
   35.2070   30.2770   31.3490 H   0  0  0  0  0  0  0  0  0  0  0  0
   36.9580   29.7520   31.0540 H   0  0  0  0  0  0  0  0  0  0  0  0
   35.0640   29.7560   33.9610 C   0  0  0  0  0  0  0  0  0  0  0  0
   35.4940   30.7260   34.8670 C   0  0  0  0  0  0  0  0  0  0  0  0
   34.4910   31.2630   35.6640 C   0  0  0  0  0  0  0  0  0  0  0  0
   33.1910   30.8480   35.5460 N   0  0  0  0  0  0  0  0  0  0  0  0
   32.8210   29.9020   34.6500 C   0  0  0  0  0  0  0  0  0  0  0  0
   33.7730   29.3490   33.8450 N   0  0  0  0  0  0  0  0  0  0  0  0
   36.5140   31.0310   34.9400 H   0  0  0  0  0  0  0  0  0  0  0  0
   34.7400   32.0280   36.4020 H   0  0  0  0  0  0  0  0  0  0  0  0
   31.8000   29.5680   34.5450 H   0  0  0  0  0  0  0  0  0  0  0  0
   35.0670   25.7590   30.2360 O   0  0  0  0  0  0  0  0  0  0  0  0
   34.2270   25.2640   30.3830 H   0  0  0  0  0  0  0  0  0  0  0  0
   36.2650   23.5470   31.9440 O   0  0  0  0  0  0  0  0  0  0  0  0
   35.4920   20.3220   34.1830 H   0  0  0  0  0  0  0  0  0  0  0  0
   35.9750   20.5360   33.2680 N   0  0  0  0  0  0  0  0  0  0  0  0
   36.9710   21.5590   33.4480 C   0  0  0  0  0  2  0  0  0  0  0  0
   37.6870   21.7320   32.1050 C   0  0  0  0  0  2  0  0  0  0  0  0
   36.6420   22.4430   31.2320 C   0  0  0  0  0  3  0  0  0  0  0  0
   35.5420   21.4260   31.0560 C   0  0  0  0  0  2  0  0  0  0  0  0
   34.9450   21.0250   32.3860 C   0  0  0  0  0  2  0  0  0  0  0  0
  1  5  1  0  0  0  0
  1  2  1  0  0  0  0
  1  6  1  1  0  0  0
  2  7  1  6  0  0  0
  2 12  1  0  0  0  0
  2  3  1  0  0  0  0
  3  4  1  0  0  0  0
  4  9  1  0  0  0  0
  5 10  1  6  0  0  0
  5 29  1  0  0  0  0
  5  4  1  0  0  0  0
  8  4  1  0  0  0  0
 11 14  1  1  0  0  0
 11 18  1  0  0  0  0
 12 15  1  6  0  0  0
 12 11  1  0  0  0  0
 13 12  1  0  0  0  0
 13 11  1  0  0  0  0
 16 13  1  0  0  0  0
 17 13  1  0  0  0  0
 18 19  1  0  0  0  0
 19 24  1  0  0  0  0
 19 20  2  0  0  0  0
 20 25  1  0  0  0  0
 21 20  1  0  0  0  0
 22 21  2  0  0  0  0
 23 18  2  0  0  0  0
 23 22  1  0  0  0  0
 26 22  1  0  0  0  0
 27 28  1  0  0  0  0
 27  1  1  0  0  0  0
 31 32  1  0  0  0  0
 31 30  1  0  0  0  0
 33 32  1  0  0  0  0
 34 29  1  0  0  0  0
 34 33  1  0  0  0  0
 35 34  1  0  0  0  0
 35 36  1  0  0  0  0
 36 31  1  0  0  0  0
M  END
>  <minimizedAffinity>
-5.1089468

$$$$

 OpenBabel03272508293D

 36 39  0  0  1  0  0  0  0  0999 V2000
   39.1750   24.1910   33.5180 C   0  0  2  0  0  0  0  0  0  0  0  0
   38.5060   25.0060   32.4190 C   0  0  2  0  0  0  0  0  0  0  0  0
   37.4420   25.6230   33.0180 O   0  0  0  0  0  0  0  0  0  0  0  0
   37.6530   25.7560   34.3510 C   0  0  0  0  0  0  0  0  0  0  0  0
   39.0160   25.1790   34.6790 C   0  0  1  0  0  0  0  0  0  0  0  0
   38.6030   23.2920   33.7890 H   0  0  0  0  0  0  0  0  0  0  0  0
   39.2270   25.7530   32.0680 H   0  0  0  0  0  0  0  0  0  0  0  0
   37.6820   26.8320   34.6270 H   0  0  0  0  0  0  0  0  0  0  0  0
   36.8700   25.2970   34.9940 H   0  0  0  0  0  0  0  0  0  0  0  0
   39.7620   25.9680   34.5040 H   0  0  0  0  0  0  0  0  0  0  0  0
   37.2720   22.8700   31.6320 C   0  0  1  0  0  0  0  0  0  0  0  0
   38.0710   24.0430   31.3610 C   0  0  1  0  0  0  0  0  0  0  0  0
   36.6740   24.0380   30.8320 C   0  0  0  0  0  0  0  0  0  0  0  0
   36.6290   22.6740   32.5140 H   0  0  0  0  0  0  0  0  0  0  0  0
   38.8550   23.9160   30.5600 H   0  0  0  0  0  0  0  0  0  0  0  0
   36.4890   23.8970   29.7550 H   0  0  0  0  0  0  0  0  0  0  0  0
   35.9830   24.7330   31.3270 H   0  0  0  0  0  0  0  0  0  0  0  0
   37.4060   21.6150   30.7860 C   0  0  0  0  0  0  0  0  0  0  0  0
   36.3630   20.6890   30.8460 C   0  0  0  0  0  0  0  0  0  0  0  0
   36.5540   19.5490   30.0740 C   0  0  0  0  0  0  0  0  0  0  0  0
   37.6890   19.3790   29.3270 N   0  0  0  0  0  0  0  0  0  0  0  0
   38.6750   20.3070   29.3010 C   0  0  0  0  0  0  0  0  0  0  0  0
   38.5290   21.4420   30.0430 N   0  0  0  0  0  0  0  0  0  0  0  0
   35.4890   20.8460   31.4370 H   0  0  0  0  0  0  0  0  0  0  0  0
   35.7880   18.7730   30.0620 H   0  0  0  0  0  0  0  0  0  0  0  0
   39.5740   20.1860   28.7160 H   0  0  0  0  0  0  0  0  0  0  0  0
   40.5070   23.9190   33.2690 O   0  0  0  0  0  0  0  0  0  0  0  0
   40.7300   23.0730   33.7230 H   0  0  0  0  0  0  0  0  0  0  0  0
   39.1050   24.5570   35.8900 O   0  0  0  0  0  0  0  0  0  0  0  0
   39.9950   23.0290   39.4800 H   0  0  0  0  0  0  0  0  0  0  0  0
   39.3920   22.7700   38.6520 N   0  0  0  0  0  0  0  0  0  0  0  0
   40.1670   22.7720   37.4400 C   0  0  0  0  0  2  0  0  0  0  0  0
   39.2450   22.2890   36.3150 C   0  0  0  0  0  2  0  0  0  0  0  0
   38.2950   23.4760   36.0980 C   0  0  0  0  0  3  0  0  0  0  0  0
   37.4900   23.5530   37.3710 C   0  0  0  0  0  2  0  0  0  0  0  0
   38.3790   23.7920   38.5710 C   0  0  0  0  0  2  0  0  0  0  0  0
  1  6  1  1  0  0  0
  1  5  1  0  0  0  0
  2  7  1  6  0  0  0
  2  3  1  0  0  0  0
  2  1  1  0  0  0  0
  3  4  1  0  0  0  0
  4  8  1  0  0  0  0
  4  5  1  0  0  0  0
  4  9  1  0  0  0  0
  5 10  1  6  0  0  0
  5 29  1  0  0  0  0
 11 14  1  1  0  0  0
 12 15  1  6  0  0  0
 12 11  1  0  0  0  0
 12  2  1  0  0  0  0
 13 17  1  0  0  0  0
 13 12  1  0  0  0  0
 13 11  1  0  0  0  0
 16 13  1  0  0  0  0
 18 19  1  0  0  0  0
 18 11  1  0  0  0  0
 19 24  1  0  0  0  0
 20 19  2  0  0  0  0
 21 20  1  0  0  0  0
 22 21  2  0  0  0  0
 22 23  1  0  0  0  0
 23 18  2  0  0  0  0
 25 20  1  0  0  0  0
 26 22  1  0  0  0  0
 27  1  1  0  0  0  0
 27 28  1  0  0  0  0
 29 34  1  0  0  0  0
 31 30  1  0  0  0  0
 32 31  1  0  0  0  0
 33 32  1  0  0  0  0
 34 33  1  0  0  0  0
 34 35  1  0  0  0  0
 35 36  1  0  0  0  0
 36 31  1  0  0  0  0
M  END
>  <minimizedAffinity>
-5.07168961

$$$$

 OpenBabel03272508293D

 36 39  0  0  1  0  0  0  0  0999 V2000
   38.5810   23.2790   33.1850 C   0  0  2  0  0  0  0  0  0  0  0  0
   39.0050   24.0170   34.4480 C   0  0  2  0  0  0  0  0  0  0  0  0
   38.2140   23.5170   35.4460 O   0  0  0  0  0  0  0  0  0  0  0  0
   37.7770   22.2720   35.1340 C   0  0  0  0  0  0  0  0  0  0  0  0
   38.3530   21.8870   33.7860 C   0  0  1  0  0  0  0  0  0  0  0  0
   37.6090   23.6190   32.8010 H   0  0  0  0  0  0  0  0  0  0  0  0
   40.0560   23.7730   34.6430 H   0  0  0  0  0  0  0  0  0  0  0  0
   38.1630   21.5360   35.8720 H   0  0  0  0  0  0  0  0  0  0  0  0
   36.6710   22.1530   35.1340 H   0  0  0  0  0  0  0  0  0  0  0  0
   39.3550   21.4700   33.9590 H   0  0  0  0  0  0  0  0  0  0  0  0
   37.5480   26.1500   34.6240 C   0  0  1  0  0  0  0  0  0  0  0  0
   38.7550   25.4720   34.2120 C   0  0  1  0  0  0  0  0  0  0  0  0
   38.8850   26.4770   35.3090 C   0  0  0  0  0  0  0  0  0  0  0  0
   36.8190   25.8310   35.3960 H   0  0  0  0  0  0  0  0  0  0  0  0
   39.1910   25.8190   33.2310 H   0  0  0  0  0  0  0  0  0  0  0  0
   39.3500   27.4570   35.1120 H   0  0  0  0  0  0  0  0  0  0  0  0
   39.0980   26.0620   36.3030 H   0  0  0  0  0  0  0  0  0  0  0  0
   37.0070   27.3360   33.8440 C   0  0  0  0  0  0  0  0  0  0  0  0
   37.3810   27.4450   32.5040 C   0  0  0  0  0  0  0  0  0  0  0  0
   36.8790   28.5640   31.8500 C   0  0  0  0  0  0  0  0  0  0  0  0
   36.0830   29.4700   32.5010 N   0  0  0  0  0  0  0  0  0  0  0  0
   35.7470   29.3200   33.8040 C   0  0  0  0  0  0  0  0  0  0  0  0
   36.2160   28.2350   34.4840 N   0  0  0  0  0  0  0  0  0  0  0  0
   38.0030   26.7260   32.0210 H   0  0  0  0  0  0  0  0  0  0  0  0
   37.1230   28.7290   30.8000 H   0  0  0  0  0  0  0  0  0  0  0  0
   35.1200   30.0250   34.3280 H   0  0  0  0  0  0  0  0  0  0  0  0
   39.5580   23.2510   32.2090 O   0  0  0  0  0  0  0  0  0  0  0  0
   39.1070   23.1950   31.3340 H   0  0  0  0  0  0  0  0  0  0  0  0
   37.5360   21.1260   33.0030 O   0  0  0  0  0  0  0  0  0  0  0  0
   35.6860   18.4060   30.7230 H   0  0  0  0  0  0  0  0  0  0  0  0
   35.4180   19.2490   31.3010 N   0  0  0  0  0  0  0  0  0  0  0  0
   36.1910   20.3980   30.9110 C   0  0  0  0  0  2  0  0  0  0  0  0
   35.6690   21.5890   31.7210 C   0  0  0  0  0  2  0  0  0  0  0  0
   36.1890   21.3110   33.1400 C   0  0  0  0  0  3  0  0  0  0  0  0
   35.4440   20.0750   33.5790 C   0  0  0  0  0  2  0  0  0  0  0  0
   35.7320   18.9050   32.6650 C   0  0  0  0  0  2  0  0  0  0  0  0
  1  6  1  6  0  0  0
  1  5  1  0  0  0  0
  1  2  1  0  0  0  0
  2  7  1  1  0  0  0
  2  3  1  0  0  0  0
  4  3  1  0  0  0  0
  4  8  1  0  0  0  0
  5 10  1  1  0  0  0
  5  4  1  0  0  0  0
  9  4  1  0  0  0  0
 11 13  1  0  0  0  0
 11 14  1  1  0  0  0
 12 15  1  6  0  0  0
 12  2  1  0  0  0  0
 12 11  1  0  0  0  0
 12 13  1  0  0  0  0
 13 17  1  0  0  0  0
 16 13  1  0  0  0  0
 18 23  1  0  0  0  0
 18 11  1  0  0  0  0
 19 18  2  0  0  0  0
 20 21  2  0  0  0  0
 20 19  1  0  0  0  0
 21 22  1  0  0  0  0
 22 26  1  0  0  0  0
 22 23  2  0  0  0  0
 24 19  1  0  0  0  0
 25 20  1  0  0  0  0
 27  1  1  0  0  0  0
 28 27  1  0  0  0  0
 29 34  1  0  0  0  0
 29  5  1  0  0  0  0
 30 31  1  0  0  0  0
 31 36  1  0  0  0  0
 32 31  1  0  0  0  0
 32 33  1  0  0  0  0
 33 34  1  0  0  0  0
 34 35  1  0  0  0  0
 36 35  1  0  0  0  0
M  END
>  <minimizedAffinity>
-5.0320673

$$$$

 OpenBabel03272508293D

 36 39  0  0  1  0  0  0  0  0999 V2000
   39.9010   26.1730   34.3650 C   0  0  2  0  0  0  0  0  0  0  0  0
   39.1600   26.9410   33.2790 C   0  0  2  0  0  0  0  0  0  0  0  0
   37.8710   26.4830   33.3220 O   0  0  0  0  0  0  0  0  0  0  0  0
   37.5790   25.9870   34.5500 C   0  0  0  0  0  0  0  0  0  0  0  0
   38.8010   26.1460   35.4330 C   0  0  1  0  0  0  0  0  0  0  0  0
   40.0960   25.1270   34.0880 H   0  0  0  0  0  0  0  0  0  0  0  0
   39.1900   28.0060   33.5390 H   0  0  0  0  0  0  0  0  0  0  0  0
   36.7640   26.5810   35.0180 H   0  0  0  0  0  0  0  0  0  0  0  0
   37.2300   24.9310   34.5540 H   0  0  0  0  0  0  0  0  0  0  0  0
   38.7750   27.1590   35.8580 H   0  0  0  0  0  0  0  0  0  0  0  0
   39.4240   27.1910   30.7160 C   0  0  1  0  0  0  0  0  0  0  0  0
   39.8250   26.6180   31.9800 C   0  0  1  0  0  0  0  0  0  0  0  0
   40.7820   27.5640   31.3320 C   0  0  0  0  0  0  0  0  0  0  0  0
   38.8420   28.1190   30.5440 H   0  0  0  0  0  0  0  0  0  0  0  0
   40.1580   25.5410   31.9350 H   0  0  0  0  0  0  0  0  0  0  0  0
   41.6990   27.1840   30.8520 H   0  0  0  0  0  0  0  0  0  0  0  0
   40.8970   28.5320   31.8370 H   0  0  0  0  0  0  0  0  0  0  0  0
   39.5850   26.4200   29.4160 C   0  0  0  0  0  0  0  0  0  0  0  0
   39.5150   25.0290   29.4840 C   0  0  0  0  0  0  0  0  0  0  0  0
   39.6970   24.3780   28.2700 C   0  0  0  0  0  0  0  0  0  0  0  0
   39.9280   25.0780   27.1160 N   0  0  0  0  0  0  0  0  0  0  0  0
   39.9880   26.4310   27.1000 C   0  0  0  0  0  0  0  0  0  0  0  0
   39.8130   27.1110   28.2690 N   0  0  0  0  0  0  0  0  0  0  0  0
   39.3340   24.5070   30.3970 H   0  0  0  0  0  0  0  0  0  0  0  0
   39.6590   23.2880   28.2320 H   0  0  0  0  0  0  0  0  0  0  0  0
   40.1680   26.9950   26.1980 H   0  0  0  0  0  0  0  0  0  0  0  0
   41.0320   26.8210   34.8240 O   0  0  0  0  0  0  0  0  0  0  0  0
   41.6650   26.1340   35.1370 H   0  0  0  0  0  0  0  0  0  0  0  0
   38.9980   25.1430   36.3360 O   0  0  0  0  0  0  0  0  0  0  0  0
   40.2910   22.4260   38.9740 H   0  0  0  0  0  0  0  0  0  0  0  0
   39.5810   22.4760   38.1930 N   0  0  0  0  0  0  0  0  0  0  0  0
   40.1960   22.9370   36.9770 C   0  0  0  0  0  2  0  0  0  0  0  0
   39.1270   22.8810   35.8810 C   0  0  0  0  0  2  0  0  0  0  0  0
   38.1900   24.0450   36.2360 C   0  0  0  0  0  3  0  0  0  0  0  0
   37.5550   23.6340   37.5410 C   0  0  0  0  0  2  0  0  0  0  0  0
   38.5950   23.4360   38.6220 C   0  0  0  0  0  2  0  0  0  0  0  0
  1  6  1  6  0  0  0
  1 27  1  0  0  0  0
  1  5  1  0  0  0  0
  2  3  1  0  0  0  0
  2  7  1  1  0  0  0
  2  1  1  0  0  0  0
  3  4  1  0  0  0  0
  4  9  1  0  0  0  0
  4  8  1  0  0  0  0
  4  5  1  0  0  0  0
  5 10  1  1  0  0  0
  5 29  1  0  0  0  0
 11 14  1  1  0  0  0
 11 13  1  0  0  0  0
 11 12  1  0  0  0  0
 12 15  1  6  0  0  0
 12  2  1  0  0  0  0
 13 17  1  0  0  0  0
 13 12  1  0  0  0  0
 16 13  1  0  0  0  0
 18 19  1  0  0  0  0
 18 11  1  0  0  0  0
 19 24  1  0  0  0  0
 20 19  2  0  0  0  0
 21 20  1  0  0  0  0
 22 21  2  0  0  0  0
 22 23  1  0  0  0  0
 23 18  2  0  0  0  0
 25 20  1  0  0  0  0
 26 22  1  0  0  0  0
 27 28  1  0  0  0  0
 31 36  1  0  0  0  0
 31 30  1  0  0  0  0
 32 31  1  0  0  0  0
 33 34  1  0  0  0  0
 33 32  1  0  0  0  0
 34 29  1  0  0  0  0
 34 35  1  0  0  0  0
 35 36  1  0  0  0  0
M  END
>  <minimizedAffinity>
-4.99452829

$$$$

 OpenBabel03272508293D

 36 39  0  0  1  0  0  0  0  0999 V2000
   36.9920   25.7900   32.8750 C   0  0  2  0  0  0  0  0  0  0  0  0
   37.4270   26.9940   32.0510 C   0  0  2  0  0  0  0  0  0  0  0  0
   38.5430   27.4800   32.6750 O   0  0  0  0  0  0  0  0  0  0  0  0
   39.1550   26.5040   33.3910 C   0  0  0  0  0  0  0  0  0  0  0  0
   38.3730   25.2180   33.2120 C   0  0  1  0  0  0  0  0  0  0  0  0
   36.5270   26.0740   33.8290 H   0  0  0  0  0  0  0  0  0  0  0  0
   37.6830   26.6400   31.0450 H   0  0  0  0  0  0  0  0  0  0  0  0
   40.1760   26.3200   32.9900 H   0  0  0  0  0  0  0  0  0  0  0  0
   39.2880   26.7330   34.4710 H   0  0  0  0  0  0  0  0  0  0  0  0
   38.7300   24.7370   32.2900 H   0  0  0  0  0  0  0  0  0  0  0  0
   36.0760   28.9030   33.1620 C   0  0  1  0  0  0  0  0  0  0  0  0
   36.3000   27.9760   32.0770 C   0  0  1  0  0  0  0  0  0  0  0  0
   36.5150   29.4250   31.7850 C   0  0  0  0  0  0  0  0  0  0  0  0
   36.8050   29.2470   33.9240 H   0  0  0  0  0  0  0  0  0  0  0  0
   35.3670   27.5570   31.6030 H   0  0  0  0  0  0  0  0  0  0  0  0
   35.7850   29.9830   31.1770 H   0  0  0  0  0  0  0  0  0  0  0  0
   37.5610   29.7210   31.6280 H   0  0  0  0  0  0  0  0  0  0  0  0
   34.6750   29.3680   33.5230 C   0  0  0  0  0  0  0  0  0  0  0  0
   34.5390   30.1680   34.6570 C   0  0  0  0  0  0  0  0  0  0  0  0
   33.2330   30.5390   34.9540 C   0  0  0  0  0  0  0  0  0  0  0  0
   32.1840   30.1310   34.1730 N   0  0  0  0  0  0  0  0  0  0  0  0
   32.3670   29.3530   33.0790 C   0  0  0  0  0  0  0  0  0  0  0  0
   33.6330   28.9670   32.7510 N   0  0  0  0  0  0  0  0  0  0  0  0
   35.3740   30.4720   35.2490 H   0  0  0  0  0  0  0  0  0  0  0  0
   33.0350   31.1650   35.8250 H   0  0  0  0  0  0  0  0  0  0  0  0
   31.5500   29.0260   32.4550 H   0  0  0  0  0  0  0  0  0  0  0  0
   36.2320   24.8820   32.1630 O   0  0  0  0  0  0  0  0  0  0  0  0
   35.6370   24.4230   32.8010 H   0  0  0  0  0  0  0  0  0  0  0  0
   38.3310   24.4080   34.3090 O   0  0  0  0  0  0  0  0  0  0  0  0
   38.3950   21.2990   36.8280 H   0  0  0  0  0  0  0  0  0  0  0  0
   38.7490   22.2950   36.8110 N   0  0  0  0  0  0  0  0  0  0  0  0
   37.6790   23.2080   36.5110 C   0  0  0  0  0  2  0  0  0  0  0  0
   38.2540   24.6250   36.6090 C   0  0  0  0  0  2  0  0  0  0  0  0
   39.1410   24.7370   35.3590 C   0  0  0  0  0  3  0  0  0  0  0  0
   40.2590   23.7530   35.6000 C   0  0  0  0  0  2  0  0  0  0  0  0
   39.7280   22.3450   35.7550 C   0  0  0  0  0  2  0  0  0  0  0  0
  1  5  1  0  0  0  0
  1  6  1  1  0  0  0
  2  7  1  6  0  0  0
  2 12  1  0  0  0  0
  2  3  1  0  0  0  0
  2  1  1  0  0  0  0
  3  4  1  0  0  0  0
  4  9  1  0  0  0  0
  5 10  1  6  0  0  0
  5  4  1  0  0  0  0
  5 29  1  0  0  0  0
  8  4  1  0  0  0  0
 11 18  1  0  0  0  0
 11 14  1  1  0  0  0
 12 15  1  6  0  0  0
 12 11  1  0  0  0  0
 13 12  1  0  0  0  0
 13 11  1  0  0  0  0
 16 13  1  0  0  0  0
 17 13  1  0  0  0  0
 18 19  1  0  0  0  0
 19 20  2  0  0  0  0
 19 24  1  0  0  0  0
 20 25  1  0  0  0  0
 21 20  1  0  0  0  0
 22 21  2  0  0  0  0
 23 22  1  0  0  0  0
 23 18  2  0  0  0  0
 26 22  1  0  0  0  0
 27 28  1  0  0  0  0
 27  1  1  0  0  0  0
 29 34  1  0  0  0  0
 31 30  1  0  0  0  0
 32 33  1  0  0  0  0
 32 31  1  0  0  0  0
 34 35  1  0  0  0  0
 34 33  1  0  0  0  0
 35 36  1  0  0  0  0
 36 31  1  0  0  0  0
M  END
>  <minimizedAffinity>
-4.96278572

$$$$

 OpenBabel03272508293D

 36 39  0  0  1  0  0  0  0  0999 V2000
   37.8090   26.2840   34.0410 C   0  0  2  0  0  0  0  0  0  0  0  0
   37.5960   27.7860   34.1810 C   0  0  2  0  0  0  0  0  0  0  0  0
   37.8450   28.0680   35.4970 O   0  0  0  0  0  0  0  0  0  0  0  0
   38.6650   27.1360   36.0410 C   0  0  0  0  0  0  0  0  0  0  0  0
   39.0200   26.1260   34.9680 C   0  0  1  0  0  0  0  0  0  0  0  0
   36.9940   25.6960   34.4850 H   0  0  0  0  0  0  0  0  0  0  0  0
   38.3300   28.2910   33.5430 H   0  0  0  0  0  0  0  0  0  0  0  0
   39.6170   27.6080   36.3680 H   0  0  0  0  0  0  0  0  0  0  0  0
   38.2550   26.6220   36.9390 H   0  0  0  0  0  0  0  0  0  0  0  0
   39.8780   26.5240   34.4080 H   0  0  0  0  0  0  0  0  0  0  0  0
   35.6980   29.3720   33.4190 C   0  0  1  0  0  0  0  0  0  0  0  0
   36.1760   28.0650   33.8080 C   0  0  1  0  0  0  0  0  0  0  0  0
   35.7590   28.2360   32.3840 C   0  0  0  0  0  0  0  0  0  0  0  0
   36.2920   30.2290   33.0440 H   0  0  0  0  0  0  0  0  0  0  0  0
   35.4530   27.4500   34.4170 H   0  0  0  0  0  0  0  0  0  0  0  0
   34.8130   27.7990   32.0260 H   0  0  0  0  0  0  0  0  0  0  0  0
   36.5770   28.2180   31.6510 H   0  0  0  0  0  0  0  0  0  0  0  0
   34.2680   29.8020   33.7010 C   0  0  0  0  0  0  0  0  0  0  0  0
   33.7190   30.7810   32.8720 C   0  0  0  0  0  0  0  0  0  0  0  0
   32.4200   31.1540   33.1960 C   0  0  0  0  0  0  0  0  0  0  0  0
   31.7610   30.5880   34.2550 N   0  0  0  0  0  0  0  0  0  0  0  0
   32.3370   29.6400   35.0320 C   0  0  0  0  0  0  0  0  0  0  0  0
   33.6110   29.2420   34.7490 N   0  0  0  0  0  0  0  0  0  0  0  0
   34.2540   31.2070   32.0540 H   0  0  0  0  0  0  0  0  0  0  0  0
   31.9130   31.9150   32.6000 H   0  0  0  0  0  0  0  0  0  0  0  0
   31.8280   29.1840   35.8680 H   0  0  0  0  0  0  0  0  0  0  0  0
   38.1090   25.8890   32.7510 O   0  0  0  0  0  0  0  0  0  0  0  0
   37.7900   24.9630   32.6390 H   0  0  0  0  0  0  0  0  0  0  0  0
   39.1580   24.8410   35.4040 O   0  0  0  0  0  0  0  0  0  0  0  0
   40.2940   21.4330   37.1680 H   0  0  0  0  0  0  0  0  0  0  0  0
   39.3880   21.9030   36.8950 N   0  0  0  0  0  0  0  0  0  0  0  0
   39.4030   22.2630   35.5020 C   0  0  0  0  0  2  0  0  0  0  0  0
   38.0240   22.8410   35.1700 C   0  0  0  0  0  2  0  0  0  0  0  0
   38.0350   24.2120   35.8620 C   0  0  0  0  0  3  0  0  0  0  0  0
   38.0730   23.8910   37.3360 C   0  0  0  0  0  2  0  0  0  0  0  0
   39.3120   23.1000   37.6950 C   0  0  0  0  0  2  0  0  0  0  0  0
  1  2  1  0  0  0  0
  1  6  1  1  0  0  0
  1  5  1  0  0  0  0
  2  7  1  6  0  0  0
  2  3  1  0  0  0  0
  3  4  1  0  0  0  0
  4  8  1  0  0  0  0
  4  9  1  0  0  0  0
  5 10  1  6  0  0  0
  5 29  1  0  0  0  0
  5  4  1  0  0  0  0
 11 14  1  6  0  0  0
 11 18  1  0  0  0  0
 11 12  1  0  0  0  0
 12  2  1  0  0  0  0
 12 15  1  1  0  0  0
 13 11  1  0  0  0  0
 13 12  1  0  0  0  0
 16 13  1  0  0  0  0
 17 13  1  0  0  0  0
 18 23  1  0  0  0  0
 19 20  1  0  0  0  0
 19 18  2  0  0  0  0
 20 21  2  0  0  0  0
 21 22  1  0  0  0  0
 22 26  1  0  0  0  0
 23 22  2  0  0  0  0
 24 19  1  0  0  0  0
 25 20  1  0  0  0  0
 27  1  1  0  0  0  0
 28 27  1  0  0  0  0
 29 34  1  0  0  0  0
 31 30  1  0  0  0  0
 31 36  1  0  0  0  0
 32 31  1  0  0  0  0
 33 32  1  0  0  0  0
 33 34  1  0  0  0  0
 34 35  1  0  0  0  0
 35 36  1  0  0  0  0
M  END
>  <minimizedAffinity>
-4.90152645

$$$$

 OpenBabel03272508293D

 36 39  0  0  1  0  0  0  0  0999 V2000
   35.2390   30.6260   33.1400 C   0  0  2  0  0  0  0  0  0  0  0  0
   34.7790   29.5530   32.1620 C   0  0  2  0  0  0  0  0  0  0  0  0
   33.6220   29.0500   32.6900 O   0  0  0  0  0  0  0  0  0  0  0  0
   33.0290   29.9600   33.5010 C   0  0  0  0  0  0  0  0  0  0  0  0
   33.8730   31.2190   33.5040 C   0  0  1  0  0  0  0  0  0  0  0  0
   35.6570   30.2070   34.0650 H   0  0  0  0  0  0  0  0  0  0  0  0
   34.5750   30.0380   31.2010 H   0  0  0  0  0  0  0  0  0  0  0  0
   32.0320   30.2400   33.0960 H   0  0  0  0  0  0  0  0  0  0  0  0
   32.8480   29.6090   34.5410 H   0  0  0  0  0  0  0  0  0  0  0  0
   33.5700   31.8240   32.6370 H   0  0  0  0  0  0  0  0  0  0  0  0
   35.6680   27.1980   31.5570 C   0  0  1  0  0  0  0  0  0  0  0  0
   35.8600   28.5220   32.1010 C   0  0  1  0  0  0  0  0  0  0  0  0
   36.5710   28.2050   30.8260 C   0  0  0  0  0  0  0  0  0  0  0  0
   34.8760   26.8570   30.8600 H   0  0  0  0  0  0  0  0  0  0  0  0
   36.5460   28.5790   32.9950 H   0  0  0  0  0  0  0  0  0  0  0  0
   37.6590   28.0310   30.8250 H   0  0  0  0  0  0  0  0  0  0  0  0
   36.1900   28.7240   29.9370 H   0  0  0  0  0  0  0  0  0  0  0  0
   36.4560   26.0090   32.0810 C   0  0  0  0  0  0  0  0  0  0  0  0
   36.3620   24.8140   31.3680 C   0  0  0  0  0  0  0  0  0  0  0  0
   37.0810   23.7550   31.9110 C   0  0  0  0  0  0  0  0  0  0  0  0
   37.8130   23.9080   33.0590 N   0  0  0  0  0  0  0  0  0  0  0  0
   37.8730   25.0900   33.7160 C   0  0  0  0  0  0  0  0  0  0  0  0
   37.1840   26.1560   33.2180 N   0  0  0  0  0  0  0  0  0  0  0  0
   35.7850   24.7210   30.4760 H   0  0  0  0  0  0  0  0  0  0  0  0
   37.0630   22.7830   31.4170 H   0  0  0  0  0  0  0  0  0  0  0  0
   38.4460   25.2240   34.6210 H   0  0  0  0  0  0  0  0  0  0  0  0
   36.0630   31.5760   32.5670 O   0  0  0  0  0  0  0  0  0  0  0  0
   36.6540   31.9260   33.2740 H   0  0  0  0  0  0  0  0  0  0  0  0
   33.9120   31.8880   34.6920 O   0  0  0  0  0  0  0  0  0  0  0  0
   34.0250   34.3990   37.8060 H   0  0  0  0  0  0  0  0  0  0  0  0
   34.2240   33.3770   37.6230 N   0  0  0  0  0  0  0  0  0  0  0  0
   35.1500   33.2290   36.5310 C   0  0  0  0  0  2  0  0  0  0  0  0
   35.4590   31.7340   36.4030 C   0  0  0  0  0  2  0  0  0  0  0  0
   34.1650   31.1510   35.8150 C   0  0  0  0  0  3  0  0  0  0  0  0
   33.1400   31.3310   36.9070 C   0  0  0  0  0  2  0  0  0  0  0  0
   32.9580   32.7920   37.2560 C   0  0  0  0  0  2  0  0  0  0  0  0
  1  5  1  0  0  0  0
  1  6  1  1  0  0  0
  2  7  1  6  0  0  0
  2  3  1  0  0  0  0
  2  1  1  0  0  0  0
  3  4  1  0  0  0  0
  4  5  1  0  0  0  0
  4  9  1  0  0  0  0
  5 10  1  6  0  0  0
  5 29  1  0  0  0  0
  8  4  1  0  0  0  0
 11 14  1  6  0  0  0
 11 18  1  0  0  0  0
 11 12  1  0  0  0  0
 12  2  1  0  0  0  0
 12 15  1  1  0  0  0
 13 11  1  0  0  0  0
 13 12  1  0  0  0  0
 16 13  1  0  0  0  0
 17 13  1  0  0  0  0
 18 23  1  0  0  0  0
 19 20  1  0  0  0  0
 19 18  2  0  0  0  0
 20 21  2  0  0  0  0
 21 22  1  0  0  0  0
 22 26  1  0  0  0  0
 23 22  2  0  0  0  0
 24 19  1  0  0  0  0
 25 20  1  0  0  0  0
 27  1  1  0  0  0  0
 27 28  1  0  0  0  0
 29 34  1  0  0  0  0
 31 30  1  0  0  0  0
 32 31  1  0  0  0  0
 33 32  1  0  0  0  0
 34 33  1  0  0  0  0
 34 35  1  0  0  0  0
 35 36  1  0  0  0  0
 36 31  1  0  0  0  0
M  END
>  <minimizedAffinity>
-4.86286879

$$$$

 OpenBabel03272508293D

 36 39  0  0  1  0  0  0  0  0999 V2000
   36.9450   27.9550   33.2560 C   0  0  2  0  0  0  0  0  0  0  0  0
   35.6820   28.2470   32.4580 C   0  0  2  0  0  0  0  0  0  0  0  0
   36.1130   28.6130   31.2130 O   0  0  0  0  0  0  0  0  0  0  0  0
   37.3390   28.0940   30.9570 C   0  0  0  0  0  0  0  0  0  0  0  0
   37.7710   27.2750   32.1570 C   0  0  1  0  0  0  0  0  0  0  0  0
   37.4890   28.8670   33.5400 H   0  0  0  0  0  0  0  0  0  0  0  0
   35.1000   27.3190   32.3970 H   0  0  0  0  0  0  0  0  0  0  0  0
   37.2860   27.3980   30.0930 H   0  0  0  0  0  0  0  0  0  0  0  0
   38.1170   28.8460   30.6980 H   0  0  0  0  0  0  0  0  0  0  0  0
   37.3440   26.2680   32.0440 H   0  0  0  0  0  0  0  0  0  0  0  0
   35.6180   30.2700   34.0730 C   0  0  1  0  0  0  0  0  0  0  0  0
   34.9700   29.3620   33.1540 C   0  0  1  0  0  0  0  0  0  0  0  0
   35.1150   30.7810   32.7130 C   0  0  0  0  0  0  0  0  0  0  0  0
   36.7000   30.4910   34.1590 H   0  0  0  0  0  0  0  0  0  0  0  0
   33.9110   29.0810   33.4230 H   0  0  0  0  0  0  0  0  0  0  0  0
   34.2380   31.4490   32.6940 H   0  0  0  0  0  0  0  0  0  0  0  0
   35.8340   30.9470   31.9000 H   0  0  0  0  0  0  0  0  0  0  0  0
   34.8560   30.8950   35.2290 C   0  0  0  0  0  0  0  0  0  0  0  0
   35.5290   31.8440   35.9990 C   0  0  0  0  0  0  0  0  0  0  0  0
   34.7930   32.3600   37.0590 C   0  0  0  0  0  0  0  0  0  0  0  0
   33.5100   31.9460   37.3010 N   0  0  0  0  0  0  0  0  0  0  0  0
   32.8990   31.0210   36.5240 C   0  0  0  0  0  0  0  0  0  0  0  0
   33.5840   30.4880   35.4720 N   0  0  0  0  0  0  0  0  0  0  0  0
   36.5300   32.1500   35.7890 H   0  0  0  0  0  0  0  0  0  0  0  0
   35.2420   33.1080   37.7140 H   0  0  0  0  0  0  0  0  0  0  0  0
   31.8880   30.6870   36.7030 H   0  0  0  0  0  0  0  0  0  0  0  0
   36.7370   27.1050   34.3260 O   0  0  0  0  0  0  0  0  0  0  0  0
   37.4110   27.3180   35.0140 H   0  0  0  0  0  0  0  0  0  0  0  0
   39.1060   27.3100   32.4330 O   0  0  0  0  0  0  0  0  0  0  0  0
   42.0020   27.6570   35.1730 H   0  0  0  0  0  0  0  0  0  0  0  0
   41.6890   26.9450   34.4580 N   0  0  0  0  0  0  0  0  0  0  0  0
   41.5830   27.5460   33.1550 C   0  0  0  0  0  2  0  0  0  0  0  0
   41.2260   26.4280   32.1700 C   0  0  0  0  0  2  0  0  0  0  0  0
   39.7600   26.1130   32.5050 C   0  0  0  0  0  3  0  0  0  0  0  0
   39.8080   25.5250   33.8930 C   0  0  0  0  0  2  0  0  0  0  0  0
   40.3840   26.5080   34.8880 C   0  0  0  0  0  2  0  0  0  0  0  0
  1  6  1  1  0  0  0
  1 27  1  0  0  0  0
  2  7  1  6  0  0  0
  2 12  1  0  0  0  0
  2  1  1  0  0  0  0
  3  2  1  0  0  0  0
  4  3  1  0  0  0  0
  4  5  1  0  0  0  0
  5 10  1  6  0  0  0
  5 29  1  0  0  0  0
  5  1  1  0  0  0  0
  8  4  1  0  0  0  0
  9  4  1  0  0  0  0
 11 14  1  1  0  0  0
 11 18  1  0  0  0  0
 12 15  1  1  0  0  0
 12 11  1  0  0  0  0
 13 12  1  0  0  0  0
 13 11  1  0  0  0  0
 16 13  1  0  0  0  0
 17 13  1  0  0  0  0
 18 23  2  0  0  0  0
 18 19  1  0  0  0  0
 19 20  2  0  0  0  0
 20 21  1  0  0  0  0
 20 25  1  0  0  0  0
 22 26  1  0  0  0  0
 22 21  2  0  0  0  0
 23 22  1  0  0  0  0
 24 19  1  0  0  0  0
 27 28  1  0  0  0  0
 29 34  1  0  0  0  0
 31 36  1  0  0  0  0
 31 30  1  0  0  0  0
 32 31  1  0  0  0  0
 33 34  1  0  0  0  0
 33 32  1  0  0  0  0
 34 35  1  0  0  0  0
 35 36  1  0  0  0  0
M  END
>  <minimizedAffinity>
-4.84651804

$$$$
