
 OpenBabel03272507173D

 24 26  0  0  1  0  0  0  0  0999 V2000
   37.7200   27.3260   35.3510 C   0  0  1  0  0  0  0  0  0  0  0  0
   38.2910   26.2170   36.0770 C   0  0  2  0  0  0  0  0  0  0  0  0
   39.2400   27.1190   35.3130 C   0  0  0  0  0  0  0  0  0  0  0  0
   37.3770   28.2380   35.8840 H   0  0  0  0  0  0  0  0  0  0  0  0
   38.3500   26.2520   37.1640 H   0  0  0  0  0  0  0  0  0  0  0  0
   39.6930   26.7150   34.4020 H   0  0  0  0  0  0  0  0  0  0  0  0
   39.8170   27.8710   35.8870 H   0  0  0  0  0  0  0  0  0  0  0  0
   37.0840   27.1370   33.9880 C   0  0  0  0  0  0  0  0  0  0  0  0
   36.4200   28.2410   33.4520 C   0  0  0  0  0  0  0  0  0  0  0  0
   35.8280   28.0310   32.2200 C   0  0  0  0  0  0  0  0  0  0  0  0
   35.9120   26.8080   31.6050 N   0  0  0  0  0  0  0  0  0  0  0  0
   36.5660   25.7660   32.1600 C   0  0  0  0  0  0  0  0  0  0  0  0
   37.1670   25.9270   33.3750 N   0  0  0  0  0  0  0  0  0  0  0  0
   36.3990   29.1670   34.0020 H   0  0  0  0  0  0  0  0  0  0  0  0
   35.3020   28.8640   31.7720 H   0  0  0  0  0  0  0  0  0  0  0  0
   36.5930   24.8320   31.6170 H   0  0  0  0  0  0  0  0  0  0  0  0
   38.1690   24.9170   35.5550 O   0  0  0  0  0  0  0  0  0  0  0  0
   39.6160   21.6240   38.4550 H   0  0  0  0  0  0  0  0  0  0  0  0
   39.6520   22.6580   38.2600 N   0  0  0  0  0  0  0  0  0  0  0  0
   39.7410   22.8010   36.8240 C   0  0  0  0  0  2  0  0  0  0  0  0
   38.3570   22.6910   36.2410 C   0  0  0  0  0  2  0  0  0  0  0  0
   37.6580   24.0300   36.4770 C   0  0  0  0  0  3  0  0  0  0  0  0
   38.0820   24.4850   37.8580 C   0  0  0  0  0  2  0  0  0  0  0  0
   38.4280   23.2560   38.7000 C   0  0  0  0  0  2  0  0  0  0  0  0
  1  4  1  1  0  0  0
  1  2  1  0  0  0  0
  2  5  1  1  0  0  0
  3  1  1  0  0  0  0
  3  7  1  0  0  0  0
  3  2  1  0  0  0  0
  6  3  1  0  0  0  0
  8  1  1  0  0  0  0
  9  8  1  0  0  0  0
  9 14  1  0  0  0  0
 10  9  2  0  0  0  0
 11 12  2  0  0  0  0
 11 10  1  0  0  0  0
 12 13  1  0  0  0  0
 13  8  2  0  0  0  0
 15 10  1  0  0  0  0
 16 12  1  0  0  0  0
 17  2  1  0  0  0  0
 17 22  1  0  0  0  0
 19 18  1  0  0  0  0
 19 24  1  0  0  0  0
 20 19  1  0  0  0  0
 21 22  1  0  0  0  0
 21 20  1  0  0  0  0
 22 23  1  0  0  0  0
 23 24  1  0  0  0  0
M  END
>  <minimizedAffinity>
-5.28362656

$$$$

 OpenBabel03272507173D

 24 26  0  0  1  0  0  0  0  0999 V2000
   38.0830   27.0770   34.2800 C   0  0  1  0  0  0  0  0  0  0  0  0
   37.6800   26.1130   35.2760 C   0  0  2  0  0  0  0  0  0  0  0  0
   38.1900   27.4560   35.7630 C   0  0  0  0  0  0  0  0  0  0  0  0
   37.3250   27.6440   33.6980 H   0  0  0  0  0  0  0  0  0  0  0  0
   36.6230   25.9040   35.4330 H   0  0  0  0  0  0  0  0  0  0  0  0
   39.1800   27.4780   36.2300 H   0  0  0  0  0  0  0  0  0  0  0  0
   37.4440   28.2030   36.0980 H   0  0  0  0  0  0  0  0  0  0  0  0
   39.4400   27.0050   33.6100 C   0  0  0  0  0  0  0  0  0  0  0  0
   39.4450   26.7600   32.2360 C   0  0  0  0  0  0  0  0  0  0  0  0
   40.6980   26.6730   31.6580 C   0  0  0  0  0  0  0  0  0  0  0  0
   41.8290   26.8230   32.4190 N   0  0  0  0  0  0  0  0  0  0  0  0
   41.7790   27.0590   33.7470 C   0  0  0  0  0  0  0  0  0  0  0  0
   40.5630   27.1540   34.3610 N   0  0  0  0  0  0  0  0  0  0  0  0
   38.5100   26.6540   31.7120 H   0  0  0  0  0  0  0  0  0  0  0  0
   40.7430   26.4830   30.5930 H   0  0  0  0  0  0  0  0  0  0  0  0
   42.7110   27.1670   34.2830 H   0  0  0  0  0  0  0  0  0  0  0  0
   38.5250   25.0260   35.5610 O   0  0  0  0  0  0  0  0  0  0  0  0
   39.5700   21.6030   38.4830 H   0  0  0  0  0  0  0  0  0  0  0  0
   39.5900   22.6470   38.3590 N   0  0  0  0  0  0  0  0  0  0  0  0
   39.9360   22.8900   36.9770 C   0  0  0  0  0  2  0  0  0  0  0  0
   38.6920   22.7670   36.1390 C   0  0  0  0  0  2  0  0  0  0  0  0
   37.8960   24.0610   36.3170 C   0  0  0  0  0  3  0  0  0  0  0  0
   38.0340   24.4370   37.7770 C   0  0  0  0  0  2  0  0  0  0  0  0
   38.2780   23.1690   38.5960 C   0  0  0  0  0  2  0  0  0  0  0  0
  1  4  1  6  0  0  0
  1  2  1  0  0  0  0
  1  3  1  0  0  0  0
  2  5  1  1  0  0  0
  2 17  1  0  0  0  0
  2  3  1  0  0  0  0
  3  7  1  0  0  0  0
  3  6  1  0  0  0  0
  8  1  1  0  0  0  0
  8 13  1  0  0  0  0
  9  8  2  0  0  0  0
 10  9  1  0  0  0  0
 10 11  2  0  0  0  0
 11 12  1  0  0  0  0
 12 16  1  0  0  0  0
 12 13  2  0  0  0  0
 14  9  1  0  0  0  0
 15 10  1  0  0  0  0
 17 22  1  0  0  0  0
 19 18  1  0  0  0  0
 19 24  1  0  0  0  0
 20 19  1  0  0  0  0
 21 22  1  0  0  0  0
 21 20  1  0  0  0  0
 22 23  1  0  0  0  0
 23 24  1  0  0  0  0
M  END
>  <minimizedAffinity>
-4.64987469

$$$$

 OpenBabel03272507173D

 24 26  0  0  1  0  0  0  0  0999 V2000
   38.0190   22.7470   32.6420 C   0  0  1  0  0  0  0  0  0  0  0  0
   38.3290   22.5650   34.0400 C   0  0  2  0  0  0  0  0  0  0  0  0
   37.2090   21.7260   33.4530 C   0  0  0  0  0  0  0  0  0  0  0  0
   38.6730   22.3160   31.8530 H   0  0  0  0  0  0  0  0  0  0  0  0
   39.2350   22.0370   34.3310 H   0  0  0  0  0  0  0  0  0  0  0  0
   36.1850   21.9800   33.7450 H   0  0  0  0  0  0  0  0  0  0  0  0
   37.4290   20.6690   33.2050 H   0  0  0  0  0  0  0  0  0  0  0  0
   37.1640   23.9030   32.1640 C   0  0  0  0  0  0  0  0  0  0  0  0
   37.6490   25.1860   32.4220 C   0  0  0  0  0  0  0  0  0  0  0  0
   36.8350   26.2190   31.9970 C   0  0  0  0  0  0  0  0  0  0  0  0
   35.6440   25.9580   31.3720 N   0  0  0  0  0  0  0  0  0  0  0  0
   35.2120   24.6990   31.1410 C   0  0  0  0  0  0  0  0  0  0  0  0
   35.9830   23.6470   31.5420 N   0  0  0  0  0  0  0  0  0  0  0  0
   38.5970   25.3040   32.9200 H   0  0  0  0  0  0  0  0  0  0  0  0
   37.1780   27.2300   32.1810 H   0  0  0  0  0  0  0  0  0  0  0  0
   34.2630   24.5680   30.6420 H   0  0  0  0  0  0  0  0  0  0  0  0
   37.9110   23.5340   34.9680 O   0  0  0  0  0  0  0  0  0  0  0  0
   38.9860   23.3010   39.4560 H   0  0  0  0  0  0  0  0  0  0  0  0
   38.8300   22.7240   38.5910 N   0  0  0  0  0  0  0  0  0  0  0  0
   37.7290   23.3350   37.8810 C   0  0  0  0  0  2  0  0  0  0  0  0
   38.2570   24.4900   37.0730 C   0  0  0  0  0  2  0  0  0  0  0  0
   38.9220   23.9040   35.8270 C   0  0  0  0  0  3  0  0  0  0  0  0
   39.6370   22.6500   36.2870 C   0  0  0  0  0  2  0  0  0  0  0  0
   39.9980   22.7980   37.7660 C   0  0  0  0  0  2  0  0  0  0  0  0
  1  4  1  6  0  0  0
  1  3  1  0  0  0  0
  1  2  1  0  0  0  0
  2  5  1  1  0  0  0
  2 17  1  0  0  0  0
  3  6  1  0  0  0  0
  3  2  1  0  0  0  0
  7  3  1  0  0  0  0
  8  9  1  0  0  0  0
  8  1  1  0  0  0  0
  9 14  1  0  0  0  0
 10 15  1  0  0  0  0
 10  9  2  0  0  0  0
 11 10  1  0  0  0  0
 12 11  2  0  0  0  0
 12 13  1  0  0  0  0
 13  8  2  0  0  0  0
 16 12  1  0  0  0  0
 17 22  1  0  0  0  0
 19 18  1  0  0  0  0
 20 19  1  0  0  0  0
 21 20  1  0  0  0  0
 22 23  1  0  0  0  0
 22 21  1  0  0  0  0
 23 24  1  0  0  0  0
 24 19  1  0  0  0  0
M  END
>  <minimizedAffinity>
-4.5749383

$$$$

 OpenBabel03272507173D

 24 26  0  0  1  0  0  0  0  0999 V2000
   37.5320   26.4350   33.9100 C   0  0  1  0  0  0  0  0  0  0  0  0
   37.9710   25.8720   35.1640 C   0  0  2  0  0  0  0  0  0  0  0  0
   38.8480   26.9310   34.5250 C   0  0  0  0  0  0  0  0  0  0  0  0
   36.7100   27.1820   33.8780 H   0  0  0  0  0  0  0  0  0  0  0  0
   37.4660   26.1470   36.0890 H   0  0  0  0  0  0  0  0  0  0  0  0
   39.7930   26.6000   34.0820 H   0  0  0  0  0  0  0  0  0  0  0  0
   38.8010   27.9600   34.9340 H   0  0  0  0  0  0  0  0  0  0  0  0
   37.7530   25.7120   32.5970 C   0  0  0  0  0  0  0  0  0  0  0  0
   36.7400   24.8470   32.1830 C   0  0  0  0  0  0  0  0  0  0  0  0
   36.9810   24.1820   30.9950 C   0  0  0  0  0  0  0  0  0  0  0  0
   38.1480   24.3880   30.3050 N   0  0  0  0  0  0  0  0  0  0  0  0
   39.1040   25.2360   30.7420 C   0  0  0  0  0  0  0  0  0  0  0  0
   38.9080   25.9150   31.9090 N   0  0  0  0  0  0  0  0  0  0  0  0
   35.8530   24.7410   32.7850 H   0  0  0  0  0  0  0  0  0  0  0  0
   36.2180   23.5000   30.6410 H   0  0  0  0  0  0  0  0  0  0  0  0
   39.9980   25.3490   30.1460 H   0  0  0  0  0  0  0  0  0  0  0  0
   38.5270   24.5810   35.1810 O   0  0  0  0  0  0  0  0  0  0  0  0
   39.6050   21.7340   38.6580 H   0  0  0  0  0  0  0  0  0  0  0  0
   39.6150   22.7400   38.3520 N   0  0  0  0  0  0  0  0  0  0  0  0
   39.9590   22.7400   36.9480 C   0  0  0  0  0  2  0  0  0  0  0  0
   38.7160   22.4600   36.1460 C   0  0  0  0  0  2  0  0  0  0  0  0
   37.9080   23.7570   36.0950 C   0  0  0  0  0  3  0  0  0  0  0  0
   38.0420   24.3860   37.4670 C   0  0  0  0  0  2  0  0  0  0  0  0
   38.2970   23.2830   38.4960 C   0  0  0  0  0  2  0  0  0  0  0  0
  1  4  1  1  0  0  0
  1  3  1  0  0  0  0
  1  2  1  0  0  0  0
  2 17  1  0  0  0  0
  2  5  1  1  0  0  0
  3  7  1  0  0  0  0
  3  2  1  0  0  0  0
  6  3  1  0  0  0  0
  8  1  1  0  0  0  0
  9  8  1  0  0  0  0
  9 14  1  0  0  0  0
 10  9  2  0  0  0  0
 11 12  2  0  0  0  0
 11 10  1  0  0  0  0
 12 13  1  0  0  0  0
 13  8  2  0  0  0  0
 15 10  1  0  0  0  0
 16 12  1  0  0  0  0
 17 22  1  0  0  0  0
 19 24  1  0  0  0  0
 19 18  1  0  0  0  0
 20 19  1  0  0  0  0
 21 20  1  0  0  0  0
 22 21  1  0  0  0  0
 22 23  1  0  0  0  0
 23 24  1  0  0  0  0
M  END
>  <minimizedAffinity>
-4.4651227

$$$$

 OpenBabel03272507173D

 24 26  0  0  1  0  0  0  0  0999 V2000
   39.3190   26.4030   35.5260 C   0  0  1  0  0  0  0  0  0  0  0  0
   39.1050   27.1540   34.3120 C   0  0  2  0  0  0  0  0  0  0  0  0
   38.1470   27.3930   35.4630 C   0  0  0  0  0  0  0  0  0  0  0  0
   40.1360   26.6770   36.2280 H   0  0  0  0  0  0  0  0  0  0  0  0
   39.7750   27.9730   34.0550 H   0  0  0  0  0  0  0  0  0  0  0  0
   37.1310   26.9990   35.3610 H   0  0  0  0  0  0  0  0  0  0  0  0
   38.2890   28.3060   36.0750 H   0  0  0  0  0  0  0  0  0  0  0  0
   38.8480   24.9690   35.6640 C   0  0  0  0  0  0  0  0  0  0  0  0
   38.0300   24.6840   36.7580 C   0  0  0  0  0  0  0  0  0  0  0  0
   37.6380   23.3640   36.8710 C   0  0  0  0  0  0  0  0  0  0  0  0
   38.0470   22.4330   35.9520 N   0  0  0  0  0  0  0  0  0  0  0  0
   38.8390   22.7520   34.9060 C   0  0  0  0  0  0  0  0  0  0  0  0
   39.2500   24.0440   34.7530 N   0  0  0  0  0  0  0  0  0  0  0  0
   37.7550   25.4750   37.4360 H   0  0  0  0  0  0  0  0  0  0  0  0
   37.0030   23.1030   37.7090 H   0  0  0  0  0  0  0  0  0  0  0  0
   39.1220   21.9660   34.2210 H   0  0  0  0  0  0  0  0  0  0  0  0
   38.5350   26.5130   33.1980 O   0  0  0  0  0  0  0  0  0  0  0  0
   35.6970   27.8040   29.7880 H   0  0  0  0  0  0  0  0  0  0  0  0
   36.2720   27.0030   30.1550 N   0  0  0  0  0  0  0  0  0  0  0  0
   37.4890   27.5790   30.6820 C   0  0  0  0  0  2  0  0  0  0  0  0
   37.2200   28.0850   32.0740 C   0  0  0  0  0  2  0  0  0  0  0  0
   37.2200   26.8710   33.0050 C   0  0  0  0  0  3  0  0  0  0  0  0
   36.5320   25.7600   32.2410 C   0  0  0  0  0  2  0  0  0  0  0  0
   35.5640   26.3770   31.2300 C   0  0  0  0  0  2  0  0  0  0  0  0
  1  8  1  0  0  0  0
  1  4  1  1  0  0  0
  2  5  1  6  0  0  0
  2  3  1  0  0  0  0
  2  1  1  0  0  0  0
  3  1  1  0  0  0  0
  3  7  1  0  0  0  0
  6  3  1  0  0  0  0
  8  9  1  0  0  0  0
  9 10  2  0  0  0  0
  9 14  1  0  0  0  0
 10 15  1  0  0  0  0
 11 10  1  0  0  0  0
 12 11  2  0  0  0  0
 13 12  1  0  0  0  0
 13  8  2  0  0  0  0
 16 12  1  0  0  0  0
 17  2  1  0  0  0  0
 18 19  1  0  0  0  0
 19 20  1  0  0  0  0
 19 24  1  0  0  0  0
 20 21  1  0  0  0  0
 21 22  1  0  0  0  0
 22 17  1  0  0  0  0
 23 22  1  0  0  0  0
 24 23  1  0  0  0  0
M  END
>  <minimizedAffinity>
-4.45170259

$$$$

 OpenBabel03272507173D

 24 26  0  0  1  0  0  0  0  0999 V2000
   39.2150   26.5000   35.3200 C   0  0  1  0  0  0  0  0  0  0  0  0
   38.5580   27.1680   34.2220 C   0  0  2  0  0  0  0  0  0  0  0  0
   38.0630   27.4670   35.6240 C   0  0  0  0  0  0  0  0  0  0  0  0
   40.2170   26.8300   35.6680 H   0  0  0  0  0  0  0  0  0  0  0  0
   39.0640   27.9790   33.6980 H   0  0  0  0  0  0  0  0  0  0  0  0
   37.0910   27.0530   35.9120 H   0  0  0  0  0  0  0  0  0  0  0  0
   38.3790   28.4190   36.0940 H   0  0  0  0  0  0  0  0  0  0  0  0
   38.8760   25.0710   35.6950 C   0  0  0  0  0  0  0  0  0  0  0  0
   39.5320   24.0670   34.9820 C   0  0  0  0  0  0  0  0  0  0  0  0
   39.1830   22.7750   35.3280 C   0  0  0  0  0  0  0  0  0  0  0  0
   38.2520   22.5430   36.3080 N   0  0  0  0  0  0  0  0  0  0  0  0
   37.6400   23.5460   36.9730 C   0  0  0  0  0  0  0  0  0  0  0  0
   37.9540   24.8370   36.6660 N   0  0  0  0  0  0  0  0  0  0  0  0
   40.2510   24.3350   34.2260 H   0  0  0  0  0  0  0  0  0  0  0  0
   39.6700   21.9680   34.7970 H   0  0  0  0  0  0  0  0  0  0  0  0
   36.9170   23.2880   37.7340 H   0  0  0  0  0  0  0  0  0  0  0  0
   37.6540   26.4490   33.4210 O   0  0  0  0  0  0  0  0  0  0  0  0
   36.2030   27.1790   29.0950 H   0  0  0  0  0  0  0  0  0  0  0  0
   36.4640   27.6590   29.9940 N   0  0  0  0  0  0  0  0  0  0  0  0
   35.9620   26.8280   31.0650 C   0  0  0  0  0  2  0  0  0  0  0  0
   36.9470   25.7170   31.3170 C   0  0  0  0  0  2  0  0  0  0  0  0
   38.1010   26.3100   32.1250 C   0  0  0  0  0  3  0  0  0  0  0  0
   38.3410   27.6930   31.5560 C   0  0  0  0  0  2  0  0  0  0  0  0
   37.8910   27.7140   30.0940 C   0  0  0  0  0  2  0  0  0  0  0  0
  1  3  1  0  0  0  0
  1  4  1  1  0  0  0
  1  8  1  0  0  0  0
  2  5  1  6  0  0  0
  2  1  1  0  0  0  0
  2  3  1  0  0  0  0
  3  6  1  0  0  0  0
  3  7  1  0  0  0  0
  8 13  1  0  0  0  0
  9 10  1  0  0  0  0
  9  8  2  0  0  0  0
 10 11  2  0  0  0  0
 11 12  1  0  0  0  0
 12 16  1  0  0  0  0
 13 12  2  0  0  0  0
 14  9  1  0  0  0  0
 15 10  1  0  0  0  0
 17  2  1  0  0  0  0
 18 19  1  0  0  0  0
 19 24  1  0  0  0  0
 19 20  1  0  0  0  0
 20 21  1  0  0  0  0
 21 22  1  0  0  0  0
 22 17  1  0  0  0  0
 23 22  1  0  0  0  0
 24 23  1  0  0  0  0
M  END
>  <minimizedAffinity>
-4.38973093

$$$$

 OpenBabel03272507173D

 24 26  0  0  1  0  0  0  0  0999 V2000
   37.6090   24.0130   36.9760 C   0  0  1  0  0  0  0  0  0  0  0  0
   38.5590   23.1650   37.6550 C   0  0  2  0  0  0  0  0  0  0  0  0
   37.9660   24.3210   38.4370 C   0  0  0  0  0  0  0  0  0  0  0  0
   36.5650   23.6740   36.8030 H   0  0  0  0  0  0  0  0  0  0  0  0
   38.2670   22.1630   37.9660 H   0  0  0  0  0  0  0  0  0  0  0  0
   38.6210   25.1720   38.6490 H   0  0  0  0  0  0  0  0  0  0  0  0
   37.1570   24.0980   39.1600 H   0  0  0  0  0  0  0  0  0  0  0  0
   38.0590   25.1120   36.0340 C   0  0  0  0  0  0  0  0  0  0  0  0
   38.2470   24.7520   34.7000 C   0  0  0  0  0  0  0  0  0  0  0  0
   38.6830   25.7690   33.8710 C   0  0  0  0  0  0  0  0  0  0  0  0
   38.9030   27.0270   34.3670 N   0  0  0  0  0  0  0  0  0  0  0  0
   38.7080   27.3340   35.6680 C   0  0  0  0  0  0  0  0  0  0  0  0
   38.2770   26.3620   36.5230 N   0  0  0  0  0  0  0  0  0  0  0  0
   38.0520   23.7380   34.3910 H   0  0  0  0  0  0  0  0  0  0  0  0
   38.8410   25.5270   32.8270 H   0  0  0  0  0  0  0  0  0  0  0  0
   38.9010   28.3470   35.9890 H   0  0  0  0  0  0  0  0  0  0  0  0
   39.9280   23.2950   37.3630 O   0  0  0  0  0  0  0  0  0  0  0  0
   43.8600   21.8430   35.4180 H   0  0  0  0  0  0  0  0  0  0  0  0
   43.4020   22.0690   36.3380 N   0  0  0  0  0  0  0  0  0  0  0  0
   42.5700   23.2290   36.1090 C   0  0  0  0  0  2  0  0  0  0  0  0
   41.2630   22.7770   35.5160 C   0  0  0  0  0  2  0  0  0  0  0  0
   40.4160   22.2170   36.6590 C   0  0  0  0  0  3  0  0  0  0  0  0
   41.3740   21.4590   37.5540 C   0  0  0  0  0  2  0  0  0  0  0  0
   42.5590   20.9750   36.7180 C   0  0  0  0  0  2  0  0  0  0  0  0
  1  4  1  6  0  0  0
  1  2  1  0  0  0  0
  1  3  1  0  0  0  0
  2  5  1  1  0  0  0
  2  3  1  0  0  0  0
  3  6  1  0  0  0  0
  3  7  1  0  0  0  0
  8 13  1  0  0  0  0
  8  1  1  0  0  0  0
  9  8  2  0  0  0  0
 10 11  2  0  0  0  0
 10  9  1  0  0  0  0
 11 12  1  0  0  0  0
 12 16  1  0  0  0  0
 12 13  2  0  0  0  0
 14  9  1  0  0  0  0
 15 10  1  0  0  0  0
 17  2  1  0  0  0  0
 18 19  1  0  0  0  0
 19 24  1  0  0  0  0
 20 19  1  0  0  0  0
 21 20  1  0  0  0  0
 21 22  1  0  0  0  0
 22 17  1  0  0  0  0
 22 23  1  0  0  0  0
 24 23  1  0  0  0  0
M  END
>  <minimizedAffinity>
-4.30036306

$$$$

 OpenBabel03272507173D

 24 26  0  0  1  0  0  0  0  0999 V2000
   36.7040   25.3170   31.2830 C   0  0  1  0  0  0  0  0  0  0  0  0
   36.1520   24.0100   31.0200 C   0  0  2  0  0  0  0  0  0  0  0  0
   35.1940   25.1850   31.0400 C   0  0  0  0  0  0  0  0  0  0  0  0
   37.2670   25.8660   30.4970 H   0  0  0  0  0  0  0  0  0  0  0  0
   36.3220   23.5320   30.0560 H   0  0  0  0  0  0  0  0  0  0  0  0
   34.5150   25.2650   31.8940 H   0  0  0  0  0  0  0  0  0  0  0  0
   34.8520   25.5920   30.0670 H   0  0  0  0  0  0  0  0  0  0  0  0
   37.0170   25.7760   32.6930 C   0  0  0  0  0  0  0  0  0  0  0  0
   36.6240   27.0720   33.0290 C   0  0  0  0  0  0  0  0  0  0  0  0
   36.9460   27.4710   34.3120 C   0  0  0  0  0  0  0  0  0  0  0  0
   37.6050   26.6220   35.1630 N   0  0  0  0  0  0  0  0  0  0  0  0
   37.9680   25.3730   34.7970 C   0  0  0  0  0  0  0  0  0  0  0  0
   37.6700   24.9360   33.5390 N   0  0  0  0  0  0  0  0  0  0  0  0
   36.1100   27.6760   32.3000 H   0  0  0  0  0  0  0  0  0  0  0  0
   36.6580   28.4720   34.6100 H   0  0  0  0  0  0  0  0  0  0  0  0
   38.4840   24.7590   35.5200 H   0  0  0  0  0  0  0  0  0  0  0  0
   35.9920   23.1040   32.0830 O   0  0  0  0  0  0  0  0  0  0  0  0
   36.0000   18.7320   33.5790 H   0  0  0  0  0  0  0  0  0  0  0  0
   35.4340   19.4480   33.0570 N   0  0  0  0  0  0  0  0  0  0  0  0
   35.6460   20.7100   33.7290 C   0  0  0  0  0  2  0  0  0  0  0  0
   36.9380   21.3070   33.2400 C   0  0  0  0  0  2  0  0  0  0  0  0
   36.6640   21.9210   31.8670 C   0  0  0  0  0  3  0  0  0  0  0  0
   35.7240   20.9640   31.1640 C   0  0  0  0  0  2  0  0  0  0  0  0
   35.9390   19.5560   31.7210 C   0  0  0  0  0  2  0  0  0  0  0  0
  1  4  1  6  0  0  0
  1  8  1  0  0  0  0
  2  5  1  6  0  0  0
  2  3  1  0  0  0  0
  2  1  1  0  0  0  0
  2 17  1  0  0  0  0
  3  1  1  0  0  0  0
  3  6  1  0  0  0  0
  7  3  1  0  0  0  0
  8  9  2  0  0  0  0
  8 13  1  0  0  0  0
  9 10  1  0  0  0  0
 10 15  1  0  0  0  0
 10 11  2  0  0  0  0
 12 11  1  0  0  0  0
 12 16  1  0  0  0  0
 13 12  2  0  0  0  0
 14  9  1  0  0  0  0
 19 18  1  0  0  0  0
 19 20  1  0  0  0  0
 21 20  1  0  0  0  0
 22 17  1  0  0  0  0
 22 21  1  0  0  0  0
 23 24  1  0  0  0  0
 23 22  1  0  0  0  0
 24 19  1  0  0  0  0
M  END
>  <minimizedAffinity>
-4.14229298

$$$$

 OpenBabel03272507173D

 24 26  0  0  1  0  0  0  0  0999 V2000
   36.1720   27.9660   33.0550 C   0  0  1  0  0  0  0  0  0  0  0  0
   35.3240   29.0360   33.5210 C   0  0  2  0  0  0  0  0  0  0  0  0
   36.2710   29.3390   32.3760 C   0  0  0  0  0  0  0  0  0  0  0  0
   35.7620   27.1500   32.4210 H   0  0  0  0  0  0  0  0  0  0  0  0
   34.2600   29.0270   33.2880 H   0  0  0  0  0  0  0  0  0  0  0  0
   37.1360   29.9720   32.5940 H   0  0  0  0  0  0  0  0  0  0  0  0
   35.8510   29.3720   31.3510 H   0  0  0  0  0  0  0  0  0  0  0  0
   37.4500   27.5940   33.7790 C   0  0  0  0  0  0  0  0  0  0  0  0
   38.5430   27.2540   32.9810 C   0  0  0  0  0  0  0  0  0  0  0  0
   39.6860   26.8950   33.6700 C   0  0  0  0  0  0  0  0  0  0  0  0
   39.7010   26.8870   35.0410 N   0  0  0  0  0  0  0  0  0  0  0  0
   38.6190   27.2230   35.7760 C   0  0  0  0  0  0  0  0  0  0  0  0
   37.4680   27.5860   35.1380 N   0  0  0  0  0  0  0  0  0  0  0  0
   38.4480   27.2860   31.9090 H   0  0  0  0  0  0  0  0  0  0  0  0
   40.5560   26.6240   33.0850 H   0  0  0  0  0  0  0  0  0  0  0  0
   38.7040   27.1950   36.8520 H   0  0  0  0  0  0  0  0  0  0  0  0
   35.6370   29.6850   34.7290 O   0  0  0  0  0  0  0  0  0  0  0  0
   33.3070   33.0790   36.8260 H   0  0  0  0  0  0  0  0  0  0  0  0
   34.0670   32.3640   36.9600 N   0  0  0  0  0  0  0  0  0  0  0  0
   33.6380   31.1740   36.2610 C   0  0  0  0  0  2  0  0  0  0  0  0
   33.9720   31.3240   34.8010 C   0  0  0  0  0  2  0  0  0  0  0  0
   35.4680   31.0490   34.6470 C   0  0  0  0  0  3  0  0  0  0  0  0
   36.1340   31.6820   35.8520 C   0  0  0  0  0  2  0  0  0  0  0  0
   35.2680   32.8430   36.3450 C   0  0  0  0  0  2  0  0  0  0  0  0
  1  4  1  6  0  0  0
  1  2  1  0  0  0  0
  1  8  1  0  0  0  0
  2  5  1  6  0  0  0
  2 17  1  0  0  0  0
  3  6  1  0  0  0  0
  3  1  1  0  0  0  0
  3  2  1  0  0  0  0
  7  3  1  0  0  0  0
  8 13  1  0  0  0  0
  9 10  1  0  0  0  0
  9  8  2  0  0  0  0
 10 11  2  0  0  0  0
 11 12  1  0  0  0  0
 12 16  1  0  0  0  0
 13 12  2  0  0  0  0
 14  9  1  0  0  0  0
 15 10  1  0  0  0  0
 18 19  1  0  0  0  0
 20 19  1  0  0  0  0
 21 20  1  0  0  0  0
 22 17  1  0  0  0  0
 22 21  1  0  0  0  0
 22 23  1  0  0  0  0
 23 24  1  0  0  0  0
 24 19  1  0  0  0  0
M  END
>  <minimizedAffinity>
-4.12137651

$$$$
