
     RDKit          3D

 45 48  0  0  0  0  0  0  0  0999 V2000
   35.8188   30.5407   49.0772 C   0  0  1  0  0  0  0  0  0  0  0  0
   35.9049   29.1192   48.8383 C   0  0  1  0  0  0  0  0  0  0  0  0
   36.0713   29.5790   50.2494 C   0  0  0  0  0  0  0  0  0  0  0  0
   37.0083   31.4543   48.8293 C   0  0  0  0  0  0  0  0  0  0  0  0
   37.1861   32.5247   49.7051 C   0  0  0  0  0  0  0  0  0  0  0  0
   38.2716   33.3411   49.4117 C   0  0  0  0  0  0  0  0  0  0  0  0
   39.0831   33.0859   48.3382 N   0  0  0  0  0  0  0  0  0  0  0  0
   38.8687   32.0317   47.5153 C   0  0  0  0  0  0  0  0  0  0  0  0
   37.8154   31.2041   47.7658 N   0  0  0  0  0  0  0  0  0  0  0  0
   33.9659   29.0819   47.3779 C   0  0  2  0  0  0  0  0  0  0  0  0
   34.7403   28.2816   48.4172 C   0  0  2  0  0  0  0  0  0  0  0  0
   33.8622   28.0734   49.4451 O   0  0  0  0  0  0  0  0  0  0  0  0
   32.5820   28.1308   49.0024 C   0  0  0  0  0  0  0  0  0  0  0  0
   32.6039   28.3911   47.5089 C   0  0  1  0  0  0  0  0  0  0  0  0
   34.4720   28.9573   46.0980 O   0  0  0  0  0  0  0  0  0  0  0  0
   31.5915   29.1762   47.0423 O   0  0  0  0  0  0  0  0  0  0  0  0
   34.9121   31.1399   49.2949 H   0  0  0  0  0  0  0  0  0  0  0  0
   36.8673   28.7692   48.3636 H   0  0  0  0  0  0  0  0  0  0  0  0
   37.0666   29.5748   50.7206 H   0  0  0  0  0  0  0  0  0  0  0  0
   35.2438   29.3244   50.9252 H   0  0  0  0  0  0  0  0  0  0  0  0
   36.5395   32.7024   50.5348 H   0  0  0  0  0  0  0  0  0  0  0  0
   38.4853   34.2027   50.0456 H   0  0  0  0  0  0  0  0  0  0  0  0
   39.5006   31.8191   46.6655 H   0  0  0  0  0  0  0  0  0  0  0  0
   33.8169   30.1304   47.6726 H   0  0  0  0  0  0  0  0  0  0  0  0
   35.0235   27.3248   47.9630 H   0  0  0  0  0  0  0  0  0  0  0  0
   32.0812   27.1501   49.1517 H   0  0  0  0  0  0  0  0  0  0  0  0
   31.9436   28.8819   49.5190 H   0  0  0  0  0  0  0  0  0  0  0  0
   32.7126   27.4199   47.0036 H   0  0  0  0  0  0  0  0  0  0  0  0
   34.2570   29.7853   45.6075 H   0  0  0  0  0  0  0  0  0  0  0  0
   27.8409   30.4839   47.5314 H   0  0  0  0  0  0  0  0  0  0  0  0
   28.3537   29.8104   46.8991 N   0  0  0  0  0  0  0  0  0  0  0  0
   29.0997   28.8552   47.6750 C   0  0  0  0  0  0  0  0  0  0  0  0
   29.7225   27.8622   46.6895 C   0  0  0  0  0  0  0  0  0  0  0  0
   30.8374   28.6784   46.0169 C   0  0  0  0  0  0  0  0  0  0  0  0
   30.1062   29.7357   45.2273 C   0  0  0  0  0  0  0  0  0  0  0  0
   29.2686   30.6153   46.1296 C   0  0  0  0  0  0  0  0  0  0  0  0
   28.4957   28.3618   48.4380 H   0  0  0  0  0  0  0  0  0  0  0  0
   29.9489   29.3600   48.1832 H   0  0  0  0  0  0  0  0  0  0  0  0
   29.0064   27.4535   45.9779 H   0  0  0  0  0  0  0  0  0  0  0  0
   30.2051   27.0773   47.3208 H   0  0  0  0  0  0  0  0  0  0  0  0
   31.3277   27.9982   45.3230 H   0  0  0  0  0  0  0  0  0  0  0  0
   30.7377   30.3170   44.5572 H   0  0  0  0  0  0  0  0  0  0  0  0
   29.3651   29.1882   44.5840 H   0  0  0  0  0  0  0  0  0  0  0  0
   28.7062   31.2973   45.4445 H   0  0  0  0  0  0  0  0  0  0  0  0
   29.8459   31.2541   46.8052 H   0  0  0  0  0  0  0  0  0  0  0  0
  1  3  1  0
  2  1  1  0
  2  3  1  0
  4  1  1  0
  4  5  2  0
  6  5  1  0
  7  6  2  0
  8  9  2  0
  8  7  1  0
  9  4  1  0
 10 15  1  0
 10 14  1  0
 10 11  1  0
 11  2  1  0
 11 12  1  0
 13 12  1  0
 14 16  1  0
 14 13  1  0
  1 17  1  1
  2 18  1  6
  3 19  1  0
  3 20  1  0
  5 21  1  0
  6 22  1  0
  8 23  1  0
 10 24  1  1
 11 25  1  6
 13 26  1  0
 13 27  1  0
 14 28  1  6
 15 29  1  0
 30 31  1  0
 31 32  1  0
 32 33  1  0
 33 34  1  0
 34 35  1  0
 35 36  1  0
 36 31  1  0
 32 37  1  0
 32 38  1  0
 33 39  1  0
 33 40  1  0
 34 41  1  0
 35 42  1  0
 35 43  1  0
 36 44  1  0
 36 45  1  0
 16 34  1  0
M  ISO  8  17  13  18  13  19  13  20  13  21  14  22  14  23  14  24  13
M  ISO  6  25  13  26  13  27  13  28  13  29   3  30   5
M  END
>  <DihAtoms>  (1) 
13,15,33,32

>  <DihDeg>  (1) 
117.45393295930096

$$$$
