REMARK  Name = 
REMARK  5 active torsions:
REMARK  status: ('A' for Active; 'I' for Inactive)
REMARK    1  A    between atoms: C_1  and  O_14
REMARK    2  A    between atoms: C_2  and  C_8
REMARK    3  A    between atoms: C_6  and  O_15
REMARK    4  A    between atoms: C_9  and  C_13
REMARK    5  A    between atoms: O_15  and  C_29
REMARK                            x       y       z     vdW  Elec       q    Type
REMARK                         _______ _______ _______ _____ _____    ______ ____
ROOT
ATOM      1  C   UNL     1      38.001  31.398  47.636  0.00  0.00    +0.000 A 
ATOM      2  C   UNL     1      37.081  31.328  48.675  0.00  0.00    +0.000 A 
ATOM      3  C   UNL     1      37.192  32.354  49.631  0.00  0.00    +0.000 A 
ATOM      4  C   UNL     1      38.179  33.344  49.494  0.00  0.00    +0.000 A 
ATOM      5  C   UNL     1      39.050  33.319  48.414  0.00  0.00    +0.000 A 
ATOM      6  C   UNL     1      38.962  32.331  47.468  0.00  0.00    +0.000 A 
ATOM      7  H   UNL     1      36.476  32.299  50.439  0.00  0.00    +0.000 HD
ATOM      8  H   UNL     1      38.140  34.057  50.300  0.00  0.00    +0.000 HD
ATOM      9  H   UNL     1      39.711  34.158  48.508  0.00  0.00    +0.000 HD
ENDROOT
BRANCH   2  11
ATOM     10  C   UNL     1      34.937  30.346  47.984  0.00  0.00    +0.000 A 
ATOM     11  C   UNL     1      36.081  30.309  48.795  0.00  0.00    +0.000 A 
ATOM     12  C   UNL     1      36.196  29.259  49.702  0.00  0.00    +0.000 A 
ATOM     13  N   UNL     1      35.192  28.336  49.746  0.00  0.00    +0.000 NA
ATOM     14  C   UNL     1      34.108  28.403  48.952  0.00  0.00    +0.000 A 
ATOM     15  N   UNL     1      33.979  29.411  48.068  0.00  0.00    +0.000 NA
ATOM     16  H   UNL     1      34.774  31.137  47.249  0.00  0.00    +0.000 HD
ATOM     17  H   UNL     1      33.440  27.573  49.151  0.00  0.00    +0.000 HD
BRANCH  12  18
ATOM     18  C   UNL     1      37.374  29.163  50.581  0.00  0.00    +0.000 C 
ATOM     19  H   UNL     1      38.220  29.729  50.113  0.00  0.00    +0.000 HD
ATOM     20  H   UNL     1      37.707  28.119  50.766  0.00  0.00    +0.000 HD
ATOM     21  H   UNL     1      37.134  29.591  51.576  0.00  0.00    +0.000 HD
ENDBRANCH  12  18
ENDBRANCH   2  11
BRANCH   1  22
ATOM     22  O   UNL     1      37.950  30.404  46.640  0.00  0.00    +0.000 OA
ATOM     23  H   UNL     1      37.403  30.520  45.795  0.00  0.00    +0.000 HD
ENDBRANCH   1  22
BRANCH   6  24
ATOM     24  O   UNL     1      39.836  32.337  46.411  0.00  0.00    +0.000 OA
BRANCH  24  29
ATOM     25  H   UNL     1      41.652  31.999  42.821  0.00  0.00    +0.000 HD
ATOM     26  N   UNL     1      41.002  32.218  43.622  0.00  0.00    +0.000 NA
ATOM     27  C   UNL     1      41.026  33.646  43.769  0.00  0.00    +0.000 C 
ATOM     28  C   UNL     1      40.409  34.149  45.049  0.00  0.00    +0.000 C 
ATOM     29  C   UNL     1      40.817  33.303  46.249  0.00  0.00    +0.000 C 
ATOM     30  C   UNL     1      42.069  32.532  45.771  0.00  0.00    +0.000 C 
ATOM     31  C   UNL     1      41.530  31.519  44.775  0.00  0.00    +0.000 C 
ENDBRANCH  24  29
ENDBRANCH   6  24
TORSDOF 5
