
 OpenBabel03272500043D

 27 29  0  0  0  0  0  0  0  0999 V2000
   35.8110   29.2470   49.2920 C   0  0  0  0  0  0  0  0  0  0  0  0
   35.9620   30.2140   48.2720 C   0  0  0  0  0  0  0  0  0  0  0  0
   35.1940   30.0550   47.1270 C   0  0  0  0  0  0  0  0  0  0  0  0
   34.3480   28.9980   47.0370 N   0  0  0  0  0  0  0  0  0  0  0  0
   34.2270   28.1030   48.0160 C   0  0  0  0  0  0  0  0  0  0  0  0
   34.9560   28.2160   49.1540 N   0  0  0  0  0  0  0  0  0  0  0  0
   36.4060   29.3690   50.1830 H   0  0  0  0  0  0  0  0  0  0  0  0
   35.3100   30.7890   46.3550 H   0  0  0  0  0  0  0  0  0  0  0  0
   36.8850   31.2750   48.4930 N   0  0  0  0  0  0  0  0  0  0  0  0
   36.9250   31.9590   49.6410 C   0  0  0  0  0  0  0  0  0  0  0  0
   37.8540   32.9870   49.7940 C   0  0  0  0  0  0  0  0  0  0  0  0
   38.6630   33.2010   48.7180 C   0  0  0  0  0  0  0  0  0  0  0  0
   39.5110   34.1380   48.8560 O   0  0  0  0  0  0  0  0  0  0  0  0
   38.6500   32.5370   47.5610 N   0  0  0  0  0  0  0  0  0  0  0  0
   37.7250   31.5500   47.4730 C   0  0  0  0  0  0  0  0  0  0  0  0
   37.7040   30.9090   46.3710 O   0  0  0  0  0  0  0  0  0  0  0  0
   36.2250   31.7030   50.4460 H   0  0  0  0  0  0  0  0  0  0  0  0
   37.9060   33.5570   50.7140 H   0  0  0  0  0  0  0  0  0  0  0  0
   39.2960   32.7410   46.7610 H   0  0  0  0  0  0  0  0  0  0  0  0
   33.3530   27.0140   47.9220 O   0  0  0  0  0  0  0  0  0  0  0  0
   28.7000   27.8440   48.5540 H   0  0  0  0  0  0  0  0  0  0  0  0
   29.5590   28.4500   48.5540 N   0  0  0  0  0  0  0  0  0  0  0  0
   30.5370   27.7690   49.3680 C   0  0  0  0  0  0  0  0  0  0  0  0
   31.0700   26.6000   48.5350 C   0  0  0  0  0  0  0  0  0  0  0  0
   32.0390   27.1050   47.4830 C   0  0  0  0  0  0  0  0  0  0  0  0
   31.5820   28.5050   47.1400 C   0  0  0  0  0  0  0  0  0  0  0  0
   30.0540   28.4970   47.2010 C   0  0  0  0  0  0  0  0  0  0  0  0
  1  7  1  0  0  0  0
  2  9  1  0  0  0  0
  2  1  2  0  0  0  0
  3  2  1  0  0  0  0
  4  3  2  0  0  0  0
  4  5  1  0  0  0  0
  5  6  2  0  0  0  0
  6  1  1  0  0  0  0
  8  3  1  0  0  0  0
  9 10  1  0  0  0  0
 10 11  2  0  0  0  0
 10 17  1  0  0  0  0
 11 18  1  0  0  0  0
 12 13  2  0  0  0  0
 12 11  1  0  0  0  0
 14 12  1  0  0  0  0
 15 14  1  0  0  0  0
 15  9  1  0  0  0  0
 16 15  2  0  0  0  0
 19 14  1  0  0  0  0
 20  5  1  0  0  0  0
 22 21  1  0  0  0  0
 22 23  1  0  0  0  0
 24 23  1  0  0  0  0
 25 20  1  0  0  0  0
 25 24  1  0  0  0  0
 26 27  1  0  0  0  0
 26 25  1  0  0  0  0
 27 22  1  0  0  0  0
M  END
>  <minimizedAffinity>
-5.81348562

>  <minimizedRMSD>
0.536577106

$$$$
