
     RDKit          3D

 33 35  0  0  0  0  0  0  0  0999 V2000
   37.5270   31.4107   49.3273 C   0  0  0  0  0  0  0  0  0  0  0  0
   38.1565   32.6538   49.3971 C   0  0  0  0  0  0  0  0  0  0  0  0
   38.9388   32.9804   48.3052 C   0  0  0  0  0  0  0  0  0  0  0  0
   39.0589   32.1139   47.2495 N   0  0  0  0  0  0  0  0  0  0  0  0
   38.4313   30.9187   47.2222 C   0  0  0  0  0  0  0  0  0  0  0  0
   37.6488   30.5541   48.2792 N   0  0  0  0  0  0  0  0  0  0  0  0
   36.6387   31.0352   50.4958 C   0  0  1  0  0  0  0  0  0  0  0  0
   36.1363   29.6922   50.6595 C   0  0  2  0  0  0  0  0  0  0  0  0
   37.3470   30.0934   51.4800 C   0  0  0  0  0  0  0  0  0  0  0  0
   36.3928   28.7355   49.6633 O   0  0  0  0  0  0  0  0  0  0  0  0
   38.0094   33.2765   50.2645 H   0  0  0  0  0  0  0  0  0  0  0  0
   39.4445   33.9382   48.3225 H   0  0  0  0  0  0  0  0  0  0  0  0
   38.5716   30.2865   46.3566 H   0  0  0  0  0  0  0  0  0  0  0  0
   36.1149   31.8986   50.9576 H   0  0  0  0  0  0  0  0  0  0  0  0
   35.2094   29.5216   51.2062 H   0  0  0  0  0  0  0  0  0  0  0  0
   38.3115   29.6628   51.1939 H   0  0  0  0  0  0  0  0  0  0  0  0
   37.1902   30.3468   52.5472 H   0  0  0  0  0  0  0  0  0  0  0  0
   32.0854   27.9929   51.1618 H   0  0  0  0  0  0  0  0  0  0  0  0
   32.6715   28.5997   50.5333 N   0  0  0  0  0  0  0  0  0  0  0  0
   33.9203   28.8230   51.2252 C   0  0  0  0  0  0  0  0  0  0  0  0
   34.8189   27.6363   50.9966 C   0  0  0  0  0  0  0  0  0  0  0  0
   35.4060   27.7773   49.5918 C   0  0  0  0  0  0  0  0  0  0  0  0
   34.2862   28.3125   48.7235 C   0  0  0  0  0  0  0  0  0  0  0  0
   32.9457   27.8856   49.3231 C   0  0  0  0  0  0  0  0  0  0  0  0
   33.7734   29.0389   52.3027 H   0  0  0  0  0  0  0  0  0  0  0  0
   34.4208   29.7080   50.7712 H   0  0  0  0  0  0  0  0  0  0  0  0
   34.3422   26.6653   51.1649 H   0  0  0  0  0  0  0  0  0  0  0  0
   35.6706   27.7530   51.6963 H   0  0  0  0  0  0  0  0  0  0  0  0
   35.7769   26.7886   49.2499 H   0  0  0  0  0  0  0  0  0  0  0  0
   34.3244   29.4050   48.6301 H   0  0  0  0  0  0  0  0  0  0  0  0
   34.3658   27.8508   47.7218 H   0  0  0  0  0  0  0  0  0  0  0  0
   33.0133   26.7873   49.5360 H   0  0  0  0  0  0  0  0  0  0  0  0
   32.1662   28.1049   48.5750 H   0  0  0  0  0  0  0  0  0  0  0  0
  1  2  2  0
  1  7  1  0
  3  2  1  0
  4  3  2  0
  5  4  1  0
  5  6  2  0
  6  1  1  0
  7  8  1  0
  7  9  1  0
  8  9  1  0
 10  8  1  0
  2 11  1  0
  3 12  1  0
  5 13  1  0
  7 14  1  1
  8 15  1  1
  9 16  1  0
  9 17  1  0
 18 19  1  0
 19 20  1  0
 20 21  1  0
 21 22  1  0
 22 23  1  0
 23 24  1  0
 24 19  1  0
 20 25  1  0
 20 26  1  0
 21 27  1  0
 21 28  1  0
 22 29  1  0
 23 30  1  0
 23 31  1  0
 24 32  1  0
 24 33  1  0
 10 22  1  0
M  ISO  8  11  14  12  14  13  14  14  13  15  13  16  13  17  13  18   5
M  END
>  <DihAtoms>  (1) 
7,9,21,20

>  <DihDeg>  (1) 
120.41584094338796

$$$$
