
     RDKit          3D

 40 42  0  0  0  0  0  0  0  0999 V2000
   38.0008   31.3981   47.6364 C   0  0  0  0  0  0  0  0  0  0  0  0
   37.0805   31.3285   48.6748 C   0  0  0  0  0  0  0  0  0  0  0  0
   37.1924   32.3536   49.6312 C   0  0  0  0  0  0  0  0  0  0  0  0
   38.1791   33.3444   49.4937 C   0  0  0  0  0  0  0  0  0  0  0  0
   39.0503   33.3195   48.4138 C   0  0  0  0  0  0  0  0  0  0  0  0
   38.9616   32.3313   47.4681 C   0  0  0  0  0  0  0  0  0  0  0  0
   34.9365   30.3464   47.9841 C   0  0  0  0  0  0  0  0  0  0  0  0
   36.0811   30.3092   48.7952 C   0  0  0  0  0  0  0  0  0  0  0  0
   36.1958   29.2594   49.7021 C   0  0  0  0  0  0  0  0  0  0  0  0
   35.1922   28.3360   49.7457 N   0  0  0  0  0  0  0  0  0  0  0  0
   34.1076   28.4026   48.9524 C   0  0  0  0  0  0  0  0  0  0  0  0
   33.9788   29.4114   48.0680 N   0  0  0  0  0  0  0  0  0  0  0  0
   37.3740   29.1633   50.5806 C   0  0  0  0  0  0  0  0  0  0  0  0
   37.9496   30.4035   46.6397 O   0  0  0  0  0  0  0  0  0  0  0  0
   39.8358   32.3369   46.4114 O   0  0  0  0  0  0  0  0  0  0  0  0
   36.4761   32.2989   50.4386 H   0  0  0  0  0  0  0  0  0  0  0  0
   38.1401   34.0574   50.3003 H   0  0  0  0  0  0  0  0  0  0  0  0
   39.7110   34.1577   48.5082 H   0  0  0  0  0  0  0  0  0  0  0  0
   34.7741   31.1373   47.2489 H   0  0  0  0  0  0  0  0  0  0  0  0
   33.4398   27.5733   49.1508 H   0  0  0  0  0  0  0  0  0  0  0  0
   38.2196   29.7293   50.1133 H   0  0  0  0  0  0  0  0  0  0  0  0
   37.7070   28.1194   50.7664 H   0  0  0  0  0  0  0  0  0  0  0  0
   37.1341   29.5912   51.5758 H   0  0  0  0  0  0  0  0  0  0  0  0
   37.4032   30.5195   45.7952 H   0  0  0  0  0  0  0  0  0  0  0  0
   43.4657   30.6648   45.8328 H   0  0  0  0  0  0  0  0  0  0  0  0
   42.4928   31.0590   45.7302 N   0  0  0  0  0  0  0  0  0  0  0  0
   42.6227   32.2127   44.8852 C   0  0  0  0  0  0  0  0  0  0  0  0
   41.4074   33.1028   44.8584 C   0  0  0  0  0  0  0  0  0  0  0  0
   40.8168   33.3028   46.2486 C   0  0  0  0  0  0  0  0  0  0  0  0
   41.9530   32.8931   47.2143 C   0  0  0  0  0  0  0  0  0  0  0  0
   42.0439   31.3836   47.0690 C   0  0  0  0  0  0  0  0  0  0  0  0
   42.7627   31.8249   43.8392 H   0  0  0  0  0  0  0  0  0  0  0  0
   43.5291   32.7840   45.1155 H   0  0  0  0  0  0  0  0  0  0  0  0
   40.6239   32.7659   44.1477 H   0  0  0  0  0  0  0  0  0  0  0  0
   41.7370   34.1007   44.5069 H   0  0  0  0  0  0  0  0  0  0  0  0
   40.5433   34.3456   46.4021 H   0  0  0  0  0  0  0  0  0  0  0  0
   42.8992   33.3822   46.9679 H   0  0  0  0  0  0  0  0  0  0  0  0
   41.6734   33.1397   48.2597 H   0  0  0  0  0  0  0  0  0  0  0  0
   42.6589   30.9276   47.8681 H   0  0  0  0  0  0  0  0  0  0  0  0
   40.9986   30.9860   47.1565 H   0  0  0  0  0  0  0  0  0  0  0  0
  1  2  2  0
  2  8  1  0
  2  3  1  0
  4  3  2  0
  5  4  1  0
  6  1  1  0
  6  5  2  0
  7 12  2  0
  7  8  1  0
  8  9  2  0
  9 10  1  0
  9 13  1  0
 11 10  2  0
 12 11  1  0
 14  1  1  0
 15  6  1  0
  3 16  1  0
  4 17  1  0
  5 18  1  0
  7 19  1  0
 11 20  1  0
 13 21  1  0
 13 22  1  0
 13 23  1  0
 14 24  1  0
 25 26  1  0
 26 27  1  0
 27 28  1  0
 28 29  1  0
 29 30  1  0
 30 31  1  0
 31 26  1  0
 27 32  1  0
 27 33  1  0
 28 34  1  0
 28 35  1  0
 29 36  1  0
 30 37  1  0
 30 38  1  0
 31 39  1  0
 31 40  1  0
 15 29  1  0
M  ISO  8  16  14  17  14  18  14  19  14  20  14  21   8  22   8  23   8
M  ISO  2  24   3  25   5
M  END
>  <DihAtoms>  (1) 
5,14,28,27

>  <DihDeg>  (1) 
-125.46594472554561

$$$$
