
 OpenBabel03272505493D

 38 42  0  0  0  0  0  0  0  0999 V2000
   36.3710   30.4360   45.8760 C   0  0  0  0  0  0  0  0  0  0  0  0
   36.9130   30.7390   47.0900 C   0  0  0  0  0  0  0  0  0  0  0  0
   36.2120   30.4750   48.2590 C   0  0  0  0  0  0  0  0  0  0  0  0
   34.9500   29.8960   48.1540 C   0  0  0  0  0  0  0  0  0  0  0  0
   34.4030   29.5890   46.9170 C   0  0  0  0  0  0  0  0  0  0  0  0
   35.1460   29.8770   45.8300 N   0  0  0  0  0  0  0  0  0  0  0  0
   37.8960   31.1880   47.1480 H   0  0  0  0  0  0  0  0  0  0  0  0
   36.6370   30.7130   49.2350 H   0  0  0  0  0  0  0  0  0  0  0  0
   34.3600   29.6680   49.0340 H   0  0  0  0  0  0  0  0  0  0  0  0
   37.1260   30.7200   44.6030 C   0  0  0  0  0  0  0  0  0  0  0  0
   36.9170   29.8090   43.4610 C   0  0  0  0  0  0  0  0  0  0  0  0
   36.3390   31.2030   43.4290 C   0  0  0  0  0  0  0  0  0  0  0  0
   37.7290   29.6360   42.7290 H   0  0  0  0  0  0  0  0  0  0  0  0
   36.2460   28.9360   43.5610 H   0  0  0  0  0  0  0  0  0  0  0  0
   35.2410   31.2680   43.5650 H   0  0  0  0  0  0  0  0  0  0  0  0
   36.7810   31.9640   42.7770 H   0  0  0  0  0  0  0  0  0  0  0  0
   39.7390   33.3050   44.9770 C   0  0  0  0  0  0  0  0  0  0  0  0
   40.8560   32.5550   45.3560 C   0  0  0  0  0  0  0  0  0  0  0  0
   40.7170   31.1500   45.4830 C   0  0  0  0  0  0  0  0  0  0  0  0
   39.5050   30.6050   45.2330 N   0  0  0  0  0  0  0  0  0  0  0  0
   38.4340   31.3640   44.8660 C   0  0  0  0  0  0  0  0  0  0  0  0
   38.5520   32.6930   44.7410 N   0  0  0  0  0  0  0  0  0  0  0  0
   39.8710   34.3760   44.8860 H   0  0  0  0  0  0  0  0  0  0  0  0
   41.8360   32.9520   45.5630 H   0  0  0  0  0  0  0  0  0  0  0  0
   41.4890   30.4680   45.7640 H   0  0  0  0  0  0  0  0  0  0  0  0
   33.0830   28.9810   46.7470 C   0  0  0  0  0  0  0  0  0  0  0  0
   32.4760   28.4770   45.6360 N   0  0  0  0  0  0  0  0  0  0  0  0
   31.2430   28.0230   46.0040 C   0  0  0  0  0  0  0  0  0  0  0  0
   31.0920   28.2440   47.3250 N   0  0  0  0  0  0  0  0  0  0  0  0
   32.2010   28.8220   47.7790 N   0  0  0  0  0  0  0  0  0  0  0  0
   30.5950   27.5870   45.2870 H   0  0  0  0  0  0  0  0  0  0  0  0
   27.0610   27.5310   50.0630 H   0  0  0  0  0  0  0  0  0  0  0  0
   27.9220   27.4450   49.5120 N   0  0  0  0  0  0  0  0  0  0  0  0
   29.1080   27.1480   50.2530 C   0  0  0  0  0  2  0  0  0  0  0  0
   30.2610   27.0130   49.2720 C   0  0  0  0  0  2  0  0  0  0  0  0
   29.9380   27.9130   48.1020 C   0  0  0  0  0  3  0  0  0  0  0  0
   28.8830   27.1740   47.2920 C   0  0  0  0  0  2  0  0  0  0  0  0
   27.7990   26.7500   48.2670 C   0  0  0  0  0  2  0  0  0  0  0  0
  1  2  1  0  0  0  0
  2  7  1  0  0  0  0
  2  3  2  0  0  0  0
  3  8  1  0  0  0  0
  4  3  1  0  0  0  0
  4  9  1  0  0  0  0
  5  4  2  0  0  0  0
  6  1  2  0  0  0  0
  6  5  1  0  0  0  0
 10 21  1  0  0  0  0
 10  1  1  0  0  0  0
 11 14  1  0  0  0  0
 11 10  1  0  0  0  0
 12 11  1  0  0  0  0
 12 15  1  0  0  0  0
 12 10  1  0  0  0  0
 13 11  1  0  0  0  0
 16 12  1  0  0  0  0
 17 18  1  0  0  0  0
 18 19  2  0  0  0  0
 18 24  1  0  0  0  0
 19 25  1  0  0  0  0
 20 19  1  0  0  0  0
 21 20  2  0  0  0  0
 22 21  1  0  0  0  0
 22 17  2  0  0  0  0
 23 17  1  0  0  0  0
 26  5  1  0  0  0  0
 26 30  2  0  0  0  0
 27 28  2  0  0  0  0
 27 26  1  0  0  0  0
 28 29  1  0  0  0  0
 29 30  1  0  0  0  0
 29 36  1  0  0  0  0
 31 28  1  0  0  0  0
 33 32  1  0  0  0  0
 33 34  1  0  0  0  0
 35 34  1  0  0  0  0
 36 35  1  0  0  0  0
 37 36  1  0  0  0  0
 37 38  1  0  0  0  0
 38 33  1  0  0  0  0
M  END
>  <minimizedAffinity>
-5.82944775

>  <minimizedRMSD>
1.20561552

$$$$
