REMARK  Name = 
REMARK  6 active torsions:
REMARK  status: ('A' for Active; 'I' for Inactive)
REMARK    1  A    between atoms: C_1  and  O_8
REMARK    2  A    between atoms: C_2  and  N_7
REMARK    3  A    between atoms: O_8  and  P_10
REMARK    4  A    between atoms: P_10  and  O_11
REMARK    5  A    between atoms: P_10  and  O_12
REMARK    6  A    between atoms: O_12  and  C_22
REMARK                            x       y       z     vdW  Elec       q    Type
REMARK                         _______ _______ _______ _____ _____    ______ ____
ROOT
ATOM      1  O   UNL     1      34.734  30.944  48.957  0.00  0.00    +0.000 OA
ENDROOT
BRANCH   1   2
ATOM      2  C   UNL     1      35.951  30.795  49.626  0.00  0.00    +0.000 A 
ATOM      3  C   UNL     1      36.227  29.898  50.654  0.00  0.00    +0.000 A 
ATOM      4  C   UNL     1      37.497  29.889  51.202  0.00  0.00    +0.000 A 
ATOM      5  N   UNL     1      38.441  30.760  50.719  0.00  0.00    +0.000 NA
ATOM      6  C   UNL     1      38.124  31.626  49.706  0.00  0.00    +0.000 A 
ATOM      7  N   UNL     1      36.888  31.644  49.162  0.00  0.00    +0.000 NA
ATOM      8  H   UNL     1      37.633  29.183  51.977  0.00  0.00    +0.000 HD
ATOM      9  H   UNL     1      38.920  32.286  49.374  0.00  0.00    +0.000 HD
BRANCH   3  10
ATOM     10  N   UNL     1      35.139  29.080  51.022  0.00  0.00    +0.000 N 
ATOM     11  H   UNL     1      35.533  28.146  50.779  0.00  0.00    +0.000 HD
ATOM     12  H   UNL     1      34.195  29.273  51.423  0.00  0.00    +0.000 HD
ENDBRANCH   3  10
ENDBRANCH   1   2
BRANCH   1  14
ATOM     13  O   UNL     1      35.521  30.097  46.538  0.00  0.00    +0.000 OA
ATOM     14  P   UNL     1      34.366  30.071  47.521  0.00  0.00    +0.000 P 
BRANCH  14  15
ATOM     15  O   UNL     1      33.993  28.498  47.990  0.00  0.00    +0.000 OA
ATOM     16  H   UNL     1      33.464  28.504  48.801  0.00  0.00    +0.000 HD
ENDBRANCH  14  15
BRANCH  14  17
ATOM     17  O   UNL     1      33.086  30.819  46.716  0.00  0.00    +0.000 OA
BRANCH  17  22
ATOM     18  H   UNL     1      32.584  27.471  48.082  0.00  0.00    +0.000 HD
ATOM     19  N   UNL     1      31.702  27.389  47.560  0.00  0.00    +0.000 NA
ATOM     20  C   UNL     1      30.740  28.416  47.871  0.00  0.00    +0.000 C 
ATOM     21  C   UNL     1      31.091  29.780  47.395  0.00  0.00    +0.000 C 
ATOM     22  C   UNL     1      32.105  29.892  46.315  0.00  0.00    +0.000 C 
ATOM     23  C   UNL     1      32.802  28.647  45.902  0.00  0.00    +0.000 C 
ATOM     24  C   UNL     1      31.977  27.396  46.141  0.00  0.00    +0.000 C 
ENDBRANCH  17  22
ENDBRANCH  14  17
ENDBRANCH   1  14
TORSDOF 6
