
     RDKit          3D

 33 34  0  0  0  0  0  0  0  0999 V2000
   35.9506   30.7949   49.6257 C   0  0  0  0  0  0  0  0  0  0  0  0
   36.2268   29.8980   50.6536 C   0  0  0  0  0  0  0  0  0  0  0  0
   37.4966   29.8893   51.2019 C   0  0  0  0  0  0  0  0  0  0  0  0
   38.4414   30.7600   50.7194 N   0  0  0  0  0  0  0  0  0  0  0  0
   38.1242   31.6256   49.7059 C   0  0  0  0  0  0  0  0  0  0  0  0
   36.8882   31.6441   49.1619 N   0  0  0  0  0  0  0  0  0  0  0  0
   35.1391   29.0797   51.0222 N   0  0  0  0  0  0  0  0  0  0  0  0
   34.7339   30.9444   48.9570 O   0  0  0  0  0  0  0  0  0  0  0  0
   35.5207   30.0967   46.5385 O   0  0  0  0  0  0  0  0  0  0  0  0
   34.3663   30.0709   47.5207 P   0  0  1  0  0  0  0  0  0  0  0  0
   33.9932   28.4983   47.9897 O   0  0  0  0  0  0  0  0  0  0  0  0
   33.0859   30.8190   46.7156 O   0  0  0  0  0  0  0  0  0  0  0  0
   37.6329   29.1832   51.9766 H   0  0  0  0  0  0  0  0  0  0  0  0
   38.9201   32.2858   49.3738 H   0  0  0  0  0  0  0  0  0  0  0  0
   35.5332   28.1463   50.7788 H   0  0  0  0  0  0  0  0  0  0  0  0
   34.1947   29.2735   51.4230 H   0  0  0  0  0  0  0  0  0  0  0  0
   33.4638   28.5040   48.8011 H   0  0  0  0  0  0  0  0  0  0  0  0
   33.3754   27.1811   46.8150 H   0  0  0  0  0  0  0  0  0  0  0  0
   32.3752   27.0946   46.5935 N   0  0  0  0  0  0  0  0  0  0  0  0
   31.5068   27.7474   47.5411 C   0  0  0  0  0  0  0  0  0  0  0  0
   31.5548   29.2324   47.5271 C   0  0  0  0  0  0  0  0  0  0  0  0
   32.1046   29.8919   46.3149 C   0  0  0  0  0  0  0  0  0  0  0  0
   32.7076   29.0171   45.2773 C   0  0  0  0  0  0  0  0  0  0  0  0
   32.1256   27.6153   45.2690 C   0  0  0  0  0  0  0  0  0  0  0  0
   30.4773   27.3968   47.3099 H   0  0  0  0  0  0  0  0  0  0  0  0
   31.7596   27.3198   48.5407 H   0  0  0  0  0  0  0  0  0  0  0  0
   32.1088   29.5457   48.4524 H   0  0  0  0  0  0  0  0  0  0  0  0
   30.5265   29.6190   47.6949 H   0  0  0  0  0  0  0  0  0  0  0  0
   31.3353   30.5403   45.8025 H   0  0  0  0  0  0  0  0  0  0  0  0
   33.7957   28.8988   45.5018 H   0  0  0  0  0  0  0  0  0  0  0  0
   32.5978   29.4334   44.2563 H   0  0  0  0  0  0  0  0  0  0  0  0
   31.0744   27.5891   44.9794 H   0  0  0  0  0  0  0  0  0  0  0  0
   32.7516   27.0309   44.5631 H   0  0  0  0  0  0  0  0  0  0  0  0
  1  2  2  0
  2  7  1  0
  2  3  1  0
  4  3  2  0
  5  4  1  0
  6  1  1  0
  6  5  2  0
  8  1  1  0
  9 10  2  0
 10 11  1  1
 10  8  1  0
 12 10  1  0
  3 13  1  0
  5 14  1  0
  7 15  1  0
  7 16  1  0
 11 17  1  0
 18 19  1  0
 19 20  1  0
 20 21  1  0
 21 22  1  0
 22 23  1  0
 23 24  1  0
 24 19  1  0
 20 25  1  0
 20 26  1  0
 21 27  1  0
 21 28  1  0
 22 29  1  0
 23 30  1  0
 23 31  1  0
 24 32  1  0
 24 33  1  0
 12 22  1  0
M  ISO  4  13  14  14  14  17   3  18   5
M  END
>  <DihAtoms>  (1) 
9,11,21,20

>  <DihDeg>  (1) 
-118.7996029013143

$$$$
