
     RDKit          3D

 47 51  0  0  0  0  0  0  0  0999 V2000
   37.1466   30.7268   44.9103 C   0  0  0  0  0  0  0  0  0  0  0  0
   36.8456   29.7431   43.8520 C   0  0  0  0  0  0  0  0  0  0  0  0
   36.2556   31.1313   43.7812 C   0  0  0  0  0  0  0  0  0  0  0  0
   39.7496   33.3474   44.9549 C   0  0  0  0  0  0  0  0  0  0  0  0
   40.9134   32.6156   45.2135 C   0  0  0  0  0  0  0  0  0  0  0  0
   40.8083   31.2113   45.3744 C   0  0  0  0  0  0  0  0  0  0  0  0
   39.5831   30.6491   45.2693 N   0  0  0  0  0  0  0  0  0  0  0  0
   38.4672   31.3902   45.0164 C   0  0  0  0  0  0  0  0  0  0  0  0
   38.5533   32.7177   44.8624 N   0  0  0  0  0  0  0  0  0  0  0  0
   36.5079   30.5241   46.2604 C   0  0  0  0  0  0  0  0  0  0  0  0
   37.1423   30.9261   47.3982 C   0  0  0  0  0  0  0  0  0  0  0  0
   36.5468   30.7357   48.6389 C   0  0  0  0  0  0  0  0  0  0  0  0
   35.2946   30.1277   48.6838 C   0  0  0  0  0  0  0  0  0  0  0  0
   34.6552   29.7213   47.5225 C   0  0  0  0  0  0  0  0  0  0  0  0
   35.2973   29.9407   46.3589 N   0  0  0  0  0  0  0  0  0  0  0  0
   33.3404   29.0779   47.5098 C   0  0  0  0  0  0  0  0  0  0  0  0
   32.3570   29.0900   46.5670 N   0  0  0  0  0  0  0  0  0  0  0  0
   31.3225   28.3322   47.0331 C   0  0  0  0  0  0  0  0  0  0  0  0
   31.6643   27.8593   48.2479 N   0  0  0  0  0  0  0  0  0  0  0  0
   32.8820   28.3065   48.5409 N   0  0  0  0  0  0  0  0  0  0  0  0
   37.5926   29.5254   43.0642 H   0  0  0  0  0  0  0  0  0  0  0  0
   36.1944   28.8774   44.0660 H   0  0  0  0  0  0  0  0  0  0  0  0
   35.1738   31.2016   44.0079 H   0  0  0  0  0  0  0  0  0  0  0  0
   36.6340   31.8491   43.0446 H   0  0  0  0  0  0  0  0  0  0  0  0
   39.8566   34.4189   44.8359 H   0  0  0  0  0  0  0  0  0  0  0  0
   41.9049   33.0275   45.3039 H   0  0  0  0  0  0  0  0  0  0  0  0
   41.6163   30.5425   45.5741 H   0  0  0  0  0  0  0  0  0  0  0  0
   38.1146   31.3964   47.3399 H   0  0  0  0  0  0  0  0  0  0  0  0
   37.0456   31.0537   49.5563 H   0  0  0  0  0  0  0  0  0  0  0  0
   34.7868   29.9558   49.6254 H   0  0  0  0  0  0  0  0  0  0  0  0
   30.4445   28.2051   46.4522 H   0  0  0  0  0  0  0  0  0  0  0  0
   29.1107   24.6341   50.9558 H   0  0  0  0  0  0  0  0  0  0  0  0
   29.4730   25.4562   50.4616 N   0  0  0  0  0  0  0  0  0  0  0  0
   28.7274   25.8716   49.3145 C   0  0  0  0  0  0  0  0  0  0  0  0
   29.3830   27.1196   48.7478 C   0  0  0  0  0  0  0  0  0  0  0  0
   30.8541   27.0206   49.0771 C   0  0  0  0  0  0  0  0  0  0  0  0
   30.9717   27.3724   50.5526 C   0  0  0  0  0  0  0  0  0  0  0  0
   29.9522   26.5217   51.2886 C   0  0  0  0  0  0  0  0  0  0  0  0
   28.8472   25.0787   48.5239 H   0  0  0  0  0  0  0  0  0  0  0  0
   27.6424   25.9988   49.4989 H   0  0  0  0  0  0  0  0  0  0  0  0
   28.9614   27.9907   49.3126 H   0  0  0  0  0  0  0  0  0  0  0  0
   29.1581   27.2036   47.6785 H   0  0  0  0  0  0  0  0  0  0  0  0
   31.1679   25.9379   49.0142 H   0  0  0  0  0  0  0  0  0  0  0  0
   32.0065   27.2043   50.9138 H   0  0  0  0  0  0  0  0  0  0  0  0
   30.7072   28.4529   50.6530 H   0  0  0  0  0  0  0  0  0  0  0  0
   29.1672   27.1515   51.7379 H   0  0  0  0  0  0  0  0  0  0  0  0
   30.4679   26.0334   52.1581 H   0  0  0  0  0  0  0  0  0  0  0  0
  1  8  1  0
  1 10  1  0
  2  1  1  0
  3  2  1  0
  3  1  1  0
  4  5  2  0
  5  6  1  0
  7  6  2  0
  8  7  1  0
  9  4  1  0
  9  8  2  0
 10 15  1  0
 10 11  2  0
 11 12  1  0
 12 13  2  0
 14 13  1  0
 15 14  2  0
 16 14  1  0
 16 20  2  0
 17 18  2  0
 17 16  1  0
 18 19  1  0
 19 20  1  0
  2 21  1  0
  2 22  1  0
  3 23  1  0
  3 24  1  0
  4 25  1  0
  5 26  1  0
  6 27  1  0
 11 28  1  0
 12 29  1  0
 13 30  1  0
 18 31  1  0
 32 33  1  0
 33 34  1  0
 34 35  1  0
 35 36  1  0
 36 37  1  0
 37 38  1  0
 38 33  1  0
 34 39  1  0
 34 40  1  0
 35 41  1  0
 35 42  1  0
 36 43  1  0
 37 44  1  0
 37 45  1  0
 38 46  1  0
 38 47  1  0
 19 36  1  0
M  ISO  8  21  13  22  13  23  13  24  13  25  14  26  14  27  14  28  14
M  ISO  4  29  14  30  14  31  14  32   5
M  END
>  <DihAtoms>  (1) 
17,18,35,34

>  <DihDeg>  (1) 
-22.29027580705153

$$$$
