
 OpenBabel03272507263D

 35 37  0  0  1  0  0  0  0  0999 V2000
   35.8810   28.9040   31.1420 C   0  0  0  0  0  0  0  0  0  0  0  0
   36.2840   28.4390   32.4180 C   0  0  0  0  0  0  0  0  0  0  0  0
   37.5200   27.7930   32.5150 C   0  0  0  0  0  0  0  0  0  0  0  0
   38.2590   27.6480   31.3990 N   0  0  0  0  0  0  0  0  0  0  0  0
   37.8490   28.1040   30.1800 C   0  0  0  0  0  0  0  0  0  0  0  0
   36.6600   28.7280   30.0700 N   0  0  0  0  0  0  0  0  0  0  0  0
   37.9820   27.3070   33.7520 N   0  0  0  0  0  0  0  0  0  0  0  0
   37.6330   27.8790   35.0580 C   0  0  0  0  0  0  0  0  0  0  0  0
   38.5290   27.2220   36.0580 C   0  0  0  0  0  0  0  0  0  0  0  0
   39.6250   26.6760   35.2230 C   0  0  0  0  0  0  0  0  0  0  0  0
   38.8540   26.1980   34.0050 C   0  0  2  0  0  0  0  0  0  0  0  0
   34.9180   29.4090   31.0490 H   0  0  0  0  0  0  0  0  0  0  0  0
   35.6460   28.5880   33.2670 H   0  0  0  0  0  0  0  0  0  0  0  0
   38.4630   27.9750   29.2960 H   0  0  0  0  0  0  0  0  0  0  0  0
   37.7850   28.9770   34.9730 H   0  0  0  0  0  0  0  0  0  0  0  0
   36.5790   27.6910   35.2890 H   0  0  0  0  0  0  0  0  0  0  0  0
   38.0630   26.5760   36.7860 H   0  0  0  0  0  0  0  0  0  0  0  0
   38.9820   28.0600   36.6520 H   0  0  0  0  0  0  0  0  0  0  0  0
   40.1470   25.8170   35.7000 H   0  0  0  0  0  0  0  0  0  0  0  0
   40.3340   27.4650   34.9190 H   0  0  0  0  0  0  0  0  0  0  0  0
   39.7350   25.7370   32.9160 C   0  0  0  0  0  0  0  0  0  0  0  0
   40.6470   24.8610   33.4880 F   0  0  0  0  0  0  0  0  0  0  0  0
   40.4590   26.6910   32.2860 F   0  0  0  0  0  0  0  0  0  0  0  0
   38.9460   24.9650   32.0760 F   0  0  0  0  0  0  0  0  0  0  0  0
   37.9500   25.0690   34.3950 C   0  0  0  0  0  0  0  0  0  0  0  0
   37.5270   24.6200   33.4490 H   0  0  0  0  0  0  0  0  0  0  0  0
   37.0540   25.5210   34.8740 H   0  0  0  0  0  0  0  0  0  0  0  0
   38.6180   24.2780   35.0430 O   0  0  0  0  0  0  0  0  0  0  0  0
   39.4880   23.2610   39.5180 H   0  0  0  0  0  0  0  0  0  0  0  0
   39.1050   22.7260   38.7090 N   0  0  0  0  0  0  0  0  0  0  0  0
   37.7450   23.0830   38.3610 C   0  0  0  0  0  2  0  0  0  0  0  0
   37.7670   24.1130   37.2450 C   0  0  0  0  0  2  0  0  0  0  0  0
   38.1710   23.3870   35.9820 C   0  0  0  0  0  3  0  0  0  0  0  0
   39.2660   22.4290   36.3320 C   0  0  0  0  0  2  0  0  0  0  0  0
   40.0210   22.8410   37.5920 C   0  0  0  0  0  2  0  0  0  0  0  0
  1  2  1  0  0  0  0
  2  3  2  0  0  0  0
  2 13  1  0  0  0  0
  3  7  1  0  0  0  0
  4  3  1  0  0  0  0
  5  4  2  0  0  0  0
  6  5  1  0  0  0  0
  6  1  2  0  0  0  0
  7 11  1  0  0  0  0
  7  8  1  0  0  0  0
  8 16  1  0  0  0  0
  8  9  1  0  0  0  0
  9 18  1  0  0  0  0
  9 17  1  0  0  0  0
 10 19  1  0  0  0  0
 10  9  1  0  0  0  0
 11 21  1  6  0  0  0
 11 25  1  0  0  0  0
 11 10  1  0  0  0  0
 12  1  1  0  0  0  0
 14  5  1  0  0  0  0
 15  8  1  0  0  0  0
 20 10  1  0  0  0  0
 21 22  1  0  0  0  0
 23 21  1  0  0  0  0
 24 21  1  0  0  0  0
 25 27  1  0  0  0  0
 25 28  1  0  0  0  0
 26 25  1  0  0  0  0
 28 33  1  0  0  0  0
 30 29  1  0  0  0  0
 31 30  1  0  0  0  0
 32 31  1  0  0  0  0
 33 34  1  0  0  0  0
 33 32  1  0  0  0  0
 34 35  1  0  0  0  0
 35 30  1  0  0  0  0
M  END
>  <minimizedAffinity>
-5.68952036

$$$$

 OpenBabel03272507263D

 35 37  0  0  1  0  0  0  0  0999 V2000
   38.7490   27.6180   29.3140 C   0  0  0  0  0  0  0  0  0  0  0  0
   38.2280   27.3990   30.6130 C   0  0  0  0  0  0  0  0  0  0  0  0
   39.1310   27.3670   31.6790 C   0  0  0  0  0  0  0  0  0  0  0  0
   40.4400   27.5450   31.4180 N   0  0  0  0  0  0  0  0  0  0  0  0
   40.9180   27.7540   30.1570 C   0  0  0  0  0  0  0  0  0  0  0  0
   40.0590   27.7870   29.1200 N   0  0  0  0  0  0  0  0  0  0  0  0
   38.6830   27.1550   32.9960 N   0  0  0  0  0  0  0  0  0  0  0  0
   37.3570   27.5340   33.4990 C   0  0  0  0  0  0  0  0  0  0  0  0
   37.4030   27.3550   34.9820 C   0  0  0  0  0  0  0  0  0  0  0  0
   38.8560   27.3370   35.2760 C   0  0  0  0  0  0  0  0  0  0  0  0
   39.3830   26.5480   34.0890 C   0  0  2  0  0  0  0  0  0  0  0  0
   38.0560   27.6450   28.4700 H   0  0  0  0  0  0  0  0  0  0  0  0
   37.1730   27.2650   30.7510 H   0  0  0  0  0  0  0  0  0  0  0  0
   41.9770   27.8950   29.9730 H   0  0  0  0  0  0  0  0  0  0  0  0
   37.1870   28.5850   33.1790 H   0  0  0  0  0  0  0  0  0  0  0  0
   36.5820   26.9040   33.0500 H   0  0  0  0  0  0  0  0  0  0  0  0
   36.7800   26.5820   35.4040 H   0  0  0  0  0  0  0  0  0  0  0  0
   37.0140   28.3170   35.4130 H   0  0  0  0  0  0  0  0  0  0  0  0
   39.1000   26.8030   36.2210 H   0  0  0  0  0  0  0  0  0  0  0  0
   39.2860   28.3520   35.2590 H   0  0  0  0  0  0  0  0  0  0  0  0
   40.8560   26.5050   34.0410 C   0  0  0  0  0  0  0  0  0  0  0  0
   41.2840   26.1340   35.3080 F   0  0  0  0  0  0  0  0  0  0  0  0
   41.4800   27.6710   33.7490 F   0  0  0  0  0  0  0  0  0  0  0  0
   41.1900   25.4500   33.2050 F   0  0  0  0  0  0  0  0  0  0  0  0
   38.8700   25.1420   34.1540 C   0  0  0  0  0  0  0  0  0  0  0  0
   39.3010   24.5740   33.2780 H   0  0  0  0  0  0  0  0  0  0  0  0
   37.7850   25.1810   33.9110 H   0  0  0  0  0  0  0  0  0  0  0  0
   39.2060   24.6830   35.2340 O   0  0  0  0  0  0  0  0  0  0  0  0
   39.3750   23.0750   39.6160 H   0  0  0  0  0  0  0  0  0  0  0  0
   39.0020   22.7030   38.7160 N   0  0  0  0  0  0  0  0  0  0  0  0
   37.7710   23.3340   38.2870 C   0  0  0  0  0  2  0  0  0  0  0  0
   38.0940   24.4510   37.3100 C   0  0  0  0  0  2  0  0  0  0  0  0
   38.5100   23.7960   36.0130 C   0  0  0  0  0  3  0  0  0  0  0  0
   39.3810   22.6260   36.3460 C   0  0  0  0  0  2  0  0  0  0  0  0
   40.0460   22.7640   37.7130 C   0  0  0  0  0  2  0  0  0  0  0  0
  1  2  1  0  0  0  0
  2 13  1  0  0  0  0
  2  3  2  0  0  0  0
  3  7  1  0  0  0  0
  4  3  1  0  0  0  0
  5  4  2  0  0  0  0
  6  1  2  0  0  0  0
  6  5  1  0  0  0  0
  7  8  1  0  0  0  0
  7 11  1  0  0  0  0
  8  9  1  0  0  0  0
  9 10  1  0  0  0  0
  9 17  1  0  0  0  0
  9 18  1  0  0  0  0
 10 19  1  0  0  0  0
 11 21  1  6  0  0  0
 11 25  1  0  0  0  0
 11 10  1  0  0  0  0
 12  1  1  0  0  0  0
 14  5  1  0  0  0  0
 15  8  1  0  0  0  0
 16  8  1  0  0  0  0
 20 10  1  0  0  0  0
 21 22  1  0  0  0  0
 23 21  1  0  0  0  0
 24 21  1  0  0  0  0
 25 28  1  0  0  0  0
 26 25  1  0  0  0  0
 27 25  1  0  0  0  0
 28 33  1  0  0  0  0
 30 29  1  0  0  0  0
 31 30  1  0  0  0  0
 32 31  1  0  0  0  0
 33 34  1  0  0  0  0
 33 32  1  0  0  0  0
 34 35  1  0  0  0  0
 35 30  1  0  0  0  0
M  END
>  <minimizedAffinity>
-5.58679342

$$$$

 OpenBabel03272507263D

 35 37  0  0  1  0  0  0  0  0999 V2000
   42.6780   21.7330   36.1200 C   0  0  0  0  0  0  0  0  0  0  0  0
   42.3210   22.9350   35.4610 C   0  0  0  0  0  0  0  0  0  0  0  0
   41.1400   23.5700   35.8590 C   0  0  0  0  0  0  0  0  0  0  0  0
   40.4100   23.0090   36.8430 N   0  0  0  0  0  0  0  0  0  0  0  0
   40.7750   21.8500   37.4620 C   0  0  0  0  0  0  0  0  0  0  0  0
   41.9100   21.2270   37.0880 N   0  0  0  0  0  0  0  0  0  0  0  0
   40.7260   24.7670   35.2490 N   0  0  0  0  0  0  0  0  0  0  0  0
   41.6300   25.7600   34.6560 C   0  0  0  0  0  0  0  0  0  0  0  0
   40.7950   26.9630   34.3560 C   0  0  0  0  0  0  0  0  0  0  0  0
   39.5970   26.7630   35.2050 C   0  0  0  0  0  0  0  0  0  0  0  0
   39.3930   25.2640   35.0730 C   0  0  2  0  0  0  0  0  0  0  0  0
   43.5970   21.2250   35.8190 H   0  0  0  0  0  0  0  0  0  0  0  0
   42.9490   23.3270   34.6850 H   0  0  0  0  0  0  0  0  0  0  0  0
   40.1700   21.4190   38.2510 H   0  0  0  0  0  0  0  0  0  0  0  0
   42.4310   25.9450   35.4050 H   0  0  0  0  0  0  0  0  0  0  0  0
   42.0910   25.3630   33.7450 H   0  0  0  0  0  0  0  0  0  0  0  0
   40.6560   27.2190   33.3170 H   0  0  0  0  0  0  0  0  0  0  0  0
   41.3490   27.8320   34.8040 H   0  0  0  0  0  0  0  0  0  0  0  0
   38.7010   27.3010   34.8220 H   0  0  0  0  0  0  0  0  0  0  0  0
   39.8010   27.0120   36.2600 H   0  0  0  0  0  0  0  0  0  0  0  0
   38.3320   24.7520   35.9600 C   0  0  0  0  0  0  0  0  0  0  0  0
   37.2310   25.5770   35.7790 F   0  0  0  0  0  0  0  0  0  0  0  0
   38.6040   24.7560   37.2860 F   0  0  0  0  0  0  0  0  0  0  0  0
   37.9630   23.5140   35.4530 F   0  0  0  0  0  0  0  0  0  0  0  0
   39.0320   24.9290   33.6590 C   0  0  0  0  0  0  0  0  0  0  0  0
   38.6610   23.8620   33.6370 H   0  0  0  0  0  0  0  0  0  0  0  0
   39.9830   24.8700   33.0860 H   0  0  0  0  0  0  0  0  0  0  0  0
   38.1880   25.7350   33.2990 O   0  0  0  0  0  0  0  0  0  0  0  0
   34.5080   26.4390   30.5100 H   0  0  0  0  0  0  0  0  0  0  0  0
   35.5220   26.2560   30.3490 N   0  0  0  0  0  0  0  0  0  0  0  0
   36.3740   27.3950   30.6250 C   0  0  0  0  0  2  0  0  0  0  0  0
   36.9170   27.2830   32.0380 C   0  0  0  0  0  2  0  0  0  0  0  0
   37.9560   26.1850   32.0260 C   0  0  0  0  0  3  0  0  0  0  0  0
   37.4320   25.0650   31.1830 C   0  0  0  0  0  2  0  0  0  0  0  0
   35.9100   25.0710   31.0860 C   0  0  0  0  0  2  0  0  0  0  0  0
  1  6  1  0  0  0  0
  2  3  1  0  0  0  0
  2  1  2  0  0  0  0
  3  4  2  0  0  0  0
  4  5  1  0  0  0  0
  5 14  1  0  0  0  0
  6  5  2  0  0  0  0
  7  3  1  0  0  0  0
  8  7  1  0  0  0  0
  8 15  1  0  0  0  0
  9  8  1  0  0  0  0
  9 18  1  0  0  0  0
  9 10  1  0  0  0  0
 10 20  1  0  0  0  0
 11 25  1  6  0  0  0
 11 10  1  0  0  0  0
 11  7  1  0  0  0  0
 11 21  1  0  0  0  0
 12  1  1  0  0  0  0
 13  2  1  0  0  0  0
 16  8  1  0  0  0  0
 17  9  1  0  0  0  0
 19 10  1  0  0  0  0
 21 23  1  0  0  0  0
 22 21  1  0  0  0  0
 24 21  1  0  0  0  0
 26 25  1  0  0  0  0
 27 25  1  0  0  0  0
 28 25  1  0  0  0  0
 30 29  1  0  0  0  0
 30 31  1  0  0  0  0
 30 35  1  0  0  0  0
 31 32  1  0  0  0  0
 33 32  1  0  0  0  0
 33 28  1  0  0  0  0
 34 33  1  0  0  0  0
 35 34  1  0  0  0  0
M  END
>  <minimizedAffinity>
-5.43046665

$$$$

 OpenBabel03272507263D

 35 37  0  0  1  0  0  0  0  0999 V2000
   35.7350   25.5560   31.5140 C   0  0  0  0  0  0  0  0  0  0  0  0
   36.8370   26.0440   32.2590 C   0  0  0  0  0  0  0  0  0  0  0  0
   38.0170   25.2940   32.2420 C   0  0  0  0  0  0  0  0  0  0  0  0
   38.0440   24.1550   31.5230 N   0  0  0  0  0  0  0  0  0  0  0  0
   36.9680   23.7050   30.8150 C   0  0  0  0  0  0  0  0  0  0  0  0
   35.8240   24.4170   30.8220 N   0  0  0  0  0  0  0  0  0  0  0  0
   39.1510   25.7190   32.9570 N   0  0  0  0  0  0  0  0  0  0  0  0
   39.4750   27.1200   33.2530 C   0  0  0  0  0  0  0  0  0  0  0  0
   40.8660   27.1240   33.8010 C   0  0  0  0  0  0  0  0  0  0  0  0
   41.4080   25.8180   33.3550 C   0  0  0  0  0  0  0  0  0  0  0  0
   40.1930   24.9220   33.5330 C   0  0  2  0  0  0  0  0  0  0  0  0
   34.8060   26.1300   31.5180 H   0  0  0  0  0  0  0  0  0  0  0  0
   36.7480   26.9600   32.8090 H   0  0  0  0  0  0  0  0  0  0  0  0
   37.0150   22.7850   30.2440 H   0  0  0  0  0  0  0  0  0  0  0  0
   39.3680   27.6780   32.2980 H   0  0  0  0  0  0  0  0  0  0  0  0
   38.7650   27.5330   33.9780 H   0  0  0  0  0  0  0  0  0  0  0  0
   40.9870   27.4080   34.8350 H   0  0  0  0  0  0  0  0  0  0  0  0
   41.4180   27.9040   33.2120 H   0  0  0  0  0  0  0  0  0  0  0  0
   42.2410   25.4540   33.9960 H   0  0  0  0  0  0  0  0  0  0  0  0
   41.6920   25.8390   32.2900 H   0  0  0  0  0  0  0  0  0  0  0  0
   40.4060   23.5610   33.0080 C   0  0  0  0  0  0  0  0  0  0  0  0
   40.7880   23.7020   31.6810 F   0  0  0  0  0  0  0  0  0  0  0  0
   39.3290   22.7410   33.0150 F   0  0  0  0  0  0  0  0  0  0  0  0
   41.5170   23.0570   33.6680 F   0  0  0  0  0  0  0  0  0  0  0  0
   39.8530   24.8210   34.9880 C   0  0  0  0  0  0  0  0  0  0  0  0
   39.9750   25.8470   35.4460 H   0  0  0  0  0  0  0  0  0  0  0  0
   40.6680   24.2390   35.4730 H   0  0  0  0  0  0  0  0  0  0  0  0
   38.7110   24.3950   35.0650 O   0  0  0  0  0  0  0  0  0  0  0  0
   39.7710   23.2480   39.4670 H   0  0  0  0  0  0  0  0  0  0  0  0
   39.2030   22.8030   38.7130 N   0  0  0  0  0  0  0  0  0  0  0  0
   37.9260   23.4490   38.4840 C   0  0  0  0  0  2  0  0  0  0  0  0
   38.0650   24.4400   37.3410 C   0  0  0  0  0  2  0  0  0  0  0  0
   38.1740   23.6320   36.0680 C   0  0  0  0  0  3  0  0  0  0  0  0
   39.0620   22.4600   36.3410 C   0  0  0  0  0  2  0  0  0  0  0  0
   40.0080   22.7050   37.5130 C   0  0  0  0  0  2  0  0  0  0  0  0
  1 12  1  0  0  0  0
  1  2  1  0  0  0  0
  2 13  1  0  0  0  0
  3  2  2  0  0  0  0
  3  7  1  0  0  0  0
  4  3  1  0  0  0  0
  5  6  1  0  0  0  0
  5  4  2  0  0  0  0
  6  1  2  0  0  0  0
  7  8  1  0  0  0  0
  7 11  1  0  0  0  0
  8  9  1  0  0  0  0
  8 16  1  0  0  0  0
  9 17  1  0  0  0  0
 10 11  1  0  0  0  0
 10  9  1  0  0  0  0
 10 19  1  0  0  0  0
 11 21  1  6  0  0  0
 11 25  1  0  0  0  0
 14  5  1  0  0  0  0
 15  8  1  0  0  0  0
 18  9  1  0  0  0  0
 20 10  1  0  0  0  0
 21 23  1  0  0  0  0
 21 24  1  0  0  0  0
 22 21  1  0  0  0  0
 25 28  1  0  0  0  0
 25 26  1  0  0  0  0
 25 27  1  0  0  0  0
 28 33  1  0  0  0  0
 30 29  1  0  0  0  0
 31 30  1  0  0  0  0
 32 31  1  0  0  0  0
 33 34  1  0  0  0  0
 33 32  1  0  0  0  0
 34 35  1  0  0  0  0
 35 30  1  0  0  0  0
M  END
>  <minimizedAffinity>
-5.05830765

$$$$

 OpenBabel03272507263D

 35 37  0  0  1  0  0  0  0  0999 V2000
   36.6210   28.2280   34.6300 C   0  0  0  0  0  0  0  0  0  0  0  0
   37.8240   27.5220   34.8710 C   0  0  0  0  0  0  0  0  0  0  0  0
   38.4220   26.8670   33.7900 C   0  0  0  0  0  0  0  0  0  0  0  0
   37.8270   26.9420   32.5840 N   0  0  0  0  0  0  0  0  0  0  0  0
   36.6670   27.6290   32.3770 C   0  0  0  0  0  0  0  0  0  0  0  0
   36.0790   28.2640   33.4090 N   0  0  0  0  0  0  0  0  0  0  0  0
   39.6190   26.1480   33.9580 N   0  0  0  0  0  0  0  0  0  0  0  0
   40.6450   26.4530   34.9630 C   0  0  0  0  0  0  0  0  0  0  0  0
   41.8320   25.6110   34.6230 C   0  0  0  0  0  0  0  0  0  0  0  0
   41.5870   25.2370   33.2090 C   0  0  0  0  0  0  0  0  0  0  0  0
   40.0860   25.0090   33.2230 C   0  0  2  0  0  0  0  0  0  0  0  0
   36.1400   28.7440   35.4640 H   0  0  0  0  0  0  0  0  0  0  0  0
   38.2450   27.5030   35.8570 H   0  0  0  0  0  0  0  0  0  0  0  0
   36.2080   27.6740   31.3960 H   0  0  0  0  0  0  0  0  0  0  0  0
   40.8370   27.5460   34.8960 H   0  0  0  0  0  0  0  0  0  0  0  0
   40.2750   26.2260   35.9690 H   0  0  0  0  0  0  0  0  0  0  0  0
   42.1020   24.8350   35.3230 H   0  0  0  0  0  0  0  0  0  0  0  0
   42.7060   26.3150   34.6090 H   0  0  0  0  0  0  0  0  0  0  0  0
   42.1090   24.3000   32.9130 H   0  0  0  0  0  0  0  0  0  0  0  0
   41.8240   26.0680   32.5240 H   0  0  0  0  0  0  0  0  0  0  0  0
   39.5320   24.7670   31.8790 C   0  0  0  0  0  0  0  0  0  0  0  0
   40.2650   23.7250   31.3290 F   0  0  0  0  0  0  0  0  0  0  0  0
   39.6110   25.7980   31.0040 F   0  0  0  0  0  0  0  0  0  0  0  0
   38.2510   24.2690   32.0660 F   0  0  0  0  0  0  0  0  0  0  0  0
   39.7660   23.8270   34.0870 C   0  0  0  0  0  0  0  0  0  0  0  0
   40.6600   23.6280   34.7480 H   0  0  0  0  0  0  0  0  0  0  0  0
   39.7490   22.9350   33.4230 H   0  0  0  0  0  0  0  0  0  0  0  0
   38.7560   24.1000   34.7170 O   0  0  0  0  0  0  0  0  0  0  0  0
   39.7480   23.4130   39.2290 H   0  0  0  0  0  0  0  0  0  0  0  0
   39.2170   22.8770   38.5080 N   0  0  0  0  0  0  0  0  0  0  0  0
   37.9230   23.4440   38.1910 C   0  0  0  0  0  2  0  0  0  0  0  0
   38.0500   24.3290   36.9640 C   0  0  0  0  0  2  0  0  0  0  0  0
   38.2250   23.4120   35.7750 C   0  0  0  0  0  3  0  0  0  0  0  0
   39.1520   22.3080   36.1770 C   0  0  0  0  0  2  0  0  0  0  0  0
   40.0560   22.7010   37.3400 C   0  0  0  0  0  2  0  0  0  0  0  0
  1  2  1  0  0  0  0
  1 12  1  0  0  0  0
  2 13  1  0  0  0  0
  3  7  1  0  0  0  0
  3  2  2  0  0  0  0
  4  3  1  0  0  0  0
  5  4  2  0  0  0  0
  5  6  1  0  0  0  0
  6  1  2  0  0  0  0
  7  8  1  0  0  0  0
  8 16  1  0  0  0  0
  9  8  1  0  0  0  0
  9 17  1  0  0  0  0
 10 11  1  0  0  0  0
 10  9  1  0  0  0  0
 11 21  1  6  0  0  0
 11  7  1  0  0  0  0
 11 25  1  0  0  0  0
 14  5  1  0  0  0  0
 15  8  1  0  0  0  0
 18  9  1  0  0  0  0
 19 10  1  0  0  0  0
 20 10  1  0  0  0  0
 21 24  1  0  0  0  0
 22 21  1  0  0  0  0
 23 21  1  0  0  0  0
 25 28  1  0  0  0  0
 25 26  1  0  0  0  0
 27 25  1  0  0  0  0
 28 33  1  0  0  0  0
 30 29  1  0  0  0  0
 31 30  1  0  0  0  0
 32 31  1  0  0  0  0
 33 34  1  0  0  0  0
 33 32  1  0  0  0  0
 34 35  1  0  0  0  0
 35 30  1  0  0  0  0
M  END
>  <minimizedAffinity>
-5.04504013

$$$$

 OpenBabel03272507263D

 35 37  0  0  1  0  0  0  0  0999 V2000
   42.1830   24.8460   30.2290 C   0  0  0  0  0  0  0  0  0  0  0  0
   40.8650   24.9120   30.7450 C   0  0  0  0  0  0  0  0  0  0  0  0
   40.6600   25.6550   31.9110 C   0  0  0  0  0  0  0  0  0  0  0  0
   41.7180   26.2640   32.4800 N   0  0  0  0  0  0  0  0  0  0  0  0
   42.9790   26.1840   31.9640 C   0  0  0  0  0  0  0  0  0  0  0  0
   43.1920   25.4720   30.8410 N   0  0  0  0  0  0  0  0  0  0  0  0
   39.3770   25.7650   32.4770 N   0  0  0  0  0  0  0  0  0  0  0  0
   38.1210   25.6990   31.7210 C   0  0  0  0  0  0  0  0  0  0  0  0
   37.0380   26.1070   32.6670 C   0  0  0  0  0  0  0  0  0  0  0  0
   37.7760   26.8140   33.7410 C   0  0  0  0  0  0  0  0  0  0  0  0
   39.0230   25.9540   33.8530 C   0  0  2  0  0  0  0  0  0  0  0  0
   42.3600   24.2690   29.3190 H   0  0  0  0  0  0  0  0  0  0  0  0
   40.0670   24.4030   30.2410 H   0  0  0  0  0  0  0  0  0  0  0  0
   43.8140   26.6840   32.4410 H   0  0  0  0  0  0  0  0  0  0  0  0
   38.2390   26.3840   30.8530 H   0  0  0  0  0  0  0  0  0  0  0  0
   37.9530   24.6850   31.3430 H   0  0  0  0  0  0  0  0  0  0  0  0
   36.3180   25.3530   32.9450 H   0  0  0  0  0  0  0  0  0  0  0  0
   36.4480   26.8950   32.1270 H   0  0  0  0  0  0  0  0  0  0  0  0
   37.2310   26.8170   34.7110 H   0  0  0  0  0  0  0  0  0  0  0  0
   38.0620   27.8330   33.4320 H   0  0  0  0  0  0  0  0  0  0  0  0
   40.0300   26.5260   34.7640 C   0  0  0  0  0  0  0  0  0  0  0  0
   39.3440   26.9760   35.8830 F   0  0  0  0  0  0  0  0  0  0  0  0
   40.7350   27.5820   34.2930 F   0  0  0  0  0  0  0  0  0  0  0  0
   40.8100   25.4650   35.2010 F   0  0  0  0  0  0  0  0  0  0  0  0
   38.6490   24.5920   34.3540 C   0  0  0  0  0  0  0  0  0  0  0  0
   39.6030   24.0180   34.5450 H   0  0  0  0  0  0  0  0  0  0  0  0
   38.2000   24.0430   33.4970 H   0  0  0  0  0  0  0  0  0  0  0  0
   37.9750   24.7480   35.3600 O   0  0  0  0  0  0  0  0  0  0  0  0
   40.3270   23.0390   39.0150 H   0  0  0  0  0  0  0  0  0  0  0  0
   39.5440   22.6880   38.4220 N   0  0  0  0  0  0  0  0  0  0  0  0
   38.2730   23.3290   38.6910 C   0  0  0  0  0  2  0  0  0  0  0  0
   38.0690   24.4680   37.7080 C   0  0  0  0  0  2  0  0  0  0  0  0
   37.7610   23.8440   36.3660 C   0  0  0  0  0  3  0  0  0  0  0  0
   38.6670   22.6660   36.1870 C   0  0  0  0  0  2  0  0  0  0  0  0
   39.9340   22.7720   37.0290 C   0  0  0  0  0  2  0  0  0  0  0  0
  1  2  2  0  0  0  0
  1  6  1  0  0  0  0
  2  3  1  0  0  0  0
  3  7  1  0  0  0  0
  3  4  2  0  0  0  0
  5 14  1  0  0  0  0
  5  4  1  0  0  0  0
  6  5  2  0  0  0  0
  7 11  1  0  0  0  0
  8  7  1  0  0  0  0
  8  9  1  0  0  0  0
  9 17  1  0  0  0  0
  9 10  1  0  0  0  0
 10 11  1  0  0  0  0
 10 19  1  0  0  0  0
 11 25  1  1  0  0  0
 11 21  1  0  0  0  0
 12  1  1  0  0  0  0
 13  2  1  0  0  0  0
 15  8  1  0  0  0  0
 16  8  1  0  0  0  0
 18  9  1  0  0  0  0
 20 10  1  0  0  0  0
 21 24  1  0  0  0  0
 21 22  1  0  0  0  0
 23 21  1  0  0  0  0
 25 26  1  0  0  0  0
 25 28  1  0  0  0  0
 27 25  1  0  0  0  0
 28 33  1  0  0  0  0
 30 31  1  0  0  0  0
 30 29  1  0  0  0  0
 32 31  1  0  0  0  0
 33 32  1  0  0  0  0
 34 33  1  0  0  0  0
 34 35  1  0  0  0  0
 35 30  1  0  0  0  0
M  END
>  <minimizedAffinity>
-5.0350666

$$$$

 OpenBabel03272507263D

 35 37  0  0  1  0  0  0  0  0999 V2000
   38.5450   21.4750   32.1100 C   0  0  0  0  0  0  0  0  0  0  0  0
   37.8720   22.7030   32.3270 C   0  0  0  0  0  0  0  0  0  0  0  0
   38.6500   23.8260   32.6270 C   0  0  0  0  0  0  0  0  0  0  0  0
   39.9870   23.6830   32.6930 N   0  0  0  0  0  0  0  0  0  0  0  0
   40.6110   22.4890   32.4800 C   0  0  0  0  0  0  0  0  0  0  0  0
   39.8760   21.3980   32.1900 N   0  0  0  0  0  0  0  0  0  0  0  0
   38.0480   25.0770   32.8540 N   0  0  0  0  0  0  0  0  0  0  0  0
   36.7790   25.5150   32.2600 C   0  0  0  0  0  0  0  0  0  0  0  0
   36.6510   26.9720   32.5660 C   0  0  0  0  0  0  0  0  0  0  0  0
   38.0400   27.3710   32.8990 C   0  0  0  0  0  0  0  0  0  0  0  0
   38.5140   26.1550   33.6760 C   0  0  2  0  0  0  0  0  0  0  0  0
   37.9520   20.5890   31.8750 H   0  0  0  0  0  0  0  0  0  0  0  0
   36.8030   22.7470   32.2590 H   0  0  0  0  0  0  0  0  0  0  0  0
   41.6900   22.3990   32.5380 H   0  0  0  0  0  0  0  0  0  0  0  0
   36.8440   25.2890   31.1730 H   0  0  0  0  0  0  0  0  0  0  0  0
   35.9420   24.9480   32.6830 H   0  0  0  0  0  0  0  0  0  0  0  0
   35.8550   27.2670   33.2320 H   0  0  0  0  0  0  0  0  0  0  0  0
   36.4150   27.4650   31.5860 H   0  0  0  0  0  0  0  0  0  0  0  0
   38.0870   28.2740   33.5470 H   0  0  0  0  0  0  0  0  0  0  0  0
   38.6560   27.4870   31.9920 H   0  0  0  0  0  0  0  0  0  0  0  0
   39.9490   26.2130   34.0080 C   0  0  0  0  0  0  0  0  0  0  0  0
   40.6260   26.4090   32.8120 F   0  0  0  0  0  0  0  0  0  0  0  0
   40.4790   25.1040   34.5750 F   0  0  0  0  0  0  0  0  0  0  0  0
   40.1340   27.3770   34.7400 F   0  0  0  0  0  0  0  0  0  0  0  0
   37.7360   26.0400   34.9510 C   0  0  0  0  0  0  0  0  0  0  0  0
   36.7110   25.6400   34.6990 H   0  0  0  0  0  0  0  0  0  0  0  0
   37.5180   27.0760   35.2930 H   0  0  0  0  0  0  0  0  0  0  0  0
   38.3670   25.3050   35.6960 O   0  0  0  0  0  0  0  0  0  0  0  0
   39.8120   22.7420   39.3230 H   0  0  0  0  0  0  0  0  0  0  0  0
   39.1160   22.5990   38.5590 N   0  0  0  0  0  0  0  0  0  0  0  0
   37.8960   23.3610   38.7280 C   0  0  0  0  0  2  0  0  0  0  0  0
   38.0010   24.6560   37.9420 C   0  0  0  0  0  2  0  0  0  0  0  0
   37.8750   24.2940   36.4790 C   0  0  0  0  0  3  0  0  0  0  0  0
   38.6630   23.0440   36.2440 C   0  0  0  0  0  2  0  0  0  0  0  0
   39.7600   22.8420   37.2840 C   0  0  0  0  0  2  0  0  0  0  0  0
  1  6  2  0  0  0  0
  1  2  1  0  0  0  0
  2  3  2  0  0  0  0
  3  4  1  0  0  0  0
  3  7  1  0  0  0  0
  5 14  1  0  0  0  0
  5  4  2  0  0  0  0
  6  5  1  0  0  0  0
  7 11  1  0  0  0  0
  8  9  1  0  0  0  0
  8 16  1  0  0  0  0
  8  7  1  0  0  0  0
  9 10  1  0  0  0  0
  9 17  1  0  0  0  0
 10 19  1  0  0  0  0
 10 11  1  0  0  0  0
 11 21  1  1  0  0  0
 11 25  1  0  0  0  0
 12  1  1  0  0  0  0
 13  2  1  0  0  0  0
 15  8  1  0  0  0  0
 18  9  1  0  0  0  0
 20 10  1  0  0  0  0
 21 23  1  0  0  0  0
 21 24  1  0  0  0  0
 22 21  1  0  0  0  0
 25 27  1  0  0  0  0
 25 28  1  0  0  0  0
 26 25  1  0  0  0  0
 28 33  1  0  0  0  0
 30 31  1  0  0  0  0
 30 29  1  0  0  0  0
 32 31  1  0  0  0  0
 33 32  1  0  0  0  0
 34 33  1  0  0  0  0
 34 35  1  0  0  0  0
 35 30  1  0  0  0  0
M  END
>  <minimizedAffinity>
-4.98453236

$$$$

 OpenBabel03272507263D

 35 37  0  0  1  0  0  0  0  0999 V2000
   37.0180   27.3420   32.2740 C   0  0  0  0  0  0  0  0  0  0  0  0
   37.4020   25.9890   32.4450 C   0  0  0  0  0  0  0  0  0  0  0  0
   37.4910   25.4980   33.7520 C   0  0  0  0  0  0  0  0  0  0  0  0
   37.2080   26.3310   34.7720 N   0  0  0  0  0  0  0  0  0  0  0  0
   36.8400   27.6310   34.5810 C   0  0  0  0  0  0  0  0  0  0  0  0
   36.7510   28.1180   33.3280 N   0  0  0  0  0  0  0  0  0  0  0  0
   37.8650   24.1640   33.9950 N   0  0  0  0  0  0  0  0  0  0  0  0
   37.6210   23.0460   33.0750 C   0  0  0  0  0  0  0  0  0  0  0  0
   37.9500   21.8000   33.8320 C   0  0  0  0  0  0  0  0  0  0  0  0
   37.9120   22.2420   35.2460 C   0  0  0  0  0  0  0  0  0  0  0  0
   38.5390   23.6210   35.1370 C   0  0  2  0  0  0  0  0  0  0  0  0
   36.9450   27.7410   31.2600 H   0  0  0  0  0  0  0  0  0  0  0  0
   37.6130   25.3800   31.5880 H   0  0  0  0  0  0  0  0  0  0  0  0
   36.6180   28.2810   35.4190 H   0  0  0  0  0  0  0  0  0  0  0  0
   36.5550   23.1160   32.7700 H   0  0  0  0  0  0  0  0  0  0  0  0
   38.2460   23.1410   32.1810 H   0  0  0  0  0  0  0  0  0  0  0  0
   38.7990   21.2280   33.4920 H   0  0  0  0  0  0  0  0  0  0  0  0
   37.0640   21.1230   33.6960 H   0  0  0  0  0  0  0  0  0  0  0  0
   38.5250   21.6010   35.9170 H   0  0  0  0  0  0  0  0  0  0  0  0
   36.8760   22.3410   35.6120 H   0  0  0  0  0  0  0  0  0  0  0  0
   38.4880   24.3730   36.4040 C   0  0  0  0  0  0  0  0  0  0  0  0
   37.1610   24.3810   36.8090 F   0  0  0  0  0  0  0  0  0  0  0  0
   38.8820   25.6670   36.3500 F   0  0  0  0  0  0  0  0  0  0  0  0
   39.1640   23.6060   37.3420 F   0  0  0  0  0  0  0  0  0  0  0  0
   39.9720   23.4890   34.7220 C   0  0  0  0  0  0  0  0  0  0  0  0
   40.0270   22.7100   33.9050 H   0  0  0  0  0  0  0  0  0  0  0  0
   40.5110   23.0000   35.5640 H   0  0  0  0  0  0  0  0  0  0  0  0
   40.3480   24.5920   34.3570 O   0  0  0  0  0  0  0  0  0  0  0  0
   43.2410   28.2490   34.6330 H   0  0  0  0  0  0  0  0  0  0  0  0
   43.1100   27.4710   33.9500 N   0  0  0  0  0  0  0  0  0  0  0  0
   43.6090   26.1930   34.4150 C   0  0  0  0  0  2  0  0  0  0  0  0
   42.4660   25.4040   35.0310 C   0  0  0  0  0  2  0  0  0  0  0  0
   41.5890   24.9360   33.8920 C   0  0  0  0  0  3  0  0  0  0  0  0
   41.4670   26.0610   32.9120 C   0  0  0  0  0  2  0  0  0  0  0  0
   41.7170   27.4220   33.5540 C   0  0  0  0  0  2  0  0  0  0  0  0
  1  2  2  0  0  0  0
  1  6  1  0  0  0  0
  2  3  1  0  0  0  0
  3  7  1  0  0  0  0
  3  4  2  0  0  0  0
  5  4  1  0  0  0  0
  5 14  1  0  0  0  0
  6  5  2  0  0  0  0
  7 11  1  0  0  0  0
  8  9  1  0  0  0  0
  8  7  1  0  0  0  0
  9 10  1  0  0  0  0
 10 20  1  0  0  0  0
 10 19  1  0  0  0  0
 11 25  1  6  0  0  0
 11 10  1  0  0  0  0
 11 21  1  0  0  0  0
 12  1  1  0  0  0  0
 13  2  1  0  0  0  0
 15  8  1  0  0  0  0
 16  8  1  0  0  0  0
 17  9  1  0  0  0  0
 18  9  1  0  0  0  0
 21 22  1  0  0  0  0
 21 24  1  0  0  0  0
 23 21  1  0  0  0  0
 25 27  1  0  0  0  0
 26 25  1  0  0  0  0
 28 25  1  0  0  0  0
 30 31  1  0  0  0  0
 30 29  1  0  0  0  0
 31 32  1  0  0  0  0
 33 28  1  0  0  0  0
 33 32  1  0  0  0  0
 34 35  1  0  0  0  0
 34 33  1  0  0  0  0
 35 30  1  0  0  0  0
M  END
>  <minimizedAffinity>
-4.96127701

$$$$

 OpenBabel03272507263D

 35 37  0  0  1  0  0  0  0  0999 V2000
   42.1690   21.8120   36.0860 C   0  0  0  0  0  0  0  0  0  0  0  0
   41.8830   22.9930   35.3580 C   0  0  0  0  0  0  0  0  0  0  0  0
   40.7780   23.7510   35.7570 C   0  0  0  0  0  0  0  0  0  0  0  0
   40.0480   23.3220   36.8050 N   0  0  0  0  0  0  0  0  0  0  0  0
   40.3440   22.1800   37.4890 C   0  0  0  0  0  0  0  0  0  0  0  0
   41.4050   21.4380   37.1170 N   0  0  0  0  0  0  0  0  0  0  0  0
   40.4360   24.9360   35.0800 N   0  0  0  0  0  0  0  0  0  0  0  0
   41.3920   25.8070   34.3850 C   0  0  0  0  0  0  0  0  0  0  0  0
   40.6470   27.0540   34.0330 C   0  0  0  0  0  0  0  0  0  0  0  0
   39.4750   27.0140   34.9400 C   0  0  0  0  0  0  0  0  0  0  0  0
   39.1430   25.5320   34.9220 C   0  0  2  0  0  0  0  0  0  0  0  0
   43.0280   21.2080   35.7860 H   0  0  0  0  0  0  0  0  0  0  0  0
   42.5060   23.2780   34.5330 H   0  0  0  0  0  0  0  0  0  0  0  0
   39.7410   21.8560   38.3300 H   0  0  0  0  0  0  0  0  0  0  0  0
   42.2380   25.9720   35.0870 H   0  0  0  0  0  0  0  0  0  0  0  0
   41.7780   25.3120   33.4870 H   0  0  0  0  0  0  0  0  0  0  0  0
   40.4840   27.2510   32.9850 H   0  0  0  0  0  0  0  0  0  0  0  0
   41.2900   27.9000   34.3970 H   0  0  0  0  0  0  0  0  0  0  0  0
   38.6100   27.5990   34.5550 H   0  0  0  0  0  0  0  0  0  0  0  0
   39.7460   27.3150   35.9660 H   0  0  0  0  0  0  0  0  0  0  0  0
   38.0840   25.1730   35.8830 C   0  0  0  0  0  0  0  0  0  0  0  0
   36.9690   25.9270   35.5450 F   0  0  0  0  0  0  0  0  0  0  0  0
   38.3440   25.4300   37.1860 F   0  0  0  0  0  0  0  0  0  0  0  0
   37.7420   23.8550   35.6140 F   0  0  0  0  0  0  0  0  0  0  0  0
   38.6920   25.1350   33.5490 C   0  0  0  0  0  0  0  0  0  0  0  0
   39.1510   25.8570   32.8110 H   0  0  0  0  0  0  0  0  0  0  0  0
   37.6080   25.3720   33.4820 H   0  0  0  0  0  0  0  0  0  0  0  0
   39.0460   23.9800   33.3710 O   0  0  0  0  0  0  0  0  0  0  0  0
   35.1550   21.4760   32.7320 H   0  0  0  0  0  0  0  0  0  0  0  0
   36.1460   21.3790   32.4190 N   0  0  0  0  0  0  0  0  0  0  0  0
   36.5210   22.3040   31.3680 C   0  0  0  0  0  2  0  0  0  0  0  0
   37.1820   23.5230   31.9870 C   0  0  0  0  0  2  0  0  0  0  0  0
   38.5550   23.0930   32.4500 C   0  0  0  0  0  3  0  0  0  0  0  0
   38.4280   21.7380   33.0730 C   0  0  0  0  0  2  0  0  0  0  0  0
   37.0150   21.4580   33.5750 C   0  0  0  0  0  2  0  0  0  0  0  0
  1  6  1  0  0  0  0
  2  3  1  0  0  0  0
  2  1  2  0  0  0  0
  3  4  2  0  0  0  0
  4  5  1  0  0  0  0
  5 14  1  0  0  0  0
  6  5  2  0  0  0  0
  7  3  1  0  0  0  0
  8  7  1  0  0  0  0
  8 15  1  0  0  0  0
  9  8  1  0  0  0  0
  9 18  1  0  0  0  0
  9 10  1  0  0  0  0
 10 20  1  0  0  0  0
 11 25  1  6  0  0  0
 11 10  1  0  0  0  0
 11  7  1  0  0  0  0
 11 21  1  0  0  0  0
 12  1  1  0  0  0  0
 13  2  1  0  0  0  0
 16  8  1  0  0  0  0
 17  9  1  0  0  0  0
 19 10  1  0  0  0  0
 21 23  1  0  0  0  0
 22 21  1  0  0  0  0
 24 21  1  0  0  0  0
 26 25  1  0  0  0  0
 27 25  1  0  0  0  0
 28 25  1  0  0  0  0
 30 29  1  0  0  0  0
 30 35  1  0  0  0  0
 31 32  1  0  0  0  0
 31 30  1  0  0  0  0
 32 33  1  0  0  0  0
 33 34  1  0  0  0  0
 33 28  1  0  0  0  0
 34 35  1  0  0  0  0
M  END
>  <minimizedAffinity>
-4.94193316

$$$$
