
 OpenBabel03272504193D

 25 26  0  0  0  0  0  0  0  0999 V2000
   35.1080   29.3510   50.5220 O   0  0  0  0  0  0  0  0  0  0  0  0
   35.0830   28.4040   49.5270 C   0  0  0  0  0  0  0  0  0  0  0  0
   36.0510   28.2100   49.0320 H   0  0  0  0  0  0  0  0  0  0  0  0
   34.7840   27.4240   49.9980 H   0  0  0  0  0  0  0  0  0  0  0  0
   34.1220   28.7400   48.4370 C   0  0  0  0  0  0  0  0  0  0  0  0
   34.4210   29.8150   47.6190 C   0  0  0  0  0  0  0  0  0  0  0  0
   33.5250   30.1400   46.5910 C   0  0  0  0  0  0  0  0  0  0  0  0
   32.4100   29.3650   46.4710 N   0  0  0  0  0  0  0  0  0  0  0  0
   32.1370   28.3260   47.2760 C   0  0  0  0  0  0  0  0  0  0  0  0
   33.0030   28.0240   48.2570 N   0  0  0  0  0  0  0  0  0  0  0  0
   35.3190   30.4140   47.7380 H   0  0  0  0  0  0  0  0  0  0  0  0
   33.6880   30.9510   45.9220 H   0  0  0  0  0  0  0  0  0  0  0  0
   31.2360   27.7330   47.1480 H   0  0  0  0  0  0  0  0  0  0  0  0
   37.6200   29.1280   49.8020 O   0  0  0  0  0  0  0  0  0  0  0  0
   36.6600   30.0000   50.5690 P   0  0  2  0  0  0  0  0  0  0  0  0
   37.2110   30.0590   52.1900 O   0  0  0  0  0  0  0  0  0  0  0  0
   36.5660   30.6900   52.6280 H   0  0  0  0  0  0  0  0  0  0  0  0
   36.7180   31.5530   49.8870 O   0  0  0  0  0  0  0  0  0  0  0  0
   40.5670   33.4010   47.8040 H   0  0  0  0  0  0  0  0  0  0  0  0
   39.5370   33.4690   47.6000 N   0  0  0  0  0  0  0  0  0  0  0  0
   38.9880   32.2660   47.0540 C   0  0  0  0  0  0  0  0  0  0  0  0
   37.6480   31.8950   47.6760 C   0  0  0  0  0  0  0  0  0  0  0  0
   37.9110   31.6000   49.1320 C   0  0  0  0  0  0  0  0  0  0  0  0
   38.8450   32.5980   49.7460 C   0  0  0  0  0  0  0  0  0  0  0  0
   38.8790   33.8410   48.8570 C   0  0  0  0  0  0  0  0  0  0  0  0
  1 15  1  0  0  0  0
  2  4  1  0  0  0  0
  2  1  1  0  0  0  0
  3  2  1  0  0  0  0
  5  2  1  0  0  0  0
  6 11  1  0  0  0  0
  6  5  2  0  0  0  0
  7  6  1  0  0  0  0
  8  7  2  0  0  0  0
  8  9  1  0  0  0  0
  9 10  2  0  0  0  0
 10  5  1  0  0  0  0
 12  7  1  0  0  0  0
 13  9  1  0  0  0  0
 15 14  2  6  0  0  0
 15 16  1  0  0  0  0
 16 17  1  0  0  0  0
 18 15  1  0  0  0  0
 20 19  1  0  0  0  0
 20 25  1  0  0  0  0
 21 20  1  0  0  0  0
 21 22  1  0  0  0  0
 22 23  1  0  0  0  0
 23 24  1  0  0  0  0
 23 18  1  0  0  0  0
 25 24  1  0  0  0  0
M  END
>  <minimizedAffinity>
-4.70286655

>  <minimizedRMSD>
2.44947672

$$$$
