REMARK  Name = 
REMARK  4 active torsions:
REMARK  status: ('A' for Active; 'I' for Inactive)
REMARK    1  A    between atoms: C_1  and  C_8
REMARK    2  A    between atoms: C_1  and  C_10
REMARK    3  A    between atoms: C_14  and  C_16
REMARK    4  A    between atoms: N_19  and  C_36
REMARK                            x       y       z     vdW  Elec       q    Type
REMARK                         _______ _______ _______ _____ _____    ______ ____
ROOT
ATOM      1  C   UNL     1      36.508  30.524  46.260  0.00  0.00    +0.000 A 
ATOM      2  C   UNL     1      37.142  30.926  47.398  0.00  0.00    +0.000 A 
ATOM      3  C   UNL     1      36.547  30.736  48.639  0.00  0.00    +0.000 A 
ATOM      4  C   UNL     1      35.295  30.128  48.684  0.00  0.00    +0.000 A 
ATOM      5  C   UNL     1      34.655  29.721  47.523  0.00  0.00    +0.000 A 
ATOM      6  N   UNL     1      35.297  29.941  46.359  0.00  0.00    +0.000 NA
ATOM      7  H   UNL     1      38.115  31.396  47.340  0.00  0.00    +0.000 HD
ATOM      8  H   UNL     1      37.046  31.054  49.556  0.00  0.00    +0.000 HD
ATOM      9  H   UNL     1      34.787  29.956  49.625  0.00  0.00    +0.000 HD
ENDROOT
BRANCH   1  10
ATOM     10  C   UNL     1      37.147  30.727  44.910  0.00  0.00    +0.000 C 
ATOM     11  C   UNL     1      36.846  29.743  43.852  0.00  0.00    +0.000 C 
ATOM     12  C   UNL     1      36.256  31.131  43.781  0.00  0.00    +0.000 C 
ATOM     13  H   UNL     1      37.593  29.525  43.064  0.00  0.00    +0.000 HD
ATOM     14  H   UNL     1      36.194  28.877  44.066  0.00  0.00    +0.000 HD
ATOM     15  H   UNL     1      35.174  31.202  44.008  0.00  0.00    +0.000 HD
ATOM     16  H   UNL     1      36.634  31.849  43.045  0.00  0.00    +0.000 HD
BRANCH  10  21
ATOM     17  C   UNL     1      39.750  33.347  44.955  0.00  0.00    +0.000 A 
ATOM     18  C   UNL     1      40.913  32.616  45.214  0.00  0.00    +0.000 A 
ATOM     19  C   UNL     1      40.808  31.211  45.374  0.00  0.00    +0.000 A 
ATOM     20  N   UNL     1      39.583  30.649  45.269  0.00  0.00    +0.000 NA
ATOM     21  C   UNL     1      38.467  31.390  45.016  0.00  0.00    +0.000 A 
ATOM     22  N   UNL     1      38.553  32.718  44.862  0.00  0.00    +0.000 NA
ATOM     23  H   UNL     1      39.857  34.419  44.836  0.00  0.00    +0.000 HD
ATOM     24  H   UNL     1      41.905  33.028  45.304  0.00  0.00    +0.000 HD
ATOM     25  H   UNL     1      41.616  30.543  45.574  0.00  0.00    +0.000 HD
ENDBRANCH  10  21
ENDBRANCH   1  10
BRANCH   5  26
ATOM     26  C   UNL     1      33.340  29.078  47.510  0.00  0.00    +0.000 A 
ATOM     27  N   UNL     1      32.357  29.090  46.567  0.00  0.00    +0.000 NA
ATOM     28  C   UNL     1      31.323  28.332  47.033  0.00  0.00    +0.000 A 
ATOM     29  N   UNL     1      31.664  27.859  48.248  0.00  0.00    +0.000 N 
ATOM     30  N   UNL     1      32.882  28.306  48.541  0.00  0.00    +0.000 NA
ATOM     31  H   UNL     1      30.445  28.205  46.452  0.00  0.00    +0.000 HD
BRANCH  29  36
ATOM     32  H   UNL     1      29.176  24.660  51.046  0.00  0.00    +0.000 HD
ATOM     33  N   UNL     1      29.496  25.455  50.484  0.00  0.00    +0.000 NA
ATOM     34  C   UNL     1      28.897  25.586  49.192  0.00  0.00    +0.000 C 
ATOM     35  C   UNL     1      29.457  26.836  48.533  0.00  0.00    +0.000 C 
ATOM     36  C   UNL     1      30.854  27.021  49.077  0.00  0.00    +0.000 C 
ATOM     37  C   UNL     1      30.680  27.583  50.480  0.00  0.00    +0.000 C 
ATOM     38  C   UNL     1      29.682  26.686  51.191  0.00  0.00    +0.000 C 
ENDBRANCH  29  36
ENDBRANCH   5  26
TORSDOF 4
