
     RDKit          3D

 36 38  0  0  0  0  0  0  0  0999 V2000
   38.4107   30.6095   46.7862 Cl  0  0  0  0  0  0  0  0  0  0  0  0
   38.8339   32.0490   47.6807 C   0  0  0  0  0  0  0  0  0  0  0  0
   38.3389   32.2038   48.9519 C   0  0  0  0  0  0  0  0  0  0  0  0
   38.7112   33.3637   49.6202 C   0  0  0  0  0  0  0  0  0  0  0  0
   39.5418   34.2830   48.9887 C   0  0  0  0  0  0  0  0  0  0  0  0
   40.0083   34.0761   47.7128 C   0  0  0  0  0  0  0  0  0  0  0  0
   39.6534   32.9396   47.0353 C   0  0  0  0  0  0  0  0  0  0  0  0
   37.9356   30.4269   50.6624 C   0  0  0  0  0  0  0  0  0  0  0  0
   37.4625   31.2340   49.6188 C   0  0  0  0  0  0  0  0  0  0  0  0
   36.1426   31.0851   49.2390 C   0  0  0  0  0  0  0  0  0  0  0  0
   35.3721   30.1794   49.8808 N   0  0  0  0  0  0  0  0  0  0  0  0
   35.8555   29.4169   50.8815 C   0  0  0  0  0  0  0  0  0  0  0  0
   37.1326   29.5367   51.2747 N   0  0  0  0  0  0  0  0  0  0  0  0
   40.1218   32.7463   45.7690 O   0  0  0  0  0  0  0  0  0  0  0  0
   38.3181   33.4777   50.6178 H   0  0  0  0  0  0  0  0  0  0  0  0
   39.7408   35.1312   49.6372 H   0  0  0  0  0  0  0  0  0  0  0  0
   40.6234   34.9061   47.4354 H   0  0  0  0  0  0  0  0  0  0  0  0
   38.9593   30.5426   50.9567 H   0  0  0  0  0  0  0  0  0  0  0  0
   35.7197   31.6890   48.4302 H   0  0  0  0  0  0  0  0  0  0  0  0
   35.2862   28.6779   51.4293 H   0  0  0  0  0  0  0  0  0  0  0  0
   43.1955   32.9626   47.8822 H   0  0  0  0  0  0  0  0  0  0  0  0
   42.5867   33.1719   47.0877 N   0  0  0  0  0  0  0  0  0  0  0  0
   41.9009   34.4516   47.2292 C   0  0  0  0  0  0  0  0  0  0  0  0
   41.2859   34.8556   45.8988 C   0  0  0  0  0  0  0  0  0  0  0  0
   40.9484   33.6167   45.0799 C   0  0  0  0  0  0  0  0  0  0  0  0
   42.2662   32.9698   44.6726 C   0  0  0  0  0  0  0  0  0  0  0  0
   43.2309   33.0615   45.8032 C   0  0  0  0  0  0  0  0  0  0  0  0
   41.1500   34.3193   48.0340 H   0  0  0  0  0  0  0  0  0  0  0  0
   42.6071   35.2534   47.5135 H   0  0  0  0  0  0  0  0  0  0  0  0
   41.9852   35.5234   45.3853 H   0  0  0  0  0  0  0  0  0  0  0  0
   40.3685   35.4259   46.1315 H   0  0  0  0  0  0  0  0  0  0  0  0
   40.5080   33.9911   44.1421 H   0  0  0  0  0  0  0  0  0  0  0  0
   42.6686   33.5304   43.8084 H   0  0  0  0  0  0  0  0  0  0  0  0
   42.0787   31.8999   44.3720 H   0  0  0  0  0  0  0  0  0  0  0  0
   43.8022   32.0906   45.8392 H   0  0  0  0  0  0  0  0  0  0  0  0
   43.9404   33.8922   45.6092 H   0  0  0  0  0  0  0  0  0  0  0  0
  1  2  1  0
  2  3  2  0
  3  4  1  0
  3  9  1  0
  5  4  2  0
  6  5  1  0
  7  2  1  0
  7  6  2  0
  8 13  2  0
  9  8  1  0
 10  9  2  0
 10 11  1  0
 11 12  2  0
 12 13  1  0
 14  7  1  0
  4 15  1  0
  5 16  1  0
  6 17  1  0
  8 18  1  0
 10 19  1  0
 12 20  1  0
 21 22  1  0
 22 23  1  0
 23 24  1  0
 24 25  1  0
 25 26  1  0
 26 27  1  0
 27 22  1  0
 23 28  1  0
 23 29  1  0
 24 30  1  0
 24 31  1  0
 25 32  1  0
 26 33  1  0
 26 34  1  0
 27 35  1  0
 27 36  1  0
 14 25  1  0
M  ISO  7  15  14  16  14  17  14  18  14  19  14  20  14  21   5
M  END
>  <DihAtoms>  (1) 
6,13,24,23

>  <DihDeg>  (1) 
119.59497765802323

$$$$
