
 OpenBabel03272505493D

 38 42  0  0  0  0  0  0  0  0999 V2000
   36.3530   30.4270   45.8910 C   0  0  0  0  0  0  0  0  0  0  0  0
   36.8920   30.7330   47.1060 C   0  0  0  0  0  0  0  0  0  0  0  0
   36.1850   30.4750   48.2740 C   0  0  0  0  0  0  0  0  0  0  0  0
   34.9220   29.8990   48.1670 C   0  0  0  0  0  0  0  0  0  0  0  0
   34.3790   29.5900   46.9280 C   0  0  0  0  0  0  0  0  0  0  0  0
   35.1260   29.8710   45.8430 N   0  0  0  0  0  0  0  0  0  0  0  0
   37.8760   31.1790   47.1660 H   0  0  0  0  0  0  0  0  0  0  0  0
   36.6070   30.7160   49.2510 H   0  0  0  0  0  0  0  0  0  0  0  0
   34.3290   29.6770   49.0450 H   0  0  0  0  0  0  0  0  0  0  0  0
   37.1140   30.7040   44.6200 C   0  0  0  0  0  0  0  0  0  0  0  0
   36.9100   29.7860   43.4830 C   0  0  0  0  0  0  0  0  0  0  0  0
   36.3310   31.1790   43.4400 C   0  0  0  0  0  0  0  0  0  0  0  0
   37.7260   29.6090   42.7550 H   0  0  0  0  0  0  0  0  0  0  0  0
   36.2400   28.9130   43.5850 H   0  0  0  0  0  0  0  0  0  0  0  0
   35.2330   31.2440   43.5700 H   0  0  0  0  0  0  0  0  0  0  0  0
   36.7760   31.9360   42.7850 H   0  0  0  0  0  0  0  0  0  0  0  0
   39.7200   33.2940   44.9940 C   0  0  0  0  0  0  0  0  0  0  0  0
   40.8380   32.5470   45.3780 C   0  0  0  0  0  0  0  0  0  0  0  0
   40.7010   31.1420   45.5100 C   0  0  0  0  0  0  0  0  0  0  0  0
   39.4910   30.5950   45.2580 N   0  0  0  0  0  0  0  0  0  0  0  0
   38.4190   31.3510   44.8850 C   0  0  0  0  0  0  0  0  0  0  0  0
   38.5360   32.6790   44.7570 N   0  0  0  0  0  0  0  0  0  0  0  0
   39.8510   34.3660   44.9000 H   0  0  0  0  0  0  0  0  0  0  0  0
   41.8170   32.9470   45.5870 H   0  0  0  0  0  0  0  0  0  0  0  0
   41.4740   30.4630   45.7950 H   0  0  0  0  0  0  0  0  0  0  0  0
   33.0570   28.9850   46.7560 C   0  0  0  0  0  0  0  0  0  0  0  0
   32.3970   28.6060   45.6260 N   0  0  0  0  0  0  0  0  0  0  0  0
   31.1900   28.0920   46.0010 C   0  0  0  0  0  0  0  0  0  0  0  0
   31.1070   28.1540   47.3450 N   0  0  0  0  0  0  0  0  0  0  0  0
   32.2330   28.6920   47.8060 N   0  0  0  0  0  0  0  0  0  0  0  0
   30.5090   27.7330   45.2720 H   0  0  0  0  0  0  0  0  0  0  0  0
   27.3070   26.2680   49.8440 H   0  0  0  0  0  0  0  0  0  0  0  0
   28.0370   26.8610   49.4360 N   0  0  0  0  0  0  0  0  0  0  0  0
   27.5960   27.8160   48.4680 C   0  0  0  0  0  2  0  0  0  0  0  0
   28.7990   28.6250   48.0150 C   0  0  0  0  0  2  0  0  0  0  0  0
   29.9990   27.7150   48.1360 C   0  0  0  0  0  3  0  0  0  0  0  0
   30.3280   27.6600   49.6200 C   0  0  0  0  0  2  0  0  0  0  0  0
   29.0340   27.3380   50.3450 C   0  0  0  0  0  2  0  0  0  0  0  0
  1  2  1  0  0  0  0
  2  7  1  0  0  0  0
  2  3  2  0  0  0  0
  3  8  1  0  0  0  0
  4  3  1  0  0  0  0
  4  9  1  0  0  0  0
  5  4  2  0  0  0  0
  6  1  2  0  0  0  0
  6  5  1  0  0  0  0
 10 21  1  0  0  0  0
 10  1  1  0  0  0  0
 11 14  1  0  0  0  0
 11 10  1  0  0  0  0
 12 11  1  0  0  0  0
 12 15  1  0  0  0  0
 12 10  1  0  0  0  0
 13 11  1  0  0  0  0
 16 12  1  0  0  0  0
 17 18  1  0  0  0  0
 18 19  2  0  0  0  0
 18 24  1  0  0  0  0
 19 25  1  0  0  0  0
 20 19  1  0  0  0  0
 21 20  2  0  0  0  0
 22 21  1  0  0  0  0
 22 17  2  0  0  0  0
 23 17  1  0  0  0  0
 26  5  1  0  0  0  0
 26 30  2  0  0  0  0
 27 28  2  0  0  0  0
 27 26  1  0  0  0  0
 28 29  1  0  0  0  0
 29 30  1  0  0  0  0
 29 36  1  0  0  0  0
 31 28  1  0  0  0  0
 33 32  1  0  0  0  0
 33 38  1  0  0  0  0
 34 33  1  0  0  0  0
 35 36  1  0  0  0  0
 35 34  1  0  0  0  0
 36 37  1  0  0  0  0
 37 38  1  0  0  0  0
M  END
>  <minimizedAffinity>
-5.9670825

>  <minimizedRMSD>
1.11029565

$$$$
