
 OpenBabel03272510243D

 30 33  0  0  0  0  0  0  0  0999 V2000
   36.8920   30.9150   47.2610 C   0  0  0  0  0  0  0  0  0  0  0  0
   37.1610   31.0470   45.9020 C   0  0  0  0  0  0  0  0  0  0  0  0
   36.3090   30.5000   44.9510 C   0  0  0  0  0  0  0  0  0  0  0  0
   35.1910   29.8250   45.4420 C   0  0  0  0  0  0  0  0  0  0  0  0
   34.2130   29.2050   44.7030 N   0  0  0  0  0  0  0  0  0  0  0  0
   33.3510   28.6960   45.5940 C   0  0  0  0  0  0  0  0  0  0  0  0
   33.7390   28.9640   46.8380 N   0  0  0  0  0  0  0  0  0  0  0  0
   34.8870   29.6700   46.7720 C   0  0  0  0  0  0  0  0  0  0  0  0
   35.7640   30.2310   47.6980 C   0  0  0  0  0  0  0  0  0  0  0  0
   37.5480   31.3350   48.0120 H   0  0  0  0  0  0  0  0  0  0  0  0
   36.5160   30.6030   43.9030 H   0  0  0  0  0  0  0  0  0  0  0  0
   34.1750   29.1560   43.6410 H   0  0  0  0  0  0  0  0  0  0  0  0
   35.5280   30.1110   48.7460 H   0  0  0  0  0  0  0  0  0  0  0  0
   40.0250   32.5810   43.9990 C   0  0  0  0  0  0  0  0  0  0  0  0
   38.8700   31.8570   44.2510 C   0  0  0  0  0  0  0  0  0  0  0  0
   38.3590   31.7750   45.5280 C   0  0  0  0  0  0  0  0  0  0  0  0
   39.0390   32.4330   46.5080 N   0  0  0  0  0  0  0  0  0  0  0  0
   40.1680   33.1370   46.2460 C   0  0  0  0  0  0  0  0  0  0  0  0
   40.6470   33.2060   45.0090 N   0  0  0  0  0  0  0  0  0  0  0  0
   40.4210   32.6410   42.9920 H   0  0  0  0  0  0  0  0  0  0  0  0
   38.3390   31.3380   43.4640 H   0  0  0  0  0  0  0  0  0  0  0  0
   40.7070   33.6620   47.0400 H   0  0  0  0  0  0  0  0  0  0  0  0
   32.2220   27.9920   45.1710 O   0  0  0  0  0  0  0  0  0  0  0  0
   30.1880   26.2080   49.4030 H   0  0  0  0  0  0  0  0  0  0  0  0
   30.9740   26.5920   48.8620 N   0  0  0  0  0  0  0  0  0  0  0  0
   31.5790   25.6330   47.9630 C   0  0  0  0  0  2  0  0  0  0  0  0
   32.4600   26.3910   46.9670 C   0  0  0  0  0  2  0  0  0  0  0  0
   31.5400   27.0610   45.9820 C   0  0  0  0  0  3  0  0  0  0  0  0
   30.3960   27.6660   46.7310 C   0  0  0  0  0  2  0  0  0  0  0  0
   30.6780   27.8460   48.2120 C   0  0  0  0  0  2  0  0  0  0  0  0
  1  9  1  0  0  0  0
  1 10  1  0  0  0  0
  2  1  2  0  0  0  0
  3  4  2  0  0  0  0
  3  2  1  0  0  0  0
  4  8  1  0  0  0  0
  5  4  1  0  0  0  0
  5  6  1  0  0  0  0
  6  7  2  0  0  0  0
  8  7  1  0  0  0  0
  8  9  2  0  0  0  0
  9 13  1  0  0  0  0
 11  3  1  0  0  0  0
 12  5  1  0  0  0  0
 14 15  2  0  0  0  0
 14 19  1  0  0  0  0
 15 16  1  0  0  0  0
 16  2  1  0  0  0  0
 16 17  2  0  0  0  0
 18 17  1  0  0  0  0
 18 22  1  0  0  0  0
 19 18  2  0  0  0  0
 20 14  1  0  0  0  0
 21 15  1  0  0  0  0
 23  6  1  0  0  0  0
 23 28  1  0  0  0  0
 25 24  1  0  0  0  0
 26 25  1  0  0  0  0
 27 26  1  0  0  0  0
 28 29  1  0  0  0  0
 28 27  1  0  0  0  0
 29 30  1  0  0  0  0
 30 25  1  0  0  0  0
M  END
>  <minimizedAffinity>
-4.36268139

>  <minimizedRMSD>
8.42179585

$$$$
