
 OpenBabel03272510243D

 30 33  0  0  0  0  0  0  0  0999 V2000
   35.8750   30.0490   47.0180 C   0  0  0  0  0  0  0  0  0  0  0  0
   36.8280   30.6180   47.8580 C   0  0  0  0  0  0  0  0  0  0  0  0
   37.7910   31.4850   47.3580 C   0  0  0  0  0  0  0  0  0  0  0  0
   37.7380   31.7410   45.9870 C   0  0  0  0  0  0  0  0  0  0  0  0
   38.5760   32.5580   45.2690 N   0  0  0  0  0  0  0  0  0  0  0  0
   38.1460   32.4940   44.0000 C   0  0  0  0  0  0  0  0  0  0  0  0
   37.0940   31.6870   43.8940 N   0  0  0  0  0  0  0  0  0  0  0  0
   36.8170   31.2030   45.1220 C   0  0  0  0  0  0  0  0  0  0  0  0
   35.8660   30.3370   45.6580 C   0  0  0  0  0  0  0  0  0  0  0  0
   35.1200   29.3720   47.3940 H   0  0  0  0  0  0  0  0  0  0  0  0
   38.5260   31.9230   48.0060 H   0  0  0  0  0  0  0  0  0  0  0  0
   39.3910   33.1140   45.6650 H   0  0  0  0  0  0  0  0  0  0  0  0
   35.1390   29.9120   44.9810 H   0  0  0  0  0  0  0  0  0  0  0  0
   37.6000   30.1590   51.5150 C   0  0  0  0  0  0  0  0  0  0  0  0
   37.7540   30.5380   50.1900 C   0  0  0  0  0  0  0  0  0  0  0  0
   36.7700   30.2670   49.2640 C   0  0  0  0  0  0  0  0  0  0  0  0
   35.6600   29.6180   49.7160 N   0  0  0  0  0  0  0  0  0  0  0  0
   35.5240   29.2530   51.0150 C   0  0  0  0  0  0  0  0  0  0  0  0
   36.4820   29.5230   51.8940 N   0  0  0  0  0  0  0  0  0  0  0  0
   38.3780   30.3760   52.2360 H   0  0  0  0  0  0  0  0  0  0  0  0
   38.6410   31.0520   49.8430 H   0  0  0  0  0  0  0  0  0  0  0  0
   34.6290   28.7330   51.3680 H   0  0  0  0  0  0  0  0  0  0  0  0
   38.7890   33.2190   42.9940 O   0  0  0  0  0  0  0  0  0  0  0  0
   39.6330   29.7930   39.4190 H   0  0  0  0  0  0  0  0  0  0  0  0
   39.4540   30.0660   40.3950 N   0  0  0  0  0  0  0  0  0  0  0  0
   40.6100   30.6290   41.0580 C   0  0  0  0  0  2  0  0  0  0  0  0
   40.1430   31.3260   42.3390 C   0  0  0  0  0  2  0  0  0  0  0  0
   39.4810   32.6140   41.9250 C   0  0  0  0  0  3  0  0  0  0  0  0
   38.6100   32.3450   40.7410 C   0  0  0  0  0  2  0  0  0  0  0  0
   38.2720   30.8750   40.5670 C   0  0  0  0  0  2  0  0  0  0  0  0
  1 10  1  0  0  0  0
  1  2  1  0  0  0  0
  2 16  1  0  0  0  0
  3  2  2  0  0  0  0
  3 11  1  0  0  0  0
  4  3  1  0  0  0  0
  5 12  1  0  0  0  0
  5  4  1  0  0  0  0
  6  5  1  0  0  0  0
  7  6  2  0  0  0  0
  7  8  1  0  0  0  0
  8  9  1  0  0  0  0
  8  4  2  0  0  0  0
  9  1  2  0  0  0  0
 13  9  1  0  0  0  0
 14 19  1  0  0  0  0
 14 20  1  0  0  0  0
 15 14  2  0  0  0  0
 16 17  2  0  0  0  0
 16 15  1  0  0  0  0
 17 18  1  0  0  0  0
 18 22  1  0  0  0  0
 18 19  2  0  0  0  0
 21 15  1  0  0  0  0
 23  6  1  0  0  0  0
 24 25  1  0  0  0  0
 25 30  1  0  0  0  0
 25 26  1  0  0  0  0
 26 27  1  0  0  0  0
 28 27  1  0  0  0  0
 28 23  1  0  0  0  0
 29 28  1  0  0  0  0
 30 29  1  0  0  0  0
M  END
>  <minimizedAffinity>
-5.31668854

>  <minimizedRMSD>
2.48306084

$$$$
