
     RDKit          3D

 39 42  0  0  0  0  0  0  0  0999 V2000
   36.8469   30.5507   46.9054 C   0  0  0  0  0  0  0  0  0  0  0  0
   37.5149   31.0359   48.0252 C   0  0  0  0  0  0  0  0  0  0  0  0
   38.5136   31.9939   47.8991 C   0  0  0  0  0  0  0  0  0  0  0  0
   38.7930   32.4249   46.6024 C   0  0  0  0  0  0  0  0  0  0  0  0
   39.7305   33.3573   46.2276 N   0  0  0  0  0  0  0  0  0  0  0  0
   39.6416   33.4459   44.8931 C   0  0  0  0  0  0  0  0  0  0  0  0
   38.7069   32.6254   44.4221 N   0  0  0  0  0  0  0  0  0  0  0  0
   38.1605   31.9748   45.4700 C   0  0  0  0  0  0  0  0  0  0  0  0
   37.1638   31.0138   45.6337 C   0  0  0  0  0  0  0  0  0  0  0  0
   37.3870   30.0865   51.6675 C   0  0  0  0  0  0  0  0  0  0  0  0
   37.8486   30.6369   50.4806 C   0  0  0  0  0  0  0  0  0  0  0  0
   37.1256   30.5020   49.3163 C   0  0  0  0  0  0  0  0  0  0  0  0
   35.9543   29.8109   49.3945 N   0  0  0  0  0  0  0  0  0  0  0  0
   35.5151   29.2781   50.5620 C   0  0  0  0  0  0  0  0  0  0  0  0
   36.2251   29.4177   51.6761 N   0  0  0  0  0  0  0  0  0  0  0  0
   40.4686   34.3175   44.1825 O   0  0  0  0  0  0  0  0  0  0  0  0
   36.0675   29.8049   46.9891 H   0  0  0  0  0  0  0  0  0  0  0  0
   39.0286   32.3679   48.7630 H   0  0  0  0  0  0  0  0  0  0  0  0
   40.3790   33.8837   46.8864 H   0  0  0  0  0  0  0  0  0  0  0  0
   36.6631   30.6565   44.7455 H   0  0  0  0  0  0  0  0  0  0  0  0
   37.9618   30.1975   52.5775 H   0  0  0  0  0  0  0  0  0  0  0  0
   38.7817   31.1842   50.4312 H   0  0  0  0  0  0  0  0  0  0  0  0
   34.5727   28.7246   50.6146 H   0  0  0  0  0  0  0  0  0  0  0  0
   38.3232   35.0989   39.7079 H   0  0  0  0  0  0  0  0  0  0  0  0
   38.4013   34.6035   40.6062 N   0  0  0  0  0  0  0  0  0  0  0  0
   39.5061   33.6705   40.6562 C   0  0  0  0  0  0  0  0  0  0  0  0
   39.7488   33.2848   42.1175 C   0  0  0  0  0  0  0  0  0  0  0  0
   40.4238   34.4567   42.7785 C   0  0  0  0  0  0  0  0  0  0  0  0
   39.7445   35.7125   42.3363 C   0  0  0  0  0  0  0  0  0  0  0  0
   38.3620   35.4730   41.7569 C   0  0  0  0  0  0  0  0  0  0  0  0
   40.4542   34.1027   40.2881 H   0  0  0  0  0  0  0  0  0  0  0  0
   39.3058   32.7528   40.0653 H   0  0  0  0  0  0  0  0  0  0  0  0
   40.4454   32.4366   42.1426 H   0  0  0  0  0  0  0  0  0  0  0  0
   38.8095   32.9952   42.6210 H   0  0  0  0  0  0  0  0  0  0  0  0
   41.4725   34.4565   42.4260 H   0  0  0  0  0  0  0  0  0  0  0  0
   39.5654   36.3388   43.2535 H   0  0  0  0  0  0  0  0  0  0  0  0
   40.3627   36.3427   41.6672 H   0  0  0  0  0  0  0  0  0  0  0  0
   37.6821   35.1168   42.5443 H   0  0  0  0  0  0  0  0  0  0  0  0
   38.0032   36.4632   41.4024 H   0  0  0  0  0  0  0  0  0  0  0  0
  1  2  2  0
  2 12  1  0
  3  2  1  0
  4  3  2  0
  5  4  1  0
  6  5  1  0
  7  6  2  0
  7  8  1  0
  8  9  2  0
  8  4  1  0
  9  1  1  0
 10 15  2  0
 11 10  1  0
 12 13  1  0
 12 11  2  0
 13 14  2  0
 14 15  1  0
 16  6  1  0
  1 17  1  0
  3 18  1  0
  5 19  1  0
  9 20  1  0
 10 21  1  0
 11 22  1  0
 14 23  1  0
 24 25  1  0
 25 26  1  0
 26 27  1  0
 27 28  1  0
 28 29  1  0
 29 30  1  0
 30 25  1  0
 26 31  1  0
 26 32  1  0
 27 33  1  0
 27 34  1  0
 28 35  1  0
 29 36  1  0
 29 37  1  0
 30 38  1  0
 30 39  1  0
 16 28  1  0
M  ISO  8  17  14  18  14  19   9  20  14  21  14  22  14  23  14  24   5
M  END
>  <DihAtoms>  (1) 
5,15,27,26

>  <DihDeg>  (1) 
116.20423171175159

$$$$
