REMARK  Name = 
REMARK  3 active torsions:
REMARK  status: ('A' for Active; 'I' for Inactive)
REMARK    1  A    between atoms: C_1  and  N_9
REMARK    2  A    between atoms: C_2  and  N_10
REMARK    3  A    between atoms: N_15  and  C_28
REMARK                            x       y       z     vdW  Elec       q    Type
REMARK                         _______ _______ _______ _____ _____    ______ ____
ROOT
ATOM      1  N   UNL     1      36.714  31.329  48.963  0.00  0.00    +0.000 N 
ATOM      2  C   UNL     1      36.557  32.334  49.818  0.00  0.00    +0.000 A 
ATOM      3  C   UNL     1      37.528  33.326  49.935  0.00  0.00    +0.000 A 
ATOM      4  C   UNL     1      38.598  33.152  49.114  0.00  0.00    +0.000 A 
ATOM      5  O   UNL     1      39.506  34.043  49.196  0.00  0.00    +0.000 OA
ATOM      6  N   UNL     1      38.805  32.170  48.244  0.00  0.00    +0.000 N 
ATOM      7  C   UNL     1      37.824  31.236  48.176  0.00  0.00    +0.000 A 
ATOM      8  O   UNL     1      37.992  30.277  47.348  0.00  0.00    +0.000 OA
ATOM      9  H   UNL     1      35.657  32.365  50.422  0.00  0.00    +0.000 HD
ATOM     10  H   UNL     1      37.421  34.143  50.617  0.00  0.00    +0.000 HD
ENDROOT
BRANCH   1  12
ATOM     11  C   UNL     1      35.649  29.328  49.840  0.00  0.00    +0.000 A 
ATOM     12  C   UNL     1      35.747  30.281  48.806  0.00  0.00    +0.000 A 
ATOM     13  C   UNL     1      34.907  30.160  47.688  0.00  0.00    +0.000 A 
ATOM     14  N   UNL     1      34.038  29.123  47.662  0.00  0.00    +0.000 NA
ATOM     15  C   UNL     1      33.947  28.230  48.631  0.00  0.00    +0.000 A 
ATOM     16  N   UNL     1      34.745  28.332  49.711  0.00  0.00    +0.000 NA
ATOM     17  H   UNL     1      35.000  30.893  46.918  0.00  0.00    +0.000 HD
ATOM     18  H   UNL     1      33.255  27.384  48.636  0.00  0.00    +0.000 HD
BRANCH  11  21
ATOM     19  C   UNL     1      37.644  30.054  51.350  0.00  0.00    +0.000 C 
ATOM     20  O   UNL     1      38.207  30.835  50.540  0.00  0.00    +0.000 OA
ATOM     21  N   UNL     1      36.434  29.361  51.013  0.00  0.00    +0.000 N 
ATOM     22  H   UNL     1      38.134  29.947  52.302  0.00  0.00    +0.000 HD
ATOM     23  H   UNL     1      36.111  28.778  51.840  0.00  0.00    +0.000 HD
ENDBRANCH  11  21
ENDBRANCH   1  12
BRANCH   6  28
ATOM     24  H   UNL     1      42.521  32.950  44.782  0.00  0.00    +0.000 HD
ATOM     25  N   UNL     1      41.865  32.535  45.487  0.00  0.00    +0.000 NA
ATOM     26  C   UNL     1      40.514  32.620  45.017  0.00  0.00    +0.000 C 
ATOM     27  C   UNL     1      39.668  31.767  45.959  0.00  0.00    +0.000 C 
ATOM     28  C   UNL     1      39.975  32.050  47.398  0.00  0.00    +0.000 C 
ATOM     29  C   UNL     1      40.850  33.259  47.620  0.00  0.00    +0.000 C 
ATOM     30  C   UNL     1      42.035  33.297  46.704  0.00  0.00    +0.000 C 
ENDBRANCH   6  28
TORSDOF 3
