
     RDKit          3D

 39 41  0  0  0  0  0  0  0  0999 V2000
   35.6486   29.3284   49.8401 C   0  0  0  0  0  0  0  0  0  0  0  0
   35.7468   30.2812   48.8057 C   0  0  0  0  0  0  0  0  0  0  0  0
   34.9072   30.1600   47.6881 C   0  0  0  0  0  0  0  0  0  0  0  0
   34.0380   29.1235   47.6616 N   0  0  0  0  0  0  0  0  0  0  0  0
   33.9468   28.2304   48.6314 C   0  0  0  0  0  0  0  0  0  0  0  0
   34.7448   28.3317   49.7106 N   0  0  0  0  0  0  0  0  0  0  0  0
   37.6439   30.0540   51.3497 C   0  0  0  0  0  0  0  0  0  0  0  0
   38.2066   30.8352   50.5398 O   0  0  0  0  0  0  0  0  0  0  0  0
   36.4336   29.3607   51.0127 N   0  0  0  0  0  0  0  0  0  0  0  0
   36.7140   31.3289   48.9629 N   0  0  0  0  0  0  0  0  0  0  0  0
   36.5573   32.3336   49.8176 C   0  0  0  0  0  0  0  0  0  0  0  0
   37.5277   33.3258   49.9352 C   0  0  0  0  0  0  0  0  0  0  0  0
   38.5978   33.1524   49.1142 C   0  0  0  0  0  0  0  0  0  0  0  0
   39.5056   34.0432   49.1962 O   0  0  0  0  0  0  0  0  0  0  0  0
   38.8048   32.1704   48.2438 N   0  0  0  0  0  0  0  0  0  0  0  0
   37.8242   31.2365   48.1765 C   0  0  0  0  0  0  0  0  0  0  0  0
   37.9923   30.2771   47.3478 O   0  0  0  0  0  0  0  0  0  0  0  0
   34.9998   30.8930   46.9184 H   0  0  0  0  0  0  0  0  0  0  0  0
   33.2547   27.3840   48.6359 H   0  0  0  0  0  0  0  0  0  0  0  0
   38.1337   29.9471   52.3022 H   0  0  0  0  0  0  0  0  0  0  0  0
   36.1106   28.7782   51.8397 H   0  0  0  0  0  0  0  0  0  0  0  0
   35.6571   32.3648   50.4222 H   0  0  0  0  0  0  0  0  0  0  0  0
   37.4212   34.1434   50.6172 H   0  0  0  0  0  0  0  0  0  0  0  0
   42.3084   30.6204   44.8199 H   0  0  0  0  0  0  0  0  0  0  0  0
   41.7981   31.1022   45.5987 N   0  0  0  0  0  0  0  0  0  0  0  0
   41.3993   30.1499   46.5932 C   0  0  0  0  0  0  0  0  0  0  0  0
   40.9136   30.9530   47.7973 C   0  0  0  0  0  0  0  0  0  0  0  0
   39.9752   32.0498   47.3976 C   0  0  0  0  0  0  0  0  0  0  0  0
   39.5187   31.9833   45.9608 C   0  0  0  0  0  0  0  0  0  0  0  0
   40.6447   31.7375   45.0034 C   0  0  0  0  0  0  0  0  0  0  0  0
   40.5946   29.4749   46.2577 H   0  0  0  0  0  0  0  0  0  0  0  0
   42.3122   29.5766   46.9020 H   0  0  0  0  0  0  0  0  0  0  0  0
   41.8517   31.3316   48.2794 H   0  0  0  0  0  0  0  0  0  0  0  0
   40.4939   30.2472   48.5317 H   0  0  0  0  0  0  0  0  0  0  0  0
   40.5611   32.9963   47.4758 H   0  0  0  0  0  0  0  0  0  0  0  0
   39.1304   33.0158   45.7263 H   0  0  0  0  0  0  0  0  0  0  0  0
   38.6694   31.3040   45.8678 H   0  0  0  0  0  0  0  0  0  0  0  0
   41.0168   32.6723   44.4979 H   0  0  0  0  0  0  0  0  0  0  0  0
   40.2698   31.0980   44.1847 H   0  0  0  0  0  0  0  0  0  0  0  0
  1  9  1  0
  2 10  1  0
  2  1  2  0
  3  2  1  0
  4  3  2  0
  4  5  1  0
  5  6  2  0
  6  1  1  0
  8  7  2  0
  9  7  1  0
 10 11  1  0
 11 12  2  0
 13 14  2  0
 13 12  1  0
 15 13  1  0
 16 15  1  0
 16 10  1  0
 17 16  2  0
  3 18  1  0
  5 19  1  0
  7 20  1  0
  9 21  1  0
 11 22  1  0
 12 23  1  0
 24 25  1  0
 25 26  1  0
 26 27  1  0
 27 28  1  0
 28 29  1  0
 29 30  1  0
 30 25  1  0
 26 31  1  0
 26 32  1  0
 27 33  1  0
 27 34  1  0
 28 35  1  0
 29 36  1  0
 29 37  1  0
 30 38  1  0
 30 39  1  0
 15 28  1  0
M  ISO  6  18  14  19  14  20   6  22  14  23  14  24   5
M  END
>  <DihAtoms>  (1) 
12,14,27,26

>  <DihDeg>  (1) 
122.86496476358315

$$$$
