
 OpenBabel03272510243D

 30 33  0  0  0  0  0  0  0  0999 V2000
   36.1620   30.1770   46.8320 C   0  0  0  0  0  0  0  0  0  0  0  0
   37.0330   30.7470   47.7560 C   0  0  0  0  0  0  0  0  0  0  0  0
   38.0070   31.6520   47.3520 C   0  0  0  0  0  0  0  0  0  0  0  0
   38.0490   31.9430   45.9880 C   0  0  0  0  0  0  0  0  0  0  0  0
   38.9170   32.8000   45.3560 N   0  0  0  0  0  0  0  0  0  0  0  0
   38.5850   32.7600   44.0570 C   0  0  0  0  0  0  0  0  0  0  0  0
   37.5660   31.9290   43.8510 N   0  0  0  0  0  0  0  0  0  0  0  0
   37.2110   31.4060   45.0430 C   0  0  0  0  0  0  0  0  0  0  0  0
   36.2470   30.5010   45.4840 C   0  0  0  0  0  0  0  0  0  0  0  0
   35.4000   29.4710   47.1330 H   0  0  0  0  0  0  0  0  0  0  0  0
   38.6790   32.0920   48.0640 H   0  0  0  0  0  0  0  0  0  0  0  0
   39.6840   33.3670   45.8260 H   0  0  0  0  0  0  0  0  0  0  0  0
   35.5850   30.0760   44.7420 H   0  0  0  0  0  0  0  0  0  0  0  0
   37.5500   30.1940   51.4450 C   0  0  0  0  0  0  0  0  0  0  0  0
   37.7930   30.6110   50.1450 C   0  0  0  0  0  0  0  0  0  0  0  0
   36.8800   30.3570   49.1440 C   0  0  0  0  0  0  0  0  0  0  0  0
   35.7480   29.6880   49.4990 N   0  0  0  0  0  0  0  0  0  0  0  0
   35.5240   29.2860   50.7750 C   0  0  0  0  0  0  0  0  0  0  0  0
   36.4150   29.5390   51.7270 N   0  0  0  0  0  0  0  0  0  0  0  0
   38.2730   30.3980   52.2250 H   0  0  0  0  0  0  0  0  0  0  0  0
   38.6970   31.1420   49.8750 H   0  0  0  0  0  0  0  0  0  0  0  0
   34.6110   28.7490   51.0490 H   0  0  0  0  0  0  0  0  0  0  0  0
   39.2810   33.5280   43.1210 O   0  0  0  0  0  0  0  0  0  0  0  0
   37.3650   32.0670   38.7130 H   0  0  0  0  0  0  0  0  0  0  0  0
   37.5700   31.9200   39.7100 N   0  0  0  0  0  0  0  0  0  0  0  0
   38.9550   31.5900   39.9720 C   0  0  0  0  0  2  0  0  0  0  0  0
   39.2190   31.7620   41.4700 C   0  0  0  0  0  2  0  0  0  0  0  0
   39.2940   33.2410   41.7400 C   0  0  0  0  0  3  0  0  0  0  0  0
   38.1930   33.9200   40.9910 C   0  0  0  0  0  2  0  0  0  0  0  0
   37.0830   32.9730   40.5680 C   0  0  0  0  0  2  0  0  0  0  0  0
  1 10  1  0  0  0  0
  1  2  1  0  0  0  0
  2 16  1  0  0  0  0
  3  2  2  0  0  0  0
  3 11  1  0  0  0  0
  4  3  1  0  0  0  0
  5 12  1  0  0  0  0
  5  4  1  0  0  0  0
  6  5  1  0  0  0  0
  7  6  2  0  0  0  0
  7  8  1  0  0  0  0
  8  9  1  0  0  0  0
  8  4  2  0  0  0  0
  9  1  2  0  0  0  0
 13  9  1  0  0  0  0
 14 19  1  0  0  0  0
 14 20  1  0  0  0  0
 15 14  2  0  0  0  0
 16 17  2  0  0  0  0
 16 15  1  0  0  0  0
 17 18  1  0  0  0  0
 18 22  1  0  0  0  0
 18 19  2  0  0  0  0
 21 15  1  0  0  0  0
 23  6  1  0  0  0  0
 24 25  1  0  0  0  0
 25 26  1  0  0  0  0
 25 30  1  0  0  0  0
 26 27  1  0  0  0  0
 27 28  1  0  0  0  0
 28 23  1  0  0  0  0
 29 28  1  0  0  0  0
 30 29  1  0  0  0  0
M  END
>  <minimizedAffinity>
-5.41467524

>  <minimizedRMSD>
1.36055338

$$$$
