
     RDKit          3D

 46 49  0  0  0  0  0  0  0  0999 V2000
   36.9971   31.3324   48.6779 C   0  0  0  0  0  0  0  0  0  0  0  0
   37.0458   32.3125   49.6582 C   0  0  0  0  0  0  0  0  0  0  0  0
   37.9909   33.3384   49.5332 C   0  0  0  0  0  0  0  0  0  0  0  0
   38.8547   33.3660   48.4485 C   0  0  0  0  0  0  0  0  0  0  0  0
   38.7721   32.3676   47.4906 C   0  0  0  0  0  0  0  0  0  0  0  0
   37.8599   31.4086   47.6461 N   0  0  0  0  0  0  0  0  0  0  0  0
   35.1263   28.4788   50.2439 C   0  0  0  0  0  0  0  0  0  0  0  0
   36.1441   29.4419   50.0045 C   0  0  0  0  0  0  0  0  0  0  0  0
   35.9814   30.3483   48.9448 C   0  0  0  0  0  0  0  0  0  0  0  0
   34.8444   30.2429   48.2073 N   0  0  0  0  0  0  0  0  0  0  0  0
   33.8921   29.3037   48.4705 C   0  0  0  0  0  0  0  0  0  0  0  0
   34.0305   28.4369   49.4713 N   0  0  0  0  0  0  0  0  0  0  0  0
   32.8014   29.3998   47.5555 N   0  0  0  0  0  0  0  0  0  0  0  0
   37.3331   29.4447   50.8841 C   0  0  0  0  0  0  0  0  0  0  0  0
   38.4955   29.7626   50.1701 F   0  0  0  0  0  0  0  0  0  0  0  0
   37.1840   30.3624   51.8620 F   0  0  0  0  0  0  0  0  0  0  0  0
   37.5718   28.2095   51.4797 F   0  0  0  0  0  0  0  0  0  0  0  0
   39.6377   32.3354   46.3243 C   0  0  0  0  0  0  0  0  0  0  0  0
   40.2476   31.2217   45.7939 C   0  0  0  0  0  0  0  0  0  0  0  0
   40.9947   31.5756   44.6835 C   0  0  0  0  0  0  0  0  0  0  0  0
   40.8087   32.9174   44.5765 N   0  0  0  0  0  0  0  0  0  0  0  0
   40.0122   33.3519   45.5427 N   0  0  0  0  0  0  0  0  0  0  0  0
   36.4845   32.5083   50.5607 H   0  0  0  0  0  0  0  0  0  0  0  0
   38.1606   34.1601   50.1905 H   0  0  0  0  0  0  0  0  0  0  0  0
   39.6115   34.1182   48.2743 H   0  0  0  0  0  0  0  0  0  0  0  0
   35.2580   27.7806   51.0651 H   0  0  0  0  0  0  0  0  0  0  0  0
   32.9138   29.5817   46.5470 H   0  0  0  0  0  0  0  0  0  0  0  0
   31.8116   29.2819   47.9036 H   0  0  0  0  0  0  0  0  0  0  0  0
   40.1695   30.2019   46.1736 H   0  0  0  0  0  0  0  0  0  0  0  0
   41.5791   30.9473   44.0575 H   0  0  0  0  0  0  0  0  0  0  0  0
   39.2453   35.4251   40.9255 H   0  0  0  0  0  0  0  0  0  0  0  0
   39.3914   35.1905   41.9415 N   0  0  0  0  0  0  0  0  0  0  0  0
   39.4544   33.7569   42.0334 C   0  0  0  0  0  0  0  0  0  0  0  0
   40.8982   33.3202   42.1607 C   0  0  0  0  0  0  0  0  0  0  0  0
   41.4188   33.7250   43.5305 C   0  0  0  0  0  0  0  0  0  0  0  0
   41.0949   35.1888   43.6920 C   0  0  0  0  0  0  0  0  0  0  0  0
   40.6252   35.8116   42.4028 C   0  0  0  0  0  0  0  0  0  0  0  0
   38.9855   33.2101   41.2161 H   0  0  0  0  0  0  0  0  0  0  0  0
   38.9475   33.4579   42.9860 H   0  0  0  0  0  0  0  0  0  0  0  0
   40.9013   32.2043   42.1403 H   0  0  0  0  0  0  0  0  0  0  0  0
   41.5374   33.7615   41.3847 H   0  0  0  0  0  0  0  0  0  0  0  0
   42.5182   33.5774   43.5810 H   0  0  0  0  0  0  0  0  0  0  0  0
   40.3529   35.3788   44.4899 H   0  0  0  0  0  0  0  0  0  0  0  0
   42.0156   35.7686   43.9871 H   0  0  0  0  0  0  0  0  0  0  0  0
   40.3471   36.8718   42.6520 H   0  0  0  0  0  0  0  0  0  0  0  0
   41.4021   35.8482   41.6382 H   0  0  0  0  0  0  0  0  0  0  0  0
  1  9  1  0
  1  2  2  0
  3  2  1  0
  4  3  2  0
  5  6  2  0
  5  4  1  0
  6  1  1  0
  8  7  2  0
  8 14  1  0
  9  8  1  0
 10 11  1  0
 10  9  2  0
 11 12  2  0
 12  7  1  0
 13 11  1  0
 14 17  1  0
 14 16  1  0
 15 14  1  0
 18  5  1  0
 19 18  1  0
 20 19  2  0
 21 20  1  0
 21 22  1  0
 22 18  2  0
  2 23  1  0
  3 24  1  0
  4 25  1  0
  7 26  1  0
 13 27  1  0
 13 28  1  0
 19 29  1  0
 20 30  1  0
 31 32  1  0
 32 33  1  0
 33 34  1  0
 34 35  1  0
 35 36  1  0
 36 37  1  0
 37 32  1  0
 33 38  1  0
 33 39  1  0
 34 40  1  0
 34 41  1  0
 35 42  1  0
 36 43  1  0
 36 44  1  0
 37 45  1  0
 37 46  1  0
 21 35  1  0
M  ISO  7  23  14  24  14  25  14  26  14  29  14  30  14  31   5
M  END
>  <DihAtoms>  (1) 
19,20,34,33

>  <DihDeg>  (1) 
-160.7657308074751

$$$$
