REMARK  Name = 
REMARK  3 active torsions:
REMARK  status: ('A' for Active; 'I' for Inactive)
REMARK    1  A    between atoms: C_1  and  O_10
REMARK    2  A    between atoms: C_2  and  N_9
REMARK    3  A    between atoms: O_10  and  C_19
REMARK                            x       y       z     vdW  Elec       q    Type
REMARK                         _______ _______ _______ _____ _____    ______ ____
ROOT
ATOM      1  C   UNL     1      36.783  29.681  51.122  0.00  0.00    +0.000 A 
ATOM      2  C   UNL     1      37.302  30.069  49.891  0.00  0.00    +0.000 A 
ATOM      3  C   UNL     1      36.547  29.858  48.755  0.00  0.00    +0.000 A 
ATOM      4  N   UNL     1      35.317  29.272  48.899  0.00  0.00    +0.000 NA
ATOM      5  C   UNL     1      34.834  28.904  50.101  0.00  0.00    +0.000 A 
ATOM      6  N   UNL     1      35.572  29.115  51.183  0.00  0.00    +0.000 NA
ATOM      7  H   UNL     1      36.886  30.134  47.754  0.00  0.00    +0.000 HD
ATOM      8  H   UNL     1      33.863  28.442  50.222  0.00  0.00    +0.000 HD
ENDROOT
BRANCH   2  11
ATOM      9  C   UNL     1      38.632  32.062  49.502  0.00  0.00    +0.000 C 
ATOM     10  O   UNL     1      37.811  33.032  49.458  0.00  0.00    +0.000 OA
ATOM     11  N   UNL     1      38.541  30.668  49.671  0.00  0.00    +0.000 N 
ATOM     12  H   UNL     1      39.410  32.803  49.351  0.00  0.00    +0.000 HD
ATOM     13  H   UNL     1      39.507  30.286  49.596  0.00  0.00    +0.000 HD
ENDBRANCH   2  11
BRANCH   1  14
ATOM     14  O   UNL     1      37.656  29.959  52.162  0.00  0.00    +0.000 OA
BRANCH  14  19
ATOM     15  H   UNL     1      37.663  29.546  57.255  0.00  0.00    +0.000 HD
ATOM     16  N   UNL     1      37.382  29.516  56.241  0.00  0.00    +0.000 NA
ATOM     17  C   UNL     1      38.148  28.502  55.549  0.00  0.00    +0.000 C 
ATOM     18  C   UNL     1      38.481  28.898  54.135  0.00  0.00    +0.000 C 
ATOM     19  C   UNL     1      37.314  29.641  53.492  0.00  0.00    +0.000 C 
ATOM     20  C   UNL     1      36.958  30.844  54.300  0.00  0.00    +0.000 C 
ATOM     21  C   UNL     1      37.659  30.808  55.649  0.00  0.00    +0.000 C 
ENDBRANCH  14  19
ENDBRANCH   1  14
TORSDOF 3
