REMARK  Name = 
REMARK  4 active torsions:
REMARK  status: ('A' for Active; 'I' for Inactive)
REMARK    1  A    between atoms: C_1  and  C_9
REMARK    2  A    between atoms: C_5  and  C_18
REMARK    3  A    between atoms: C_8  and  C_14
REMARK    4  A    between atoms: N_21  and  C_35
REMARK                            x       y       z     vdW  Elec       q    Type
REMARK                         _______ _______ _______ _____ _____    ______ ____
ROOT
ATOM      1  C   UNL     1      36.997  31.332  48.678  0.00  0.00    +0.000 A 
ATOM      2  C   UNL     1      37.046  32.312  49.658  0.00  0.00    +0.000 A 
ATOM      3  C   UNL     1      37.991  33.338  49.533  0.00  0.00    +0.000 A 
ATOM      4  C   UNL     1      38.855  33.366  48.449  0.00  0.00    +0.000 A 
ATOM      5  C   UNL     1      38.772  32.368  47.491  0.00  0.00    +0.000 A 
ATOM      6  N   UNL     1      37.860  31.409  47.646  0.00  0.00    +0.000 NA
ATOM      7  H   UNL     1      36.484  32.508  50.561  0.00  0.00    +0.000 HD
ATOM      8  H   UNL     1      38.161  34.160  50.191  0.00  0.00    +0.000 HD
ATOM      9  H   UNL     1      39.611  34.118  48.274  0.00  0.00    +0.000 HD
ENDROOT
BRANCH   1  12
ATOM     10  C   UNL     1      35.126  28.479  50.244  0.00  0.00    +0.000 A 
ATOM     11  C   UNL     1      36.144  29.442  50.005  0.00  0.00    +0.000 A 
ATOM     12  C   UNL     1      35.981  30.348  48.945  0.00  0.00    +0.000 A 
ATOM     13  N   UNL     1      34.844  30.243  48.207  0.00  0.00    +0.000 NA
ATOM     14  C   UNL     1      33.892  29.304  48.471  0.00  0.00    +0.000 A 
ATOM     15  N   UNL     1      34.031  28.437  49.471  0.00  0.00    +0.000 NA
ATOM     16  N   UNL     1      32.801  29.400  47.556  0.00  0.00    +0.000 N 
ATOM     17  H   UNL     1      35.258  27.781  51.065  0.00  0.00    +0.000 HD
ATOM     18  H   UNL     1      32.914  29.582  46.547  0.00  0.00    +0.000 HD
ATOM     19  H   UNL     1      31.812  29.282  47.904  0.00  0.00    +0.000 HD
BRANCH  11  20
ATOM     20  C   UNL     1      37.333  29.445  50.884  0.00  0.00    +0.000 C 
ATOM     21  F   UNL     1      38.495  29.763  50.170  0.00  0.00    +0.000 F 
ATOM     22  F   UNL     1      37.184  30.362  51.862  0.00  0.00    +0.000 F 
ATOM     23  F   UNL     1      37.572  28.209  51.480  0.00  0.00    +0.000 F 
ENDBRANCH  11  20
ENDBRANCH   1  12
BRANCH   5  24
ATOM     24  C   UNL     1      39.638  32.335  46.324  0.00  0.00    +0.000 A 
ATOM     25  C   UNL     1      40.248  31.222  45.794  0.00  0.00    +0.000 A 
ATOM     26  C   UNL     1      40.995  31.576  44.684  0.00  0.00    +0.000 A 
ATOM     27  N   UNL     1      40.809  32.917  44.577  0.00  0.00    +0.000 N 
ATOM     28  N   UNL     1      40.012  33.352  45.543  0.00  0.00    +0.000 NA
ATOM     29  H   UNL     1      40.169  30.202  46.174  0.00  0.00    +0.000 HD
ATOM     30  H   UNL     1      41.579  30.947  44.057  0.00  0.00    +0.000 HD
BRANCH  27  35
ATOM     31  H   UNL     1      39.245  35.425  40.925  0.00  0.00    +0.000 HD
ATOM     32  N   UNL     1      39.391  35.191  41.941  0.00  0.00    +0.000 NA
ATOM     33  C   UNL     1      39.454  33.757  42.033  0.00  0.00    +0.000 C 
ATOM     34  C   UNL     1      40.898  33.320  42.161  0.00  0.00    +0.000 C 
ATOM     35  C   UNL     1      41.419  33.725  43.531  0.00  0.00    +0.000 C 
ATOM     36  C   UNL     1      41.095  35.189  43.692  0.00  0.00    +0.000 C 
ATOM     37  C   UNL     1      40.625  35.812  42.403  0.00  0.00    +0.000 C 
ENDBRANCH  27  35
ENDBRANCH   5  24
TORSDOF 4
