
 OpenBabel03272507593D

 37 40  0  0  0  0  0  0  0  0999 V2000
   36.9640   31.1230   48.4450 C   0  0  0  0  0  0  0  0  0  0  0  0
   37.1890   32.1350   49.3660 C   0  0  0  0  0  0  0  0  0  0  0  0
   38.1700   33.0940   49.0830 C   0  0  0  0  0  0  0  0  0  0  0  0
   38.8960   33.0250   47.9040 C   0  0  0  0  0  0  0  0  0  0  0  0
   38.6400   31.9970   47.0100 C   0  0  0  0  0  0  0  0  0  0  0  0
   37.6990   31.1050   47.3160 N   0  0  0  0  0  0  0  0  0  0  0  0
   36.7530   32.4020   50.3190 H   0  0  0  0  0  0  0  0  0  0  0  0
   38.4660   33.9280   49.6770 H   0  0  0  0  0  0  0  0  0  0  0  0
   39.6680   33.7200   47.6060 H   0  0  0  0  0  0  0  0  0  0  0  0
   35.0740   28.5690   50.4450 C   0  0  0  0  0  0  0  0  0  0  0  0
   36.1090   29.4580   50.0450 C   0  0  0  0  0  0  0  0  0  0  0  0
   35.9330   30.2160   48.8760 C   0  0  0  0  0  0  0  0  0  0  0  0
   34.7680   30.0470   48.1950 N   0  0  0  0  0  0  0  0  0  0  0  0
   33.8010   29.1830   48.6150 C   0  0  0  0  0  0  0  0  0  0  0  0
   33.9520   28.4560   49.7200 N   0  0  0  0  0  0  0  0  0  0  0  0
   32.6820   29.1880   47.7300 N   0  0  0  0  0  0  0  0  0  0  0  0
   35.2170   27.9850   51.3490 H   0  0  0  0  0  0  0  0  0  0  0  0
   32.7640   29.2270   46.7030 H   0  0  0  0  0  0  0  0  0  0  0  0
   31.7030   29.1490   48.1220 H   0  0  0  0  0  0  0  0  0  0  0  0
   37.3270   29.5440   50.8770 C   0  0  0  0  0  0  0  0  0  0  0  0
   38.4680   29.7590   50.0930 F   0  0  0  0  0  0  0  0  0  0  0  0
   37.2230   30.5700   51.7470 F   0  0  0  0  0  0  0  0  0  0  0  0
   37.5730   28.3810   51.6040 F   0  0  0  0  0  0  0  0  0  0  0  0
   39.3550   31.8640   45.7510 C   0  0  0  0  0  0  0  0  0  0  0  0
   40.6180   31.3470   45.5830 C   0  0  0  0  0  0  0  0  0  0  0  0
   40.9680   31.3800   44.2440 C   0  0  0  0  0  0  0  0  0  0  0  0
   39.8840   31.9260   43.6350 N   0  0  0  0  0  0  0  0  0  0  0  0
   38.9440   32.2060   44.5270 N   0  0  0  0  0  0  0  0  0  0  0  0
   41.2660   30.9610   46.3720 H   0  0  0  0  0  0  0  0  0  0  0  0
   41.8730   31.0530   43.7930 H   0  0  0  0  0  0  0  0  0  0  0  0
   37.4940   30.0460   40.0540 H   0  0  0  0  0  0  0  0  0  0  0  0
   37.6240   30.5930   40.9450 N   0  0  0  0  0  0  0  0  0  0  0  0
   38.7360   30.0010   41.6390 C   0  0  0  0  0  2  0  0  0  0  0  0
   39.9710   30.8510   41.4340 C   0  0  0  0  0  2  0  0  0  0  0  0
   39.8080   32.1550   42.1990 C   0  0  0  0  0  3  0  0  0  0  0  0
   38.4720   32.7220   41.7910 C   0  0  0  0  0  2  0  0  0  0  0  0
   37.8790   31.9880   40.6160 C   0  0  0  0  0  2  0  0  0  0  0  0
  1 12  1  0  0  0  0
  1  2  1  0  0  0  0
  2  7  1  0  0  0  0
  3  2  2  0  0  0  0
  3  8  1  0  0  0  0
  4  3  1  0  0  0  0
  5  6  1  0  0  0  0
  5  4  2  0  0  0  0
  6  1  2  0  0  0  0
  9  4  1  0  0  0  0
 10 17  1  0  0  0  0
 11 10  1  0  0  0  0
 11 20  1  0  0  0  0
 12 11  2  0  0  0  0
 13 14  2  0  0  0  0
 13 12  1  0  0  0  0
 14 15  1  0  0  0  0
 15 10  2  0  0  0  0
 16 19  1  0  0  0  0
 16 14  1  0  0  0  0
 18 16  1  0  0  0  0
 20 23  1  0  0  0  0
 20 22  1  0  0  0  0
 21 20  1  0  0  0  0
 24  5  1  0  0  0  0
 25 24  1  0  0  0  0
 25 29  1  0  0  0  0
 26 25  2  0  0  0  0
 27 26  1  0  0  0  0
 27 28  1  0  0  0  0
 28 24  2  0  0  0  0
 30 26  1  0  0  0  0
 31 32  1  0  0  0  0
 32 33  1  0  0  0  0
 34 33  1  0  0  0  0
 34 35  1  0  0  0  0
 35 27  1  0  0  0  0
 36 35  1  0  0  0  0
 37 32  1  0  0  0  0
 37 36  1  0  0  0  0
M  END
>  <minimizedAffinity>
-7.09690809

>  <minimizedRMSD>
2.28875232

$$$$
