
 OpenBabel03272507373D

 21 22  0  0  0  0  0  0  0  0999 V2000
   37.2530   30.0080   49.3170 C   0  0  0  0  0  0  0  0  0  0  0  0
   36.0520   29.3450   49.0870 C   0  0  0  0  0  0  0  0  0  0  0  0
   35.2950   28.9440   50.1700 C   0  0  0  0  0  0  0  0  0  0  0  0
   35.7700   29.2210   51.4250 N   0  0  0  0  0  0  0  0  0  0  0  0
   36.9370   29.8640   51.6250 C   0  0  0  0  0  0  0  0  0  0  0  0
   37.6510   30.2430   50.5730 N   0  0  0  0  0  0  0  0  0  0  0  0
   34.3430   28.4190   50.0700 H   0  0  0  0  0  0  0  0  0  0  0  0
   37.3170   30.0870   52.6130 H   0  0  0  0  0  0  0  0  0  0  0  0
   34.4650   29.8090   47.3100 C   0  0  0  0  0  0  0  0  0  0  0  0
   33.7820   30.8080   47.6980 O   0  0  0  0  0  0  0  0  0  0  0  0
   35.5100   29.0310   47.8420 N   0  0  0  0  0  0  0  0  0  0  0  0
   33.8750   29.8460   46.4000 H   0  0  0  0  0  0  0  0  0  0  0  0
   35.7190   28.2820   47.1490 H   0  0  0  0  0  0  0  0  0  0  0  0
   37.8930   30.3440   48.1350 O   0  0  0  0  0  0  0  0  0  0  0  0
   39.9430   35.0030   47.6790 H   0  0  0  0  0  0  0  0  0  0  0  0
   39.8000   33.9780   47.8730 N   0  0  0  0  0  0  0  0  0  0  0  0
   39.6460   33.2570   46.6270 C   0  0  0  0  0  2  0  0  0  0  0  0
   38.6680   32.1190   46.7390 C   0  0  0  0  0  2  0  0  0  0  0  0
   38.8000   31.4220   48.0900 C   0  0  0  0  0  3  0  0  0  0  0  0
   38.5900   32.4000   49.1990 C   0  0  0  0  0  2  0  0  0  0  0  0
   38.5980   33.8230   48.6640 C   0  0  0  0  0  2  0  0  0  0  0  0
  1  6  1  0  0  0  0
  2  1  2  0  0  0  0
  2  3  1  0  0  0  0
  3  4  2  0  0  0  0
  4  5  1  0  0  0  0
  5  8  1  0  0  0  0
  6  5  2  0  0  0  0
  7  3  1  0  0  0  0
  9 10  2  0  0  0  0
  9 11  1  0  0  0  0
 11  2  1  0  0  0  0
 12  9  1  0  0  0  0
 13 11  1  0  0  0  0
 14  1  1  0  0  0  0
 15 16  1  0  0  0  0
 16 21  1  0  0  0  0
 17 18  1  0  0  0  0
 17 16  1  0  0  0  0
 18 19  1  0  0  0  0
 19 14  1  0  0  0  0
 19 20  1  0  0  0  0
 21 20  1  0  0  0  0
M  END
>  <minimizedAffinity>
-4.31531143

>  <minimizedRMSD>
5.59310484

$$$$
