
 OpenBabel03272510123D

 33 36  0  0  0  0  0  0  0  0999 V2000
   33.9640   31.3450   35.6480 C   0  0  0  0  0  0  0  0  0  0  0  0
   35.3160   31.3920   35.8620 C   0  0  0  0  0  0  0  0  0  0  0  0
   36.2180   30.4810   35.3560 C   0  0  0  0  0  0  0  0  0  0  0  0
   35.7810   29.4460   34.5860 C   0  0  0  0  0  0  0  0  0  0  0  0
   34.3990   29.3930   34.3630 C   0  0  0  0  0  0  0  0  0  0  0  0
   33.5530   30.3060   34.8780 N   0  0  0  0  0  0  0  0  0  0  0  0
   35.7440   32.1820   36.4630 H   0  0  0  0  0  0  0  0  0  0  0  0
   37.2850   30.5220   35.5280 H   0  0  0  0  0  0  0  0  0  0  0  0
   33.9090   28.6300   33.7730 H   0  0  0  0  0  0  0  0  0  0  0  0
   31.6720   32.0080   36.3840 C   0  0  0  0  0  0  0  0  0  0  0  0
   33.0300   32.2880   36.1820 C   0  0  0  0  0  0  0  0  0  0  0  0
   33.4560   33.5460   36.5120 C   0  0  0  0  0  0  0  0  0  0  0  0
   32.5630   34.4610   37.0140 N   0  0  0  0  0  0  0  0  0  0  0  0
   31.2540   34.1280   37.1870 C   0  0  0  0  0  0  0  0  0  0  0  0
   30.8020   32.9070   36.8750 N   0  0  0  0  0  0  0  0  0  0  0  0
   31.2960   31.0470   36.1430 H   0  0  0  0  0  0  0  0  0  0  0  0
   34.4950   33.8590   36.3910 H   0  0  0  0  0  0  0  0  0  0  0  0
   30.6860   34.9630   37.5910 H   0  0  0  0  0  0  0  0  0  0  0  0
   36.5430   28.4420   33.9990 O   0  0  0  0  0  0  0  0  0  0  0  0
   37.0960   27.4040   34.7490 C   0  0  0  0  0  0  0  0  0  0  0  0
   38.0650   27.8350   35.6480 C   0  0  0  0  0  0  0  0  0  0  0  0
   38.5230   26.7040   36.3190 C   0  0  0  0  0  0  0  0  0  0  0  0
   37.8460   25.6600   35.8260 N   0  0  0  0  0  0  0  0  0  0  0  0
   37.0130   26.0770   34.9070 N   0  0  0  0  0  0  0  0  0  0  0  0
   38.5170   28.7940   35.9300 H   0  0  0  0  0  0  0  0  0  0  0  0
   39.2770   26.6060   37.0990 H   0  0  0  0  0  0  0  0  0  0  0  0
   40.4040   22.8860   38.6540 H   0  0  0  0  0  0  0  0  0  0  0  0
   39.4910   22.6660   38.1660 N   0  0  0  0  0  0  0  0  0  0  0  0
   39.6900   22.6150   36.7540 C   0  0  0  0  0  2  0  0  0  0  0  0
   39.4580   23.9110   36.0510 C   0  0  0  0  0  2  0  0  0  0  0  0
   37.9970   24.2840   36.2300 C   0  0  0  0  0  3  0  0  0  0  0  0
   37.4910   24.0060   37.6110 C   0  0  0  0  0  2  0  0  0  0  0  0
   38.5540   23.6530   38.6050 C   0  0  0  0  0  2  0  0  0  0  0  0
  1  2  1  0  0  0  0
  1 11  1  0  0  0  0
  2  7  1  0  0  0  0
  3  8  1  0  0  0  0
  3  2  2  0  0  0  0
  4  3  1  0  0  0  0
  5  4  2  0  0  0  0
  5  6  1  0  0  0  0
  6  1  2  0  0  0  0
  9  5  1  0  0  0  0
 10 15  1  0  0  0  0
 11 10  2  0  0  0  0
 11 12  1  0  0  0  0
 12 13  2  0  0  0  0
 13 14  1  0  0  0  0
 14 18  1  0  0  0  0
 15 14  2  0  0  0  0
 16 10  1  0  0  0  0
 17 12  1  0  0  0  0
 19  4  1  0  0  0  0
 19 20  1  0  0  0  0
 20 24  2  0  0  0  0
 20 21  1  0  0  0  0
 21 25  1  0  0  0  0
 21 22  2  0  0  0  0
 22 26  1  0  0  0  0
 23 31  1  0  0  0  0
 23 22  1  0  0  0  0
 24 23  1  0  0  0  0
 28 33  1  0  0  0  0
 28 27  1  0  0  0  0
 29 28  1  0  0  0  0
 30 31  1  0  0  0  0
 30 29  1  0  0  0  0
 31 32  1  0  0  0  0
 32 33  1  0  0  0  0
M  END
>  <minimizedAffinity>
-5.92294645

$$$$

 OpenBabel03272510123D

 33 36  0  0  0  0  0  0  0  0999 V2000
   35.7950   29.3430   34.0650 C   0  0  0  0  0  0  0  0  0  0  0  0
   35.8190   29.4490   32.7000 C   0  0  0  0  0  0  0  0  0  0  0  0
   36.3830   28.5180   31.8550 C   0  0  0  0  0  0  0  0  0  0  0  0
   36.9680   27.4000   32.3670 C   0  0  0  0  0  0  0  0  0  0  0  0
   36.9480   27.2860   33.7630 C   0  0  0  0  0  0  0  0  0  0  0  0
   36.3840   28.2220   34.5520 N   0  0  0  0  0  0  0  0  0  0  0  0
   35.3750   30.3060   32.2140 H   0  0  0  0  0  0  0  0  0  0  0  0
   36.3990   28.6060   30.7770 H   0  0  0  0  0  0  0  0  0  0  0  0
   37.3730   26.4560   34.3100 H   0  0  0  0  0  0  0  0  0  0  0  0
   35.9670   31.2030   35.7220 C   0  0  0  0  0  0  0  0  0  0  0  0
   35.2160   30.3170   34.9390 C   0  0  0  0  0  0  0  0  0  0  0  0
   33.8540   30.4020   35.0460 C   0  0  0  0  0  0  0  0  0  0  0  0
   33.2910   31.3260   35.8920 N   0  0  0  0  0  0  0  0  0  0  0  0
   34.0760   32.1610   36.6280 C   0  0  0  0  0  0  0  0  0  0  0  0
   35.4110   32.1060   36.5490 N   0  0  0  0  0  0  0  0  0  0  0  0
   37.0260   31.1750   35.6720 H   0  0  0  0  0  0  0  0  0  0  0  0
   33.1840   29.7550   34.4760 H   0  0  0  0  0  0  0  0  0  0  0  0
   33.4740   32.8270   37.2420 H   0  0  0  0  0  0  0  0  0  0  0  0
   37.5820   26.3650   31.6700 O   0  0  0  0  0  0  0  0  0  0  0  0
   37.0840   25.0630   31.6970 C   0  0  0  0  0  0  0  0  0  0  0  0
   35.8470   24.9370   31.0750 C   0  0  0  0  0  0  0  0  0  0  0  0
   35.4780   23.5980   31.1780 C   0  0  0  0  0  0  0  0  0  0  0  0
   36.4640   22.9750   31.8360 N   0  0  0  0  0  0  0  0  0  0  0  0
   37.4000   23.8380   32.1370 N   0  0  0  0  0  0  0  0  0  0  0  0
   35.1470   25.6050   30.5570 H   0  0  0  0  0  0  0  0  0  0  0  0
   34.5860   23.0850   30.8230 H   0  0  0  0  0  0  0  0  0  0  0  0
   34.7330   18.7940   30.5080 H   0  0  0  0  0  0  0  0  0  0  0  0
   35.5500   18.9940   31.1520 N   0  0  0  0  0  0  0  0  0  0  0  0
   35.0860   19.6040   32.3550 C   0  0  0  0  0  2  0  0  0  0  0  0
   35.0720   21.0960   32.3270 C   0  0  0  0  0  2  0  0  0  0  0  0
   36.5050   21.5720   32.1710 C   0  0  0  0  0  3  0  0  0  0  0  0
   37.2890   20.7470   31.1980 C   0  0  0  0  0  2  0  0  0  0  0  0
   36.4710   19.7840   30.3950 C   0  0  0  0  0  2  0  0  0  0  0  0
  1  6  1  0  0  0  0
  1 11  1  0  0  0  0
  2  1  2  0  0  0  0
  3  4  2  0  0  0  0
  3  2  1  0  0  0  0
  4  5  1  0  0  0  0
  5  9  1  0  0  0  0
  5  6  2  0  0  0  0
  7  2  1  0  0  0  0
  8  3  1  0  0  0  0
 10 15  1  0  0  0  0
 11 12  1  0  0  0  0
 11 10  2  0  0  0  0
 12 13  2  0  0  0  0
 13 14  1  0  0  0  0
 14 18  1  0  0  0  0
 15 14  2  0  0  0  0
 16 10  1  0  0  0  0
 17 12  1  0  0  0  0
 19 20  1  0  0  0  0
 19  4  1  0  0  0  0
 20 24  2  0  0  0  0
 21 22  2  0  0  0  0
 21 20  1  0  0  0  0
 22 23  1  0  0  0  0
 23 24  1  0  0  0  0
 23 31  1  0  0  0  0
 25 21  1  0  0  0  0
 26 22  1  0  0  0  0
 27 28  1  0  0  0  0
 28 29  1  0  0  0  0
 30 29  1  0  0  0  0
 31 30  1  0  0  0  0
 32 31  1  0  0  0  0
 33 28  1  0  0  0  0
 33 32  1  0  0  0  0
M  END
>  <minimizedAffinity>
-5.85522127

$$$$

 OpenBabel03272510123D

 33 36  0  0  0  0  0  0  0  0999 V2000
   38.4240   25.3080   35.3320 C   0  0  0  0  0  0  0  0  0  0  0  0
   38.1640   26.5790   35.7700 C   0  0  0  0  0  0  0  0  0  0  0  0
   37.5260   27.5470   35.0250 C   0  0  0  0  0  0  0  0  0  0  0  0
   37.1070   27.2650   33.7590 C   0  0  0  0  0  0  0  0  0  0  0  0
   37.3700   25.9660   33.3050 C   0  0  0  0  0  0  0  0  0  0  0  0
   37.9980   25.0510   34.0700 N   0  0  0  0  0  0  0  0  0  0  0  0
   38.4640   26.8840   36.7630 H   0  0  0  0  0  0  0  0  0  0  0  0
   37.3220   28.5490   35.3750 H   0  0  0  0  0  0  0  0  0  0  0  0
   37.0970   25.6000   32.3250 H   0  0  0  0  0  0  0  0  0  0  0  0
   38.6490   23.8690   37.3600 C   0  0  0  0  0  0  0  0  0  0  0  0
   39.0950   24.3100   36.1060 C   0  0  0  0  0  0  0  0  0  0  0  0
   40.2440   23.7430   35.6260 C   0  0  0  0  0  0  0  0  0  0  0  0
   40.9010   22.7930   36.3700 N   0  0  0  0  0  0  0  0  0  0  0  0
   40.4170   22.4070   37.5830 C   0  0  0  0  0  0  0  0  0  0  0  0
   39.2960   22.9390   38.0840 N   0  0  0  0  0  0  0  0  0  0  0  0
   37.7630   24.2790   37.7720 H   0  0  0  0  0  0  0  0  0  0  0  0
   40.6690   24.0200   34.6600 H   0  0  0  0  0  0  0  0  0  0  0  0
   41.0530   21.6500   38.0370 H   0  0  0  0  0  0  0  0  0  0  0  0
   36.4530   28.1110   32.8710 O   0  0  0  0  0  0  0  0  0  0  0  0
   35.5070   29.0410   33.3010 C   0  0  0  0  0  0  0  0  0  0  0  0
   34.3460   29.0360   32.5360 C   0  0  0  0  0  0  0  0  0  0  0  0
   33.5030   30.0040   33.0760 C   0  0  0  0  0  0  0  0  0  0  0  0
   34.1520   30.5470   34.1130 N   0  0  0  0  0  0  0  0  0  0  0  0
   35.3240   29.9800   34.2390 N   0  0  0  0  0  0  0  0  0  0  0  0
   33.9700   28.4810   31.6670 H   0  0  0  0  0  0  0  0  0  0  0  0
   32.5040   30.3140   32.7740 H   0  0  0  0  0  0  0  0  0  0  0  0
   34.4560   32.1920   38.5220 H   0  0  0  0  0  0  0  0  0  0  0  0
   34.0610   32.6730   37.6660 N   0  0  0  0  0  0  0  0  0  0  0  0
   32.8730   32.0110   37.2360 C   0  0  0  0  0  2  0  0  0  0  0  0
   33.0940   30.9420   36.2190 C   0  0  0  0  0  2  0  0  0  0  0  0
   33.6550   31.5970   34.9690 C   0  0  0  0  0  3  0  0  0  0  0  0
   34.6700   32.6550   35.2720 C   0  0  0  0  0  2  0  0  0  0  0  0
   35.1160   32.6990   36.7000 C   0  0  0  0  0  2  0  0  0  0  0  0
  1  2  1  0  0  0  0
  1 11  1  0  0  0  0
  2  7  1  0  0  0  0
  3  8  1  0  0  0  0
  3  2  2  0  0  0  0
  4  3  1  0  0  0  0
  5  4  2  0  0  0  0
  5  6  1  0  0  0  0
  6  1  2  0  0  0  0
  9  5  1  0  0  0  0
 10 16  1  0  0  0  0
 10 15  1  0  0  0  0
 11 10  2  0  0  0  0
 12 11  1  0  0  0  0
 12 13  2  0  0  0  0
 13 14  1  0  0  0  0
 14 18  1  0  0  0  0
 14 15  2  0  0  0  0
 17 12  1  0  0  0  0
 19 20  1  0  0  0  0
 19  4  1  0  0  0  0
 20 24  2  0  0  0  0
 21 22  2  0  0  0  0
 21 20  1  0  0  0  0
 22 23  1  0  0  0  0
 23 24  1  0  0  0  0
 23 31  1  0  0  0  0
 25 21  1  0  0  0  0
 26 22  1  0  0  0  0
 28 27  1  0  0  0  0
 29 28  1  0  0  0  0
 30 29  1  0  0  0  0
 31 32  1  0  0  0  0
 31 30  1  0  0  0  0
 32 33  1  0  0  0  0
 33 28  1  0  0  0  0
M  END
>  <minimizedAffinity>
-5.76710415

$$$$

 OpenBabel03272510123D

 33 36  0  0  0  0  0  0  0  0999 V2000
   35.5290   29.2210   33.9500 C   0  0  0  0  0  0  0  0  0  0  0  0
   36.4220   28.2250   34.2460 C   0  0  0  0  0  0  0  0  0  0  0  0
   36.9150   27.3210   33.3310 C   0  0  0  0  0  0  0  0  0  0  0  0
   36.5150   27.3830   32.0300 C   0  0  0  0  0  0  0  0  0  0  0  0
   35.6010   28.3990   31.7210 C   0  0  0  0  0  0  0  0  0  0  0  0
   35.1460   29.2620   32.6500 N   0  0  0  0  0  0  0  0  0  0  0  0
   36.7890   28.1070   35.2560 H   0  0  0  0  0  0  0  0  0  0  0  0
   37.6200   26.5360   33.5690 H   0  0  0  0  0  0  0  0  0  0  0  0
   35.1960   28.5700   30.7330 H   0  0  0  0  0  0  0  0  0  0  0  0
   33.6540   30.2720   35.2190 C   0  0  0  0  0  0  0  0  0  0  0  0
   35.0140   30.1520   34.9070 C   0  0  0  0  0  0  0  0  0  0  0  0
   35.8740   30.9920   35.5600 C   0  0  0  0  0  0  0  0  0  0  0  0
   35.3850   31.8970   36.4710 N   0  0  0  0  0  0  0  0  0  0  0  0
   34.0500   31.9660   36.7310 C   0  0  0  0  0  0  0  0  0  0  0  0
   33.1800   31.1600   36.1100 N   0  0  0  0  0  0  0  0  0  0  0  0
   32.9500   29.6420   34.7380 H   0  0  0  0  0  0  0  0  0  0  0  0
   36.9510   30.9730   35.3860 H   0  0  0  0  0  0  0  0  0  0  0  0
   33.8330   32.7320   37.4720 H   0  0  0  0  0  0  0  0  0  0  0  0
   36.9040   26.5590   30.9800 O   0  0  0  0  0  0  0  0  0  0  0  0
   36.7720   25.1720   31.0440 C   0  0  0  0  0  0  0  0  0  0  0  0
   37.9910   24.5040   31.0020 C   0  0  0  0  0  0  0  0  0  0  0  0
   37.7070   23.1430   31.0740 C   0  0  0  0  0  0  0  0  0  0  0  0
   36.3750   23.0290   31.1550 N   0  0  0  0  0  0  0  0  0  0  0  0
   35.8350   24.2200   31.1360 N   0  0  0  0  0  0  0  0  0  0  0  0
   39.0490   24.7850   30.9310 H   0  0  0  0  0  0  0  0  0  0  0  0
   38.3750   22.2830   31.0720 H   0  0  0  0  0  0  0  0  0  0  0  0
   36.6160   18.6860   32.9770 H   0  0  0  0  0  0  0  0  0  0  0  0
   35.7710   19.1910   32.5870 N   0  0  0  0  0  0  0  0  0  0  0  0
   35.9190   19.3780   31.1810 C   0  0  0  0  0  2  0  0  0  0  0  0
   36.5520   20.6730   30.7930 C   0  0  0  0  0  2  0  0  0  0  0  0
   35.6340   21.7950   31.2470 C   0  0  0  0  0  3  0  0  0  0  0  0
   35.0420   21.5510   32.6000 C   0  0  0  0  0  2  0  0  0  0  0  0
   35.6410   20.3970   33.3430 C   0  0  0  0  0  2  0  0  0  0  0  0
  1  2  1  0  0  0  0
  1 11  1  0  0  0  0
  2  7  1  0  0  0  0
  3  8  1  0  0  0  0
  3  2  2  0  0  0  0
  4  3  1  0  0  0  0
  5  4  2  0  0  0  0
  5  6  1  0  0  0  0
  6  1  2  0  0  0  0
  9  5  1  0  0  0  0
 10 15  1  0  0  0  0
 11 10  2  0  0  0  0
 11 12  1  0  0  0  0
 12 13  2  0  0  0  0
 13 14  1  0  0  0  0
 14 18  1  0  0  0  0
 15 14  2  0  0  0  0
 16 10  1  0  0  0  0
 17 12  1  0  0  0  0
 19 20  1  0  0  0  0
 19  4  1  0  0  0  0
 20 24  2  0  0  0  0
 21 20  1  0  0  0  0
 21 22  2  0  0  0  0
 22 23  1  0  0  0  0
 23 31  1  0  0  0  0
 24 23  1  0  0  0  0
 25 21  1  0  0  0  0
 26 22  1  0  0  0  0
 28 27  1  0  0  0  0
 28 33  1  0  0  0  0
 29 28  1  0  0  0  0
 30 29  1  0  0  0  0
 30 31  1  0  0  0  0
 31 32  1  0  0  0  0
 32 33  1  0  0  0  0
M  END
>  <minimizedAffinity>
-5.66618586

$$$$

 OpenBabel03272510123D

 33 36  0  0  0  0  0  0  0  0999 V2000
   38.5290   25.3730   35.2640 C   0  0  0  0  0  0  0  0  0  0  0  0
   38.3700   26.6750   35.6580 C   0  0  0  0  0  0  0  0  0  0  0  0
   37.7660   27.6530   34.8970 C   0  0  0  0  0  0  0  0  0  0  0  0
   37.2790   27.3490   33.6620 C   0  0  0  0  0  0  0  0  0  0  0  0
   37.4380   26.0180   33.2530 C   0  0  0  0  0  0  0  0  0  0  0  0
   38.0360   25.0950   34.0320 N   0  0  0  0  0  0  0  0  0  0  0  0
   38.7300   26.9980   36.6250 H   0  0  0  0  0  0  0  0  0  0  0  0
   37.6430   28.6800   35.2120 H   0  0  0  0  0  0  0  0  0  0  0  0
   37.1020   25.6320   32.3010 H   0  0  0  0  0  0  0  0  0  0  0  0
   40.3640   23.7350   35.6950 C   0  0  0  0  0  0  0  0  0  0  0  0
   39.1640   24.3640   36.0550 C   0  0  0  0  0  0  0  0  0  0  0  0
   38.5850   23.9620   37.2280 C   0  0  0  0  0  0  0  0  0  0  0  0
   39.1830   22.9850   37.9860 N   0  0  0  0  0  0  0  0  0  0  0  0
   40.3510   22.4110   37.5820 C   0  0  0  0  0  0  0  0  0  0  0  0
   40.9450   22.7790   36.4400 N   0  0  0  0  0  0  0  0  0  0  0  0
   40.8490   24.0140   34.7950 H   0  0  0  0  0  0  0  0  0  0  0  0
   37.6520   24.3930   37.5930 H   0  0  0  0  0  0  0  0  0  0  0  0
   40.6860   21.6600   38.2930 H   0  0  0  0  0  0  0  0  0  0  0  0
   36.6460   28.2010   32.7630 O   0  0  0  0  0  0  0  0  0  0  0  0
   35.5460   28.9750   33.1330 C   0  0  0  0  0  0  0  0  0  0  0  0
   35.1810   29.9050   32.1670 C   0  0  0  0  0  0  0  0  0  0  0  0
   34.0820   30.5970   32.6680 C   0  0  0  0  0  0  0  0  0  0  0  0
   33.8230   30.0870   33.8780 N   0  0  0  0  0  0  0  0  0  0  0  0
   34.6830   29.1380   34.1440 N   0  0  0  0  0  0  0  0  0  0  0  0
   35.5360   30.1960   31.1700 H   0  0  0  0  0  0  0  0  0  0  0  0
   33.4970   31.4030   32.2270 H   0  0  0  0  0  0  0  0  0  0  0  0
   32.5830   30.0820   38.4290 H   0  0  0  0  0  0  0  0  0  0  0  0
   32.1680   30.6460   37.6330 N   0  0  0  0  0  0  0  0  0  0  0  0
   31.5010   29.7800   36.7160 C   0  0  0  0  0  2  0  0  0  0  0  0
   32.3540   29.2970   35.5900 C   0  0  0  0  0  2  0  0  0  0  0  0
   32.7650   30.5050   34.7660 C   0  0  0  0  0  3  0  0  0  0  0  0
   33.1230   31.6900   35.6090 C   0  0  0  0  0  2  0  0  0  0  0  0
   33.2460   31.3990   37.0720 C   0  0  0  0  0  2  0  0  0  0  0  0
  1  2  1  0  0  0  0
  1 11  1  0  0  0  0
  2  7  1  0  0  0  0
  3  8  1  0  0  0  0
  3  2  2  0  0  0  0
  4  3  1  0  0  0  0
  5  4  2  0  0  0  0
  5  6  1  0  0  0  0
  6  1  2  0  0  0  0
  9  5  1  0  0  0  0
 10 11  2  0  0  0  0
 10 15  1  0  0  0  0
 11 12  1  0  0  0  0
 12 17  1  0  0  0  0
 12 13  2  0  0  0  0
 14 13  1  0  0  0  0
 14 18  1  0  0  0  0
 15 14  2  0  0  0  0
 16 10  1  0  0  0  0
 19 20  1  0  0  0  0
 19  4  1  0  0  0  0
 20 24  2  0  0  0  0
 21 22  2  0  0  0  0
 21 20  1  0  0  0  0
 22 23  1  0  0  0  0
 23 24  1  0  0  0  0
 23 31  1  0  0  0  0
 25 21  1  0  0  0  0
 26 22  1  0  0  0  0
 28 27  1  0  0  0  0
 29 28  1  0  0  0  0
 30 29  1  0  0  0  0
 31 30  1  0  0  0  0
 31 32  1  0  0  0  0
 32 33  1  0  0  0  0
 33 28  1  0  0  0  0
M  END
>  <minimizedAffinity>
-5.63334608

$$$$

 OpenBabel03272510123D

 33 36  0  0  0  0  0  0  0  0999 V2000
   36.2800   23.1150   31.9530 C   0  0  0  0  0  0  0  0  0  0  0  0
   35.4970   24.0240   31.2940 C   0  0  0  0  0  0  0  0  0  0  0  0
   35.7760   25.3700   31.1960 C   0  0  0  0  0  0  0  0  0  0  0  0
   36.8970   25.8760   31.7810 C   0  0  0  0  0  0  0  0  0  0  0  0
   37.7030   24.9510   32.4570 C   0  0  0  0  0  0  0  0  0  0  0  0
   37.3900   23.6420   32.5260 N   0  0  0  0  0  0  0  0  0  0  0  0
   34.5880   23.7040   30.8020 H   0  0  0  0  0  0  0  0  0  0  0  0
   35.1550   26.0850   30.6740 H   0  0  0  0  0  0  0  0  0  0  0  0
   38.6220   25.2060   32.9680 H   0  0  0  0  0  0  0  0  0  0  0  0
   35.6440   21.0860   33.2610 C   0  0  0  0  0  0  0  0  0  0  0  0
   35.9810   21.7200   32.0580 C   0  0  0  0  0  0  0  0  0  0  0  0
   36.0300   20.9340   30.9400 C   0  0  0  0  0  0  0  0  0  0  0  0
   35.7560   19.5910   31.0350 N   0  0  0  0  0  0  0  0  0  0  0  0
   35.4340   19.0330   32.2350 C   0  0  0  0  0  0  0  0  0  0  0  0
   35.3770   19.7710   33.3500 N   0  0  0  0  0  0  0  0  0  0  0  0
   35.5930   21.6550   34.1550 H   0  0  0  0  0  0  0  0  0  0  0  0
   36.2820   21.3350   29.9560 H   0  0  0  0  0  0  0  0  0  0  0  0
   35.2490   17.9660   32.1350 H   0  0  0  0  0  0  0  0  0  0  0  0
   37.3330   27.1970   31.7860 O   0  0  0  0  0  0  0  0  0  0  0  0
   36.6510   28.1940   32.4820 C   0  0  0  0  0  0  0  0  0  0  0  0
   36.4060   29.3280   31.7160 C   0  0  0  0  0  0  0  0  0  0  0  0
   35.7270   30.2280   32.5320 C   0  0  0  0  0  0  0  0  0  0  0  0
   35.5850   29.6370   33.7250 N   0  0  0  0  0  0  0  0  0  0  0  0
   36.1280   28.4470   33.6890 N   0  0  0  0  0  0  0  0  0  0  0  0
   36.6110   29.6510   30.6870 H   0  0  0  0  0  0  0  0  0  0  0  0
   35.3520   31.2280   32.3190 H   0  0  0  0  0  0  0  0  0  0  0  0
   34.6740   33.7710   35.8030 H   0  0  0  0  0  0  0  0  0  0  0  0
   34.2370   32.8260   35.9970 N   0  0  0  0  0  0  0  0  0  0  0  0
   35.2050   31.9460   36.5640 C   0  0  0  0  0  2  0  0  0  0  0  0
   35.9440   31.1150   35.5680 C   0  0  0  0  0  2  0  0  0  0  0  0
   34.9390   30.2060   34.8820 C   0  0  0  0  0  3  0  0  0  0  0  0
   33.6490   30.8990   34.5680 C   0  0  0  0  0  2  0  0  0  0  0  0
   33.6760   32.3840   34.7570 C   0  0  0  0  0  2  0  0  0  0  0  0
  1 11  1  0  0  0  0
  1  6  1  0  0  0  0
  2  1  2  0  0  0  0
  3  2  1  0  0  0  0
  3  4  2  0  0  0  0
  4 19  1  0  0  0  0
  4  5  1  0  0  0  0
  5  6  2  0  0  0  0
  5  9  1  0  0  0  0
  7  2  1  0  0  0  0
  8  3  1  0  0  0  0
 10 15  1  0  0  0  0
 10 16  1  0  0  0  0
 11 10  2  0  0  0  0
 12 13  2  0  0  0  0
 12 11  1  0  0  0  0
 13 14  1  0  0  0  0
 14 15  2  0  0  0  0
 17 12  1  0  0  0  0
 18 14  1  0  0  0  0
 19 20  1  0  0  0  0
 20 24  2  0  0  0  0
 21 20  1  0  0  0  0
 21 22  2  0  0  0  0
 22 23  1  0  0  0  0
 23 31  1  0  0  0  0
 24 23  1  0  0  0  0
 25 21  1  0  0  0  0
 26 22  1  0  0  0  0
 27 28  1  0  0  0  0
 28 29  1  0  0  0  0
 30 29  1  0  0  0  0
 31 30  1  0  0  0  0
 32 33  1  0  0  0  0
 32 31  1  0  0  0  0
 33 28  1  0  0  0  0
M  END
>  <minimizedAffinity>
-5.58663225

$$$$

 OpenBabel03272510123D

 33 36  0  0  0  0  0  0  0  0999 V2000
   34.6380   29.3880   33.4370 C   0  0  0  0  0  0  0  0  0  0  0  0
   35.5230   29.1250   34.4480 C   0  0  0  0  0  0  0  0  0  0  0  0
   36.5950   28.2660   34.3440 C   0  0  0  0  0  0  0  0  0  0  0  0
   36.8300   27.6100   33.1740 C   0  0  0  0  0  0  0  0  0  0  0  0
   35.9280   27.8740   32.1350 C   0  0  0  0  0  0  0  0  0  0  0  0
   34.8920   28.7240   32.2820 N   0  0  0  0  0  0  0  0  0  0  0  0
   35.4080   29.6060   35.4100 H   0  0  0  0  0  0  0  0  0  0  0  0
   37.2920   28.0610   35.1460 H   0  0  0  0  0  0  0  0  0  0  0  0
   35.9870   27.4270   31.1520 H   0  0  0  0  0  0  0  0  0  0  0  0
   32.3350   30.1300   32.8240 C   0  0  0  0  0  0  0  0  0  0  0  0
   33.5220   30.2760   33.5530 C   0  0  0  0  0  0  0  0  0  0  0  0
   33.5930   31.3410   34.4090 C   0  0  0  0  0  0  0  0  0  0  0  0
   32.5300   32.2040   34.5170 N   0  0  0  0  0  0  0  0  0  0  0  0
   31.4020   32.0090   33.7790 C   0  0  0  0  0  0  0  0  0  0  0  0
   31.2970   30.9780   32.9320 N   0  0  0  0  0  0  0  0  0  0  0  0
   32.2330   29.3190   32.1480 H   0  0  0  0  0  0  0  0  0  0  0  0
   34.4750   31.5380   35.0210 H   0  0  0  0  0  0  0  0  0  0  0  0
   30.6610   32.7790   33.9830 H   0  0  0  0  0  0  0  0  0  0  0  0
   37.8540   26.7120   32.8910 O   0  0  0  0  0  0  0  0  0  0  0  0
   37.9590   25.4860   33.5470 C   0  0  0  0  0  0  0  0  0  0  0  0
   37.6260   24.4030   32.7400 C   0  0  0  0  0  0  0  0  0  0  0  0
   37.7750   23.2590   33.5190 C   0  0  0  0  0  0  0  0  0  0  0  0
   38.1780   23.6650   34.7300 N   0  0  0  0  0  0  0  0  0  0  0  0
   38.2830   24.9690   34.7390 N   0  0  0  0  0  0  0  0  0  0  0  0
   37.2970   24.2560   31.7040 H   0  0  0  0  0  0  0  0  0  0  0  0
   37.6160   22.2110   33.2690 H   0  0  0  0  0  0  0  0  0  0  0  0
   39.7930   23.7940   39.1590 H   0  0  0  0  0  0  0  0  0  0  0  0
   39.2730   23.0110   38.6700 N   0  0  0  0  0  0  0  0  0  0  0  0
   40.0840   22.4570   37.6360 C   0  0  0  0  0  2  0  0  0  0  0  0
   39.8880   23.0810   36.2940 C   0  0  0  0  0  2  0  0  0  0  0  0
   38.4570   22.8130   35.8600 C   0  0  0  0  0  3  0  0  0  0  0  0
   37.4730   22.9610   36.9790 C   0  0  0  0  0  2  0  0  0  0  0  0
   38.0340   23.5710   38.2260 C   0  0  0  0  0  2  0  0  0  0  0  0
  1 11  1  0  0  0  0
  1  2  1  0  0  0  0
  2  7  1  0  0  0  0
  3  2  2  0  0  0  0
  3  8  1  0  0  0  0
  4  3  1  0  0  0  0
  5  6  1  0  0  0  0
  5  4  2  0  0  0  0
  6  1  2  0  0  0  0
  9  5  1  0  0  0  0
 10 15  2  0  0  0  0
 10 11  1  0  0  0  0
 11 12  2  0  0  0  0
 12 13  1  0  0  0  0
 12 17  1  0  0  0  0
 14 18  1  0  0  0  0
 14 13  2  0  0  0  0
 15 14  1  0  0  0  0
 16 10  1  0  0  0  0
 19  4  1  0  0  0  0
 19 20  1  0  0  0  0
 20 24  2  0  0  0  0
 21 22  2  0  0  0  0
 21 20  1  0  0  0  0
 22 23  1  0  0  0  0
 23 24  1  0  0  0  0
 23 31  1  0  0  0  0
 25 21  1  0  0  0  0
 26 22  1  0  0  0  0
 28 27  1  0  0  0  0
 29 28  1  0  0  0  0
 30 29  1  0  0  0  0
 31 30  1  0  0  0  0
 31 32  1  0  0  0  0
 32 33  1  0  0  0  0
 33 28  1  0  0  0  0
M  END
>  <minimizedAffinity>
-5.57120371

$$$$

 OpenBabel03272510123D

 33 36  0  0  0  0  0  0  0  0999 V2000
   38.5680   25.4160   35.3300 C   0  0  0  0  0  0  0  0  0  0  0  0
   38.5550   26.6400   35.9450 C   0  0  0  0  0  0  0  0  0  0  0  0
   37.8430   27.7320   35.4980 C   0  0  0  0  0  0  0  0  0  0  0  0
   37.0860   27.6340   34.3690 C   0  0  0  0  0  0  0  0  0  0  0  0
   37.0950   26.3850   33.7350 C   0  0  0  0  0  0  0  0  0  0  0  0
   37.8070   25.3440   34.2090 N   0  0  0  0  0  0  0  0  0  0  0  0
   39.1300   26.8010   36.8460 H   0  0  0  0  0  0  0  0  0  0  0  0
   37.8360   28.6960   35.9870 H   0  0  0  0  0  0  0  0  0  0  0  0
   36.5430   26.1590   32.8320 H   0  0  0  0  0  0  0  0  0  0  0  0
   40.4360   23.7720   35.1300 C   0  0  0  0  0  0  0  0  0  0  0  0
   39.3150   24.2880   35.7940 C   0  0  0  0  0  0  0  0  0  0  0  0
   38.9310   23.6510   36.9420 C   0  0  0  0  0  0  0  0  0  0  0  0
   39.6370   22.5590   37.3870 N   0  0  0  0  0  0  0  0  0  0  0  0
   40.7190   22.1050   36.6960 C   0  0  0  0  0  0  0  0  0  0  0  0
   41.1230   22.7040   35.5690 N   0  0  0  0  0  0  0  0  0  0  0  0
   40.7720   24.2340   34.2360 H   0  0  0  0  0  0  0  0  0  0  0  0
   38.0720   23.9780   37.5300 H   0  0  0  0  0  0  0  0  0  0  0  0
   41.1600   21.2380   37.1820 H   0  0  0  0  0  0  0  0  0  0  0  0
   36.3100   28.6240   33.7770 O   0  0  0  0  0  0  0  0  0  0  0  0
   35.6760   29.6110   34.5300 C   0  0  0  0  0  0  0  0  0  0  0  0
   34.2890   29.5670   34.4340 C   0  0  0  0  0  0  0  0  0  0  0  0
   33.7970   30.5990   35.2290 C   0  0  0  0  0  0  0  0  0  0  0  0
   34.8580   31.2160   35.7630 N   0  0  0  0  0  0  0  0  0  0  0  0
   35.9540   30.6330   35.3500 N   0  0  0  0  0  0  0  0  0  0  0  0
   33.5480   28.9470   33.9130 H   0  0  0  0  0  0  0  0  0  0  0  0
   32.7710   30.9060   35.4280 H   0  0  0  0  0  0  0  0  0  0  0  0
   33.1430   35.5940   36.1270 H   0  0  0  0  0  0  0  0  0  0  0  0
   33.5440   34.9780   36.8900 N   0  0  0  0  0  0  0  0  0  0  0  0
   34.9400   34.7790   36.6740 C   0  0  0  0  0  2  0  0  0  0  0  0
   35.2750   33.5660   35.8710 C   0  0  0  0  0  2  0  0  0  0  0  0
   34.8200   32.3480   36.6560 C   0  0  0  0  0  3  0  0  0  0  0  0
   33.4910   32.5460   37.3170 C   0  0  0  0  0  2  0  0  0  0  0  0
   32.7610   33.7820   36.8910 C   0  0  0  0  0  2  0  0  0  0  0  0
  1 11  1  0  0  0  0
  1  2  1  0  0  0  0
  2  7  1  0  0  0  0
  3  2  2  0  0  0  0
  3  8  1  0  0  0  0
  4  3  1  0  0  0  0
  5  6  1  0  0  0  0
  5  4  2  0  0  0  0
  6  1  2  0  0  0  0
  9  5  1  0  0  0  0
 10 15  2  0  0  0  0
 10 11  1  0  0  0  0
 11 12  2  0  0  0  0
 12 13  1  0  0  0  0
 12 17  1  0  0  0  0
 14 18  1  0  0  0  0
 14 13  2  0  0  0  0
 15 14  1  0  0  0  0
 16 10  1  0  0  0  0
 19  4  1  0  0  0  0
 19 20  1  0  0  0  0
 20 24  2  0  0  0  0
 21 20  1  0  0  0  0
 21 22  2  0  0  0  0
 22 26  1  0  0  0  0
 22 23  1  0  0  0  0
 23 31  1  0  0  0  0
 24 23  1  0  0  0  0
 25 21  1  0  0  0  0
 27 28  1  0  0  0  0
 28 33  1  0  0  0  0
 29 28  1  0  0  0  0
 30 31  1  0  0  0  0
 30 29  1  0  0  0  0
 31 32  1  0  0  0  0
 33 32  1  0  0  0  0
M  END
>  <minimizedAffinity>
-5.56941414

$$$$

 OpenBabel03272510123D

 33 36  0  0  0  0  0  0  0  0999 V2000
   36.3230   22.6830   31.9180 C   0  0  0  0  0  0  0  0  0  0  0  0
   35.5000   23.5480   31.2480 C   0  0  0  0  0  0  0  0  0  0  0  0
   35.6710   24.9140   31.2050 C   0  0  0  0  0  0  0  0  0  0  0  0
   36.7180   25.4890   31.8600 C   0  0  0  0  0  0  0  0  0  0  0  0
   37.5650   24.6090   32.5480 C   0  0  0  0  0  0  0  0  0  0  0  0
   37.3580   23.2780   32.5620 N   0  0  0  0  0  0  0  0  0  0  0  0
   34.6450   23.1720   30.7030 H   0  0  0  0  0  0  0  0  0  0  0  0
   35.0180   25.5940   30.6750 H   0  0  0  0  0  0  0  0  0  0  0  0
   38.4340   24.9200   33.1110 H   0  0  0  0  0  0  0  0  0  0  0  0
   37.1870   20.3400   31.9250 C   0  0  0  0  0  0  0  0  0  0  0  0
   36.1360   21.2650   31.9660 C   0  0  0  0  0  0  0  0  0  0  0  0
   34.8680   20.7550   32.0450 C   0  0  0  0  0  0  0  0  0  0  0  0
   34.6790   19.3950   32.0790 N   0  0  0  0  0  0  0  0  0  0  0  0
   35.7440   18.5460   32.0360 C   0  0  0  0  0  0  0  0  0  0  0  0
   36.9970   19.0100   31.9580 N   0  0  0  0  0  0  0  0  0  0  0  0
   38.1870   20.6880   31.8640 H   0  0  0  0  0  0  0  0  0  0  0  0
   33.9850   21.3950   32.0830 H   0  0  0  0  0  0  0  0  0  0  0  0
   35.4200   17.5080   32.0720 H   0  0  0  0  0  0  0  0  0  0  0  0
   37.0430   26.8400   31.9270 O   0  0  0  0  0  0  0  0  0  0  0  0
   36.2050   27.7680   32.5430 C   0  0  0  0  0  0  0  0  0  0  0  0
   36.5870   28.0720   33.8450 C   0  0  0  0  0  0  0  0  0  0  0  0
   35.6690   29.0010   34.3280 C   0  0  0  0  0  0  0  0  0  0  0  0
   34.7900   29.2250   33.3430 N   0  0  0  0  0  0  0  0  0  0  0  0
   35.1100   28.5000   32.3020 N   0  0  0  0  0  0  0  0  0  0  0  0
   37.3900   27.7680   34.5280 H   0  0  0  0  0  0  0  0  0  0  0  0
   35.6100   29.4920   35.2980 H   0  0  0  0  0  0  0  0  0  0  0  0
   30.4520   29.8390   31.6000 H   0  0  0  0  0  0  0  0  0  0  0  0
   30.9000   30.3150   32.4330 N   0  0  0  0  0  0  0  0  0  0  0  0
   31.9640   31.1600   32.0000 C   0  0  0  0  0  2  0  0  0  0  0  0
   33.3050   30.5040   31.9770 C   0  0  0  0  0  2  0  0  0  0  0  0
   33.6610   30.1200   33.4020 C   0  0  0  0  0  3  0  0  0  0  0  0
   32.4960   29.5670   34.1630 C   0  0  0  0  0  2  0  0  0  0  0  0
   31.2900   29.2700   33.3280 C   0  0  0  0  0  2  0  0  0  0  0  0
  1 11  1  0  0  0  0
  1  6  1  0  0  0  0
  2  1  2  0  0  0  0
  3  2  1  0  0  0  0
  3  4  2  0  0  0  0
  4 19  1  0  0  0  0
  4  5  1  0  0  0  0
  5  6  2  0  0  0  0
  5  9  1  0  0  0  0
  7  2  1  0  0  0  0
  8  3  1  0  0  0  0
 10 15  2  0  0  0  0
 10 11  1  0  0  0  0
 11 12  2  0  0  0  0
 12 13  1  0  0  0  0
 12 17  1  0  0  0  0
 14 18  1  0  0  0  0
 14 13  2  0  0  0  0
 15 14  1  0  0  0  0
 16 10  1  0  0  0  0
 19 20  1  0  0  0  0
 20 21  1  0  0  0  0
 21 22  2  0  0  0  0
 21 25  1  0  0  0  0
 22 26  1  0  0  0  0
 23 31  1  0  0  0  0
 23 22  1  0  0  0  0
 24 20  2  0  0  0  0
 24 23  1  0  0  0  0
 27 28  1  0  0  0  0
 28 33  1  0  0  0  0
 29 28  1  0  0  0  0
 30 29  1  0  0  0  0
 30 31  1  0  0  0  0
 31 32  1  0  0  0  0
 33 32  1  0  0  0  0
M  END
>  <minimizedAffinity>
-5.48909235

$$$$
