
 OpenBabel03272508003D

 37 40  0  0  0  0  0  0  0  0999 V2000
   35.1530   29.2280   33.9010 C   0  0  0  0  0  0  0  0  0  0  0  0
   35.1490   29.6400   32.5760 C   0  0  0  0  0  0  0  0  0  0  0  0
   36.1170   29.1170   31.7090 C   0  0  0  0  0  0  0  0  0  0  0  0
   37.0560   28.2080   32.1740 C   0  0  0  0  0  0  0  0  0  0  0  0
   37.0240   27.8220   33.5040 C   0  0  0  0  0  0  0  0  0  0  0  0
   36.0880   28.3420   34.2970 N   0  0  0  0  0  0  0  0  0  0  0  0
   34.5280   30.3060   31.9930 H   0  0  0  0  0  0  0  0  0  0  0  0
   36.2540   29.3270   30.6730 H   0  0  0  0  0  0  0  0  0  0  0  0
   37.8340   27.7560   31.5760 H   0  0  0  0  0  0  0  0  0  0  0  0
   33.3350   31.5690   36.2040 C   0  0  0  0  0  0  0  0  0  0  0  0
   34.3890   30.9760   35.4570 C   0  0  0  0  0  0  0  0  0  0  0  0
   34.1050   29.8510   34.6660 C   0  0  0  0  0  0  0  0  0  0  0  0
   32.8240   29.3980   34.6660 N   0  0  0  0  0  0  0  0  0  0  0  0
   31.8420   29.9980   35.3980 C   0  0  0  0  0  0  0  0  0  0  0  0
   32.0940   31.0640   36.1540 N   0  0  0  0  0  0  0  0  0  0  0  0
   30.5900   29.3330   35.2300 N   0  0  0  0  0  0  0  0  0  0  0  0
   33.5600   32.4380   36.8140 H   0  0  0  0  0  0  0  0  0  0  0  0
   30.4870   28.3080   35.1880 H   0  0  0  0  0  0  0  0  0  0  0  0
   29.7040   29.8980   35.1420 H   0  0  0  0  0  0  0  0  0  0  0  0
   35.7400   31.5700   35.5480 C   0  0  0  0  0  0  0  0  0  0  0  0
   35.7640   32.6490   36.4400 F   0  0  0  0  0  0  0  0  0  0  0  0
   36.6220   30.6490   35.9890 F   0  0  0  0  0  0  0  0  0  0  0  0
   36.2000   32.0640   34.3300 F   0  0  0  0  0  0  0  0  0  0  0  0
   37.9690   26.8690   34.0610 C   0  0  0  0  0  0  0  0  0  0  0  0
   39.2050   27.1610   34.5890 C   0  0  0  0  0  0  0  0  0  0  0  0
   39.8210   26.0000   35.0230 C   0  0  0  0  0  0  0  0  0  0  0  0
   38.9200   25.0240   34.7370 N   0  0  0  0  0  0  0  0  0  0  0  0
   37.8380   25.5440   34.1740 N   0  0  0  0  0  0  0  0  0  0  0  0
   39.6540   28.1530   34.6670 H   0  0  0  0  0  0  0  0  0  0  0  0
   40.7760   25.8920   35.4760 H   0  0  0  0  0  0  0  0  0  0  0  0
   37.1350   21.8710   37.7270 H   0  0  0  0  0  0  0  0  0  0  0  0
   37.1320   22.5270   36.9040 N   0  0  0  0  0  0  0  0  0  0  0  0
   38.0270   23.6050   37.2270 C   0  0  0  0  0  2  0  0  0  0  0  0
   39.3490   23.3960   36.5180 C   0  0  0  0  0  2  0  0  0  0  0  0
   39.1510   23.6170   35.0270 C   0  0  0  0  0  3  0  0  0  0  0  0
   37.9770   22.7610   34.6230 C   0  0  0  0  0  2  0  0  0  0  0  0
   37.5680   21.8060   35.7150 C   0  0  0  0  0  2  0  0  0  0  0  0
  1  6  1  0  0  0  0
  1 12  1  0  0  0  0
  2  1  2  0  0  0  0
  3  4  2  0  0  0  0
  3  2  1  0  0  0  0
  4  5  1  0  0  0  0
  5 24  1  0  0  0  0
  5  6  2  0  0  0  0
  7  2  1  0  0  0  0
  8  3  1  0  0  0  0
  9  4  1  0  0  0  0
 10 17  1  0  0  0  0
 11 20  1  0  0  0  0
 11 10  2  0  0  0  0
 12 11  1  0  0  0  0
 13 12  2  0  0  0  0
 13 14  1  0  0  0  0
 14 15  2  0  0  0  0
 15 10  1  0  0  0  0
 16 14  1  0  0  0  0
 18 16  1  0  0  0  0
 19 16  1  0  0  0  0
 20 22  1  0  0  0  0
 20 21  1  0  0  0  0
 23 20  1  0  0  0  0
 24 28  2  0  0  0  0
 24 25  1  0  0  0  0
 25 29  1  0  0  0  0
 25 26  2  0  0  0  0
 26 30  1  0  0  0  0
 27 26  1  0  0  0  0
 27 35  1  0  0  0  0
 28 27  1  0  0  0  0
 32 33  1  0  0  0  0
 32 31  1  0  0  0  0
 34 33  1  0  0  0  0
 35 34  1  0  0  0  0
 36 35  1  0  0  0  0
 36 37  1  0  0  0  0
 37 32  1  0  0  0  0
M  END
>  <minimizedAffinity>
-6.55803442

$$$$

 OpenBabel03272508003D

 37 40  0  0  0  0  0  0  0  0999 V2000
   35.3110   29.8000   33.5710 C   0  0  0  0  0  0  0  0  0  0  0  0
   35.6330   30.5870   32.4750 C   0  0  0  0  0  0  0  0  0  0  0  0
   36.4800   30.0560   31.4950 C   0  0  0  0  0  0  0  0  0  0  0  0
   36.9830   28.7700   31.6250 C   0  0  0  0  0  0  0  0  0  0  0  0
   36.6360   28.0170   32.7350 C   0  0  0  0  0  0  0  0  0  0  0  0
   35.8270   28.5580   33.6460 N   0  0  0  0  0  0  0  0  0  0  0  0
   35.3610   31.5830   32.1530 H   0  0  0  0  0  0  0  0  0  0  0  0
   36.8240   30.5220   30.5990 H   0  0  0  0  0  0  0  0  0  0  0  0
   37.6400   28.2830   30.9180 H   0  0  0  0  0  0  0  0  0  0  0  0
   32.2150   31.1950   35.1720 C   0  0  0  0  0  0  0  0  0  0  0  0
   33.0550   30.5120   34.2490 C   0  0  0  0  0  0  0  0  0  0  0  0
   34.4370   30.4810   34.4900 C   0  0  0  0  0  0  0  0  0  0  0  0
   34.8890   31.1140   35.6050 N   0  0  0  0  0  0  0  0  0  0  0  0
   34.0480   31.7560   36.4650 C   0  0  0  0  0  0  0  0  0  0  0  0
   32.7350   31.7970   36.2520 N   0  0  0  0  0  0  0  0  0  0  0  0
   34.7650   32.3400   37.5520 N   0  0  0  0  0  0  0  0  0  0  0  0
   31.1470   31.2160   34.9800 H   0  0  0  0  0  0  0  0  0  0  0  0
   35.6740   32.8170   37.4490 H   0  0  0  0  0  0  0  0  0  0  0  0
   34.3670   32.2940   38.5280 H   0  0  0  0  0  0  0  0  0  0  0  0
   32.4320   29.8670   33.0740 C   0  0  0  0  0  0  0  0  0  0  0  0
   31.0490   29.7240   33.2420 F   0  0  0  0  0  0  0  0  0  0  0  0
   32.6400   30.6150   31.9700 F   0  0  0  0  0  0  0  0  0  0  0  0
   32.9260   28.5870   32.8310 F   0  0  0  0  0  0  0  0  0  0  0  0
   37.1160   26.6600   32.9370 C   0  0  0  0  0  0  0  0  0  0  0  0
   36.6770   25.5340   32.2790 C   0  0  0  0  0  0  0  0  0  0  0  0
   37.3650   24.4230   32.7330 C   0  0  0  0  0  0  0  0  0  0  0  0
   38.2140   24.9220   33.6680 N   0  0  0  0  0  0  0  0  0  0  0  0
   38.0610   26.2340   33.7800 N   0  0  0  0  0  0  0  0  0  0  0  0
   35.9040   25.4990   31.5100 H   0  0  0  0  0  0  0  0  0  0  0  0
   37.2590   23.4120   32.4230 H   0  0  0  0  0  0  0  0  0  0  0  0
   38.0280   22.3860   37.6190 H   0  0  0  0  0  0  0  0  0  0  0  0
   37.8030   22.6310   36.6200 N   0  0  0  0  0  0  0  0  0  0  0  0
   37.8500   24.0650   36.5230 C   0  0  0  0  0  2  0  0  0  0  0  0
   39.1580   24.4880   35.8890 C   0  0  0  0  0  2  0  0  0  0  0  0
   39.1470   24.0950   34.4200 C   0  0  0  0  0  3  0  0  0  0  0  0
   38.7660   22.6360   34.3750 C   0  0  0  0  0  2  0  0  0  0  0  0
   38.7810   22.0030   35.7420 C   0  0  0  0  0  2  0  0  0  0  0  0
  1  6  1  0  0  0  0
  1 12  1  0  0  0  0
  2  1  2  0  0  0  0
  3  4  2  0  0  0  0
  3  2  1  0  0  0  0
  4  5  1  0  0  0  0
  5 24  1  0  0  0  0
  5  6  2  0  0  0  0
  7  2  1  0  0  0  0
  8  3  1  0  0  0  0
  9  4  1  0  0  0  0
 10 15  1  0  0  0  0
 11 12  1  0  0  0  0
 11 10  2  0  0  0  0
 12 13  2  0  0  0  0
 13 14  1  0  0  0  0
 14 16  1  0  0  0  0
 15 14  2  0  0  0  0
 16 19  1  0  0  0  0
 17 10  1  0  0  0  0
 18 16  1  0  0  0  0
 20 21  1  0  0  0  0
 20 11  1  0  0  0  0
 22 20  1  0  0  0  0
 23 20  1  0  0  0  0
 24 28  2  0  0  0  0
 25 26  2  0  0  0  0
 25 24  1  0  0  0  0
 26 27  1  0  0  0  0
 27 28  1  0  0  0  0
 27 35  1  0  0  0  0
 29 25  1  0  0  0  0
 30 26  1  0  0  0  0
 32 31  1  0  0  0  0
 33 32  1  0  0  0  0
 34 33  1  0  0  0  0
 35 34  1  0  0  0  0
 36 35  1  0  0  0  0
 36 37  1  0  0  0  0
 37 32  1  0  0  0  0
M  END
>  <minimizedAffinity>
-6.192801

$$$$

 OpenBabel03272508003D

 37 40  0  0  0  0  0  0  0  0999 V2000
   37.8000   26.3720   32.9830 C   0  0  0  0  0  0  0  0  0  0  0  0
   38.8660   26.4490   32.1000 C   0  0  0  0  0  0  0  0  0  0  0  0
   38.8880   27.4900   31.1640 C   0  0  0  0  0  0  0  0  0  0  0  0
   37.8610   28.4210   31.1280 C   0  0  0  0  0  0  0  0  0  0  0  0
   36.8140   28.3090   32.0290 C   0  0  0  0  0  0  0  0  0  0  0  0
   36.8300   27.3040   32.9040 N   0  0  0  0  0  0  0  0  0  0  0  0
   39.7660   25.8680   31.9480 H   0  0  0  0  0  0  0  0  0  0  0  0
   39.6260   27.6920   30.4210 H   0  0  0  0  0  0  0  0  0  0  0  0
   37.7990   29.2540   30.4430 H   0  0  0  0  0  0  0  0  0  0  0  0
   38.2510   24.3430   36.1090 C   0  0  0  0  0  0  0  0  0  0  0  0
   38.1370   25.4680   35.2480 C   0  0  0  0  0  0  0  0  0  0  0  0
   37.9160   25.2510   33.8790 C   0  0  0  0  0  0  0  0  0  0  0  0
   37.8230   23.9610   33.4610 N   0  0  0  0  0  0  0  0  0  0  0  0
   37.9380   22.9100   34.3210 C   0  0  0  0  0  0  0  0  0  0  0  0
   38.1480   23.0980   35.6220 N   0  0  0  0  0  0  0  0  0  0  0  0
   37.8060   21.6640   33.6380 N   0  0  0  0  0  0  0  0  0  0  0  0
   38.4220   24.5170   37.1670 H   0  0  0  0  0  0  0  0  0  0  0  0
   38.2200   21.4710   32.7140 H   0  0  0  0  0  0  0  0  0  0  0  0
   37.2580   20.8780   34.0810 H   0  0  0  0  0  0  0  0  0  0  0  0
   38.2600   26.8200   35.8340 C   0  0  0  0  0  0  0  0  0  0  0  0
   39.4010   27.4800   35.3620 F   0  0  0  0  0  0  0  0  0  0  0  0
   37.1850   27.5670   35.5060 F   0  0  0  0  0  0  0  0  0  0  0  0
   38.3700   26.8030   37.2220 F   0  0  0  0  0  0  0  0  0  0  0  0
   35.7070   29.2510   32.0580 C   0  0  0  0  0  0  0  0  0  0  0  0
   35.3940   30.1680   31.0820 C   0  0  0  0  0  0  0  0  0  0  0  0
   34.2750   30.8920   31.4550 C   0  0  0  0  0  0  0  0  0  0  0  0
   33.9420   30.3790   32.6680 N   0  0  0  0  0  0  0  0  0  0  0  0
   34.7880   29.4180   33.0120 N   0  0  0  0  0  0  0  0  0  0  0  0
   35.9320   30.3210   30.1440 H   0  0  0  0  0  0  0  0  0  0  0  0
   33.7850   31.6680   30.9190 H   0  0  0  0  0  0  0  0  0  0  0  0
   30.3090   28.3650   34.8640 H   0  0  0  0  0  0  0  0  0  0  0  0
   31.3200   28.6090   34.6990 N   0  0  0  0  0  0  0  0  0  0  0  0
   31.4830   28.7680   33.2790 C   0  0  0  0  0  2  0  0  0  0  0  0
   31.5090   30.2420   32.9330 C   0  0  0  0  0  2  0  0  0  0  0  0
   32.8050   30.8490   33.4470 C   0  0  0  0  0  3  0  0  0  0  0  0
   32.9150   30.4490   34.8970 C   0  0  0  0  0  2  0  0  0  0  0  0
   31.6400   29.8360   35.4150 C   0  0  0  0  0  2  0  0  0  0  0  0
  1 12  1  0  0  0  0
  2  1  2  0  0  0  0
  3  2  1  0  0  0  0
  4  3  2  0  0  0  0
  4  5  1  0  0  0  0
  5 24  1  0  0  0  0
  5  6  2  0  0  0  0
  6  1  1  0  0  0  0
  7  2  1  0  0  0  0
  8  3  1  0  0  0  0
  9  4  1  0  0  0  0
 10 17  1  0  0  0  0
 11 20  1  0  0  0  0
 11 10  2  0  0  0  0
 12 11  1  0  0  0  0
 13 12  2  0  0  0  0
 13 14  1  0  0  0  0
 14 15  2  0  0  0  0
 15 10  1  0  0  0  0
 16 19  1  0  0  0  0
 16 14  1  0  0  0  0
 18 16  1  0  0  0  0
 20 23  1  0  0  0  0
 21 20  1  0  0  0  0
 22 20  1  0  0  0  0
 24 28  2  0  0  0  0
 25 26  2  0  0  0  0
 25 24  1  0  0  0  0
 26 27  1  0  0  0  0
 27 28  1  0  0  0  0
 27 35  1  0  0  0  0
 29 25  1  0  0  0  0
 30 26  1  0  0  0  0
 32 31  1  0  0  0  0
 32 37  1  0  0  0  0
 33 32  1  0  0  0  0
 34 33  1  0  0  0  0
 34 35  1  0  0  0  0
 35 36  1  0  0  0  0
 36 37  1  0  0  0  0
M  END
>  <minimizedAffinity>
-6.13140154

$$$$

 OpenBabel03272508003D

 37 40  0  0  0  0  0  0  0  0999 V2000
   34.6440   29.7300   34.5030 C   0  0  0  0  0  0  0  0  0  0  0  0
   34.1350   29.7330   33.2140 C   0  0  0  0  0  0  0  0  0  0  0  0
   34.8050   29.0000   32.2260 C   0  0  0  0  0  0  0  0  0  0  0  0
   35.9530   28.2890   32.5400 C   0  0  0  0  0  0  0  0  0  0  0  0
   36.4280   28.3110   33.8420 C   0  0  0  0  0  0  0  0  0  0  0  0
   35.7620   29.0210   34.7520 N   0  0  0  0  0  0  0  0  0  0  0  0
   33.2720   30.1850   32.7420 H   0  0  0  0  0  0  0  0  0  0  0  0
   34.5500   28.8990   31.1960 H   0  0  0  0  0  0  0  0  0  0  0  0
   36.5300   27.6980   31.8440 H   0  0  0  0  0  0  0  0  0  0  0  0
   33.5610   32.4990   36.7950 C   0  0  0  0  0  0  0  0  0  0  0  0
   34.3640   31.7330   35.9070 C   0  0  0  0  0  0  0  0  0  0  0  0
   33.8520   30.5280   35.4020 C   0  0  0  0  0  0  0  0  0  0  0  0
   32.6030   30.1680   35.8010 N   0  0  0  0  0  0  0  0  0  0  0  0
   31.8650   30.9330   36.6550 C   0  0  0  0  0  0  0  0  0  0  0  0
   32.3360   32.0770   37.1440 N   0  0  0  0  0  0  0  0  0  0  0  0
   30.5950   30.3380   36.9180 N   0  0  0  0  0  0  0  0  0  0  0  0
   33.9630   33.4300   37.1830 H   0  0  0  0  0  0  0  0  0  0  0  0
   30.4550   29.3270   37.0660 H   0  0  0  0  0  0  0  0  0  0  0  0
   29.7330   30.9440   36.9710 H   0  0  0  0  0  0  0  0  0  0  0  0
   35.7090   32.2400   35.5570 C   0  0  0  0  0  0  0  0  0  0  0  0
   35.9090   33.5370   36.0450 F   0  0  0  0  0  0  0  0  0  0  0  0
   36.6580   31.4450   36.0920 F   0  0  0  0  0  0  0  0  0  0  0  0
   35.9230   32.3070   34.1820 F   0  0  0  0  0  0  0  0  0  0  0  0
   37.6190   27.5840   34.2480 C   0  0  0  0  0  0  0  0  0  0  0  0
   38.0390   27.3650   35.5400 C   0  0  0  0  0  0  0  0  0  0  0  0
   39.2140   26.6340   35.5370 C   0  0  0  0  0  0  0  0  0  0  0  0
   39.4730   26.4320   34.2190 N   0  0  0  0  0  0  0  0  0  0  0  0
   38.5320   26.9930   33.4720 N   0  0  0  0  0  0  0  0  0  0  0  0
   37.5360   27.7050   36.4460 H   0  0  0  0  0  0  0  0  0  0  0  0
   39.7850   26.3040   36.3710 H   0  0  0  0  0  0  0  0  0  0  0  0
   43.9850   27.4420   33.3850 H   0  0  0  0  0  0  0  0  0  0  0  0
   43.1260   27.2840   33.9730 N   0  0  0  0  0  0  0  0  0  0  0  0
   41.9960   27.6780   33.1740 C   0  0  0  0  0  2  0  0  0  0  0  0
   41.3200   26.4470   32.6090 C   0  0  0  0  0  2  0  0  0  0  0  0
   40.6330   25.6960   33.7390 C   0  0  0  0  0  3  0  0  0  0  0  0
   41.6690   25.5140   34.8190 C   0  0  0  0  0  2  0  0  0  0  0  0
   43.0530   25.8780   34.3460 C   0  0  0  0  0  2  0  0  0  0  0  0
  1  6  1  0  0  0  0
  1 12  1  0  0  0  0
  2  1  2  0  0  0  0
  3  4  2  0  0  0  0
  3  2  1  0  0  0  0
  4  5  1  0  0  0  0
  5 24  1  0  0  0  0
  5  6  2  0  0  0  0
  7  2  1  0  0  0  0
  8  3  1  0  0  0  0
  9  4  1  0  0  0  0
 10 15  1  0  0  0  0
 10 17  1  0  0  0  0
 11 10  2  0  0  0  0
 12 13  2  0  0  0  0
 12 11  1  0  0  0  0
 13 14  1  0  0  0  0
 14 16  1  0  0  0  0
 14 15  2  0  0  0  0
 16 19  1  0  0  0  0
 16 18  1  0  0  0  0
 20 11  1  0  0  0  0
 20 21  1  0  0  0  0
 20 22  1  0  0  0  0
 23 20  1  0  0  0  0
 24 25  1  0  0  0  0
 25 29  1  0  0  0  0
 26 25  2  0  0  0  0
 26 30  1  0  0  0  0
 27 26  1  0  0  0  0
 28 27  1  0  0  0  0
 28 24  2  0  0  0  0
 31 32  1  0  0  0  0
 32 37  1  0  0  0  0
 33 32  1  0  0  0  0
 34 33  1  0  0  0  0
 34 35  1  0  0  0  0
 35 27  1  0  0  0  0
 35 36  1  0  0  0  0
 37 36  1  0  0  0  0
M  END
>  <minimizedAffinity>
-6.12993622

$$$$

 OpenBabel03272508003D

 37 40  0  0  0  0  0  0  0  0999 V2000
   37.5010   26.6800   33.1870 C   0  0  0  0  0  0  0  0  0  0  0  0
   37.7530   26.9430   31.8490 C   0  0  0  0  0  0  0  0  0  0  0  0
   37.2130   28.1040   31.2810 C   0  0  0  0  0  0  0  0  0  0  0  0
   36.4430   28.9660   32.0470 C   0  0  0  0  0  0  0  0  0  0  0  0
   36.2160   28.6660   33.3810 C   0  0  0  0  0  0  0  0  0  0  0  0
   36.7470   27.5530   33.8840 N   0  0  0  0  0  0  0  0  0  0  0  0
   38.3200   26.4460   31.0740 H   0  0  0  0  0  0  0  0  0  0  0  0
   37.3090   28.4510   30.2770 H   0  0  0  0  0  0  0  0  0  0  0  0
   35.9910   29.8800   31.6910 H   0  0  0  0  0  0  0  0  0  0  0  0
   39.9030   24.2710   34.7740 C   0  0  0  0  0  0  0  0  0  0  0  0
   39.3150   25.4960   34.3570 C   0  0  0  0  0  0  0  0  0  0  0  0
   38.1170   25.4550   33.6250 C   0  0  0  0  0  0  0  0  0  0  0  0
   37.5920   24.2300   33.3610 N   0  0  0  0  0  0  0  0  0  0  0  0
   38.1900   23.0790   33.7800 C   0  0  0  0  0  0  0  0  0  0  0  0
   39.3250   23.0990   34.4740 N   0  0  0  0  0  0  0  0  0  0  0  0
   37.4450   21.9300   33.3760 N   0  0  0  0  0  0  0  0  0  0  0  0
   40.8290   24.3100   35.3390 H   0  0  0  0  0  0  0  0  0  0  0  0
   36.9980   21.8340   32.4510 H   0  0  0  0  0  0  0  0  0  0  0  0
   37.3300   21.1190   34.0390 H   0  0  0  0  0  0  0  0  0  0  0  0
   39.9930   26.7620   34.7110 C   0  0  0  0  0  0  0  0  0  0  0  0
   39.2550   27.4910   35.6510 F   0  0  0  0  0  0  0  0  0  0  0  0
   41.2040   26.5040   35.2450 F   0  0  0  0  0  0  0  0  0  0  0  0
   40.1700   27.6080   33.6190 F   0  0  0  0  0  0  0  0  0  0  0  0
   35.4260   29.5250   34.2480 C   0  0  0  0  0  0  0  0  0  0  0  0
   34.0540   29.5700   34.3180 C   0  0  0  0  0  0  0  0  0  0  0  0
   33.6590   30.5080   35.2570 C   0  0  0  0  0  0  0  0  0  0  0  0
   34.8280   31.0090   35.7320 N   0  0  0  0  0  0  0  0  0  0  0  0
   35.8580   30.4260   35.1340 N   0  0  0  0  0  0  0  0  0  0  0  0
   33.3590   28.9660   33.7330 H   0  0  0  0  0  0  0  0  0  0  0  0
   32.6710   30.7750   35.5430 H   0  0  0  0  0  0  0  0  0  0  0  0
   33.5360   35.5150   36.0500 H   0  0  0  0  0  0  0  0  0  0  0  0
   33.3930   34.4750   35.9730 N   0  0  0  0  0  0  0  0  0  0  0  0
   34.5140   33.9540   35.2380 C   0  0  0  0  0  2  0  0  0  0  0  0
   35.4990   33.3200   36.1970 C   0  0  0  0  0  2  0  0  0  0  0  0
   34.8950   32.0420   36.7560 C   0  0  0  0  0  3  0  0  0  0  0  0
   33.5260   32.4100   37.2720 C   0  0  0  0  0  2  0  0  0  0  0  0
   33.3160   33.9010   37.3100 C   0  0  0  0  0  2  0  0  0  0  0  0
  1 12  1  0  0  0  0
  1  6  1  0  0  0  0
  2  1  2  0  0  0  0
  3  2  1  0  0  0  0
  3  4  2  0  0  0  0
  4  5  1  0  0  0  0
  5  6  2  0  0  0  0
  5 24  1  0  0  0  0
  7  2  1  0  0  0  0
  8  3  1  0  0  0  0
  9  4  1  0  0  0  0
 10 17  1  0  0  0  0
 11 20  1  0  0  0  0
 11 10  2  0  0  0  0
 12 11  1  0  0  0  0
 13 12  2  0  0  0  0
 13 14  1  0  0  0  0
 14 15  2  0  0  0  0
 15 10  1  0  0  0  0
 16 14  1  0  0  0  0
 16 19  1  0  0  0  0
 18 16  1  0  0  0  0
 20 22  1  0  0  0  0
 20 21  1  0  0  0  0
 23 20  1  0  0  0  0
 24 25  1  0  0  0  0
 24 28  2  0  0  0  0
 25 26  2  0  0  0  0
 26 30  1  0  0  0  0
 26 27  1  0  0  0  0
 27 35  1  0  0  0  0
 28 27  1  0  0  0  0
 29 25  1  0  0  0  0
 32 31  1  0  0  0  0
 32 37  1  0  0  0  0
 33 32  1  0  0  0  0
 33 34  1  0  0  0  0
 34 35  1  0  0  0  0
 35 36  1  0  0  0  0
 36 37  1  0  0  0  0
M  END
>  <minimizedAffinity>
-6.12589455

$$$$

 OpenBabel03272508003D

 37 40  0  0  0  0  0  0  0  0999 V2000
   37.6640   25.3210   32.8130 C   0  0  0  0  0  0  0  0  0  0  0  0
   38.7790   25.5030   32.0100 C   0  0  0  0  0  0  0  0  0  0  0  0
   39.0430   26.7850   31.5100 C   0  0  0  0  0  0  0  0  0  0  0  0
   38.2020   27.8430   31.8170 C   0  0  0  0  0  0  0  0  0  0  0  0
   37.0980   27.6190   32.6250 C   0  0  0  0  0  0  0  0  0  0  0  0
   36.8810   26.3850   33.0800 N   0  0  0  0  0  0  0  0  0  0  0  0
   39.5690   24.8560   31.6540 H   0  0  0  0  0  0  0  0  0  0  0  0
   39.8490   27.0940   30.8830 H   0  0  0  0  0  0  0  0  0  0  0  0
   38.3300   28.8610   31.4760 H   0  0  0  0  0  0  0  0  0  0  0  0
   36.6170   21.7190   32.9540 C   0  0  0  0  0  0  0  0  0  0  0  0
   36.7400   23.0610   32.5020 C   0  0  0  0  0  0  0  0  0  0  0  0
   37.5240   23.9560   33.2460 C   0  0  0  0  0  0  0  0  0  0  0  0
   38.1240   23.4720   34.3670 N   0  0  0  0  0  0  0  0  0  0  0  0
   37.9800   22.1770   34.7650 C   0  0  0  0  0  0  0  0  0  0  0  0
   37.2390   21.3160   34.0720 N   0  0  0  0  0  0  0  0  0  0  0  0
   38.7040   21.9200   35.9680 N   0  0  0  0  0  0  0  0  0  0  0  0
   36.0080   21.0320   32.3740 H   0  0  0  0  0  0  0  0  0  0  0  0
   38.7510   22.5790   36.7600 H   0  0  0  0  0  0  0  0  0  0  0  0
   39.2310   21.0130   36.0800 H   0  0  0  0  0  0  0  0  0  0  0  0
   36.0310   23.4560   31.2650 C   0  0  0  0  0  0  0  0  0  0  0  0
   36.9230   23.9360   30.2980 F   0  0  0  0  0  0  0  0  0  0  0  0
   35.3850   22.3940   30.7420 F   0  0  0  0  0  0  0  0  0  0  0  0
   35.1020   24.4730   31.4720 F   0  0  0  0  0  0  0  0  0  0  0  0
   36.1770   28.6790   32.9960 C   0  0  0  0  0  0  0  0  0  0  0  0
   35.3580   29.3820   32.1430 C   0  0  0  0  0  0  0  0  0  0  0  0
   34.6210   30.3130   32.8550 C   0  0  0  0  0  0  0  0  0  0  0  0
   35.0260   30.1390   34.1400 N   0  0  0  0  0  0  0  0  0  0  0  0
   35.9380   29.1790   34.2120 N   0  0  0  0  0  0  0  0  0  0  0  0
   35.2830   29.2440   31.0630 H   0  0  0  0  0  0  0  0  0  0  0  0
   33.9030   31.0040   32.4860 H   0  0  0  0  0  0  0  0  0  0  0  0
   35.7340   34.4640   35.8330 H   0  0  0  0  0  0  0  0  0  0  0  0
   35.4060   33.7430   35.1410 N   0  0  0  0  0  0  0  0  0  0  0  0
   36.2980   32.6200   35.2530 C   0  0  0  0  0  2  0  0  0  0  0  0
   35.6370   31.5270   36.0660 C   0  0  0  0  0  2  0  0  0  0  0  0
   34.5050   30.9200   35.2520 C   0  0  0  0  0  3  0  0  0  0  0  0
   33.6580   32.0740   34.7790 C   0  0  0  0  0  2  0  0  0  0  0  0
   34.0330   33.3690   35.4530 C   0  0  0  0  0  2  0  0  0  0  0  0
  1  6  1  0  0  0  0
  1 12  1  0  0  0  0
  2  1  2  0  0  0  0
  3  4  2  0  0  0  0
  3  2  1  0  0  0  0
  4  5  1  0  0  0  0
  5 24  1  0  0  0  0
  5  6  2  0  0  0  0
  7  2  1  0  0  0  0
  8  3  1  0  0  0  0
  9  4  1  0  0  0  0
 10 15  1  0  0  0  0
 11 10  2  0  0  0  0
 11 12  1  0  0  0  0
 12 13  2  0  0  0  0
 13 14  1  0  0  0  0
 14 16  1  0  0  0  0
 15 14  2  0  0  0  0
 16 19  1  0  0  0  0
 16 18  1  0  0  0  0
 17 10  1  0  0  0  0
 20 23  1  0  0  0  0
 20 11  1  0  0  0  0
 21 20  1  0  0  0  0
 22 20  1  0  0  0  0
 24 28  2  0  0  0  0
 25 26  2  0  0  0  0
 25 24  1  0  0  0  0
 26 27  1  0  0  0  0
 27 28  1  0  0  0  0
 27 35  1  0  0  0  0
 29 25  1  0  0  0  0
 30 26  1  0  0  0  0
 32 33  1  0  0  0  0
 32 37  1  0  0  0  0
 32 31  1  0  0  0  0
 33 34  1  0  0  0  0
 35 34  1  0  0  0  0
 36 35  1  0  0  0  0
 36 37  1  0  0  0  0
M  END
>  <minimizedAffinity>
-6.08603477

$$$$

 OpenBabel03272508003D

 37 40  0  0  0  0  0  0  0  0999 V2000
   36.6080   27.7420   32.7800 C   0  0  0  0  0  0  0  0  0  0  0  0
   36.8790   28.3350   31.5560 C   0  0  0  0  0  0  0  0  0  0  0  0
   36.5930   29.6970   31.3940 C   0  0  0  0  0  0  0  0  0  0  0  0
   36.0510   30.4280   32.4400 C   0  0  0  0  0  0  0  0  0  0  0  0
   35.7960   29.7960   33.6470 C   0  0  0  0  0  0  0  0  0  0  0  0
   36.0820   28.5000   33.7620 N   0  0  0  0  0  0  0  0  0  0  0  0
   37.3030   27.9880   30.6240 H   0  0  0  0  0  0  0  0  0  0  0  0
   36.7380   30.3010   30.5270 H   0  0  0  0  0  0  0  0  0  0  0  0
   35.8010   31.4780   32.4020 H   0  0  0  0  0  0  0  0  0  0  0  0
   38.3830   24.5170   33.5160 C   0  0  0  0  0  0  0  0  0  0  0  0
   38.0650   25.9020   33.5240 C   0  0  0  0  0  0  0  0  0  0  0  0
   36.9510   26.3440   32.7930 C   0  0  0  0  0  0  0  0  0  0  0  0
   36.2400   25.4040   32.1160 N   0  0  0  0  0  0  0  0  0  0  0  0
   36.5790   24.0840   32.1360 C   0  0  0  0  0  0  0  0  0  0  0  0
   37.6320   23.6480   32.8230 N   0  0  0  0  0  0  0  0  0  0  0  0
   35.6800   23.3050   31.3480 N   0  0  0  0  0  0  0  0  0  0  0  0
   39.2460   24.1810   34.0840 H   0  0  0  0  0  0  0  0  0  0  0  0
   35.3080   23.6080   30.4350 H   0  0  0  0  0  0  0  0  0  0  0  0
   35.3600   22.3610   31.6950 H   0  0  0  0  0  0  0  0  0  0  0  0
   38.9260   26.8190   34.3020 C   0  0  0  0  0  0  0  0  0  0  0  0
   39.9010   26.1170   35.0220 F   0  0  0  0  0  0  0  0  0  0  0  0
   39.5580   27.6760   33.4740 F   0  0  0  0  0  0  0  0  0  0  0  0
   38.2170   27.5660   35.2400 F   0  0  0  0  0  0  0  0  0  0  0  0
   35.2370   30.4980   34.7910 C   0  0  0  0  0  0  0  0  0  0  0  0
   35.9130   31.3490   35.6340 C   0  0  0  0  0  0  0  0  0  0  0  0
   35.0540   31.8300   36.6070 C   0  0  0  0  0  0  0  0  0  0  0  0
   33.8640   31.2440   36.3150 N   0  0  0  0  0  0  0  0  0  0  0  0
   33.9820   30.4650   35.2480 N   0  0  0  0  0  0  0  0  0  0  0  0
   36.9680   31.6200   35.5660 H   0  0  0  0  0  0  0  0  0  0  0  0
   35.2710   32.5040   37.4000 H   0  0  0  0  0  0  0  0  0  0  0  0
   29.5930   32.9980   35.4490 H   0  0  0  0  0  0  0  0  0  0  0  0
   30.3810   32.3030   35.3800 N   0  0  0  0  0  0  0  0  0  0  0  0
   31.6050   33.0480   35.5080 C   0  0  0  0  0  2  0  0  0  0  0  0
   32.1510   32.8910   36.9110 C   0  0  0  0  0  2  0  0  0  0  0  0
   32.6540   31.4670   37.0910 C   0  0  0  0  0  3  0  0  0  0  0  0
   31.5300   30.5620   36.6520 C   0  0  0  0  0  2  0  0  0  0  0  0
   30.2420   31.3160   36.4420 C   0  0  0  0  0  2  0  0  0  0  0  0
  1 12  1  0  0  0  0
  1  6  1  0  0  0  0
  2  1  2  0  0  0  0
  3  2  1  0  0  0  0
  3  4  2  0  0  0  0
  4  5  1  0  0  0  0
  5  6  2  0  0  0  0
  5 24  1  0  0  0  0
  7  2  1  0  0  0  0
  8  3  1  0  0  0  0
  9  4  1  0  0  0  0
 10 11  1  0  0  0  0
 10 17  1  0  0  0  0
 11 20  1  0  0  0  0
 12 11  2  0  0  0  0
 13 14  2  0  0  0  0
 13 12  1  0  0  0  0
 14 15  1  0  0  0  0
 15 10  2  0  0  0  0
 16 19  1  0  0  0  0
 16 14  1  0  0  0  0
 18 16  1  0  0  0  0
 20 21  1  0  0  0  0
 20 23  1  0  0  0  0
 22 20  1  0  0  0  0
 24 28  2  0  0  0  0
 24 25  1  0  0  0  0
 25 26  2  0  0  0  0
 26 30  1  0  0  0  0
 27 26  1  0  0  0  0
 27 35  1  0  0  0  0
 28 27  1  0  0  0  0
 29 25  1  0  0  0  0
 32 31  1  0  0  0  0
 32 33  1  0  0  0  0
 32 37  1  0  0  0  0
 33 34  1  0  0  0  0
 34 35  1  0  0  0  0
 36 35  1  0  0  0  0
 37 36  1  0  0  0  0
M  END
>  <minimizedAffinity>
-6.08541918

$$$$

 OpenBabel03272508003D

 37 40  0  0  0  0  0  0  0  0999 V2000
   34.2080   30.2590   33.6800 C   0  0  0  0  0  0  0  0  0  0  0  0
   33.7890   31.0230   32.6010 C   0  0  0  0  0  0  0  0  0  0  0  0
   34.4470   30.8690   31.3750 C   0  0  0  0  0  0  0  0  0  0  0  0
   35.4950   29.9700   31.2510 C   0  0  0  0  0  0  0  0  0  0  0  0
   35.8820   29.2240   32.3530 C   0  0  0  0  0  0  0  0  0  0  0  0
   35.2310   29.4000   33.5030 N   0  0  0  0  0  0  0  0  0  0  0  0
   33.0090   31.7580   32.4520 H   0  0  0  0  0  0  0  0  0  0  0  0
   34.2540   31.3750   30.4560 H   0  0  0  0  0  0  0  0  0  0  0  0
   36.0560   29.7880   30.3450 H   0  0  0  0  0  0  0  0  0  0  0  0
   33.2160   31.5500   37.0630 C   0  0  0  0  0  0  0  0  0  0  0  0
   33.9950   31.3010   35.9000 C   0  0  0  0  0  0  0  0  0  0  0  0
   33.4400   30.5290   34.8670 C   0  0  0  0  0  0  0  0  0  0  0  0
   32.1760   30.0640   35.0500 N   0  0  0  0  0  0  0  0  0  0  0  0
   31.4620   30.3270   36.1810 C   0  0  0  0  0  0  0  0  0  0  0  0
   31.9740   31.0560   37.1700 N   0  0  0  0  0  0  0  0  0  0  0  0
   30.1680   29.7270   36.1290 N   0  0  0  0  0  0  0  0  0  0  0  0
   33.6500   32.1480   37.8580 H   0  0  0  0  0  0  0  0  0  0  0  0
   29.9890   28.7840   35.7540 H   0  0  0  0  0  0  0  0  0  0  0  0
   29.3300   30.2570   36.4890 H   0  0  0  0  0  0  0  0  0  0  0  0
   35.3600   31.8660   35.8320 C   0  0  0  0  0  0  0  0  0  0  0  0
   35.5510   32.8580   36.8020 F   0  0  0  0  0  0  0  0  0  0  0  0
   36.2740   30.8970   36.0450 F   0  0  0  0  0  0  0  0  0  0  0  0
   35.6400   32.4660   34.6060 F   0  0  0  0  0  0  0  0  0  0  0  0
   36.9650   28.2570   32.2980 C   0  0  0  0  0  0  0  0  0  0  0  0
   37.8000   28.0300   31.2290 C   0  0  0  0  0  0  0  0  0  0  0  0
   38.7100   27.0360   31.5430 C   0  0  0  0  0  0  0  0  0  0  0  0
   38.3890   26.6870   32.8150 N   0  0  0  0  0  0  0  0  0  0  0  0
   37.3650   27.4080   33.2490 N   0  0  0  0  0  0  0  0  0  0  0  0
   37.7700   28.5450   30.2670 H   0  0  0  0  0  0  0  0  0  0  0  0
   39.4840   26.6360   30.9330 H   0  0  0  0  0  0  0  0  0  0  0  0
   38.7770   25.4830   37.3400 H   0  0  0  0  0  0  0  0  0  0  0  0
   38.2910   25.6060   36.4140 N   0  0  0  0  0  0  0  0  0  0  0  0
   38.8980   26.7420   35.7740 C   0  0  0  0  0  2  0  0  0  0  0  0
   39.8750   26.2670   34.7190 C   0  0  0  0  0  2  0  0  0  0  0  0
   39.0990   25.6580   33.5620 C   0  0  0  0  0  3  0  0  0  0  0  0
   38.1530   24.6520   34.1690 C   0  0  0  0  0  2  0  0  0  0  0  0
   38.4540   24.3940   35.6230 C   0  0  0  0  0  2  0  0  0  0  0  0
  1 12  1  0  0  0  0
  2  1  2  0  0  0  0
  3  2  1  0  0  0  0
  4  3  2  0  0  0  0
  4  5  1  0  0  0  0
  5  6  2  0  0  0  0
  6  1  1  0  0  0  0
  7  2  1  0  0  0  0
  8  3  1  0  0  0  0
  9  4  1  0  0  0  0
 10 15  1  0  0  0  0
 10 17  1  0  0  0  0
 11 10  2  0  0  0  0
 12 13  2  0  0  0  0
 12 11  1  0  0  0  0
 13 14  1  0  0  0  0
 14 15  2  0  0  0  0
 16 14  1  0  0  0  0
 16 19  1  0  0  0  0
 18 16  1  0  0  0  0
 20 11  1  0  0  0  0
 20 22  1  0  0  0  0
 20 21  1  0  0  0  0
 23 20  1  0  0  0  0
 24  5  1  0  0  0  0
 24 28  2  0  0  0  0
 25 26  2  0  0  0  0
 25 24  1  0  0  0  0
 26 27  1  0  0  0  0
 27 28  1  0  0  0  0
 27 35  1  0  0  0  0
 29 25  1  0  0  0  0
 30 26  1  0  0  0  0
 32 31  1  0  0  0  0
 33 32  1  0  0  0  0
 34 33  1  0  0  0  0
 35 36  1  0  0  0  0
 35 34  1  0  0  0  0
 36 37  1  0  0  0  0
 37 32  1  0  0  0  0
M  END
>  <minimizedAffinity>
-6.04127598

$$$$

 OpenBabel03272508003D

 37 40  0  0  0  0  0  0  0  0999 V2000
   38.4220   22.7040   34.3630 C   0  0  0  0  0  0  0  0  0  0  0  0
   37.7440   21.5310   34.0680 C   0  0  0  0  0  0  0  0  0  0  0  0
   36.7750   21.5530   33.0570 C   0  0  0  0  0  0  0  0  0  0  0  0
   36.5040   22.7270   32.3720 C   0  0  0  0  0  0  0  0  0  0  0  0
   37.2050   23.8780   32.6970 C   0  0  0  0  0  0  0  0  0  0  0  0
   38.1190   23.8160   33.6650 N   0  0  0  0  0  0  0  0  0  0  0  0
   37.7890   20.5170   34.4410 H   0  0  0  0  0  0  0  0  0  0  0  0
   36.1680   20.7480   32.7100 H   0  0  0  0  0  0  0  0  0  0  0  0
   35.7760   22.8340   31.5810 H   0  0  0  0  0  0  0  0  0  0  0  0
   40.0220   22.7140   37.7590 C   0  0  0  0  0  0  0  0  0  0  0  0
   39.0540   22.9000   36.7340 C   0  0  0  0  0  0  0  0  0  0  0  0
   39.3810   22.5250   35.4210 C   0  0  0  0  0  0  0  0  0  0  0  0
   40.6190   22.0030   35.2130 N   0  0  0  0  0  0  0  0  0  0  0  0
   41.5170   21.8420   36.2260 C   0  0  0  0  0  0  0  0  0  0  0  0
   41.2250   22.1920   37.4760 N   0  0  0  0  0  0  0  0  0  0  0  0
   42.7390   21.2780   35.7500 N   0  0  0  0  0  0  0  0  0  0  0  0
   39.7640   23.0060   38.7720 H   0  0  0  0  0  0  0  0  0  0  0  0
   43.1840   21.5440   34.8590 H   0  0  0  0  0  0  0  0  0  0  0  0
   43.2360   20.5440   36.3220 H   0  0  0  0  0  0  0  0  0  0  0  0
   37.7450   23.4820   37.0970 C   0  0  0  0  0  0  0  0  0  0  0  0
   36.6990   22.5850   36.8440 F   0  0  0  0  0  0  0  0  0  0  0  0
   37.7210   23.7850   38.4120 F   0  0  0  0  0  0  0  0  0  0  0  0
   37.4450   24.6370   36.3800 F   0  0  0  0  0  0  0  0  0  0  0  0
   36.9820   25.1440   32.0180 C   0  0  0  0  0  0  0  0  0  0  0  0
   35.8130   25.5520   31.4200 C   0  0  0  0  0  0  0  0  0  0  0  0
   35.9760   26.8140   30.8760 C   0  0  0  0  0  0  0  0  0  0  0  0
   37.2630   27.1340   31.1680 N   0  0  0  0  0  0  0  0  0  0  0  0
   37.8440   26.1480   31.8380 N   0  0  0  0  0  0  0  0  0  0  0  0
   34.8830   24.9830   31.3690 H   0  0  0  0  0  0  0  0  0  0  0  0
   35.2610   27.4010   30.3510 H   0  0  0  0  0  0  0  0  0  0  0  0
   39.1720   28.8780   27.2450 H   0  0  0  0  0  0  0  0  0  0  0  0
   38.3980   28.5230   27.8650 N   0  0  0  0  0  0  0  0  0  0  0  0
   38.9820   27.5430   28.7410 C   0  0  0  0  0  2  0  0  0  0  0  0
   39.2190   28.1580   30.1040 C   0  0  0  0  0  2  0  0  0  0  0  0
   37.8780   28.3950   30.7810 C   0  0  0  0  0  3  0  0  0  0  0  0
   37.0300   29.1520   29.7890 C   0  0  0  0  0  2  0  0  0  0  0  0
   37.8330   29.6400   28.6110 C   0  0  0  0  0  2  0  0  0  0  0  0
  1 12  1  0  0  0  0
  2  1  1  0  0  0  0
  2  7  1  0  0  0  0
  3  2  2  0  0  0  0
  4  5  2  0  0  0  0
  4  3  1  0  0  0  0
  5  6  1  0  0  0  0
  6  1  2  0  0  0  0
  8  3  1  0  0  0  0
  9  4  1  0  0  0  0
 10 17  1  0  0  0  0
 11 20  1  0  0  0  0
 11 10  2  0  0  0  0
 12 11  1  0  0  0  0
 13 12  2  0  0  0  0
 13 14  1  0  0  0  0
 14 15  2  0  0  0  0
 15 10  1  0  0  0  0
 16 14  1  0  0  0  0
 16 19  1  0  0  0  0
 18 16  1  0  0  0  0
 20 22  1  0  0  0  0
 21 20  1  0  0  0  0
 23 20  1  0  0  0  0
 24  5  1  0  0  0  0
 25 24  1  0  0  0  0
 26 27  1  0  0  0  0
 26 25  2  0  0  0  0
 27 28  1  0  0  0  0
 28 24  2  0  0  0  0
 29 25  1  0  0  0  0
 30 26  1  0  0  0  0
 31 32  1  0  0  0  0
 32 37  1  0  0  0  0
 32 33  1  0  0  0  0
 33 34  1  0  0  0  0
 34 35  1  0  0  0  0
 35 27  1  0  0  0  0
 36 35  1  0  0  0  0
 37 36  1  0  0  0  0
M  END
>  <minimizedAffinity>
-6.02399158

$$$$
