REMARK  Name = 
REMARK  4 active torsions:
REMARK  status: ('A' for Active; 'I' for Inactive)
REMARK    1  A    between atoms: C_1  and  C_8
REMARK    2  A    between atoms: C_4  and  O_13
REMARK    3  A    between atoms: O_13  and  C_14
REMARK    4  A    between atoms: N_17  and  C_31
REMARK                            x       y       z     vdW  Elec       q    Type
REMARK                         _______ _______ _______ _____ _____    ______ ____
ROOT
ATOM      1  C   UNL     1      33.828  28.801  48.271  0.00  0.00    +0.000 A 
ATOM      2  C   UNL     1      34.427  28.433  49.446  0.00  0.00    +0.000 A 
ATOM      3  C   UNL     1      35.701  28.800  49.822  0.00  0.00    +0.000 A 
ATOM      4  C   UNL     1      36.454  29.582  48.999  0.00  0.00    +0.000 A 
ATOM      5  C   UNL     1      35.847  29.962  47.795  0.00  0.00    +0.000 A 
ATOM      6  N   UNL     1      34.597  29.579  47.469  0.00  0.00    +0.000 NA
ATOM      7  H   UNL     1      33.897  27.812  50.155  0.00  0.00    +0.000 HD
ATOM      8  H   UNL     1      36.170  28.507  50.751  0.00  0.00    +0.000 HD
ATOM      9  H   UNL     1      36.322  30.580  47.045  0.00  0.00    +0.000 HD
ENDROOT
BRANCH   1  11
ATOM     10  C   UNL     1      31.652  27.651  48.691  0.00  0.00    +0.000 A 
ATOM     11  C   UNL     1      32.508  28.410  47.882  0.00  0.00    +0.000 A 
ATOM     12  C   UNL     1      32.032  28.774  46.652  0.00  0.00    +0.000 A 
ATOM     13  N   UNL     1      30.770  28.392  46.266  0.00  0.00    +0.000 NA
ATOM     14  C   UNL     1      29.985  27.653  47.099  0.00  0.00    +0.000 A 
ATOM     15  N   UNL     1      30.418  27.279  48.309  0.00  0.00    +0.000 NA
ATOM     16  H   UNL     1      31.977  27.346  49.653  0.00  0.00    +0.000 HD
ATOM     17  H   UNL     1      32.623  29.366  45.951  0.00  0.00    +0.000 HD
ATOM     18  H   UNL     1      29.022  27.437  46.642  0.00  0.00    +0.000 HD
ENDBRANCH   1  11
BRANCH   4  19
ATOM     19  O   UNL     1      37.748  30.044  49.213  0.00  0.00    +0.000 OA
BRANCH  19  20
ATOM     20  C   UNL     1      38.163  31.300  48.772  0.00  0.00    +0.000 A 
ATOM     21  C   UNL     1      37.885  32.318  49.677  0.00  0.00    +0.000 A 
ATOM     22  C   UNL     1      38.350  33.501  49.109  0.00  0.00    +0.000 A 
ATOM     23  N   UNL     1      38.876  33.179  47.921  0.00  0.00    +0.000 N 
ATOM     24  N   UNL     1      38.763  31.890  47.730  0.00  0.00    +0.000 NA
ATOM     25  H   UNL     1      37.417  32.395  50.667  0.00  0.00    +0.000 HD
ATOM     26  H   UNL     1      38.328  34.521  49.490  0.00  0.00    +0.000 HD
BRANCH  23  31
ATOM     27  H   UNL     1      42.485  36.181  47.468  0.00  0.00    +0.000 HD
ATOM     28  N   UNL     1      41.862  35.781  46.711  0.00  0.00    +0.000 NA
ATOM     29  C   UNL     1      40.535  36.285  46.853  0.00  0.00    +0.000 C 
ATOM     30  C   UNL     1      39.636  35.432  47.686  0.00  0.00    +0.000 C 
ATOM     31  C   UNL     1      39.477  34.096  46.983  0.00  0.00    +0.000 C 
ATOM     32  C   UNL     1      40.759  33.594  46.394  0.00  0.00    +0.000 C 
ATOM     33  C   UNL     1      41.978  34.359  46.807  0.00  0.00    +0.000 C 
ENDBRANCH  23  31
ENDBRANCH  19  20
ENDBRANCH   4  19
TORSDOF 4
