REMARK  Name = 
REMARK  4 active torsions:
REMARK  status: ('A' for Active; 'I' for Inactive)
REMARK    1  A    between atoms: C_3  and  C_10
REMARK    2  A    between atoms: C_8  and  C_15
REMARK    3  A    between atoms: C_15  and  O_17
REMARK    4  A    between atoms: O_17  and  C_27
REMARK                            x       y       z     vdW  Elec       q    Type
REMARK                         _______ _______ _______ _____ _____    ______ ____
ROOT
ATOM      1 CL   UNL     1      36.803  32.184  50.124  0.00  0.00    +0.000 Cl
ATOM      2  C   UNL     1      37.541  31.923  48.582  0.00  0.00    +0.000 A 
ATOM      3  C   UNL     1      36.964  30.912  47.881  0.00  0.00    +0.000 A 
ATOM      4  C   UNL     1      37.487  30.608  46.600  0.00  0.00    +0.000 A 
ATOM      5  C   UNL     1      38.539  31.305  46.078  0.00  0.00    +0.000 A 
ATOM      6  C   UNL     1      39.099  32.322  46.814  0.00  0.00    +0.000 A 
ATOM      7 CL   UNL     1      40.441  33.243  46.199  0.00  0.00    +0.000 Cl
ATOM      8  C   UNL     1      38.597  32.613  48.042  0.00  0.00    +0.000 A 
ATOM      9  H   UNL     1      37.101  29.828  45.970  0.00  0.00    +0.000 HD
ATOM     10  H   UNL     1      38.960  31.095  45.102  0.00  0.00    +0.000 HD
ENDROOT
BRANCH   3  12
ATOM     11  C   UNL     1      36.042  29.092  49.262  0.00  0.00    +0.000 A 
ATOM     12  C   UNL     1      35.833  30.031  48.236  0.00  0.00    +0.000 A 
ATOM     13  C   UNL     1      34.585  30.097  47.597  0.00  0.00    +0.000 A 
ATOM     14  N   UNL     1      33.636  29.212  48.037  0.00  0.00    +0.000 NA
ATOM     15  C   UNL     1      33.858  28.325  49.019  0.00  0.00    +0.000 A 
ATOM     16  N   UNL     1      35.079  28.258  49.646  0.00  0.00    +0.000 NA
ATOM     17  H   UNL     1      36.980  28.997  49.787  0.00  0.00    +0.000 HD
ATOM     18  H   UNL     1      34.459  30.813  46.828  0.00  0.00    +0.000 HD
ATOM     19  H   UNL     1      33.091  27.658  49.328  0.00  0.00    +0.000 HD
ENDBRANCH   3  12
BRANCH   8  20
ATOM     20  C   UNL     1      39.138  33.687  48.898  0.00  0.00    +0.000 C 
ATOM     21  O   UNL     1      39.282  34.887  48.675  0.00  0.00    +0.000 OA
BRANCH  20  22
ATOM     22  O   UNL     1      39.620  33.534  50.213  0.00  0.00    +0.000 OA
BRANCH  22  27
ATOM     23  H   UNL     1      41.153  36.984  53.156  0.00  0.00    +0.000 HD
ATOM     24  N   UNL     1      40.262  36.517  52.924  0.00  0.00    +0.000 NA
ATOM     25  C   UNL     1      40.084  35.208  53.411  0.00  0.00    +0.000 C 
ATOM     26  C   UNL     1      40.194  34.092  52.415  0.00  0.00    +0.000 C 
ATOM     27  C   UNL     1      40.121  34.569  50.986  0.00  0.00    +0.000 C 
ATOM     28  C   UNL     1      39.208  35.765  50.834  0.00  0.00    +0.000 C 
ATOM     29  C   UNL     1      39.581  36.894  51.753  0.00  0.00    +0.000 C 
ENDBRANCH  22  27
ENDBRANCH  20  22
ENDBRANCH   8  20
TORSDOF 4
