
 OpenBabel03272507373D

 21 22  0  0  0  0  0  0  0  0999 V2000
   35.5860   30.4830   46.9050 C   0  0  0  0  0  0  0  0  0  0  0  0
   35.9730   30.1860   45.6020 C   0  0  0  0  0  0  0  0  0  0  0  0
   35.0190   29.7410   44.7100 C   0  0  0  0  0  0  0  0  0  0  0  0
   33.7300   29.6120   45.1560 N   0  0  0  0  0  0  0  0  0  0  0  0
   33.3770   29.9050   46.4220 C   0  0  0  0  0  0  0  0  0  0  0  0
   34.3060   30.3330   47.2670 N   0  0  0  0  0  0  0  0  0  0  0  0
   35.2460   29.4870   43.6720 H   0  0  0  0  0  0  0  0  0  0  0  0
   32.3610   29.8070   46.7810 H   0  0  0  0  0  0  0  0  0  0  0  0
   37.6350   31.4350   44.3480 C   0  0  0  0  0  0  0  0  0  0  0  0
   37.0570   32.4990   43.9590 O   0  0  0  0  0  0  0  0  0  0  0  0
   37.2610   30.2930   45.0810 N   0  0  0  0  0  0  0  0  0  0  0  0
   38.5240   31.8200   43.8590 H   0  0  0  0  0  0  0  0  0  0  0  0
   38.0910   29.6640   45.1120 H   0  0  0  0  0  0  0  0  0  0  0  0
   36.6530   30.9170   47.6760 O   0  0  0  0  0  0  0  0  0  0  0  0
   36.7360   29.0980   52.4510 H   0  0  0  0  0  0  0  0  0  0  0  0
   36.9420   29.2690   51.4320 N   0  0  0  0  0  0  0  0  0  0  0  0
   37.5600   30.5660   51.2650 C   0  0  0  0  0  2  0  0  0  0  0  0
   37.1380   31.2450   49.9900 C   0  0  0  0  0  2  0  0  0  0  0  0
   37.0120   30.2330   48.8550 C   0  0  0  0  0  3  0  0  0  0  0  0
   36.0400   29.1620   49.2210 C   0  0  0  0  0  2  0  0  0  0  0  0
   35.6930   29.2400   50.7000 C   0  0  0  0  0  2  0  0  0  0  0  0
  1  6  1  0  0  0  0
  1 14  1  0  0  0  0
  2  1  2  0  0  0  0
  3  4  2  0  0  0  0
  3  2  1  0  0  0  0
  4  5  1  0  0  0  0
  5  8  1  0  0  0  0
  5  6  2  0  0  0  0
  7  3  1  0  0  0  0
  9 11  1  0  0  0  0
 10  9  2  0  0  0  0
 11 13  1  0  0  0  0
 11  2  1  0  0  0  0
 12  9  1  0  0  0  0
 14 19  1  0  0  0  0
 16 15  1  0  0  0  0
 17 16  1  0  0  0  0
 18 17  1  0  0  0  0
 19 20  1  0  0  0  0
 19 18  1  0  0  0  0
 20 21  1  0  0  0  0
 21 16  1  0  0  0  0
M  END
>  <minimizedAffinity>
-4.00329685

>  <minimizedRMSD>
4.81102896

$$$$
