
     RDKit          3D

 41 43  0  0  0  0  0  0  0  0999 V2000
   35.9722   29.6365   48.8670 N   0  0  0  0  0  0  0  0  0  0  0  0
   36.5633   28.8586   49.9316 C   0  0  0  0  0  0  0  0  0  0  0  0
   37.0480   29.5734   51.1166 C   0  0  0  0  0  0  0  0  0  0  0  0
   37.4283   30.9863   50.9766 C   0  0  0  0  0  0  0  0  0  0  0  0
   36.8187   31.6842   49.7999 C   0  0  0  0  0  0  0  0  0  0  0  0
   36.8406   30.7547   48.5854 C   0  0  1  0  0  0  0  0  0  0  0  0
   34.7295   29.3343   48.2103 C   0  0  0  0  0  0  0  0  0  0  0  0
   34.2572   30.0157   47.0921 C   0  0  0  0  0  0  0  0  0  0  0  0
   33.0280   29.6066   46.5630 C   0  0  0  0  0  0  0  0  0  0  0  0
   32.3760   28.5843   47.1608 N   0  0  0  0  0  0  0  0  0  0  0  0
   32.8751   27.9489   48.2501 C   0  0  0  0  0  0  0  0  0  0  0  0
   34.0583   28.3339   48.7690 N   0  0  0  0  0  0  0  0  0  0  0  0
   38.1747   30.3385   48.4638 O   0  0  0  0  0  0  0  0  0  0  0  0
   37.3853   28.2585   49.4646 H   0  0  0  0  0  0  0  0  0  0  0  0
   35.7981   28.1038   50.2103 H   0  0  0  0  0  0  0  0  0  0  0  0
   37.9136   29.0068   51.5261 H   0  0  0  0  0  0  0  0  0  0  0  0
   36.2708   29.4837   51.9316 H   0  0  0  0  0  0  0  0  0  0  0  0
   38.5319   31.1497   50.9354 H   0  0  0  0  0  0  0  0  0  0  0  0
   37.1097   31.5760   51.8783 H   0  0  0  0  0  0  0  0  0  0  0  0
   37.3763   32.6067   49.5532 H   0  0  0  0  0  0  0  0  0  0  0  0
   35.7403   31.9056   49.9977 H   0  0  0  0  0  0  0  0  0  0  0  0
   36.5575   31.3206   47.6888 H   0  0  0  0  0  0  0  0  0  0  0  0
   34.8491   30.8063   46.6993 H   0  0  0  0  0  0  0  0  0  0  0  0
   32.6576   30.1326   45.6952 H   0  0  0  0  0  0  0  0  0  0  0  0
   32.3122   27.1361   48.6901 H   0  0  0  0  0  0  0  0  0  0  0  0
   37.3426   34.0321   47.3446 H   0  0  0  0  0  0  0  0  0  0  0  0
   38.1320   33.5389   46.8956 N   0  0  0  0  0  0  0  0  0  0  0  0
   37.8028   32.6205   45.8562 C   0  0  0  0  0  0  0  0  0  0  0  0
   37.6565   31.1922   46.2916 C   0  0  0  0  0  0  0  0  0  0  0  0
   38.7092   30.7690   47.2614 C   0  0  0  0  0  0  0  0  0  0  0  0
   39.7503   31.8130   47.5594 C   0  0  0  0  0  0  0  0  0  0  0  0
   39.2335   33.1964   47.7262 C   0  0  0  0  0  0  0  0  0  0  0  0
   36.7820   32.9286   45.4835 H   0  0  0  0  0  0  0  0  0  0  0  0
   38.5073   32.6695   45.0019 H   0  0  0  0  0  0  0  0  0  0  0  0
   37.6259   30.5708   45.3561 H   0  0  0  0  0  0  0  0  0  0  0  0
   36.6559   31.0418   46.7932 H   0  0  0  0  0  0  0  0  0  0  0  0
   39.2773   29.9127   46.7929 H   0  0  0  0  0  0  0  0  0  0  0  0
   40.6137   31.7281   46.8389 H   0  0  0  0  0  0  0  0  0  0  0  0
   40.2218   31.5199   48.5432 H   0  0  0  0  0  0  0  0  0  0  0  0
   40.0823   33.8917   47.4586 H   0  0  0  0  0  0  0  0  0  0  0  0
   39.0112   33.4076   48.8098 H   0  0  0  0  0  0  0  0  0  0  0  0
  1  2  1  0
  2  3  1  0
  4  3  1  0
  5  4  1  0
  6  1  1  0
  6  5  1  0
  7 12  1  0
  7  1  1  0
  8  7  2  0
  9  8  1  0
  9 10  2  0
 10 11  1  0
 11 12  2  0
 13  6  1  0
  2 14  1  0
  2 15  1  0
  3 16  1  0
  3 17  1  0
  4 18  1  0
  4 19  1  0
  5 20  1  0
  5 21  1  0
  6 22  1  6
  8 23  1  0
  9 24  1  0
 11 25  1  0
 26 27  1  0
 27 28  1  0
 28 29  1  0
 29 30  1  0
 30 31  1  0
 31 32  1  0
 32 27  1  0
 28 33  1  0
 28 34  1  0
 29 35  1  0
 29 36  1  0
 30 37  1  0
 31 38  1  0
 31 39  1  0
 32 40  1  0
 32 41  1  0
 13 30  1  0
M  ISO  8  14  13  15  13  16  13  17  13  18  13  19  13  20  13  21  13
M  ISO  5  22  13  23  14  24  14  25  14  26   5
M  END
>  <DihAtoms>  (1) 
5,12,29,28

>  <DihDeg>  (1) 
118.73814532956827

$$$$
