REMARK  Name = 
REMARK  5 active torsions:
REMARK  status: ('A' for Active; 'I' for Inactive)
REMARK    1  A    between atoms: C_3  and  C_12
REMARK    2  A    between atoms: C_7  and  C_14
REMARK    3  A    between atoms: C_14  and  C_15
REMARK    4  A    between atoms: C_15  and  N_16
REMARK    5  A    between atoms: N_16  and  C_32
REMARK                            x       y       z     vdW  Elec       q    Type
REMARK                         _______ _______ _______ _____ _____    ______ ____
ROOT
ATOM      1 BR   UNL     1      38.059  31.744  48.999  0.00  0.00    +0.000 Br
ATOM      2  C   UNL     1      36.863  31.001  47.702  0.00  0.00    +0.000 A 
ATOM      3  C   UNL     1      37.210  30.947  46.378  0.00  0.00    +0.000 A 
ATOM      4  C   UNL     1      36.309  30.404  45.489  0.00  0.00    +0.000 A 
ATOM      5  C   UNL     1      35.086  29.921  45.884  0.00  0.00    +0.000 A 
ATOM      6  C   UNL     1      34.764  29.990  47.233  0.00  0.00    +0.000 A 
ATOM      7  C   UNL     1      35.669  30.536  48.137  0.00  0.00    +0.000 A 
ATOM      8  H   UNL     1      36.632  30.384  44.456  0.00  0.00    +0.000 HD
ATOM      9  H   UNL     1      34.473  29.523  45.107  0.00  0.00    +0.000 HD
ATOM     10  H   UNL     1      33.782  29.580  47.398  0.00  0.00    +0.000 HD
ENDROOT
BRANCH   3  15
ATOM     11  C   UNL     1      39.713  33.217  44.984  0.00  0.00    +0.000 A 
ATOM     12  C   UNL     1      40.917  32.451  45.012  0.00  0.00    +0.000 A 
ATOM     13  C   UNL     1      40.833  31.162  45.517  0.00  0.00    +0.000 A 
ATOM     14  N   UNL     1      39.626  30.680  45.961  0.00  0.00    +0.000 NA
ATOM     15  C   UNL     1      38.508  31.455  45.910  0.00  0.00    +0.000 A 
ATOM     16  N   UNL     1      38.572  32.711  45.422  0.00  0.00    +0.000 NA
ATOM     17  H   UNL     1      39.733  34.212  44.606  0.00  0.00    +0.000 HD
ATOM     18  H   UNL     1      41.852  32.883  44.649  0.00  0.00    +0.000 HD
ATOM     19  H   UNL     1      41.733  30.534  45.559  0.00  0.00    +0.000 HD
ENDBRANCH   3  15
BRANCH   7  20
ATOM     20  C   UNL     1      35.195  30.547  49.553  0.00  0.00    +0.000 C 
ATOM     21  H   UNL     1      34.683  31.527  49.706  0.00  0.00    +0.000 HD
ATOM     22  H   UNL     1      36.053  30.525  50.262  0.00  0.00    +0.000 HD
BRANCH  20  23
ATOM     23  C   UNL     1      34.278  29.421  49.879  0.00  0.00    +0.000 C 
ATOM     24  H   UNL     1      33.916  29.638  50.935  0.00  0.00    +0.000 HD
ATOM     25  H   UNL     1      33.374  29.315  49.299  0.00  0.00    +0.000 HD
BRANCH  23  26
ATOM     26  N   UNL     1      35.074  28.216  50.039  0.00  0.00    +0.000 NA
ATOM     27  H   UNL     1      34.516  27.346  49.935  0.00  0.00    +0.000 HD
BRANCH  26  32
ATOM     28  H   UNL     1      38.710  30.714  51.582  0.00  0.00    +0.000 HD
ATOM     29  N   UNL     1      37.836  30.302  51.266  0.00  0.00    +0.000 NA
ATOM     30  C   UNL     1      36.618  30.586  51.880  0.00  0.00    +0.000 C 
ATOM     31  C   UNL     1      35.653  29.463  52.064  0.00  0.00    +0.000 C 
ATOM     32  C   UNL     1      35.879  28.261  51.229  0.00  0.00    +0.000 C 
ATOM     33  C   UNL     1      37.327  28.043  50.855  0.00  0.00    +0.000 C 
ATOM     34  C   UNL     1      37.899  29.331  50.236  0.00  0.00    +0.000 C 
ENDBRANCH  26  32
ENDBRANCH  23  26
ENDBRANCH  20  23
ENDBRANCH   7  20
TORSDOF 5
