
     RDKit          3D

 44 47  0  0  0  0  0  0  0  0999 V2000
   37.7539   31.4881   45.9503 C   0  0  1  0  0  0  0  0  0  0  0  0
   36.3401   31.2694   45.9566 C   0  0  0  0  0  0  0  0  0  0  0  0
   37.1842   30.1639   46.5610 C   0  0  2  0  0  0  0  0  0  0  0  0
   34.8089   28.7285   47.9367 Cl  0  0  0  0  0  0  0  0  0  0  0  0
   36.1220   29.4621   48.8083 C   0  0  0  0  0  0  0  0  0  0  0  0
   37.0576   30.0997   48.0209 C   0  0  0  0  0  0  0  0  0  0  0  0
   38.1088   30.7101   48.6937 C   0  0  0  0  0  0  0  0  0  0  0  0
   38.2030   30.6757   50.0849 C   0  0  0  0  0  0  0  0  0  0  0  0
   37.2154   30.0101   50.8434 C   0  0  0  0  0  0  0  0  0  0  0  0
   37.2251   29.9329   52.5913 Cl  0  0  0  0  0  0  0  0  0  0  0  0
   36.1609   29.3970   50.1581 C   0  0  0  0  0  0  0  0  0  0  0  0
   37.9186   31.3660   43.3683 C   0  0  0  0  0  0  0  0  0  0  0  0
   38.5410   31.2952   44.6832 C   0  0  0  0  0  0  0  0  0  0  0  0
   39.8880   31.1170   44.7571 C   0  0  0  0  0  0  0  0  0  0  0  0
   40.5619   31.0134   43.5829 N   0  0  0  0  0  0  0  0  0  0  0  0
   39.9895   31.0761   42.3695 C   0  0  0  0  0  0  0  0  0  0  0  0
   38.6657   31.2544   42.2778 N   0  0  0  0  0  0  0  0  0  0  0  0
   40.7414   30.9254   41.1871 N   0  0  0  0  0  0  0  0  0  0  0  0
   38.3116   32.0107   46.7723 H   0  0  0  0  0  0  0  0  0  0  0  0
   35.6354   31.7588   46.6783 H   0  0  0  0  0  0  0  0  0  0  0  0
   35.8122   31.0118   45.0215 H   0  0  0  0  0  0  0  0  0  0  0  0
   36.9263   29.2669   45.9983 H   0  0  0  0  0  0  0  0  0  0  0  0
   38.9711   31.2719   48.3901 H   0  0  0  0  0  0  0  0  0  0  0  0
   38.9520   31.0983   50.7288 H   0  0  0  0  0  0  0  0  0  0  0  0
   35.3693   28.8688   50.6708 H   0  0  0  0  0  0  0  0  0  0  0  0
   36.8551   31.5099   43.3526 H   0  0  0  0  0  0  0  0  0  0  0  0
   40.7304   29.8790   41.0791 H   0  0  0  0  0  0  0  0  0  0  0  0
   41.1245   31.7808   40.6961 H   0  0  0  0  0  0  0  0  0  0  0  0
   40.7224   30.9760   45.8801 N   0  0  0  0  0  0  0  0  0  0  0  0
   42.0569   31.5876   46.0282 C   0  0  0  0  0  0  0  0  0  0  0  0
   41.8403   32.8072   46.9337 C   0  0  0  0  0  0  0  0  0  0  0  0
   41.0028   32.4080   48.1279 C   0  0  0  0  0  0  0  0  0  0  0  0
   39.9605   32.7825   48.0777 H   0  0  0  0  0  0  0  0  0  0  0  0
   41.0147   30.9142   48.3114 C   0  0  0  0  0  0  0  0  0  0  0  0
   40.4049   30.2041   47.0936 C   0  0  0  0  0  0  0  0  0  0  0  0
   42.4420   31.9722   45.0677 H   0  0  0  0  0  0  0  0  0  0  0  0
   42.7668   30.9543   46.5551 H   0  0  0  0  0  0  0  0  0  0  0  0
   42.8332   33.2395   47.2224 H   0  0  0  0  0  0  0  0  0  0  0  0
   41.2937   33.6214   46.4204 H   0  0  0  0  0  0  0  0  0  0  0  0
   41.4725   32.8421   49.0241 H   0  0  0  0  0  0  0  0  0  0  0  0
   42.0561   30.6064   48.4347 H   0  0  0  0  0  0  0  0  0  0  0  0
   40.4360   30.6047   49.1793 H   0  0  0  0  0  0  0  0  0  0  0  0
   40.9391   29.2326   47.0539 H   0  0  0  0  0  0  0  0  0  0  0  0
   39.3125   30.1247   47.1731 H   0  0  0  0  0  0  0  0  0  0  0  0
  1  3  1  0
  2  1  1  0
  2  3  1  0
  3  6  1  0
  4  5  1  0
  5 11  2  0
  6  7  2  0
  6  5  1  0
  7  8  1  0
  8  9  2  0
  9 10  1  0
 11  9  1  0
 12 13  2  0
 13 14  1  0
 13  1  1  0
 15 14  2  0
 16 15  1  0
 17 16  2  0
 17 12  1  0
 18 16  1  0
  1 19  1  1
  2 20  1  0
  2 21  1  0
  3 22  1  6
  7 23  1  0
  8 24  1  0
 11 25  1  0
 12 26  1  0
 18 27  1  0
 18 28  1  0
 29 30  1  0
 30 31  1  0
 31 32  1  0
 32 33  1  0
 32 34  1  0
 34 35  1  0
 35 29  1  0
 30 36  1  0
 30 37  1  0
 31 38  1  0
 31 39  1  0
 32 40  1  0
 34 41  1  0
 34 42  1  0
 35 43  1  0
 35 44  1  0
 14 29  1  0
M  ISO  8  19  13  20  13  21  13  22  13  23  14  24  14  25  14  26  14
M  ISO  1  33  15
M  END
>  <DihAtoms>  (1) 
12,13,28,29

>  <DihDeg>  (1) 
70.4733842641494

$$$$
