
 OpenBabel03272503353D

 39 42  0  0  1  0  0  0  0  0999 V2000
   35.7190   29.7240   31.8120 C   0  0  0  0  0  0  0  0  0  0  0  0
   36.4920   30.3330   30.8150 C   0  0  0  0  0  0  0  0  0  0  0  0
   37.0860   29.4990   29.8630 C   0  0  0  0  0  0  0  0  0  0  0  0
   36.8660   28.1410   29.9800 N   0  0  0  0  0  0  0  0  0  0  0  0
   36.1250   27.6080   30.9430 C   0  0  0  0  0  0  0  0  0  0  0  0
   35.5490   28.3980   31.8620 N   0  0  0  0  0  0  0  0  0  0  0  0
   36.6700   31.3830   30.7140 H   0  0  0  0  0  0  0  0  0  0  0  0
   37.7020   29.8920   29.0540 H   0  0  0  0  0  0  0  0  0  0  0  0
   35.1200   30.5950   32.7780 N   0  0  0  0  0  0  0  0  0  0  0  0
   34.8330   30.3210   34.1520 C   0  0  0  0  0  0  0  0  0  0  0  0
   34.9040   31.6990   34.7890 C   0  0  2  0  0  0  0  0  0  0  0  0
   35.3570   32.6520   33.6920 C   0  0  0  0  0  0  0  0  0  0  0  0
   34.6770   31.9650   32.5270 C   0  0  0  0  0  0  0  0  0  0  0  0
   35.5160   29.5980   34.6200 H   0  0  0  0  0  0  0  0  0  0  0  0
   33.7730   29.9400   34.2120 H   0  0  0  0  0  0  0  0  0  0  0  0
   33.8850   32.0410   35.0790 H   0  0  0  0  0  0  0  0  0  0  0  0
   34.9850   33.6740   33.8570 H   0  0  0  0  0  0  0  0  0  0  0  0
   36.4350   32.5710   33.5730 H   0  0  0  0  0  0  0  0  0  0  0  0
   33.5720   32.0220   32.5970 H   0  0  0  0  0  0  0  0  0  0  0  0
   35.0570   32.2900   31.5410 H   0  0  0  0  0  0  0  0  0  0  0  0
   35.8230   31.7240   35.9830 C   0  0  0  0  0  0  0  0  0  0  0  0
   36.7020   32.7650   35.7760 F   0  0  0  0  0  0  0  0  0  0  0  0
   36.5620   30.5760   35.9600 F   0  0  0  0  0  0  0  0  0  0  0  0
   35.1550   31.8540   37.1750 F   0  0  0  0  0  0  0  0  0  0  0  0
   35.8820   25.8570   31.0310 S   0  0  0  0  0  0  0  0  0  0  0  0
   36.7470   24.9810   32.1840 C   0  0  0  0  0  0  0  0  0  0  0  0
   37.2050   23.7240   32.4480 C   0  0  0  0  0  0  0  0  0  0  0  0
   37.9100   23.3630   33.5440 C   0  0  0  0  0  0  0  0  0  0  0  0
   38.1590   24.4890   34.4830 C   0  0  0  0  0  0  0  0  0  0  0  0
   37.3570   25.9180   33.6830 S   0  0  0  0  0  0  0  0  0  0  0  0
   36.9350   23.0350   31.6620 H   0  0  0  0  0  0  0  0  0  0  0  0
   38.2720   22.3760   33.7550 H   0  0  0  0  0  0  0  0  0  0  0  0
   38.8600   24.3470   35.6760 N   0  0  0  0  0  0  0  0  0  0  0  0
   40.0430   23.5990   36.0290 C   0  0  0  0  0  2  0  0  0  0  0  0
   39.9110   22.7420   37.2380 C   0  0  0  0  0  2  0  0  0  0  0  0
   39.0020   23.2470   38.3060 C   0  0  0  0  0  3  0  0  0  0  0  0
   38.6150   22.4140   38.9080 H   0  0  0  0  0  0  0  0  0  0  0  0
   37.7750   23.9710   37.7400 C   0  0  0  0  0  2  0  0  0  0  0  0
   38.3740   25.0590   36.8420 C   0  0  0  0  0  2  0  0  0  0  0  0
  1  6  1  0  0  0  0
  1  9  1  0  0  0  0
  2  1  2  0  0  0  0
  3  4  2  0  0  0  0
  3  2  1  0  0  0  0
  4  5  1  0  0  0  0
  5 25  1  0  0  0  0
  5  6  2  0  0  0  0
  7  2  1  0  0  0  0
  8  3  1  0  0  0  0
  9 10  1  0  0  0  0
 10 15  1  0  0  0  0
 10 14  1  0  0  0  0
 10 11  1  0  0  0  0
 11 16  1  1  0  0  0
 11 21  1  0  0  0  0
 12 17  1  0  0  0  0
 12 11  1  0  0  0  0
 13 19  1  0  0  0  0
 13  9  1  0  0  0  0
 13 12  1  0  0  0  0
 18 12  1  0  0  0  0
 20 13  1  0  0  0  0
 21 24  1  0  0  0  0
 22 21  1  0  0  0  0
 23 21  1  0  0  0  0
 25 26  1  0  0  0  0
 26 27  2  0  0  0  0
 26 30  1  0  0  0  0
 27 28  1  0  0  0  0
 28 32  1  0  0  0  0
 28 29  2  0  0  0  0
 29 33  1  0  0  0  0
 30 29  1  0  0  0  0
 31 27  1  0  0  0  0
 33 34  1  0  0  0  0
 33 39  1  0  0  0  0
 34 35  1  0  0  0  0
 35 36  1  0  0  0  0
 36 37  1  0  0  0  0
 38 36  1  0  0  0  0
 39 38  1  0  0  0  0
M  END
>  <minimizedAffinity>
-6.40580225

$$$$

 OpenBabel03272503353D

 39 42  0  0  1  0  0  0  0  0999 V2000
   37.5870   23.9230   33.0850 C   0  0  0  0  0  0  0  0  0  0  0  0
   37.1340   22.8390   32.3220 C   0  0  0  0  0  0  0  0  0  0  0  0
   36.2730   23.1190   31.2570 C   0  0  0  0  0  0  0  0  0  0  0  0
   35.9350   24.4400   31.0410 N   0  0  0  0  0  0  0  0  0  0  0  0
   36.3880   25.4360   31.7910 C   0  0  0  0  0  0  0  0  0  0  0  0
   37.2170   25.1800   32.8160 N   0  0  0  0  0  0  0  0  0  0  0  0
   37.3880   21.8120   32.4800 H   0  0  0  0  0  0  0  0  0  0  0  0
   35.8750   22.3340   30.6140 H   0  0  0  0  0  0  0  0  0  0  0  0
   38.4680   23.6160   34.1710 N   0  0  0  0  0  0  0  0  0  0  0  0
   38.8370   24.4550   35.2700 C   0  0  0  0  0  0  0  0  0  0  0  0
   39.1440   23.4520   36.3690 C   0  0  2  0  0  0  0  0  0  0  0  0
   38.7960   22.0820   35.8030 C   0  0  0  0  0  0  0  0  0  0  0  0
   39.1740   22.3500   34.3620 C   0  0  0  0  0  0  0  0  0  0  0  0
   38.0670   25.1830   35.5600 H   0  0  0  0  0  0  0  0  0  0  0  0
   39.7860   24.9950   34.9860 H   0  0  0  0  0  0  0  0  0  0  0  0
   40.2400   23.4220   36.5660 H   0  0  0  0  0  0  0  0  0  0  0  0
   39.4020   21.2840   36.2580 H   0  0  0  0  0  0  0  0  0  0  0  0
   37.7210   21.9330   35.8670 H   0  0  0  0  0  0  0  0  0  0  0  0
   40.2650   22.5060   34.2390 H   0  0  0  0  0  0  0  0  0  0  0  0
   38.7690   21.6040   33.6540 H   0  0  0  0  0  0  0  0  0  0  0  0
   38.3920   23.7540   37.6380 C   0  0  0  0  0  0  0  0  0  0  0  0
   39.1970   23.3370   38.6770 F   0  0  0  0  0  0  0  0  0  0  0  0
   37.2820   22.9600   37.6590 F   0  0  0  0  0  0  0  0  0  0  0  0
   38.0510   25.0780   37.7610 F   0  0  0  0  0  0  0  0  0  0  0  0
   35.9160   27.1080   31.4550 S   0  0  0  0  0  0  0  0  0  0  0  0
   35.8000   28.1870   32.7480 C   0  0  0  0  0  0  0  0  0  0  0  0
   36.3610   28.4660   33.9590 C   0  0  0  0  0  0  0  0  0  0  0  0
   35.9890   29.4760   34.7770 C   0  0  0  0  0  0  0  0  0  0  0  0
   34.8720   30.2960   34.2350 C   0  0  0  0  0  0  0  0  0  0  0  0
   34.4960   29.5230   32.6270 S   0  0  0  0  0  0  0  0  0  0  0  0
   37.1540   27.7730   34.1930 H   0  0  0  0  0  0  0  0  0  0  0  0
   36.4270   29.6990   35.7300 H   0  0  0  0  0  0  0  0  0  0  0  0
   34.3260   31.3820   34.9090 N   0  0  0  0  0  0  0  0  0  0  0  0
   34.8850   32.6400   35.3460 C   0  0  0  0  0  2  0  0  0  0  0  0
   34.6310   32.9820   36.7720 C   0  0  0  0  0  2  0  0  0  0  0  0
   33.3430   32.5000   37.3440 C   0  0  0  0  0  3  0  0  0  0  0  0
   33.4240   32.3850   38.4340 H   0  0  0  0  0  0  0  0  0  0  0  0
   32.9350   31.1260   36.8000 C   0  0  0  0  0  2  0  0  0  0  0  0
   32.9260   31.3230   35.2800 C   0  0  0  0  0  2  0  0  0  0  0  0
  1  9  1  0  0  0  0
  2  7  1  0  0  0  0
  2  1  2  0  0  0  0
  3  2  1  0  0  0  0
  4  3  2  0  0  0  0
  4  5  1  0  0  0  0
  5  6  2  0  0  0  0
  6  1  1  0  0  0  0
  8  3  1  0  0  0  0
  9 13  1  0  0  0  0
  9 10  1  0  0  0  0
 10 14  1  0  0  0  0
 10 11  1  0  0  0  0
 11 16  1  1  0  0  0
 11 21  1  0  0  0  0
 12 18  1  0  0  0  0
 12 17  1  0  0  0  0
 12 11  1  0  0  0  0
 13 12  1  0  0  0  0
 15 10  1  0  0  0  0
 19 13  1  0  0  0  0
 20 13  1  0  0  0  0
 21 23  1  0  0  0  0
 21 24  1  0  0  0  0
 21 22  1  0  0  0  0
 25  5  1  0  0  0  0
 25 26  1  0  0  0  0
 26 27  2  0  0  0  0
 27 31  1  0  0  0  0
 27 28  1  0  0  0  0
 28 32  1  0  0  0  0
 29 28  2  0  0  0  0
 29 33  1  0  0  0  0
 30 26  1  0  0  0  0
 30 29  1  0  0  0  0
 33 39  1  0  0  0  0
 33 34  1  0  0  0  0
 34 35  1  0  0  0  0
 35 36  1  0  0  0  0
 36 37  1  0  0  0  0
 38 36  1  0  0  0  0
 39 38  1  0  0  0  0
M  END
>  <minimizedAffinity>
-6.25268364

$$$$

 OpenBabel03272503353D

 39 42  0  0  1  0  0  0  0  0999 V2000
   37.2730   25.2210   32.6890 C   0  0  0  0  0  0  0  0  0  0  0  0
   36.3580   24.3370   32.1040 C   0  0  0  0  0  0  0  0  0  0  0  0
   35.4730   24.8620   31.1560 C   0  0  0  0  0  0  0  0  0  0  0  0
   35.5710   26.2090   30.8720 N   0  0  0  0  0  0  0  0  0  0  0  0
   36.4560   27.0100   31.4510 C   0  0  0  0  0  0  0  0  0  0  0  0
   37.3100   26.5190   32.3620 N   0  0  0  0  0  0  0  0  0  0  0  0
   36.2720   23.2920   32.3170 H   0  0  0  0  0  0  0  0  0  0  0  0
   34.7300   24.2430   30.6540 H   0  0  0  0  0  0  0  0  0  0  0  0
   38.1700   24.6650   33.6570 N   0  0  0  0  0  0  0  0  0  0  0  0
   38.6210   25.2540   34.8790 C   0  0  0  0  0  0  0  0  0  0  0  0
   38.9060   24.0420   35.7500 C   0  0  2  0  0  0  0  0  0  0  0  0
   38.4630   22.8270   34.9460 C   0  0  0  0  0  0  0  0  0  0  0  0
   38.8080   23.3530   33.5690 C   0  0  0  0  0  0  0  0  0  0  0  0
   37.9040   25.9490   35.3370 H   0  0  0  0  0  0  0  0  0  0  0  0
   39.5900   25.7920   34.6650 H   0  0  0  0  0  0  0  0  0  0  0  0
   40.0040   23.9190   35.8900 H   0  0  0  0  0  0  0  0  0  0  0  0
   39.0360   21.9270   35.2110 H   0  0  0  0  0  0  0  0  0  0  0  0
   37.3830   22.7230   35.0260 H   0  0  0  0  0  0  0  0  0  0  0  0
   39.9020   23.4750   33.4310 H   0  0  0  0  0  0  0  0  0  0  0  0
   38.3380   22.7800   32.7480 H   0  0  0  0  0  0  0  0  0  0  0  0
   38.2140   24.1270   37.0840 C   0  0  0  0  0  0  0  0  0  0  0  0
   38.1460   25.4670   37.4030 F   0  0  0  0  0  0  0  0  0  0  0  0
   39.0300   23.5450   38.0110 F   0  0  0  0  0  0  0  0  0  0  0  0
   36.9720   23.5420   37.0870 F   0  0  0  0  0  0  0  0  0  0  0  0
   36.5270   28.7290   31.0360 S   0  0  0  0  0  0  0  0  0  0  0  0
   35.9840   29.8550   32.1700 C   0  0  0  0  0  0  0  0  0  0  0  0
   35.8430   31.1980   32.3580 C   0  0  0  0  0  0  0  0  0  0  0  0
   35.3360   31.7820   33.4670 C   0  0  0  0  0  0  0  0  0  0  0  0
   34.9250   30.8080   34.5130 C   0  0  0  0  0  0  0  0  0  0  0  0
   35.3130   29.1830   33.7820 S   0  0  0  0  0  0  0  0  0  0  0  0
   36.1910   31.7520   31.5010 H   0  0  0  0  0  0  0  0  0  0  0  0
   35.2230   32.8370   33.6190 H   0  0  0  0  0  0  0  0  0  0  0  0
   34.3810   31.1850   35.7360 N   0  0  0  0  0  0  0  0  0  0  0  0
   33.0660   31.0200   36.3110 C   0  0  0  0  0  2  0  0  0  0  0  0
   32.4570   32.2620   36.8600 C   0  0  0  0  0  2  0  0  0  0  0  0
   33.4030   33.2600   37.4350 C   0  0  0  0  0  3  0  0  0  0  0  0
   32.9710   34.2690   37.3930 H   0  0  0  0  0  0  0  0  0  0  0  0
   34.7260   33.3300   36.6630 C   0  0  0  0  0  2  0  0  0  0  0  0
   35.2340   31.8830   36.6770 C   0  0  0  0  0  2  0  0  0  0  0  0
  1  9  1  0  0  0  0
  2  7  1  0  0  0  0
  2  1  2  0  0  0  0
  3  2  1  0  0  0  0
  4  3  2  0  0  0  0
  4  5  1  0  0  0  0
  5  6  2  0  0  0  0
  6  1  1  0  0  0  0
  8  3  1  0  0  0  0
  9 10  1  0  0  0  0
 10 14  1  0  0  0  0
 10 11  1  0  0  0  0
 11 16  1  1  0  0  0
 11 21  1  0  0  0  0
 12 18  1  0  0  0  0
 12 17  1  0  0  0  0
 12 11  1  0  0  0  0
 13  9  1  0  0  0  0
 13 12  1  0  0  0  0
 15 10  1  0  0  0  0
 19 13  1  0  0  0  0
 20 13  1  0  0  0  0
 21 24  1  0  0  0  0
 21 22  1  0  0  0  0
 21 23  1  0  0  0  0
 25  5  1  0  0  0  0
 25 26  1  0  0  0  0
 26 27  2  0  0  0  0
 26 30  1  0  0  0  0
 27 28  1  0  0  0  0
 28 32  1  0  0  0  0
 28 29  2  0  0  0  0
 29 33  1  0  0  0  0
 30 29  1  0  0  0  0
 31 27  1  0  0  0  0
 33 34  1  0  0  0  0
 33 39  1  0  0  0  0
 34 35  1  0  0  0  0
 35 36  1  0  0  0  0
 37 36  1  0  0  0  0
 38 39  1  0  0  0  0
 38 36  1  0  0  0  0
M  END
>  <minimizedAffinity>
-6.02957535

$$$$

 OpenBabel03272503353D

 39 42  0  0  1  0  0  0  0  0999 V2000
   37.6570   24.0370   33.2850 C   0  0  0  0  0  0  0  0  0  0  0  0
   37.1550   22.9140   32.6160 C   0  0  0  0  0  0  0  0  0  0  0  0
   36.2770   23.1390   31.5510 C   0  0  0  0  0  0  0  0  0  0  0  0
   35.9740   24.4490   31.2410 N   0  0  0  0  0  0  0  0  0  0  0  0
   36.4750   25.4850   31.9030 C   0  0  0  0  0  0  0  0  0  0  0  0
   37.3190   25.2820   32.9270 N   0  0  0  0  0  0  0  0  0  0  0  0
   37.3810   21.8940   32.8470 H   0  0  0  0  0  0  0  0  0  0  0  0
   35.8420   22.3200   30.9780 H   0  0  0  0  0  0  0  0  0  0  0  0
   38.5530   23.7870   34.3720 N   0  0  0  0  0  0  0  0  0  0  0  0
   38.8170   24.6180   35.5060 C   0  0  0  0  0  0  0  0  0  0  0  0
   39.2180   23.6130   36.5720 C   0  0  2  0  0  0  0  0  0  0  0  0
   39.0260   22.2360   35.9530 C   0  0  0  0  0  0  0  0  0  0  0  0
   39.3890   22.5970   34.5280 C   0  0  0  0  0  0  0  0  0  0  0  0
   37.9700   25.2480   35.8100 H   0  0  0  0  0  0  0  0  0  0  0  0
   39.7060   25.2680   35.2560 H   0  0  0  0  0  0  0  0  0  0  0  0
   40.3090   23.6940   36.7850 H   0  0  0  0  0  0  0  0  0  0  0  0
   39.7090   21.4910   36.3870 H   0  0  0  0  0  0  0  0  0  0  0  0
   37.9730   21.9700   35.9950 H   0  0  0  0  0  0  0  0  0  0  0  0
   40.4590   22.8740   34.4270 H   0  0  0  0  0  0  0  0  0  0  0  0
   39.0750   21.8390   33.7880 H   0  0  0  0  0  0  0  0  0  0  0  0
   38.4240   23.7850   37.8400 C   0  0  0  0  0  0  0  0  0  0  0  0
   39.2140   23.3070   38.8640 F   0  0  0  0  0  0  0  0  0  0  0  0
   37.3390   22.9600   37.7630 F   0  0  0  0  0  0  0  0  0  0  0  0
   38.0370   25.0840   38.0630 F   0  0  0  0  0  0  0  0  0  0  0  0
   36.0450   27.1400   31.4500 S   0  0  0  0  0  0  0  0  0  0  0  0
   35.9350   28.3050   32.6660 C   0  0  0  0  0  0  0  0  0  0  0  0
   36.1050   28.4660   34.0090 C   0  0  0  0  0  0  0  0  0  0  0  0
   35.9130   29.6200   34.6880 C   0  0  0  0  0  0  0  0  0  0  0  0
   35.4830   30.7500   33.8240 C   0  0  0  0  0  0  0  0  0  0  0  0
   35.4080   30.0250   32.1520 S   0  0  0  0  0  0  0  0  0  0  0  0
   36.4190   27.5460   34.4770 H   0  0  0  0  0  0  0  0  0  0  0  0
   36.0460   29.7500   35.7440 H   0  0  0  0  0  0  0  0  0  0  0  0
   35.2250   32.0270   34.3090 N   0  0  0  0  0  0  0  0  0  0  0  0
   34.4900   33.1460   33.7670 C   0  0  0  0  0  2  0  0  0  0  0  0
   35.2190   34.4430   33.7730 C   0  0  0  0  0  2  0  0  0  0  0  0
   36.1780   34.6530   34.8950 C   0  0  0  0  0  3  0  0  0  0  0  0
   36.9620   35.3640   34.6030 H   0  0  0  0  0  0  0  0  0  0  0  0
   36.9010   33.3630   35.3000 C   0  0  0  0  0  2  0  0  0  0  0  0
   35.7610   32.3860   35.6070 C   0  0  0  0  0  2  0  0  0  0  0  0
  1  9  1  0  0  0  0
  2  7  1  0  0  0  0
  2  1  2  0  0  0  0
  3  2  1  0  0  0  0
  4  3  2  0  0  0  0
  4  5  1  0  0  0  0
  5  6  2  0  0  0  0
  6  1  1  0  0  0  0
  8  3  1  0  0  0  0
  9 13  1  0  0  0  0
  9 10  1  0  0  0  0
 10 14  1  0  0  0  0
 10 11  1  0  0  0  0
 11 16  1  1  0  0  0
 11 21  1  0  0  0  0
 12 18  1  0  0  0  0
 12 17  1  0  0  0  0
 12 11  1  0  0  0  0
 13 12  1  0  0  0  0
 15 10  1  0  0  0  0
 19 13  1  0  0  0  0
 20 13  1  0  0  0  0
 21 24  1  0  0  0  0
 21 22  1  0  0  0  0
 23 21  1  0  0  0  0
 25  5  1  0  0  0  0
 25 26  1  0  0  0  0
 26 27  2  0  0  0  0
 27 31  1  0  0  0  0
 27 28  1  0  0  0  0
 28 32  1  0  0  0  0
 29 33  1  0  0  0  0
 29 28  2  0  0  0  0
 30 26  1  0  0  0  0
 30 29  1  0  0  0  0
 33 39  1  0  0  0  0
 34 35  1  0  0  0  0
 34 33  1  0  0  0  0
 35 36  1  0  0  0  0
 36 38  1  0  0  0  0
 37 36  1  0  0  0  0
 38 39  1  0  0  0  0
M  END
>  <minimizedAffinity>
-6.01464176

$$$$

 OpenBabel03272503353D

 39 42  0  0  1  0  0  0  0  0999 V2000
   36.4370   29.1230   31.8950 C   0  0  0  0  0  0  0  0  0  0  0  0
   36.3150   29.3840   30.5240 C   0  0  0  0  0  0  0  0  0  0  0  0
   37.1460   28.6670   29.6570 C   0  0  0  0  0  0  0  0  0  0  0  0
   38.0210   27.7600   30.2180 N   0  0  0  0  0  0  0  0  0  0  0  0
   38.1030   27.5450   31.5250 C   0  0  0  0  0  0  0  0  0  0  0  0
   37.3100   28.2250   32.3680 N   0  0  0  0  0  0  0  0  0  0  0  0
   35.6420   30.0840   30.0770 H   0  0  0  0  0  0  0  0  0  0  0  0
   37.1150   28.8100   28.5770 H   0  0  0  0  0  0  0  0  0  0  0  0
   35.5780   29.8660   32.7660 N   0  0  0  0  0  0  0  0  0  0  0  0
   35.3410   29.6520   34.1610 C   0  0  0  0  0  0  0  0  0  0  0  0
   34.9850   31.0440   34.6560 C   0  0  2  0  0  0  0  0  0  0  0  0
   35.1730   31.9790   33.4700 C   0  0  0  0  0  0  0  0  0  0  0  0
   34.7610   31.0140   32.3780 C   0  0  0  0  0  0  0  0  0  0  0  0
   36.1900   29.2110   34.7000 H   0  0  0  0  0  0  0  0  0  0  0  0
   34.4370   28.9830   34.2570 H   0  0  0  0  0  0  0  0  0  0  0  0
   33.9010   31.0970   34.9070 H   0  0  0  0  0  0  0  0  0  0  0  0
   34.5130   32.8570   33.5300 H   0  0  0  0  0  0  0  0  0  0  0  0
   36.2310   32.2080   33.3610 H   0  0  0  0  0  0  0  0  0  0  0  0
   33.6860   30.7490   32.4400 H   0  0  0  0  0  0  0  0  0  0  0  0
   35.0610   31.3410   31.3650 H   0  0  0  0  0  0  0  0  0  0  0  0
   35.8170   31.4520   35.8430 C   0  0  0  0  0  0  0  0  0  0  0  0
   36.5060   32.5850   35.4650 F   0  0  0  0  0  0  0  0  0  0  0  0
   36.7500   30.4770   36.0490 F   0  0  0  0  0  0  0  0  0  0  0  0
   35.0730   31.6680   36.9760 F   0  0  0  0  0  0  0  0  0  0  0  0
   39.2470   26.3630   32.1770 S   0  0  0  0  0  0  0  0  0  0  0  0
   38.6900   24.8080   32.5230 C   0  0  0  0  0  0  0  0  0  0  0  0
   39.0620   23.6540   33.1470 C   0  0  0  0  0  0  0  0  0  0  0  0
   38.3100   22.5340   33.2310 C   0  0  0  0  0  0  0  0  0  0  0  0
   36.9890   22.6570   32.5600 C   0  0  0  0  0  0  0  0  0  0  0  0
   36.9860   24.3560   31.8970 S   0  0  0  0  0  0  0  0  0  0  0  0
   40.0470   23.7420   33.5780 H   0  0  0  0  0  0  0  0  0  0  0  0
   38.5990   21.6250   33.7220 H   0  0  0  0  0  0  0  0  0  0  0  0
   36.0550   21.6280   32.5190 N   0  0  0  0  0  0  0  0  0  0  0  0
   35.5000   20.7720   33.5410 C   0  0  0  0  0  2  0  0  0  0  0  0
   35.5440   19.3160   33.2370 C   0  0  0  0  0  2  0  0  0  0  0  0
   35.4180   18.9400   31.8000 C   0  0  0  0  0  3  0  0  0  0  0  0
   35.8930   17.9680   31.6140 H   0  0  0  0  0  0  0  0  0  0  0  0
   36.1110   19.9400   30.8670 C   0  0  0  0  0  2  0  0  0  0  0  0
   35.4740   21.2850   31.2360 C   0  0  0  0  0  2  0  0  0  0  0  0
  1  6  1  0  0  0  0
  1  9  1  0  0  0  0
  2  1  2  0  0  0  0
  3  4  2  0  0  0  0
  3  2  1  0  0  0  0
  4  5  1  0  0  0  0
  5 25  1  0  0  0  0
  5  6  2  0  0  0  0
  7  2  1  0  0  0  0
  8  3  1  0  0  0  0
  9 10  1  0  0  0  0
 10 15  1  0  0  0  0
 10 11  1  0  0  0  0
 10 14  1  0  0  0  0
 11 16  1  1  0  0  0
 11 21  1  0  0  0  0
 12 17  1  0  0  0  0
 12 11  1  0  0  0  0
 13 19  1  0  0  0  0
 13  9  1  0  0  0  0
 13 12  1  0  0  0  0
 18 12  1  0  0  0  0
 20 13  1  0  0  0  0
 21 23  1  0  0  0  0
 21 24  1  0  0  0  0
 22 21  1  0  0  0  0
 25 26  1  0  0  0  0
 26 27  2  0  0  0  0
 27 28  1  0  0  0  0
 27 31  1  0  0  0  0
 28 32  1  0  0  0  0
 29 28  2  0  0  0  0
 30 26  1  0  0  0  0
 30 29  1  0  0  0  0
 33 29  1  0  0  0  0
 33 34  1  0  0  0  0
 35 34  1  0  0  0  0
 36 35  1  0  0  0  0
 37 36  1  0  0  0  0
 38 39  1  0  0  0  0
 38 36  1  0  0  0  0
 39 33  1  0  0  0  0
M  END
>  <minimizedAffinity>
-5.88463736

$$$$

 OpenBabel03272503353D

 39 42  0  0  1  0  0  0  0  0999 V2000
   37.7230   23.9700   32.7790 C   0  0  0  0  0  0  0  0  0  0  0  0
   38.4810   24.3330   33.8990 C   0  0  0  0  0  0  0  0  0  0  0  0
   38.5840   25.6970   34.1900 C   0  0  0  0  0  0  0  0  0  0  0  0
   37.9330   26.5780   33.3510 N   0  0  0  0  0  0  0  0  0  0  0  0
   37.2250   26.1880   32.2980 C   0  0  0  0  0  0  0  0  0  0  0  0
   37.1180   24.8820   32.0090 N   0  0  0  0  0  0  0  0  0  0  0  0
   38.9900   23.6600   34.5560 H   0  0  0  0  0  0  0  0  0  0  0  0
   39.1540   26.0640   35.0440 H   0  0  0  0  0  0  0  0  0  0  0  0
   37.6290   22.5690   32.4970 N   0  0  0  0  0  0  0  0  0  0  0  0
   37.4480   21.4950   33.4230 C   0  0  0  0  0  0  0  0  0  0  0  0
   36.7360   20.4460   32.5840 C   0  0  2  0  0  0  0  0  0  0  0  0
   36.4650   21.0940   31.2340 C   0  0  0  0  0  0  0  0  0  0  0  0
   37.7030   21.9630   31.1680 C   0  0  0  0  0  0  0  0  0  0  0  0
   36.8900   21.7690   34.3280 H   0  0  0  0  0  0  0  0  0  0  0  0
   38.4700   21.1100   33.7060 H   0  0  0  0  0  0  0  0  0  0  0  0
   37.4210   19.5940   32.3720 H   0  0  0  0  0  0  0  0  0  0  0  0
   36.4250   20.3530   30.4230 H   0  0  0  0  0  0  0  0  0  0  0  0
   35.5870   21.7320   31.3150 H   0  0  0  0  0  0  0  0  0  0  0  0
   38.6300   21.3620   31.0800 H   0  0  0  0  0  0  0  0  0  0  0  0
   37.6410   22.7620   30.4060 H   0  0  0  0  0  0  0  0  0  0  0  0
   35.4760   19.9530   33.2450 C   0  0  0  0  0  0  0  0  0  0  0  0
   34.4270   20.5580   32.5850 F   0  0  0  0  0  0  0  0  0  0  0  0
   35.4640   20.4330   34.5230 F   0  0  0  0  0  0  0  0  0  0  0  0
   35.3600   18.5850   33.2330 F   0  0  0  0  0  0  0  0  0  0  0  0
   36.4130   27.3740   31.2660 S   0  0  0  0  0  0  0  0  0  0  0  0
   36.1200   28.9160   31.8860 C   0  0  0  0  0  0  0  0  0  0  0  0
   36.2850   30.2360   31.5880 C   0  0  0  0  0  0  0  0  0  0  0  0
   35.9030   31.2680   32.3740 C   0  0  0  0  0  0  0  0  0  0  0  0
   35.2630   30.8370   33.6460 C   0  0  0  0  0  0  0  0  0  0  0  0
   35.2860   29.0150   33.5570 S   0  0  0  0  0  0  0  0  0  0  0  0
   36.7640   30.3640   30.6300 H   0  0  0  0  0  0  0  0  0  0  0  0
   36.0310   32.3070   32.1430 H   0  0  0  0  0  0  0  0  0  0  0  0
   34.7970   31.7280   34.6060 N   0  0  0  0  0  0  0  0  0  0  0  0
   35.4730   32.5690   35.5660 C   0  0  0  0  0  2  0  0  0  0  0  0
   34.9780   32.4540   36.9650 C   0  0  0  0  0  2  0  0  0  0  0  0
   33.5270   32.1540   37.1260 C   0  0  0  0  0  3  0  0  0  0  0  0
   33.3420   31.6550   38.0870 H   0  0  0  0  0  0  0  0  0  0  0  0
   32.9980   31.2060   36.0440 C   0  0  0  0  0  2  0  0  0  0  0  0
   33.3650   31.9090   34.7320 C   0  0  0  0  0  2  0  0  0  0  0  0
  1  2  1  0  0  0  0
  2  3  2  0  0  0  0
  2  7  1  0  0  0  0
  3  8  1  0  0  0  0
  4  3  1  0  0  0  0
  5  4  2  0  0  0  0
  6  5  1  0  0  0  0
  6  1  2  0  0  0  0
  9  1  1  0  0  0  0
  9 10  1  0  0  0  0
 10 15  1  0  0  0  0
 10 14  1  0  0  0  0
 11 16  1  6  0  0  0
 11 21  1  0  0  0  0
 11 10  1  0  0  0  0
 12 18  1  0  0  0  0
 12 11  1  0  0  0  0
 13 12  1  0  0  0  0
 13  9  1  0  0  0  0
 17 12  1  0  0  0  0
 19 13  1  0  0  0  0
 20 13  1  0  0  0  0
 21 23  1  0  0  0  0
 22 21  1  0  0  0  0
 24 21  1  0  0  0  0
 25 26  1  0  0  0  0
 25  5  1  0  0  0  0
 26 30  1  0  0  0  0
 27 26  2  0  0  0  0
 27 28  1  0  0  0  0
 28 29  2  0  0  0  0
 29 33  1  0  0  0  0
 30 29  1  0  0  0  0
 31 27  1  0  0  0  0
 32 28  1  0  0  0  0
 33 39  1  0  0  0  0
 33 34  1  0  0  0  0
 34 35  1  0  0  0  0
 35 36  1  0  0  0  0
 36 37  1  0  0  0  0
 38 36  1  0  0  0  0
 39 38  1  0  0  0  0
M  END
>  <minimizedAffinity>
-5.87123203

$$$$

 OpenBabel03272503353D

 39 42  0  0  1  0  0  0  0  0999 V2000
   34.4700   29.8580   32.6480 C   0  0  0  0  0  0  0  0  0  0  0  0
   34.6160   30.9840   31.8290 C   0  0  0  0  0  0  0  0  0  0  0  0
   35.6610   30.9710   30.9000 C   0  0  0  0  0  0  0  0  0  0  0  0
   36.4670   29.8510   30.8630 N   0  0  0  0  0  0  0  0  0  0  0  0
   36.2900   28.8050   31.6600 C   0  0  0  0  0  0  0  0  0  0  0  0
   35.2910   28.8050   32.5550 N   0  0  0  0  0  0  0  0  0  0  0  0
   34.0000   31.8580   31.8490 H   0  0  0  0  0  0  0  0  0  0  0  0
   35.8450   31.8070   30.2250 H   0  0  0  0  0  0  0  0  0  0  0  0
   33.3950   29.8900   33.5930 N   0  0  0  0  0  0  0  0  0  0  0  0
   33.4270   29.5280   34.9770 C   0  0  0  0  0  0  0  0  0  0  0  0
   32.3300   30.3930   35.5750 C   0  0  2  0  0  0  0  0  0  0  0  0
   31.8320   31.2880   34.4480 C   0  0  0  0  0  0  0  0  0  0  0  0
   32.0240   30.3110   33.3080 C   0  0  0  0  0  0  0  0  0  0  0  0
   34.4020   29.6810   35.4600 H   0  0  0  0  0  0  0  0  0  0  0  0
   33.1270   28.4430   35.0550 H   0  0  0  0  0  0  0  0  0  0  0  0
   31.4570   29.7630   35.8610 H   0  0  0  0  0  0  0  0  0  0  0  0
   30.7790   31.5750   34.5860 H   0  0  0  0  0  0  0  0  0  0  0  0
   32.5210   32.1200   34.3230 H   0  0  0  0  0  0  0  0  0  0  0  0
   31.3400   29.4410   33.3840 H   0  0  0  0  0  0  0  0  0  0  0  0
   31.9960   30.7870   32.3100 H   0  0  0  0  0  0  0  0  0  0  0  0
   32.8150   31.1840   36.7600 C   0  0  0  0  0  0  0  0  0  0  0  0
   32.2090   32.4200   36.6800 F   0  0  0  0  0  0  0  0  0  0  0  0
   34.1540   31.3940   36.5970 F   0  0  0  0  0  0  0  0  0  0  0  0
   32.5570   30.5710   37.9610 F   0  0  0  0  0  0  0  0  0  0  0  0
   37.3600   27.3990   31.5560 S   0  0  0  0  0  0  0  0  0  0  0  0
   36.6660   25.8640   31.4570 C   0  0  0  0  0  0  0  0  0  0  0  0
   35.5280   25.2310   31.0530 C   0  0  0  0  0  0  0  0  0  0  0  0
   35.3060   23.9000   31.1300 C   0  0  0  0  0  0  0  0  0  0  0  0
   36.4440   23.1430   31.7160 C   0  0  0  0  0  0  0  0  0  0  0  0
   37.6870   24.4270   32.0800 S   0  0  0  0  0  0  0  0  0  0  0  0
   34.8100   25.9310   30.6540 H   0  0  0  0  0  0  0  0  0  0  0  0
   34.4120   23.3980   30.8130 H   0  0  0  0  0  0  0  0  0  0  0  0
   36.4330   21.7640   31.8940 N   0  0  0  0  0  0  0  0  0  0  0  0
   35.9230   20.6800   31.0870 C   0  0  0  0  0  2  0  0  0  0  0  0
   35.0510   19.7130   31.8070 C   0  0  0  0  0  2  0  0  0  0  0  0
   35.3680   19.4870   33.2460 C   0  0  0  0  0  3  0  0  0  0  0  0
   34.4740   19.1550   33.7900 H   0  0  0  0  0  0  0  0  0  0  0  0
   35.8480   20.7620   33.9500 C   0  0  0  0  0  2  0  0  0  0  0  0
   37.0340   21.2260   33.0980 C   0  0  0  0  0  2  0  0  0  0  0  0
  1  9  1  0  0  0  0
  2  7  1  0  0  0  0
  2  1  2  0  0  0  0
  3  2  1  0  0  0  0
  4  3  2  0  0  0  0
  4  5  1  0  0  0  0
  5  6  2  0  0  0  0
  6  1  1  0  0  0  0
  8  3  1  0  0  0  0
  9 10  1  0  0  0  0
 10 15  1  0  0  0  0
 10 14  1  0  0  0  0
 10 11  1  0  0  0  0
 11 16  1  1  0  0  0
 11 21  1  0  0  0  0
 12 17  1  0  0  0  0
 12 11  1  0  0  0  0
 13 19  1  0  0  0  0
 13  9  1  0  0  0  0
 13 12  1  0  0  0  0
 18 12  1  0  0  0  0
 20 13  1  0  0  0  0
 21 24  1  0  0  0  0
 22 21  1  0  0  0  0
 23 21  1  0  0  0  0
 25  5  1  0  0  0  0
 26 25  1  0  0  0  0
 26 30  1  0  0  0  0
 27 28  1  0  0  0  0
 27 26  2  0  0  0  0
 28 29  2  0  0  0  0
 29 33  1  0  0  0  0
 29 30  1  0  0  0  0
 31 27  1  0  0  0  0
 32 28  1  0  0  0  0
 33 39  1  0  0  0  0
 34 35  1  0  0  0  0
 34 33  1  0  0  0  0
 35 36  1  0  0  0  0
 36 37  1  0  0  0  0
 36 38  1  0  0  0  0
 39 38  1  0  0  0  0
M  END
>  <minimizedAffinity>
-5.83850288

$$$$

 OpenBabel03272503353D

 39 42  0  0  1  0  0  0  0  0999 V2000
   35.8220   28.5270   33.6430 C   0  0  0  0  0  0  0  0  0  0  0  0
   36.5750   28.3760   34.8140 C   0  0  0  0  0  0  0  0  0  0  0  0
   37.7000   27.5460   34.7510 C   0  0  0  0  0  0  0  0  0  0  0  0
   37.9790   26.9410   33.5420 N   0  0  0  0  0  0  0  0  0  0  0  0
   37.2350   27.1140   32.4570 C   0  0  0  0  0  0  0  0  0  0  0  0
   36.1540   27.9080   32.5030 N   0  0  0  0  0  0  0  0  0  0  0  0
   36.3690   28.8380   35.7560 H   0  0  0  0  0  0  0  0  0  0  0  0
   38.3400   27.3740   35.6170 H   0  0  0  0  0  0  0  0  0  0  0  0
   34.6750   29.3800   33.7260 N   0  0  0  0  0  0  0  0  0  0  0  0
   33.5680   29.4580   32.8240 C   0  0  0  0  0  0  0  0  0  0  0  0
   32.4350   29.9240   33.7230 C   0  0  2  0  0  0  0  0  0  0  0  0
   33.0010   29.9600   35.1360 C   0  0  0  0  0  0  0  0  0  0  0  0
   34.4180   30.3580   34.7820 C   0  0  0  0  0  0  0  0  0  0  0  0
   33.3410   28.5160   32.3060 H   0  0  0  0  0  0  0  0  0  0  0  0
   33.7970   30.2640   32.0680 H   0  0  0  0  0  0  0  0  0  0  0  0
   32.1650   30.9780   33.4850 H   0  0  0  0  0  0  0  0  0  0  0  0
   32.4950   30.7090   35.7630 H   0  0  0  0  0  0  0  0  0  0  0  0
   33.0070   28.9510   35.5430 H   0  0  0  0  0  0  0  0  0  0  0  0
   34.4710   31.3840   34.3650 H   0  0  0  0  0  0  0  0  0  0  0  0
   35.1400   30.1960   35.6040 H   0  0  0  0  0  0  0  0  0  0  0  0
   31.2240   29.0360   33.6150 C   0  0  0  0  0  0  0  0  0  0  0  0
   30.2030   29.8270   33.1330 F   0  0  0  0  0  0  0  0  0  0  0  0
   30.8690   28.6650   34.8800 F   0  0  0  0  0  0  0  0  0  0  0  0
   31.4300   27.9360   32.8200 F   0  0  0  0  0  0  0  0  0  0  0  0
   37.6540   26.3090   30.9370 S   0  0  0  0  0  0  0  0  0  0  0  0
   37.6180   24.6230   30.8830 C   0  0  0  0  0  0  0  0  0  0  0  0
   38.4080   23.5460   30.6080 C   0  0  0  0  0  0  0  0  0  0  0  0
   38.0180   22.2540   30.6730 C   0  0  0  0  0  0  0  0  0  0  0  0
   36.5980   22.0850   31.0820 C   0  0  0  0  0  0  0  0  0  0  0  0
   36.0020   23.7920   31.3250 S   0  0  0  0  0  0  0  0  0  0  0  0
   39.4040   23.8530   30.3290 H   0  0  0  0  0  0  0  0  0  0  0  0
   38.6360   21.4050   30.4580 H   0  0  0  0  0  0  0  0  0  0  0  0
   35.9830   20.8450   31.2110 N   0  0  0  0  0  0  0  0  0  0  0  0
   34.9270   20.3640   32.0720 C   0  0  0  0  0  2  0  0  0  0  0  0
   35.2320   19.1030   32.8000 C   0  0  0  0  0  2  0  0  0  0  0  0
   36.1190   18.1340   32.0950 C   0  0  0  0  0  3  0  0  0  0  0  0
   36.6420   17.4940   32.8180 H   0  0  0  0  0  0  0  0  0  0  0  0
   37.2100   18.8280   31.2700 C   0  0  0  0  0  2  0  0  0  0  0  0
   36.4270   19.7690   30.3470 C   0  0  0  0  0  2  0  0  0  0  0  0
  1  9  1  0  0  0  0
  1  2  1  0  0  0  0
  2  7  1  0  0  0  0
  3  2  2  0  0  0  0
  3  8  1  0  0  0  0
  4  3  1  0  0  0  0
  5  6  1  0  0  0  0
  5  4  2  0  0  0  0
  6  1  2  0  0  0  0
  9 13  1  0  0  0  0
 10 11  1  0  0  0  0
 10  9  1  0  0  0  0
 11 16  1  6  0  0  0
 11 12  1  0  0  0  0
 12 18  1  0  0  0  0
 12 17  1  0  0  0  0
 13 12  1  0  0  0  0
 13 20  1  0  0  0  0
 14 10  1  0  0  0  0
 15 10  1  0  0  0  0
 19 13  1  0  0  0  0
 21 11  1  0  0  0  0
 21 23  1  0  0  0  0
 22 21  1  0  0  0  0
 24 21  1  0  0  0  0
 25  5  1  0  0  0  0
 26 25  1  0  0  0  0
 26 30  1  0  0  0  0
 27 28  1  0  0  0  0
 27 26  2  0  0  0  0
 28 29  2  0  0  0  0
 29 33  1  0  0  0  0
 29 30  1  0  0  0  0
 31 27  1  0  0  0  0
 32 28  1  0  0  0  0
 33 34  1  0  0  0  0
 34 35  1  0  0  0  0
 36 35  1  0  0  0  0
 36 37  1  0  0  0  0
 38 36  1  0  0  0  0
 39 33  1  0  0  0  0
 39 38  1  0  0  0  0
M  END
>  <minimizedAffinity>
-5.6781168

$$$$

 OpenBabel03272503353D

 39 42  0  0  1  0  0  0  0  0999 V2000
   39.3730   24.7710   33.7090 C   0  0  0  0  0  0  0  0  0  0  0  0
   40.6200   25.3920   33.5620 C   0  0  0  0  0  0  0  0  0  0  0  0
   40.6750   26.5440   32.7710 C   0  0  0  0  0  0  0  0  0  0  0  0
   39.4980   26.9790   32.1970 N   0  0  0  0  0  0  0  0  0  0  0  0
   38.3370   26.3590   32.3640 C   0  0  0  0  0  0  0  0  0  0  0  0
   38.2700   25.2520   33.1210 N   0  0  0  0  0  0  0  0  0  0  0  0
   41.5380   25.0640   34.0010 H   0  0  0  0  0  0  0  0  0  0  0  0
   41.6050   27.0870   32.6060 H   0  0  0  0  0  0  0  0  0  0  0  0
   39.3360   23.5930   34.5220 N   0  0  0  0  0  0  0  0  0  0  0  0
   40.4400   22.8400   35.0310 C   0  0  0  0  0  0  0  0  0  0  0  0
   39.8710   22.2300   36.3020 C   0  0  2  0  0  0  0  0  0  0  0  0
   38.4730   22.8110   36.4630 C   0  0  0  0  0  0  0  0  0  0  0  0
   38.1250   22.9240   34.9940 C   0  0  0  0  0  0  0  0  0  0  0  0
   41.3460   23.4340   35.2110 H   0  0  0  0  0  0  0  0  0  0  0  0
   40.6640   22.0160   34.2930 H   0  0  0  0  0  0  0  0  0  0  0  0
   39.7240   21.1340   36.1690 H   0  0  0  0  0  0  0  0  0  0  0  0
   37.8040   22.1260   37.0050 H   0  0  0  0  0  0  0  0  0  0  0  0
   38.5490   23.8090   36.8880 H   0  0  0  0  0  0  0  0  0  0  0  0
   38.0310   21.9310   34.5100 H   0  0  0  0  0  0  0  0  0  0  0  0
   37.2550   23.5770   34.7970 H   0  0  0  0  0  0  0  0  0  0  0  0
   40.7440   22.5000   37.4990 C   0  0  0  0  0  0  0  0  0  0  0  0
   41.8310   23.2110   37.0370 F   0  0  0  0  0  0  0  0  0  0  0  0
   41.2190   21.3000   37.9430 F   0  0  0  0  0  0  0  0  0  0  0  0
   40.0900   23.1710   38.5030 F   0  0  0  0  0  0  0  0  0  0  0  0
   36.8640   26.9750   31.6000 S   0  0  0  0  0  0  0  0  0  0  0  0
   36.0940   28.3060   32.2930 C   0  0  0  0  0  0  0  0  0  0  0  0
   35.3300   29.3870   31.9660 C   0  0  0  0  0  0  0  0  0  0  0  0
   34.8610   30.3060   32.8410 C   0  0  0  0  0  0  0  0  0  0  0  0
   35.2600   30.0390   34.2480 C   0  0  0  0  0  0  0  0  0  0  0  0
   36.2510   28.5110   34.1460 S   0  0  0  0  0  0  0  0  0  0  0  0
   35.1370   29.4240   30.9050 H   0  0  0  0  0  0  0  0  0  0  0  0
   34.2600   31.1570   32.5880 H   0  0  0  0  0  0  0  0  0  0  0  0
   34.8940   30.8540   35.3130 N   0  0  0  0  0  0  0  0  0  0  0  0
   33.6110   31.2050   35.8780 C   0  0  0  0  0  2  0  0  0  0  0  0
   33.3800   32.6630   36.0630 C   0  0  0  0  0  2  0  0  0  0  0  0
   34.5830   33.4850   36.3770 C   0  0  0  0  0  3  0  0  0  0  0  0
   34.4320   34.5250   36.0580 H   0  0  0  0  0  0  0  0  0  0  0  0
   35.8390   32.9930   35.6480 C   0  0  0  0  0  2  0  0  0  0  0  0
   35.9450   31.5190   36.0570 C   0  0  0  0  0  2  0  0  0  0  0  0
  1  9  1  0  0  0  0
  2  1  1  0  0  0  0
  2  7  1  0  0  0  0
  3  2  2  0  0  0  0
  4  5  2  0  0  0  0
  4  3  1  0  0  0  0
  5  6  1  0  0  0  0
  6  1  2  0  0  0  0
  8  3  1  0  0  0  0
  9 13  1  0  0  0  0
  9 10  1  0  0  0  0
 10 14  1  0  0  0  0
 10 11  1  0  0  0  0
 11 16  1  6  0  0  0
 11 12  1  0  0  0  0
 11 21  1  0  0  0  0
 12 18  1  0  0  0  0
 12 17  1  0  0  0  0
 13 12  1  0  0  0  0
 15 10  1  0  0  0  0
 19 13  1  0  0  0  0
 20 13  1  0  0  0  0
 21 23  1  0  0  0  0
 21 24  1  0  0  0  0
 22 21  1  0  0  0  0
 25 26  1  0  0  0  0
 25  5  1  0  0  0  0
 26 30  1  0  0  0  0
 27 26  2  0  0  0  0
 27 28  1  0  0  0  0
 28 29  2  0  0  0  0
 29 33  1  0  0  0  0
 30 29  1  0  0  0  0
 31 27  1  0  0  0  0
 32 28  1  0  0  0  0
 33 34  1  0  0  0  0
 33 39  1  0  0  0  0
 34 35  1  0  0  0  0
 35 36  1  0  0  0  0
 37 36  1  0  0  0  0
 38 39  1  0  0  0  0
 38 36  1  0  0  0  0
M  END
>  <minimizedAffinity>
-5.59362793

$$$$
