
 OpenBabel03272502223D

 24 26  0  0  0  0  0  0  0  0999 V2000
   36.0790   23.2560   31.8730 C   0  0  0  0  0  0  0  0  0  0  0  0
   35.2830   24.0220   31.0660 C   0  0  0  0  0  0  0  0  0  0  0  0
   35.3640   25.3940   30.9820 C   0  0  0  0  0  0  0  0  0  0  0  0
   36.2680   26.0340   31.7290 N   0  0  0  0  0  0  0  0  0  0  0  0
   37.0670   25.3000   32.5350 C   0  0  0  0  0  0  0  0  0  0  0  0
   36.9620   23.9690   32.5910 N   0  0  0  0  0  0  0  0  0  0  0  0
   34.5290   23.5550   30.4360 H   0  0  0  0  0  0  0  0  0  0  0  0
   34.7030   25.9640   30.3200 H   0  0  0  0  0  0  0  0  0  0  0  0
   38.0270   25.9940   33.3250 N   0  0  0  0  0  0  0  0  0  0  0  0
   38.1860   25.6350   34.7210 C   0  0  0  0  0  2  0  0  0  0  0  0
   39.0120   26.6070   35.4850 C   0  0  0  0  0  2  0  0  0  0  0  0
   40.3510   26.7670   34.8090 C   0  0  0  0  0  3  0  0  0  0  0  0
   40.9200   25.8020   34.9350 H   0  0  0  0  0  0  0  0  0  0  0  0
   40.2190   27.1410   33.3630 C   0  0  0  0  0  2  0  0  0  0  0  0
   38.8480   27.0370   32.7980 C   0  0  0  0  0  2  0  0  0  0  0  0
   35.5270   19.7050   33.0360 C   0  0  0  0  0  0  0  0  0  0  0  0
   35.5840   21.1030   33.0910 C   0  0  0  0  0  0  0  0  0  0  0  0
   35.9790   21.8050   31.9470 C   0  0  0  0  0  0  0  0  0  0  0  0
   36.2890   21.0950   30.8410 N   0  0  0  0  0  0  0  0  0  0  0  0
   36.2270   19.7380   30.8100 C   0  0  0  0  0  0  0  0  0  0  0  0
   35.8430   19.0510   31.9140 N   0  0  0  0  0  0  0  0  0  0  0  0
   35.2220   19.1790   33.9200 H   0  0  0  0  0  0  0  0  0  0  0  0
   35.3400   21.6720   33.9630 H   0  0  0  0  0  0  0  0  0  0  0  0
   36.4960   19.2540   29.8710 H   0  0  0  0  0  0  0  0  0  0  0  0
  1 18  1  0  0  0  0
  1  6  1  0  0  0  0
  2  1  2  0  0  0  0
  3  2  1  0  0  0  0
  3  4  2  0  0  0  0
  4  5  1  0  0  0  0
  5  6  2  0  0  0  0
  5  9  1  0  0  0  0
  7  2  1  0  0  0  0
  8  3  1  0  0  0  0
  9 10  1  0  0  0  0
 10 11  1  0  0  0  0
 12 13  1  0  0  0  0
 12 11  1  0  0  0  0
 14 12  1  0  0  0  0
 15  9  1  0  0  0  0
 15 14  1  0  0  0  0
 16 17  1  0  0  0  0
 16 22  1  0  0  0  0
 17 23  1  0  0  0  0
 18 17  2  0  0  0  0
 19 18  1  0  0  0  0
 20 19  2  0  0  0  0
 20 21  1  0  0  0  0
 21 16  2  0  0  0  0
 24 20  1  0  0  0  0
M  END
>  <minimizedAffinity>
-5.26580524

$$$$

 OpenBabel03272502223D

 24 26  0  0  0  0  0  0  0  0999 V2000
   36.2000   23.5350   31.7250 C   0  0  0  0  0  0  0  0  0  0  0  0
   35.3030   24.3780   31.1270 C   0  0  0  0  0  0  0  0  0  0  0  0
   35.3910   25.7510   31.1710 C   0  0  0  0  0  0  0  0  0  0  0  0
   36.4040   26.3130   31.8350 N   0  0  0  0  0  0  0  0  0  0  0  0
   37.3040   25.5020   32.4350 C   0  0  0  0  0  0  0  0  0  0  0  0
   37.1900   24.1710   32.3710 N   0  0  0  0  0  0  0  0  0  0  0  0
   34.4580   23.9770   30.5730 H   0  0  0  0  0  0  0  0  0  0  0  0
   34.6460   26.3850   30.6760 H   0  0  0  0  0  0  0  0  0  0  0  0
   38.3810   26.1120   33.1380 N   0  0  0  0  0  0  0  0  0  0  0  0
   38.7400   25.6130   34.4520 C   0  0  0  0  0  2  0  0  0  0  0  0
   39.6850   26.5040   35.1770 C   0  0  0  0  0  2  0  0  0  0  0  0
   40.9100   26.7330   34.3290 C   0  0  0  0  0  3  0  0  0  0  0  0
   41.4780   25.7610   34.2700 H   0  0  0  0  0  0  0  0  0  0  0  0
   40.5690   27.2520   32.9640 C   0  0  0  0  0  2  0  0  0  0  0  0
   39.1280   27.2040   32.6020 C   0  0  0  0  0  2  0  0  0  0  0  0
   36.8200   19.8660   31.0730 C   0  0  0  0  0  0  0  0  0  0  0  0
   37.0390   21.2490   31.0640 C   0  0  0  0  0  0  0  0  0  0  0  0
   36.0910   22.0830   31.6660 C   0  0  0  0  0  0  0  0  0  0  0  0
   35.0060   21.5100   32.2290 N   0  0  0  0  0  0  0  0  0  0  0  0
   34.8140   20.1650   32.2270 C   0  0  0  0  0  0  0  0  0  0  0  0
   35.7280   19.3500   31.6460 N   0  0  0  0  0  0  0  0  0  0  0  0
   37.5550   19.2380   30.6090 H   0  0  0  0  0  0  0  0  0  0  0  0
   37.8960   21.7100   30.6200 H   0  0  0  0  0  0  0  0  0  0  0  0
   33.9070   19.7960   32.7060 H   0  0  0  0  0  0  0  0  0  0  0  0
  1  6  1  0  0  0  0
  2  3  1  0  0  0  0
  2  1  2  0  0  0  0
  3  4  2  0  0  0  0
  4  5  1  0  0  0  0
  5  9  1  0  0  0  0
  6  5  2  0  0  0  0
  7  2  1  0  0  0  0
  8  3  1  0  0  0  0
  9 10  1  0  0  0  0
 10 11  1  0  0  0  0
 12 11  1  0  0  0  0
 13 12  1  0  0  0  0
 14 12  1  0  0  0  0
 15 14  1  0  0  0  0
 15  9  1  0  0  0  0
 16 21  1  0  0  0  0
 17 16  2  0  0  0  0
 17 18  1  0  0  0  0
 18  1  1  0  0  0  0
 18 19  2  0  0  0  0
 20 19  1  0  0  0  0
 20 24  1  0  0  0  0
 21 20  2  0  0  0  0
 22 16  1  0  0  0  0
 23 17  1  0  0  0  0
M  END
>  <minimizedAffinity>
-5.05293941

$$$$

 OpenBabel03272502223D

 24 26  0  0  0  0  0  0  0  0999 V2000
   38.5110   25.5520   33.2420 C   0  0  0  0  0  0  0  0  0  0  0  0
   39.1710   26.7500   33.1910 C   0  0  0  0  0  0  0  0  0  0  0  0
   40.2880   27.0460   33.9380 C   0  0  0  0  0  0  0  0  0  0  0  0
   40.7710   26.1220   34.7720 N   0  0  0  0  0  0  0  0  0  0  0  0
   40.1380   24.9300   34.8420 C   0  0  0  0  0  0  0  0  0  0  0  0
   39.0550   24.6740   34.1010 N   0  0  0  0  0  0  0  0  0  0  0  0
   38.8220   27.5400   32.5300 H   0  0  0  0  0  0  0  0  0  0  0  0
   40.7820   28.0220   33.8610 H   0  0  0  0  0  0  0  0  0  0  0  0
   40.6630   23.9520   35.7340 N   0  0  0  0  0  0  0  0  0  0  0  0
   39.7530   23.2140   36.5890 C   0  0  0  0  0  2  0  0  0  0  0  0
   40.4480   22.4360   37.6480 C   0  0  0  0  0  2  0  0  0  0  0  0
   41.4620   21.5170   37.0120 C   0  0  0  0  0  3  0  0  0  0  0  0
   40.9000   20.7220   36.4450 H   0  0  0  0  0  0  0  0  0  0  0  0
   42.4190   22.2530   36.1230 C   0  0  0  0  0  2  0  0  0  0  0  0
   42.0590   23.6640   35.8240 C   0  0  0  0  0  2  0  0  0  0  0  0
   35.7270   23.8100   31.3770 C   0  0  0  0  0  0  0  0  0  0  0  0
   36.8780   23.9630   32.1590 C   0  0  0  0  0  0  0  0  0  0  0  0
   37.3300   25.2560   32.4430 C   0  0  0  0  0  0  0  0  0  0  0  0
   36.6290   26.2980   31.9460 N   0  0  0  0  0  0  0  0  0  0  0  0
   35.5140   26.1260   31.1890 C   0  0  0  0  0  0  0  0  0  0  0  0
   35.0700   24.8760   30.9100 N   0  0  0  0  0  0  0  0  0  0  0  0
   35.3910   22.8130   31.1670 H   0  0  0  0  0  0  0  0  0  0  0  0
   37.4380   23.1430   32.5550 H   0  0  0  0  0  0  0  0  0  0  0  0
   35.0160   27.0280   30.8330 H   0  0  0  0  0  0  0  0  0  0  0  0
  1  6  1  0  0  0  0
  2  1  2  0  0  0  0
  2  3  1  0  0  0  0
  3  4  2  0  0  0  0
  4  5  1  0  0  0  0
  5  9  1  0  0  0  0
  6  5  2  0  0  0  0
  7  2  1  0  0  0  0
  8  3  1  0  0  0  0
  9 15  1  0  0  0  0
  9 10  1  0  0  0  0
 10 11  1  0  0  0  0
 12 11  1  0  0  0  0
 13 12  1  0  0  0  0
 14 12  1  0  0  0  0
 15 14  1  0  0  0  0
 16 17  1  0  0  0  0
 17 18  2  0  0  0  0
 17 23  1  0  0  0  0
 18  1  1  0  0  0  0
 19 18  1  0  0  0  0
 20 19  2  0  0  0  0
 21 20  1  0  0  0  0
 21 16  2  0  0  0  0
 22 16  1  0  0  0  0
 24 20  1  0  0  0  0
M  END
>  <minimizedAffinity>
-5.00755024

$$$$

 OpenBabel03272502223D

 24 26  0  0  0  0  0  0  0  0999 V2000
   37.4580   23.1090   31.2920 C   0  0  0  0  0  0  0  0  0  0  0  0
   38.1730   23.4270   30.1700 C   0  0  0  0  0  0  0  0  0  0  0  0
   38.9320   24.5670   30.0370 C   0  0  0  0  0  0  0  0  0  0  0  0
   38.9830   25.4300   31.0540 N   0  0  0  0  0  0  0  0  0  0  0  0
   38.2850   25.1410   32.1750 C   0  0  0  0  0  0  0  0  0  0  0  0
   37.5580   24.0230   32.2710 N   0  0  0  0  0  0  0  0  0  0  0  0
   38.1690   22.7600   29.3100 H   0  0  0  0  0  0  0  0  0  0  0  0
   39.4880   24.7770   29.1160 H   0  0  0  0  0  0  0  0  0  0  0  0
   38.3480   26.0690   33.2530 N   0  0  0  0  0  0  0  0  0  0  0  0
   37.1250   26.4390   33.9400 C   0  0  0  0  0  2  0  0  0  0  0  0
   37.2950   27.6040   34.8480 C   0  0  0  0  0  2  0  0  0  0  0  0
   38.4030   27.3180   35.8290 C   0  0  0  0  0  3  0  0  0  0  0  0
   38.0480   26.5060   36.5270 H   0  0  0  0  0  0  0  0  0  0  0  0
   39.6830   26.9340   35.1480 C   0  0  0  0  0  2  0  0  0  0  0  0
   39.5740   26.6550   33.6920 C   0  0  0  0  0  2  0  0  0  0  0  0
   34.8280   20.5670   32.2330 C   0  0  0  0  0  0  0  0  0  0  0  0
   35.5080   21.7910   32.1980 C   0  0  0  0  0  0  0  0  0  0  0  0
   36.6610   21.8960   31.4140 C   0  0  0  0  0  0  0  0  0  0  0  0
   37.0640   20.8060   30.7260 N   0  0  0  0  0  0  0  0  0  0  0  0
   36.3880   19.6290   30.7740 C   0  0  0  0  0  0  0  0  0  0  0  0
   35.2690   19.5180   31.5320 N   0  0  0  0  0  0  0  0  0  0  0  0
   33.9450   20.4990   32.8380 H   0  0  0  0  0  0  0  0  0  0  0  0
   35.1940   22.6570   32.7410 H   0  0  0  0  0  0  0  0  0  0  0  0
   36.7910   18.8050   30.1840 H   0  0  0  0  0  0  0  0  0  0  0  0
  1 18  1  0  0  0  0
  1  6  1  0  0  0  0
  2  1  2  0  0  0  0
  3  2  1  0  0  0  0
  3  4  2  0  0  0  0
  4  5  1  0  0  0  0
  5  6  2  0  0  0  0
  5  9  1  0  0  0  0
  7  2  1  0  0  0  0
  8  3  1  0  0  0  0
  9 15  1  0  0  0  0
  9 10  1  0  0  0  0
 10 11  1  0  0  0  0
 11 12  1  0  0  0  0
 12 13  1  0  0  0  0
 14 12  1  0  0  0  0
 15 14  1  0  0  0  0
 16 22  1  0  0  0  0
 17 16  1  0  0  0  0
 17 23  1  0  0  0  0
 18 17  2  0  0  0  0
 19 20  2  0  0  0  0
 19 18  1  0  0  0  0
 20 21  1  0  0  0  0
 21 16  2  0  0  0  0
 24 20  1  0  0  0  0
M  END
>  <minimizedAffinity>
-4.96642971

$$$$

 OpenBabel03272502223D

 24 26  0  0  0  0  0  0  0  0999 V2000
   36.0840   28.1920   31.7780 C   0  0  0  0  0  0  0  0  0  0  0  0
   36.3190   28.9360   30.6540 C   0  0  0  0  0  0  0  0  0  0  0  0
   36.2210   30.3080   30.6040 C   0  0  0  0  0  0  0  0  0  0  0  0
   35.8750   30.9710   31.7100 N   0  0  0  0  0  0  0  0  0  0  0  0
   35.6370   30.2600   32.8350 C   0  0  0  0  0  0  0  0  0  0  0  0
   35.7420   28.9270   32.8480 N   0  0  0  0  0  0  0  0  0  0  0  0
   36.6040   28.4500   29.7240 H   0  0  0  0  0  0  0  0  0  0  0  0
   36.4200   30.8600   29.6780 H   0  0  0  0  0  0  0  0  0  0  0  0
   35.2700   30.9780   34.0080 N   0  0  0  0  0  0  0  0  0  0  0  0
   34.1670   30.4940   34.8170 C   0  0  0  0  0  2  0  0  0  0  0  0
   33.7210   31.4740   35.8430 C   0  0  0  0  0  2  0  0  0  0  0  0
   34.8940   31.8690   36.7040 C   0  0  0  0  0  3  0  0  0  0  0  0
   35.1860   30.9730   37.3230 H   0  0  0  0  0  0  0  0  0  0  0  0
   36.0500   32.3750   35.8940 C   0  0  0  0  0  2  0  0  0  0  0  0
   35.9450   32.1640   34.4260 C   0  0  0  0  0  2  0  0  0  0  0  0
   35.6250   24.4970   31.1450 C   0  0  0  0  0  0  0  0  0  0  0  0
   35.4260   25.8770   31.0210 C   0  0  0  0  0  0  0  0  0  0  0  0
   36.1930   26.7400   31.8110 C   0  0  0  0  0  0  0  0  0  0  0  0
   37.0920   26.1950   32.6590 N   0  0  0  0  0  0  0  0  0  0  0  0
   37.2690   24.8530   32.7630 C   0  0  0  0  0  0  0  0  0  0  0  0
   36.5290   24.0100   32.0000 N   0  0  0  0  0  0  0  0  0  0  0  0
   35.0310   23.8460   30.5340 H   0  0  0  0  0  0  0  0  0  0  0  0
   34.7160   26.3150   30.3520 H   0  0  0  0  0  0  0  0  0  0  0  0
   38.0190   24.5080   33.4750 H   0  0  0  0  0  0  0  0  0  0  0  0
  1 18  1  0  0  0  0
  1  6  1  0  0  0  0
  2  1  2  0  0  0  0
  3  2  1  0  0  0  0
  3  4  2  0  0  0  0
  4  5  1  0  0  0  0
  5  6  2  0  0  0  0
  5  9  1  0  0  0  0
  7  2  1  0  0  0  0
  8  3  1  0  0  0  0
  9 15  1  0  0  0  0
  9 10  1  0  0  0  0
 10 11  1  0  0  0  0
 11 12  1  0  0  0  0
 12 13  1  0  0  0  0
 14 12  1  0  0  0  0
 15 14  1  0  0  0  0
 16 21  1  0  0  0  0
 17 16  2  0  0  0  0
 17 18  1  0  0  0  0
 18 19  2  0  0  0  0
 19 20  1  0  0  0  0
 20 24  1  0  0  0  0
 21 20  2  0  0  0  0
 22 16  1  0  0  0  0
 23 17  1  0  0  0  0
M  END
>  <minimizedAffinity>
-4.89073563

$$$$

 OpenBabel03272502223D

 24 26  0  0  0  0  0  0  0  0999 V2000
   35.5760   29.1810   34.0270 C   0  0  0  0  0  0  0  0  0  0  0  0
   35.1240   29.0420   32.7430 C   0  0  0  0  0  0  0  0  0  0  0  0
   35.5830   28.0890   31.8630 C   0  0  0  0  0  0  0  0  0  0  0  0
   36.5300   27.2390   32.2690 N   0  0  0  0  0  0  0  0  0  0  0  0
   36.9950   27.3540   33.5330 C   0  0  0  0  0  0  0  0  0  0  0  0
   36.5250   28.2920   34.3620 N   0  0  0  0  0  0  0  0  0  0  0  0
   34.3530   29.7070   32.3580 H   0  0  0  0  0  0  0  0  0  0  0  0
   35.1880   28.0180   30.8430 H   0  0  0  0  0  0  0  0  0  0  0  0
   38.0040   26.4430   33.9540 N   0  0  0  0  0  0  0  0  0  0  0  0
   39.1500   26.9450   34.6860 C   0  0  0  0  0  2  0  0  0  0  0  0
   40.2420   25.9450   34.8210 C   0  0  0  0  0  2  0  0  0  0  0  0
   39.6980   24.6910   35.4590 C   0  0  0  0  0  3  0  0  0  0  0  0
   39.4430   24.9300   36.5310 H   0  0  0  0  0  0  0  0  0  0  0  0
   38.5110   24.1460   34.7220 C   0  0  0  0  0  2  0  0  0  0  0  0
   37.9350   25.0420   33.6850 C   0  0  0  0  0  2  0  0  0  0  0  0
   35.2910   32.0260   36.4950 C   0  0  0  0  0  0  0  0  0  0  0  0
   35.8920   31.0940   35.6400 C   0  0  0  0  0  0  0  0  0  0  0  0
   35.0760   30.1970   34.9440 C   0  0  0  0  0  0  0  0  0  0  0  0
   33.7410   30.2740   35.1310 N   0  0  0  0  0  0  0  0  0  0  0  0
   33.1790   31.1870   35.9650 C   0  0  0  0  0  0  0  0  0  0  0  0
   33.9630   32.0600   36.6440 N   0  0  0  0  0  0  0  0  0  0  0  0
   35.9270   32.7080   37.0230 H   0  0  0  0  0  0  0  0  0  0  0  0
   36.9490   31.0270   35.4880 H   0  0  0  0  0  0  0  0  0  0  0  0
   32.0920   31.1720   36.0500 H   0  0  0  0  0  0  0  0  0  0  0  0
  1  6  1  0  0  0  0
  1 18  1  0  0  0  0
  2  1  2  0  0  0  0
  3  4  2  0  0  0  0
  3  2  1  0  0  0  0
  4  5  1  0  0  0  0
  5  9  1  0  0  0  0
  5  6  2  0  0  0  0
  7  2  1  0  0  0  0
  8  3  1  0  0  0  0
  9 10  1  0  0  0  0
 10 11  1  0  0  0  0
 11 12  1  0  0  0  0
 12 13  1  0  0  0  0
 14 12  1  0  0  0  0
 15  9  1  0  0  0  0
 15 14  1  0  0  0  0
 16 21  1  0  0  0  0
 16 22  1  0  0  0  0
 17 16  2  0  0  0  0
 18 19  2  0  0  0  0
 18 17  1  0  0  0  0
 19 20  1  0  0  0  0
 20 24  1  0  0  0  0
 20 21  2  0  0  0  0
 23 17  1  0  0  0  0
M  END
>  <minimizedAffinity>
-4.80165529

$$$$

 OpenBabel03272502223D

 24 26  0  0  0  0  0  0  0  0999 V2000
   36.9990   25.1750   32.7640 C   0  0  0  0  0  0  0  0  0  0  0  0
   36.1790   25.8180   31.8780 C   0  0  0  0  0  0  0  0  0  0  0  0
   35.4040   25.1760   30.9400 C   0  0  0  0  0  0  0  0  0  0  0  0
   35.4430   23.8430   30.8720 N   0  0  0  0  0  0  0  0  0  0  0  0
   36.2460   23.1820   31.7360 C   0  0  0  0  0  0  0  0  0  0  0  0
   36.9860   23.8380   32.6360 N   0  0  0  0  0  0  0  0  0  0  0  0
   36.1060   26.9030   31.8870 H   0  0  0  0  0  0  0  0  0  0  0  0
   34.7610   25.7380   30.2510 H   0  0  0  0  0  0  0  0  0  0  0  0
   36.2800   21.7610   31.6540 N   0  0  0  0  0  0  0  0  0  0  0  0
   37.5600   21.0800   31.6990 C   0  0  0  0  0  2  0  0  0  0  0  0
   37.4700   19.6420   31.3340 C   0  0  0  0  0  2  0  0  0  0  0  0
   36.4610   18.9600   32.2230 C   0  0  0  0  0  3  0  0  0  0  0  0
   36.8850   18.9270   33.2670 H   0  0  0  0  0  0  0  0  0  0  0  0
   35.1250   19.6420   32.1960 C   0  0  0  0  0  2  0  0  0  0  0  0
   35.0970   20.9710   31.5300 C   0  0  0  0  0  2  0  0  0  0  0  0
   38.2030   27.4430   35.5340 C   0  0  0  0  0  0  0  0  0  0  0  0
   37.3190   26.8440   34.6280 C   0  0  0  0  0  0  0  0  0  0  0  0
   37.8120   25.8720   33.7520 C   0  0  0  0  0  0  0  0  0  0  0  0
   39.1240   25.5590   33.8220 N   0  0  0  0  0  0  0  0  0  0  0  0
   39.9630   26.1530   34.7090 C   0  0  0  0  0  0  0  0  0  0  0  0
   39.4930   27.0960   35.5620 N   0  0  0  0  0  0  0  0  0  0  0  0
   37.8120   28.1860   36.2010 H   0  0  0  0  0  0  0  0  0  0  0  0
   36.2790   27.0870   34.5670 H   0  0  0  0  0  0  0  0  0  0  0  0
   41.0060   25.8340   34.6900 H   0  0  0  0  0  0  0  0  0  0  0  0
  1 18  1  0  0  0  0
  2  7  1  0  0  0  0
  2  1  2  0  0  0  0
  3  2  1  0  0  0  0
  4  3  2  0  0  0  0
  4  5  1  0  0  0  0
  5  6  2  0  0  0  0
  6  1  1  0  0  0  0
  8  3  1  0  0  0  0
  9 10  1  0  0  0  0
  9  5  1  0  0  0  0
 11 10  1  0  0  0  0
 11 12  1  0  0  0  0
 12 13  1  0  0  0  0
 14 12  1  0  0  0  0
 15  9  1  0  0  0  0
 15 14  1  0  0  0  0
 16 21  1  0  0  0  0
 16 22  1  0  0  0  0
 17 16  2  0  0  0  0
 18 19  2  0  0  0  0
 18 17  1  0  0  0  0
 19 20  1  0  0  0  0
 20 21  2  0  0  0  0
 23 17  1  0  0  0  0
 24 20  1  0  0  0  0
M  END
>  <minimizedAffinity>
-4.77244377

$$$$

 OpenBabel03272502223D

 24 26  0  0  0  0  0  0  0  0999 V2000
   38.1210   23.4420   34.6040 C   0  0  0  0  0  0  0  0  0  0  0  0
   38.0120   22.3250   33.8200 C   0  0  0  0  0  0  0  0  0  0  0  0
   37.7020   22.3520   32.4800 C   0  0  0  0  0  0  0  0  0  0  0  0
   37.4880   23.5310   31.8900 N   0  0  0  0  0  0  0  0  0  0  0  0
   37.5890   24.6500   32.6410 C   0  0  0  0  0  0  0  0  0  0  0  0
   37.8930   24.5880   33.9420 N   0  0  0  0  0  0  0  0  0  0  0  0
   38.1760   21.3380   34.2470 H   0  0  0  0  0  0  0  0  0  0  0  0
   37.6270   21.4280   31.8950 H   0  0  0  0  0  0  0  0  0  0  0  0
   37.3590   25.9000   32.0010 N   0  0  0  0  0  0  0  0  0  0  0  0
   36.5250   26.8890   32.6590 C   0  0  0  0  0  2  0  0  0  0  0  0
   36.1500   28.0210   31.7710 C   0  0  0  0  0  2  0  0  0  0  0  0
   37.3990   28.6520   31.2080 C   0  0  0  0  0  3  0  0  0  0  0  0
   37.9400   29.1650   32.0540 H   0  0  0  0  0  0  0  0  0  0  0  0
   38.2810   27.6530   30.5190 C   0  0  0  0  0  2  0  0  0  0  0  0
   37.9190   26.2270   30.7290 C   0  0  0  0  0  2  0  0  0  0  0  0
   39.8310   22.8540   37.9200 C   0  0  0  0  0  0  0  0  0  0  0  0
   39.6290   22.8410   36.5340 C   0  0  0  0  0  0  0  0  0  0  0  0
   38.4510   23.3930   36.0220 C   0  0  0  0  0  0  0  0  0  0  0  0
   37.5610   23.9150   36.8930 N   0  0  0  0  0  0  0  0  0  0  0  0
   37.7780   23.9180   38.2340 C   0  0  0  0  0  0  0  0  0  0  0  0
   38.9180   23.3840   38.7390 N   0  0  0  0  0  0  0  0  0  0  0  0
   40.7390   22.4280   38.3000 H   0  0  0  0  0  0  0  0  0  0  0  0
   40.3290   22.4290   35.8390 H   0  0  0  0  0  0  0  0  0  0  0  0
   37.0010   24.3620   38.8580 H   0  0  0  0  0  0  0  0  0  0  0  0
  1 18  1  0  0  0  0
  2  7  1  0  0  0  0
  2  1  2  0  0  0  0
  3  2  1  0  0  0  0
  4  3  2  0  0  0  0
  4  5  1  0  0  0  0
  5  6  2  0  0  0  0
  6  1  1  0  0  0  0
  8  3  1  0  0  0  0
  9  5  1  0  0  0  0
  9 10  1  0  0  0  0
 11 10  1  0  0  0  0
 12 11  1  0  0  0  0
 12 13  1  0  0  0  0
 14 15  1  0  0  0  0
 14 12  1  0  0  0  0
 15  9  1  0  0  0  0
 16 22  1  0  0  0  0
 16 21  1  0  0  0  0
 17 16  2  0  0  0  0
 18 17  1  0  0  0  0
 18 19  2  0  0  0  0
 19 20  1  0  0  0  0
 20 21  2  0  0  0  0
 20 24  1  0  0  0  0
 23 17  1  0  0  0  0
M  END
>  <minimizedAffinity>
-4.7544055

$$$$

 OpenBabel03272502223D

 24 26  0  0  0  0  0  0  0  0999 V2000
   38.1940   23.7230   34.7080 C   0  0  0  0  0  0  0  0  0  0  0  0
   38.0880   24.8850   33.9930 C   0  0  0  0  0  0  0  0  0  0  0  0
   37.8460   24.9380   32.6400 C   0  0  0  0  0  0  0  0  0  0  0  0
   37.7050   23.7950   31.9640 N   0  0  0  0  0  0  0  0  0  0  0  0
   37.8050   22.6320   32.6460 C   0  0  0  0  0  0  0  0  0  0  0  0
   38.0400   22.6170   33.9620 N   0  0  0  0  0  0  0  0  0  0  0  0
   38.1940   25.8460   34.4910 H   0  0  0  0  0  0  0  0  0  0  0  0
   37.7690   25.8960   32.1120 H   0  0  0  0  0  0  0  0  0  0  0  0
   37.6520   21.4200   31.9150 N   0  0  0  0  0  0  0  0  0  0  0  0
   38.5830   20.3320   32.1470 C   0  0  0  0  0  2  0  0  0  0  0  0
   38.4770   19.2460   31.1360 C   0  0  0  0  0  2  0  0  0  0  0  0
   37.0560   18.7440   31.0870 C   0  0  0  0  0  3  0  0  0  0  0  0
   36.8450   18.2060   32.0550 H   0  0  0  0  0  0  0  0  0  0  0  0
   36.0690   19.8470   30.8460 C   0  0  0  0  0  2  0  0  0  0  0  0
   36.6120   21.2270   30.9560 C   0  0  0  0  0  2  0  0  0  0  0  0
   38.0310   24.2540   38.4440 C   0  0  0  0  0  0  0  0  0  0  0  0
   37.6820   24.3670   37.0920 C   0  0  0  0  0  0  0  0  0  0  0  0
   38.4500   23.6880   36.1420 C   0  0  0  0  0  0  0  0  0  0  0  0
   39.4950   22.9520   36.5760 N   0  0  0  0  0  0  0  0  0  0  0  0
   39.8160   22.8560   37.8920 C   0  0  0  0  0  0  0  0  0  0  0  0
   39.0760   23.5110   38.8210 N   0  0  0  0  0  0  0  0  0  0  0  0
   37.4340   24.7800   39.1630 H   0  0  0  0  0  0  0  0  0  0  0  0
   36.8560   24.9490   36.7420 H   0  0  0  0  0  0  0  0  0  0  0  0
   40.6780   22.2370   38.1460 H   0  0  0  0  0  0  0  0  0  0  0  0
  1 18  1  0  0  0  0
  2  7  1  0  0  0  0
  2  1  1  0  0  0  0
  3  2  2  0  0  0  0
  4  3  1  0  0  0  0
  4  5  2  0  0  0  0
  5  6  1  0  0  0  0
  6  1  2  0  0  0  0
  8  3  1  0  0  0  0
  9 10  1  0  0  0  0
  9  5  1  0  0  0  0
 11 10  1  0  0  0  0
 12 11  1  0  0  0  0
 12 13  1  0  0  0  0
 14 15  1  0  0  0  0
 14 12  1  0  0  0  0
 15  9  1  0  0  0  0
 16 21  1  0  0  0  0
 16 22  1  0  0  0  0
 17 16  2  0  0  0  0
 18 19  2  0  0  0  0
 18 17  1  0  0  0  0
 19 20  1  0  0  0  0
 20 24  1  0  0  0  0
 20 21  2  0  0  0  0
 23 17  1  0  0  0  0
M  END
>  <minimizedAffinity>
-4.61295414

$$$$
