REMARK  Name = 
REMARK  2 active torsions:
REMARK  status: ('A' for Active; 'I' for Inactive)
REMARK    1  A    between atoms: C_1  and  C_16
REMARK    2  A    between atoms: C_3  and  C_4
REMARK                            x       y       z     vdW  Elec       q    Type
REMARK                         _______ _______ _______ _____ _____    ______ ____
ROOT
ATOM      1  C   UNL     1      37.542  32.070  48.498  0.00  0.00    +0.000 C 
ATOM      2  C   UNL     1      38.775  32.808  48.830  0.00  0.00    +0.000 C 
ATOM      3  C   UNL     1      38.919  31.646  47.915  0.00  0.00    +0.000 C 
ATOM      4  H   UNL     1      36.892  32.394  47.703  0.00  0.00    +0.000 HD
ATOM      5  H   UNL     1      39.114  32.672  49.912  0.00  0.00    +0.000 HD
ATOM      6  H   UNL     1      38.684  33.857  48.604  0.00  0.00    +0.000 HD
ATOM      7  H   UNL     1      39.058  30.589  48.093  0.00  0.00    +0.000 HD
ENDROOT
BRANCH   3   8
ATOM      8  C   UNL     1      39.286  32.100  46.550  0.00  0.00    +0.000 A 
ATOM      9  C   UNL     1      39.745  33.422  46.584  0.00  0.00    +0.000 A 
ATOM     10  C   UNL     1      40.228  34.038  45.448  0.00  0.00    +0.000 A 
ATOM     11  C   UNL     1      40.273  33.355  44.228  0.00  0.00    +0.000 A 
ATOM     12  C   UNL     1      39.816  32.056  44.222  0.00  0.00    +0.000 A 
ATOM     13  C   UNL     1      39.783  31.264  43.097  0.00  0.00    +0.000 A 
ATOM     14  C   UNL     1      39.318  29.966  43.067  0.00  0.00    +0.000 A 
ATOM     15  C   UNL     1      38.848  29.412  44.244  0.00  0.00    +0.000 A 
ATOM     16  C   UNL     1      38.870  30.184  45.384  0.00  0.00    +0.000 A 
ATOM     17  C   UNL     1      39.345  31.474  45.359  0.00  0.00    +0.000 A 
ATOM     18  H   UNL     1      39.868  34.195  47.313  0.00  0.00    +0.000 HD
ATOM     19  H   UNL     1      40.614  35.029  45.294  0.00  0.00    +0.000 HD
ATOM     20  H   UNL     1      40.615  33.681  43.254  0.00  0.00    +0.000 HD
ATOM     21  H   UNL     1      40.150  31.675  42.145  0.00  0.00    +0.000 HD
ATOM     22  H   UNL     1      39.316  29.389  42.150  0.00  0.00    +0.000 HD
ATOM     23  H   UNL     1      38.466  28.402  44.307  0.00  0.00    +0.000 HD
ATOM     24  H   UNL     1      38.490  29.721  46.313  0.00  0.00    +0.000 HD
ENDBRANCH   3   8
BRANCH   1  27
ATOM     25  C   UNL     1      35.284  29.582  50.211  0.00  0.00    +0.000 A 
ATOM     26  C   UNL     1      35.785  30.513  49.248  0.00  0.00    +0.000 A 
ATOM     27  C   UNL     1      37.007  31.106  49.486  0.00  0.00    +0.000 A 
ATOM     28  N   UNL     1      37.671  30.760  50.648  0.00  0.00    +0.000 NA
ATOM     29  C   UNL     1      37.174  29.887  51.524  0.00  0.00    +0.000 A 
ATOM     30  N   UNL     1      35.979  29.287  51.321  0.00  0.00    +0.000 NA
ATOM     31  H   UNL     1      34.325  29.142  49.987  0.00  0.00    +0.000 HD
ATOM     32  H   UNL     1      35.261  30.768  48.357  0.00  0.00    +0.000 HD
ATOM     33  N   UNL     1      37.900  29.564  52.706  0.00  0.00    +0.000 N 
ATOM     34  C   UNL     1      37.246  29.498  54.000  0.00  0.00    +0.000 C 
ATOM     35  C   UNL     1      38.095  28.626  54.898  0.00  0.00    +0.000 C 
ATOM     36  C   UNL     1      38.556  27.423  54.139  0.00  0.00    +0.000 C 
ATOM     37  H   UNL     1      37.661  26.961  53.634  0.00  0.00    +0.000 HD
ATOM     38  C   UNL     1      39.554  27.865  53.091  0.00  0.00    +0.000 C 
ATOM     39  C   UNL     1      39.324  29.290  52.648  0.00  0.00    +0.000 C 
ENDBRANCH   1  27
TORSDOF 2
