
 OpenBabel03272502533D

 25 27  0  0  0  0  0  0  0  0999 V2000
   38.5170   24.6560   36.1100 C   0  0  0  0  0  0  0  0  0  0  0  0
   37.9280   24.4870   37.3560 C   0  0  0  0  0  0  0  0  0  0  0  0
   38.4570   23.6110   38.2830 C   0  0  0  0  0  0  0  0  0  0  0  0
   39.5960   22.9250   37.8890 C   0  0  0  0  0  0  0  0  0  0  0  0
   40.1970   23.0830   36.6490 C   0  0  0  0  0  0  0  0  0  0  0  0
   39.6250   23.9590   35.7880 N   0  0  0  0  0  0  0  0  0  0  0  0
   37.0420   25.0700   37.5620 H   0  0  0  0  0  0  0  0  0  0  0  0
   37.9860   23.5000   39.2290 H   0  0  0  0  0  0  0  0  0  0  0  0
   39.9850   22.2410   38.6510 H   0  0  0  0  0  0  0  0  0  0  0  0
   41.3500   22.3350   36.3570 N   0  0  0  0  0  0  0  0  0  0  0  0
   41.6710   21.2070   37.2090 C   0  0  0  0  0  2  0  0  0  0  0  0
   43.0320   20.7060   36.7760 C   0  0  0  0  0  2  0  0  0  0  0  0
   42.9460   20.2740   35.3130 C   0  0  0  0  0  3  0  0  0  0  0  0
   42.2520   19.3940   35.2360 H   0  0  0  0  0  0  0  0  0  0  0  0
   42.4010   21.3560   34.4430 C   0  0  0  0  0  2  0  0  0  0  0  0
   42.2390   22.6250   35.2500 C   0  0  0  0  0  2  0  0  0  0  0  0
   37.0380   27.6840   34.6740 C   0  0  0  0  0  0  0  0  0  0  0  0
   36.8150   27.3210   33.3380 C   0  0  0  0  0  0  0  0  0  0  0  0
   37.1760   26.0390   32.9490 C   0  0  0  0  0  0  0  0  0  0  0  0
   37.7280   25.2010   33.8830 N   0  0  0  0  0  0  0  0  0  0  0  0
   37.9270   25.5910   35.1620 C   0  0  0  0  0  0  0  0  0  0  0  0
   37.5810   26.8190   35.5370 N   0  0  0  0  0  0  0  0  0  0  0  0
   36.7650   28.6780   35.0000 H   0  0  0  0  0  0  0  0  0  0  0  0
   36.3740   28.0220   32.6340 H   0  0  0  0  0  0  0  0  0  0  0  0
   37.0280   25.6960   31.9260 H   0  0  0  0  0  0  0  0  0  0  0  0
  1  2  1  0  0  0  0
  2  7  1  0  0  0  0
  2  3  2  0  0  0  0
  3  8  1  0  0  0  0
  4  3  1  0  0  0  0
  4  9  1  0  0  0  0
  5  4  2  0  0  0  0
  6  1  2  0  0  0  0
  6  5  1  0  0  0  0
 10  5  1  0  0  0  0
 10 11  1  0  0  0  0
 12 11  1  0  0  0  0
 13 12  1  0  0  0  0
 14 13  1  0  0  0  0
 15 16  1  0  0  0  0
 15 13  1  0  0  0  0
 16 10  1  0  0  0  0
 17 23  1  0  0  0  0
 17 22  1  0  0  0  0
 18 17  2  0  0  0  0
 19 18  1  0  0  0  0
 19 20  2  0  0  0  0
 20 21  1  0  0  0  0
 21 22  2  0  0  0  0
 21  1  1  0  0  0  0
 24 18  1  0  0  0  0
 25 19  1  0  0  0  0
M  END
>  <minimizedAffinity>
-5.06458426

$$$$

 OpenBabel03272502533D

 25 27  0  0  0  0  0  0  0  0999 V2000
   36.2260   22.8740   31.9130 C   0  0  0  0  0  0  0  0  0  0  0  0
   35.6030   23.6400   30.9360 C   0  0  0  0  0  0  0  0  0  0  0  0
   35.7060   25.0170   30.9360 C   0  0  0  0  0  0  0  0  0  0  0  0
   36.4590   25.5690   31.9600 C   0  0  0  0  0  0  0  0  0  0  0  0
   37.0880   24.8190   32.9420 C   0  0  0  0  0  0  0  0  0  0  0  0
   36.9450   23.4730   32.8820 N   0  0  0  0  0  0  0  0  0  0  0  0
   35.0390   23.1100   30.1830 H   0  0  0  0  0  0  0  0  0  0  0  0
   35.2190   25.5800   30.1770 H   0  0  0  0  0  0  0  0  0  0  0  0
   36.5180   26.6630   31.9260 H   0  0  0  0  0  0  0  0  0  0  0  0
   37.8270   25.4860   33.9340 N   0  0  0  0  0  0  0  0  0  0  0  0
   37.6370   26.9140   34.0870 C   0  0  0  0  0  2  0  0  0  0  0  0
   38.6700   27.3880   35.0870 C   0  0  0  0  0  2  0  0  0  0  0  0
   38.4310   26.6620   36.4110 C   0  0  0  0  0  3  0  0  0  0  0  0
   37.4350   26.9770   36.8210 H   0  0  0  0  0  0  0  0  0  0  0  0
   38.3990   25.1810   36.2370 C   0  0  0  0  0  2  0  0  0  0  0  0
   38.7710   24.8270   34.8150 C   0  0  0  0  0  2  0  0  0  0  0  0
   36.2670   19.4070   30.7300 C   0  0  0  0  0  0  0  0  0  0  0  0
   35.8230   18.6890   31.8500 C   0  0  0  0  0  0  0  0  0  0  0  0
   35.5150   19.4060   32.9970 C   0  0  0  0  0  0  0  0  0  0  0  0
   35.6600   20.7700   32.9750 N   0  0  0  0  0  0  0  0  0  0  0  0
   36.0920   21.4240   31.8750 C   0  0  0  0  0  0  0  0  0  0  0  0
   36.3870   20.7380   30.7740 N   0  0  0  0  0  0  0  0  0  0  0  0
   36.5140   18.8690   29.8250 H   0  0  0  0  0  0  0  0  0  0  0  0
   35.7250   17.6060   31.8170 H   0  0  0  0  0  0  0  0  0  0  0  0
   35.1660   18.9070   33.8990 H   0  0  0  0  0  0  0  0  0  0  0  0
  1  6  1  0  0  0  0
  2  3  1  0  0  0  0
  2  1  2  0  0  0  0
  3  4  2  0  0  0  0
  4  5  1  0  0  0  0
  5 10  1  0  0  0  0
  6  5  2  0  0  0  0
  7  2  1  0  0  0  0
  8  3  1  0  0  0  0
  9  4  1  0  0  0  0
 10 11  1  0  0  0  0
 10 16  1  0  0  0  0
 11 12  1  0  0  0  0
 12 13  1  0  0  0  0
 13 14  1  0  0  0  0
 15 13  1  0  0  0  0
 16 15  1  0  0  0  0
 17 22  2  0  0  0  0
 17 18  1  0  0  0  0
 18 19  2  0  0  0  0
 19 25  1  0  0  0  0
 20 19  1  0  0  0  0
 21  1  1  0  0  0  0
 21 20  2  0  0  0  0
 22 21  1  0  0  0  0
 23 17  1  0  0  0  0
 24 18  1  0  0  0  0
M  END
>  <minimizedAffinity>
-5.03239536

$$$$

 OpenBabel03272502533D

 25 27  0  0  0  0  0  0  0  0999 V2000
   38.0550   23.8460   34.6650 C   0  0  0  0  0  0  0  0  0  0  0  0
   37.9920   22.7410   33.8250 C   0  0  0  0  0  0  0  0  0  0  0  0
   37.6550   22.8760   32.4930 C   0  0  0  0  0  0  0  0  0  0  0  0
   37.3890   24.1660   32.0610 C   0  0  0  0  0  0  0  0  0  0  0  0
   37.4480   25.2790   32.8860 C   0  0  0  0  0  0  0  0  0  0  0  0
   37.7850   25.0750   34.1820 N   0  0  0  0  0  0  0  0  0  0  0  0
   38.2180   21.7800   34.2630 H   0  0  0  0  0  0  0  0  0  0  0  0
   37.6140   22.0140   31.8720 H   0  0  0  0  0  0  0  0  0  0  0  0
   37.1270   24.2320   31.0000 H   0  0  0  0  0  0  0  0  0  0  0  0
   37.1580   26.5410   32.3410 N   0  0  0  0  0  0  0  0  0  0  0  0
   36.4990   26.5960   31.0510 C   0  0  0  0  0  2  0  0  0  0  0  0
   36.4720   28.0520   30.6350 C   0  0  0  0  0  2  0  0  0  0  0  0
   35.6860   28.8400   31.6820 C   0  0  0  0  0  3  0  0  0  0  0  0
   34.6180   28.4940   31.6680 H   0  0  0  0  0  0  0  0  0  0  0  0
   36.2140   28.6190   33.0590 C   0  0  0  0  0  2  0  0  0  0  0  0
   37.4800   27.7940   32.9930 C   0  0  0  0  0  2  0  0  0  0  0  0
   39.8280   22.7780   37.6870 C   0  0  0  0  0  0  0  0  0  0  0  0
   39.0550   23.3330   38.7170 C   0  0  0  0  0  0  0  0  0  0  0  0
   37.9330   24.0670   38.3580 C   0  0  0  0  0  0  0  0  0  0  0  0
   37.6420   24.2100   37.0260 N   0  0  0  0  0  0  0  0  0  0  0  0
   38.4150   23.6590   36.0630 C   0  0  0  0  0  0  0  0  0  0  0  0
   39.4900   22.9540   36.4050 N   0  0  0  0  0  0  0  0  0  0  0  0
   40.7070   22.2020   37.9430 H   0  0  0  0  0  0  0  0  0  0  0  0
   39.3270   23.1910   39.7600 H   0  0  0  0  0  0  0  0  0  0  0  0
   37.2920   24.5240   39.1100 H   0  0  0  0  0  0  0  0  0  0  0  0
  1 21  1  0  0  0  0
  2  7  1  0  0  0  0
  2  1  2  0  0  0  0
  3  2  1  0  0  0  0
  4  3  2  0  0  0  0
  4  5  1  0  0  0  0
  5  6  2  0  0  0  0
  6  1  1  0  0  0  0
  8  3  1  0  0  0  0
  9  4  1  0  0  0  0
 10  5  1  0  0  0  0
 10 16  1  0  0  0  0
 11 10  1  0  0  0  0
 12 11  1  0  0  0  0
 12 13  1  0  0  0  0
 13 15  1  0  0  0  0
 14 13  1  0  0  0  0
 16 15  1  0  0  0  0
 17 23  1  0  0  0  0
 17 18  1  0  0  0  0
 18 24  1  0  0  0  0
 19 18  2  0  0  0  0
 19 25  1  0  0  0  0
 20 19  1  0  0  0  0
 21 22  1  0  0  0  0
 21 20  2  0  0  0  0
 22 17  2  0  0  0  0
M  END
>  <minimizedAffinity>
-4.98426914

$$$$

 OpenBabel03272502533D

 25 27  0  0  0  0  0  0  0  0999 V2000
   37.7280   26.9970   33.6240 C   0  0  0  0  0  0  0  0  0  0  0  0
   38.7730   26.9580   32.7090 C   0  0  0  0  0  0  0  0  0  0  0  0
   39.8070   26.0530   32.8460 C   0  0  0  0  0  0  0  0  0  0  0  0
   39.7300   25.2040   33.9390 C   0  0  0  0  0  0  0  0  0  0  0  0
   38.6940   25.2300   34.8600 C   0  0  0  0  0  0  0  0  0  0  0  0
   37.7120   26.1430   34.6660 N   0  0  0  0  0  0  0  0  0  0  0  0
   38.7370   27.6650   31.8940 H   0  0  0  0  0  0  0  0  0  0  0  0
   40.5950   26.0440   32.1320 H   0  0  0  0  0  0  0  0  0  0  0  0
   40.5670   24.5010   34.0120 H   0  0  0  0  0  0  0  0  0  0  0  0
   38.7190   24.3210   35.9310 N   0  0  0  0  0  0  0  0  0  0  0  0
   39.9610   23.6300   36.2170 C   0  0  0  0  0  2  0  0  0  0  0  0
   39.6550   22.6030   37.2860 C   0  0  0  0  0  2  0  0  0  0  0  0
   39.1400   23.3330   38.5260 C   0  0  0  0  0  3  0  0  0  0  0  0
   39.9670   23.9720   38.9380 H   0  0  0  0  0  0  0  0  0  0  0  0
   37.9920   24.2300   38.2090 C   0  0  0  0  0  2  0  0  0  0  0  0
   37.5730   24.0310   36.7690 C   0  0  0  0  0  2  0  0  0  0  0  0
   35.1450   29.0750   32.0660 C   0  0  0  0  0  0  0  0  0  0  0  0
   34.6380   29.8090   33.1480 C   0  0  0  0  0  0  0  0  0  0  0  0
   35.1920   29.5800   34.3990 C   0  0  0  0  0  0  0  0  0  0  0  0
   36.1970   28.6550   34.5110 N   0  0  0  0  0  0  0  0  0  0  0  0
   36.6570   27.9670   33.4420 C   0  0  0  0  0  0  0  0  0  0  0  0
   36.1280   28.1870   32.2410 N   0  0  0  0  0  0  0  0  0  0  0  0
   34.7290   29.2370   31.0800 H   0  0  0  0  0  0  0  0  0  0  0  0
   33.8380   30.5320   33.0070 H   0  0  0  0  0  0  0  0  0  0  0  0
   34.8410   30.1170   35.2790 H   0  0  0  0  0  0  0  0  0  0  0  0
  1  6  1  0  0  0  0
  2  3  1  0  0  0  0
  2  1  2  0  0  0  0
  3  4  2  0  0  0  0
  4  9  1  0  0  0  0
  4  5  1  0  0  0  0
  5 10  1  0  0  0  0
  6  5  2  0  0  0  0
  7  2  1  0  0  0  0
  8  3  1  0  0  0  0
 10 11  1  0  0  0  0
 10 16  1  0  0  0  0
 11 12  1  0  0  0  0
 12 13  1  0  0  0  0
 13 14  1  0  0  0  0
 15 13  1  0  0  0  0
 16 15  1  0  0  0  0
 17 22  2  0  0  0  0
 17 18  1  0  0  0  0
 18 19  2  0  0  0  0
 19 20  1  0  0  0  0
 19 25  1  0  0  0  0
 21  1  1  0  0  0  0
 21 20  2  0  0  0  0
 22 21  1  0  0  0  0
 23 17  1  0  0  0  0
 24 18  1  0  0  0  0
M  END
>  <minimizedAffinity>
-4.95563316

$$$$

 OpenBabel03272502533D

 25 27  0  0  0  0  0  0  0  0999 V2000
   39.9720   22.9140   36.6020 C   0  0  0  0  0  0  0  0  0  0  0  0
   39.3350   23.0350   37.8300 C   0  0  0  0  0  0  0  0  0  0  0  0
   38.2940   23.9240   38.0100 C   0  0  0  0  0  0  0  0  0  0  0  0
   37.9360   24.6720   36.8990 C   0  0  0  0  0  0  0  0  0  0  0  0
   38.5600   24.5630   35.6660 C   0  0  0  0  0  0  0  0  0  0  0  0
   39.5750   23.6710   35.5600 N   0  0  0  0  0  0  0  0  0  0  0  0
   39.6930   22.4050   38.6310 H   0  0  0  0  0  0  0  0  0  0  0  0
   37.8240   23.9970   38.9600 H   0  0  0  0  0  0  0  0  0  0  0  0
   37.1060   25.3640   37.0810 H   0  0  0  0  0  0  0  0  0  0  0  0
   38.1140   25.3730   34.6080 N   0  0  0  0  0  0  0  0  0  0  0  0
   37.2620   26.5020   34.9210 C   0  0  0  0  0  2  0  0  0  0  0  0
   36.7980   27.0790   33.6000 C   0  0  0  0  0  2  0  0  0  0  0  0
   38.0250   27.5270   32.8080 C   0  0  0  0  0  3  0  0  0  0  0  0
   38.5220   28.3710   33.3580 H   0  0  0  0  0  0  0  0  0  0  0  0
   39.0270   26.4310   32.6660 C   0  0  0  0  0  2  0  0  0  0  0  0
   38.4570   25.1440   33.2180 C   0  0  0  0  0  2  0  0  0  0  0  0
   42.5870   20.8230   35.1170 C   0  0  0  0  0  0  0  0  0  0  0  0
   43.1290   20.1620   36.2290 C   0  0  0  0  0  0  0  0  0  0  0  0
   42.5880   20.4450   37.4750 C   0  0  0  0  0  0  0  0  0  0  0  0
   41.5590   21.3480   37.5530 N   0  0  0  0  0  0  0  0  0  0  0  0
   41.0660   21.9640   36.4560 C   0  0  0  0  0  0  0  0  0  0  0  0
   41.5830   21.6940   35.2600 N   0  0  0  0  0  0  0  0  0  0  0  0
   42.9930   20.6180   34.1350 H   0  0  0  0  0  0  0  0  0  0  0  0
   43.9460   19.4530   36.1150 H   0  0  0  0  0  0  0  0  0  0  0  0
   42.9650   19.9650   38.3770 H   0  0  0  0  0  0  0  0  0  0  0  0
  1  2  1  0  0  0  0
  2  3  2  0  0  0  0
  2  7  1  0  0  0  0
  3  8  1  0  0  0  0
  4  9  1  0  0  0  0
  4  3  1  0  0  0  0
  5  4  2  0  0  0  0
  6  5  1  0  0  0  0
  6  1  2  0  0  0  0
 10 11  1  0  0  0  0
 10  5  1  0  0  0  0
 12 11  1  0  0  0  0
 13 14  1  0  0  0  0
 13 12  1  0  0  0  0
 15 13  1  0  0  0  0
 15 16  1  0  0  0  0
 16 10  1  0  0  0  0
 17 22  2  0  0  0  0
 17 18  1  0  0  0  0
 18 19  2  0  0  0  0
 19 20  1  0  0  0  0
 19 25  1  0  0  0  0
 21  1  1  0  0  0  0
 21 20  2  0  0  0  0
 22 21  1  0  0  0  0
 23 17  1  0  0  0  0
 24 18  1  0  0  0  0
M  END
>  <minimizedAffinity>
-4.95246649

$$$$

 OpenBabel03272502533D

 25 27  0  0  0  0  0  0  0  0999 V2000
   38.0530   24.7930   34.6660 C   0  0  0  0  0  0  0  0  0  0  0  0
   38.3900   24.0500   33.5420 C   0  0  0  0  0  0  0  0  0  0  0  0
   38.1040   24.5090   32.2710 C   0  0  0  0  0  0  0  0  0  0  0  0
   37.4690   25.7400   32.1990 C   0  0  0  0  0  0  0  0  0  0  0  0
   37.1260   26.4940   33.3110 C   0  0  0  0  0  0  0  0  0  0  0  0
   37.4370   25.9830   34.5270 N   0  0  0  0  0  0  0  0  0  0  0  0
   38.8830   23.1040   33.7100 H   0  0  0  0  0  0  0  0  0  0  0  0
   38.3730   23.9220   31.4270 H   0  0  0  0  0  0  0  0  0  0  0  0
   37.2600   26.0700   31.1750 H   0  0  0  0  0  0  0  0  0  0  0  0
   36.4840   27.7280   33.1190 N   0  0  0  0  0  0  0  0  0  0  0  0
   35.9160   28.0110   31.8160 C   0  0  0  0  0  2  0  0  0  0  0  0
   35.4540   29.4520   31.8440 C   0  0  0  0  0  2  0  0  0  0  0  0
   34.4010   29.6040   32.9400 C   0  0  0  0  0  3  0  0  0  0  0  0
   33.5000   28.9940   32.6620 H   0  0  0  0  0  0  0  0  0  0  0  0
   34.8930   29.1050   34.2580 C   0  0  0  0  0  2  0  0  0  0  0  0
   36.3560   28.7390   34.1500 C   0  0  0  0  0  2  0  0  0  0  0  0
   37.9680   24.1740   38.2750 C   0  0  0  0  0  0  0  0  0  0  0  0
   39.0170   23.2630   38.4620 C   0  0  0  0  0  0  0  0  0  0  0  0
   39.7410   22.8740   37.3440 C   0  0  0  0  0  0  0  0  0  0  0  0
   39.3940   23.3960   36.1250 N   0  0  0  0  0  0  0  0  0  0  0  0
   38.3740   24.2720   35.9870 C   0  0  0  0  0  0  0  0  0  0  0  0
   37.6800   24.6480   37.0590 N   0  0  0  0  0  0  0  0  0  0  0  0
   37.3900   24.4920   39.1330 H   0  0  0  0  0  0  0  0  0  0  0  0
   39.2530   22.8770   39.4510 H   0  0  0  0  0  0  0  0  0  0  0  0
   40.5670   22.1690   37.4220 H   0  0  0  0  0  0  0  0  0  0  0  0
  1 21  1  0  0  0  0
  2  7  1  0  0  0  0
  2  1  2  0  0  0  0
  3  2  1  0  0  0  0
  4  3  2  0  0  0  0
  4  5  1  0  0  0  0
  5  6  2  0  0  0  0
  6  1  1  0  0  0  0
  8  3  1  0  0  0  0
  9  4  1  0  0  0  0
 10  5  1  0  0  0  0
 10 16  1  0  0  0  0
 11 12  1  0  0  0  0
 11 10  1  0  0  0  0
 12 13  1  0  0  0  0
 13 15  1  0  0  0  0
 14 13  1  0  0  0  0
 16 15  1  0  0  0  0
 17 18  1  0  0  0  0
 17 23  1  0  0  0  0
 18 24  1  0  0  0  0
 19 25  1  0  0  0  0
 19 18  2  0  0  0  0
 20 19  1  0  0  0  0
 21 20  2  0  0  0  0
 21 22  1  0  0  0  0
 22 17  2  0  0  0  0
M  END
>  <minimizedAffinity>
-4.90895987

$$$$

 OpenBabel03272502533D

 25 27  0  0  0  0  0  0  0  0999 V2000
   39.1850   24.1210   35.0700 C   0  0  0  0  0  0  0  0  0  0  0  0
   38.9980   23.9310   36.4330 C   0  0  0  0  0  0  0  0  0  0  0  0
   38.1490   22.9500   36.9070 C   0  0  0  0  0  0  0  0  0  0  0  0
   37.5090   22.1850   35.9440 C   0  0  0  0  0  0  0  0  0  0  0  0
   37.6850   22.3610   34.5800 C   0  0  0  0  0  0  0  0  0  0  0  0
   38.5330   23.3420   34.1850 N   0  0  0  0  0  0  0  0  0  0  0  0
   39.5440   24.5830   37.0990 H   0  0  0  0  0  0  0  0  0  0  0  0
   38.0230   22.8250   37.9550 H   0  0  0  0  0  0  0  0  0  0  0  0
   36.8450   21.4180   36.3580 H   0  0  0  0  0  0  0  0  0  0  0  0
   36.9840   21.5270   33.6940 N   0  0  0  0  0  0  0  0  0  0  0  0
   35.8760   20.7510   34.2130 C   0  0  0  0  0  2  0  0  0  0  0  0
   35.4290   19.8270   33.1000 C   0  0  0  0  0  2  0  0  0  0  0  0
   34.9870   20.6790   31.9110 C   0  0  0  0  0  3  0  0  0  0  0  0
   34.0790   21.2700   32.2070 H   0  0  0  0  0  0  0  0  0  0  0  0
   36.0410   21.6500   31.4980 C   0  0  0  0  0  2  0  0  0  0  0  0
   37.3060   21.3940   32.2870 C   0  0  0  0  0  2  0  0  0  0  0  0
   40.4590   27.1890   33.5250 C   0  0  0  0  0  0  0  0  0  0  0  0
   41.8370   27.1150   33.7710 C   0  0  0  0  0  0  0  0  0  0  0  0
   42.3100   26.0110   34.4660 C   0  0  0  0  0  0  0  0  0  0  0  0
   41.4120   25.0570   34.8720 N   0  0  0  0  0  0  0  0  0  0  0  0
   40.0900   25.1670   34.6140 C   0  0  0  0  0  0  0  0  0  0  0  0
   39.6340   26.2250   33.9480 N   0  0  0  0  0  0  0  0  0  0  0  0
   40.0670   28.0410   32.9860 H   0  0  0  0  0  0  0  0  0  0  0  0
   42.5090   27.8980   33.4290 H   0  0  0  0  0  0  0  0  0  0  0  0
   43.3700   25.8950   34.6890 H   0  0  0  0  0  0  0  0  0  0  0  0
  1  2  1  0  0  0  0
  2  3  2  0  0  0  0
  2  7  1  0  0  0  0
  3  8  1  0  0  0  0
  4  9  1  0  0  0  0
  4  3  1  0  0  0  0
  5  4  2  0  0  0  0
  6  5  1  0  0  0  0
  6  1  2  0  0  0  0
 10 11  1  0  0  0  0
 10  5  1  0  0  0  0
 12 11  1  0  0  0  0
 13 14  1  0  0  0  0
 13 12  1  0  0  0  0
 15 13  1  0  0  0  0
 15 16  1  0  0  0  0
 16 10  1  0  0  0  0
 17 18  2  0  0  0  0
 17 22  1  0  0  0  0
 18 19  1  0  0  0  0
 19 25  1  0  0  0  0
 19 20  2  0  0  0  0
 21 20  1  0  0  0  0
 21  1  1  0  0  0  0
 22 21  2  0  0  0  0
 23 17  1  0  0  0  0
 24 18  1  0  0  0  0
M  END
>  <minimizedAffinity>
-4.90080738

$$$$

 OpenBabel03272502533D

 25 27  0  0  0  0  0  0  0  0999 V2000
   37.1970   25.3800   31.8460 C   0  0  0  0  0  0  0  0  0  0  0  0
   38.1950   25.5200   30.8900 C   0  0  0  0  0  0  0  0  0  0  0  0
   38.6060   24.4470   30.1260 C   0  0  0  0  0  0  0  0  0  0  0  0
   37.9660   23.2430   30.3760 C   0  0  0  0  0  0  0  0  0  0  0  0
   36.9680   23.0860   31.3260 C   0  0  0  0  0  0  0  0  0  0  0  0
   36.6130   24.1820   32.0400 N   0  0  0  0  0  0  0  0  0  0  0  0
   38.6290   26.5020   30.7760 H   0  0  0  0  0  0  0  0  0  0  0  0
   39.3720   24.5800   29.4010 H   0  0  0  0  0  0  0  0  0  0  0  0
   38.3190   22.4160   29.7500 H   0  0  0  0  0  0  0  0  0  0  0  0
   36.3870   21.8180   31.4940 N   0  0  0  0  0  0  0  0  0  0  0  0
   37.0640   20.6720   30.9200 C   0  0  0  0  0  2  0  0  0  0  0  0
   36.1420   19.4850   31.0990 C   0  0  0  0  0  2  0  0  0  0  0  0
   35.8980   19.2810   32.5930 C   0  0  0  0  0  3  0  0  0  0  0  0
   36.8690   18.9960   33.0820 H   0  0  0  0  0  0  0  0  0  0  0  0
   35.4090   20.5250   33.2540 C   0  0  0  0  0  2  0  0  0  0  0  0
   35.1490   21.5880   32.2100 C   0  0  0  0  0  2  0  0  0  0  0  0
   36.7940   27.7280   34.6290 C   0  0  0  0  0  0  0  0  0  0  0  0
   36.0040   28.7430   34.0700 C   0  0  0  0  0  0  0  0  0  0  0  0
   35.6210   28.6070   32.7440 C   0  0  0  0  0  0  0  0  0  0  0  0
   36.0310   27.4950   32.0540 N   0  0  0  0  0  0  0  0  0  0  0  0
   36.7930   26.5390   32.6300 C   0  0  0  0  0  0  0  0  0  0  0  0
   37.1610   26.6680   33.9020 N   0  0  0  0  0  0  0  0  0  0  0  0
   37.1050   27.8130   35.6620 H   0  0  0  0  0  0  0  0  0  0  0  0
   35.7050   29.6070   34.6590 H   0  0  0  0  0  0  0  0  0  0  0  0
   35.0080   29.3610   32.2520 H   0  0  0  0  0  0  0  0  0  0  0  0
  1  6  1  0  0  0  0
  1 21  1  0  0  0  0
  2  1  2  0  0  0  0
  3  4  2  0  0  0  0
  3  2  1  0  0  0  0
  4  5  1  0  0  0  0
  5 10  1  0  0  0  0
  5  6  2  0  0  0  0
  7  2  1  0  0  0  0
  8  3  1  0  0  0  0
  9  4  1  0  0  0  0
 10 16  1  0  0  0  0
 11 12  1  0  0  0  0
 11 10  1  0  0  0  0
 12 13  1  0  0  0  0
 13 14  1  0  0  0  0
 13 15  1  0  0  0  0
 16 15  1  0  0  0  0
 17 23  1  0  0  0  0
 18 17  1  0  0  0  0
 18 24  1  0  0  0  0
 19 18  2  0  0  0  0
 20 21  2  0  0  0  0
 20 19  1  0  0  0  0
 21 22  1  0  0  0  0
 22 17  2  0  0  0  0
 25 19  1  0  0  0  0
M  END
>  <minimizedAffinity>
-4.89348936

$$$$

 OpenBabel03272502533D

 25 27  0  0  0  0  0  0  0  0999 V2000
   34.5030   29.8020   34.0160 C   0  0  0  0  0  0  0  0  0  0  0  0
   34.3680   30.1390   32.6760 C   0  0  0  0  0  0  0  0  0  0  0  0
   35.2270   29.6310   31.7220 C   0  0  0  0  0  0  0  0  0  0  0  0
   36.2160   28.7770   32.1890 C   0  0  0  0  0  0  0  0  0  0  0  0
   36.3640   28.4310   33.5230 C   0  0  0  0  0  0  0  0  0  0  0  0
   35.4850   28.9660   34.4050 N   0  0  0  0  0  0  0  0  0  0  0  0
   33.5640   30.8130   32.4180 H   0  0  0  0  0  0  0  0  0  0  0  0
   35.1030   29.9040   30.7030 H   0  0  0  0  0  0  0  0  0  0  0  0
   36.8770   28.3950   31.4040 H   0  0  0  0  0  0  0  0  0  0  0  0
   37.4030   27.5560   33.8840 N   0  0  0  0  0  0  0  0  0  0  0  0
   38.4620   27.3160   32.9240 C   0  0  0  0  0  2  0  0  0  0  0  0
   39.3320   26.2190   33.4980 C   0  0  0  0  0  2  0  0  0  0  0  0
   39.9050   26.7020   34.8300 C   0  0  0  0  0  3  0  0  0  0  0  0
   40.5890   27.5720   34.6360 H   0  0  0  0  0  0  0  0  0  0  0  0
   38.8360   27.1690   35.7600 C   0  0  0  0  0  2  0  0  0  0  0  0
   37.4780   26.8780   35.1620 C   0  0  0  0  0  2  0  0  0  0  0  0
   31.4050   30.6560   35.7740 C   0  0  0  0  0  0  0  0  0  0  0  0
   31.8580   31.4350   36.8480 C   0  0  0  0  0  0  0  0  0  0  0  0
   33.2240   31.6570   36.9540 C   0  0  0  0  0  0  0  0  0  0  0  0
   34.0520   31.1060   36.0090 N   0  0  0  0  0  0  0  0  0  0  0  0
   33.5740   30.3600   34.9890 C   0  0  0  0  0  0  0  0  0  0  0  0
   32.2640   30.1470   34.8860 N   0  0  0  0  0  0  0  0  0  0  0  0
   30.3440   30.4700   35.6720 H   0  0  0  0  0  0  0  0  0  0  0  0
   31.1610   31.8500   37.5720 H   0  0  0  0  0  0  0  0  0  0  0  0
   33.6390   32.2530   37.7650 H   0  0  0  0  0  0  0  0  0  0  0  0
  1  6  1  0  0  0  0
  1 21  1  0  0  0  0
  2  1  2  0  0  0  0
  3  4  2  0  0  0  0
  3  2  1  0  0  0  0
  4  5  1  0  0  0  0
  5 10  1  0  0  0  0
  5  6  2  0  0  0  0
  7  2  1  0  0  0  0
  8  3  1  0  0  0  0
  9  4  1  0  0  0  0
 10 16  1  0  0  0  0
 11 12  1  0  0  0  0
 11 10  1  0  0  0  0
 12 13  1  0  0  0  0
 13 15  1  0  0  0  0
 14 13  1  0  0  0  0
 16 15  1  0  0  0  0
 17 18  1  0  0  0  0
 18 19  2  0  0  0  0
 18 24  1  0  0  0  0
 19 25  1  0  0  0  0
 20 19  1  0  0  0  0
 21 20  2  0  0  0  0
 22 21  1  0  0  0  0
 22 17  2  0  0  0  0
 23 17  1  0  0  0  0
M  END
>  <minimizedAffinity>
-4.88019419

$$$$
