
 OpenBabel03272510003D

 19 20  0  0  0  0  0  0  0  0999 V2000
   37.8600   32.1320   49.7970 C   0  0  0  0  0  0  0  0  0  0  0  0
   38.5580   32.2070   48.5920 C   0  0  0  0  0  0  0  0  0  0  0  0
   38.0030   31.5890   47.4740 C   0  0  0  0  0  0  0  0  0  0  0  0
   36.8140   30.9500   47.6220 N   0  0  0  0  0  0  0  0  0  0  0  0
   36.1730   30.8990   48.7950 C   0  0  0  0  0  0  0  0  0  0  0  0
   36.6940   31.4870   49.8750 N   0  0  0  0  0  0  0  0  0  0  0  0
   38.3700   32.6400   50.6000 H   0  0  0  0  0  0  0  0  0  0  0  0
   39.4890   32.6920   48.4170 H   0  0  0  0  0  0  0  0  0  0  0  0
   38.5380   31.5400   46.1560 N   0  0  0  0  0  0  0  0  0  0  0  0
   38.2180   32.4350   45.0900 C   0  0  0  0  0  2  0  0  0  0  0  0
   39.3910   33.1140   44.4610 C   0  0  0  0  0  2  0  0  0  0  0  0
   40.4530   32.1150   44.0610 C   0  0  0  0  0  3  0  0  0  0  0  0
   41.3270   32.5990   43.6280 H   0  0  0  0  0  0  0  0  0  0  0  0
   40.7770   31.3280   45.3310 C   0  0  0  0  0  2  0  0  0  0  0  0
   39.4960   30.5780   45.6630 C   0  0  0  0  0  2  0  0  0  0  0  0
   34.8740   30.1780   48.8730 C   0  0  0  0  0  0  0  0  0  0  0  0
   34.1960   30.3930   50.0480 F   0  0  0  0  0  0  0  0  0  0  0  0
   34.0200   30.5800   47.8390 F   0  0  0  0  0  0  0  0  0  0  0  0
   35.0040   28.8120   48.7100 F   0  0  0  0  0  0  0  0  0  0  0  0
  1  6  1  0  0  0  0
  1  7  1  0  0  0  0
  2  1  2  0  0  0  0
  3  4  2  0  0  0  0
  3  2  1  0  0  0  0
  4  5  1  0  0  0  0
  5 16  1  0  0  0  0
  5  6  2  0  0  0  0
  8  2  1  0  0  0  0
  9  3  1  0  0  0  0
 10  9  1  0  0  0  0
 11 10  1  0  0  0  0
 12 11  1  0  0  0  0
 12 14  1  0  0  0  0
 13 12  1  0  0  0  0
 14 15  1  0  0  0  0
 15  9  1  0  0  0  0
 16 17  1  0  0  0  0
 18 16  1  0  0  0  0
 19 16  1  0  0  0  0
M  END
>  <minimizedAffinity>
-5.49017

>  <minimizedRMSD>
1.84590983

$$$$
