
     RDKit          3D

 28 29  0  0  0  0  0  0  0  0999 V2000
   38.3011   31.2392   50.1222 C   0  0  0  0  0  0  0  0  0  0  0  0
   38.2930   31.6096   48.7780 C   0  0  0  0  0  0  0  0  0  0  0  0
   37.2074   31.2220   47.9976 C   0  0  0  0  0  0  0  0  0  0  0  0
   36.2178   30.5049   48.5906 N   0  0  0  0  0  0  0  0  0  0  0  0
   36.2602   30.1675   49.8850 C   0  0  0  0  0  0  0  0  0  0  0  0
   37.2956   30.5327   50.6453 N   0  0  0  0  0  0  0  0  0  0  0  0
   35.1355   29.3803   50.4592 C   0  0  0  0  0  0  0  0  0  0  0  0
   35.2720   29.1266   51.8021 F   0  0  0  0  0  0  0  0  0  0  0  0
   33.9217   30.0598   50.3009 F   0  0  0  0  0  0  0  0  0  0  0  0
   34.9447   28.1694   49.8230 F   0  0  0  0  0  0  0  0  0  0  0  0
   39.1814   31.5858   50.6394 H   0  0  0  0  0  0  0  0  0  0  0  0
   39.0362   32.1686   48.2598 H   0  0  0  0  0  0  0  0  0  0  0  0
   36.9930   31.4877   46.6163 N   0  0  0  0  0  0  0  0  0  0  0  0
   37.6966   32.4520   45.8307 C   0  0  0  0  0  0  0  0  0  0  0  0
   38.3446   31.9125   44.5980 C   0  0  0  0  0  0  0  0  0  0  0  0
   37.3639   31.1150   43.7673 C   0  0  0  0  0  0  0  0  0  0  0  0
   37.8298   30.6913   42.8806 H   0  0  0  0  0  0  0  0  0  0  0  0
   36.7977   30.0512   44.7090 C   0  0  0  0  0  0  0  0  0  0  0  0
   36.0287   30.8321   45.7646 C   0  0  0  0  0  0  0  0  0  0  0  0
   38.5297   32.9175   46.4321 H   0  0  0  0  0  0  0  0  0  0  0  0
   37.0609   33.3372   45.5443 H   0  0  0  0  0  0  0  0  0  0  0  0
   39.1693   31.2131   44.8487 H   0  0  0  0  0  0  0  0  0  0  0  0
   38.7416   32.7346   44.0048 H   0  0  0  0  0  0  0  0  0  0  0  0
   36.4859   31.7217   43.4647 H   0  0  0  0  0  0  0  0  0  0  0  0
   36.1356   29.3400   44.2166 H   0  0  0  0  0  0  0  0  0  0  0  0
   37.6738   29.5570   45.1656 H   0  0  0  0  0  0  0  0  0  0  0  0
   35.3803   31.5581   45.2308 H   0  0  0  0  0  0  0  0  0  0  0  0
   35.4159   30.1148   46.3284 H   0  0  0  0  0  0  0  0  0  0  0  0
  1  6  2  0
  2  1  1  0
  3  4  1  0
  3  2  2  0
  4  5  2  0
  5  7  1  0
  5  6  1  0
  7  8  1  0
  9  7  1  0
 10  7  1  0
  1 11  1  0
  2 12  1  0
 13 14  1  0
 14 15  1  0
 15 16  1  0
 16 17  1  0
 16 18  1  0
 18 19  1  0
 19 13  1  0
 14 20  1  0
 14 21  1  0
 15 22  1  0
 15 23  1  0
 16 24  1  0
 18 25  1  0
 18 26  1  0
 19 27  1  0
 19 28  1  0
  3 13  1  0
M  ISO  3  11  14  12  14  17  15
M  END
>  <DihAtoms>  (1) 
3,2,12,13

>  <DihDeg>  (1) 
0.01884235541995465

$$$$
