
     RDKit          3D

 28 29  0  0  0  0  0  0  0  0999 V2000
   38.3011   31.2392   50.1222 C   0  0  0  0  0  0  0  0  0  0  0  0
   38.2930   31.6096   48.7780 C   0  0  0  0  0  0  0  0  0  0  0  0
   37.2074   31.2220   47.9976 C   0  0  0  0  0  0  0  0  0  0  0  0
   36.2178   30.5049   48.5906 N   0  0  0  0  0  0  0  0  0  0  0  0
   36.2602   30.1675   49.8850 C   0  0  0  0  0  0  0  0  0  0  0  0
   37.2956   30.5327   50.6453 N   0  0  0  0  0  0  0  0  0  0  0  0
   35.1355   29.3803   50.4592 C   0  0  0  0  0  0  0  0  0  0  0  0
   35.2720   29.1266   51.8021 F   0  0  0  0  0  0  0  0  0  0  0  0
   33.9217   30.0598   50.3009 F   0  0  0  0  0  0  0  0  0  0  0  0
   34.9447   28.1694   49.8230 F   0  0  0  0  0  0  0  0  0  0  0  0
   39.1814   31.5858   50.6394 H   0  0  0  0  0  0  0  0  0  0  0  0
   39.0362   32.1686   48.2598 H   0  0  0  0  0  0  0  0  0  0  0  0
   36.9930   31.4877   46.6163 N   0  0  0  0  0  0  0  0  0  0  0  0
   36.3192   32.6272   46.0782 C   0  0  0  0  0  0  0  0  0  0  0  0
   37.1036   33.4128   45.0792 C   0  0  0  0  0  0  0  0  0  0  0  0
   37.6574   32.5191   43.9918 C   0  0  0  0  0  0  0  0  0  0  0  0
   38.2559   33.0738   43.2728 H   0  0  0  0  0  0  0  0  0  0  0  0
   38.4534   31.4336   44.7179 C   0  0  0  0  0  0  0  0  0  0  0  0
   37.4169   30.6553   45.5151 C   0  0  0  0  0  0  0  0  0  0  0  0
   36.0592   33.3552   46.8998 H   0  0  0  0  0  0  0  0  0  0  0  0
   35.3160   32.3765   45.6303 H   0  0  0  0  0  0  0  0  0  0  0  0
   37.9833   33.8997   45.5495 H   0  0  0  0  0  0  0  0  0  0  0  0
   36.4677   34.1768   44.6352 H   0  0  0  0  0  0  0  0  0  0  0  0
   36.8557   31.9716   43.4553 H   0  0  0  0  0  0  0  0  0  0  0  0
   38.9880   30.7619   44.0474 H   0  0  0  0  0  0  0  0  0  0  0  0
   39.1357   31.9683   45.4025 H   0  0  0  0  0  0  0  0  0  0  0  0
   36.5807   30.4170   44.8250 H   0  0  0  0  0  0  0  0  0  0  0  0
   37.8950   29.7315   45.8699 H   0  0  0  0  0  0  0  0  0  0  0  0
  1  6  2  0
  2  1  1  0
  3  4  1  0
  3  2  2  0
  4  5  2  0
  5  7  1  0
  5  6  1  0
  7  8  1  0
  9  7  1  0
 10  7  1  0
  1 11  1  0
  2 12  1  0
 13 14  1  0
 14 15  1  0
 15 16  1  0
 16 17  1  0
 16 18  1  0
 18 19  1  0
 19 13  1  0
 14 20  1  0
 14 21  1  0
 15 22  1  0
 15 23  1  0
 16 24  1  0
 18 25  1  0
 18 26  1  0
 19 27  1  0
 19 28  1  0
  3 13  1  0
M  ISO  3  11  14  12  14  17  15
M  END
>  <DihAtoms>  (1) 
3,2,12,13

>  <DihDeg>  (1) 
0.01884235541995465

$$$$
