
     RDKit          3D

 39 41  0  0  0  0  0  0  0  0999 V2000
   35.1728   28.6671   50.0263 C   0  0  0  0  0  0  0  0  0  0  0  0
   36.2379   29.5956   49.8499 C   0  0  0  0  0  0  0  0  0  0  0  0
   36.1560   30.5076   48.7982 C   0  0  0  0  0  0  0  0  0  0  0  0
   35.0557   30.4659   47.9865 N   0  0  0  0  0  0  0  0  0  0  0  0
   34.0624   29.5540   48.2008 C   0  0  0  0  0  0  0  0  0  0  0  0
   34.1101   28.6706   49.1950 N   0  0  0  0  0  0  0  0  0  0  0  0
   33.0250   29.7013   47.2333 N   0  0  0  0  0  0  0  0  0  0  0  0
   37.2334   31.4719   48.5932 C   0  0  0  0  0  0  0  0  0  0  0  0
   37.1907   32.5074   49.5190 C   0  0  0  0  0  0  0  0  0  0  0  0
   38.1540   33.5050   49.4523 C   0  0  0  0  0  0  0  0  0  0  0  0
   39.1344   33.4488   48.4685 C   0  0  0  0  0  0  0  0  0  0  0  0
   39.1338   32.4059   47.5775 C   0  0  0  0  0  0  0  0  0  0  0  0
   38.1948   31.4623   47.6673 N   0  0  0  0  0  0  0  0  0  0  0  0
   37.3863   29.5457   50.7986 C   0  0  0  0  0  0  0  0  0  0  0  0
   38.5827   29.8091   50.1521 F   0  0  0  0  0  0  0  0  0  0  0  0
   37.1942   30.5015   51.7604 F   0  0  0  0  0  0  0  0  0  0  0  0
   37.5048   28.3313   51.4353 F   0  0  0  0  0  0  0  0  0  0  0  0
   35.2044   27.9511   50.8265 H   0  0  0  0  0  0  0  0  0  0  0  0
   32.3657   30.5200   47.3266 H   0  0  0  0  0  0  0  0  0  0  0  0
   32.9364   28.9951   46.4489 H   0  0  0  0  0  0  0  0  0  0  0  0
   36.4859   32.6807   50.3389 H   0  0  0  0  0  0  0  0  0  0  0  0
   38.1990   34.3472   50.1292 H   0  0  0  0  0  0  0  0  0  0  0  0
   39.8815   34.2282   48.4219 H   0  0  0  0  0  0  0  0  0  0  0  0
   40.0975   32.2734   46.5439 N   0  0  0  0  0  0  0  0  0  0  0  0
   41.4672   32.7220   46.5221 C   0  0  0  0  0  0  0  0  0  0  0  0
   42.3617   31.5147   46.5906 C   0  0  0  0  0  0  0  0  0  0  0  0
   42.0608   30.5146   45.5013 C   0  0  0  0  0  0  0  0  0  0  0  0
   42.5937   30.8833   44.5940 H   0  0  0  0  0  0  0  0  0  0  0  0
   40.6147   30.3532   45.1994 C   0  0  0  0  0  0  0  0  0  0  0  0
   39.7972   31.6191   45.2871 C   0  0  0  0  0  0  0  0  0  0  0  0
   41.6929   33.3793   45.6616 H   0  0  0  0  0  0  0  0  0  0  0  0
   41.6588   33.3423   47.4180 H   0  0  0  0  0  0  0  0  0  0  0  0
   42.2991   31.0805   47.6124 H   0  0  0  0  0  0  0  0  0  0  0  0
   43.4099   31.8628   46.4567 H   0  0  0  0  0  0  0  0  0  0  0  0
   42.4863   29.5463   45.8314 H   0  0  0  0  0  0  0  0  0  0  0  0
   40.1010   29.6178   45.8573 H   0  0  0  0  0  0  0  0  0  0  0  0
   40.5203   29.9347   44.1694 H   0  0  0  0  0  0  0  0  0  0  0  0
   38.7262   31.3055   45.2531 H   0  0  0  0  0  0  0  0  0  0  0  0
   40.0630   32.2725   44.4409 H   0  0  0  0  0  0  0  0  0  0  0  0
  2  1  2  0
  2 14  1  0
  3  2  1  0
  4  5  1  0
  4  3  2  0
  5  6  2  0
  6  1  1  0
  7  5  1  0
  8  3  1  0
  8  9  2  0
 10  9  1  0
 11 10  2  0
 12 13  2  0
 12 11  1  0
 13  8  1  0
 14 17  1  0
 14 16  1  0
 15 14  1  0
  1 18  1  0
  7 19  1  0
  7 20  1  0
  9 21  1  0
 10 22  1  0
 11 23  1  0
 24 25  1  0
 25 26  1  0
 26 27  1  0
 27 28  1  0
 27 29  1  0
 29 30  1  0
 30 24  1  0
 25 31  1  0
 25 32  1  0
 26 33  1  0
 26 34  1  0
 27 35  1  0
 29 36  1  0
 29 37  1  0
 30 38  1  0
 30 39  1  0
 12 24  1  0
M  ISO  5  18  14  21  14  22  14  23  14  28  15
M  END
>  <DihAtoms>  (1) 
12,11,23,24

>  <DihDeg>  (1) 
179.635281467696

$$$$
