
     RDKit          3D

 28 29  0  0  0  0  0  0  0  0999 V2000
   38.3011   31.2392   50.1222 C   0  0  0  0  0  0  0  0  0  0  0  0
   38.2930   31.6096   48.7780 C   0  0  0  0  0  0  0  0  0  0  0  0
   37.2074   31.2220   47.9976 C   0  0  0  0  0  0  0  0  0  0  0  0
   36.2178   30.5049   48.5906 N   0  0  0  0  0  0  0  0  0  0  0  0
   36.2602   30.1675   49.8850 C   0  0  0  0  0  0  0  0  0  0  0  0
   37.2956   30.5327   50.6453 N   0  0  0  0  0  0  0  0  0  0  0  0
   35.1355   29.3803   50.4592 C   0  0  0  0  0  0  0  0  0  0  0  0
   35.2720   29.1266   51.8021 F   0  0  0  0  0  0  0  0  0  0  0  0
   33.9217   30.0598   50.3009 F   0  0  0  0  0  0  0  0  0  0  0  0
   34.9447   28.1694   49.8230 F   0  0  0  0  0  0  0  0  0  0  0  0
   39.1814   31.5858   50.6394 H   0  0  0  0  0  0  0  0  0  0  0  0
   39.0362   32.1686   48.2598 H   0  0  0  0  0  0  0  0  0  0  0  0
   36.9930   31.4877   46.6163 N   0  0  0  0  0  0  0  0  0  0  0  0
   36.8954   32.7820   46.0185 C   0  0  0  0  0  0  0  0  0  0  0  0
   37.8426   33.0314   44.8911 C   0  0  0  0  0  0  0  0  0  0  0  0
   37.7707   31.9267   43.8603 C   0  0  0  0  0  0  0  0  0  0  0  0
   38.4767   32.0803   43.0474 H   0  0  0  0  0  0  0  0  0  0  0  0
   38.0217   30.6293   44.6302 C   0  0  0  0  0  0  0  0  0  0  0  0
   36.8361   30.4994   45.5753 C   0  0  0  0  0  0  0  0  0  0  0  0
   37.1130   33.5850   46.7804 H   0  0  0  0  0  0  0  0  0  0  0  0
   35.8522   33.0316   45.6731 H   0  0  0  0  0  0  0  0  0  0  0  0
   38.8948   33.0489   45.2444 H   0  0  0  0  0  0  0  0  0  0  0  0
   37.6078   33.9849   44.4213 H   0  0  0  0  0  0  0  0  0  0  0  0
   36.7497   31.8148   43.4416 H   0  0  0  0  0  0  0  0  0  0  0  0
   38.0870   29.7487   43.9924 H   0  0  0  0  0  0  0  0  0  0  0  0
   38.9495   30.7961   45.2060 H   0  0  0  0  0  0  0  0  0  0  0  0
   35.9166   30.6657   44.9759 H   0  0  0  0  0  0  0  0  0  0  0  0
   36.8467   29.4793   45.9841 H   0  0  0  0  0  0  0  0  0  0  0  0
  1  6  2  0
  2  1  1  0
  3  4  1  0
  3  2  2  0
  4  5  2  0
  5  7  1  0
  5  6  1  0
  7  8  1  0
  9  7  1  0
 10  7  1  0
  1 11  1  0
  2 12  1  0
 13 14  1  0
 14 15  1  0
 15 16  1  0
 16 17  1  0
 16 18  1  0
 18 19  1  0
 19 13  1  0
 14 20  1  0
 14 21  1  0
 15 22  1  0
 15 23  1  0
 16 24  1  0
 18 25  1  0
 18 26  1  0
 19 27  1  0
 19 28  1  0
  3 13  1  0
M  ISO  3  11  14  12  14  17  15
M  END
>  <DihAtoms>  (1) 
3,2,12,13

>  <DihDeg>  (1) 
0.01884235541995465

$$$$
