
 OpenBabel03272502403D

 38 41  0  0  1  0  0  0  0  0999 V2000
   38.1510   25.4060   33.3950 N   0  0  0  0  0  0  0  0  0  0  0  0
   38.1030   25.2970   31.9450 C   0  0  0  0  0  0  0  0  0  0  0  0
   37.2160   26.4410   31.5470 C   0  0  0  0  0  0  0  0  0  0  0  0
   36.7110   27.0680   32.9130 C   0  0  1  0  0  0  0  0  0  0  0  0
   37.8690   26.8080   33.7690 C   0  0  0  0  0  0  0  0  0  0  0  0
   37.7690   24.3180   31.5840 H   0  0  0  0  0  0  0  0  0  0  0  0
   39.1410   25.5500   31.5800 H   0  0  0  0  0  0  0  0  0  0  0  0
   36.3270   26.0270   31.0400 H   0  0  0  0  0  0  0  0  0  0  0  0
   37.6900   27.2270   30.9640 H   0  0  0  0  0  0  0  0  0  0  0  0
   35.8060   26.4970   33.1110 H   0  0  0  0  0  0  0  0  0  0  0  0
   38.7600   27.4140   33.5080 H   0  0  0  0  0  0  0  0  0  0  0  0
   37.6640   26.8570   34.8670 H   0  0  0  0  0  0  0  0  0  0  0  0
   35.4040   28.5980   34.9050 F   0  0  0  0  0  0  0  0  0  0  0  0
   35.7900   29.1340   33.7350 C   0  0  0  0  0  0  0  0  0  0  0  0
   36.3750   28.4760   32.6850 C   0  0  0  0  0  0  0  0  0  0  0  0
   36.7050   29.2110   31.5330 C   0  0  0  0  0  0  0  0  0  0  0  0
   36.4560   30.5590   31.4380 C   0  0  0  0  0  0  0  0  0  0  0  0
   35.8560   31.2120   32.5180 C   0  0  0  0  0  0  0  0  0  0  0  0
   35.5230   30.4840   33.6730 C   0  0  0  0  0  0  0  0  0  0  0  0
   37.1580   28.5940   30.7710 H   0  0  0  0  0  0  0  0  0  0  0  0
   36.7450   31.0320   30.5160 H   0  0  0  0  0  0  0  0  0  0  0  0
   35.7190   32.2430   32.3170 H   0  0  0  0  0  0  0  0  0  0  0  0
   34.9220   31.2090   34.7210 N   0  0  0  0  0  0  0  0  0  0  0  0
   33.5510   31.6320   34.8110 C   0  0  0  0  0  2  0  0  0  0  0  0
   33.0090   30.9360   36.0710 C   0  0  0  0  0  2  0  0  0  0  0  0
   33.5080   31.7480   37.2340 C   0  0  0  0  0  3  0  0  0  0  0  0
   32.7470   32.5710   37.3700 H   0  0  0  0  0  0  0  0  0  0  0  0
   34.7830   32.4190   36.8490 C   0  0  0  0  0  2  0  0  0  0  0  0
   35.6520   31.6380   35.8930 C   0  0  0  0  0  2  0  0  0  0  0  0
   38.4130   24.3800   34.3210 C   0  0  0  0  0  0  0  0  0  0  0  0
   38.2130   24.7090   35.6700 C   0  0  0  0  0  0  0  0  0  0  0  0
   38.4590   23.7350   36.6520 C   0  0  0  0  0  0  0  0  0  0  0  0
   38.8890   22.5030   36.1970 N   0  0  0  0  0  0  0  0  0  0  0  0
   39.0670   22.2270   34.8950 C   0  0  0  0  0  0  0  0  0  0  0  0
   38.8290   23.1670   33.9550 N   0  0  0  0  0  0  0  0  0  0  0  0
   37.8800   25.6590   36.0600 H   0  0  0  0  0  0  0  0  0  0  0  0
   38.3190   23.9500   37.6880 H   0  0  0  0  0  0  0  0  0  0  0  0
   39.4050   21.2280   34.6610 H   0  0  0  0  0  0  0  0  0  0  0  0
  1  5  1  0  0  0  0
  1 30  1  0  0  0  0
  2  1  1  0  0  0  0
  3  2  1  0  0  0  0
  3  4  1  0  0  0  0
  4 10  1  1  0  0  0
  4  5  1  0  0  0  0
  5 12  1  0  0  0  0
  6  2  1  0  0  0  0
  7  2  1  0  0  0  0
  8  3  1  0  0  0  0
  9  3  1  0  0  0  0
 11  5  1  0  0  0  0
 14 13  1  0  0  0  0
 15  4  1  0  0  0  0
 15 14  2  0  0  0  0
 16 15  1  0  0  0  0
 17 16  2  0  0  0  0
 17 18  1  0  0  0  0
 18 19  2  0  0  0  0
 19 14  1  0  0  0  0
 19 23  1  0  0  0  0
 20 16  1  0  0  0  0
 21 17  1  0  0  0  0
 22 18  1  0  0  0  0
 23 24  1  0  0  0  0
 23 29  1  0  0  0  0
 24 25  1  0  0  0  0
 25 26  1  0  0  0  0
 26 27  1  0  0  0  0
 28 26  1  0  0  0  0
 29 28  1  0  0  0  0
 30 31  1  0  0  0  0
 31 36  1  0  0  0  0
 31 32  2  0  0  0  0
 32 37  1  0  0  0  0
 33 32  1  0  0  0  0
 34 33  2  0  0  0  0
 35 30  2  0  0  0  0
 35 34  1  0  0  0  0
 38 34  1  0  0  0  0
M  END
>  <minimizedAffinity>
-5.72564602

$$$$

 OpenBabel03272502403D

 38 41  0  0  1  0  0  0  0  0999 V2000
   38.5700   25.2090   34.5520 N   0  0  0  0  0  0  0  0  0  0  0  0
   38.5970   24.7840   33.1610 C   0  0  0  0  0  0  0  0  0  0  0  0
   37.6470   25.7370   32.4950 C   0  0  0  0  0  0  0  0  0  0  0  0
   37.0350   26.6020   33.6750 C   0  0  1  0  0  0  0  0  0  0  0  0
   38.1680   26.6310   34.5990 C   0  0  0  0  0  0  0  0  0  0  0  0
   38.3530   23.7250   33.0160 H   0  0  0  0  0  0  0  0  0  0  0  0
   39.6290   25.0360   32.7790 H   0  0  0  0  0  0  0  0  0  0  0  0
   36.8160   25.1520   32.0670 H   0  0  0  0  0  0  0  0  0  0  0  0
   38.0880   26.4140   31.7680 H   0  0  0  0  0  0  0  0  0  0  0  0
   36.1670   26.0160   33.9680 H   0  0  0  0  0  0  0  0  0  0  0  0
   39.0240   27.2360   34.2380 H   0  0  0  0  0  0  0  0  0  0  0  0
   37.9100   26.9000   35.6530 H   0  0  0  0  0  0  0  0  0  0  0  0
   35.7900   28.5370   35.3240 F   0  0  0  0  0  0  0  0  0  0  0  0
   36.0630   28.7750   34.0300 C   0  0  0  0  0  0  0  0  0  0  0  0
   36.6070   27.8950   33.1330 C   0  0  0  0  0  0  0  0  0  0  0  0
   36.8140   28.3270   31.8110 C   0  0  0  0  0  0  0  0  0  0  0  0
   36.4860   29.5980   31.4040 C   0  0  0  0  0  0  0  0  0  0  0  0
   35.9290   30.4800   32.3340 C   0  0  0  0  0  0  0  0  0  0  0  0
   35.7190   30.0560   33.6570 C   0  0  0  0  0  0  0  0  0  0  0  0
   37.2460   27.5540   31.1920 H   0  0  0  0  0  0  0  0  0  0  0  0
   36.6840   29.8330   30.3730 H   0  0  0  0  0  0  0  0  0  0  0  0
   35.7220   31.4220   31.8950 H   0  0  0  0  0  0  0  0  0  0  0  0
   35.1540   31.0000   34.5380 N   0  0  0  0  0  0  0  0  0  0  0  0
   33.7680   31.3680   34.6460 C   0  0  0  0  0  2  0  0  0  0  0  0
   33.3780   30.9980   36.0870 C   0  0  0  0  0  2  0  0  0  0  0  0
   33.9110   32.1070   36.9520 C   0  0  0  0  0  3  0  0  0  0  0  0
   33.1080   32.9020   36.9450 H   0  0  0  0  0  0  0  0  0  0  0  0
   35.1010   32.7130   36.2900 C   0  0  0  0  0  2  0  0  0  0  0  0
   35.9430   31.7520   35.4870 C   0  0  0  0  0  2  0  0  0  0  0  0
   38.8640   24.4340   35.6890 C   0  0  0  0  0  0  0  0  0  0  0  0
   37.9970   24.5960   36.7800 C   0  0  0  0  0  0  0  0  0  0  0  0
   38.2310   23.8570   37.9520 C   0  0  0  0  0  0  0  0  0  0  0  0
   39.3240   23.0110   37.9330 N   0  0  0  0  0  0  0  0  0  0  0  0
   40.1300   22.8840   36.8670 C   0  0  0  0  0  0  0  0  0  0  0  0
   39.9010   23.5970   35.7430 N   0  0  0  0  0  0  0  0  0  0  0  0
   37.1360   25.2470   36.8300 H   0  0  0  0  0  0  0  0  0  0  0  0
   37.5930   23.9560   38.8020 H   0  0  0  0  0  0  0  0  0  0  0  0
   40.9530   22.1910   36.9710 H   0  0  0  0  0  0  0  0  0  0  0  0
  1  5  1  0  0  0  0
  1 30  1  0  0  0  0
  2  1  1  0  0  0  0
  3  2  1  0  0  0  0
  3  4  1  0  0  0  0
  4 10  1  1  0  0  0
  4  5  1  0  0  0  0
  5 12  1  0  0  0  0
  6  2  1  0  0  0  0
  7  2  1  0  0  0  0
  8  3  1  0  0  0  0
  9  3  1  0  0  0  0
 11  5  1  0  0  0  0
 14 13  1  0  0  0  0
 15  4  1  0  0  0  0
 15 14  2  0  0  0  0
 16 15  1  0  0  0  0
 17 16  2  0  0  0  0
 17 18  1  0  0  0  0
 18 19  2  0  0  0  0
 19 14  1  0  0  0  0
 19 23  1  0  0  0  0
 20 16  1  0  0  0  0
 21 17  1  0  0  0  0
 22 18  1  0  0  0  0
 23 24  1  0  0  0  0
 23 29  1  0  0  0  0
 24 25  1  0  0  0  0
 25 26  1  0  0  0  0
 27 26  1  0  0  0  0
 28 26  1  0  0  0  0
 29 28  1  0  0  0  0
 30 35  2  0  0  0  0
 30 31  1  0  0  0  0
 31 36  1  0  0  0  0
 31 32  2  0  0  0  0
 32 37  1  0  0  0  0
 33 32  1  0  0  0  0
 34 38  1  0  0  0  0
 34 33  2  0  0  0  0
 35 34  1  0  0  0  0
M  END
>  <minimizedAffinity>
-5.69972134

$$$$

 OpenBabel03272502403D

 38 41  0  0  1  0  0  0  0  0999 V2000
   37.3190   25.1760   32.4040 N   0  0  0  0  0  0  0  0  0  0  0  0
   38.4990   25.7690   33.0150 C   0  0  0  0  0  0  0  0  0  0  0  0
   38.3540   27.2280   32.6890 C   0  0  0  0  0  0  0  0  0  0  0  0
   37.0750   27.3180   31.7560 C   0  0  1  0  0  0  0  0  0  0  0  0
   36.2750   26.2180   32.2930 C   0  0  0  0  0  0  0  0  0  0  0  0
   39.4420   25.3220   32.6830 H   0  0  0  0  0  0  0  0  0  0  0  0
   38.3540   25.6710   34.1300 H   0  0  0  0  0  0  0  0  0  0  0  0
   39.2180   27.5300   32.0730 H   0  0  0  0  0  0  0  0  0  0  0  0
   38.2060   27.8900   33.5390 H   0  0  0  0  0  0  0  0  0  0  0  0
   37.5010   27.1870   30.7630 H   0  0  0  0  0  0  0  0  0  0  0  0
   35.8800   26.4100   33.3110 H   0  0  0  0  0  0  0  0  0  0  0  0
   35.4650   25.8490   31.6170 H   0  0  0  0  0  0  0  0  0  0  0  0
   36.0870   28.2570   34.2370 F   0  0  0  0  0  0  0  0  0  0  0  0
   36.0990   29.0300   33.1380 C   0  0  0  0  0  0  0  0  0  0  0  0
   36.5000   28.6600   31.8810 C   0  0  0  0  0  0  0  0  0  0  0  0
   36.4340   29.6130   30.8490 C   0  0  0  0  0  0  0  0  0  0  0  0
   35.9830   30.8920   31.0710 C   0  0  0  0  0  0  0  0  0  0  0  0
   35.5770   31.2490   32.3600 C   0  0  0  0  0  0  0  0  0  0  0  0
   35.6390   30.3020   33.3970 C   0  0  0  0  0  0  0  0  0  0  0  0
   36.7720   29.2140   29.9040 H   0  0  0  0  0  0  0  0  0  0  0  0
   35.9720   31.5470   30.2180 H   0  0  0  0  0  0  0  0  0  0  0  0
   35.2520   32.2570   32.3960 H   0  0  0  0  0  0  0  0  0  0  0  0
   35.2130   30.7350   34.6690 N   0  0  0  0  0  0  0  0  0  0  0  0
   36.0420   31.1360   35.7720 C   0  0  0  0  0  2  0  0  0  0  0  0
   35.6530   32.5990   36.0420 C   0  0  0  0  0  2  0  0  0  0  0  0
   34.3640   32.5440   36.8150 C   0  0  0  0  0  3  0  0  0  0  0  0
   34.6700   32.4340   37.8960 H   0  0  0  0  0  0  0  0  0  0  0  0
   33.6350   31.2930   36.4590 C   0  0  0  0  0  2  0  0  0  0  0  0
   33.8180   30.8310   35.0340 C   0  0  0  0  0  2  0  0  0  0  0  0
   37.1550   23.8470   31.9730 C   0  0  0  0  0  0  0  0  0  0  0  0
   35.8610   23.4910   31.5650 C   0  0  0  0  0  0  0  0  0  0  0  0
   35.6220   22.1790   31.1260 C   0  0  0  0  0  0  0  0  0  0  0  0
   36.7090   21.3240   31.1320 N   0  0  0  0  0  0  0  0  0  0  0  0
   37.9330   21.7040   31.5300 C   0  0  0  0  0  0  0  0  0  0  0  0
   38.1580   22.9680   31.9520 N   0  0  0  0  0  0  0  0  0  0  0  0
   34.9910   24.1310   31.5480 H   0  0  0  0  0  0  0  0  0  0  0  0
   34.6500   21.8720   30.8090 H   0  0  0  0  0  0  0  0  0  0  0  0
   38.7040   20.9480   31.4900 H   0  0  0  0  0  0  0  0  0  0  0  0
  1  2  1  0  0  0  0
  2  7  1  0  0  0  0
  3  2  1  0  0  0  0
  3  9  1  0  0  0  0
  4 10  1  6  0  0  0
  4 15  1  0  0  0  0
  4  5  1  0  0  0  0
  4  3  1  0  0  0  0
  5  1  1  0  0  0  0
  5 11  1  0  0  0  0
  6  2  1  0  0  0  0
  8  3  1  0  0  0  0
 12  5  1  0  0  0  0
 14 19  1  0  0  0  0
 14 13  1  0  0  0  0
 15 14  2  0  0  0  0
 16 17  2  0  0  0  0
 16 15  1  0  0  0  0
 17 18  1  0  0  0  0
 18 22  1  0  0  0  0
 18 19  2  0  0  0  0
 19 23  1  0  0  0  0
 20 16  1  0  0  0  0
 21 17  1  0  0  0  0
 23 29  1  0  0  0  0
 23 24  1  0  0  0  0
 24 25  1  0  0  0  0
 25 26  1  0  0  0  0
 26 27  1  0  0  0  0
 28 26  1  0  0  0  0
 29 28  1  0  0  0  0
 30  1  1  0  0  0  0
 31 30  2  0  0  0  0
 32 33  2  0  0  0  0
 32 31  1  0  0  0  0
 33 34  1  0  0  0  0
 34 35  2  0  0  0  0
 35 30  1  0  0  0  0
 36 31  1  0  0  0  0
 37 32  1  0  0  0  0
 38 34  1  0  0  0  0
M  END
>  <minimizedAffinity>
-5.6227231

$$$$

 OpenBabel03272502403D

 38 41  0  0  1  0  0  0  0  0999 V2000
   38.3930   25.4410   35.4960 N   0  0  0  0  0  0  0  0  0  0  0  0
   38.3640   26.6630   36.2860 C   0  0  0  0  0  0  0  0  0  0  0  0
   38.1360   27.7300   35.2550 C   0  0  0  0  0  0  0  0  0  0  0  0
   38.1760   26.9740   33.8610 C   0  0  1  0  0  0  0  0  0  0  0  0
   37.6320   25.6730   34.2490 C   0  0  0  0  0  0  0  0  0  0  0  0
   39.2570   26.8130   36.9030 H   0  0  0  0  0  0  0  0  0  0  0  0
   37.4240   26.6080   36.9090 H   0  0  0  0  0  0  0  0  0  0  0  0
   39.0020   28.4140   35.2690 H   0  0  0  0  0  0  0  0  0  0  0  0
   37.1920   28.2640   35.3270 H   0  0  0  0  0  0  0  0  0  0  0  0
   39.2320   27.0170   33.6030 H   0  0  0  0  0  0  0  0  0  0  0  0
   36.5560   25.6990   34.5100 H   0  0  0  0  0  0  0  0  0  0  0  0
   37.8460   24.8400   33.5340 H   0  0  0  0  0  0  0  0  0  0  0  0
   35.7660   28.2520   34.6170 F   0  0  0  0  0  0  0  0  0  0  0  0
   36.2700   28.3610   33.3760 C   0  0  0  0  0  0  0  0  0  0  0  0
   37.3910   27.7420   32.8900 C   0  0  0  0  0  0  0  0  0  0  0  0
   37.7600   27.9750   31.5540 C   0  0  0  0  0  0  0  0  0  0  0  0
   37.0280   28.8000   30.7340 C   0  0  0  0  0  0  0  0  0  0  0  0
   35.8860   29.4200   31.2470 C   0  0  0  0  0  0  0  0  0  0  0  0
   35.5110   29.1920   32.5820 C   0  0  0  0  0  0  0  0  0  0  0  0
   38.6560   27.4380   31.2780 H   0  0  0  0  0  0  0  0  0  0  0  0
   37.3930   28.9150   29.7280 H   0  0  0  0  0  0  0  0  0  0  0  0
   35.4150   30.0260   30.5160 H   0  0  0  0  0  0  0  0  0  0  0  0
   34.3480   29.8520   33.0290 N   0  0  0  0  0  0  0  0  0  0  0  0
   33.0040   29.3410   33.0260 C   0  0  0  0  0  2  0  0  0  0  0  0
   32.5870   29.3320   34.5060 C   0  0  0  0  0  2  0  0  0  0  0  0
   32.2230   30.7530   34.8380 C   0  0  0  0  0  3  0  0  0  0  0  0
   31.1390   30.8600   34.5400 H   0  0  0  0  0  0  0  0  0  0  0  0
   32.9910   31.6720   33.9510 C   0  0  0  0  0  2  0  0  0  0  0  0
   34.3710   31.1910   33.5720 C   0  0  0  0  0  2  0  0  0  0  0  0
   39.0260   24.2280   35.8200 C   0  0  0  0  0  0  0  0  0  0  0  0
   38.9990   23.8670   37.1760 C   0  0  0  0  0  0  0  0  0  0  0  0
   39.6150   22.6690   37.5730 C   0  0  0  0  0  0  0  0  0  0  0  0
   40.2120   21.9260   36.5730 N   0  0  0  0  0  0  0  0  0  0  0  0
   40.2150   22.3060   35.2850 C   0  0  0  0  0  0  0  0  0  0  0  0
   39.6210   23.4590   34.9070 N   0  0  0  0  0  0  0  0  0  0  0  0
   38.5440   24.4220   37.9820 H   0  0  0  0  0  0  0  0  0  0  0  0
   39.6160   22.3630   38.5960 H   0  0  0  0  0  0  0  0  0  0  0  0
   40.7130   21.6430   34.5920 H   0  0  0  0  0  0  0  0  0  0  0  0
  1 30  1  0  0  0  0
  1  2  1  0  0  0  0
  2  6  1  0  0  0  0
  2  7  1  0  0  0  0
  3  8  1  0  0  0  0
  3  9  1  0  0  0  0
  3  2  1  0  0  0  0
  4 10  1  6  0  0  0
  4  5  1  0  0  0  0
  4  3  1  0  0  0  0
  5 11  1  0  0  0  0
  5  1  1  0  0  0  0
 12  5  1  0  0  0  0
 14 13  1  0  0  0  0
 15 14  1  0  0  0  0
 15  4  1  0  0  0  0
 16 15  2  0  0  0  0
 17 18  2  0  0  0  0
 17 16  1  0  0  0  0
 18 19  1  0  0  0  0
 19 23  1  0  0  0  0
 19 14  2  0  0  0  0
 20 16  1  0  0  0  0
 21 17  1  0  0  0  0
 22 18  1  0  0  0  0
 23 29  1  0  0  0  0
 24 23  1  0  0  0  0
 24 25  1  0  0  0  0
 25 26  1  0  0  0  0
 27 26  1  0  0  0  0
 28 26  1  0  0  0  0
 29 28  1  0  0  0  0
 30 31  1  0  0  0  0
 31 32  2  0  0  0  0
 31 36  1  0  0  0  0
 32 37  1  0  0  0  0
 33 32  1  0  0  0  0
 34 33  2  0  0  0  0
 35 34  1  0  0  0  0
 35 30  2  0  0  0  0
 38 34  1  0  0  0  0
M  END
>  <minimizedAffinity>
-5.56594276

$$$$

 OpenBabel03272502403D

 38 41  0  0  1  0  0  0  0  0999 V2000
   37.2420   26.6050   31.5870 N   0  0  0  0  0  0  0  0  0  0  0  0
   37.7780   27.1600   30.3540 C   0  0  0  0  0  0  0  0  0  0  0  0
   37.1880   28.5400   30.3160 C   0  0  0  0  0  0  0  0  0  0  0  0
   36.2070   28.6040   31.5600 C   0  0  1  0  0  0  0  0  0  0  0  0
   36.9060   27.7220   32.4950 C   0  0  0  0  0  0  0  0  0  0  0  0
   37.5680   26.5530   29.4660 H   0  0  0  0  0  0  0  0  0  0  0  0
   38.8870   27.2870   30.5260 H   0  0  0  0  0  0  0  0  0  0  0  0
   36.5590   28.6200   29.4130 H   0  0  0  0  0  0  0  0  0  0  0  0
   37.8970   29.3610   30.3960 H   0  0  0  0  0  0  0  0  0  0  0  0
   35.2710   28.2430   31.1390 H   0  0  0  0  0  0  0  0  0  0  0  0
   37.8560   28.1440   32.8800 H   0  0  0  0  0  0  0  0  0  0  0  0
   36.2780   27.3320   33.3340 H   0  0  0  0  0  0  0  0  0  0  0  0
   34.7170   29.3060   33.8630 F   0  0  0  0  0  0  0  0  0  0  0  0
   35.3660   30.2250   33.1290 C   0  0  0  0  0  0  0  0  0  0  0  0
   36.0650   30.0040   31.9710 C   0  0  0  0  0  0  0  0  0  0  0  0
   36.6760   31.1000   31.3380 C   0  0  0  0  0  0  0  0  0  0  0  0
   36.5890   32.3730   31.8470 C   0  0  0  0  0  0  0  0  0  0  0  0
   35.8690   32.5780   33.0270 C   0  0  0  0  0  0  0  0  0  0  0  0
   35.2550   31.4880   33.6670 C   0  0  0  0  0  0  0  0  0  0  0  0
   37.1980   30.8110   30.4360 H   0  0  0  0  0  0  0  0  0  0  0  0
   37.0910   33.1440   31.2900 H   0  0  0  0  0  0  0  0  0  0  0  0
   35.8780   33.5990   33.3110 H   0  0  0  0  0  0  0  0  0  0  0  0
   34.5470   31.7720   34.8520 N   0  0  0  0  0  0  0  0  0  0  0  0
   33.1480   32.0780   34.9760 C   0  0  0  0  0  2  0  0  0  0  0  0
   32.5810   30.9600   35.8680 C   0  0  0  0  0  2  0  0  0  0  0  0
   32.9570   31.3310   37.2770 C   0  0  0  0  0  3  0  0  0  0  0  0
   32.1370   32.0210   37.6310 H   0  0  0  0  0  0  0  0  0  0  0  0
   34.2040   32.1470   37.2500 C   0  0  0  0  0  2  0  0  0  0  0  0
   35.1780   31.7910   36.1520 C   0  0  0  0  0  2  0  0  0  0  0  0
   37.0540   25.2480   31.9040 C   0  0  0  0  0  0  0  0  0  0  0  0
   35.9540   24.6250   31.2950 C   0  0  0  0  0  0  0  0  0  0  0  0
   35.7020   23.2700   31.5690 C   0  0  0  0  0  0  0  0  0  0  0  0
   36.5790   22.6470   32.4360 N   0  0  0  0  0  0  0  0  0  0  0  0
   37.6220   23.2790   32.9980 C   0  0  0  0  0  0  0  0  0  0  0  0
   37.8600   24.5820   32.7320 N   0  0  0  0  0  0  0  0  0  0  0  0
   35.2500   25.0790   30.6140 H   0  0  0  0  0  0  0  0  0  0  0  0
   34.8740   22.7630   31.1240 H   0  0  0  0  0  0  0  0  0  0  0  0
   38.2380   22.6880   33.6600 H   0  0  0  0  0  0  0  0  0  0  0  0
  1 30  1  0  0  0  0
  1  5  1  0  0  0  0
  2  7  1  0  0  0  0
  2  1  1  0  0  0  0
  3  2  1  0  0  0  0
  3  9  1  0  0  0  0
  3  4  1  0  0  0  0
  4 10  1  6  0  0  0
  4 15  1  0  0  0  0
  4  5  1  0  0  0  0
  5 11  1  0  0  0  0
  5 12  1  0  0  0  0
  6  2  1  0  0  0  0
  8  3  1  0  0  0  0
 14 19  1  0  0  0  0
 14 13  1  0  0  0  0
 15 14  2  0  0  0  0
 16 17  2  0  0  0  0
 16 15  1  0  0  0  0
 17 18  1  0  0  0  0
 18 22  1  0  0  0  0
 18 19  2  0  0  0  0
 19 23  1  0  0  0  0
 20 16  1  0  0  0  0
 21 17  1  0  0  0  0
 23 24  1  0  0  0  0
 23 29  1  0  0  0  0
 24 25  1  0  0  0  0
 25 26  1  0  0  0  0
 26 27  1  0  0  0  0
 28 26  1  0  0  0  0
 29 28  1  0  0  0  0
 30 35  1  0  0  0  0
 31 32  1  0  0  0  0
 31 30  2  0  0  0  0
 32 33  2  0  0  0  0
 33 34  1  0  0  0  0
 34 38  1  0  0  0  0
 35 34  2  0  0  0  0
 36 31  1  0  0  0  0
 37 32  1  0  0  0  0
M  END
>  <minimizedAffinity>
-5.47816277

$$$$

 OpenBabel03272502403D

 38 41  0  0  1  0  0  0  0  0999 V2000
   34.8220   30.4280   33.6320 N   0  0  0  0  0  0  0  0  0  0  0  0
   34.7850   30.5150   32.1810 C   0  0  0  0  0  0  0  0  0  0  0  0
   35.6850   29.3940   31.7490 C   0  0  0  0  0  0  0  0  0  0  0  0
   36.2860   28.8050   33.0930 C   0  0  1  0  0  0  0  0  0  0  0  0
   35.1700   29.0410   34.0090 C   0  0  0  0  0  0  0  0  0  0  0  0
   35.0650   31.4990   31.7880 H   0  0  0  0  0  0  0  0  0  0  0  0
   33.7360   30.2240   31.8790 H   0  0  0  0  0  0  0  0  0  0  0  0
   36.5290   29.8280   31.1870 H   0  0  0  0  0  0  0  0  0  0  0  0
   35.2050   28.5840   31.2050 H   0  0  0  0  0  0  0  0  0  0  0  0
   37.1810   29.4080   33.2310 H   0  0  0  0  0  0  0  0  0  0  0  0
   34.2860   28.4040   33.8080 H   0  0  0  0  0  0  0  0  0  0  0  0
   35.4380   29.0160   35.0940 H   0  0  0  0  0  0  0  0  0  0  0  0
   37.8780   27.3930   34.9600 F   0  0  0  0  0  0  0  0  0  0  0  0
   37.3840   26.8050   33.8580 C   0  0  0  0  0  0  0  0  0  0  0  0
   36.6540   27.4050   32.8660 C   0  0  0  0  0  0  0  0  0  0  0  0
   36.2260   26.6210   31.7800 C   0  0  0  0  0  0  0  0  0  0  0  0
   36.5200   25.2810   31.6930 C   0  0  0  0  0  0  0  0  0  0  0  0
   37.2680   24.6880   32.7140 C   0  0  0  0  0  0  0  0  0  0  0  0
   37.7000   25.4650   33.8020 C   0  0  0  0  0  0  0  0  0  0  0  0
   35.6610   27.1950   31.0600 H   0  0  0  0  0  0  0  0  0  0  0  0
   36.1470   24.7680   30.8240 H   0  0  0  0  0  0  0  0  0  0  0  0
   37.4250   23.6570   32.5260 H   0  0  0  0  0  0  0  0  0  0  0  0
   38.4490   24.7980   34.7930 N   0  0  0  0  0  0  0  0  0  0  0  0
   38.0270   24.4700   36.1270 C   0  0  0  0  0  2  0  0  0  0  0  0
   38.0960   22.9350   36.1930 C   0  0  0  0  0  2  0  0  0  0  0  0
   39.5490   22.5990   36.3920 C   0  0  0  0  0  3  0  0  0  0  0  0
   39.7150   22.6480   37.5080 H   0  0  0  0  0  0  0  0  0  0  0  0
   40.3850   23.6820   35.7990 C   0  0  0  0  0  2  0  0  0  0  0  0
   39.8010   24.3400   34.5720 C   0  0  0  0  0  2  0  0  0  0  0  0
   34.5800   31.4590   34.5580 C   0  0  0  0  0  0  0  0  0  0  0  0
   35.2600   31.3560   35.7810 C   0  0  0  0  0  0  0  0  0  0  0  0
   35.0630   32.3480   36.7550 C   0  0  0  0  0  0  0  0  0  0  0  0
   34.1940   33.3700   36.4220 N   0  0  0  0  0  0  0  0  0  0  0  0
   33.5620   33.4330   35.2390 C   0  0  0  0  0  0  0  0  0  0  0  0
   33.7540   32.4760   34.3050 N   0  0  0  0  0  0  0  0  0  0  0  0
   35.9440   30.5740   36.0740 H   0  0  0  0  0  0  0  0  0  0  0  0
   35.5640   32.3020   37.6970 H   0  0  0  0  0  0  0  0  0  0  0  0
   32.9060   34.2790   35.0930 H   0  0  0  0  0  0  0  0  0  0  0  0
  1  5  1  0  0  0  0
  1 30  1  0  0  0  0
  2  1  1  0  0  0  0
  3  2  1  0  0  0  0
  3  4  1  0  0  0  0
  4 10  1  1  0  0  0
  4  5  1  0  0  0  0
  5 12  1  0  0  0  0
  6  2  1  0  0  0  0
  7  2  1  0  0  0  0
  8  3  1  0  0  0  0
  9  3  1  0  0  0  0
 11  5  1  0  0  0  0
 14 13  1  0  0  0  0
 15  4  1  0  0  0  0
 15 14  2  0  0  0  0
 16 15  1  0  0  0  0
 17 16  2  0  0  0  0
 17 18  1  0  0  0  0
 18 19  2  0  0  0  0
 19 14  1  0  0  0  0
 19 23  1  0  0  0  0
 20 16  1  0  0  0  0
 21 17  1  0  0  0  0
 22 18  1  0  0  0  0
 23 24  1  0  0  0  0
 24 25  1  0  0  0  0
 25 26  1  0  0  0  0
 26 27  1  0  0  0  0
 28 26  1  0  0  0  0
 29 23  1  0  0  0  0
 29 28  1  0  0  0  0
 30 31  1  0  0  0  0
 31 36  1  0  0  0  0
 31 32  2  0  0  0  0
 32 37  1  0  0  0  0
 33 32  1  0  0  0  0
 34 33  2  0  0  0  0
 35 30  2  0  0  0  0
 35 34  1  0  0  0  0
 38 34  1  0  0  0  0
M  END
>  <minimizedAffinity>
-5.39228535

$$$$

 OpenBabel03272502403D

 38 41  0  0  1  0  0  0  0  0999 V2000
   37.7280   27.4850   30.5720 N   0  0  0  0  0  0  0  0  0  0  0  0
   36.5980   27.7820   31.4390 C   0  0  0  0  0  0  0  0  0  0  0  0
   36.2080   26.4310   31.9650 C   0  0  0  0  0  0  0  0  0  0  0  0
   37.1450   25.4040   31.2020 C   0  0  1  0  0  0  0  0  0  0  0  0
   38.3450   26.2200   31.0240 C   0  0  0  0  0  0  0  0  0  0  0  0
   35.7880   28.3260   30.9420 H   0  0  0  0  0  0  0  0  0  0  0  0
   37.0210   28.3600   32.3120 H   0  0  0  0  0  0  0  0  0  0  0  0
   35.1750   26.2210   31.6400 H   0  0  0  0  0  0  0  0  0  0  0  0
   36.3390   26.2840   33.0350 H   0  0  0  0  0  0  0  0  0  0  0  0
   36.5620   25.1740   30.3130 H   0  0  0  0  0  0  0  0  0  0  0  0
   38.8870   26.4280   31.9680 H   0  0  0  0  0  0  0  0  0  0  0  0
   39.0500   25.8580   30.2350 H   0  0  0  0  0  0  0  0  0  0  0  0
   38.4030   25.5220   33.7350 F   0  0  0  0  0  0  0  0  0  0  0  0
   37.8710   24.3850   33.2580 C   0  0  0  0  0  0  0  0  0  0  0  0
   37.2930   24.2030   32.0290 C   0  0  0  0  0  0  0  0  0  0  0  0
   36.7940   22.9290   31.7050 C   0  0  0  0  0  0  0  0  0  0  0  0
   36.8730   21.8750   32.5820 C   0  0  0  0  0  0  0  0  0  0  0  0
   37.4680   22.0800   33.8290 C   0  0  0  0  0  0  0  0  0  0  0  0
   37.9700   23.3500   34.1610 C   0  0  0  0  0  0  0  0  0  0  0  0
   36.3620   22.9010   30.7140 H   0  0  0  0  0  0  0  0  0  0  0  0
   36.4620   20.9410   32.2410 H   0  0  0  0  0  0  0  0  0  0  0  0
   37.4670   21.1920   34.4070 H   0  0  0  0  0  0  0  0  0  0  0  0
   38.5560   23.4800   35.4360 N   0  0  0  0  0  0  0  0  0  0  0  0
   38.3370   24.5340   36.3900 C   0  0  0  0  0  2  0  0  0  0  0  0
   37.7540   23.8280   37.6250 C   0  0  0  0  0  2  0  0  0  0  0  0
   38.9260   23.2060   38.3330 C   0  0  0  0  0  3  0  0  0  0  0  0
   39.3360   24.0190   39.0000 H   0  0  0  0  0  0  0  0  0  0  0  0
   39.9940   22.9070   37.3360 C   0  0  0  0  0  2  0  0  0  0  0  0
   39.4980   22.5190   35.9650 C   0  0  0  0  0  2  0  0  0  0  0  0
   38.1870   28.2400   29.4760 C   0  0  0  0  0  0  0  0  0  0  0  0
   37.4870   29.4270   29.2150 C   0  0  0  0  0  0  0  0  0  0  0  0
   37.8870   30.2290   28.1340 C   0  0  0  0  0  0  0  0  0  0  0  0
   38.9630   29.7720   27.3970 N   0  0  0  0  0  0  0  0  0  0  0  0
   39.6070   28.6280   27.6810 C   0  0  0  0  0  0  0  0  0  0  0  0
   39.2190   27.8600   28.7220 N   0  0  0  0  0  0  0  0  0  0  0  0
   36.6440   29.8140   29.7680 H   0  0  0  0  0  0  0  0  0  0  0  0
   37.3770   31.1390   27.9050 H   0  0  0  0  0  0  0  0  0  0  0  0
   40.4350   28.3740   27.0340 H   0  0  0  0  0  0  0  0  0  0  0  0
  1  5  1  0  0  0  0
  1  2  1  0  0  0  0
  2  3  1  0  0  0  0
  2  7  1  0  0  0  0
  3  9  1  0  0  0  0
  4 10  1  6  0  0  0
  4  3  1  0  0  0  0
  4 15  1  0  0  0  0
  5  4  1  0  0  0  0
  5 11  1  0  0  0  0
  6  2  1  0  0  0  0
  8  3  1  0  0  0  0
 12  5  1  0  0  0  0
 14 13  1  0  0  0  0
 14 19  1  0  0  0  0
 15 14  2  0  0  0  0
 16 15  1  0  0  0  0
 16 17  2  0  0  0  0
 17 18  1  0  0  0  0
 18 19  2  0  0  0  0
 18 22  1  0  0  0  0
 19 23  1  0  0  0  0
 20 16  1  0  0  0  0
 21 17  1  0  0  0  0
 23 29  1  0  0  0  0
 23 24  1  0  0  0  0
 24 25  1  0  0  0  0
 25 26  1  0  0  0  0
 26 27  1  0  0  0  0
 28 26  1  0  0  0  0
 29 28  1  0  0  0  0
 30  1  1  0  0  0  0
 31 30  1  0  0  0  0
 31 36  1  0  0  0  0
 32 31  2  0  0  0  0
 33 34  2  0  0  0  0
 33 32  1  0  0  0  0
 34 35  1  0  0  0  0
 35 30  2  0  0  0  0
 37 32  1  0  0  0  0
 38 34  1  0  0  0  0
M  END
>  <minimizedAffinity>
-5.35359955

$$$$

 OpenBabel03272502403D

 38 41  0  0  1  0  0  0  0  0999 V2000
   38.2390   27.0430   33.4560 N   0  0  0  0  0  0  0  0  0  0  0  0
   39.6150   27.4260   33.7320 C   0  0  0  0  0  0  0  0  0  0  0  0
   39.9380   26.6560   34.9800 C   0  0  0  0  0  0  0  0  0  0  0  0
   38.5810   25.9480   35.3930 C   0  0  1  0  0  0  0  0  0  0  0  0
   37.9870   25.7240   34.0750 C   0  0  0  0  0  0  0  0  0  0  0  0
   39.7660   28.5080   33.8150 H   0  0  0  0  0  0  0  0  0  0  0  0
   40.2350   26.9740   32.9040 H   0  0  0  0  0  0  0  0  0  0  0  0
   40.1740   27.3800   35.7790 H   0  0  0  0  0  0  0  0  0  0  0  0
   40.7060   25.8930   34.8800 H   0  0  0  0  0  0  0  0  0  0  0  0
   38.1130   26.6950   36.0310 H   0  0  0  0  0  0  0  0  0  0  0  0
   38.5160   24.9600   33.4720 H   0  0  0  0  0  0  0  0  0  0  0  0
   36.8850   25.5310   34.0820 H   0  0  0  0  0  0  0  0  0  0  0  0
   40.6680   24.2040   34.6070 F   0  0  0  0  0  0  0  0  0  0  0  0
   39.9600   24.0050   35.7310 C   0  0  0  0  0  0  0  0  0  0  0  0
   38.8980   24.7490   36.1740 C   0  0  0  0  0  0  0  0  0  0  0  0
   38.2760   24.3790   37.3800 C   0  0  0  0  0  0  0  0  0  0  0  0
   38.7050   23.3010   38.1150 C   0  0  0  0  0  0  0  0  0  0  0  0
   39.7870   22.5520   37.6450 C   0  0  0  0  0  0  0  0  0  0  0  0
   40.4140   22.9150   36.4410 C   0  0  0  0  0  0  0  0  0  0  0  0
   37.4540   25.0330   37.6310 H   0  0  0  0  0  0  0  0  0  0  0  0
   38.1640   23.1000   39.0230 H   0  0  0  0  0  0  0  0  0  0  0  0
   40.0150   21.7520   38.3010 H   0  0  0  0  0  0  0  0  0  0  0  0
   41.4990   22.1140   36.0310 N   0  0  0  0  0  0  0  0  0  0  0  0
   42.7330   21.8960   36.7360 C   0  0  0  0  0  2  0  0  0  0  0  0
   42.7680   20.3820   37.0040 C   0  0  0  0  0  2  0  0  0  0  0  0
   43.2020   19.7470   35.7110 C   0  0  0  0  0  3  0  0  0  0  0  0
   44.3300   19.7700   35.7320 H   0  0  0  0  0  0  0  0  0  0  0  0
   42.7890   20.6220   34.5760 C   0  0  0  0  0  2  0  0  0  0  0  0
   41.4990   21.3770   34.7880 C   0  0  0  0  0  2  0  0  0  0  0  0
   37.2770   27.7710   32.7330 C   0  0  0  0  0  0  0  0  0  0  0  0
   36.2600   28.3650   33.4950 C   0  0  0  0  0  0  0  0  0  0  0  0
   35.2620   29.1050   32.8390 C   0  0  0  0  0  0  0  0  0  0  0  0
   35.3660   29.1880   31.4630 N   0  0  0  0  0  0  0  0  0  0  0  0
   36.3570   28.6050   30.7700 C   0  0  0  0  0  0  0  0  0  0  0  0
   37.3140   27.8940   31.4050 N   0  0  0  0  0  0  0  0  0  0  0  0
   36.1470   28.3210   34.5680 H   0  0  0  0  0  0  0  0  0  0  0  0
   34.4720   29.5700   33.3860 H   0  0  0  0  0  0  0  0  0  0  0  0
   36.3330   28.7400   29.6980 H   0  0  0  0  0  0  0  0  0  0  0  0
  1  2  1  0  0  0  0
  1  5  1  0  0  0  0
  2  6  1  0  0  0  0
  2  3  1  0  0  0  0
  3  4  1  0  0  0  0
  3  8  1  0  0  0  0
  4 10  1  1  0  0  0
  4 15  1  0  0  0  0
  5 12  1  0  0  0  0
  5  4  1  0  0  0  0
  7  2  1  0  0  0  0
  9  3  1  0  0  0  0
 11  5  1  0  0  0  0
 13 14  1  0  0  0  0
 14 15  2  0  0  0  0
 14 19  1  0  0  0  0
 15 16  1  0  0  0  0
 16 20  1  0  0  0  0
 16 17  2  0  0  0  0
 17 21  1  0  0  0  0
 18 17  1  0  0  0  0
 18 22  1  0  0  0  0
 19 18  2  0  0  0  0
 23 19  1  0  0  0  0
 23 24  1  0  0  0  0
 24 25  1  0  0  0  0
 26 27  1  0  0  0  0
 26 25  1  0  0  0  0
 28 29  1  0  0  0  0
 28 26  1  0  0  0  0
 29 23  1  0  0  0  0
 30  1  1  0  0  0  0
 30 31  1  0  0  0  0
 31 36  1  0  0  0  0
 32 37  1  0  0  0  0
 32 31  2  0  0  0  0
 33 32  1  0  0  0  0
 34 35  1  0  0  0  0
 34 33  2  0  0  0  0
 35 30  2  0  0  0  0
 38 34  1  0  0  0  0
M  END
>  <minimizedAffinity>
-5.31910801

$$$$

 OpenBabel03272502403D

 38 41  0  0  1  0  0  0  0  0999 V2000
   38.3560   26.4140   34.7430 N   0  0  0  0  0  0  0  0  0  0  0  0
   38.5570   26.6960   33.3300 C   0  0  0  0  0  0  0  0  0  0  0  0
   37.4790   27.6960   33.0260 C   0  0  0  0  0  0  0  0  0  0  0  0
   36.6310   27.8080   34.3610 C   0  0  1  0  0  0  0  0  0  0  0  0
   37.6730   27.5710   35.3600 C   0  0  0  0  0  0  0  0  0  0  0  0
   38.5420   25.8050   32.6930 H   0  0  0  0  0  0  0  0  0  0  0  0
   39.5400   27.2480   33.2610 H   0  0  0  0  0  0  0  0  0  0  0  0
   36.8130   27.2610   32.2630 H   0  0  0  0  0  0  0  0  0  0  0  0
   37.8200   28.6920   32.7530 H   0  0  0  0  0  0  0  0  0  0  0  0
   35.8820   27.0310   34.2270 H   0  0  0  0  0  0  0  0  0  0  0  0
   38.4100   28.3950   35.4390 H   0  0  0  0  0  0  0  0  0  0  0  0
   37.2990   27.2750   36.3710 H   0  0  0  0  0  0  0  0  0  0  0  0
   34.5710   28.4740   32.5370 F   0  0  0  0  0  0  0  0  0  0  0  0
   34.9670   29.3200   33.5010 C   0  0  0  0  0  0  0  0  0  0  0  0
   35.9860   29.1240   34.3960 C   0  0  0  0  0  0  0  0  0  0  0  0
   36.2590   30.1350   35.3350 C   0  0  0  0  0  0  0  0  0  0  0  0
   35.5340   31.3020   35.3740 C   0  0  0  0  0  0  0  0  0  0  0  0
   34.5000   31.4840   34.4520 C   0  0  0  0  0  0  0  0  0  0  0  0
   34.2220   30.4790   33.5100 C   0  0  0  0  0  0  0  0  0  0  0  0
   37.0800   29.8750   35.9870 H   0  0  0  0  0  0  0  0  0  0  0  0
   35.8190   32.0120   36.1300 H   0  0  0  0  0  0  0  0  0  0  0  0
   34.0230   32.4200   34.5880 H   0  0  0  0  0  0  0  0  0  0  0  0
   33.1650   30.7340   32.6130 N   0  0  0  0  0  0  0  0  0  0  0  0
   31.8120   30.2580   32.7070 C   0  0  0  0  0  2  0  0  0  0  0  0
   30.9560   31.5320   32.8050 C   0  0  0  0  0  2  0  0  0  0  0  0
   30.8480   32.0620   31.4010 C   0  0  0  0  0  3  0  0  0  0  0  0
   29.9710   31.5160   30.9440 H   0  0  0  0  0  0  0  0  0  0  0  0
   32.0500   31.6390   30.6270 C   0  0  0  0  0  2  0  0  0  0  0  0
   33.3260   31.5460   31.4290 C   0  0  0  0  0  2  0  0  0  0  0  0
   38.7260   25.2510   35.4440 C   0  0  0  0  0  0  0  0  0  0  0  0
   37.8590   24.8560   36.4740 C   0  0  0  0  0  0  0  0  0  0  0  0
   38.1680   23.7060   37.2200 C   0  0  0  0  0  0  0  0  0  0  0  0
   39.3290   23.0430   36.8700 N   0  0  0  0  0  0  0  0  0  0  0  0
   40.1330   23.4550   35.8770 C   0  0  0  0  0  0  0  0  0  0  0  0
   39.8320   24.5610   35.1620 N   0  0  0  0  0  0  0  0  0  0  0  0
   36.9460   25.3480   36.7740 H   0  0  0  0  0  0  0  0  0  0  0  0
   37.5310   23.3760   38.0110 H   0  0  0  0  0  0  0  0  0  0  0  0
   41.0130   22.8550   35.6960 H   0  0  0  0  0  0  0  0  0  0  0  0
  1  5  1  0  0  0  0
  1 30  1  0  0  0  0
  2  1  1  0  0  0  0
  3  2  1  0  0  0  0
  3  4  1  0  0  0  0
  4 10  1  1  0  0  0
  4 15  1  0  0  0  0
  4  5  1  0  0  0  0
  5 11  1  0  0  0  0
  5 12  1  0  0  0  0
  6  2  1  0  0  0  0
  7  2  1  0  0  0  0
  8  3  1  0  0  0  0
  9  3  1  0  0  0  0
 13 14  1  0  0  0  0
 14 19  2  0  0  0  0
 14 15  1  0  0  0  0
 15 16  2  0  0  0  0
 16 17  1  0  0  0  0
 16 20  1  0  0  0  0
 17 21  1  0  0  0  0
 18 22  1  0  0  0  0
 18 17  2  0  0  0  0
 19 18  1  0  0  0  0
 23 24  1  0  0  0  0
 23 19  1  0  0  0  0
 24 25  1  0  0  0  0
 26 25  1  0  0  0  0
 27 26  1  0  0  0  0
 28 26  1  0  0  0  0
 28 29  1  0  0  0  0
 29 23  1  0  0  0  0
 30 31  1  0  0  0  0
 31 36  1  0  0  0  0
 31 32  2  0  0  0  0
 32 37  1  0  0  0  0
 33 32  1  0  0  0  0
 34 33  2  0  0  0  0
 35 30  2  0  0  0  0
 35 34  1  0  0  0  0
 38 34  1  0  0  0  0
M  END
>  <minimizedAffinity>
-5.26381922

$$$$
