
 OpenBabel03272504513D

 40 43  0  0  1  0  0  0  0  0999 V2000
   38.7540   22.8890   35.6270 N   0  0  0  0  0  0  0  0  0  0  0  0
   39.5730   22.2670   36.6330 C   0  0  0  0  0  0  0  0  0  0  0  0
   39.6390   23.0090   37.9200 C   0  0  0  0  0  0  0  0  0  0  0  0
   38.3030   23.6920   38.2070 C   0  0  0  0  0  0  0  0  0  0  0  0
   38.1490   24.7380   37.1410 C   0  0  0  0  0  0  0  0  0  0  0  0
   38.0680   24.1310   35.7770 C   0  0  1  0  0  0  0  0  0  0  0  0
   40.6060   22.0390   36.3040 H   0  0  0  0  0  0  0  0  0  0  0  0
   39.0800   21.2810   36.8520 H   0  0  0  0  0  0  0  0  0  0  0  0
   40.4230   23.7890   37.9090 H   0  0  0  0  0  0  0  0  0  0  0  0
   39.8300   22.3080   38.7570 H   0  0  0  0  0  0  0  0  0  0  0  0
   37.5420   22.8770   38.0290 H   0  0  0  0  0  0  0  0  0  0  0  0
   38.2070   24.0700   39.2220 H   0  0  0  0  0  0  0  0  0  0  0  0
   39.0040   25.4390   37.2360 H   0  0  0  0  0  0  0  0  0  0  0  0
   37.2240   25.3350   37.3070 H   0  0  0  0  0  0  0  0  0  0  0  0
   36.9960   23.9230   35.5650 H   0  0  0  0  0  0  0  0  0  0  0  0
   37.3380   21.8480   33.9270 C   0  0  0  0  0  0  0  0  0  0  0  0
   38.6170   22.2120   34.3820 C   0  0  0  0  0  0  0  0  0  0  0  0
   39.7080   21.8900   33.5790 C   0  0  0  0  0  0  0  0  0  0  0  0
   39.4660   21.2410   32.4020 N   0  0  0  0  0  0  0  0  0  0  0  0
   38.2420   20.9050   31.9900 C   0  0  0  0  0  0  0  0  0  0  0  0
   37.1800   21.2120   32.7590 N   0  0  0  0  0  0  0  0  0  0  0  0
   36.4410   22.0660   34.4980 H   0  0  0  0  0  0  0  0  0  0  0  0
   40.7080   22.1500   33.8870 H   0  0  0  0  0  0  0  0  0  0  0  0
   38.0380   20.2160   30.7290 C   0  0  0  0  0  0  0  0  0  0  0  0
   36.8790   19.5490   30.4700 C   0  0  0  0  0  0  0  0  0  0  0  0
   36.6490   18.8840   29.2870 C   0  0  0  0  0  0  0  0  0  0  0  0
   37.6820   18.9410   28.3730 C   0  0  0  0  0  0  0  0  0  0  0  0
   38.8910   19.6100   28.5870 C   0  0  0  0  0  0  0  0  0  0  0  0
   39.0250   20.2420   29.7970 N   0  0  0  0  0  0  0  0  0  0  0  0
   36.1220   19.5570   31.2430 H   0  0  0  0  0  0  0  0  0  0  0  0
   35.7470   18.3580   29.0700 H   0  0  0  0  0  0  0  0  0  0  0  0
   37.5840   18.4410   27.4100 H   0  0  0  0  0  0  0  0  0  0  0  0
   39.6700   19.6270   27.8460 H   0  0  0  0  0  0  0  0  0  0  0  0
   38.5360   25.0120   34.7360 N   0  0  0  0  0  0  0  0  0  0  0  0
   37.5100   25.7030   34.0380 C   0  0  0  0  0  2  0  0  0  0  0  0
   37.9440   27.1320   33.7150 C   0  0  0  0  0  2  0  0  0  0  0  0
   39.2930   27.1340   33.0550 C   0  0  0  0  0  3  0  0  0  0  0  0
   39.7220   28.1670   33.1110 H   0  0  0  0  0  0  0  0  0  0  0  0
   40.2780   26.1730   33.6520 C   0  0  0  0  0  2  0  0  0  0  0  0
   39.7270   25.7300   35.0140 C   0  0  0  0  0  2  0  0  0  0  0  0
  1  6  1  0  0  0  0
  1  2  1  0  0  0  0
  2  8  1  0  0  0  0
  2  3  1  0  0  0  0
  3  4  1  0  0  0  0
  3 10  1  0  0  0  0
  4 12  1  0  0  0  0
  5 13  1  0  0  0  0
  5 14  1  0  0  0  0
  5  4  1  0  0  0  0
  6 15  1  6  0  0  0
  6  5  1  0  0  0  0
  7  2  1  0  0  0  0
  9  3  1  0  0  0  0
 11  4  1  0  0  0  0
 16 17  1  0  0  0  0
 16 22  1  0  0  0  0
 17  1  1  0  0  0  0
 18 23  1  0  0  0  0
 18 17  2  0  0  0  0
 19 18  1  0  0  0  0
 20 19  2  0  0  0  0
 20 21  1  0  0  0  0
 21 16  2  0  0  0  0
 24 20  1  0  0  0  0
 25 24  1  0  0  0  0
 25 30  1  0  0  0  0
 26 25  2  0  0  0  0
 27 28  2  0  0  0  0
 27 26  1  0  0  0  0
 28 29  1  0  0  0  0
 29 24  2  0  0  0  0
 31 26  1  0  0  0  0
 32 27  1  0  0  0  0
 33 28  1  0  0  0  0
 34 40  1  0  0  0  0
 34  6  1  0  0  0  0
 35 34  1  0  0  0  0
 36 35  1  0  0  0  0
 37 38  1  0  0  0  0
 37 39  1  0  0  0  0
 37 36  1  0  0  0  0
 39 40  1  0  0  0  0
M  END
>  <minimizedAffinity>
-5.26918602

$$$$

 OpenBabel03272504513D

 40 43  0  0  1  0  0  0  0  0999 V2000
   36.0990   29.5330   31.9080 N   0  0  0  0  0  0  0  0  0  0  0  0
   36.4030   30.1290   30.6340 C   0  0  0  0  0  0  0  0  0  0  0  0
   36.2350   31.6060   30.5890 C   0  0  0  0  0  0  0  0  0  0  0  0
   36.6120   32.2240   31.9330 C   0  0  0  0  0  0  0  0  0  0  0  0
   35.5830   31.7270   32.9080 C   0  0  0  0  0  0  0  0  0  0  0  0
   35.6350   30.2410   33.0580 C   0  0  1  0  0  0  0  0  0  0  0  0
   35.8540   29.6840   29.7800 H   0  0  0  0  0  0  0  0  0  0  0  0
   37.4930   29.9210   30.4600 H   0  0  0  0  0  0  0  0  0  0  0  0
   35.1930   31.8980   30.3620 H   0  0  0  0  0  0  0  0  0  0  0  0
   36.9120   32.0450   29.8290 H   0  0  0  0  0  0  0  0  0  0  0  0
   37.6050   31.7460   32.1790 H   0  0  0  0  0  0  0  0  0  0  0  0
   36.7200   33.3050   31.9100 H   0  0  0  0  0  0  0  0  0  0  0  0
   34.5920   32.0760   32.5510 H   0  0  0  0  0  0  0  0  0  0  0  0
   35.7420   32.1800   33.9130 H   0  0  0  0  0  0  0  0  0  0  0  0
   36.3520   30.0100   33.8760 H   0  0  0  0  0  0  0  0  0  0  0  0
   35.6990   27.2690   31.0780 C   0  0  0  0  0  0  0  0  0  0  0  0
   36.2740   28.1260   32.0320 C   0  0  0  0  0  0  0  0  0  0  0  0
   37.0000   27.5490   33.0690 C   0  0  0  0  0  0  0  0  0  0  0  0
   37.1080   26.1870   33.0950 N   0  0  0  0  0  0  0  0  0  0  0  0
   36.5530   25.3920   32.1770 C   0  0  0  0  0  0  0  0  0  0  0  0
   35.8490   25.9410   31.1690 N   0  0  0  0  0  0  0  0  0  0  0  0
   35.1200   27.6460   30.2410 H   0  0  0  0  0  0  0  0  0  0  0  0
   37.4600   28.1670   33.8240 H   0  0  0  0  0  0  0  0  0  0  0  0
   36.6980   23.9500   32.2490 C   0  0  0  0  0  0  0  0  0  0  0  0
   35.9170   23.1260   31.4970 C   0  0  0  0  0  0  0  0  0  0  0  0
   36.0250   21.7540   31.5370 C   0  0  0  0  0  0  0  0  0  0  0  0
   36.9870   21.2670   32.3990 C   0  0  0  0  0  0  0  0  0  0  0  0
   37.8150   22.0670   33.1920 C   0  0  0  0  0  0  0  0  0  0  0  0
   37.6320   23.4220   33.0820 N   0  0  0  0  0  0  0  0  0  0  0  0
   35.1880   23.5930   30.8480 H   0  0  0  0  0  0  0  0  0  0  0  0
   35.4200   21.0960   30.9550 H   0  0  0  0  0  0  0  0  0  0  0  0
   37.1400   20.1930   32.4940 H   0  0  0  0  0  0  0  0  0  0  0  0
   38.5530   21.6440   33.8510 H   0  0  0  0  0  0  0  0  0  0  0  0
   34.3690   29.6640   33.4380 N   0  0  0  0  0  0  0  0  0  0  0  0
   34.1770   29.5260   34.8370 C   0  0  0  0  0  2  0  0  0  0  0  0
   32.7290   29.8360   35.2170 C   0  0  0  0  0  2  0  0  0  0  0  0
   31.7810   29.0560   34.3520 C   0  0  0  0  0  3  0  0  0  0  0  0
   30.7630   29.5170   34.4260 H   0  0  0  0  0  0  0  0  0  0  0  0
   32.1740   28.9880   32.9060 C   0  0  0  0  0  2  0  0  0  0  0  0
   33.2460   30.0590   32.6660 C   0  0  0  0  0  2  0  0  0  0  0  0
  1 17  1  0  0  0  0
  1  6  1  0  0  0  0
  2  1  1  0  0  0  0
  3  2  1  0  0  0  0
  3  4  1  0  0  0  0
  4 11  1  0  0  0  0
  4  5  1  0  0  0  0
  5  6  1  0  0  0  0
  5 14  1  0  0  0  0
  6 34  1  0  0  0  0
  6 15  1  1  0  0  0
  7  2  1  0  0  0  0
  8  2  1  0  0  0  0
  9  3  1  0  0  0  0
 10  3  1  0  0  0  0
 12  4  1  0  0  0  0
 13  5  1  0  0  0  0
 16 21  2  0  0  0  0
 16 17  1  0  0  0  0
 17 18  2  0  0  0  0
 18 19  1  0  0  0  0
 18 23  1  0  0  0  0
 20 24  1  0  0  0  0
 20 19  2  0  0  0  0
 21 20  1  0  0  0  0
 22 16  1  0  0  0  0
 24 29  1  0  0  0  0
 25 26  1  0  0  0  0
 25 24  2  0  0  0  0
 26 27  2  0  0  0  0
 27 32  1  0  0  0  0
 27 28  1  0  0  0  0
 28 33  1  0  0  0  0
 29 28  2  0  0  0  0
 30 25  1  0  0  0  0
 31 26  1  0  0  0  0
 34 35  1  0  0  0  0
 35 36  1  0  0  0  0
 37 38  1  0  0  0  0
 37 36  1  0  0  0  0
 39 37  1  0  0  0  0
 40 39  1  0  0  0  0
 40 34  1  0  0  0  0
M  END
>  <minimizedAffinity>
-5.1292448

$$$$

 OpenBabel03272504513D

 40 43  0  0  1  0  0  0  0  0999 V2000
   37.3330   26.2800   31.0210 N   0  0  0  0  0  0  0  0  0  0  0  0
   36.3360   27.0240   30.3000 C   0  0  0  0  0  0  0  0  0  0  0  0
   36.6380   28.4720   30.1460 C   0  0  0  0  0  0  0  0  0  0  0  0
   38.1420   28.6860   29.9910 C   0  0  0  0  0  0  0  0  0  0  0  0
   38.7440   28.2820   31.3060 C   0  0  0  0  0  0  0  0  0  0  0  0
   38.5160   26.8330   31.5980 C   0  0  1  0  0  0  0  0  0  0  0  0
   35.3090   26.9180   30.7010 H   0  0  0  0  0  0  0  0  0  0  0  0
   36.3240   26.5830   29.2670 H   0  0  0  0  0  0  0  0  0  0  0  0
   36.3000   29.0610   31.0180 H   0  0  0  0  0  0  0  0  0  0  0  0
   36.1590   28.8670   29.2280 H   0  0  0  0  0  0  0  0  0  0  0  0
   38.4420   27.9290   29.2070 H   0  0  0  0  0  0  0  0  0  0  0  0
   38.4170   29.6840   29.6610 H   0  0  0  0  0  0  0  0  0  0  0  0
   38.3070   28.9390   32.0870 H   0  0  0  0  0  0  0  0  0  0  0  0
   39.8420   28.4640   31.3090 H   0  0  0  0  0  0  0  0  0  0  0  0
   39.3690   26.2650   31.1660 H   0  0  0  0  0  0  0  0  0  0  0  0
   35.8850   24.4100   31.6430 C   0  0  0  0  0  0  0  0  0  0  0  0
   37.1250   24.8800   31.1740 C   0  0  0  0  0  0  0  0  0  0  0  0
   38.1040   23.9380   30.8740 C   0  0  0  0  0  0  0  0  0  0  0  0
   37.8010   22.6190   31.0550 N   0  0  0  0  0  0  0  0  0  0  0  0
   36.6160   22.1960   31.5020 C   0  0  0  0  0  0  0  0  0  0  0  0
   35.6610   23.0990   31.7940 N   0  0  0  0  0  0  0  0  0  0  0  0
   35.0740   25.0850   31.8960 H   0  0  0  0  0  0  0  0  0  0  0  0
   39.0700   24.2510   30.5100 H   0  0  0  0  0  0  0  0  0  0  0  0
   36.3420   20.7810   31.6760 C   0  0  0  0  0  0  0  0  0  0  0  0
   35.1040   20.3420   32.0340 C   0  0  0  0  0  0  0  0  0  0  0  0
   34.8060   19.0090   32.2090 C   0  0  0  0  0  0  0  0  0  0  0  0
   35.8580   18.1420   31.9950 C   0  0  0  0  0  0  0  0  0  0  0  0
   37.1470   18.5370   31.6270 C   0  0  0  0  0  0  0  0  0  0  0  0
   37.3440   19.8860   31.4770 N   0  0  0  0  0  0  0  0  0  0  0  0
   34.3380   21.0920   32.1810 H   0  0  0  0  0  0  0  0  0  0  0  0
   33.8410   18.6510   32.4890 H   0  0  0  0  0  0  0  0  0  0  0  0
   35.7100   17.0690   32.1120 H   0  0  0  0  0  0  0  0  0  0  0  0
   37.9380   17.8250   31.4700 H   0  0  0  0  0  0  0  0  0  0  0  0
   38.4890   26.5360   33.0080 N   0  0  0  0  0  0  0  0  0  0  0  0
   39.7590   26.2600   33.5800 C   0  0  0  0  0  2  0  0  0  0  0  0
   39.8610   26.8580   34.9830 C   0  0  0  0  0  2  0  0  0  0  0  0
   38.6750   26.4580   35.8120 C   0  0  0  0  0  3  0  0  0  0  0  0
   38.6080   27.1380   36.7000 H   0  0  0  0  0  0  0  0  0  0  0  0
   37.3660   26.4930   35.0810 C   0  0  0  0  0  2  0  0  0  0  0  0
   37.5780   27.2940   33.7890 C   0  0  0  0  0  2  0  0  0  0  0  0
  1 17  1  0  0  0  0
  1  6  1  0  0  0  0
  2  7  1  0  0  0  0
  2  1  1  0  0  0  0
  3  2  1  0  0  0  0
  3  9  1  0  0  0  0
  4  3  1  0  0  0  0
  4  5  1  0  0  0  0
  5 14  1  0  0  0  0
  5  6  1  0  0  0  0
  5 13  1  0  0  0  0
  6 15  1  6  0  0  0
  6 34  1  0  0  0  0
  8  2  1  0  0  0  0
 10  3  1  0  0  0  0
 11  4  1  0  0  0  0
 12  4  1  0  0  0  0
 16 21  1  0  0  0  0
 16 22  1  0  0  0  0
 17 16  2  0  0  0  0
 18 19  2  0  0  0  0
 18 17  1  0  0  0  0
 19 20  1  0  0  0  0
 20 24  1  0  0  0  0
 20 21  2  0  0  0  0
 23 18  1  0  0  0  0
 24 25  1  0  0  0  0
 25 30  1  0  0  0  0
 25 26  2  0  0  0  0
 26 31  1  0  0  0  0
 27 32  1  0  0  0  0
 27 26  1  0  0  0  0
 28 27  2  0  0  0  0
 29 28  1  0  0  0  0
 29 24  2  0  0  0  0
 33 28  1  0  0  0  0
 34 35  1  0  0  0  0
 34 40  1  0  0  0  0
 35 36  1  0  0  0  0
 36 37  1  0  0  0  0
 37 38  1  0  0  0  0
 39 37  1  0  0  0  0
 40 39  1  0  0  0  0
M  END
>  <minimizedAffinity>
-5.12047625

$$$$

 OpenBabel03272504513D

 40 43  0  0  1  0  0  0  0  0999 V2000
   36.6480   27.1220   31.5570 N   0  0  0  0  0  0  0  0  0  0  0  0
   36.0070   27.9480   32.5440 C   0  0  0  0  0  0  0  0  0  0  0  0
   36.2320   29.4080   32.3660 C   0  0  0  0  0  0  0  0  0  0  0  0
   36.3100   29.7550   30.8810 C   0  0  0  0  0  0  0  0  0  0  0  0
   37.5560   29.0860   30.3760 C   0  0  0  0  0  0  0  0  0  0  0  0
   37.4730   27.5980   30.4940 C   0  0  1  0  0  0  0  0  0  0  0  0
   36.2490   27.6790   33.5910 H   0  0  0  0  0  0  0  0  0  0  0  0
   34.9060   27.7710   32.4120 H   0  0  0  0  0  0  0  0  0  0  0  0
   37.1710   29.7440   32.8420 H   0  0  0  0  0  0  0  0  0  0  0  0
   35.3810   29.9800   32.7880 H   0  0  0  0  0  0  0  0  0  0  0  0
   35.4130   29.2320   30.4360 H   0  0  0  0  0  0  0  0  0  0  0  0
   36.2570   30.8200   30.6710 H   0  0  0  0  0  0  0  0  0  0  0  0
   38.4110   29.5030   30.9480 H   0  0  0  0  0  0  0  0  0  0  0  0
   37.7310   29.3370   29.3050 H   0  0  0  0  0  0  0  0  0  0  0  0
   37.0250   27.2110   29.5530 H   0  0  0  0  0  0  0  0  0  0  0  0
   37.2180   24.9580   32.5430 C   0  0  0  0  0  0  0  0  0  0  0  0
   36.4440   25.7150   31.6460 C   0  0  0  0  0  0  0  0  0  0  0  0
   35.4980   25.0440   30.8780 C   0  0  0  0  0  0  0  0  0  0  0  0
   35.3830   23.6920   31.0420 N   0  0  0  0  0  0  0  0  0  0  0  0
   36.1290   22.9940   31.9000 C   0  0  0  0  0  0  0  0  0  0  0  0
   37.0460   23.6340   32.6490 N   0  0  0  0  0  0  0  0  0  0  0  0
   37.9740   25.4120   33.1760 H   0  0  0  0  0  0  0  0  0  0  0  0
   34.8810   25.5830   30.1770 H   0  0  0  0  0  0  0  0  0  0  0  0
   35.9660   21.5580   32.0380 C   0  0  0  0  0  0  0  0  0  0  0  0
   36.1080   20.7270   30.9690 C   0  0  0  0  0  0  0  0  0  0  0  0
   35.9620   19.3610   31.0610 C   0  0  0  0  0  0  0  0  0  0  0  0
   35.6590   18.8880   32.3220 C   0  0  0  0  0  0  0  0  0  0  0  0
   35.5030   19.6960   33.4530 C   0  0  0  0  0  0  0  0  0  0  0  0
   35.6680   21.0430   33.2590 N   0  0  0  0  0  0  0  0  0  0  0  0
   36.3470   21.1830   30.0170 H   0  0  0  0  0  0  0  0  0  0  0  0
   36.0700   18.6980   30.2330 H   0  0  0  0  0  0  0  0  0  0  0  0
   35.5260   17.8200   32.4840 H   0  0  0  0  0  0  0  0  0  0  0  0
   35.2660   19.2830   34.4180 H   0  0  0  0  0  0  0  0  0  0  0  0
   38.7620   26.9670   30.6320 N   0  0  0  0  0  0  0  0  0  0  0  0
   39.3470   26.5410   29.4110 C   0  0  0  0  0  2  0  0  0  0  0  0
   40.8570   26.7780   29.4220 C   0  0  0  0  0  2  0  0  0  0  0  0
   41.4680   26.2060   30.6690 C   0  0  0  0  0  3  0  0  0  0  0  0
   42.4870   26.6500   30.8080 H   0  0  0  0  0  0  0  0  0  0  0  0
   40.6680   26.4390   31.9160 C   0  0  0  0  0  2  0  0  0  0  0  0
   39.6300   27.5260   31.6040 C   0  0  0  0  0  2  0  0  0  0  0  0
  1 17  1  0  0  0  0
  1  2  1  0  0  0  0
  2  7  1  0  0  0  0
  3  2  1  0  0  0  0
  3 10  1  0  0  0  0
  3  9  1  0  0  0  0
  4  3  1  0  0  0  0
  5  6  1  0  0  0  0
  5  4  1  0  0  0  0
  5 13  1  0  0  0  0
  6 15  1  6  0  0  0
  6 34  1  0  0  0  0
  6  1  1  0  0  0  0
  8  2  1  0  0  0  0
 11  4  1  0  0  0  0
 12  4  1  0  0  0  0
 14  5  1  0  0  0  0
 16 21  1  0  0  0  0
 16 22  1  0  0  0  0
 17 16  2  0  0  0  0
 18 19  2  0  0  0  0
 18 17  1  0  0  0  0
 19 20  1  0  0  0  0
 20 24  1  0  0  0  0
 20 21  2  0  0  0  0
 23 18  1  0  0  0  0
 24 29  1  0  0  0  0
 25 26  1  0  0  0  0
 25 24  2  0  0  0  0
 26 27  2  0  0  0  0
 27 32  1  0  0  0  0
 27 28  1  0  0  0  0
 28 33  1  0  0  0  0
 29 28  2  0  0  0  0
 30 25  1  0  0  0  0
 31 26  1  0  0  0  0
 34 40  1  0  0  0  0
 35 36  1  0  0  0  0
 35 34  1  0  0  0  0
 36 37  1  0  0  0  0
 37 38  1  0  0  0  0
 37 39  1  0  0  0  0
 40 39  1  0  0  0  0
M  END
>  <minimizedAffinity>
-5.1002183

$$$$

 OpenBabel03272504513D

 40 43  0  0  1  0  0  0  0  0999 V2000
   38.5990   24.3990   35.3820 N   0  0  0  0  0  0  0  0  0  0  0  0
   38.0670   24.7240   36.6780 C   0  0  0  0  0  0  0  0  0  0  0  0
   38.3040   23.6880   37.7180 C   0  0  0  0  0  0  0  0  0  0  0  0
   39.6530   23.0090   37.4930 C   0  0  0  0  0  0  0  0  0  0  0  0
   39.5170   22.2610   36.1980 C   0  0  0  0  0  0  0  0  0  0  0  0
   39.2730   23.1850   35.0490 C   0  0  1  0  0  0  0  0  0  0  0  0
   36.9900   24.9840   36.6770 H   0  0  0  0  0  0  0  0  0  0  0  0
   38.6210   25.6450   37.0050 H   0  0  0  0  0  0  0  0  0  0  0  0
   37.5240   22.9040   37.7080 H   0  0  0  0  0  0  0  0  0  0  0  0
   38.3400   24.1550   38.7230 H   0  0  0  0  0  0  0  0  0  0  0  0
   40.3660   23.8720   37.3410 H   0  0  0  0  0  0  0  0  0  0  0  0
   39.9870   22.3990   38.3290 H   0  0  0  0  0  0  0  0  0  0  0  0
   38.6950   21.5260   36.3240 H   0  0  0  0  0  0  0  0  0  0  0  0
   40.4410   21.6790   35.9810 H   0  0  0  0  0  0  0  0  0  0  0  0
   40.2640   23.4810   34.6390 H   0  0  0  0  0  0  0  0  0  0  0  0
   37.1570   25.8540   34.0470 C   0  0  0  0  0  0  0  0  0  0  0  0
   38.4400   25.3640   34.3470 C   0  0  0  0  0  0  0  0  0  0  0  0
   39.5120   25.8550   33.6070 C   0  0  0  0  0  0  0  0  0  0  0  0
   39.2500   26.7800   32.6370 N   0  0  0  0  0  0  0  0  0  0  0  0
   38.0220   27.2310   32.3690 C   0  0  0  0  0  0  0  0  0  0  0  0
   36.9790   26.7630   33.0800 N   0  0  0  0  0  0  0  0  0  0  0  0
   36.2740   25.5180   34.5810 H   0  0  0  0  0  0  0  0  0  0  0  0
   40.5140   25.5090   33.8030 H   0  0  0  0  0  0  0  0  0  0  0  0
   37.7960   28.2160   31.3280 C   0  0  0  0  0  0  0  0  0  0  0  0
   36.7410   29.0750   31.3880 C   0  0  0  0  0  0  0  0  0  0  0  0
   36.4940   30.0230   30.4200 C   0  0  0  0  0  0  0  0  0  0  0  0
   37.3970   30.0420   29.3760 C   0  0  0  0  0  0  0  0  0  0  0  0
   38.4960   29.1850   29.2650 C   0  0  0  0  0  0  0  0  0  0  0  0
   38.6570   28.2760   30.2790 N   0  0  0  0  0  0  0  0  0  0  0  0
   36.0830   28.9900   32.2420 H   0  0  0  0  0  0  0  0  0  0  0  0
   35.6720   30.7010   30.4530 H   0  0  0  0  0  0  0  0  0  0  0  0
   37.2770   30.7600   28.5660 H   0  0  0  0  0  0  0  0  0  0  0  0
   39.1750   29.2350   28.4320 H   0  0  0  0  0  0  0  0  0  0  0  0
   38.5430   22.5680   33.9690 N   0  0  0  0  0  0  0  0  0  0  0  0
   39.3540   22.0440   32.9290 C   0  0  0  0  0  2  0  0  0  0  0  0
   38.7790   20.7290   32.4040 C   0  0  0  0  0  2  0  0  0  0  0  0
   37.3220   20.8880   32.0740 C   0  0  0  0  0  3  0  0  0  0  0  0
   36.8560   19.8730   31.9960 H   0  0  0  0  0  0  0  0  0  0  0  0
   36.5450   21.6980   33.0700 C   0  0  0  0  0  2  0  0  0  0  0  0
   37.3990   21.8150   34.3390 C   0  0  0  0  0  2  0  0  0  0  0  0
  1  2  1  0  0  0  0
  2  8  1  0  0  0  0
  2  3  1  0  0  0  0
  3 10  1  0  0  0  0
  4  3  1  0  0  0  0
  4 12  1  0  0  0  0
  5 13  1  0  0  0  0
  5  4  1  0  0  0  0
  6 15  1  6  0  0  0
  6  1  1  0  0  0  0
  6  5  1  0  0  0  0
  7  2  1  0  0  0  0
  9  3  1  0  0  0  0
 11  4  1  0  0  0  0
 14  5  1  0  0  0  0
 16 17  1  0  0  0  0
 16 22  1  0  0  0  0
 17  1  1  0  0  0  0
 18 23  1  0  0  0  0
 18 17  2  0  0  0  0
 19 18  1  0  0  0  0
 20 19  2  0  0  0  0
 20 21  1  0  0  0  0
 21 16  2  0  0  0  0
 24 25  1  0  0  0  0
 24 20  1  0  0  0  0
 25 30  1  0  0  0  0
 26 31  1  0  0  0  0
 26 25  2  0  0  0  0
 27 26  1  0  0  0  0
 28 27  2  0  0  0  0
 28 29  1  0  0  0  0
 29 24  2  0  0  0  0
 32 27  1  0  0  0  0
 33 28  1  0  0  0  0
 34 40  1  0  0  0  0
 34  6  1  0  0  0  0
 35 34  1  0  0  0  0
 36 35  1  0  0  0  0
 37 36  1  0  0  0  0
 37 39  1  0  0  0  0
 38 37  1  0  0  0  0
 39 40  1  0  0  0  0
M  END
>  <minimizedAffinity>
-5.094028

$$$$

 OpenBabel03272504513D

 40 43  0  0  1  0  0  0  0  0999 V2000
   35.2270   30.7980   34.7210 N   0  0  0  0  0  0  0  0  0  0  0  0
   36.0070   32.0000   34.5990 C   0  0  0  0  0  0  0  0  0  0  0  0
   35.5460   33.1240   35.4580 C   0  0  0  0  0  0  0  0  0  0  0  0
   35.0000   32.5900   36.7800 C   0  0  0  0  0  0  0  0  0  0  0  0
   33.7630   31.8180   36.4220 C   0  0  0  0  0  0  0  0  0  0  0  0
   34.0750   30.6440   35.5510 C   0  0  1  0  0  0  0  0  0  0  0  0
   36.1140   32.3700   33.5600 H   0  0  0  0  0  0  0  0  0  0  0  0
   37.0370   31.7240   34.9500 H   0  0  0  0  0  0  0  0  0  0  0  0
   34.7470   33.7140   34.9740 H   0  0  0  0  0  0  0  0  0  0  0  0
   36.3970   33.7900   35.7040 H   0  0  0  0  0  0  0  0  0  0  0  0
   35.7930   31.8640   37.1250 H   0  0  0  0  0  0  0  0  0  0  0  0
   34.8470   33.3550   37.5370 H   0  0  0  0  0  0  0  0  0  0  0  0
   33.0590   32.5250   35.9350 H   0  0  0  0  0  0  0  0  0  0  0  0
   33.2560   31.4400   37.3390 H   0  0  0  0  0  0  0  0  0  0  0  0
   34.2830   29.7770   36.2160 H   0  0  0  0  0  0  0  0  0  0  0  0
   36.2460   28.5790   34.5960 C   0  0  0  0  0  0  0  0  0  0  0  0
   35.6350   29.6700   33.9540 C   0  0  0  0  0  0  0  0  0  0  0  0
   35.4520   29.5940   32.5760 C   0  0  0  0  0  0  0  0  0  0  0  0
   35.8790   28.4660   31.9350 N   0  0  0  0  0  0  0  0  0  0  0  0
   36.4580   27.4420   32.5650 C   0  0  0  0  0  0  0  0  0  0  0  0
   36.6380   27.5050   33.8980 N   0  0  0  0  0  0  0  0  0  0  0  0
   36.4210   28.5660   35.6670 H   0  0  0  0  0  0  0  0  0  0  0  0
   34.9870   30.4070   32.0420 H   0  0  0  0  0  0  0  0  0  0  0  0
   36.8930   26.2630   31.8380 C   0  0  0  0  0  0  0  0  0  0  0  0
   36.0400   25.2310   31.5940 C   0  0  0  0  0  0  0  0  0  0  0  0
   36.4160   24.0980   30.9080 C   0  0  0  0  0  0  0  0  0  0  0  0
   37.7290   24.0800   30.4820 C   0  0  0  0  0  0  0  0  0  0  0  0
   38.6460   25.1110   30.7050 C   0  0  0  0  0  0  0  0  0  0  0  0
   38.1760   26.1980   31.3980 N   0  0  0  0  0  0  0  0  0  0  0  0
   35.0280   25.3290   31.9630 H   0  0  0  0  0  0  0  0  0  0  0  0
   35.7590   23.2820   30.7090 H   0  0  0  0  0  0  0  0  0  0  0  0
   38.1100   23.2220   29.9320 H   0  0  0  0  0  0  0  0  0  0  0  0
   39.6620   25.0550   30.3550 H   0  0  0  0  0  0  0  0  0  0  0  0
   32.9770   30.2620   34.6990 N   0  0  0  0  0  0  0  0  0  0  0  0
   32.1400   29.2460   35.2300 C   0  0  0  0  0  2  0  0  0  0  0  0
   30.6750   29.5170   34.8860 C   0  0  0  0  0  2  0  0  0  0  0  0
   30.5220   29.7810   33.4160 C   0  0  0  0  0  3  0  0  0  0  0  0
   29.5310   30.2720   33.2380 H   0  0  0  0  0  0  0  0  0  0  0  0
   31.5980   30.6420   32.8240 C   0  0  0  0  0  2  0  0  0  0  0  0
   32.3450   31.3130   33.9850 C   0  0  0  0  0  2  0  0  0  0  0  0
  1  6  1  0  0  0  0
  2  1  1  0  0  0  0
  2  8  1  0  0  0  0
  2  3  1  0  0  0  0
  3 10  1  0  0  0  0
  3  4  1  0  0  0  0
  4 11  1  0  0  0  0
  4 12  1  0  0  0  0
  5  4  1  0  0  0  0
  5 14  1  0  0  0  0
  6 15  1  1  0  0  0
  6  5  1  0  0  0  0
  7  2  1  0  0  0  0
  9  3  1  0  0  0  0
 13  5  1  0  0  0  0
 16 22  1  0  0  0  0
 17 16  1  0  0  0  0
 17  1  1  0  0  0  0
 18 17  2  0  0  0  0
 19 20  2  0  0  0  0
 19 18  1  0  0  0  0
 20 21  1  0  0  0  0
 21 16  2  0  0  0  0
 23 18  1  0  0  0  0
 24 20  1  0  0  0  0
 25 24  1  0  0  0  0
 25 30  1  0  0  0  0
 26 25  2  0  0  0  0
 27 28  2  0  0  0  0
 27 26  1  0  0  0  0
 28 29  1  0  0  0  0
 29 24  2  0  0  0  0
 31 26  1  0  0  0  0
 32 27  1  0  0  0  0
 33 28  1  0  0  0  0
 34 35  1  0  0  0  0
 34  6  1  0  0  0  0
 36 35  1  0  0  0  0
 37 36  1  0  0  0  0
 38 37  1  0  0  0  0
 39 37  1  0  0  0  0
 39 40  1  0  0  0  0
 40 34  1  0  0  0  0
M  END
>  <minimizedAffinity>
-5.09115124

$$$$

 OpenBabel03272504513D

 40 43  0  0  1  0  0  0  0  0999 V2000
   37.1410   25.7200   32.1210 N   0  0  0  0  0  0  0  0  0  0  0  0
   36.1340   24.8420   31.5890 C   0  0  0  0  0  0  0  0  0  0  0  0
   36.6670   23.6130   30.9420 C   0  0  0  0  0  0  0  0  0  0  0  0
   37.9220   23.1340   31.6680 C   0  0  0  0  0  0  0  0  0  0  0  0
   38.9540   24.1980   31.4330 C   0  0  0  0  0  0  0  0  0  0  0  0
   38.5500   25.5050   32.0340 C   0  0  1  0  0  0  0  0  0  0  0  0
   35.4260   25.3300   30.8900 H   0  0  0  0  0  0  0  0  0  0  0  0
   35.5310   24.5070   32.4750 H   0  0  0  0  0  0  0  0  0  0  0  0
   36.9320   23.7840   29.8830 H   0  0  0  0  0  0  0  0  0  0  0  0
   35.9230   22.7940   31.0070 H   0  0  0  0  0  0  0  0  0  0  0  0
   37.6250   23.1520   32.7580 H   0  0  0  0  0  0  0  0  0  0  0  0
   38.2400   22.1330   31.3900 H   0  0  0  0  0  0  0  0  0  0  0  0
   39.1090   24.2740   30.3360 H   0  0  0  0  0  0  0  0  0  0  0  0
   39.9320   23.9040   31.8770 H   0  0  0  0  0  0  0  0  0  0  0  0
   38.9330   25.5290   33.0780 H   0  0  0  0  0  0  0  0  0  0  0  0
   35.8910   27.8210   32.0990 C   0  0  0  0  0  0  0  0  0  0  0  0
   36.6980   26.8990   32.7860 C   0  0  0  0  0  0  0  0  0  0  0  0
   37.0310   27.1850   34.1070 C   0  0  0  0  0  0  0  0  0  0  0  0
   36.5530   28.3430   34.6510 N   0  0  0  0  0  0  0  0  0  0  0  0
   35.7870   29.2050   33.9790 C   0  0  0  0  0  0  0  0  0  0  0  0
   35.4590   28.9370   32.7010 N   0  0  0  0  0  0  0  0  0  0  0  0
   35.5900   27.6660   31.0670 H   0  0  0  0  0  0  0  0  0  0  0  0
   37.6470   26.5050   34.6740 H   0  0  0  0  0  0  0  0  0  0  0  0
   35.3030   30.4230   34.6030 C   0  0  0  0  0  0  0  0  0  0  0  0
   35.9780   31.0020   35.6340 C   0  0  0  0  0  0  0  0  0  0  0  0
   35.5510   32.1560   36.2510 C   0  0  0  0  0  0  0  0  0  0  0  0
   34.3810   32.6900   35.7480 C   0  0  0  0  0  0  0  0  0  0  0  0
   33.6490   32.1370   34.6930 C   0  0  0  0  0  0  0  0  0  0  0  0
   34.1570   30.9870   34.1440 N   0  0  0  0  0  0  0  0  0  0  0  0
   36.8860   30.5160   35.9640 H   0  0  0  0  0  0  0  0  0  0  0  0
   36.0680   32.6200   37.0590 H   0  0  0  0  0  0  0  0  0  0  0  0
   33.9710   33.6020   36.1780 H   0  0  0  0  0  0  0  0  0  0  0  0
   32.7410   32.5880   34.3330 H   0  0  0  0  0  0  0  0  0  0  0  0
   39.1190   26.6430   31.3560 N   0  0  0  0  0  0  0  0  0  0  0  0
   40.3130   27.1430   31.9380 C   0  0  0  0  0  2  0  0  0  0  0  0
   41.2980   27.5860   30.8560 C   0  0  0  0  0  2  0  0  0  0  0  0
   40.6230   28.4990   29.8730 C   0  0  0  0  0  3  0  0  0  0  0  0
   41.2470   28.5580   28.9450 H   0  0  0  0  0  0  0  0  0  0  0  0
   39.2330   28.0820   29.4910 C   0  0  0  0  0  2  0  0  0  0  0  0
   39.0470   26.6260   29.9390 C   0  0  0  0  0  2  0  0  0  0  0  0
  1 17  1  0  0  0  0
  2  1  1  0  0  0  0
  2  8  1  0  0  0  0
  3 10  1  0  0  0  0
  3  2  1  0  0  0  0
  3  4  1  0  0  0  0
  4 11  1  0  0  0  0
  5  4  1  0  0  0  0
  5 14  1  0  0  0  0
  5  6  1  0  0  0  0
  6  1  1  0  0  0  0
  6 15  1  1  0  0  0
  7  2  1  0  0  0  0
  9  3  1  0  0  0  0
 12  4  1  0  0  0  0
 13  5  1  0  0  0  0
 16 21  2  0  0  0  0
 16 17  1  0  0  0  0
 17 18  2  0  0  0  0
 18 19  1  0  0  0  0
 18 23  1  0  0  0  0
 20 24  1  0  0  0  0
 20 19  2  0  0  0  0
 21 20  1  0  0  0  0
 22 16  1  0  0  0  0
 24 25  1  0  0  0  0
 25 30  1  0  0  0  0
 25 26  2  0  0  0  0
 26 31  1  0  0  0  0
 27 32  1  0  0  0  0
 27 26  1  0  0  0  0
 28 27  2  0  0  0  0
 29 24  2  0  0  0  0
 29 28  1  0  0  0  0
 33 28  1  0  0  0  0
 34 35  1  0  0  0  0
 34  6  1  0  0  0  0
 36 35  1  0  0  0  0
 37 36  1  0  0  0  0
 38 37  1  0  0  0  0
 39 37  1  0  0  0  0
 39 40  1  0  0  0  0
 40 34  1  0  0  0  0
M  END
>  <minimizedAffinity>
-5.05899715

$$$$

 OpenBabel03272504513D

 40 43  0  0  1  0  0  0  0  0999 V2000
   36.9250   26.3520   32.9920 N   0  0  0  0  0  0  0  0  0  0  0  0
   37.3140   26.4510   34.3730 C   0  0  0  0  0  0  0  0  0  0  0  0
   37.1930   27.8170   34.9500 C   0  0  0  0  0  0  0  0  0  0  0  0
   35.9940   28.5440   34.3450 C   0  0  0  0  0  0  0  0  0  0  0  0
   36.3330   28.7430   32.8960 C   0  0  0  0  0  0  0  0  0  0  0  0
   36.4870   27.4410   32.1790 C   0  0  1  0  0  0  0  0  0  0  0  0
   38.3290   26.0650   34.5900 H   0  0  0  0  0  0  0  0  0  0  0  0
   36.5940   25.7970   34.9340 H   0  0  0  0  0  0  0  0  0  0  0  0
   38.0930   28.4290   34.7580 H   0  0  0  0  0  0  0  0  0  0  0  0
   37.0160   27.7560   36.0430 H   0  0  0  0  0  0  0  0  0  0  0  0
   35.1560   27.7890   34.4210 H   0  0  0  0  0  0  0  0  0  0  0  0
   35.7170   29.4550   34.8690 H   0  0  0  0  0  0  0  0  0  0  0  0
   37.2580   29.3550   32.8530 H   0  0  0  0  0  0  0  0  0  0  0  0
   35.5360   29.3260   32.3820 H   0  0  0  0  0  0  0  0  0  0  0  0
   35.4870   27.1530   31.7840 H   0  0  0  0  0  0  0  0  0  0  0  0
   38.1460   24.2880   32.5150 C   0  0  0  0  0  0  0  0  0  0  0  0
   36.9820   25.0640   32.3850 C   0  0  0  0  0  0  0  0  0  0  0  0
   35.9210   24.5290   31.6610 C   0  0  0  0  0  0  0  0  0  0  0  0
   36.0790   23.2840   31.1210 N   0  0  0  0  0  0  0  0  0  0  0  0
   37.1950   22.5640   31.2570 C   0  0  0  0  0  0  0  0  0  0  0  0
   38.2260   23.0730   31.9570 N   0  0  0  0  0  0  0  0  0  0  0  0
   39.0130   24.6390   33.0650 H   0  0  0  0  0  0  0  0  0  0  0  0
   35.0070   25.0880   31.5360 H   0  0  0  0  0  0  0  0  0  0  0  0
   37.3120   21.2440   30.6640 C   0  0  0  0  0  0  0  0  0  0  0  0
   36.3200   20.3220   30.7970 C   0  0  0  0  0  0  0  0  0  0  0  0
   36.3950   19.0610   30.2490 C   0  0  0  0  0  0  0  0  0  0  0  0
   37.5560   18.7940   29.5510 C   0  0  0  0  0  0  0  0  0  0  0  0
   38.6040   19.7040   29.3830 C   0  0  0  0  0  0  0  0  0  0  0  0
   38.4350   20.9340   29.9660 N   0  0  0  0  0  0  0  0  0  0  0  0
   35.4450   20.6150   31.3610 H   0  0  0  0  0  0  0  0  0  0  0  0
   35.6270   18.3280   30.3460 H   0  0  0  0  0  0  0  0  0  0  0  0
   37.6980   17.8200   29.0850 H   0  0  0  0  0  0  0  0  0  0  0  0
   39.4920   19.4530   28.8300 H   0  0  0  0  0  0  0  0  0  0  0  0
   37.3750   27.5180   31.0460 N   0  0  0  0  0  0  0  0  0  0  0  0
   36.8140   28.1280   29.8930 C   0  0  0  0  0  2  0  0  0  0  0  0
   37.8530   28.9940   29.1800 C   0  0  0  0  0  2  0  0  0  0  0  0
   39.1170   28.2150   28.9510 C   0  0  0  0  0  3  0  0  0  0  0  0
   39.9460   28.9320   28.7230 H   0  0  0  0  0  0  0  0  0  0  0  0
   39.5320   27.3530   30.1060 C   0  0  0  0  0  2  0  0  0  0  0  0
   38.7330   27.8080   31.3350 C   0  0  0  0  0  2  0  0  0  0  0  0
  1  2  1  0  0  0  0
  2  7  1  0  0  0  0
  2  8  1  0  0  0  0
  2  3  1  0  0  0  0
  3 10  1  0  0  0  0
  4 11  1  0  0  0  0
  4 12  1  0  0  0  0
  4  3  1  0  0  0  0
  5  4  1  0  0  0  0
  6 15  1  6  0  0  0
  6  5  1  0  0  0  0
  6  1  1  0  0  0  0
  9  3  1  0  0  0  0
 13  5  1  0  0  0  0
 14  5  1  0  0  0  0
 16 22  1  0  0  0  0
 17 16  1  0  0  0  0
 17  1  1  0  0  0  0
 18 17  2  0  0  0  0
 19 20  2  0  0  0  0
 19 18  1  0  0  0  0
 20 21  1  0  0  0  0
 21 16  2  0  0  0  0
 23 18  1  0  0  0  0
 24 25  1  0  0  0  0
 24 20  1  0  0  0  0
 25 30  1  0  0  0  0
 26 31  1  0  0  0  0
 26 25  2  0  0  0  0
 27 26  1  0  0  0  0
 28 27  2  0  0  0  0
 28 29  1  0  0  0  0
 29 24  2  0  0  0  0
 32 27  1  0  0  0  0
 33 28  1  0  0  0  0
 34 40  1  0  0  0  0
 34  6  1  0  0  0  0
 35 34  1  0  0  0  0
 36 35  1  0  0  0  0
 37 36  1  0  0  0  0
 37 39  1  0  0  0  0
 38 37  1  0  0  0  0
 39 40  1  0  0  0  0
M  END
>  <minimizedAffinity>
-5.05537319

$$$$

 OpenBabel03272504513D

 40 43  0  0  1  0  0  0  0  0999 V2000
   40.0190   25.7960   34.2860 N   0  0  0  0  0  0  0  0  0  0  0  0
   41.2600   26.4390   34.6280 C   0  0  0  0  0  0  0  0  0  0  0  0
   42.4220   25.5160   34.7390 C   0  0  0  0  0  0  0  0  0  0  0  0
   42.2970   24.3820   33.7230 C   0  0  0  0  0  0  0  0  0  0  0  0
   41.1000   23.5850   34.1560 C   0  0  0  0  0  0  0  0  0  0  0  0
   39.8440   24.3920   34.0950 C   0  0  1  0  0  0  0  0  0  0  0  0
   41.2150   27.0610   35.5430 H   0  0  0  0  0  0  0  0  0  0  0  0
   41.4800   27.1360   33.7750 H   0  0  0  0  0  0  0  0  0  0  0  0
   42.4970   25.0640   35.7440 H   0  0  0  0  0  0  0  0  0  0  0  0
   43.3620   26.0550   34.5070 H   0  0  0  0  0  0  0  0  0  0  0  0
   42.0490   24.9130   32.7580 H   0  0  0  0  0  0  0  0  0  0  0  0
   43.2040   23.7970   33.5990 H   0  0  0  0  0  0  0  0  0  0  0  0
   41.3050   23.2070   35.1800 H   0  0  0  0  0  0  0  0  0  0  0  0
   40.9670   22.6910   33.5040 H   0  0  0  0  0  0  0  0  0  0  0  0
   39.4130   24.2680   33.0770 H   0  0  0  0  0  0  0  0  0  0  0  0
   38.3460   27.3000   35.2430 C   0  0  0  0  0  0  0  0  0  0  0  0
   38.8730   26.6260   34.1280 C   0  0  0  0  0  0  0  0  0  0  0  0
   38.2410   26.8060   32.9010 C   0  0  0  0  0  0  0  0  0  0  0  0
   37.1480   27.6250   32.8580 N   0  0  0  0  0  0  0  0  0  0  0  0
   36.6650   28.2550   33.9310 C   0  0  0  0  0  0  0  0  0  0  0  0
   37.2700   28.0880   35.1220 N   0  0  0  0  0  0  0  0  0  0  0  0
   38.7850   27.2090   36.2310 H   0  0  0  0  0  0  0  0  0  0  0  0
   38.6110   26.3100   32.0180 H   0  0  0  0  0  0  0  0  0  0  0  0
   35.5000   29.1160   33.8320 C   0  0  0  0  0  0  0  0  0  0  0  0
   35.2940   30.1260   34.7220 C   0  0  0  0  0  0  0  0  0  0  0  0
   34.2020   30.9630   34.6620 C   0  0  0  0  0  0  0  0  0  0  0  0
   33.3240   30.7060   33.6280 C   0  0  0  0  0  0  0  0  0  0  0  0
   33.4880   29.6840   32.6870 C   0  0  0  0  0  0  0  0  0  0  0  0
   34.6060   28.9040   32.8320 N   0  0  0  0  0  0  0  0  0  0  0  0
   36.0330   30.2560   35.5010 H   0  0  0  0  0  0  0  0  0  0  0  0
   34.0270   31.7570   35.3520 H   0  0  0  0  0  0  0  0  0  0  0  0
   32.4330   31.3200   33.5060 H   0  0  0  0  0  0  0  0  0  0  0  0
   32.7770   29.5200   31.8970 H   0  0  0  0  0  0  0  0  0  0  0  0
   38.8390   23.9510   35.0290 N   0  0  0  0  0  0  0  0  0  0  0  0
   37.9300   22.9910   34.5130 C   0  0  0  0  0  2  0  0  0  0  0  0
   37.5860   21.9450   35.5730 C   0  0  0  0  0  2  0  0  0  0  0  0
   37.1690   22.6120   36.8520 C   0  0  0  0  0  3  0  0  0  0  0  0
   37.2250   21.8660   37.6840 H   0  0  0  0  0  0  0  0  0  0  0  0
   37.9920   23.8100   37.2250 C   0  0  0  0  0  2  0  0  0  0  0  0
   39.2670   23.7810   36.3710 C   0  0  0  0  0  2  0  0  0  0  0  0
  1  2  1  0  0  0  0
  2  3  1  0  0  0  0
  2  7  1  0  0  0  0
  3  9  1  0  0  0  0
  4  5  1  0  0  0  0
  4  3  1  0  0  0  0
  5 13  1  0  0  0  0
  6 15  1  6  0  0  0
  6  5  1  0  0  0  0
  6  1  1  0  0  0  0
  6 34  1  0  0  0  0
  8  2  1  0  0  0  0
 10  3  1  0  0  0  0
 11  4  1  0  0  0  0
 12  4  1  0  0  0  0
 14  5  1  0  0  0  0
 16 22  1  0  0  0  0
 17  1  1  0  0  0  0
 17 16  2  0  0  0  0
 18 17  1  0  0  0  0
 19 18  2  0  0  0  0
 19 20  1  0  0  0  0
 20 21  2  0  0  0  0
 21 16  1  0  0  0  0
 23 18  1  0  0  0  0
 24 20  1  0  0  0  0
 24 25  1  0  0  0  0
 25 30  1  0  0  0  0
 26 25  2  0  0  0  0
 26 31  1  0  0  0  0
 27 26  1  0  0  0  0
 28 29  1  0  0  0  0
 28 27  2  0  0  0  0
 29 24  2  0  0  0  0
 32 27  1  0  0  0  0
 33 28  1  0  0  0  0
 34 40  1  0  0  0  0
 35 34  1  0  0  0  0
 35 36  1  0  0  0  0
 36 37  1  0  0  0  0
 37 39  1  0  0  0  0
 37 38  1  0  0  0  0
 40 39  1  0  0  0  0
M  END
>  <minimizedAffinity>
-5.01300526

$$$$
