
 OpenBabel03272508473D

 38 42  0  0  0  0  0  0  0  0999 V2000
   35.6410   29.8760   49.7090 C   0  0  0  0  0  0  0  0  0  0  0  0
   36.5840   29.8720   50.7230 C   0  0  0  0  0  0  0  0  0  0  0  0
   37.7190   30.4020   50.1050 C   0  0  0  0  0  0  0  0  0  0  0  0
   37.4110   30.6910   48.7890 C   0  0  0  0  0  0  0  0  0  0  0  0
   36.1570   30.3610   48.5900 O   0  0  0  0  0  0  0  0  0  0  0  0
   36.5090   29.5510   51.7420 H   0  0  0  0  0  0  0  0  0  0  0  0
   38.6820   30.5620   50.5780 H   0  0  0  0  0  0  0  0  0  0  0  0
   38.8180   32.5210   47.9790 C   0  0  0  0  0  0  0  0  0  0  0  0
   38.3040   31.2570   47.7930 C   0  0  0  0  0  0  0  0  0  0  0  0
   38.6260   30.5120   46.6700 C   0  0  0  0  0  0  0  0  0  0  0  0
   39.4730   31.0240   45.7040 C   0  0  0  0  0  0  0  0  0  0  0  0
   39.9620   30.5570   44.5310 N   0  0  0  0  0  0  0  0  0  0  0  0
   40.7440   31.5080   44.0280 N   0  0  0  0  0  0  0  0  0  0  0  0
   40.7630   32.5740   44.8590 C   0  0  0  0  0  0  0  0  0  0  0  0
   39.9570   32.2960   45.9450 C   0  0  0  0  0  0  0  0  0  0  0  0
   39.6830   33.0900   47.0340 C   0  0  0  0  0  0  0  0  0  0  0  0
   38.5290   33.0580   48.8830 H   0  0  0  0  0  0  0  0  0  0  0  0
   38.2050   29.5190   46.5500 H   0  0  0  0  0  0  0  0  0  0  0  0
   39.6990   29.6030   44.1880 H   0  0  0  0  0  0  0  0  0  0  0  0
   41.3440   33.4780   44.6430 H   0  0  0  0  0  0  0  0  0  0  0  0
   40.0800   34.0630   47.1720 H   0  0  0  0  0  0  0  0  0  0  0  0
   34.2710   29.4040   49.8770 C   0  0  0  0  0  0  0  0  0  0  0  0
   33.6870   29.6370   50.9530 O   0  0  0  0  0  0  0  0  0  0  0  0
   31.9130   27.2370   48.1230 C   0  0  0  0  0  0  0  0  0  0  0  0
   32.3540   27.2780   46.8030 C   0  0  0  0  0  0  0  0  0  0  0  0
   33.4530   28.0450   46.5170 C   0  0  0  0  0  0  0  0  0  0  0  0
   34.0700   28.7260   47.4930 N   0  0  0  0  0  0  0  0  0  0  0  0
   33.6250   28.6760   48.7880 C   0  0  0  0  0  0  0  0  0  0  0  0
   32.5470   27.9280   49.0810 N   0  0  0  0  0  0  0  0  0  0  0  0
   31.0420   26.6360   48.3710 H   0  0  0  0  0  0  0  0  0  0  0  0
   31.8230   26.7180   46.0750 H   0  0  0  0  0  0  0  0  0  0  0  0
   33.9630   28.1420   45.2160 N   0  0  0  0  0  0  0  0  0  0  0  0
   33.6550   27.2490   44.1190 C   0  0  0  0  0  2  0  0  0  0  0  0
   32.8210   28.0560   43.1480 C   0  0  0  0  0  2  0  0  0  0  0  0
   33.5840   29.2220   42.6400 C   0  0  0  0  0  3  0  0  0  0  0  0
   32.8510   29.9420   42.1790 H   0  0  0  0  0  0  0  0  0  0  0  0
   34.3670   29.9950   43.6590 C   0  0  0  0  0  2  0  0  0  0  0  0
   34.8830   29.1800   44.8120 C   0  0  0  0  0  2  0  0  0  0  0  0
  1 22  1  0  0  0  0
  1  2  2  0  0  0  0
  2  6  1  0  0  0  0
  3  7  1  0  0  0  0
  3  2  1  0  0  0  0
  4  3  2  0  0  0  0
  5  4  1  0  0  0  0
  5  1  1  0  0  0  0
  8 17  1  0  0  0  0
  9  8  1  0  0  0  0
  9  4  1  0  0  0  0
 10  9  2  0  0  0  0
 11 15  2  0  0  0  0
 11 10  1  0  0  0  0
 12 11  1  0  0  0  0
 13 12  1  0  0  0  0
 13 14  2  0  0  0  0
 14 15  1  0  0  0  0
 15 16  1  0  0  0  0
 16 21  1  0  0  0  0
 16  8  2  0  0  0  0
 18 10  1  0  0  0  0
 19 12  1  0  0  0  0
 20 14  1  0  0  0  0
 22 23  2  0  0  0  0
 24 30  1  0  0  0  0
 24 29  1  0  0  0  0
 25 24  2  0  0  0  0
 26 25  1  0  0  0  0
 26 27  2  0  0  0  0
 27 28  1  0  0  0  0
 28 29  2  0  0  0  0
 28 22  1  0  0  0  0
 31 25  1  0  0  0  0
 32 26  1  0  0  0  0
 33 32  1  0  0  0  0
 34 33  1  0  0  0  0
 35 34  1  0  0  0  0
 35 37  1  0  0  0  0
 36 35  1  0  0  0  0
 37 38  1  0  0  0  0
 38 32  1  0  0  0  0
M  END
>  <minimizedAffinity>
-6.48803997

>  <minimizedRMSD>
1.85947096

$$$$
