
 OpenBabel03272510003D

 19 20  0  0  0  0  0  0  0  0999 V2000
   37.6110   32.5790   49.7110 C   0  0  0  0  0  0  0  0  0  0  0  0
   38.3150   32.6200   48.5080 C   0  0  0  0  0  0  0  0  0  0  0  0
   37.9280   31.7490   47.4930 C   0  0  0  0  0  0  0  0  0  0  0  0
   36.8870   30.9110   47.7330 N   0  0  0  0  0  0  0  0  0  0  0  0
   36.2340   30.9010   48.9000 C   0  0  0  0  0  0  0  0  0  0  0  0
   36.5950   31.7310   49.8830 N   0  0  0  0  0  0  0  0  0  0  0  0
   37.9850   33.2890   50.4310 H   0  0  0  0  0  0  0  0  0  0  0  0
   39.1350   33.2520   48.2640 H   0  0  0  0  0  0  0  0  0  0  0  0
   38.5010   31.6200   46.1960 N   0  0  0  0  0  0  0  0  0  0  0  0
   38.2300   32.4630   45.0750 C   0  0  0  0  0  2  0  0  0  0  0  0
   39.4340   33.0870   44.4480 C   0  0  0  0  0  2  0  0  0  0  0  0
   40.4870   32.0490   44.1330 C   0  0  0  0  0  3  0  0  0  0  0  0
   41.3820   32.4940   43.7020 H   0  0  0  0  0  0  0  0  0  0  0  0
   40.7580   31.3250   45.4520 C   0  0  0  0  0  2  0  0  0  0  0  0
   39.4540   30.6160   45.7850 C   0  0  0  0  0  2  0  0  0  0  0  0
   35.1040   29.9510   49.0840 C   0  0  0  0  0  0  0  0  0  0  0  0
   34.2580   30.2950   50.1100 F   0  0  0  0  0  0  0  0  0  0  0  0
   34.3200   29.8830   47.9250 F   0  0  0  0  0  0  0  0  0  0  0  0
   35.5200   28.6520   49.3020 F   0  0  0  0  0  0  0  0  0  0  0  0
  1  6  1  0  0  0  0
  1  7  1  0  0  0  0
  2  1  2  0  0  0  0
  3  4  2  0  0  0  0
  3  2  1  0  0  0  0
  4  5  1  0  0  0  0
  5 16  1  0  0  0  0
  5  6  2  0  0  0  0
  8  2  1  0  0  0  0
  9  3  1  0  0  0  0
 10  9  1  0  0  0  0
 11 10  1  0  0  0  0
 12 11  1  0  0  0  0
 12 14  1  0  0  0  0
 13 12  1  0  0  0  0
 14 15  1  0  0  0  0
 15  9  1  0  0  0  0
 16 19  1  0  0  0  0
 16 17  1  0  0  0  0
 18 16  1  0  0  0  0
M  END
>  <minimizedAffinity>
-5.55165577

>  <minimizedRMSD>
1.8626883

$$$$
