
     RDKit          3D

 28 29  0  0  0  0  0  0  0  0999 V2000
   38.3011   31.2392   50.1222 C   0  0  0  0  0  0  0  0  0  0  0  0
   38.2930   31.6096   48.7780 C   0  0  0  0  0  0  0  0  0  0  0  0
   37.2074   31.2220   47.9976 C   0  0  0  0  0  0  0  0  0  0  0  0
   36.2178   30.5049   48.5906 N   0  0  0  0  0  0  0  0  0  0  0  0
   36.2602   30.1675   49.8850 C   0  0  0  0  0  0  0  0  0  0  0  0
   37.2956   30.5327   50.6453 N   0  0  0  0  0  0  0  0  0  0  0  0
   35.1355   29.3803   50.4592 C   0  0  0  0  0  0  0  0  0  0  0  0
   35.2720   29.1266   51.8021 F   0  0  0  0  0  0  0  0  0  0  0  0
   33.9217   30.0598   50.3009 F   0  0  0  0  0  0  0  0  0  0  0  0
   34.9447   28.1694   49.8230 F   0  0  0  0  0  0  0  0  0  0  0  0
   39.1814   31.5858   50.6394 H   0  0  0  0  0  0  0  0  0  0  0  0
   39.0362   32.1686   48.2598 H   0  0  0  0  0  0  0  0  0  0  0  0
   36.9930   31.4877   46.6163 N   0  0  0  0  0  0  0  0  0  0  0  0
   36.0372   30.8359   45.7774 C   0  0  0  0  0  0  0  0  0  0  0  0
   35.0883   31.7482   45.0718 C   0  0  0  0  0  0  0  0  0  0  0  0
   35.8265   32.8464   44.3389 C   0  0  0  0  0  0  0  0  0  0  0  0
   35.1461   33.5359   43.8443 H   0  0  0  0  0  0  0  0  0  0  0  0
   36.7023   33.5266   45.3923 C   0  0  0  0  0  0  0  0  0  0  0  0
   37.7012   32.4607   45.8183 C   0  0  0  0  0  0  0  0  0  0  0  0
   35.3917   30.1379   46.3845 H   0  0  0  0  0  0  0  0  0  0  0  0
   36.5105   30.1520   45.0170 H   0  0  0  0  0  0  0  0  0  0  0  0
   34.4138   32.2616   45.7885 H   0  0  0  0  0  0  0  0  0  0  0  0
   34.4896   31.1762   44.3650 H   0  0  0  0  0  0  0  0  0  0  0  0
   36.5418   32.4412   43.5944 H   0  0  0  0  0  0  0  0  0  0  0  0
   37.2303   34.4038   45.0208 H   0  0  0  0  0  0  0  0  0  0  0  0
   36.0274   33.7714   46.2318 H   0  0  0  0  0  0  0  0  0  0  0  0
   38.1232   32.0153   44.8930 H   0  0  0  0  0  0  0  0  0  0  0  0
   38.4915   32.9579   46.3979 H   0  0  0  0  0  0  0  0  0  0  0  0
  1  6  2  0
  2  1  1  0
  3  4  1  0
  3  2  2  0
  4  5  2  0
  5  7  1  0
  5  6  1  0
  7  8  1  0
  9  7  1  0
 10  7  1  0
  1 11  1  0
  2 12  1  0
 13 14  1  0
 14 15  1  0
 15 16  1  0
 16 17  1  0
 16 18  1  0
 18 19  1  0
 19 13  1  0
 14 20  1  0
 14 21  1  0
 15 22  1  0
 15 23  1  0
 16 24  1  0
 18 25  1  0
 18 26  1  0
 19 27  1  0
 19 28  1  0
  3 13  1  0
M  ISO  3  11  14  12  14  17  15
M  END
>  <DihAtoms>  (1) 
3,2,12,13

>  <DihDeg>  (1) 
0.01884235541995465

$$$$
