
 OpenBabel03272510003D

 19 20  0  0  0  0  0  0  0  0999 V2000
   38.3730   31.4000   50.2260 C   0  0  0  0  0  0  0  0  0  0  0  0
   38.5810   31.7270   48.8870 C   0  0  0  0  0  0  0  0  0  0  0  0
   37.6700   31.2520   47.9470 C   0  0  0  0  0  0  0  0  0  0  0  0
   36.6310   30.4980   48.3890 N   0  0  0  0  0  0  0  0  0  0  0  0
   36.4630   30.2060   49.6840 C   0  0  0  0  0  0  0  0  0  0  0  0
   37.3290   30.6540   50.5960 N   0  0  0  0  0  0  0  0  0  0  0  0
   39.1290   31.8140   50.8730 H   0  0  0  0  0  0  0  0  0  0  0  0
   39.3740   32.3110   48.4820 H   0  0  0  0  0  0  0  0  0  0  0  0
   37.6880   31.4610   46.5390 N   0  0  0  0  0  0  0  0  0  0  0  0
   38.4140   32.4840   45.8540 C   0  0  0  0  0  2  0  0  0  0  0  0
   39.3350   31.9970   44.7840 C   0  0  0  0  0  2  0  0  0  0  0  0
   38.6220   31.0720   43.8250 C   0  0  0  0  0  3  0  0  0  0  0  0
   39.2880   30.6870   43.0570 H   0  0  0  0  0  0  0  0  0  0  0  0
   38.0130   29.9700   44.6920 C   0  0  0  0  0  2  0  0  0  0  0  0
   36.9790   30.6770   45.5560 C   0  0  0  0  0  2  0  0  0  0  0  0
   35.2980   29.3730   50.0870 C   0  0  0  0  0  0  0  0  0  0  0  0
   35.2700   29.0800   51.4280 F   0  0  0  0  0  0  0  0  0  0  0  0
   34.0950   30.0280   49.7950 F   0  0  0  0  0  0  0  0  0  0  0  0
   35.2230   28.1790   49.3970 F   0  0  0  0  0  0  0  0  0  0  0  0
  1  6  1  0  0  0  0
  1  7  1  0  0  0  0
  2  1  2  0  0  0  0
  3  4  2  0  0  0  0
  3  2  1  0  0  0  0
  4  5  1  0  0  0  0
  5 16  1  0  0  0  0
  5  6  2  0  0  0  0
  8  2  1  0  0  0  0
  9  3  1  0  0  0  0
 10  9  1  0  0  0  0
 11 10  1  0  0  0  0
 12 14  1  0  0  0  0
 12 11  1  0  0  0  0
 13 12  1  0  0  0  0
 14 15  1  0  0  0  0
 15  9  1  0  0  0  0
 16 17  1  0  0  0  0
 18 16  1  0  0  0  0
 19 16  1  0  0  0  0
M  END
>  <minimizedAffinity>
-5.00908279

>  <minimizedRMSD>
0.807447433

$$$$
