
 OpenBabel03272503183D

 33 36  0  0  0  0  0  0  0  0999 V2000
   36.9340   30.7790   47.2830 C   0  0  0  0  0  0  0  0  0  0  0  0
   37.8670   31.7260   47.3670 C   0  0  0  0  0  0  0  0  0  0  0  0
   38.3960   32.2700   46.2470 C   0  0  0  0  0  0  0  0  0  0  0  0
   37.9150   31.7900   45.0460 C   0  0  0  0  0  0  0  0  0  0  0  0
   36.6770   30.5300   45.5600 S   0  0  0  0  0  0  0  0  0  0  0  0
   38.2040   32.0610   48.3660 H   0  0  0  0  0  0  0  0  0  0  0  0
   39.1540   33.0400   46.1720 H   0  0  0  0  0  0  0  0  0  0  0  0
   35.7540   29.4710   50.6160 C   0  0  0  0  0  0  0  0  0  0  0  0
   36.5120   30.2130   49.6870 C   0  0  0  0  0  0  0  0  0  0  0  0
   36.2190   30.0550   48.3350 C   0  0  0  0  0  0  0  0  0  0  0  0
   35.2320   29.2050   47.9570 N   0  0  0  0  0  0  0  0  0  0  0  0
   34.5310   28.5130   48.8860 C   0  0  0  0  0  0  0  0  0  0  0  0
   34.7900   28.6460   50.1860 N   0  0  0  0  0  0  0  0  0  0  0  0
   36.0130   29.6220   51.6560 H   0  0  0  0  0  0  0  0  0  0  0  0
   37.2930   30.8860   49.9760 H   0  0  0  0  0  0  0  0  0  0  0  0
   33.4870   27.6180   48.4540 N   0  0  0  0  0  0  0  0  0  0  0  0
   33.8080   26.5090   47.5780 C   0  0  0  0  0  0  0  0  0  0  0  0
   32.7300   26.2560   46.5760 C   0  0  0  0  0  0  0  0  0  0  0  0
   31.3310   26.4390   47.0940 C   0  0  0  0  0  0  0  0  0  0  0  0
   30.6540   26.3830   46.2260 H   0  0  0  0  0  0  0  0  0  0  0  0
   31.2190   27.8520   47.6770 C   0  0  0  0  0  0  0  0  0  0  0  0
   32.1230   27.8350   48.8990 C   0  0  0  0  0  0  0  0  0  0  0  0
   40.6870   30.9920   44.0780 Cl  0  0  0  0  0  0  0  0  0  0  0  0
   39.4340   31.7820   43.1690 C   0  0  0  0  0  0  0  0  0  0  0  0
   38.2140   32.1080   43.6740 C   0  0  0  0  0  0  0  0  0  0  0  0
   37.2090   32.7280   42.9920 C   0  0  0  0  0  0  0  0  0  0  0  0
   37.4180   33.0710   41.6550 C   0  0  0  0  0  0  0  0  0  0  0  0
   38.6330   32.7680   41.0830 C   0  0  0  0  0  0  0  0  0  0  0  0
   38.9650   33.1670   39.4150 Cl  0  0  0  0  0  0  0  0  0  0  0  0
   39.6390   32.1270   41.8310 C   0  0  0  0  0  0  0  0  0  0  0  0
   36.2370   32.9830   43.4090 H   0  0  0  0  0  0  0  0  0  0  0  0
   36.6500   33.5640   41.0720 H   0  0  0  0  0  0  0  0  0  0  0  0
   40.6050   31.8830   41.3860 H   0  0  0  0  0  0  0  0  0  0  0  0
  1  2  2  0  0  0  0
  1 10  1  0  0  0  0
  2  6  1  0  0  0  0
  3  2  1  0  0  0  0
  4  5  1  0  0  0  0
  4  3  2  0  0  0  0
  5  1  1  0  0  0  0
  7  3  1  0  0  0  0
  8 14  1  0  0  0  0
  9 15  1  0  0  0  0
  9  8  2  0  0  0  0
 10  9  1  0  0  0  0
 11 10  2  0  0  0  0
 11 12  1  0  0  0  0
 12 13  2  0  0  0  0
 13  8  1  0  0  0  0
 16 12  1  0  0  0  0
 16 22  1  0  0  0  0
 17 16  1  0  0  0  0
 18 19  1  0  0  0  0
 18 17  1  0  0  0  0
 19 21  1  0  0  0  0
 20 19  1  0  0  0  0
 21 22  1  0  0  0  0
 24 25  1  0  0  0  0
 24 23  1  0  0  0  0
 25  4  1  0  0  0  0
 26 31  1  0  0  0  0
 26 25  2  0  0  0  0
 27 26  1  0  0  0  0
 28 27  2  0  0  0  0
 28 30  1  0  0  0  0
 29 28  1  0  0  0  0
 30 24  2  0  0  0  0
 32 27  1  0  0  0  0
 33 30  1  0  0  0  0
M  END
>  <minimizedAffinity>
-5.93848991

>  <minimizedRMSD>
1.79021251

$$$$
