
     RDKit          3D

 28 29  0  0  0  0  0  0  0  0999 V2000
   38.3011   31.2392   50.1222 C   0  0  0  0  0  0  0  0  0  0  0  0
   38.2930   31.6096   48.7780 C   0  0  0  0  0  0  0  0  0  0  0  0
   37.2074   31.2220   47.9976 C   0  0  0  0  0  0  0  0  0  0  0  0
   36.2178   30.5049   48.5906 N   0  0  0  0  0  0  0  0  0  0  0  0
   36.2602   30.1675   49.8850 C   0  0  0  0  0  0  0  0  0  0  0  0
   37.2956   30.5327   50.6453 N   0  0  0  0  0  0  0  0  0  0  0  0
   35.1355   29.3803   50.4592 C   0  0  0  0  0  0  0  0  0  0  0  0
   35.2720   29.1266   51.8021 F   0  0  0  0  0  0  0  0  0  0  0  0
   33.9217   30.0598   50.3009 F   0  0  0  0  0  0  0  0  0  0  0  0
   34.9447   28.1694   49.8230 F   0  0  0  0  0  0  0  0  0  0  0  0
   39.1814   31.5858   50.6394 H   0  0  0  0  0  0  0  0  0  0  0  0
   39.0362   32.1686   48.2598 H   0  0  0  0  0  0  0  0  0  0  0  0
   36.9930   31.4877   46.6163 N   0  0  0  0  0  0  0  0  0  0  0  0
   37.8727   32.2170   45.7582 C   0  0  0  0  0  0  0  0  0  0  0  0
   38.2984   31.4914   44.5242 C   0  0  0  0  0  0  0  0  0  0  0  0
   37.1063   30.9402   43.7736 C   0  0  0  0  0  0  0  0  0  0  0  0
   37.4034   30.3838   42.8877 H   0  0  0  0  0  0  0  0  0  0  0  0
   36.3429   30.0851   44.7861 C   0  0  0  0  0  0  0  0  0  0  0  0
   35.8513   31.0689   45.8377 C   0  0  0  0  0  0  0  0  0  0  0  0
   38.8266   32.4769   46.3013 H   0  0  0  0  0  0  0  0  0  0  0  0
   37.4644   33.2241   45.4599 H   0  0  0  0  0  0  0  0  0  0  0  0
   38.9339   30.6152   44.7702 H   0  0  0  0  0  0  0  0  0  0  0  0
   38.8562   32.1668   43.8778 H   0  0  0  0  0  0  0  0  0  0  0  0
   36.3933   31.7384   43.4822 H   0  0  0  0  0  0  0  0  0  0  0  0
   35.4986   29.5482   44.3555 H   0  0  0  0  0  0  0  0  0  0  0  0
   37.0905   29.4012   45.2262 H   0  0  0  0  0  0  0  0  0  0  0  0
   35.3778   31.9171   45.3003 H   0  0  0  0  0  0  0  0  0  0  0  0
   35.1095   30.5483   46.4594 H   0  0  0  0  0  0  0  0  0  0  0  0
  1  6  2  0
  2  1  1  0
  3  4  1  0
  3  2  2  0
  4  5  2  0
  5  7  1  0
  5  6  1  0
  7  8  1  0
  9  7  1  0
 10  7  1  0
  1 11  1  0
  2 12  1  0
 13 14  1  0
 14 15  1  0
 15 16  1  0
 16 17  1  0
 16 18  1  0
 18 19  1  0
 19 13  1  0
 14 20  1  0
 14 21  1  0
 15 22  1  0
 15 23  1  0
 16 24  1  0
 18 25  1  0
 18 26  1  0
 19 27  1  0
 19 28  1  0
  3 13  1  0
M  ISO  3  11  14  12  14  17  15
M  END
>  <DihAtoms>  (1) 
3,2,12,13

>  <DihDeg>  (1) 
0.01884235541995465

$$$$
