
     RDKit          3D

 47 51  0  0  0  0  0  0  0  0999 V2000
   35.8519   29.1364   49.8143 C   0  0  0  0  0  0  0  0  0  0  0  0
   34.8284   29.6125   50.5526 C   0  0  0  0  0  0  0  0  0  0  0  0
   33.6534   29.0290   50.0624 C   0  0  0  0  0  0  0  0  0  0  0  0
   34.0688   28.1961   49.0057 C   0  0  0  0  0  0  0  0  0  0  0  0
   35.3571   28.3119   48.9229 O   0  0  0  0  0  0  0  0  0  0  0  0
   33.5359   26.4309   47.3472 C   0  0  0  0  0  0  0  0  0  0  0  0
   33.1131   27.4102   48.2385 C   0  0  0  0  0  0  0  0  0  0  0  0
   31.7787   27.6734   48.4300 C   0  0  0  0  0  0  0  0  0  0  0  0
   30.8552   26.9446   47.7179 C   0  0  0  0  0  0  0  0  0  0  0  0
   29.5120   26.9874   47.7048 N   0  0  0  0  0  0  0  0  0  0  0  0
   29.0869   26.0658   46.8336 N   0  0  0  0  0  0  0  0  0  0  0  0
   30.1471   25.4446   46.2994 C   0  0  0  0  0  0  0  0  0  0  0  0
   31.3081   25.9807   46.8420 C   0  0  0  0  0  0  0  0  0  0  0  0
   32.6391   25.6933   46.6280 C   0  0  0  0  0  0  0  0  0  0  0  0
   37.2255   29.5322   50.0485 C   0  0  0  0  0  0  0  0  0  0  0  0
   37.8757   28.9649   50.9662 O   0  0  0  0  0  0  0  0  0  0  0  0
   37.7782   30.5618   49.2124 C   0  0  0  0  0  0  0  0  0  0  0  0
   38.1239   31.7637   49.8236 C   0  0  0  0  0  0  0  0  0  0  0  0
   38.6623   32.7908   49.0584 C   0  0  0  0  0  0  0  0  0  0  0  0
   38.8181   32.5377   47.7185 N   0  0  0  0  0  0  0  0  0  0  0  0
   38.4829   31.3865   47.1547 C   0  0  0  0  0  0  0  0  0  0  0  0
   37.9667   30.4035   47.8917 N   0  0  0  0  0  0  0  0  0  0  0  0
   34.8603   30.3198   51.3843 H   0  0  0  0  0  0  0  0  0  0  0  0
   32.6868   29.2397   50.4766 H   0  0  0  0  0  0  0  0  0  0  0  0
   34.6009   26.2442   47.2160 H   0  0  0  0  0  0  0  0  0  0  0  0
   31.3811   28.4309   49.1164 H   0  0  0  0  0  0  0  0  0  0  0  0
   28.8928   27.6163   48.2635 H   0  0  0  0  0  0  0  0  0  0  0  0
   30.0752   24.6514   45.5611 H   0  0  0  0  0  0  0  0  0  0  0  0
   32.9365   24.9238   45.9261 H   0  0  0  0  0  0  0  0  0  0  0  0
   37.9911   31.9436   50.8931 H   0  0  0  0  0  0  0  0  0  0  0  0
   38.9490   33.7438   49.4768 H   0  0  0  0  0  0  0  0  0  0  0  0
   38.6946   31.2492   45.7535 N   0  0  0  0  0  0  0  0  0  0  0  0
   39.5467   32.2032   45.0671 C   0  0  0  0  0  0  0  0  0  0  0  0
   38.5853   32.9211   44.1258 C   0  0  0  0  0  0  0  0  0  0  0  0
   38.1217   31.9498   43.1032 C   0  0  0  0  0  0  0  0  0  0  0  0
   37.2041   32.4160   42.6344 H   0  0  0  0  0  0  0  0  0  0  0  0
   37.8786   30.5579   43.5313 C   0  0  0  0  0  0  0  0  0  0  0  0
   38.1130   30.2104   44.9479 C   0  0  0  0  0  0  0  0  0  0  0  0
   40.2701   31.6733   44.3857 H   0  0  0  0  0  0  0  0  0  0  0  0
   40.0489   32.9095   45.7388 H   0  0  0  0  0  0  0  0  0  0  0  0
   37.7283   33.3311   44.7314 H   0  0  0  0  0  0  0  0  0  0  0  0
   39.1085   33.7666   43.6215 H   0  0  0  0  0  0  0  0  0  0  0  0
   38.8658   31.9912   42.2531 H   0  0  0  0  0  0  0  0  0  0  0  0
   38.4712   29.8588   42.8695 H   0  0  0  0  0  0  0  0  0  0  0  0
   36.8187   30.2887   43.2740 H   0  0  0  0  0  0  0  0  0  0  0  0
   38.7686   29.3186   45.0382 H   0  0  0  0  0  0  0  0  0  0  0  0
   37.1570   29.9123   45.4710 H   0  0  0  0  0  0  0  0  0  0  0  0
  1 15  1  0
  1  2  2  0
  3  2  1  0
  4  3  2  0
  5  4  1  0
  5  1  1  0
  6  7  2  0
  7  8  1  0
  7  4  1  0
  9  8  2  0
 10  9  1  0
 11 10  1  0
 12 13  1  0
 12 11  2  0
 13  9  1  0
 14 13  2  0
 14  6  1  0
 15 16  2  0
 17 18  2  0
 17 15  1  0
 19 18  1  0
 20 19  2  0
 21 20  1  0
 21 22  2  0
 22 17  1  0
  2 23  1  0
  3 24  1  0
  6 25  1  0
  8 26  1  0
 10 27  1  0
 12 28  1  0
 14 29  1  0
 18 30  1  0
 19 31  1  0
 32 33  1  0
 33 34  1  0
 34 35  1  0
 35 36  1  0
 35 37  1  0
 37 38  1  0
 38 32  1  0
 33 39  1  0
 33 40  1  0
 34 41  1  0
 34 42  1  0
 35 43  1  0
 37 44  1  0
 37 45  1  0
 38 46  1  0
 38 47  1  0
 21 32  1  0
M  ISO  8  23  14  24  14  25  14  26  14  27   9  28  14  29  14  30  14
M  ISO  2  31  14  36  15
M  END
>  <DihAtoms>  (1) 
19,20,31,32

>  <DihDeg>  (1) 
0.012596360897163525

$$$$
