
 OpenBabel03272506383D

 35 37  0  0  1  0  0  0  0  0999 V2000
   34.0140   29.1980   49.5610 O   0  0  0  0  0  0  0  0  0  0  0  0
   34.1050   29.3330   48.3360 C   0  0  0  0  0  0  0  0  0  0  0  0
   35.0660   30.2260   47.7290 C   0  0  2  0  0  0  0  0  0  0  0  0
   34.9130   29.8720   46.2200 C   0  0  0  0  0  0  0  0  0  0  0  0
   33.5100   29.3490   46.1350 C   0  0  0  0  0  0  0  0  0  0  0  0
   33.3030   28.6490   47.3730 N   0  0  0  0  0  0  0  0  0  0  0  0
   34.8890   31.2900   47.8610 H   0  0  0  0  0  0  0  0  0  0  0  0
   35.0130   30.8380   45.6900 H   0  0  0  0  0  0  0  0  0  0  0  0
   35.6660   29.1270   45.9230 H   0  0  0  0  0  0  0  0  0  0  0  0
   32.7810   30.1380   45.9410 H   0  0  0  0  0  0  0  0  0  0  0  0
   33.4630   28.5900   45.3020 H   0  0  0  0  0  0  0  0  0  0  0  0
   32.4280   27.4900   47.5540 C   0  0  0  0  0  0  0  0  0  0  0  0
   32.9490   26.8290   48.3060 H   0  0  0  0  0  0  0  0  0  0  0  0
   32.3560   26.8970   46.6300 H   0  0  0  0  0  0  0  0  0  0  0  0
   31.1720   27.9490   47.9430 N   0  0  0  0  0  0  0  0  0  0  0  0
   30.7280   27.7550   49.2560 C   0  0  0  0  0  0  0  0  0  0  0  0
   29.3570   27.1110   49.2040 C   0  0  0  0  0  0  0  0  0  0  0  0
   29.0260   26.6740   47.7910 C   0  0  0  0  0  0  0  0  0  0  0  0
   28.0620   26.1690   47.8010 H   0  0  0  0  0  0  0  0  0  0  0  0
   29.0800   27.8350   46.8190 C   0  0  0  0  0  0  0  0  0  0  0  0
   30.3390   28.6490   47.0620 C   0  0  0  0  0  0  0  0  0  0  0  0
   36.4230   29.9380   48.0690 O   0  0  0  0  0  0  0  0  0  0  0  0
   37.2980   31.0130   48.2090 C   0  0  0  0  0  0  0  0  0  0  0  0
   37.4540   31.5200   49.4850 C   0  0  0  0  0  0  0  0  0  0  0  0
   38.3220   32.5960   49.6570 C   0  0  0  0  0  0  0  0  0  0  0  0
   38.9710   33.0960   48.5710 N   0  0  0  0  0  0  0  0  0  0  0  0
   38.8040   32.5880   47.3400 C   0  0  0  0  0  0  0  0  0  0  0  0
   37.9790   31.5660   47.1830 N   0  0  0  0  0  0  0  0  0  0  0  0
   40.3340   32.1880   45.5750 C   0  0  0  0  0  0  0  0  0  0  0  0
   40.5170   30.9670   45.8720 O   0  0  0  0  0  0  0  0  0  0  0  0
   39.4980   33.1400   46.2240 N   0  0  0  0  0  0  0  0  0  0  0  0
   36.9240   31.1020   50.3280 H   0  0  0  0  0  0  0  0  0  0  0  0
   38.4590   33.0110   50.6610 H   0  0  0  0  0  0  0  0  0  0  0  0
   40.9330   32.4370   44.7060 H   0  0  0  0  0  0  0  0  0  0  0  0
   39.4670   34.1190   45.8410 H   0  0  0  0  0  0  0  0  0  0  0  0
  2  1  2  0  0  0  0
  3  7  1  1  0  0  0
  3 22  1  0  0  0  0
  3  2  1  0  0  0  0
  4  3  1  0  0  0  0
  5  4  1  0  0  0  0
  5  6  1  0  0  0  0
  6 12  1  0  0  0  0
  6  2  1  0  0  0  0
  8  4  1  0  0  0  0
  9  4  1  0  0  0  0
 10  5  1  0  0  0  0
 11  5  1  0  0  0  0
 12 15  1  0  0  0  0
 12 13  1  0  0  0  0
 14 12  1  0  0  0  0
 15 16  1  0  0  0  0
 17 16  1  0  0  0  0
 18 19  1  0  0  0  0
 18 17  1  0  0  0  0
 20 21  1  0  0  0  0
 20 18  1  0  0  0  0
 21 15  1  0  0  0  0
 22 23  1  0  0  0  0
 23 24  1  0  0  0  0
 24 25  2  0  0  0  0
 24 32  1  0  0  0  0
 25 33  1  0  0  0  0
 26 25  1  0  0  0  0
 27 26  2  0  0  0  0
 28 27  1  0  0  0  0
 28 23  2  0  0  0  0
 29 30  2  0  0  0  0
 29 31  1  0  0  0  0
 31 27  1  0  0  0  0
 34 29  1  0  0  0  0
 35 31  1  0  0  0  0
M  END
>  <minimizedAffinity>
-5.73874044

>  <minimizedRMSD>
1.29427409

$$$$
