
 OpenBabel03272508503D

 38 42  0  0  0  0  0  0  0  0999 V2000
   37.0290   28.0220   32.1240 C   0  0  0  0  0  0  0  0  0  0  0  0
   36.5360   28.8150   31.1010 C   0  0  0  0  0  0  0  0  0  0  0  0
   35.6380   29.6610   31.7570 C   0  0  0  0  0  0  0  0  0  0  0  0
   35.6360   29.3440   33.1010 C   0  0  0  0  0  0  0  0  0  0  0  0
   36.4820   28.3570   33.2830 O   0  0  0  0  0  0  0  0  0  0  0  0
   36.7580   28.8160   30.0530 H   0  0  0  0  0  0  0  0  0  0  0  0
   35.0430   30.4380   31.2890 H   0  0  0  0  0  0  0  0  0  0  0  0
   33.4890   29.7480   34.2030 C   0  0  0  0  0  0  0  0  0  0  0  0
   34.8450   29.9800   34.1410 C   0  0  0  0  0  0  0  0  0  0  0  0
   35.4710   30.8120   35.0560 C   0  0  0  0  0  0  0  0  0  0  0  0
   34.7450   31.4320   36.0560 C   0  0  0  0  0  0  0  0  0  0  0  0
   35.0580   32.2750   37.0690 N   0  0  0  0  0  0  0  0  0  0  0  0
   33.9280   32.5400   37.7190 N   0  0  0  0  0  0  0  0  0  0  0  0
   32.8990   31.8810   37.1390 C   0  0  0  0  0  0  0  0  0  0  0  0
   33.3890   31.1610   36.0690 C   0  0  0  0  0  0  0  0  0  0  0  0
   32.7030   30.3480   35.1970 C   0  0  0  0  0  0  0  0  0  0  0  0
   33.0540   29.0830   33.4550 H   0  0  0  0  0  0  0  0  0  0  0  0
   36.5410   30.9770   34.9820 H   0  0  0  0  0  0  0  0  0  0  0  0
   36.0470   32.5890   37.2120 H   0  0  0  0  0  0  0  0  0  0  0  0
   31.8710   31.9550   37.5100 H   0  0  0  0  0  0  0  0  0  0  0  0
   31.6590   30.1730   35.2480 H   0  0  0  0  0  0  0  0  0  0  0  0
   38.0170   26.9670   31.9260 C   0  0  0  0  0  0  0  0  0  0  0  0
   38.1200   26.4510   30.7970 O   0  0  0  0  0  0  0  0  0  0  0  0
   40.8730   26.7670   34.1910 C   0  0  0  0  0  0  0  0  0  0  0  0
   40.4800   25.8140   35.1270 C   0  0  0  0  0  0  0  0  0  0  0  0
   39.2420   25.2440   34.9810 C   0  0  0  0  0  0  0  0  0  0  0  0
   38.4510   25.6080   33.9620 N   0  0  0  0  0  0  0  0  0  0  0  0
   38.8510   26.5470   33.0480 C   0  0  0  0  0  0  0  0  0  0  0  0
   40.0640   27.1140   33.1810 N   0  0  0  0  0  0  0  0  0  0  0  0
   41.8510   27.2320   34.2890 H   0  0  0  0  0  0  0  0  0  0  0  0
   41.1510   25.5690   35.9120 H   0  0  0  0  0  0  0  0  0  0  0  0
   38.7690   24.2780   35.8770 N   0  0  0  0  0  0  0  0  0  0  0  0
   39.2890   22.9340   36.0240 C   0  0  0  0  0  2  0  0  0  0  0  0
   39.9750   22.9000   37.3730 C   0  0  0  0  0  2  0  0  0  0  0  0
   39.0080   23.1800   38.4630 C   0  0  0  0  0  3  0  0  0  0  0  0
   39.5940   23.4440   39.3870 H   0  0  0  0  0  0  0  0  0  0  0  0
   38.0500   24.3090   38.2230 C   0  0  0  0  0  2  0  0  0  0  0  0
   37.6710   24.5220   36.7840 C   0  0  0  0  0  2  0  0  0  0  0  0
  1  5  1  0  0  0  0
  2  3  1  0  0  0  0
  2  1  2  0  0  0  0
  3  4  2  0  0  0  0
  4  5  1  0  0  0  0
  4  9  1  0  0  0  0
  6  2  1  0  0  0  0
  7  3  1  0  0  0  0
  8 16  1  0  0  0  0
  9  8  2  0  0  0  0
  9 10  1  0  0  0  0
 10 11  2  0  0  0  0
 11 15  1  0  0  0  0
 11 12  1  0  0  0  0
 12 19  1  0  0  0  0
 12 13  1  0  0  0  0
 14 20  1  0  0  0  0
 14 13  2  0  0  0  0
 15 14  1  0  0  0  0
 16 21  1  0  0  0  0
 16 15  2  0  0  0  0
 17  8  1  0  0  0  0
 18 10  1  0  0  0  0
 22  1  1  0  0  0  0
 22 28  1  0  0  0  0
 23 22  2  0  0  0  0
 24 30  1  0  0  0  0
 24 25  1  0  0  0  0
 25 31  1  0  0  0  0
 26 25  2  0  0  0  0
 26 32  1  0  0  0  0
 27 26  1  0  0  0  0
 28 29  1  0  0  0  0
 28 27  2  0  0  0  0
 29 24  2  0  0  0  0
 32 33  1  0  0  0  0
 32 38  1  0  0  0  0
 33 34  1  0  0  0  0
 34 35  1  0  0  0  0
 35 36  1  0  0  0  0
 37 35  1  0  0  0  0
 38 37  1  0  0  0  0
M  END
>  <minimizedAffinity>
-6.87965536

$$$$

 OpenBabel03272508503D

 38 42  0  0  0  0  0  0  0  0999 V2000
   37.2900   27.6410   32.9220 C   0  0  0  0  0  0  0  0  0  0  0  0
   36.5030   27.9930   31.8380 C   0  0  0  0  0  0  0  0  0  0  0  0
   35.6090   28.9200   32.3800 C   0  0  0  0  0  0  0  0  0  0  0  0
   35.8950   29.0750   33.7230 C   0  0  0  0  0  0  0  0  0  0  0  0
   36.9080   28.2910   34.0100 O   0  0  0  0  0  0  0  0  0  0  0  0
   36.5340   27.6640   30.8190 H   0  0  0  0  0  0  0  0  0  0  0  0
   34.8230   29.4340   31.8380 H   0  0  0  0  0  0  0  0  0  0  0  0
   35.9260   30.8620   35.3930 C   0  0  0  0  0  0  0  0  0  0  0  0
   35.2060   29.9440   34.6620 C   0  0  0  0  0  0  0  0  0  0  0  0
   33.8320   29.8340   34.8050 C   0  0  0  0  0  0  0  0  0  0  0  0
   33.1490   30.6470   35.6900 C   0  0  0  0  0  0  0  0  0  0  0  0
   31.8490   30.7760   36.0450 N   0  0  0  0  0  0  0  0  0  0  0  0
   31.7870   31.7400   36.9600 N   0  0  0  0  0  0  0  0  0  0  0  0
   33.0270   32.2280   37.1950 C   0  0  0  0  0  0  0  0  0  0  0  0
   33.9230   31.5480   36.3960 C   0  0  0  0  0  0  0  0  0  0  0  0
   35.2860   31.7130   36.3060 C   0  0  0  0  0  0  0  0  0  0  0  0
   37.0050   30.9010   35.2370 H   0  0  0  0  0  0  0  0  0  0  0  0
   33.2910   29.1010   34.2150 H   0  0  0  0  0  0  0  0  0  0  0  0
   31.1150   30.1700   35.6080 H   0  0  0  0  0  0  0  0  0  0  0  0
   33.2140   33.0320   37.9160 H   0  0  0  0  0  0  0  0  0  0  0  0
   35.8360   32.4210   36.8720 H   0  0  0  0  0  0  0  0  0  0  0  0
   38.3850   26.6810   32.8480 C   0  0  0  0  0  0  0  0  0  0  0  0
   39.5290   27.0990   32.5830 O   0  0  0  0  0  0  0  0  0  0  0  0
   37.3860   23.2270   32.2100 C   0  0  0  0  0  0  0  0  0  0  0  0
   37.5800   22.6000   33.4380 C   0  0  0  0  0  0  0  0  0  0  0  0
   38.0510   23.3590   34.4780 C   0  0  0  0  0  0  0  0  0  0  0  0
   38.3100   24.6610   34.2960 N   0  0  0  0  0  0  0  0  0  0  0  0
   38.1140   25.2650   33.0820 C   0  0  0  0  0  0  0  0  0  0  0  0
   37.6520   24.5320   32.0540 N   0  0  0  0  0  0  0  0  0  0  0  0
   37.0130   22.6440   31.3720 H   0  0  0  0  0  0  0  0  0  0  0  0
   37.3570   21.5670   33.5190 H   0  0  0  0  0  0  0  0  0  0  0  0
   38.2740   22.8080   35.7460 N   0  0  0  0  0  0  0  0  0  0  0  0
   39.4390   22.0450   36.1420 C   0  0  0  0  0  2  0  0  0  0  0  0
   40.2010   22.9220   37.1120 C   0  0  0  0  0  2  0  0  0  0  0  0
   39.3760   23.2260   38.3070 C   0  0  0  0  0  3  0  0  0  0  0  0
   39.8440   24.1020   38.8380 H   0  0  0  0  0  0  0  0  0  0  0  0
   37.9450   23.5930   38.0470 C   0  0  0  0  0  2  0  0  0  0  0  0
   37.3350   22.9450   36.8350 C   0  0  0  0  0  2  0  0  0  0  0  0
  1  5  1  0  0  0  0
  2  3  1  0  0  0  0
  2  1  2  0  0  0  0
  3  4  2  0  0  0  0
  4  5  1  0  0  0  0
  4  9  1  0  0  0  0
  6  2  1  0  0  0  0
  7  3  1  0  0  0  0
  8 16  1  0  0  0  0
  9 10  1  0  0  0  0
  9  8  2  0  0  0  0
 10 11  2  0  0  0  0
 11 12  1  0  0  0  0
 11 15  1  0  0  0  0
 12 13  1  0  0  0  0
 13 14  2  0  0  0  0
 14 20  1  0  0  0  0
 15 14  1  0  0  0  0
 16 15  2  0  0  0  0
 16 21  1  0  0  0  0
 17  8  1  0  0  0  0
 18 10  1  0  0  0  0
 19 12  1  0  0  0  0
 22  1  1  0  0  0  0
 22 28  1  0  0  0  0
 23 22  2  0  0  0  0
 24 25  1  0  0  0  0
 25 31  1  0  0  0  0
 25 26  2  0  0  0  0
 26 32  1  0  0  0  0
 27 26  1  0  0  0  0
 28 27  2  0  0  0  0
 29 24  2  0  0  0  0
 29 28  1  0  0  0  0
 30 24  1  0  0  0  0
 32 33  1  0  0  0  0
 32 38  1  0  0  0  0
 33 34  1  0  0  0  0
 34 35  1  0  0  0  0
 35 36  1  0  0  0  0
 37 35  1  0  0  0  0
 38 37  1  0  0  0  0
M  END
>  <minimizedAffinity>
-6.65661955

$$$$

 OpenBabel03272508503D

 38 42  0  0  0  0  0  0  0  0999 V2000
   37.8730   27.1080   34.1000 C   0  0  0  0  0  0  0  0  0  0  0  0
   37.4960   27.2920   32.7810 C   0  0  0  0  0  0  0  0  0  0  0  0
   36.5100   28.2770   32.8650 C   0  0  0  0  0  0  0  0  0  0  0  0
   36.3470   28.6260   34.1920 C   0  0  0  0  0  0  0  0  0  0  0  0
   37.1820   27.9030   34.9010 O   0  0  0  0  0  0  0  0  0  0  0  0
   37.8460   26.8190   31.8840 H   0  0  0  0  0  0  0  0  0  0  0  0
   35.9620   28.6990   32.0290 H   0  0  0  0  0  0  0  0  0  0  0  0
   34.1320   29.6620   34.2470 C   0  0  0  0  0  0  0  0  0  0  0  0
   35.4230   29.6140   34.7220 C   0  0  0  0  0  0  0  0  0  0  0  0
   35.8580   30.4920   35.7020 C   0  0  0  0  0  0  0  0  0  0  0  0
   35.0020   31.4430   36.2260 C   0  0  0  0  0  0  0  0  0  0  0  0
   35.1250   32.4130   37.1630 N   0  0  0  0  0  0  0  0  0  0  0  0
   33.9480   33.0250   37.2490 N   0  0  0  0  0  0  0  0  0  0  0  0
   33.0740   32.4620   36.3830 C   0  0  0  0  0  0  0  0  0  0  0  0
   33.7200   31.4440   35.7110 C   0  0  0  0  0  0  0  0  0  0  0  0
   33.2190   30.6050   34.7430 C   0  0  0  0  0  0  0  0  0  0  0  0
   33.8470   28.9440   33.4760 H   0  0  0  0  0  0  0  0  0  0  0  0
   36.8820   30.4310   36.0570 H   0  0  0  0  0  0  0  0  0  0  0  0
   36.0350   32.5570   37.6610 H   0  0  0  0  0  0  0  0  0  0  0  0
   32.0400   32.8090   36.2830 H   0  0  0  0  0  0  0  0  0  0  0  0
   32.2240   30.6460   34.3790 H   0  0  0  0  0  0  0  0  0  0  0  0
   38.8970   26.1580   34.5240 C   0  0  0  0  0  0  0  0  0  0  0  0
   40.0870   26.5260   34.5260 O   0  0  0  0  0  0  0  0  0  0  0  0
   38.2060   23.2870   36.6710 C   0  0  0  0  0  0  0  0  0  0  0  0
   37.7760   22.3090   35.7790 C   0  0  0  0  0  0  0  0  0  0  0  0
   37.7240   22.6330   34.4480 C   0  0  0  0  0  0  0  0  0  0  0  0
   38.0800   23.8600   34.0410 N   0  0  0  0  0  0  0  0  0  0  0  0
   38.5010   24.8130   34.9310 C   0  0  0  0  0  0  0  0  0  0  0  0
   38.5570   24.5070   36.2390 N   0  0  0  0  0  0  0  0  0  0  0  0
   38.2540   23.0510   37.7310 H   0  0  0  0  0  0  0  0  0  0  0  0
   37.5070   21.3570   36.1620 H   0  0  0  0  0  0  0  0  0  0  0  0
   37.3040   21.7100   33.4830 N   0  0  0  0  0  0  0  0  0  0  0  0
   36.0870   20.9270   33.5360 C   0  0  0  0  0  2  0  0  0  0  0  0
   35.1900   21.4780   32.4490 C   0  0  0  0  0  2  0  0  0  0  0  0
   35.8230   21.3240   31.1160 C   0  0  0  0  0  3  0  0  0  0  0  0
   35.2840   22.0010   30.3950 H   0  0  0  0  0  0  0  0  0  0  0  0
   37.2780   21.6730   31.0290 C   0  0  0  0  0  2  0  0  0  0  0  0
   38.0640   21.4260   32.2870 C   0  0  0  0  0  2  0  0  0  0  0  0
  1 22  1  0  0  0  0
  1  5  1  0  0  0  0
  2  3  1  0  0  0  0
  2  1  2  0  0  0  0
  3  4  2  0  0  0  0
  4  9  1  0  0  0  0
  4  5  1  0  0  0  0
  6  2  1  0  0  0  0
  7  3  1  0  0  0  0
  8  9  2  0  0  0  0
  8 16  1  0  0  0  0
  9 10  1  0  0  0  0
 10 18  1  0  0  0  0
 10 11  2  0  0  0  0
 11 12  1  0  0  0  0
 12 13  1  0  0  0  0
 12 19  1  0  0  0  0
 14 13  2  0  0  0  0
 15 11  1  0  0  0  0
 15 14  1  0  0  0  0
 16 15  2  0  0  0  0
 17  8  1  0  0  0  0
 20 14  1  0  0  0  0
 21 16  1  0  0  0  0
 22 23  2  0  0  0  0
 22 28  1  0  0  0  0
 24 30  1  0  0  0  0
 25 31  1  0  0  0  0
 25 24  2  0  0  0  0
 26 25  1  0  0  0  0
 27 26  2  0  0  0  0
 27 28  1  0  0  0  0
 28 29  2  0  0  0  0
 29 24  1  0  0  0  0
 32 33  1  0  0  0  0
 32 26  1  0  0  0  0
 34 33  1  0  0  0  0
 35 34  1  0  0  0  0
 36 35  1  0  0  0  0
 37 35  1  0  0  0  0
 37 38  1  0  0  0  0
 38 32  1  0  0  0  0
M  END
>  <minimizedAffinity>
-6.49338865

$$$$

 OpenBabel03272508503D

 38 42  0  0  0  0  0  0  0  0999 V2000
   36.9920   27.0950   33.3600 C   0  0  0  0  0  0  0  0  0  0  0  0
   36.8180   27.7180   34.5850 C   0  0  0  0  0  0  0  0  0  0  0  0
   37.6980   27.0280   35.4220 C   0  0  0  0  0  0  0  0  0  0  0  0
   38.3390   26.0530   34.6820 C   0  0  0  0  0  0  0  0  0  0  0  0
   37.8890   26.1240   33.4510 O   0  0  0  0  0  0  0  0  0  0  0  0
   36.1790   28.5300   34.8680 H   0  0  0  0  0  0  0  0  0  0  0  0
   37.8540   27.2240   36.4770 H   0  0  0  0  0  0  0  0  0  0  0  0
   40.6270   25.1900   34.7010 C   0  0  0  0  0  0  0  0  0  0  0  0
   39.3330   25.1100   35.1640 C   0  0  0  0  0  0  0  0  0  0  0  0
   38.9620   24.1460   36.0870 C   0  0  0  0  0  0  0  0  0  0  0  0
   39.8860   23.2350   36.5650 C   0  0  0  0  0  0  0  0  0  0  0  0
   39.8330   22.2050   37.4420 N   0  0  0  0  0  0  0  0  0  0  0  0
   41.0540   21.6820   37.5050 N   0  0  0  0  0  0  0  0  0  0  0  0
   41.8860   22.3600   36.6820 C   0  0  0  0  0  0  0  0  0  0  0  0
   41.1680   23.3620   36.0640 C   0  0  0  0  0  0  0  0  0  0  0  0
   41.6070   24.2930   35.1500 C   0  0  0  0  0  0  0  0  0  0  0  0
   40.8600   25.9710   33.9750 H   0  0  0  0  0  0  0  0  0  0  0  0
   37.9340   24.1070   36.4340 H   0  0  0  0  0  0  0  0  0  0  0  0
   38.9340   21.9620   37.9220 H   0  0  0  0  0  0  0  0  0  0  0  0
   42.9450   22.1000   36.5740 H   0  0  0  0  0  0  0  0  0  0  0  0
   42.6040   24.3490   34.7960 H   0  0  0  0  0  0  0  0  0  0  0  0
   36.2730   27.4750   32.1500 C   0  0  0  0  0  0  0  0  0  0  0  0
   35.5860   26.6130   31.5690 O   0  0  0  0  0  0  0  0  0  0  0  0
   36.8020   30.2590   29.8480 C   0  0  0  0  0  0  0  0  0  0  0  0
   36.5920   31.3830   30.6440 C   0  0  0  0  0  0  0  0  0  0  0  0
   36.2710   31.1850   31.9610 C   0  0  0  0  0  0  0  0  0  0  0  0
   36.1670   29.9400   32.4480 N   0  0  0  0  0  0  0  0  0  0  0  0
   36.3770   28.8440   31.6540 C   0  0  0  0  0  0  0  0  0  0  0  0
   36.6920   29.0250   30.3590 N   0  0  0  0  0  0  0  0  0  0  0  0
   37.0570   30.3940   28.8000 H   0  0  0  0  0  0  0  0  0  0  0  0
   36.6880   32.3410   30.2000 H   0  0  0  0  0  0  0  0  0  0  0  0
   36.0440   32.2590   32.8310 N   0  0  0  0  0  0  0  0  0  0  0  0
   35.1530   32.2480   33.9720 C   0  0  0  0  0  2  0  0  0  0  0  0
   36.0440   32.3010   35.1950 C   0  0  0  0  0  2  0  0  0  0  0  0
   36.8510   33.5460   35.2050 C   0  0  0  0  0  3  0  0  0  0  0  0
   37.6940   33.4070   35.9390 H   0  0  0  0  0  0  0  0  0  0  0  0
   37.4740   33.9420   33.9000 C   0  0  0  0  0  2  0  0  0  0  0  0
   36.6950   33.5400   32.6790 C   0  0  0  0  0  2  0  0  0  0  0  0
  1  5  1  0  0  0  0
  1  2  2  0  0  0  0
  2  6  1  0  0  0  0
  2  3  1  0  0  0  0
  3  7  1  0  0  0  0
  4  9  1  0  0  0  0
  4  3  2  0  0  0  0
  5  4  1  0  0  0  0
  8 16  2  0  0  0  0
  8  9  1  0  0  0  0
  9 10  2  0  0  0  0
 10 18  1  0  0  0  0
 10 11  1  0  0  0  0
 11 12  1  0  0  0  0
 12 13  1  0  0  0  0
 12 19  1  0  0  0  0
 14 13  2  0  0  0  0
 15 11  2  0  0  0  0
 15 14  1  0  0  0  0
 16 15  1  0  0  0  0
 17  8  1  0  0  0  0
 20 14  1  0  0  0  0
 21 16  1  0  0  0  0
 22  1  1  0  0  0  0
 23 22  2  0  0  0  0
 24 29  2  0  0  0  0
 24 25  1  0  0  0  0
 25 26  2  0  0  0  0
 26 27  1  0  0  0  0
 26 32  1  0  0  0  0
 28 22  1  0  0  0  0
 28 27  2  0  0  0  0
 29 28  1  0  0  0  0
 30 24  1  0  0  0  0
 31 25  1  0  0  0  0
 32 33  1  0  0  0  0
 33 34  1  0  0  0  0
 34 35  1  0  0  0  0
 35 36  1  0  0  0  0
 37 35  1  0  0  0  0
 38 32  1  0  0  0  0
 38 37  1  0  0  0  0
M  END
>  <minimizedAffinity>
-6.47449875

$$$$

 OpenBabel03272508503D

 38 42  0  0  0  0  0  0  0  0999 V2000
   36.9680   27.0760   33.6660 C   0  0  0  0  0  0  0  0  0  0  0  0
   37.1940   28.0010   34.6710 C   0  0  0  0  0  0  0  0  0  0  0  0
   37.9060   27.2690   35.6250 C   0  0  0  0  0  0  0  0  0  0  0  0
   38.0680   25.9790   35.1590 C   0  0  0  0  0  0  0  0  0  0  0  0
   37.4920   25.9020   33.9830 O   0  0  0  0  0  0  0  0  0  0  0  0
   36.9120   29.0330   34.7450 H   0  0  0  0  0  0  0  0  0  0  0  0
   38.2720   27.6500   36.5720 H   0  0  0  0  0  0  0  0  0  0  0  0
   38.2160   24.3690   36.9950 C   0  0  0  0  0  0  0  0  0  0  0  0
   38.7500   24.8910   35.8380 C   0  0  0  0  0  0  0  0  0  0  0  0
   39.9310   24.3950   35.3080 C   0  0  0  0  0  0  0  0  0  0  0  0
   40.6030   23.3600   35.9310 C   0  0  0  0  0  0  0  0  0  0  0  0
   41.7440   22.6790   35.6680 N   0  0  0  0  0  0  0  0  0  0  0  0
   41.8910   21.7760   36.6340 N   0  0  0  0  0  0  0  0  0  0  0  0
   40.8640   21.8700   37.5100 C   0  0  0  0  0  0  0  0  0  0  0  0
   40.0200   22.8770   37.0870 C   0  0  0  0  0  0  0  0  0  0  0  0
   38.8550   23.3180   37.6700 C   0  0  0  0  0  0  0  0  0  0  0  0
   37.2850   24.8000   37.3640 H   0  0  0  0  0  0  0  0  0  0  0  0
   40.3280   24.8270   34.3950 H   0  0  0  0  0  0  0  0  0  0  0  0
   42.3190   22.9120   34.8250 H   0  0  0  0  0  0  0  0  0  0  0  0
   40.7810   21.2210   38.3880 H   0  0  0  0  0  0  0  0  0  0  0  0
   38.4470   22.9130   38.5610 H   0  0  0  0  0  0  0  0  0  0  0  0
   36.2460   27.3790   32.4350 C   0  0  0  0  0  0  0  0  0  0  0  0
   36.3130   26.5700   31.4900 O   0  0  0  0  0  0  0  0  0  0  0  0
   35.0680   30.6050   31.1960 C   0  0  0  0  0  0  0  0  0  0  0  0
   34.0680   30.9550   32.0980 C   0  0  0  0  0  0  0  0  0  0  0  0
   33.7990   30.0890   33.1260 C   0  0  0  0  0  0  0  0  0  0  0  0
   34.4910   28.9460   33.2390 N   0  0  0  0  0  0  0  0  0  0  0  0
   35.4730   28.6140   32.3430 C   0  0  0  0  0  0  0  0  0  0  0  0
   35.7460   29.4560   31.3300 N   0  0  0  0  0  0  0  0  0  0  0  0
   35.2970   31.2780   30.3730 H   0  0  0  0  0  0  0  0  0  0  0  0
   33.5560   31.8730   31.9550 H   0  0  0  0  0  0  0  0  0  0  0  0
   32.8100   30.3620   34.0770 N   0  0  0  0  0  0  0  0  0  0  0  0
   31.7370   29.4680   34.4630 C   0  0  0  0  0  2  0  0  0  0  0  0
   32.0500   29.0300   35.8770 C   0  0  0  0  0  2  0  0  0  0  0  0
   32.0800   30.1960   36.7950 C   0  0  0  0  0  3  0  0  0  0  0  0
   32.6020   29.8790   37.7410 H   0  0  0  0  0  0  0  0  0  0  0  0
   32.7950   31.4140   36.2940 C   0  0  0  0  0  2  0  0  0  0  0  0
   32.7460   31.6090   34.8040 C   0  0  0  0  0  2  0  0  0  0  0  0
  1  5  1  0  0  0  0
  1  2  2  0  0  0  0
  2  6  1  0  0  0  0
  2  3  1  0  0  0  0
  3  7  1  0  0  0  0
  4  3  2  0  0  0  0
  4  9  1  0  0  0  0
  5  4  1  0  0  0  0
  8 17  1  0  0  0  0
  8 16  1  0  0  0  0
  9  8  2  0  0  0  0
 10  9  1  0  0  0  0
 10 11  2  0  0  0  0
 11 15  1  0  0  0  0
 12 11  1  0  0  0  0
 12 13  1  0  0  0  0
 13 14  2  0  0  0  0
 14 20  1  0  0  0  0
 15 14  1  0  0  0  0
 15 16  2  0  0  0  0
 16 21  1  0  0  0  0
 18 10  1  0  0  0  0
 19 12  1  0  0  0  0
 22  1  1  0  0  0  0
 23 22  2  0  0  0  0
 24 29  2  0  0  0  0
 24 25  1  0  0  0  0
 25 26  2  0  0  0  0
 26 27  1  0  0  0  0
 26 32  1  0  0  0  0
 28 22  1  0  0  0  0
 28 27  2  0  0  0  0
 29 28  1  0  0  0  0
 30 24  1  0  0  0  0
 31 25  1  0  0  0  0
 32 33  1  0  0  0  0
 32 38  1  0  0  0  0
 33 34  1  0  0  0  0
 34 35  1  0  0  0  0
 35 36  1  0  0  0  0
 37 35  1  0  0  0  0
 38 37  1  0  0  0  0
M  END
>  <minimizedAffinity>
-6.41825771

$$$$

 OpenBabel03272508503D

 38 42  0  0  0  0  0  0  0  0999 V2000
   36.9910   28.0750   32.2850 C   0  0  0  0  0  0  0  0  0  0  0  0
   38.1370   27.8720   31.5350 C   0  0  0  0  0  0  0  0  0  0  0  0
   38.8300   26.9050   32.2670 C   0  0  0  0  0  0  0  0  0  0  0  0
   38.0880   26.5840   33.3870 C   0  0  0  0  0  0  0  0  0  0  0  0
   36.9930   27.3060   33.3630 O   0  0  0  0  0  0  0  0  0  0  0  0
   38.4570   28.3210   30.6160 H   0  0  0  0  0  0  0  0  0  0  0  0
   39.7910   26.4760   32.0010 H   0  0  0  0  0  0  0  0  0  0  0  0
   39.3630   24.6360   34.1390 C   0  0  0  0  0  0  0  0  0  0  0  0
   38.4440   25.6220   34.4170 C   0  0  0  0  0  0  0  0  0  0  0  0
   37.8490   25.7150   35.6650 C   0  0  0  0  0  0  0  0  0  0  0  0
   38.1660   24.8150   36.6650 C   0  0  0  0  0  0  0  0  0  0  0  0
   37.7690   24.6470   37.9490 N   0  0  0  0  0  0  0  0  0  0  0  0
   38.4270   23.5960   38.4280 N   0  0  0  0  0  0  0  0  0  0  0  0
   39.2380   23.0880   37.4720 C   0  0  0  0  0  0  0  0  0  0  0  0
   39.0950   23.8470   36.3290 C   0  0  0  0  0  0  0  0  0  0  0  0
   39.7240   23.6950   35.1150 C   0  0  0  0  0  0  0  0  0  0  0  0
   39.7970   24.6130   33.1380 H   0  0  0  0  0  0  0  0  0  0  0  0
   37.1270   26.5030   35.8550 H   0  0  0  0  0  0  0  0  0  0  0  0
   37.0640   25.2950   38.3750 H   0  0  0  0  0  0  0  0  0  0  0  0
   39.8770   22.2150   37.6460 H   0  0  0  0  0  0  0  0  0  0  0  0
   40.4310   22.9340   34.9050 H   0  0  0  0  0  0  0  0  0  0  0  0
   35.9380   29.0150   31.9150 C   0  0  0  0  0  0  0  0  0  0  0  0
   35.8780   29.4090   30.7350 O   0  0  0  0  0  0  0  0  0  0  0  0
   32.8130   29.3980   33.7630 C   0  0  0  0  0  0  0  0  0  0  0  0
   33.1510   30.2640   34.7990 C   0  0  0  0  0  0  0  0  0  0  0  0
   34.4440   30.7140   34.8620 C   0  0  0  0  0  0  0  0  0  0  0  0
   35.3390   30.3190   33.9450 N   0  0  0  0  0  0  0  0  0  0  0  0
   34.9920   29.4660   32.9310 C   0  0  0  0  0  0  0  0  0  0  0  0
   33.7250   29.0170   32.8580 N   0  0  0  0  0  0  0  0  0  0  0  0
   31.7920   29.0290   33.6940 H   0  0  0  0  0  0  0  0  0  0  0  0
   32.3980   30.5400   35.4930 H   0  0  0  0  0  0  0  0  0  0  0  0
   34.8690   31.5870   35.8700 N   0  0  0  0  0  0  0  0  0  0  0  0
   36.0900   32.3660   35.8550 C   0  0  0  0  0  2  0  0  0  0  0  0
   35.6610   33.8080   35.6960 C   0  0  0  0  0  2  0  0  0  0  0  0
   34.8140   34.2350   36.8360 C   0  0  0  0  0  3  0  0  0  0  0  0
   34.2800   35.1800   36.5360 H   0  0  0  0  0  0  0  0  0  0  0  0
   33.7590   33.2650   37.2770 C   0  0  0  0  0  2  0  0  0  0  0  0
   34.1110   31.8160   37.0790 C   0  0  0  0  0  2  0  0  0  0  0  0
  1  5  1  0  0  0  0
  2  3  1  0  0  0  0
  2  1  2  0  0  0  0
  3  4  2  0  0  0  0
  4  9  1  0  0  0  0
  5  4  1  0  0  0  0
  6  2  1  0  0  0  0
  7  3  1  0  0  0  0
  8  9  2  0  0  0  0
  8 16  1  0  0  0  0
  9 10  1  0  0  0  0
 10 18  1  0  0  0  0
 10 11  2  0  0  0  0
 11 12  1  0  0  0  0
 12 19  1  0  0  0  0
 12 13  1  0  0  0  0
 14 20  1  0  0  0  0
 14 13  2  0  0  0  0
 15 11  1  0  0  0  0
 15 14  1  0  0  0  0
 16 15  2  0  0  0  0
 17  8  1  0  0  0  0
 21 16  1  0  0  0  0
 22  1  1  0  0  0  0
 22 28  1  0  0  0  0
 23 22  2  0  0  0  0
 24 25  1  0  0  0  0
 25 26  2  0  0  0  0
 25 31  1  0  0  0  0
 26 32  1  0  0  0  0
 27 26  1  0  0  0  0
 28 27  2  0  0  0  0
 29 28  1  0  0  0  0
 29 24  2  0  0  0  0
 30 24  1  0  0  0  0
 32 38  1  0  0  0  0
 33 32  1  0  0  0  0
 34 33  1  0  0  0  0
 34 35  1  0  0  0  0
 35 37  1  0  0  0  0
 36 35  1  0  0  0  0
 38 37  1  0  0  0  0
M  END
>  <minimizedAffinity>
-6.36685514

$$$$

 OpenBabel03272508503D

 38 42  0  0  0  0  0  0  0  0999 V2000
   37.0550   27.5700   32.7760 C   0  0  0  0  0  0  0  0  0  0  0  0
   36.2100   27.8280   31.7090 C   0  0  0  0  0  0  0  0  0  0  0  0
   35.2650   28.7000   32.2550 C   0  0  0  0  0  0  0  0  0  0  0  0
   35.5790   28.9160   33.5830 C   0  0  0  0  0  0  0  0  0  0  0  0
   36.6570   28.2210   33.8580 O   0  0  0  0  0  0  0  0  0  0  0  0
   36.2350   27.4720   30.6990 H   0  0  0  0  0  0  0  0  0  0  0  0
   34.4250   29.1370   31.7250 H   0  0  0  0  0  0  0  0  0  0  0  0
   33.5070   29.5550   34.7170 C   0  0  0  0  0  0  0  0  0  0  0  0
   34.8550   29.7580   34.5200 C   0  0  0  0  0  0  0  0  0  0  0  0
   35.5360   30.7530   35.2030 C   0  0  0  0  0  0  0  0  0  0  0  0
   34.8740   31.5700   36.1010 C   0  0  0  0  0  0  0  0  0  0  0  0
   35.2490   32.5990   36.8980 N   0  0  0  0  0  0  0  0  0  0  0  0
   34.1630   33.0020   37.5520 N   0  0  0  0  0  0  0  0  0  0  0  0
   33.1010   32.2480   37.1870 C   0  0  0  0  0  0  0  0  0  0  0  0
   33.5230   31.3200   36.2570 C   0  0  0  0  0  0  0  0  0  0  0  0
   32.7850   30.3530   35.6150 C   0  0  0  0  0  0  0  0  0  0  0  0
   33.0260   28.7560   34.1500 H   0  0  0  0  0  0  0  0  0  0  0  0
   36.5980   30.8900   35.0280 H   0  0  0  0  0  0  0  0  0  0  0  0
   36.2440   32.9270   36.9090 H   0  0  0  0  0  0  0  0  0  0  0  0
   32.0990   32.4050   37.6010 H   0  0  0  0  0  0  0  0  0  0  0  0
   31.7470   30.2010   35.7690 H   0  0  0  0  0  0  0  0  0  0  0  0
   38.2180   26.6930   32.6920 C   0  0  0  0  0  0  0  0  0  0  0  0
   39.2780   27.1520   32.2250 O   0  0  0  0  0  0  0  0  0  0  0  0
   38.5340   23.7600   34.8430 C   0  0  0  0  0  0  0  0  0  0  0  0
   37.9450   22.7430   34.0960 C   0  0  0  0  0  0  0  0  0  0  0  0
   37.4430   23.0630   32.8610 C   0  0  0  0  0  0  0  0  0  0  0  0
   37.5270   24.3220   32.4070 N   0  0  0  0  0  0  0  0  0  0  0  0
   38.1090   25.3120   33.1540 C   0  0  0  0  0  0  0  0  0  0  0  0
   38.6050   25.0110   34.3670 N   0  0  0  0  0  0  0  0  0  0  0  0
   38.9380   23.5280   35.8250 H   0  0  0  0  0  0  0  0  0  0  0  0
   37.9090   21.7670   34.5100 H   0  0  0  0  0  0  0  0  0  0  0  0
   36.8350   22.1020   32.0440 N   0  0  0  0  0  0  0  0  0  0  0  0
   37.5210   21.0500   31.3230 C   0  0  0  0  0  2  0  0  0  0  0  0
   37.1350   19.7570   32.0090 C   0  0  0  0  0  2  0  0  0  0  0  0
   35.6700   19.5380   31.9340 C   0  0  0  0  0  3  0  0  0  0  0  0
   35.3970   18.7550   32.6960 H   0  0  0  0  0  0  0  0  0  0  0  0
   34.8070   20.7320   32.2140 C   0  0  0  0  0  2  0  0  0  0  0  0
   35.4080   22.0530   31.8220 C   0  0  0  0  0  2  0  0  0  0  0  0
  1  5  1  0  0  0  0
  2  3  1  0  0  0  0
  2  1  2  0  0  0  0
  3  4  2  0  0  0  0
  4  5  1  0  0  0  0
  4  9  1  0  0  0  0
  6  2  1  0  0  0  0
  7  3  1  0  0  0  0
  8 16  1  0  0  0  0
  9  8  2  0  0  0  0
  9 10  1  0  0  0  0
 10 11  2  0  0  0  0
 11 15  1  0  0  0  0
 11 12  1  0  0  0  0
 12 19  1  0  0  0  0
 12 13  1  0  0  0  0
 14 13  2  0  0  0  0
 14 20  1  0  0  0  0
 15 14  1  0  0  0  0
 16 21  1  0  0  0  0
 16 15  2  0  0  0  0
 17  8  1  0  0  0  0
 18 10  1  0  0  0  0
 22  1  1  0  0  0  0
 22 28  1  0  0  0  0
 23 22  2  0  0  0  0
 24 30  1  0  0  0  0
 25 31  1  0  0  0  0
 25 24  2  0  0  0  0
 26 25  1  0  0  0  0
 27 26  2  0  0  0  0
 27 28  1  0  0  0  0
 28 29  2  0  0  0  0
 29 24  1  0  0  0  0
 32 26  1  0  0  0  0
 33 34  1  0  0  0  0
 33 32  1  0  0  0  0
 35 34  1  0  0  0  0
 35 37  1  0  0  0  0
 35 36  1  0  0  0  0
 38 32  1  0  0  0  0
 38 37  1  0  0  0  0
M  END
>  <minimizedAffinity>
-6.35231781

$$$$

 OpenBabel03272508503D

 38 42  0  0  0  0  0  0  0  0999 V2000
   35.9900   27.0870   31.2700 C   0  0  0  0  0  0  0  0  0  0  0  0
   36.8460   27.7160   30.3820 C   0  0  0  0  0  0  0  0  0  0  0  0
   36.9220   29.0190   30.8790 C   0  0  0  0  0  0  0  0  0  0  0  0
   36.1310   29.1070   32.0080 C   0  0  0  0  0  0  0  0  0  0  0  0
   35.5880   27.9290   32.2100 O   0  0  0  0  0  0  0  0  0  0  0  0
   37.3500   27.3380   29.5150 H   0  0  0  0  0  0  0  0  0  0  0  0
   37.5050   29.8280   30.4510 H   0  0  0  0  0  0  0  0  0  0  0  0
   35.9490   31.5340   32.2560 C   0  0  0  0  0  0  0  0  0  0  0  0
   35.9250   30.2850   32.8340 C   0  0  0  0  0  0  0  0  0  0  0  0
   35.7070   30.1290   34.1940 C   0  0  0  0  0  0  0  0  0  0  0  0
   35.5080   31.2300   35.0060 C   0  0  0  0  0  0  0  0  0  0  0  0
   35.2780   31.4010   36.3290 N   0  0  0  0  0  0  0  0  0  0  0  0
   35.1660   32.7090   36.5410 N   0  0  0  0  0  0  0  0  0  0  0  0
   35.3220   33.3770   35.3750 C   0  0  0  0  0  0  0  0  0  0  0  0
   35.5430   32.4580   34.3710 C   0  0  0  0  0  0  0  0  0  0  0  0
   35.7530   32.6870   33.0300 C   0  0  0  0  0  0  0  0  0  0  0  0
   36.1250   31.5930   31.1810 H   0  0  0  0  0  0  0  0  0  0  0  0
   35.6940   29.1320   34.6210 H   0  0  0  0  0  0  0  0  0  0  0  0
   35.2190   30.5730   36.9690 H   0  0  0  0  0  0  0  0  0  0  0  0
   35.2690   34.4700   35.3130 H   0  0  0  0  0  0  0  0  0  0  0  0
   35.7710   33.6510   32.5900 H   0  0  0  0  0  0  0  0  0  0  0  0
   35.5980   25.6860   31.1620 C   0  0  0  0  0  0  0  0  0  0  0  0
   34.5540   25.4050   30.5440 O   0  0  0  0  0  0  0  0  0  0  0  0
   37.2820   22.4880   31.6770 C   0  0  0  0  0  0  0  0  0  0  0  0
   37.9830   22.6760   32.8650 C   0  0  0  0  0  0  0  0  0  0  0  0
   37.8770   23.8940   33.4860 C   0  0  0  0  0  0  0  0  0  0  0  0
   37.1180   24.8590   32.9470 N   0  0  0  0  0  0  0  0  0  0  0  0
   36.4340   24.6590   31.7770 C   0  0  0  0  0  0  0  0  0  0  0  0
   36.5290   23.4690   31.1580 N   0  0  0  0  0  0  0  0  0  0  0  0
   37.3520   21.5300   31.1680 H   0  0  0  0  0  0  0  0  0  0  0  0
   38.5670   21.8750   33.2400 H   0  0  0  0  0  0  0  0  0  0  0  0
   38.5480   24.1680   34.6840 N   0  0  0  0  0  0  0  0  0  0  0  0
   38.1110   25.1000   35.7030 C   0  0  0  0  0  2  0  0  0  0  0  0
   37.7020   24.2550   36.8900 C   0  0  0  0  0  2  0  0  0  0  0  0
   38.8520   23.4670   37.3970 C   0  0  0  0  0  3  0  0  0  0  0  0
   38.4480   22.6490   38.0570 H   0  0  0  0  0  0  0  0  0  0  0  0
   39.7070   22.8010   36.3600 C   0  0  0  0  0  2  0  0  0  0  0  0
   39.7920   23.5300   35.0480 C   0  0  0  0  0  2  0  0  0  0  0  0
  1  5  1  0  0  0  0
  2  3  1  0  0  0  0
  2  1  2  0  0  0  0
  3  4  2  0  0  0  0
  4  5  1  0  0  0  0
  4  9  1  0  0  0  0
  6  2  1  0  0  0  0
  7  3  1  0  0  0  0
  8  9  2  0  0  0  0
  8 16  1  0  0  0  0
  9 10  1  0  0  0  0
 10 18  1  0  0  0  0
 10 11  2  0  0  0  0
 11 12  1  0  0  0  0
 12 13  1  0  0  0  0
 12 19  1  0  0  0  0
 14 13  2  0  0  0  0
 15 11  1  0  0  0  0
 15 14  1  0  0  0  0
 16 15  2  0  0  0  0
 17  8  1  0  0  0  0
 20 14  1  0  0  0  0
 21 16  1  0  0  0  0
 22  1  1  0  0  0  0
 22 28  1  0  0  0  0
 23 22  2  0  0  0  0
 24 25  1  0  0  0  0
 25 31  1  0  0  0  0
 25 26  2  0  0  0  0
 26 32  1  0  0  0  0
 27 26  1  0  0  0  0
 28 27  2  0  0  0  0
 29 24  2  0  0  0  0
 29 28  1  0  0  0  0
 30 24  1  0  0  0  0
 32 38  1  0  0  0  0
 32 33  1  0  0  0  0
 33 34  1  0  0  0  0
 34 35  1  0  0  0  0
 35 36  1  0  0  0  0
 37 35  1  0  0  0  0
 38 37  1  0  0  0  0
M  END
>  <minimizedAffinity>
-6.32140112

$$$$

 OpenBabel03272508503D

 38 42  0  0  0  0  0  0  0  0999 V2000
   35.9720   27.2860   31.4140 C   0  0  0  0  0  0  0  0  0  0  0  0
   36.6220   27.9910   30.4140 C   0  0  0  0  0  0  0  0  0  0  0  0
   36.6460   29.2970   30.9100 C   0  0  0  0  0  0  0  0  0  0  0  0
   36.0280   29.3120   32.1450 C   0  0  0  0  0  0  0  0  0  0  0  0
   35.6370   28.0890   32.4120 O   0  0  0  0  0  0  0  0  0  0  0  0
   37.0240   27.6610   29.4780 H   0  0  0  0  0  0  0  0  0  0  0  0
   37.0790   30.1570   30.4090 H   0  0  0  0  0  0  0  0  0  0  0  0
   35.8130   31.7290   32.4550 C   0  0  0  0  0  0  0  0  0  0  0  0
   35.8360   30.4670   33.0050 C   0  0  0  0  0  0  0  0  0  0  0  0
   35.6780   30.2780   34.3690 C   0  0  0  0  0  0  0  0  0  0  0  0
   35.4940   31.3570   35.2130 C   0  0  0  0  0  0  0  0  0  0  0  0
   35.3170   31.4940   36.5490 N   0  0  0  0  0  0  0  0  0  0  0  0
   35.1910   32.7950   36.7950 N   0  0  0  0  0  0  0  0  0  0  0  0
   35.2850   33.4910   35.6390 C   0  0  0  0  0  0  0  0  0  0  0  0
   35.4800   32.5980   34.6050 C   0  0  0  0  0  0  0  0  0  0  0  0
   35.6290   32.8610   33.2630 C   0  0  0  0  0  0  0  0  0  0  0  0
   35.9420   31.8150   31.3760 H   0  0  0  0  0  0  0  0  0  0  0  0
   35.7020   29.2710   34.7740 H   0  0  0  0  0  0  0  0  0  0  0  0
   35.3000   30.6520   37.1710 H   0  0  0  0  0  0  0  0  0  0  0  0
   35.2100   34.5840   35.6040 H   0  0  0  0  0  0  0  0  0  0  0  0
   35.6110   33.8350   32.8440 H   0  0  0  0  0  0  0  0  0  0  0  0
   35.7050   25.8540   31.3500 C   0  0  0  0  0  0  0  0  0  0  0  0
   34.7630   25.4540   30.6390 O   0  0  0  0  0  0  0  0  0  0  0  0
   38.3420   24.6560   33.5730 C   0  0  0  0  0  0  0  0  0  0  0  0
   38.1590   23.2760   33.5810 C   0  0  0  0  0  0  0  0  0  0  0  0
   37.1370   22.7600   32.8280 C   0  0  0  0  0  0  0  0  0  0  0  0
   36.3500   23.5770   32.1140 N   0  0  0  0  0  0  0  0  0  0  0  0
   36.5420   24.9340   32.1150 C   0  0  0  0  0  0  0  0  0  0  0  0
   37.5420   25.4520   32.8500 N   0  0  0  0  0  0  0  0  0  0  0  0
   39.1470   25.0860   34.1640 H   0  0  0  0  0  0  0  0  0  0  0  0
   38.8140   22.6820   34.1670 H   0  0  0  0  0  0  0  0  0  0  0  0
   36.8820   21.3840   32.7800 N   0  0  0  0  0  0  0  0  0  0  0  0
   35.7240   20.7180   33.3390 C   0  0  0  0  0  2  0  0  0  0  0  0
   34.9060   20.2450   32.1570 C   0  0  0  0  0  2  0  0  0  0  0  0
   35.6800   19.2860   31.3310 C   0  0  0  0  0  3  0  0  0  0  0  0
   35.1710   19.2000   30.3300 H   0  0  0  0  0  0  0  0  0  0  0  0
   37.1090   19.6500   31.0580 C   0  0  0  0  0  2  0  0  0  0  0  0
   37.7780   20.4440   32.1460 C   0  0  0  0  0  2  0  0  0  0  0  0
  1  5  1  0  0  0  0
  2  3  1  0  0  0  0
  2  1  2  0  0  0  0
  3  4  2  0  0  0  0
  4  5  1  0  0  0  0
  4  9  1  0  0  0  0
  6  2  1  0  0  0  0
  7  3  1  0  0  0  0
  8  9  2  0  0  0  0
  8 16  1  0  0  0  0
  9 10  1  0  0  0  0
 10 18  1  0  0  0  0
 10 11  2  0  0  0  0
 11 12  1  0  0  0  0
 12 13  1  0  0  0  0
 12 19  1  0  0  0  0
 14 13  2  0  0  0  0
 15 11  1  0  0  0  0
 15 14  1  0  0  0  0
 16 15  2  0  0  0  0
 17  8  1  0  0  0  0
 20 14  1  0  0  0  0
 21 16  1  0  0  0  0
 22  1  1  0  0  0  0
 22 28  1  0  0  0  0
 23 22  2  0  0  0  0
 24 25  1  0  0  0  0
 24 30  1  0  0  0  0
 25 31  1  0  0  0  0
 26 25  2  0  0  0  0
 27 28  2  0  0  0  0
 27 26  1  0  0  0  0
 28 29  1  0  0  0  0
 29 24  2  0  0  0  0
 32 26  1  0  0  0  0
 32 33  1  0  0  0  0
 34 33  1  0  0  0  0
 35 34  1  0  0  0  0
 36 35  1  0  0  0  0
 37 35  1  0  0  0  0
 37 38  1  0  0  0  0
 38 32  1  0  0  0  0
M  END
>  <minimizedAffinity>
-6.30919886

$$$$
