REMARK  Name = 
REMARK  2 active torsions:
REMARK  status: ('A' for Active; 'I' for Inactive)
REMARK    1  A    between atoms: C_2  and  C_14
REMARK    2  A    between atoms: C_3  and  C_8
REMARK                            x       y       z     vdW  Elec       q    Type
REMARK                         _______ _______ _______ _____ _____    ______ ____
ROOT
ATOM      1  C   UNL     1      37.233  31.472  48.593  0.00  0.00    +0.000 A 
ATOM      2  C   UNL     1      37.191  32.507  49.519  0.00  0.00    +0.000 A 
ATOM      3  C   UNL     1      38.154  33.505  49.452  0.00  0.00    +0.000 A 
ATOM      4  C   UNL     1      39.134  33.449  48.468  0.00  0.00    +0.000 A 
ATOM      5  C   UNL     1      39.134  32.406  47.578  0.00  0.00    +0.000 A 
ATOM      6  N   UNL     1      38.195  31.462  47.667  0.00  0.00    +0.000 NA
ATOM      7  H   UNL     1      36.486  32.681  50.339  0.00  0.00    +0.000 HD
ATOM      8  H   UNL     1      38.199  34.347  50.129  0.00  0.00    +0.000 HD
ATOM      9  H   UNL     1      39.882  34.228  48.422  0.00  0.00    +0.000 HD
ATOM     10  N   UNL     1      40.097  32.273  46.544  0.00  0.00    +0.000 N 
ATOM     11  C   UNL     1      41.526  32.450  46.612  0.00  0.00    +0.000 C 
ATOM     12  C   UNL     1      42.177  31.101  46.471  0.00  0.00    +0.000 C 
ATOM     13  C   UNL     1      41.740  30.381  45.219  0.00  0.00    +0.000 C 
ATOM     14  H   UNL     1      42.369  30.793  44.396  0.00  0.00    +0.000 HD
ATOM     15  C   UNL     1      40.303  30.553  44.883  0.00  0.00    +0.000 C 
ATOM     16  C   UNL     1      39.732  31.916  45.189  0.00  0.00    +0.000 C 
ENDROOT
BRANCH   1  19
ATOM     17  C   UNL     1      35.173  28.667  50.026  0.00  0.00    +0.000 A 
ATOM     18  C   UNL     1      36.238  29.596  49.850  0.00  0.00    +0.000 A 
ATOM     19  C   UNL     1      36.156  30.508  48.798  0.00  0.00    +0.000 A 
ATOM     20  N   UNL     1      35.056  30.466  47.986  0.00  0.00    +0.000 NA
ATOM     21  C   UNL     1      34.062  29.554  48.201  0.00  0.00    +0.000 A 
ATOM     22  N   UNL     1      34.110  28.671  49.195  0.00  0.00    +0.000 NA
ATOM     23  N   UNL     1      33.025  29.701  47.233  0.00  0.00    +0.000 N 
ATOM     24  H   UNL     1      35.204  27.951  50.827  0.00  0.00    +0.000 HD
ATOM     25  H   UNL     1      32.366  30.520  47.327  0.00  0.00    +0.000 HD
ATOM     26  H   UNL     1      32.936  28.995  46.449  0.00  0.00    +0.000 HD
BRANCH  18  27
ATOM     27  C   UNL     1      37.386  29.546  50.799  0.00  0.00    +0.000 C 
ATOM     28  F   UNL     1      38.583  29.809  50.152  0.00  0.00    +0.000 F 
ATOM     29  F   UNL     1      37.194  30.502  51.760  0.00  0.00    +0.000 F 
ATOM     30  F   UNL     1      37.505  28.331  51.435  0.00  0.00    +0.000 F 
ENDBRANCH  18  27
ENDBRANCH   1  19
TORSDOF 2
