REMARK  Name = 
REMARK  4 active torsions:
REMARK  status: ('A' for Active; 'I' for Inactive)
REMARK    1  A    between atoms: C_1  and  C_15
REMARK    2  A    between atoms: C_4  and  C_7
REMARK    3  A    between atoms: C_15  and  C_21
REMARK    4  A    between atoms: C_19  and  N_32
REMARK                            x       y       z     vdW  Elec       q    Type
REMARK                         _______ _______ _______ _____ _____    ______ ____
ROOT
ATOM      1  C   UNL     1      35.551  29.702  49.806  0.00  0.00    +0.000 A 
ATOM      2  C   UNL     1      36.542  29.525  50.757  0.00  0.00    +0.000 A 
ATOM      3  C   UNL     1      37.674  30.067  50.143  0.00  0.00    +0.000 A 
ATOM      4  C   UNL     1      37.318  30.529  48.891  0.00  0.00    +0.000 A 
ATOM      5  O   UNL     1      36.038  30.292  48.725  0.00  0.00    +0.000 OA
ATOM      6  H   UNL     1      36.499  29.087  51.734  0.00  0.00    +0.000 HD
ATOM      7  H   UNL     1      38.667  30.118  50.577  0.00  0.00    +0.000 HD
ENDROOT
BRANCH   4   9
ATOM      8  C   UNL     1      38.618  32.457  48.131  0.00  0.00    +0.000 A 
ATOM      9  C   UNL     1      38.192  31.165  47.920  0.00  0.00    +0.000 A 
ATOM     10  C   UNL     1      38.584  30.457  46.795  0.00  0.00    +0.000 A 
ATOM     11  C   UNL     1      39.415  31.035  45.853  0.00  0.00    +0.000 A 
ATOM     12  N   UNL     1      39.957  30.616  44.685  0.00  0.00    +0.000 N 
ATOM     13  N   UNL     1      40.685  31.622  44.209  0.00  0.00    +0.000 NA
ATOM     14  C   UNL     1      40.617  32.677  45.053  0.00  0.00    +0.000 A 
ATOM     15  C   UNL     1      39.810  32.333  46.118  0.00  0.00    +0.000 A 
ATOM     16  C   UNL     1      39.462  33.094  47.210  0.00  0.00    +0.000 A 
ATOM     17  H   UNL     1      38.276  32.963  49.035  0.00  0.00    +0.000 HD
ATOM     18  H   UNL     1      38.232  29.440  46.655  0.00  0.00    +0.000 HD
ATOM     19  H   UNL     1      39.764  29.651  44.326  0.00  0.00    +0.000 HD
ATOM     20  H   UNL     1      41.142  33.619  44.859  0.00  0.00    +0.000 HD
ATOM     21  H   UNL     1      39.792  34.089  47.368  0.00  0.00    +0.000 HD
ENDBRANCH   4   9
BRANCH   1  22
ATOM     22  C   UNL     1      34.166  29.285  49.994  0.00  0.00    +0.000 C 
ATOM     23  O   UNL     1      33.500  29.820  50.901  0.00  0.00    +0.000 OA
BRANCH  22  28
ATOM     24  C   UNL     1      31.694  27.159  48.351  0.00  0.00    +0.000 A 
ATOM     25  C   UNL     1      32.462  26.354  47.514  0.00  0.00    +0.000 A 
ATOM     26  C   UNL     1      33.820  26.540  47.514  0.00  0.00    +0.000 A 
ATOM     27  N   UNL     1      34.370  27.474  48.303  0.00  0.00    +0.000 NA
ATOM     28  C   UNL     1      33.602  28.259  49.122  0.00  0.00    +0.000 A 
ATOM     29  N   UNL     1      32.268  28.086  49.131  0.00  0.00    +0.000 NA
ATOM     30  H   UNL     1      30.615  27.028  48.366  0.00  0.00    +0.000 HD
ATOM     31  H   UNL     1      31.968  25.633  46.913  0.00  0.00    +0.000 HD
BRANCH  26  32
ATOM     32  N   UNL     1      34.666  25.774  46.703  0.00  0.00    +0.000 N 
ATOM     33  C   UNL     1      35.041  24.395  46.938  0.00  0.00    +0.000 C 
ATOM     34  C   UNL     1      34.355  23.589  45.856  0.00  0.00    +0.000 C 
ATOM     35  C   UNL     1      34.821  24.008  44.511  0.00  0.00    +0.000 C 
ATOM     36  H   UNL     1      34.087  23.615  43.752  0.00  0.00    +0.000 HD
ATOM     37  C   UNL     1      34.931  25.485  44.280  0.00  0.00    +0.000 C 
ATOM     38  C   UNL     1      35.278  26.292  45.501  0.00  0.00    +0.000 C 
ENDBRANCH  26  32
ENDBRANCH  22  28
ENDBRANCH   1  22
TORSDOF 4
