
     RDKit          3D

 48 52  0  0  0  0  0  0  0  0999 V2000
   37.5420   32.0702   48.4985 C   0  0  1  0  0  0  0  0  0  0  0  0
   38.7751   32.8078   48.8301 C   0  0  0  0  0  0  0  0  0  0  0  0
   38.9193   31.6462   47.9147 C   0  0  2  0  0  0  0  0  0  0  0  0
   39.2862   32.1003   46.5497 C   0  0  0  0  0  0  0  0  0  0  0  0
   39.7455   33.4220   46.5839 C   0  0  0  0  0  0  0  0  0  0  0  0
   40.2285   34.0379   45.4477 C   0  0  0  0  0  0  0  0  0  0  0  0
   40.2726   33.3549   44.2283 C   0  0  0  0  0  0  0  0  0  0  0  0
   39.8160   32.0564   44.2220 C   0  0  0  0  0  0  0  0  0  0  0  0
   39.7834   31.2642   43.0974 C   0  0  0  0  0  0  0  0  0  0  0  0
   39.3176   29.9660   43.0669 C   0  0  0  0  0  0  0  0  0  0  0  0
   38.8479   29.4115   44.2444 C   0  0  0  0  0  0  0  0  0  0  0  0
   38.8700   30.1843   45.3840 C   0  0  0  0  0  0  0  0  0  0  0  0
   39.3447   31.4739   45.3594 C   0  0  0  0  0  0  0  0  0  0  0  0
   35.2840   29.5824   50.2109 C   0  0  0  0  0  0  0  0  0  0  0  0
   35.7852   30.5126   49.2479 C   0  0  0  0  0  0  0  0  0  0  0  0
   37.0073   31.1063   49.4861 C   0  0  0  0  0  0  0  0  0  0  0  0
   37.6708   30.7596   50.6480 N   0  0  0  0  0  0  0  0  0  0  0  0
   37.1740   29.8871   51.5239 C   0  0  0  0  0  0  0  0  0  0  0  0
   35.9788   29.2874   51.3212 N   0  0  0  0  0  0  0  0  0  0  0  0
   36.8916   32.3943   47.7031 H   0  0  0  0  0  0  0  0  0  0  0  0
   39.1143   32.6721   49.9122 H   0  0  0  0  0  0  0  0  0  0  0  0
   38.6844   33.8573   48.6044 H   0  0  0  0  0  0  0  0  0  0  0  0
   39.0581   30.5894   48.0926 H   0  0  0  0  0  0  0  0  0  0  0  0
   39.8681   34.1953   47.3133 H   0  0  0  0  0  0  0  0  0  0  0  0
   40.6142   35.0293   45.2940 H   0  0  0  0  0  0  0  0  0  0  0  0
   40.6152   33.6807   43.2540 H   0  0  0  0  0  0  0  0  0  0  0  0
   40.1500   31.6755   42.1445 H   0  0  0  0  0  0  0  0  0  0  0  0
   39.3161   29.3893   42.1498 H   0  0  0  0  0  0  0  0  0  0  0  0
   38.4663   28.4023   44.3074 H   0  0  0  0  0  0  0  0  0  0  0  0
   38.4904   29.7206   46.3130 H   0  0  0  0  0  0  0  0  0  0  0  0
   34.3247   29.1415   49.9868 H   0  0  0  0  0  0  0  0  0  0  0  0
   35.2606   30.7684   48.3569 H   0  0  0  0  0  0  0  0  0  0  0  0
   37.8999   29.5639   52.7057 N   0  0  0  0  0  0  0  0  0  0  0  0
   37.2192   29.1831   53.9298 C   0  0  0  0  0  0  0  0  0  0  0  0
   38.1985   28.3938   54.7715 C   0  0  0  0  0  0  0  0  0  0  0  0
   38.9441   27.4320   53.9033 C   0  0  0  0  0  0  0  0  0  0  0  0
   38.1954   26.8663   53.2799 H   0  0  0  0  0  0  0  0  0  0  0  0
   39.8671   28.2150   52.9943 C   0  0  0  0  0  0  0  0  0  0  0  0
   39.3503   29.6068   52.7183 C   0  0  0  0  0  0  0  0  0  0  0  0
   36.4131   28.4726   53.6207 H   0  0  0  0  0  0  0  0  0  0  0  0
   36.7998   30.0530   54.4722 H   0  0  0  0  0  0  0  0  0  0  0  0
   38.8673   29.0393   55.3489 H   0  0  0  0  0  0  0  0  0  0  0  0
   37.5917   27.7750   55.4829 H   0  0  0  0  0  0  0  0  0  0  0  0
   39.4852   26.6692   54.4985 H   0  0  0  0  0  0  0  0  0  0  0  0
   40.0071   27.6903   52.0341 H   0  0  0  0  0  0  0  0  0  0  0  0
   40.8962   28.3203   53.4323 H   0  0  0  0  0  0  0  0  0  0  0  0
   39.7247   30.3463   53.4543 H   0  0  0  0  0  0  0  0  0  0  0  0
   39.7202   29.9027   51.7130 H   0  0  0  0  0  0  0  0  0  0  0  0
  1  2  1  0
  1 16  1  0
  3  1  1  0
  3  2  1  0
  4  5  2  0
  4  3  1  0
  6  5  1  0
  7  6  2  0
  8  7  1  0
  8 13  2  0
  9  8  1  0
 10  9  2  0
 10 11  1  0
 11 12  2  0
 13 12  1  0
 13  4  1  0
 14 19  2  0
 15 16  2  0
 15 14  1  0
 16 17  1  0
 17 18  2  0
 19 18  1  0
  1 20  1  6
  2 21  1  0
  2 22  1  0
  3 23  1  1
  5 24  1  0
  6 25  1  0
  7 26  1  0
  9 27  1  0
 10 28  1  0
 11 29  1  0
 12 30  1  0
 14 31  1  0
 15 32  1  0
 33 34  1  0
 34 35  1  0
 35 36  1  0
 36 37  1  0
 36 38  1  0
 38 39  1  0
 39 33  1  0
 34 40  1  0
 34 41  1  0
 35 42  1  0
 35 43  1  0
 36 44  1  0
 38 45  1  0
 38 46  1  0
 39 47  1  0
 39 48  1  0
 18 33  1  0
M  ISO  8  20  13  21  13  22  13  23  13  24  14  25  14  26  14  27  14
M  ISO  6  28  14  29  14  30  14  31  14  32  14  37  15
M  END
>  <DihAtoms>  (1) 
16,17,32,33

>  <DihDeg>  (1) 
-179.98951787912793

$$$$
