
 OpenBabel03272505573D

 42 45  0  0  1  0  0  0  0  0999 V2000
   35.3300   30.3430   49.9100 C   0  0  2  0  0  0  0  0  0  0  0  0
   36.2270   31.2140   49.1120 C   0  0  0  0  0  0  0  0  0  0  0  0
   37.6960   30.7720   49.1950 C   0  0  2  0  0  0  0  0  0  0  0  0
   38.2240   30.6820   50.5550 C   0  0  0  0  0  0  0  0  0  0  0  0
   37.2150   30.1370   51.5630 C   0  0  0  0  0  0  0  0  0  0  0  0
   36.0740   29.4380   50.8690 C   0  0  0  0  0  0  0  0  0  0  0  0
   34.6290   30.9230   50.5830 H   0  0  0  0  0  0  0  0  0  0  0  0
   36.0800   31.3780   48.0730 H   0  0  0  0  0  0  0  0  0  0  0  0
   36.2420   32.2200   49.6500 H   0  0  0  0  0  0  0  0  0  0  0  0
   37.7950   29.8260   48.6390 H   0  0  0  0  0  0  0  0  0  0  0  0
   38.5180   31.6730   50.9470 H   0  0  0  0  0  0  0  0  0  0  0  0
   39.1540   30.0770   50.5570 H   0  0  0  0  0  0  0  0  0  0  0  0
   37.7460   29.3650   52.1550 H   0  0  0  0  0  0  0  0  0  0  0  0
   36.8650   30.9070   52.2750 H   0  0  0  0  0  0  0  0  0  0  0  0
   35.3740   29.0830   51.6410 H   0  0  0  0  0  0  0  0  0  0  0  0
   36.5170   28.6070   50.2650 H   0  0  0  0  0  0  0  0  0  0  0  0
   37.9750   30.2400   46.3060 Cl  0  0  0  0  0  0  0  0  0  0  0  0
   38.6510   31.6660   47.0730 C   0  0  0  0  0  0  0  0  0  0  0  0
   38.4240   31.8270   48.4250 C   0  0  0  0  0  0  0  0  0  0  0  0
   38.9730   32.9890   48.9320 C   0  0  0  0  0  0  0  0  0  0  0  0
   39.6750   33.8860   48.1540 C   0  0  0  0  0  0  0  0  0  0  0  0
   39.8600   33.6480   46.7980 C   0  0  0  0  0  0  0  0  0  0  0  0
   39.3260   32.4940   46.2430 C   0  0  0  0  0  0  0  0  0  0  0  0
   38.8310   33.1870   49.9870 H   0  0  0  0  0  0  0  0  0  0  0  0
   40.0630   34.7680   48.6630 H   0  0  0  0  0  0  0  0  0  0  0  0
   40.4150   34.3760   46.2320 H   0  0  0  0  0  0  0  0  0  0  0  0
   39.5160   32.2510   44.8520 N   0  0  0  0  0  0  0  0  0  0  0  0
   38.6260   32.8060   43.8630 C   0  0  0  0  0  0  0  0  0  0  0  0
   38.5670   31.9690   42.6070 C   0  0  0  0  0  0  0  0  0  0  0  0
   40.0310   31.7480   42.2020 C   0  0  0  0  0  0  0  0  0  0  0  0
   40.1210   31.3430   41.1810 H   0  0  0  0  0  0  0  0  0  0  0  0
   40.5920   30.7710   43.2180 C   0  0  0  0  0  0  0  0  0  0  0  0
   40.6500   31.4250   44.5780 C   0  0  0  0  0  0  0  0  0  0  0  0
   34.4630   29.4910   49.0830 C   0  0  0  0  0  0  0  0  0  0  0  0
   34.6470   29.6230   47.7050 C   0  0  0  0  0  0  0  0  0  0  0  0
   33.8580   28.8220   46.8670 C   0  0  0  0  0  0  0  0  0  0  0  0
   32.9410   27.9480   47.4420 N   0  0  0  0  0  0  0  0  0  0  0  0
   32.8000   27.8580   48.7780 C   0  0  0  0  0  0  0  0  0  0  0  0
   33.5640   28.6310   49.5550 N   0  0  0  0  0  0  0  0  0  0  0  0
   35.2340   30.1810   46.9980 H   0  0  0  0  0  0  0  0  0  0  0  0
   33.7910   28.7180   45.8140 H   0  0  0  0  0  0  0  0  0  0  0  0
   32.1040   27.1960   49.2490 H   0  0  0  0  0  0  0  0  0  0  0  0
  1  7  1  1  0  0  0
  1  6  1  0  0  0  0
  2  3  1  0  0  0  0
  2  9  1  0  0  0  0
  2  1  1  0  0  0  0
  3 10  1  6  0  0  0
  3  4  1  0  0  0  0
  4 12  1  0  0  0  0
  4 11  1  0  0  0  0
  4  5  1  0  0  0  0
  5 13  1  0  0  0  0
  5 14  1  0  0  0  0
  6  5  1  0  0  0  0
  6 15  1  0  0  0  0
  8  2  1  0  0  0  0
 16  6  1  0  0  0  0
 17 18  1  0  0  0  0
 18 19  1  0  0  0  0
 19 20  2  0  0  0  0
 19  3  1  0  0  0  0
 20 24  1  0  0  0  0
 21 25  1  0  0  0  0
 21 20  1  0  0  0  0
 22 21  2  0  0  0  0
 23 22  1  0  0  0  0
 23 18  2  0  0  0  0
 26 22  1  0  0  0  0
 27 23  1  0  0  0  0
 28 27  1  0  0  0  0
 29 28  1  0  0  0  0
 30 29  1  0  0  0  0
 30 32  1  0  0  0  0
 31 30  1  0  0  0  0
 32 33  1  0  0  0  0
 33 27  1  0  0  0  0
 34 39  1  0  0  0  0
 34  1  1  0  0  0  0
 35 34  2  0  0  0  0
 36 37  2  0  0  0  0
 36 35  1  0  0  0  0
 37 38  1  0  0  0  0
 38 42  1  0  0  0  0
 38 39  2  0  0  0  0
 40 35  1  0  0  0  0
 41 36  1  0  0  0  0
M  END
>  <minimizedAffinity>
-7.6969018

>  <minimizedRMSD>
1.14149117

$$$$
