
 OpenBabel03272505173D

 40 43  0  0  1  0  0  0  0  0999 V2000
   39.8780   22.6900   35.5630 N   0  0  0  0  0  0  0  0  0  0  0  0
   40.6230   21.9230   36.5400 C   0  0  0  0  0  0  0  0  0  0  0  0
   40.4920   22.6300   37.8670 C   0  0  0  0  0  0  0  0  0  0  0  0
   39.0930   22.8410   38.0960 N   0  0  0  0  0  0  0  0  0  0  0  0
   38.4910   23.7560   37.1880 C   0  0  0  0  0  0  0  0  0  0  0  0
   39.4220   23.9850   36.0080 C   0  0  2  0  0  0  0  0  0  0  0  0
   40.1150   20.9390   36.6410 H   0  0  0  0  0  0  0  0  0  0  0  0
   41.6760   21.8260   36.2170 H   0  0  0  0  0  0  0  0  0  0  0  0
   41.1400   23.4890   38.0100 H   0  0  0  0  0  0  0  0  0  0  0  0
   40.8100   21.8700   38.6470 H   0  0  0  0  0  0  0  0  0  0  0  0
   38.6210   21.9340   38.2260 H   0  0  0  0  0  0  0  0  0  0  0  0
   38.3050   24.7080   37.7070 H   0  0  0  0  0  0  0  0  0  0  0  0
   37.5400   23.2810   36.8260 H   0  0  0  0  0  0  0  0  0  0  0  0
   40.3410   24.4840   36.4500 H   0  0  0  0  0  0  0  0  0  0  0  0
   37.2150   21.4520   35.2450 Cl  0  0  0  0  0  0  0  0  0  0  0  0
   38.3680   21.6420   33.9450 C   0  0  0  0  0  0  0  0  0  0  0  0
   38.0450   21.2060   32.7070 C   0  0  0  0  0  0  0  0  0  0  0  0
   39.0090   21.4190   31.7220 C   0  0  0  0  0  0  0  0  0  0  0  0
   40.2150   22.0220   31.9410 C   0  0  0  0  0  0  0  0  0  0  0  0
   40.4960   22.4450   33.2160 C   0  0  0  0  0  0  0  0  0  0  0  0
   39.5790   22.2620   34.2340 C   0  0  0  0  0  0  0  0  0  0  0  0
   38.8070   21.0910   30.7080 H   0  0  0  0  0  0  0  0  0  0  0  0
   40.9400   22.1700   31.1480 H   0  0  0  0  0  0  0  0  0  0  0  0
   41.4200   22.9340   33.4990 H   0  0  0  0  0  0  0  0  0  0  0  0
   34.4030   20.6800   31.9310 C   0  0  0  0  0  0  0  0  0  0  0  0
   35.6240   21.3230   32.1890 C   0  0  0  0  0  0  0  0  0  0  0  0
   36.7760   20.5700   32.4550 C   0  0  0  0  0  0  0  0  0  0  0  0
   36.6450   19.2050   32.4550 N   0  0  0  0  0  0  0  0  0  0  0  0
   35.4660   18.6060   32.2070 C   0  0  0  0  0  0  0  0  0  0  0  0
   34.3430   19.3300   31.9440 N   0  0  0  0  0  0  0  0  0  0  0  0
   33.4710   21.1740   31.7160 H   0  0  0  0  0  0  0  0  0  0  0  0
   35.4830   22.3850   32.1710 H   0  0  0  0  0  0  0  0  0  0  0  0
   35.5690   17.5340   32.2510 H   0  0  0  0  0  0  0  0  0  0  0  0
   38.9290   24.8550   35.0320 N   0  0  0  0  0  0  0  0  0  0  0  0
   37.5740   25.2380   35.0210 C   0  0  0  0  0  2  0  0  0  0  0  0
   37.4780   26.7630   34.7690 C   0  0  0  0  0  2  0  0  0  0  0  0
   38.5180   27.4780   35.5920 C   0  0  0  0  0  3  0  0  0  0  0  0
   38.4230   28.5660   35.4350 H   0  0  0  0  0  0  0  0  0  0  0  0
   39.8850   27.0800   35.1240 C   0  0  0  0  0  2  0  0  0  0  0  0
   39.8300   25.7710   34.4200 C   0  0  0  0  0  2  0  0  0  0  0  0
  1  6  1  0  0  0  0
  1  2  1  0  0  0  0
  2  7  1  0  0  0  0
  2  3  1  0  0  0  0
  3  9  1  0  0  0  0
  3  4  1  0  0  0  0
  3 10  1  0  0  0  0
  4 11  1  0  0  0  0
  5 12  1  0  0  0  0
  5  4  1  0  0  0  0
  6 14  1  1  0  0  0
  6  5  1  0  0  0  0
  8  2  1  0  0  0  0
 13  5  1  0  0  0  0
 16 21  1  0  0  0  0
 16 15  1  0  0  0  0
 17 16  2  0  0  0  0
 18 19  2  0  0  0  0
 18 17  1  0  0  0  0
 19 20  1  0  0  0  0
 20 24  1  0  0  0  0
 20 21  2  0  0  0  0
 21  1  1  0  0  0  0
 22 18  1  0  0  0  0
 23 19  1  0  0  0  0
 25 30  2  0  0  0  0
 25 26  1  0  0  0  0
 26 27  2  0  0  0  0
 27 17  1  0  0  0  0
 28 27  1  0  0  0  0
 29 33  1  0  0  0  0
 29 28  2  0  0  0  0
 30 29  1  0  0  0  0
 31 25  1  0  0  0  0
 32 26  1  0  0  0  0
 34  6  1  0  0  0  0
 35 34  1  0  0  0  0
 36 35  1  0  0  0  0
 36 37  1  0  0  0  0
 38 37  1  0  0  0  0
 39 37  1  0  0  0  0
 40 34  1  0  0  0  0
 40 39  1  0  0  0  0
M  END
>  <minimizedAffinity>
-5.60894203

$$$$

 OpenBabel03272505173D

 40 43  0  0  1  0  0  0  0  0999 V2000
   38.4670   25.6550   31.5230 N   0  0  0  0  0  0  0  0  0  0  0  0
   39.3310   26.0470   30.4300 C   0  0  0  0  0  0  0  0  0  0  0  0
   40.6390   26.5070   31.0260 C   0  0  0  0  0  0  0  0  0  0  0  0
   41.0900   25.4670   31.9050 N   0  0  0  0  0  0  0  0  0  0  0  0
   40.2650   25.2830   33.0500 C   0  0  0  0  0  0  0  0  0  0  0  0
   38.9410   26.0010   32.8430 C   0  0  2  0  0  0  0  0  0  0  0  0
   39.5450   25.1320   29.8360 H   0  0  0  0  0  0  0  0  0  0  0  0
   38.8430   26.8370   29.8300 H   0  0  0  0  0  0  0  0  0  0  0  0
   40.6470   27.5150   31.4280 H   0  0  0  0  0  0  0  0  0  0  0  0
   41.3790   26.5110   30.1670 H   0  0  0  0  0  0  0  0  0  0  0  0
   41.3240   24.6270   31.3580 H   0  0  0  0  0  0  0  0  0  0  0  0
   40.7780   25.6930   33.9330 H   0  0  0  0  0  0  0  0  0  0  0  0
   40.0800   24.1790   33.1460 H   0  0  0  0  0  0  0  0  0  0  0  0
   39.2100   27.1010   32.7790 H   0  0  0  0  0  0  0  0  0  0  0  0
   38.6130   22.7350   31.9420 Cl  0  0  0  0  0  0  0  0  0  0  0  0
   37.1460   23.5930   31.5340 C   0  0  0  0  0  0  0  0  0  0  0  0
   35.9930   22.9020   31.3970 C   0  0  0  0  0  0  0  0  0  0  0  0
   34.8640   23.6640   31.0960 C   0  0  0  0  0  0  0  0  0  0  0  0
   34.8710   25.0210   30.9380 C   0  0  0  0  0  0  0  0  0  0  0  0
   36.0680   25.6760   31.0860 C   0  0  0  0  0  0  0  0  0  0  0  0
   37.2200   24.9740   31.3850 C   0  0  0  0  0  0  0  0  0  0  0  0
   33.9100   23.1660   30.9750 H   0  0  0  0  0  0  0  0  0  0  0  0
   33.9720   25.5800   30.7050 H   0  0  0  0  0  0  0  0  0  0  0  0
   36.1850   26.7480   30.9830 H   0  0  0  0  0  0  0  0  0  0  0  0
   35.5310   19.4870   32.9020 C   0  0  0  0  0  0  0  0  0  0  0  0
   35.5650   20.8830   32.7710 C   0  0  0  0  0  0  0  0  0  0  0  0
   35.9650   21.4700   31.5620 C   0  0  0  0  0  0  0  0  0  0  0  0
   36.3180   20.6240   30.5430 N   0  0  0  0  0  0  0  0  0  0  0  0
   36.2810   19.2860   30.6870 C   0  0  0  0  0  0  0  0  0  0  0  0
   35.8900   18.7080   31.8560 N   0  0  0  0  0  0  0  0  0  0  0  0
   35.2370   18.9500   33.7870 H   0  0  0  0  0  0  0  0  0  0  0  0
   35.2830   21.3390   33.6980 H   0  0  0  0  0  0  0  0  0  0  0  0
   36.5920   18.7980   29.7770 H   0  0  0  0  0  0  0  0  0  0  0  0
   38.0330   25.8730   33.8970 N   0  0  0  0  0  0  0  0  0  0  0  0
   38.2210   24.9050   34.9020 C   0  0  0  0  0  2  0  0  0  0  0  0
   37.9540   25.5470   36.2850 C   0  0  0  0  0  2  0  0  0  0  0  0
   38.5930   26.9100   36.3410 C   0  0  0  0  0  3  0  0  0  0  0  0
   38.4290   27.3490   37.3400 H   0  0  0  0  0  0  0  0  0  0  0  0
   37.9310   27.8140   35.3450 C   0  0  0  0  0  2  0  0  0  0  0  0
   37.2710   27.0130   34.2790 C   0  0  0  0  0  2  0  0  0  0  0  0
  1  6  1  0  0  0  0
  2  3  1  0  0  0  0
  2  1  1  0  0  0  0
  3  9  1  0  0  0  0
  3  4  1  0  0  0  0
  4  5  1  0  0  0  0
  5 13  1  0  0  0  0
  5 12  1  0  0  0  0
  6 14  1  6  0  0  0
  6  5  1  0  0  0  0
  6 34  1  0  0  0  0
  7  2  1  0  0  0  0
  8  2  1  0  0  0  0
 10  3  1  0  0  0  0
 11  4  1  0  0  0  0
 16 15  1  0  0  0  0
 17 16  1  0  0  0  0
 17 27  1  0  0  0  0
 18 17  2  0  0  0  0
 19 20  2  0  0  0  0
 19 18  1  0  0  0  0
 20 21  1  0  0  0  0
 21  1  1  0  0  0  0
 21 16  2  0  0  0  0
 22 18  1  0  0  0  0
 23 19  1  0  0  0  0
 24 20  1  0  0  0  0
 25 31  1  0  0  0  0
 26 25  1  0  0  0  0
 26 32  1  0  0  0  0
 27 26  2  0  0  0  0
 28 29  2  0  0  0  0
 28 27  1  0  0  0  0
 29 30  1  0  0  0  0
 30 25  2  0  0  0  0
 33 29  1  0  0  0  0
 34 40  1  0  0  0  0
 34 35  1  0  0  0  0
 35 36  1  0  0  0  0
 36 37  1  0  0  0  0
 37 38  1  0  0  0  0
 39 37  1  0  0  0  0
 40 39  1  0  0  0  0
M  END
>  <minimizedAffinity>
-5.54977655

$$$$

 OpenBabel03272505173D

 40 43  0  0  1  0  0  0  0  0999 V2000
   39.7990   24.8100   33.9820 N   0  0  0  0  0  0  0  0  0  0  0  0
   41.1850   24.6360   33.6000 C   0  0  0  0  0  0  0  0  0  0  0  0
   41.7640   26.0070   33.3530 C   0  0  0  0  0  0  0  0  0  0  0  0
   41.4770   26.8010   34.5120 N   0  0  0  0  0  0  0  0  0  0  0  0
   40.0910   27.0690   34.6980 C   0  0  0  0  0  0  0  0  0  0  0  0
   39.2720   26.1430   33.8130 C   0  0  2  0  0  0  0  0  0  0  0  0
   41.7160   24.2080   34.4780 H   0  0  0  0  0  0  0  0  0  0  0  0
   41.2490   23.9860   32.7080 H   0  0  0  0  0  0  0  0  0  0  0  0
   41.5280   26.4530   32.3920 H   0  0  0  0  0  0  0  0  0  0  0  0
   42.8900   25.8660   33.3610 H   0  0  0  0  0  0  0  0  0  0  0  0
   41.9940   26.4320   35.3230 H   0  0  0  0  0  0  0  0  0  0  0  0
   39.8890   28.1170   34.4310 H   0  0  0  0  0  0  0  0  0  0  0  0
   39.8590   26.8570   35.7760 H   0  0  0  0  0  0  0  0  0  0  0  0
   39.5450   26.4350   32.7510 H   0  0  0  0  0  0  0  0  0  0  0  0
   38.5840   23.0810   31.9190 Cl  0  0  0  0  0  0  0  0  0  0  0  0
   38.2950   22.9090   33.6350 C   0  0  0  0  0  0  0  0  0  0  0  0
   37.4700   21.9310   34.0710 C   0  0  0  0  0  0  0  0  0  0  0  0
   37.3130   21.8470   35.4540 C   0  0  0  0  0  0  0  0  0  0  0  0
   37.9290   22.6720   36.3510 C   0  0  0  0  0  0  0  0  0  0  0  0
   38.7560   23.6500   35.8570 C   0  0  0  0  0  0  0  0  0  0  0  0
   38.9510   23.7830   34.4960 C   0  0  0  0  0  0  0  0  0  0  0  0
   36.6640   21.0820   35.8640 H   0  0  0  0  0  0  0  0  0  0  0  0
   37.7830   22.5750   37.4210 H   0  0  0  0  0  0  0  0  0  0  0  0
   39.2920   24.3570   36.4790 H   0  0  0  0  0  0  0  0  0  0  0  0
   34.8210   20.2800   31.9730 C   0  0  0  0  0  0  0  0  0  0  0  0
   35.4350   21.1400   32.8970 C   0  0  0  0  0  0  0  0  0  0  0  0
   36.8130   21.0490   33.1390 C   0  0  0  0  0  0  0  0  0  0  0  0
   37.5080   20.0930   32.4440 N   0  0  0  0  0  0  0  0  0  0  0  0
   36.9020   19.2760   31.5630 C   0  0  0  0  0  0  0  0  0  0  0  0
   35.5650   19.3600   31.3200 N   0  0  0  0  0  0  0  0  0  0  0  0
   33.7740   20.2780   31.7230 H   0  0  0  0  0  0  0  0  0  0  0  0
   34.6980   21.7770   33.3420 H   0  0  0  0  0  0  0  0  0  0  0  0
   37.6150   18.5980   31.1220 H   0  0  0  0  0  0  0  0  0  0  0  0
   37.8880   26.2990   33.9250 N   0  0  0  0  0  0  0  0  0  0  0  0
   37.3250   27.0460   34.9770 C   0  0  0  0  0  2  0  0  0  0  0  0
   36.2130   27.9620   34.4130 C   0  0  0  0  0  2  0  0  0  0  0  0
   36.6820   28.5940   33.1280 C   0  0  0  0  0  3  0  0  0  0  0  0
   35.8990   29.2730   32.7470 H   0  0  0  0  0  0  0  0  0  0  0  0
   36.8860   27.5280   32.0930 C   0  0  0  0  0  2  0  0  0  0  0  0
   37.0970   26.2090   32.7450 C   0  0  0  0  0  2  0  0  0  0  0  0
  1 21  1  0  0  0  0
  2  1  1  0  0  0  0
  2  7  1  0  0  0  0
  3 10  1  0  0  0  0
  3  2  1  0  0  0  0
  3  4  1  0  0  0  0
  4  5  1  0  0  0  0
  4 11  1  0  0  0  0
  5 13  1  0  0  0  0
  6 14  1  6  0  0  0
  6 34  1  0  0  0  0
  6  1  1  0  0  0  0
  6  5  1  0  0  0  0
  8  2  1  0  0  0  0
  9  3  1  0  0  0  0
 12  5  1  0  0  0  0
 15 16  1  0  0  0  0
 16 17  2  0  0  0  0
 16 21  1  0  0  0  0
 17 18  1  0  0  0  0
 18 22  1  0  0  0  0
 18 19  2  0  0  0  0
 19 23  1  0  0  0  0
 20 19  1  0  0  0  0
 20 24  1  0  0  0  0
 21 20  2  0  0  0  0
 25 26  1  0  0  0  0
 26 27  2  0  0  0  0
 26 32  1  0  0  0  0
 27 17  1  0  0  0  0
 28 27  1  0  0  0  0
 29 28  2  0  0  0  0
 30 29  1  0  0  0  0
 30 25  2  0  0  0  0
 31 25  1  0  0  0  0
 33 29  1  0  0  0  0
 34 35  1  0  0  0  0
 36 35  1  0  0  0  0
 37 36  1  0  0  0  0
 38 37  1  0  0  0  0
 39 40  1  0  0  0  0
 39 37  1  0  0  0  0
 40 34  1  0  0  0  0
M  END
>  <minimizedAffinity>
-5.33559895

$$$$

 OpenBabel03272505173D

 40 43  0  0  1  0  0  0  0  0999 V2000
   39.4270   23.2510   33.1350 N   0  0  0  0  0  0  0  0  0  0  0  0
   39.4850   22.2030   32.1380 C   0  0  0  0  0  0  0  0  0  0  0  0
   38.8390   20.9750   32.7320 C   0  0  0  0  0  0  0  0  0  0  0  0
   37.5510   21.3720   33.2220 N   0  0  0  0  0  0  0  0  0  0  0  0
   37.6060   22.2690   34.3260 C   0  0  0  0  0  0  0  0  0  0  0  0
   39.0120   22.8320   34.4530 C   0  0  2  0  0  0  0  0  0  0  0  0
   38.8510   22.5270   31.2840 H   0  0  0  0  0  0  0  0  0  0  0  0
   40.5350   22.0240   31.8420 H   0  0  0  0  0  0  0  0  0  0  0  0
   39.4570   20.3980   33.4120 H   0  0  0  0  0  0  0  0  0  0  0  0
   38.6240   20.2910   31.8530 H   0  0  0  0  0  0  0  0  0  0  0  0
   36.9460   21.6400   32.4330 H   0  0  0  0  0  0  0  0  0  0  0  0
   37.3380   21.7250   35.2450 H   0  0  0  0  0  0  0  0  0  0  0  0
   36.8880   23.1030   34.1060 H   0  0  0  0  0  0  0  0  0  0  0  0
   39.6670   21.9370   34.6960 H   0  0  0  0  0  0  0  0  0  0  0  0
   37.1590   24.8920   32.1930 Cl  0  0  0  0  0  0  0  0  0  0  0  0
   38.7770   25.5070   32.4390 C   0  0  0  0  0  0  0  0  0  0  0  0
   39.0320   26.8120   32.1930 C   0  0  0  0  0  0  0  0  0  0  0  0
   40.3400   27.2280   32.4390 C   0  0  0  0  0  0  0  0  0  0  0  0
   41.3340   26.4110   32.8990 C   0  0  0  0  0  0  0  0  0  0  0  0
   41.0240   25.0950   33.1320 C   0  0  0  0  0  0  0  0  0  0  0  0
   39.7450   24.6240   32.9060 C   0  0  0  0  0  0  0  0  0  0  0  0
   40.6050   28.2630   32.2610 H   0  0  0  0  0  0  0  0  0  0  0  0
   42.3410   26.7720   33.0790 H   0  0  0  0  0  0  0  0  0  0  0  0
   41.7350   24.3630   33.4960 H   0  0  0  0  0  0  0  0  0  0  0  0
   36.9000   28.9080   29.9130 C   0  0  0  0  0  0  0  0  0  0  0  0
   37.9280   28.0650   30.3610 C   0  0  0  0  0  0  0  0  0  0  0  0
   37.9950   27.6890   31.7110 C   0  0  0  0  0  0  0  0  0  0  0  0
   37.0260   28.1820   32.5460 N   0  0  0  0  0  0  0  0  0  0  0  0
   36.0480   28.9900   32.0980 C   0  0  0  0  0  0  0  0  0  0  0  0
   35.9740   29.3590   30.7890 N   0  0  0  0  0  0  0  0  0  0  0  0
   36.7680   29.2470   28.9000 H   0  0  0  0  0  0  0  0  0  0  0  0
   38.5850   27.8340   29.5480 H   0  0  0  0  0  0  0  0  0  0  0  0
   35.3870   29.2690   32.9030 H   0  0  0  0  0  0  0  0  0  0  0  0
   39.1860   23.7470   35.4950 N   0  0  0  0  0  0  0  0  0  0  0  0
   38.0980   24.4800   36.0050 C   0  0  0  0  0  2  0  0  0  0  0  0
   38.1610   24.4760   37.5510 C   0  0  0  0  0  2  0  0  0  0  0  0
   38.5100   23.0940   38.0400 C   0  0  0  0  0  3  0  0  0  0  0  0
   38.5200   23.0880   39.1430 H   0  0  0  0  0  0  0  0  0  0  0  0
   39.8920   22.7370   37.5810 C   0  0  0  0  0  2  0  0  0  0  0  0
   40.2700   23.5510   36.3960 C   0  0  0  0  0  2  0  0  0  0  0  0
  1  6  1  0  0  0  0
  2  3  1  0  0  0  0
  2  1  1  0  0  0  0
  3  4  1  0  0  0  0
  3  9  1  0  0  0  0
  4  5  1  0  0  0  0
  5  6  1  0  0  0  0
  5 12  1  0  0  0  0
  6 14  1  1  0  0  0
  6 34  1  0  0  0  0
  7  2  1  0  0  0  0
  8  2  1  0  0  0  0
 10  3  1  0  0  0  0
 11  4  1  0  0  0  0
 13  5  1  0  0  0  0
 15 16  1  0  0  0  0
 16 21  1  0  0  0  0
 17 16  2  0  0  0  0
 17 18  1  0  0  0  0
 18 19  2  0  0  0  0
 19 23  1  0  0  0  0
 19 20  1  0  0  0  0
 20 24  1  0  0  0  0
 21 20  2  0  0  0  0
 21  1  1  0  0  0  0
 22 18  1  0  0  0  0
 25 26  2  0  0  0  0
 25 30  1  0  0  0  0
 26 27  1  0  0  0  0
 27 17  1  0  0  0  0
 27 28  2  0  0  0  0
 29 28  1  0  0  0  0
 29 33  1  0  0  0  0
 30 29  2  0  0  0  0
 31 25  1  0  0  0  0
 32 26  1  0  0  0  0
 34 35  1  0  0  0  0
 34 40  1  0  0  0  0
 35 36  1  0  0  0  0
 36 37  1  0  0  0  0
 37 38  1  0  0  0  0
 39 37  1  0  0  0  0
 40 39  1  0  0  0  0
M  END
>  <minimizedAffinity>
-5.17666721

$$$$

 OpenBabel03272505173D

 40 43  0  0  1  0  0  0  0  0999 V2000
   39.4320   22.4510   35.5610 N   0  0  0  0  0  0  0  0  0  0  0  0
   40.3200   21.5860   36.3060 C   0  0  0  0  0  0  0  0  0  0  0  0
   40.7270   22.3220   37.5590 C   0  0  0  0  0  0  0  0  0  0  0  0
   39.5220   22.7660   38.1970 N   0  0  0  0  0  0  0  0  0  0  0  0
   38.8120   23.7560   37.4620 C   0  0  0  0  0  0  0  0  0  0  0  0
   39.3440   23.8110   36.0390 C   0  0  2  0  0  0  0  0  0  0  0  0
   39.7270   20.7010   36.6240 H   0  0  0  0  0  0  0  0  0  0  0  0
   41.1890   21.3100   35.6800 H   0  0  0  0  0  0  0  0  0  0  0  0
   41.5100   23.0640   37.4380 H   0  0  0  0  0  0  0  0  0  0  0  0
   41.1550   21.5310   38.2500 H   0  0  0  0  0  0  0  0  0  0  0  0
   38.9830   21.9520   38.5260 H   0  0  0  0  0  0  0  0  0  0  0  0
   38.9480   24.7330   37.9490 H   0  0  0  0  0  0  0  0  0  0  0  0
   37.7340   23.4400   37.4450 H   0  0  0  0  0  0  0  0  0  0  0  0
   40.4210   24.1560   36.1410 H   0  0  0  0  0  0  0  0  0  0  0  0
   40.9090   22.5320   33.0040 Cl  0  0  0  0  0  0  0  0  0  0  0  0
   39.2290   22.0730   33.1500 C   0  0  0  0  0  0  0  0  0  0  0  0
   38.5400   21.7270   32.0390 C   0  0  0  0  0  0  0  0  0  0  0  0
   37.2130   21.3500   32.2450 C   0  0  0  0  0  0  0  0  0  0  0  0
   36.6030   21.3160   33.4660 C   0  0  0  0  0  0  0  0  0  0  0  0
   37.3450   21.6770   34.5630 C   0  0  0  0  0  0  0  0  0  0  0  0
   38.6650   22.0610   34.4210 C   0  0  0  0  0  0  0  0  0  0  0  0
   36.6100   21.0610   31.3920 H   0  0  0  0  0  0  0  0  0  0  0  0
   35.5680   21.0160   33.5870 H   0  0  0  0  0  0  0  0  0  0  0  0
   36.9600   21.6860   35.5750 H   0  0  0  0  0  0  0  0  0  0  0  0
   39.7590   22.9080   28.6840 C   0  0  0  0  0  0  0  0  0  0  0  0
   39.1260   22.9010   29.9360 C   0  0  0  0  0  0  0  0  0  0  0  0
   39.1680   21.7540   30.7420 C   0  0  0  0  0  0  0  0  0  0  0  0
   39.8410   20.6670   30.2480 N   0  0  0  0  0  0  0  0  0  0  0  0
   40.4410   20.6920   29.0430 C   0  0  0  0  0  0  0  0  0  0  0  0
   40.4080   21.8020   28.2550 N   0  0  0  0  0  0  0  0  0  0  0  0
   39.7810   23.7400   28.0000 H   0  0  0  0  0  0  0  0  0  0  0  0
   38.6380   23.8400   30.0980 H   0  0  0  0  0  0  0  0  0  0  0  0
   40.9150   19.7460   28.8360 H   0  0  0  0  0  0  0  0  0  0  0  0
   38.7060   24.7370   35.2100 N   0  0  0  0  0  0  0  0  0  0  0  0
   37.4500   25.2720   35.5520 C   0  0  0  0  0  2  0  0  0  0  0  0
   37.4600   26.7990   35.2970 C   0  0  0  0  0  2  0  0  0  0  0  0
   38.7570   27.3860   35.7930 C   0  0  0  0  0  3  0  0  0  0  0  0
   38.7450   28.4790   35.6390 H   0  0  0  0  0  0  0  0  0  0  0  0
   39.8940   26.8370   34.9850 C   0  0  0  0  0  2  0  0  0  0  0  0
   39.5060   25.5470   34.3550 C   0  0  0  0  0  2  0  0  0  0  0  0
  1  6  1  0  0  0  0
  1  2  1  0  0  0  0
  2  7  1  0  0  0  0
  2  3  1  0  0  0  0
  3  4  1  0  0  0  0
  3 10  1  0  0  0  0
  4 11  1  0  0  0  0
  5 12  1  0  0  0  0
  5  4  1  0  0  0  0
  6 14  1  1  0  0  0
  6  5  1  0  0  0  0
  8  2  1  0  0  0  0
  9  3  1  0  0  0  0
 13  5  1  0  0  0  0
 15 16  1  0  0  0  0
 16 21  1  0  0  0  0
 17 18  1  0  0  0  0
 17 16  2  0  0  0  0
 18 19  2  0  0  0  0
 19 23  1  0  0  0  0
 19 20  1  0  0  0  0
 20 24  1  0  0  0  0
 21 20  2  0  0  0  0
 21  1  1  0  0  0  0
 22 18  1  0  0  0  0
 25 26  1  0  0  0  0
 26 32  1  0  0  0  0
 26 27  2  0  0  0  0
 27 17  1  0  0  0  0
 28 27  1  0  0  0  0
 29 28  2  0  0  0  0
 30 25  2  0  0  0  0
 30 29  1  0  0  0  0
 31 25  1  0  0  0  0
 33 29  1  0  0  0  0
 34 35  1  0  0  0  0
 34  6  1  0  0  0  0
 36 35  1  0  0  0  0
 36 37  1  0  0  0  0
 38 37  1  0  0  0  0
 39 37  1  0  0  0  0
 40 39  1  0  0  0  0
 40 34  1  0  0  0  0
M  END
>  <minimizedAffinity>
-5.16023588

$$$$

 OpenBabel03272505173D

 40 43  0  0  1  0  0  0  0  0999 V2000
   37.6810   25.6810   31.9730 N   0  0  0  0  0  0  0  0  0  0  0  0
   36.3410   26.2000   32.1470 C   0  0  0  0  0  0  0  0  0  0  0  0
   35.4760   25.5970   31.0680 C   0  0  0  0  0  0  0  0  0  0  0  0
   35.6640   24.1770   31.1210 N   0  0  0  0  0  0  0  0  0  0  0  0
   36.9720   23.7540   30.7540 C   0  0  0  0  0  0  0  0  0  0  0  0
   37.9090   24.9510   30.7480 C   0  0  2  0  0  0  0  0  0  0  0  0
   35.9650   25.8170   33.1210 H   0  0  0  0  0  0  0  0  0  0  0  0
   36.3580   27.3040   32.1050 H   0  0  0  0  0  0  0  0  0  0  0  0
   35.5540   26.0580   30.0880 H   0  0  0  0  0  0  0  0  0  0  0  0
   34.4070   25.7690   31.4050 H   0  0  0  0  0  0  0  0  0  0  0  0
   35.2850   23.8100   32.0060 H   0  0  0  0  0  0  0  0  0  0  0  0
   36.9360   23.3030   29.7510 H   0  0  0  0  0  0  0  0  0  0  0  0
   37.3100   23.0200   31.5340 H   0  0  0  0  0  0  0  0  0  0  0  0
   37.5170   25.6270   29.9250 H   0  0  0  0  0  0  0  0  0  0  0  0
   38.0500   23.4080   33.8220 Cl  0  0  0  0  0  0  0  0  0  0  0  0
   39.0280   24.8570   33.8450 C   0  0  0  0  0  0  0  0  0  0  0  0
   40.0220   24.9680   34.7540 C   0  0  0  0  0  0  0  0  0  0  0  0
   40.7700   26.1430   34.6880 C   0  0  0  0  0  0  0  0  0  0  0  0
   40.5530   27.1460   33.7850 C   0  0  0  0  0  0  0  0  0  0  0  0
   39.5310   26.9840   32.8840 C   0  0  0  0  0  0  0  0  0  0  0  0
   38.7540   25.8410   32.9010 C   0  0  0  0  0  0  0  0  0  0  0  0
   41.5820   26.2900   35.3910 H   0  0  0  0  0  0  0  0  0  0  0  0
   41.1570   28.0460   33.7640 H   0  0  0  0  0  0  0  0  0  0  0  0
   39.2730   27.7150   32.1280 H   0  0  0  0  0  0  0  0  0  0  0  0
   41.5950   22.0570   36.5410 C   0  0  0  0  0  0  0  0  0  0  0  0
   41.3680   23.0600   35.5850 C   0  0  0  0  0  0  0  0  0  0  0  0
   40.2680   23.9210   35.7120 C   0  0  0  0  0  0  0  0  0  0  0  0
   39.4460   23.7290   36.7930 N   0  0  0  0  0  0  0  0  0  0  0  0
   39.6780   22.7620   37.6980 C   0  0  0  0  0  0  0  0  0  0  0  0
   40.7460   21.9230   37.5840 N   0  0  0  0  0  0  0  0  0  0  0  0
   42.4100   21.3550   36.5260 H   0  0  0  0  0  0  0  0  0  0  0  0
   42.1120   23.0010   34.8170 H   0  0  0  0  0  0  0  0  0  0  0  0
   38.9240   22.7730   38.4690 H   0  0  0  0  0  0  0  0  0  0  0  0
   39.2350   24.6560   30.4210 N   0  0  0  0  0  0  0  0  0  0  0  0
   39.7300   23.3410   30.5180 C   0  0  0  0  0  2  0  0  0  0  0  0
   40.5690   23.0190   29.2570 C   0  0  0  0  0  2  0  0  0  0  0  0
   39.8570   23.5310   28.0320 C   0  0  0  0  0  3  0  0  0  0  0  0
   40.4420   23.2690   27.1330 H   0  0  0  0  0  0  0  0  0  0  0  0
   39.7780   25.0270   28.0890 C   0  0  0  0  0  2  0  0  0  0  0  0
   39.9100   25.4980   29.4930 C   0  0  0  0  0  2  0  0  0  0  0  0
  1  2  1  0  0  0  0
  1 21  1  0  0  0  0
  2  7  1  0  0  0  0
  3  4  1  0  0  0  0
  3 10  1  0  0  0  0
  3  2  1  0  0  0  0
  4 11  1  0  0  0  0
  5  4  1  0  0  0  0
  5 13  1  0  0  0  0
  6 14  1  6  0  0  0
  6  5  1  0  0  0  0
  6  1  1  0  0  0  0
  8  2  1  0  0  0  0
  9  3  1  0  0  0  0
 12  5  1  0  0  0  0
 15 16  1  0  0  0  0
 16 17  1  0  0  0  0
 17 27  1  0  0  0  0
 18 17  2  0  0  0  0
 18 22  1  0  0  0  0
 19 18  1  0  0  0  0
 20 21  1  0  0  0  0
 20 19  2  0  0  0  0
 21 16  2  0  0  0  0
 23 19  1  0  0  0  0
 24 20  1  0  0  0  0
 25 30  1  0  0  0  0
 26 27  1  0  0  0  0
 26 25  2  0  0  0  0
 27 28  2  0  0  0  0
 28 29  1  0  0  0  0
 29 33  1  0  0  0  0
 30 29  2  0  0  0  0
 31 25  1  0  0  0  0
 32 26  1  0  0  0  0
 34 35  1  0  0  0  0
 34  6  1  0  0  0  0
 36 35  1  0  0  0  0
 37 39  1  0  0  0  0
 37 36  1  0  0  0  0
 38 37  1  0  0  0  0
 39 40  1  0  0  0  0
 40 34  1  0  0  0  0
M  END
>  <minimizedAffinity>
-5.09345675

$$$$

 OpenBabel03272505173D

 40 43  0  0  1  0  0  0  0  0999 V2000
   37.1450   26.9540   32.1870 N   0  0  0  0  0  0  0  0  0  0  0  0
   36.1350   27.8930   32.6280 C   0  0  0  0  0  0  0  0  0  0  0  0
   36.2810   29.1430   31.7950 C   0  0  0  0  0  0  0  0  0  0  0  0
   36.2740   28.7360   30.4200 N   0  0  0  0  0  0  0  0  0  0  0  0
   37.4090   27.9660   30.0400 C   0  0  0  0  0  0  0  0  0  0  0  0
   38.1380   27.4890   31.2860 C   0  0  2  0  0  0  0  0  0  0  0  0
   35.1460   27.4490   32.3820 H   0  0  0  0  0  0  0  0  0  0  0  0
   36.2530   28.0920   33.7090 H   0  0  0  0  0  0  0  0  0  0  0  0
   37.0760   29.8190   32.0940 H   0  0  0  0  0  0  0  0  0  0  0  0
   35.3150   29.7180   31.9400 H   0  0  0  0  0  0  0  0  0  0  0  0
   35.3480   28.3560   30.1750 H   0  0  0  0  0  0  0  0  0  0  0  0
   38.0790   28.5890   29.4300 H   0  0  0  0  0  0  0  0  0  0  0  0
   37.0250   27.0770   29.4700 H   0  0  0  0  0  0  0  0  0  0  0  0
   38.5110   28.4370   31.7890 H   0  0  0  0  0  0  0  0  0  0  0  0
   38.3670   26.4970   34.8370 Cl  0  0  0  0  0  0  0  0  0  0  0  0
   37.7940   25.2200   33.7900 C   0  0  0  0  0  0  0  0  0  0  0  0
   37.9030   23.9350   34.1950 C   0  0  0  0  0  0  0  0  0  0  0  0
   37.3990   22.9800   33.3120 C   0  0  0  0  0  0  0  0  0  0  0  0
   36.8240   23.2710   32.1080 C   0  0  0  0  0  0  0  0  0  0  0  0
   36.7390   24.5910   31.7420 C   0  0  0  0  0  0  0  0  0  0  0  0
   37.2210   25.5820   32.5750 C   0  0  0  0  0  0  0  0  0  0  0  0
   37.4570   21.9320   33.5820 H   0  0  0  0  0  0  0  0  0  0  0  0
   36.4420   22.5000   31.4480 H   0  0  0  0  0  0  0  0  0  0  0  0
   36.3030   24.9320   30.8110 H   0  0  0  0  0  0  0  0  0  0  0  0
   40.4140   22.9230   36.8040 C   0  0  0  0  0  0  0  0  0  0  0  0
   39.8480   23.2200   35.5550 C   0  0  0  0  0  0  0  0  0  0  0  0
   38.5030   23.6080   35.4630 C   0  0  0  0  0  0  0  0  0  0  0  0
   37.7910   23.6750   36.6330 N   0  0  0  0  0  0  0  0  0  0  0  0
   38.3510   23.3840   37.8220 C   0  0  0  0  0  0  0  0  0  0  0  0
   39.6560   23.0090   37.9200 N   0  0  0  0  0  0  0  0  0  0  0  0
   41.4330   22.6190   36.9700 H   0  0  0  0  0  0  0  0  0  0  0  0
   40.5750   23.0680   34.7840 H   0  0  0  0  0  0  0  0  0  0  0  0
   37.6310   23.4960   38.6180 H   0  0  0  0  0  0  0  0  0  0  0  0
   39.2650   26.7010   31.0400 N   0  0  0  0  0  0  0  0  0  0  0  0
   39.4660   26.0950   29.7850 C   0  0  0  0  0  2  0  0  0  0  0  0
   40.9420   26.2830   29.3590 C   0  0  0  0  0  2  0  0  0  0  0  0
   41.3790   27.6940   29.6600 C   0  0  0  0  0  3  0  0  0  0  0  0
   42.4210   27.8330   29.3230 H   0  0  0  0  0  0  0  0  0  0  0  0
   41.3580   27.9170   31.1420 C   0  0  0  0  0  2  0  0  0  0  0  0
   40.4440   26.9450   31.7990 C   0  0  0  0  0  2  0  0  0  0  0  0
  1 21  1  0  0  0  0
  1  2  1  0  0  0  0
  2  8  1  0  0  0  0
  3 10  1  0  0  0  0
  3  9  1  0  0  0  0
  3  2  1  0  0  0  0
  4  3  1  0  0  0  0
  5  4  1  0  0  0  0
  5  6  1  0  0  0  0
  6 14  1  1  0  0  0
  6  1  1  0  0  0  0
  7  2  1  0  0  0  0
 11  4  1  0  0  0  0
 12  5  1  0  0  0  0
 13  5  1  0  0  0  0
 16 17  1  0  0  0  0
 16 15  1  0  0  0  0
 17 27  1  0  0  0  0
 18 22  1  0  0  0  0
 18 17  2  0  0  0  0
 19 18  1  0  0  0  0
 20 19  2  0  0  0  0
 20 21  1  0  0  0  0
 21 16  2  0  0  0  0
 23 19  1  0  0  0  0
 24 20  1  0  0  0  0
 25 31  1  0  0  0  0
 25 30  1  0  0  0  0
 26 25  2  0  0  0  0
 27 26  1  0  0  0  0
 27 28  2  0  0  0  0
 28 29  1  0  0  0  0
 29 30  2  0  0  0  0
 29 33  1  0  0  0  0
 32 26  1  0  0  0  0
 34  6  1  0  0  0  0
 34 40  1  0  0  0  0
 35 34  1  0  0  0  0
 36 37  1  0  0  0  0
 36 35  1  0  0  0  0
 37 39  1  0  0  0  0
 38 37  1  0  0  0  0
 39 40  1  0  0  0  0
M  END
>  <minimizedAffinity>
-5.09189892

$$$$

 OpenBabel03272505173D

 40 43  0  0  1  0  0  0  0  0999 V2000
   39.3480   24.3430   33.2600 N   0  0  0  0  0  0  0  0  0  0  0  0
   40.5410   24.7920   32.5750 C   0  0  0  0  0  0  0  0  0  0  0  0
   41.6550   24.8490   33.5920 C   0  0  0  0  0  0  0  0  0  0  0  0
   41.6910   23.5750   34.2490 N   0  0  0  0  0  0  0  0  0  0  0  0
   40.5440   23.3050   35.0470 C   0  0  0  0  0  0  0  0  0  0  0  0
   39.4410   24.2920   34.7000 C   0  0  2  0  0  0  0  0  0  0  0  0
   40.8110   24.0070   31.8360 H   0  0  0  0  0  0  0  0  0  0  0  0
   40.3550   25.7740   32.1010 H   0  0  0  0  0  0  0  0  0  0  0  0
   41.6640   25.7230   34.2350 H   0  0  0  0  0  0  0  0  0  0  0  0
   42.6140   24.8990   32.9880 H   0  0  0  0  0  0  0  0  0  0  0  0
   41.9750   22.8460   33.5780 H   0  0  0  0  0  0  0  0  0  0  0  0
   40.8130   23.4040   36.1090 H   0  0  0  0  0  0  0  0  0  0  0  0
   40.2060   22.2640   34.7940 H   0  0  0  0  0  0  0  0  0  0  0  0
   39.8480   25.3070   35.0040 H   0  0  0  0  0  0  0  0  0  0  0  0
   39.0420   21.4360   32.8340 Cl  0  0  0  0  0  0  0  0  0  0  0  0
   37.8610   22.6270   32.3430 C   0  0  0  0  0  0  0  0  0  0  0  0
   36.7270   22.2190   31.7300 C   0  0  0  0  0  0  0  0  0  0  0  0
   35.8260   23.2290   31.3930 C   0  0  0  0  0  0  0  0  0  0  0  0
   36.0280   24.5570   31.6440 C   0  0  0  0  0  0  0  0  0  0  0  0
   37.1950   24.9190   32.2680 C   0  0  0  0  0  0  0  0  0  0  0  0
   38.1270   23.9630   32.6250 C   0  0  0  0  0  0  0  0  0  0  0  0
   34.8980   22.9630   30.9000 H   0  0  0  0  0  0  0  0  0  0  0  0
   35.3030   25.3130   31.3680 H   0  0  0  0  0  0  0  0  0  0  0  0
   37.4550   25.9420   32.5130 H   0  0  0  0  0  0  0  0  0  0  0  0
   35.5540   18.6620   32.0620 C   0  0  0  0  0  0  0  0  0  0  0  0
   35.7800   20.0150   32.3560 C   0  0  0  0  0  0  0  0  0  0  0  0
   36.4960   20.8220   31.4590 C   0  0  0  0  0  0  0  0  0  0  0  0
   36.9540   20.2280   30.3120 N   0  0  0  0  0  0  0  0  0  0  0  0
   36.7280   18.9280   30.0480 C   0  0  0  0  0  0  0  0  0  0  0  0
   36.0320   18.1380   30.9110 N   0  0  0  0  0  0  0  0  0  0  0  0
   35.0160   17.9700   32.6860 H   0  0  0  0  0  0  0  0  0  0  0  0
   35.3640   20.2510   33.3140 H   0  0  0  0  0  0  0  0  0  0  0  0
   37.1660   18.6510   29.1020 H   0  0  0  0  0  0  0  0  0  0  0  0
   38.2500   24.1130   35.4080 N   0  0  0  0  0  0  0  0  0  0  0  0
   37.9250   22.8670   35.9770 C   0  0  0  0  0  2  0  0  0  0  0  0
   37.3850   23.0860   37.4110 C   0  0  0  0  0  2  0  0  0  0  0  0
   38.2380   24.1060   38.1210 C   0  0  0  0  0  3  0  0  0  0  0  0
   37.8690   24.2340   39.1540 H   0  0  0  0  0  0  0  0  0  0  0  0
   38.1040   25.4330   37.4360 C   0  0  0  0  0  2  0  0  0  0  0  0
   37.6530   25.2450   36.0310 C   0  0  0  0  0  2  0  0  0  0  0  0
  1  6  1  0  0  0  0
  2  1  1  0  0  0  0
  2  3  1  0  0  0  0
  3  9  1  0  0  0  0
  3  4  1  0  0  0  0
  4  5  1  0  0  0  0
  5 12  1  0  0  0  0
  6 14  1  1  0  0  0
  6  5  1  0  0  0  0
  6 34  1  0  0  0  0
  7  2  1  0  0  0  0
  8  2  1  0  0  0  0
 10  3  1  0  0  0  0
 11  4  1  0  0  0  0
 13  5  1  0  0  0  0
 16 21  1  0  0  0  0
 16 15  1  0  0  0  0
 17 16  2  0  0  0  0
 18 19  2  0  0  0  0
 18 17  1  0  0  0  0
 19 20  1  0  0  0  0
 20 24  1  0  0  0  0
 20 21  2  0  0  0  0
 21  1  1  0  0  0  0
 22 18  1  0  0  0  0
 23 19  1  0  0  0  0
 25 26  1  0  0  0  0
 25 31  1  0  0  0  0
 26 32  1  0  0  0  0
 27 17  1  0  0  0  0
 27 26  2  0  0  0  0
 28 27  1  0  0  0  0
 29 28  2  0  0  0  0
 29 30  1  0  0  0  0
 30 25  2  0  0  0  0
 33 29  1  0  0  0  0
 34 35  1  0  0  0  0
 34 40  1  0  0  0  0
 35 36  1  0  0  0  0
 36 37  1  0  0  0  0
 37 38  1  0  0  0  0
 39 37  1  0  0  0  0
 40 39  1  0  0  0  0
M  END
>  <minimizedAffinity>
-5.08746529

$$$$

 OpenBabel03272505173D

 40 43  0  0  1  0  0  0  0  0999 V2000
   40.5180   24.4770   34.2170 N   0  0  0  0  0  0  0  0  0  0  0  0
   41.9120   24.8240   34.0420 C   0  0  0  0  0  0  0  0  0  0  0  0
   42.6440   24.4100   35.2950 C   0  0  0  0  0  0  0  0  0  0  0  0
   42.3150   23.0370   35.5420 N   0  0  0  0  0  0  0  0  0  0  0  0
   40.9500   22.8240   35.8850 C   0  0  0  0  0  0  0  0  0  0  0  0
   40.1430   24.0680   35.5500 C   0  0  2  0  0  0  0  0  0  0  0  0
   42.3050   24.1980   33.2110 H   0  0  0  0  0  0  0  0  0  0  0  0
   42.0070   25.9070   33.8390 H   0  0  0  0  0  0  0  0  0  0  0  0
   42.5550   25.0870   36.1400 H   0  0  0  0  0  0  0  0  0  0  0  0
   43.7440   24.4070   35.0170 H   0  0  0  0  0  0  0  0  0  0  0  0
   42.7060   22.4460   34.7930 H   0  0  0  0  0  0  0  0  0  0  0  0
   40.8790   22.6120   36.9620 H   0  0  0  0  0  0  0  0  0  0  0  0
   40.5860   21.9640   35.2610 H   0  0  0  0  0  0  0  0  0  0  0  0
   40.5530   24.8770   36.2320 H   0  0  0  0  0  0  0  0  0  0  0  0
   39.3010   27.1340   33.7880 Cl  0  0  0  0  0  0  0  0  0  0  0  0
   38.8530   25.6970   32.8990 C   0  0  0  0  0  0  0  0  0  0  0  0
   37.8950   25.7800   31.9490 C   0  0  0  0  0  0  0  0  0  0  0  0
   37.6160   24.5950   31.2690 C   0  0  0  0  0  0  0  0  0  0  0  0
   38.2390   23.4030   31.5090 C   0  0  0  0  0  0  0  0  0  0  0  0
   39.2040   23.3720   32.4850 C   0  0  0  0  0  0  0  0  0  0  0  0
   39.5250   24.5150   33.1920 C   0  0  0  0  0  0  0  0  0  0  0  0
   36.8570   24.5980   30.4950 H   0  0  0  0  0  0  0  0  0  0  0  0
   37.9950   22.5020   30.9590 H   0  0  0  0  0  0  0  0  0  0  0  0
   39.7590   22.4820   32.7550 H   0  0  0  0  0  0  0  0  0  0  0  0
   36.9620   29.0660   30.3770 C   0  0  0  0  0  0  0  0  0  0  0  0
   37.6390   27.8630   30.6290 C   0  0  0  0  0  0  0  0  0  0  0  0
   37.2280   27.0290   31.6790 C   0  0  0  0  0  0  0  0  0  0  0  0
   36.1590   27.4470   32.4290 N   0  0  0  0  0  0  0  0  0  0  0  0
   35.5240   28.6050   32.1730 C   0  0  0  0  0  0  0  0  0  0  0  0
   35.9140   29.4200   31.1540 N   0  0  0  0  0  0  0  0  0  0  0  0
   37.2050   29.7660   29.5960 H   0  0  0  0  0  0  0  0  0  0  0  0
   38.4560   27.7590   29.9460 H   0  0  0  0  0  0  0  0  0  0  0  0
   34.7130   28.7560   32.8680 H   0  0  0  0  0  0  0  0  0  0  0  0
   38.7760   23.9720   35.8250 N   0  0  0  0  0  0  0  0  0  0  0  0
   38.1450   22.7180   35.9310 C   0  0  0  0  0  2  0  0  0  0  0  0
   37.2070   22.7230   37.1630 C   0  0  0  0  0  2  0  0  0  0  0  0
   37.9020   23.3840   38.3250 C   0  0  0  0  0  3  0  0  0  0  0  0
   37.2430   23.3550   39.2090 H   0  0  0  0  0  0  0  0  0  0  0  0
   38.1490   24.8280   38.0030 C   0  0  0  0  0  2  0  0  0  0  0  0
   38.1480   25.0360   36.5310 C   0  0  0  0  0  2  0  0  0  0  0  0
  1  6  1  0  0  0  0
  2  1  1  0  0  0  0
  2  3  1  0  0  0  0
  3  4  1  0  0  0  0
  3  9  1  0  0  0  0
  4  5  1  0  0  0  0
  5 12  1  0  0  0  0
  6 34  1  0  0  0  0
  6  5  1  0  0  0  0
  6 14  1  1  0  0  0
  7  2  1  0  0  0  0
  8  2  1  0  0  0  0
 10  3  1  0  0  0  0
 11  4  1  0  0  0  0
 13  5  1  0  0  0  0
 16 21  1  0  0  0  0
 16 15  1  0  0  0  0
 17 16  2  0  0  0  0
 18 19  2  0  0  0  0
 18 17  1  0  0  0  0
 19 20  1  0  0  0  0
 20 24  1  0  0  0  0
 20 21  2  0  0  0  0
 21  1  1  0  0  0  0
 22 18  1  0  0  0  0
 23 19  1  0  0  0  0
 25 26  2  0  0  0  0
 25 30  1  0  0  0  0
 26 27  1  0  0  0  0
 27 17  1  0  0  0  0
 27 28  2  0  0  0  0
 29 28  1  0  0  0  0
 29 33  1  0  0  0  0
 30 29  2  0  0  0  0
 31 25  1  0  0  0  0
 32 26  1  0  0  0  0
 34 35  1  0  0  0  0
 34 40  1  0  0  0  0
 35 36  1  0  0  0  0
 36 37  1  0  0  0  0
 37 38  1  0  0  0  0
 39 37  1  0  0  0  0
 40 39  1  0  0  0  0
M  END
>  <minimizedAffinity>
-5.07858372

$$$$
