
 OpenBabel03272510323D

 26 28  0  0  0  0  0  0  0  0999 V2000
   36.7430   30.6270   45.7280 C   0  0  0  0  0  0  0  0  0  0  0  0
   36.1230   30.2490   44.5640 C   0  0  0  0  0  0  0  0  0  0  0  0
   34.8630   29.6890   44.5640 C   0  0  0  0  0  0  0  0  0  0  0  0
   34.2320   29.5170   45.7900 C   0  0  0  0  0  0  0  0  0  0  0  0
   34.8400   29.8940   46.9890 C   0  0  0  0  0  0  0  0  0  0  0  0
   36.1100   30.4540   46.9460 C   0  0  0  0  0  0  0  0  0  0  0  0
   36.6060   30.3780   43.5940 H   0  0  0  0  0  0  0  0  0  0  0  0
   34.3680   29.3890   43.6480 H   0  0  0  0  0  0  0  0  0  0  0  0
   33.2460   29.0760   45.7500 H   0  0  0  0  0  0  0  0  0  0  0  0
   34.3000   29.7370   47.9140 H   0  0  0  0  0  0  0  0  0  0  0  0
   39.3510   33.0840   45.0630 C   0  0  0  0  0  0  0  0  0  0  0  0
   40.5390   32.4260   45.3750 C   0  0  0  0  0  0  0  0  0  0  0  0
   40.4330   31.0820   45.8330 C   0  0  0  0  0  0  0  0  0  0  0  0
   39.1980   30.5250   45.9380 N   0  0  0  0  0  0  0  0  0  0  0  0
   38.0680   31.2070   45.6210 C   0  0  0  0  0  0  0  0  0  0  0  0
   38.1680   32.4830   45.1870 N   0  0  0  0  0  0  0  0  0  0  0  0
   39.3550   34.1050   44.7110 H   0  0  0  0  0  0  0  0  0  0  0  0
   41.4900   32.8920   45.2810 H   0  0  0  0  0  0  0  0  0  0  0  0
   41.3300   30.5110   46.0940 H   0  0  0  0  0  0  0  0  0  0  0  0
   36.7530   30.8460   48.1610 N   0  0  0  0  0  0  0  0  0  0  0  0
   37.2670   32.1590   48.5770 C   0  0  0  0  0  2  0  0  0  0  0  0
   38.5840   31.9630   49.3000 C   0  0  0  0  0  2  0  0  0  0  0  0
   38.4740   31.0020   50.4420 C   0  0  0  0  0  3  0  0  0  0  0  0
   39.2550   30.2190   50.3420 H   0  0  0  0  0  0  0  0  0  0  0  0
   37.1360   30.2740   50.4450 C   0  0  0  0  0  2  0  0  0  0  0  0
   36.8830   29.7270   49.0740 C   0  0  0  0  0  2  0  0  0  0  0  0
  1  6  1  0  0  0  0
  2  3  1  0  0  0  0
  2  1  2  0  0  0  0
  3  4  2  0  0  0  0
  4  5  1  0  0  0  0
  5 10  1  0  0  0  0
  6  5  2  0  0  0  0
  6 20  1  0  0  0  0
  7  2  1  0  0  0  0
  8  3  1  0  0  0  0
  9  4  1  0  0  0  0
 11 16  2  0  0  0  0
 11 12  1  0  0  0  0
 12 13  2  0  0  0  0
 13 14  1  0  0  0  0
 13 19  1  0  0  0  0
 15  1  1  0  0  0  0
 15 14  2  0  0  0  0
 16 15  1  0  0  0  0
 17 11  1  0  0  0  0
 18 12  1  0  0  0  0
 20 21  1  0  0  0  0
 20 26  1  0  0  0  0
 21 22  1  0  0  0  0
 22 23  1  0  0  0  0
 23 25  1  0  0  0  0
 24 23  1  0  0  0  0
 26 25  1  0  0  0  0
M  END
>  <minimizedAffinity>
-5.47666025

>  <minimizedRMSD>
3.21987033

$$$$
