
 OpenBabel03272510223D

 34 37  0  0  0  0  0  0  0  0999 V2000
   34.2840   31.9960   32.2770 Br  0  0  0  0  0  0  0  0  0  0  0  0
   35.2140   30.3600   32.6170 C   0  0  0  0  0  0  0  0  0  0  0  0
   35.3240   29.8570   33.9040 C   0  0  0  0  0  0  0  0  0  0  0  0
   36.0040   28.6830   34.0670 C   0  0  0  0  0  0  0  0  0  0  0  0
   36.5780   27.9840   33.0350 C   0  0  0  0  0  0  0  0  0  0  0  0
   36.4530   28.5050   31.7720 C   0  0  0  0  0  0  0  0  0  0  0  0
   35.7770   29.6830   31.5710 C   0  0  0  0  0  0  0  0  0  0  0  0
   36.1050   28.2670   35.0650 H   0  0  0  0  0  0  0  0  0  0  0  0
   36.8890   27.9890   30.9250 H   0  0  0  0  0  0  0  0  0  0  0  0
   35.7070   30.0520   30.5510 H   0  0  0  0  0  0  0  0  0  0  0  0
   37.3000   26.7370   33.2090 C   0  0  0  0  0  0  0  0  0  0  0  0
   37.7860   25.9540   32.1740 C   0  0  0  0  0  0  0  0  0  0  0  0
   38.4730   24.7670   32.3930 C   0  0  0  0  0  0  0  0  0  0  0  0
   38.6830   24.3470   33.6440 N   0  0  0  0  0  0  0  0  0  0  0  0
   38.2140   25.1010   34.6660 C   0  0  0  0  0  0  0  0  0  0  0  0
   37.5580   26.2370   34.4350 N   0  0  0  0  0  0  0  0  0  0  0  0
   37.6150   26.2970   31.1590 H   0  0  0  0  0  0  0  0  0  0  0  0
   38.8210   24.2110   31.5400 H   0  0  0  0  0  0  0  0  0  0  0  0
   38.4590   24.6170   35.9830 N   0  0  0  0  0  0  0  0  0  0  0  0
   38.3000   25.4640   37.1260 C   0  0  0  0  0  2  0  0  0  0  0  0
   37.8930   24.7590   38.3800 C   0  0  0  0  0  2  0  0  0  0  0  0
   38.2730   23.3270   38.4510 C   0  0  0  0  0  3  0  0  0  0  0  0
   38.5990   23.0880   39.4840 H   0  0  0  0  0  0  0  0  0  0  0  0
   39.4020   22.9590   37.5220 C   0  0  0  0  0  2  0  0  0  0  0  0
   38.8790   23.2260   36.1290 C   0  0  0  0  0  2  0  0  0  0  0  0
   35.0590   32.0760   36.7880 C   0  0  0  0  0  0  0  0  0  0  0  0
   33.6810   31.9420   37.1760 C   0  0  0  0  0  0  0  0  0  0  0  0
   32.8890   31.0940   36.4370 C   0  0  0  0  0  0  0  0  0  0  0  0
   33.4400   30.4280   35.3790 N   0  0  0  0  0  0  0  0  0  0  0  0
   34.7310   30.5660   35.0310 C   0  0  0  0  0  0  0  0  0  0  0  0
   35.5450   31.4000   35.7460 N   0  0  0  0  0  0  0  0  0  0  0  0
   35.6660   32.7540   37.3900 H   0  0  0  0  0  0  0  0  0  0  0  0
   33.2860   32.4890   38.0210 H   0  0  0  0  0  0  0  0  0  0  0  0
   31.8450   30.9360   36.6600 H   0  0  0  0  0  0  0  0  0  0  0  0
  1  2  1  0  0  0  0
  2  3  1  0  0  0  0
  3  4  2  0  0  0  0
  3 30  1  0  0  0  0
  4  8  1  0  0  0  0
  5 11  1  0  0  0  0
  5  4  1  0  0  0  0
  6  5  2  0  0  0  0
  7  6  1  0  0  0  0
  7  2  2  0  0  0  0
  9  6  1  0  0  0  0
 10  7  1  0  0  0  0
 11 16  1  0  0  0  0
 12 13  1  0  0  0  0
 12 11  2  0  0  0  0
 13 14  2  0  0  0  0
 14 15  1  0  0  0  0
 15 19  1  0  0  0  0
 16 15  2  0  0  0  0
 17 12  1  0  0  0  0
 18 13  1  0  0  0  0
 19 25  1  0  0  0  0
 19 20  1  0  0  0  0
 20 21  1  0  0  0  0
 21 22  1  0  0  0  0
 22 23  1  0  0  0  0
 24 22  1  0  0  0  0
 25 24  1  0  0  0  0
 26 27  1  0  0  0  0
 26 32  1  0  0  0  0
 27 33  1  0  0  0  0
 28 34  1  0  0  0  0
 28 27  2  0  0  0  0
 29 28  1  0  0  0  0
 30 29  2  0  0  0  0
 30 31  1  0  0  0  0
 31 26  2  0  0  0  0
M  END
>  <minimizedAffinity>
-6.5813446

$$$$

 OpenBabel03272510223D

 34 37  0  0  0  0  0  0  0  0999 V2000
   35.4450   32.9800   32.6110 Br  0  0  0  0  0  0  0  0  0  0  0  0
   35.7250   31.0890   32.5310 C   0  0  0  0  0  0  0  0  0  0  0  0
   35.3610   30.2690   33.5880 C   0  0  0  0  0  0  0  0  0  0  0  0
   35.5930   28.9290   33.4560 C   0  0  0  0  0  0  0  0  0  0  0  0
   36.1610   28.3580   32.3440 C   0  0  0  0  0  0  0  0  0  0  0  0
   36.5100   29.1930   31.3130 C   0  0  0  0  0  0  0  0  0  0  0  0
   36.2920   30.5460   31.4110 C   0  0  0  0  0  0  0  0  0  0  0  0
   35.3180   28.2650   34.2690 H   0  0  0  0  0  0  0  0  0  0  0  0
   36.9610   28.7900   30.4140 H   0  0  0  0  0  0  0  0  0  0  0  0
   36.5870   31.1620   30.5660 H   0  0  0  0  0  0  0  0  0  0  0  0
   36.4070   26.9350   32.2050 C   0  0  0  0  0  0  0  0  0  0  0  0
   36.0060   26.1650   31.1240 C   0  0  0  0  0  0  0  0  0  0  0  0
   36.2670   24.8040   31.0380 C   0  0  0  0  0  0  0  0  0  0  0  0
   36.9280   24.1940   32.0270 N   0  0  0  0  0  0  0  0  0  0  0  0
   37.3260   24.9330   33.0890 C   0  0  0  0  0  0  0  0  0  0  0  0
   37.0670   26.2380   33.1520 N   0  0  0  0  0  0  0  0  0  0  0  0
   35.4690   26.6620   30.3230 H   0  0  0  0  0  0  0  0  0  0  0  0
   35.9250   24.2700   30.1690 H   0  0  0  0  0  0  0  0  0  0  0  0
   38.0290   24.2450   34.1190 N   0  0  0  0  0  0  0  0  0  0  0  0
   38.7650   24.9580   35.1190 C   0  0  0  0  0  2  0  0  0  0  0  0
   38.8440   24.2770   36.4470 C   0  0  0  0  0  2  0  0  0  0  0  0
   38.7040   22.8010   36.4100 C   0  0  0  0  0  3  0  0  0  0  0  0
   39.4080   22.3510   37.1400 H   0  0  0  0  0  0  0  0  0  0  0  0
   39.0060   22.2040   35.0600 C   0  0  0  0  0  2  0  0  0  0  0  0
   37.9730   22.7850   34.1220 C   0  0  0  0  0  2  0  0  0  0  0  0
   35.0980   31.9360   36.8220 C   0  0  0  0  0  0  0  0  0  0  0  0
   33.6850   31.9160   37.0840 C   0  0  0  0  0  0  0  0  0  0  0  0
   32.8690   31.3320   36.1430 C   0  0  0  0  0  0  0  0  0  0  0  0
   33.4310   30.8040   35.0160 N   0  0  0  0  0  0  0  0  0  0  0  0
   34.7560   30.8310   34.7880 C   0  0  0  0  0  0  0  0  0  0  0  0
   35.5940   31.4040   35.7030 N   0  0  0  0  0  0  0  0  0  0  0  0
   35.7240   32.4040   37.5840 H   0  0  0  0  0  0  0  0  0  0  0  0
   33.2820   32.3460   37.9900 H   0  0  0  0  0  0  0  0  0  0  0  0
   31.7980   31.2750   36.2610 H   0  0  0  0  0  0  0  0  0  0  0  0
  2  1  1  0  0  0  0
  2  3  1  0  0  0  0
  3 30  1  0  0  0  0
  4  3  2  0  0  0  0
  4  8  1  0  0  0  0
  5  4  1  0  0  0  0
  6  7  1  0  0  0  0
  6  5  2  0  0  0  0
  7  2  2  0  0  0  0
  9  6  1  0  0  0  0
 10  7  1  0  0  0  0
 11  5  1  0  0  0  0
 11 16  1  0  0  0  0
 12 11  2  0  0  0  0
 13 12  1  0  0  0  0
 13 14  2  0  0  0  0
 14 15  1  0  0  0  0
 15 16  2  0  0  0  0
 15 19  1  0  0  0  0
 17 12  1  0  0  0  0
 18 13  1  0  0  0  0
 19 25  1  0  0  0  0
 19 20  1  0  0  0  0
 20 21  1  0  0  0  0
 22 21  1  0  0  0  0
 22 23  1  0  0  0  0
 24 22  1  0  0  0  0
 25 24  1  0  0  0  0
 26 27  1  0  0  0  0
 26 32  1  0  0  0  0
 27 33  1  0  0  0  0
 28 34  1  0  0  0  0
 28 27  2  0  0  0  0
 29 28  1  0  0  0  0
 30 29  2  0  0  0  0
 30 31  1  0  0  0  0
 31 26  2  0  0  0  0
M  END
>  <minimizedAffinity>
-6.19940758

$$$$

 OpenBabel03272510223D

 34 37  0  0  0  0  0  0  0  0999 V2000
   34.8140   31.5580   31.9390 Br  0  0  0  0  0  0  0  0  0  0  0  0
   35.6790   29.9190   32.4130 C   0  0  0  0  0  0  0  0  0  0  0  0
   35.7000   29.4780   33.7270 C   0  0  0  0  0  0  0  0  0  0  0  0
   36.3380   28.2980   33.9870 C   0  0  0  0  0  0  0  0  0  0  0  0
   36.9510   27.5340   33.0260 C   0  0  0  0  0  0  0  0  0  0  0  0
   36.9140   27.9940   31.7340 C   0  0  0  0  0  0  0  0  0  0  0  0
   36.2830   29.1760   31.4360 C   0  0  0  0  0  0  0  0  0  0  0  0
   36.3690   27.9310   35.0080 H   0  0  0  0  0  0  0  0  0  0  0  0
   37.3840   27.4260   30.9400 H   0  0  0  0  0  0  0  0  0  0  0  0
   36.2820   29.4950   30.3970 H   0  0  0  0  0  0  0  0  0  0  0  0
   37.6280   26.2810   33.3040 C   0  0  0  0  0  0  0  0  0  0  0  0
   38.7960   26.1590   34.0400 C   0  0  0  0  0  0  0  0  0  0  0  0
   39.4050   24.9340   34.2780 C   0  0  0  0  0  0  0  0  0  0  0  0
   38.8600   23.8180   33.7850 N   0  0  0  0  0  0  0  0  0  0  0  0
   37.7190   23.9210   33.0640 C   0  0  0  0  0  0  0  0  0  0  0  0
   37.1490   25.1050   32.8470 N   0  0  0  0  0  0  0  0  0  0  0  0
   39.2370   27.0670   34.4390 H   0  0  0  0  0  0  0  0  0  0  0  0
   40.3110   24.9160   34.8590 H   0  0  0  0  0  0  0  0  0  0  0  0
   37.1710   22.7080   32.5570 N   0  0  0  0  0  0  0  0  0  0  0  0
   35.8290   22.6490   32.0640 C   0  0  0  0  0  2  0  0  0  0  0  0
   35.5990   21.6450   30.9810 C   0  0  0  0  0  2  0  0  0  0  0  0
   36.5400   20.4980   30.9730 C   0  0  0  0  0  3  0  0  0  0  0  0
   35.9830   19.5730   30.7200 H   0  0  0  0  0  0  0  0  0  0  0  0
   37.2200   20.2710   32.2990 C   0  0  0  0  0  2  0  0  0  0  0  0
   38.0260   21.5240   32.5580 C   0  0  0  0  0  2  0  0  0  0  0  0
   35.3300   31.8400   36.4840 C   0  0  0  0  0  0  0  0  0  0  0  0
   33.9280   31.7640   36.7910 C   0  0  0  0  0  0  0  0  0  0  0  0
   33.1550   30.9060   36.0420 C   0  0  0  0  0  0  0  0  0  0  0  0
   33.7480   30.1740   35.0530 N   0  0  0  0  0  0  0  0  0  0  0  0
   35.0630   30.2570   34.7810 C   0  0  0  0  0  0  0  0  0  0  0  0
   35.8570   31.1000   35.5060 N   0  0  0  0  0  0  0  0  0  0  0  0
   35.9210   32.5270   37.0920 H   0  0  0  0  0  0  0  0  0  0  0  0
   33.4990   32.3620   37.5830 H   0  0  0  0  0  0  0  0  0  0  0  0
   32.0950   30.7900   36.2060 H   0  0  0  0  0  0  0  0  0  0  0  0
  1  2  1  0  0  0  0
  2  3  1  0  0  0  0
  3  4  2  0  0  0  0
  3 30  1  0  0  0  0
  4  8  1  0  0  0  0
  5 11  1  0  0  0  0
  5  4  1  0  0  0  0
  6  5  2  0  0  0  0
  7  6  1  0  0  0  0
  7  2  2  0  0  0  0
  9  6  1  0  0  0  0
 10  7  1  0  0  0  0
 11 12  1  0  0  0  0
 12 13  2  0  0  0  0
 12 17  1  0  0  0  0
 13 18  1  0  0  0  0
 14 13  1  0  0  0  0
 15 14  2  0  0  0  0
 16 15  1  0  0  0  0
 16 11  2  0  0  0  0
 19 25  1  0  0  0  0
 19 15  1  0  0  0  0
 20 19  1  0  0  0  0
 21 20  1  0  0  0  0
 22 21  1  0  0  0  0
 22 24  1  0  0  0  0
 23 22  1  0  0  0  0
 24 25  1  0  0  0  0
 26 27  1  0  0  0  0
 26 32  1  0  0  0  0
 27 33  1  0  0  0  0
 28 34  1  0  0  0  0
 28 27  2  0  0  0  0
 29 28  1  0  0  0  0
 30 29  2  0  0  0  0
 30 31  1  0  0  0  0
 31 26  2  0  0  0  0
M  END
>  <minimizedAffinity>
-6.15713692

$$$$

 OpenBabel03272510223D

 34 37  0  0  0  0  0  0  0  0999 V2000
   35.9190   29.7730   31.5050 Br  0  0  0  0  0  0  0  0  0  0  0  0
   36.5870   28.4330   32.6950 C   0  0  0  0  0  0  0  0  0  0  0  0
   36.2800   28.4630   34.0470 C   0  0  0  0  0  0  0  0  0  0  0  0
   36.7950   27.4710   34.8330 C   0  0  0  0  0  0  0  0  0  0  0  0
   37.5900   26.4580   34.3600 C   0  0  0  0  0  0  0  0  0  0  0  0
   37.8780   26.4530   33.0190 C   0  0  0  0  0  0  0  0  0  0  0  0
   37.3780   27.4340   32.1980 C   0  0  0  0  0  0  0  0  0  0  0  0
   36.5700   27.4710   35.8950 H   0  0  0  0  0  0  0  0  0  0  0  0
   38.5010   25.6730   32.5980 H   0  0  0  0  0  0  0  0  0  0  0  0
   37.6350   27.3830   31.1440 H   0  0  0  0  0  0  0  0  0  0  0  0
   38.1370   25.4050   35.1960 C   0  0  0  0  0  0  0  0  0  0  0  0
   37.4220   24.7060   36.1560 C   0  0  0  0  0  0  0  0  0  0  0  0
   37.9920   23.7050   36.9310 C   0  0  0  0  0  0  0  0  0  0  0  0
   39.2790   23.3890   36.7610 N   0  0  0  0  0  0  0  0  0  0  0  0
   39.9910   24.0630   35.8270 C   0  0  0  0  0  0  0  0  0  0  0  0
   39.4250   25.0200   35.0920 N   0  0  0  0  0  0  0  0  0  0  0  0
   36.3770   24.9640   36.2940 H   0  0  0  0  0  0  0  0  0  0  0  0
   37.3750   23.2050   37.6580 H   0  0  0  0  0  0  0  0  0  0  0  0
   41.3590   23.6950   35.6760 N   0  0  0  0  0  0  0  0  0  0  0  0
   42.1140   24.1010   34.5300 C   0  0  0  0  0  2  0  0  0  0  0  0
   43.5760   24.2920   34.7750 C   0  0  0  0  0  2  0  0  0  0  0  0
   44.1340   23.5120   35.9070 C   0  0  0  0  0  3  0  0  0  0  0  0
   45.1400   23.1370   35.6290 H   0  0  0  0  0  0  0  0  0  0  0  0
   43.2930   22.3200   36.2860 C   0  0  0  0  0  2  0  0  0  0  0  0
   41.9660   22.8890   36.7320 C   0  0  0  0  0  2  0  0  0  0  0  0
   33.2660   30.3080   34.9540 C   0  0  0  0  0  0  0  0  0  0  0  0
   33.7850   31.4800   35.6040 C   0  0  0  0  0  0  0  0  0  0  0  0
   35.1520   31.5990   35.7100 C   0  0  0  0  0  0  0  0  0  0  0  0
   35.9440   30.6100   35.1990 N   0  0  0  0  0  0  0  0  0  0  0  0
   35.4400   29.5210   34.5940 C   0  0  0  0  0  0  0  0  0  0  0  0
   34.0870   29.3720   34.4730 N   0  0  0  0  0  0  0  0  0  0  0  0
   32.1790   30.2360   34.8830 H   0  0  0  0  0  0  0  0  0  0  0  0
   33.1220   32.2390   35.9940 H   0  0  0  0  0  0  0  0  0  0  0  0
   35.6240   32.4460   36.1820 H   0  0  0  0  0  0  0  0  0  0  0  0
  1  2  1  0  0  0  0
  2  3  1  0  0  0  0
  3 30  1  0  0  0  0
  3  4  2  0  0  0  0
  4  8  1  0  0  0  0
  5  4  1  0  0  0  0
  5 11  1  0  0  0  0
  6  5  2  0  0  0  0
  7  2  2  0  0  0  0
  7  6  1  0  0  0  0
  9  6  1  0  0  0  0
 10  7  1  0  0  0  0
 11 12  1  0  0  0  0
 12 17  1  0  0  0  0
 12 13  2  0  0  0  0
 13 18  1  0  0  0  0
 14 13  1  0  0  0  0
 15 14  2  0  0  0  0
 16 11  2  0  0  0  0
 16 15  1  0  0  0  0
 19 15  1  0  0  0  0
 19 25  1  0  0  0  0
 20 21  1  0  0  0  0
 20 19  1  0  0  0  0
 21 22  1  0  0  0  0
 22 24  1  0  0  0  0
 23 22  1  0  0  0  0
 24 25  1  0  0  0  0
 26 27  1  0  0  0  0
 27 28  2  0  0  0  0
 27 33  1  0  0  0  0
 28 34  1  0  0  0  0
 29 28  1  0  0  0  0
 30 29  2  0  0  0  0
 31 30  1  0  0  0  0
 31 26  2  0  0  0  0
 32 26  1  0  0  0  0
M  END
>  <minimizedAffinity>
-5.91934156

$$$$

 OpenBabel03272510223D

 34 37  0  0  0  0  0  0  0  0999 V2000
   37.2120   21.4890   33.0190 Br  0  0  0  0  0  0  0  0  0  0  0  0
   37.0560   23.3560   32.6350 C   0  0  0  0  0  0  0  0  0  0  0  0
   37.7300   24.2990   33.3960 C   0  0  0  0  0  0  0  0  0  0  0  0
   37.5680   25.6140   33.0590 C   0  0  0  0  0  0  0  0  0  0  0  0
   36.7840   26.0440   32.0200 C   0  0  0  0  0  0  0  0  0  0  0  0
   36.1290   25.0900   31.2830 C   0  0  0  0  0  0  0  0  0  0  0  0
   36.2670   23.7590   31.5930 C   0  0  0  0  0  0  0  0  0  0  0  0
   38.0850   26.3720   33.6400 H   0  0  0  0  0  0  0  0  0  0  0  0
   35.4970   25.3800   30.4520 H   0  0  0  0  0  0  0  0  0  0  0  0
   35.7280   23.0440   30.9780 H   0  0  0  0  0  0  0  0  0  0  0  0
   36.6120   27.4410   31.6640 C   0  0  0  0  0  0  0  0  0  0  0  0
   36.7170   27.9470   30.3780 C   0  0  0  0  0  0  0  0  0  0  0  0
   36.5430   29.2940   30.0880 C   0  0  0  0  0  0  0  0  0  0  0  0
   36.2650   30.1520   31.0750 N   0  0  0  0  0  0  0  0  0  0  0  0
   36.1600   29.6720   32.3370 C   0  0  0  0  0  0  0  0  0  0  0  0
   36.3290   28.3760   32.5940 N   0  0  0  0  0  0  0  0  0  0  0  0
   36.9430   27.2500   29.5780 H   0  0  0  0  0  0  0  0  0  0  0  0
   36.6390   29.6160   29.0660 H   0  0  0  0  0  0  0  0  0  0  0  0
   35.8620   30.6180   33.3590 N   0  0  0  0  0  0  0  0  0  0  0  0
   35.4190   30.1980   34.6530 C   0  0  0  0  0  2  0  0  0  0  0  0
   35.8030   31.1070   35.7760 C   0  0  0  0  0  2  0  0  0  0  0  0
   36.0340   32.5210   35.3930 C   0  0  0  0  0  3  0  0  0  0  0  0
   35.6240   33.1830   36.1840 H   0  0  0  0  0  0  0  0  0  0  0  0
   35.3750   32.9050   34.0930 C   0  0  0  0  0  2  0  0  0  0  0  0
   36.0240   32.0350   33.0410 C   0  0  0  0  0  2  0  0  0  0  0  0
   40.7180   23.2820   35.2260 C   0  0  0  0  0  0  0  0  0  0  0  0
   40.2330   23.1060   36.5670 C   0  0  0  0  0  0  0  0  0  0  0  0
   38.8980   23.3420   36.8010 C   0  0  0  0  0  0  0  0  0  0  0  0
   38.1030   23.7290   35.7600 N   0  0  0  0  0  0  0  0  0  0  0  0
   38.5740   23.8870   34.5100 C   0  0  0  0  0  0  0  0  0  0  0  0
   39.8950   23.6610   34.2460 N   0  0  0  0  0  0  0  0  0  0  0  0
   41.7800   23.0890   35.0670 H   0  0  0  0  0  0  0  0  0  0  0  0
   40.8980   22.7990   37.3630 H   0  0  0  0  0  0  0  0  0  0  0  0
   38.4530   23.2340   37.7780 H   0  0  0  0  0  0  0  0  0  0  0  0
  2  1  1  0  0  0  0
  2  3  1  0  0  0  0
  3 30  1  0  0  0  0
  4  3  2  0  0  0  0
  4  8  1  0  0  0  0
  5  4  1  0  0  0  0
  6  7  1  0  0  0  0
  6  5  2  0  0  0  0
  7  2  2  0  0  0  0
  9  6  1  0  0  0  0
 10  7  1  0  0  0  0
 11  5  1  0  0  0  0
 11 16  1  0  0  0  0
 12 11  2  0  0  0  0
 13 12  1  0  0  0  0
 13 14  2  0  0  0  0
 14 15  1  0  0  0  0
 15 16  2  0  0  0  0
 15 19  1  0  0  0  0
 17 12  1  0  0  0  0
 18 13  1  0  0  0  0
 19 20  1  0  0  0  0
 20 21  1  0  0  0  0
 22 21  1  0  0  0  0
 22 23  1  0  0  0  0
 24 22  1  0  0  0  0
 25 19  1  0  0  0  0
 25 24  1  0  0  0  0
 26 27  1  0  0  0  0
 27 28  2  0  0  0  0
 27 33  1  0  0  0  0
 28 34  1  0  0  0  0
 29 28  1  0  0  0  0
 30 29  2  0  0  0  0
 31 30  1  0  0  0  0
 31 26  2  0  0  0  0
 32 26  1  0  0  0  0
M  END
>  <minimizedAffinity>
-5.79191828

$$$$

 OpenBabel03272510223D

 34 37  0  0  0  0  0  0  0  0999 V2000
   33.4150   31.7620   31.3820 Br  0  0  0  0  0  0  0  0  0  0  0  0
   34.7410   30.4160   31.6780 C   0  0  0  0  0  0  0  0  0  0  0  0
   34.5760   29.4570   32.6660 C   0  0  0  0  0  0  0  0  0  0  0  0
   35.5680   28.5290   32.8160 C   0  0  0  0  0  0  0  0  0  0  0  0
   36.7050   28.4960   32.0500 C   0  0  0  0  0  0  0  0  0  0  0  0
   36.8420   29.4560   31.0790 C   0  0  0  0  0  0  0  0  0  0  0  0
   35.8660   30.4050   30.9000 C   0  0  0  0  0  0  0  0  0  0  0  0
   35.4630   27.7670   33.5830 H   0  0  0  0  0  0  0  0  0  0  0  0
   37.7220   29.4710   30.4480 H   0  0  0  0  0  0  0  0  0  0  0  0
   36.0230   31.1430   30.1170 H   0  0  0  0  0  0  0  0  0  0  0  0
   37.7570   27.5090   32.2110 C   0  0  0  0  0  0  0  0  0  0  0  0
   38.7170   27.2140   31.2550 C   0  0  0  0  0  0  0  0  0  0  0  0
   39.7060   26.2610   31.4580 C   0  0  0  0  0  0  0  0  0  0  0  0
   39.7490   25.5900   32.6130 N   0  0  0  0  0  0  0  0  0  0  0  0
   38.8180   25.8670   33.5560 C   0  0  0  0  0  0  0  0  0  0  0  0
   37.8780   26.7860   33.3420 N   0  0  0  0  0  0  0  0  0  0  0  0
   38.6800   27.7600   30.3170 H   0  0  0  0  0  0  0  0  0  0  0  0
   40.4180   26.0840   30.6700 H   0  0  0  0  0  0  0  0  0  0  0  0
   38.9010   25.1300   34.7720 N   0  0  0  0  0  0  0  0  0  0  0  0
   38.1890   25.5470   35.9420 C   0  0  0  0  0  2  0  0  0  0  0  0
   37.7740   24.4390   36.8550 C   0  0  0  0  0  2  0  0  0  0  0  0
   38.6060   23.2130   36.7790 C   0  0  0  0  0  3  0  0  0  0  0  0
   38.7420   22.8020   37.8000 H   0  0  0  0  0  0  0  0  0  0  0  0
   39.9760   23.4530   36.1990 C   0  0  0  0  0  2  0  0  0  0  0  0
   39.7370   23.9330   34.7860 C   0  0  0  0  0  2  0  0  0  0  0  0
   32.4580   29.9530   35.5950 C   0  0  0  0  0  0  0  0  0  0  0  0
   31.1750   29.4810   35.1510 C   0  0  0  0  0  0  0  0  0  0  0  0
   31.0780   29.0080   33.8630 C   0  0  0  0  0  0  0  0  0  0  0  0
   32.1920   29.0090   33.0720 N   0  0  0  0  0  0  0  0  0  0  0  0
   33.3850   29.4540   33.5050 C   0  0  0  0  0  0  0  0  0  0  0  0
   33.5140   29.9300   34.7790 N   0  0  0  0  0  0  0  0  0  0  0  0
   32.5090   30.3220   36.6200 H   0  0  0  0  0  0  0  0  0  0  0  0
   30.3180   29.4980   35.8100 H   0  0  0  0  0  0  0  0  0  0  0  0
   30.1530   28.6360   33.4500 H   0  0  0  0  0  0  0  0  0  0  0  0
  1  2  1  0  0  0  0
  2  3  1  0  0  0  0
  3  4  2  0  0  0  0
  3 30  1  0  0  0  0
  4  8  1  0  0  0  0
  5 11  1  0  0  0  0
  5  4  1  0  0  0  0
  6  5  2  0  0  0  0
  7  6  1  0  0  0  0
  7  2  2  0  0  0  0
  9  6  1  0  0  0  0
 10  7  1  0  0  0  0
 11 16  1  0  0  0  0
 12 13  1  0  0  0  0
 12 11  2  0  0  0  0
 13 14  2  0  0  0  0
 14 15  1  0  0  0  0
 15 19  1  0  0  0  0
 16 15  2  0  0  0  0
 17 12  1  0  0  0  0
 18 13  1  0  0  0  0
 19 25  1  0  0  0  0
 19 20  1  0  0  0  0
 20 21  1  0  0  0  0
 22 21  1  0  0  0  0
 22 23  1  0  0  0  0
 24 22  1  0  0  0  0
 25 24  1  0  0  0  0
 26 32  1  0  0  0  0
 27 26  1  0  0  0  0
 27 33  1  0  0  0  0
 28 27  2  0  0  0  0
 29 30  2  0  0  0  0
 29 28  1  0  0  0  0
 30 31  1  0  0  0  0
 31 26  2  0  0  0  0
 34 28  1  0  0  0  0
M  END
>  <minimizedAffinity>
-5.76097965

$$$$

 OpenBabel03272510223D

 34 37  0  0  0  0  0  0  0  0999 V2000
   35.8040   30.2100   35.2660 Br  0  0  0  0  0  0  0  0  0  0  0  0
   36.2440   28.6910   34.1900 C   0  0  0  0  0  0  0  0  0  0  0  0
   35.7150   28.5410   32.9170 C   0  0  0  0  0  0  0  0  0  0  0  0
   36.0760   27.4290   32.2110 C   0  0  0  0  0  0  0  0  0  0  0  0
   36.9250   26.4630   32.6890 C   0  0  0  0  0  0  0  0  0  0  0  0
   37.4330   26.6360   33.9520 C   0  0  0  0  0  0  0  0  0  0  0  0
   37.0920   27.7420   34.6910 C   0  0  0  0  0  0  0  0  0  0  0  0
   35.6760   27.2880   31.2110 H   0  0  0  0  0  0  0  0  0  0  0  0
   38.1080   25.9010   34.3740 H   0  0  0  0  0  0  0  0  0  0  0  0
   37.5230   27.8310   35.6850 H   0  0  0  0  0  0  0  0  0  0  0  0
   37.3070   25.2810   31.9380 C   0  0  0  0  0  0  0  0  0  0  0  0
   38.0250   25.2960   30.7530 C   0  0  0  0  0  0  0  0  0  0  0  0
   38.3680   24.1360   30.0720 C   0  0  0  0  0  0  0  0  0  0  0  0
   37.9980   22.9490   30.5610 N   0  0  0  0  0  0  0  0  0  0  0  0
   37.2960   22.9180   31.7180 C   0  0  0  0  0  0  0  0  0  0  0  0
   36.9780   24.0430   32.3570 N   0  0  0  0  0  0  0  0  0  0  0  0
   38.3250   26.2610   30.3570 H   0  0  0  0  0  0  0  0  0  0  0  0
   38.9270   24.2240   29.1560 H   0  0  0  0  0  0  0  0  0  0  0  0
   36.9220   21.6330   32.2060 N   0  0  0  0  0  0  0  0  0  0  0  0
   36.4670   21.4530   33.5510 C   0  0  0  0  0  2  0  0  0  0  0  0
   35.4930   20.3360   33.7420 C   0  0  0  0  0  2  0  0  0  0  0  0
   35.5750   19.2470   32.7380 C   0  0  0  0  0  3  0  0  0  0  0  0
   35.4260   18.2720   33.2460 H   0  0  0  0  0  0  0  0  0  0  0  0
   36.9010   19.1890   32.0240 C   0  0  0  0  0  2  0  0  0  0  0  0
   37.0180   20.5020   31.2860 C   0  0  0  0  0  2  0  0  0  0  0  0
   32.6120   30.3350   32.2380 C   0  0  0  0  0  0  0  0  0  0  0  0
   33.0350   31.3990   31.3690 C   0  0  0  0  0  0  0  0  0  0  0  0
   34.3700   31.4660   31.0440 C   0  0  0  0  0  0  0  0  0  0  0  0
   35.2240   30.5310   31.5570 N   0  0  0  0  0  0  0  0  0  0  0  0
   34.8090   29.5420   32.3680 C   0  0  0  0  0  0  0  0  0  0  0  0
   33.4900   29.4480   32.7090 N   0  0  0  0  0  0  0  0  0  0  0  0
   31.5480   30.3040   32.4800 H   0  0  0  0  0  0  0  0  0  0  0  0
   32.3260   32.1190   30.9850 H   0  0  0  0  0  0  0  0  0  0  0  0
   34.7710   32.2320   30.3990 H   0  0  0  0  0  0  0  0  0  0  0  0
  2  7  1  0  0  0  0
  2  1  1  0  0  0  0
  3  2  2  0  0  0  0
  4  5  2  0  0  0  0
  4  3  1  0  0  0  0
  5  6  1  0  0  0  0
  6  9  1  0  0  0  0
  6  7  2  0  0  0  0
  7 10  1  0  0  0  0
  8  4  1  0  0  0  0
 11 16  1  0  0  0  0
 11  5  1  0  0  0  0
 12 11  2  0  0  0  0
 13 14  2  0  0  0  0
 13 12  1  0  0  0  0
 14 15  1  0  0  0  0
 15 19  1  0  0  0  0
 15 16  2  0  0  0  0
 17 12  1  0  0  0  0
 18 13  1  0  0  0  0
 19 20  1  0  0  0  0
 20 21  1  0  0  0  0
 22 23  1  0  0  0  0
 22 21  1  0  0  0  0
 24 22  1  0  0  0  0
 25 24  1  0  0  0  0
 25 19  1  0  0  0  0
 26 32  1  0  0  0  0
 26 31  1  0  0  0  0
 27 26  2  0  0  0  0
 28 27  1  0  0  0  0
 28 29  2  0  0  0  0
 29 30  1  0  0  0  0
 30 31  2  0  0  0  0
 30  3  1  0  0  0  0
 33 27  1  0  0  0  0
 34 28  1  0  0  0  0
M  END
>  <minimizedAffinity>
-5.75121021

$$$$

 OpenBabel03272510223D

 34 37  0  0  0  0  0  0  0  0999 V2000
   34.6400   32.0930   32.3360 Br  0  0  0  0  0  0  0  0  0  0  0  0
   35.4170   30.4220   32.8510 C   0  0  0  0  0  0  0  0  0  0  0  0
   35.3560   29.9820   34.1640 C   0  0  0  0  0  0  0  0  0  0  0  0
   35.9330   28.7780   34.4540 C   0  0  0  0  0  0  0  0  0  0  0  0
   36.5630   27.9900   33.5240 C   0  0  0  0  0  0  0  0  0  0  0  0
   36.6090   28.4500   32.2320 C   0  0  0  0  0  0  0  0  0  0  0  0
   36.0390   29.6560   31.9040 C   0  0  0  0  0  0  0  0  0  0  0  0
   35.9000   28.4100   35.4750 H   0  0  0  0  0  0  0  0  0  0  0  0
   37.0950   27.8640   31.4620 H   0  0  0  0  0  0  0  0  0  0  0  0
   36.1020   29.9740   30.8670 H   0  0  0  0  0  0  0  0  0  0  0  0
   37.1770   26.7120   33.8330 C   0  0  0  0  0  0  0  0  0  0  0  0
   37.4430   26.2520   35.1130 C   0  0  0  0  0  0  0  0  0  0  0  0
   38.0320   25.0180   35.3560 C   0  0  0  0  0  0  0  0  0  0  0  0
   38.3650   24.2300   34.3290 N   0  0  0  0  0  0  0  0  0  0  0  0
   38.1110   24.6670   33.0730 C   0  0  0  0  0  0  0  0  0  0  0  0
   37.5440   25.8530   32.8600 N   0  0  0  0  0  0  0  0  0  0  0  0
   37.1730   26.8920   35.9460 H   0  0  0  0  0  0  0  0  0  0  0  0
   38.2090   24.7260   36.3770 H   0  0  0  0  0  0  0  0  0  0  0  0
   38.4800   23.7970   32.0070 N   0  0  0  0  0  0  0  0  0  0  0  0
   37.9840   23.9980   30.6790 C   0  0  0  0  0  2  0  0  0  0  0  0
   38.9020   23.5470   29.5890 C   0  0  0  0  0  2  0  0  0  0  0  0
   39.8550   22.4750   29.9680 C   0  0  0  0  0  3  0  0  0  0  0  0
   39.9530   21.7610   29.1250 H   0  0  0  0  0  0  0  0  0  0  0  0
   39.4220   21.6910   31.1800 C   0  0  0  0  0  2  0  0  0  0  0  0
   39.3830   22.6900   32.3140 C   0  0  0  0  0  2  0  0  0  0  0  0
   34.9510   32.2350   37.0050 C   0  0  0  0  0  0  0  0  0  0  0  0
   33.5240   32.3290   37.1450 C   0  0  0  0  0  0  0  0  0  0  0  0
   32.7470   31.6160   36.2610 C   0  0  0  0  0  0  0  0  0  0  0  0
   33.3590   30.8610   35.3020 N   0  0  0  0  0  0  0  0  0  0  0  0
   34.6970   30.7860   35.1860 C   0  0  0  0  0  0  0  0  0  0  0  0
   35.4960   31.4820   36.0480 N   0  0  0  0  0  0  0  0  0  0  0  0
   35.5450   32.8100   37.7180 H   0  0  0  0  0  0  0  0  0  0  0  0
   33.0800   32.9390   37.9200 H   0  0  0  0  0  0  0  0  0  0  0  0
   31.6680   31.6310   36.2960 H   0  0  0  0  0  0  0  0  0  0  0  0
  1  2  1  0  0  0  0
  2  3  1  0  0  0  0
  3  4  2  0  0  0  0
  3 30  1  0  0  0  0
  4  8  1  0  0  0  0
  5 11  1  0  0  0  0
  5  4  1  0  0  0  0
  6  5  2  0  0  0  0
  7  6  1  0  0  0  0
  7  2  2  0  0  0  0
  9  6  1  0  0  0  0
 10  7  1  0  0  0  0
 11 12  1  0  0  0  0
 12 13  2  0  0  0  0
 12 17  1  0  0  0  0
 13 18  1  0  0  0  0
 14 13  1  0  0  0  0
 15 14  2  0  0  0  0
 16 15  1  0  0  0  0
 16 11  2  0  0  0  0
 19 25  1  0  0  0  0
 19 15  1  0  0  0  0
 20 19  1  0  0  0  0
 21 22  1  0  0  0  0
 21 20  1  0  0  0  0
 22 24  1  0  0  0  0
 23 22  1  0  0  0  0
 24 25  1  0  0  0  0
 26 27  1  0  0  0  0
 26 32  1  0  0  0  0
 27 33  1  0  0  0  0
 28 34  1  0  0  0  0
 28 27  2  0  0  0  0
 29 28  1  0  0  0  0
 30 29  2  0  0  0  0
 30 31  1  0  0  0  0
 31 26  2  0  0  0  0
M  END
>  <minimizedAffinity>
-5.73310709

$$$$

 OpenBabel03272510223D

 34 37  0  0  0  0  0  0  0  0999 V2000
   37.0000   28.8770   31.3590 Br  0  0  0  0  0  0  0  0  0  0  0  0
   37.5160   27.6040   32.6910 C   0  0  0  0  0  0  0  0  0  0  0  0
   38.6020   26.7650   32.4930 C   0  0  0  0  0  0  0  0  0  0  0  0
   38.9090   25.8830   33.4900 C   0  0  0  0  0  0  0  0  0  0  0  0
   38.2060   25.7850   34.6640 C   0  0  0  0  0  0  0  0  0  0  0  0
   37.1350   26.6270   34.8340 C   0  0  0  0  0  0  0  0  0  0  0  0
   36.7980   27.5260   33.8520 C   0  0  0  0  0  0  0  0  0  0  0  0
   39.7540   25.2150   33.3600 H   0  0  0  0  0  0  0  0  0  0  0  0
   36.5490   26.5870   35.7440 H   0  0  0  0  0  0  0  0  0  0  0  0
   35.9430   28.1700   34.0370 H   0  0  0  0  0  0  0  0  0  0  0  0
   38.5310   24.8470   35.7230 C   0  0  0  0  0  0  0  0  0  0  0  0
   37.8480   24.7420   36.9240 C   0  0  0  0  0  0  0  0  0  0  0  0
   38.1990   23.8260   37.9070 C   0  0  0  0  0  0  0  0  0  0  0  0
   39.2350   23.0060   37.7050 N   0  0  0  0  0  0  0  0  0  0  0  0
   39.9120   23.0970   36.5370 C   0  0  0  0  0  0  0  0  0  0  0  0
   39.5590   23.9820   35.6060 N   0  0  0  0  0  0  0  0  0  0  0  0
   37.0070   25.4090   37.0860 H   0  0  0  0  0  0  0  0  0  0  0  0
   37.6220   23.8010   38.8150 H   0  0  0  0  0  0  0  0  0  0  0  0
   41.0090   22.2040   36.3620 N   0  0  0  0  0  0  0  0  0  0  0  0
   41.5900   21.9870   35.0730 C   0  0  0  0  0  2  0  0  0  0  0  0
   43.0470   21.6530   35.0870 C   0  0  0  0  0  2  0  0  0  0  0  0
   43.5400   21.0270   36.3390 C   0  0  0  0  0  3  0  0  0  0  0  0
   44.2750   20.2360   36.0850 H   0  0  0  0  0  0  0  0  0  0  0  0
   42.4490   20.3880   37.1590 C   0  0  0  0  0  2  0  0  0  0  0  0
   41.5210   21.5170   37.5450 C   0  0  0  0  0  2  0  0  0  0  0  0
   39.6500   26.0580   29.0700 C   0  0  0  0  0  0  0  0  0  0  0  0
   40.7940   26.9100   28.8980 C   0  0  0  0  0  0  0  0  0  0  0  0
   41.1690   27.7000   29.9610 C   0  0  0  0  0  0  0  0  0  0  0  0
   40.4450   27.6390   31.1170 N   0  0  0  0  0  0  0  0  0  0  0  0
   39.3780   26.8340   31.2610 C   0  0  0  0  0  0  0  0  0  0  0  0
   38.9800   26.0380   30.2240 N   0  0  0  0  0  0  0  0  0  0  0  0
   39.3740   25.4410   28.2140 H   0  0  0  0  0  0  0  0  0  0  0  0
   41.3390   26.9270   27.9640 H   0  0  0  0  0  0  0  0  0  0  0  0
   42.0150   28.3680   29.9150 H   0  0  0  0  0  0  0  0  0  0  0  0
  1  2  1  0  0  0  0
  2  7  1  0  0  0  0
  3  2  2  0  0  0  0
  3  4  1  0  0  0  0
  4  5  2  0  0  0  0
  5  6  1  0  0  0  0
  5 11  1  0  0  0  0
  6  9  1  0  0  0  0
  7 10  1  0  0  0  0
  7  6  2  0  0  0  0
  8  4  1  0  0  0  0
 11 12  1  0  0  0  0
 12 17  1  0  0  0  0
 12 13  2  0  0  0  0
 13 18  1  0  0  0  0
 14 13  1  0  0  0  0
 15 14  2  0  0  0  0
 16 11  2  0  0  0  0
 16 15  1  0  0  0  0
 19 15  1  0  0  0  0
 19 25  1  0  0  0  0
 20 21  1  0  0  0  0
 20 19  1  0  0  0  0
 21 22  1  0  0  0  0
 22 24  1  0  0  0  0
 23 22  1  0  0  0  0
 24 25  1  0  0  0  0
 26 31  1  0  0  0  0
 27 26  2  0  0  0  0
 27 28  1  0  0  0  0
 28 29  2  0  0  0  0
 29 30  1  0  0  0  0
 30  3  1  0  0  0  0
 31 30  2  0  0  0  0
 32 26  1  0  0  0  0
 33 27  1  0  0  0  0
 34 28  1  0  0  0  0
M  END
>  <minimizedAffinity>
-5.71059656

$$$$
