
 OpenBabel03272506453D

 40 43  0  0  1  0  0  0  0  0999 V2000
   31.9680   28.4190   47.4380 C   0  0  2  0  0  0  0  0  0  0  0  0
   33.2230   28.2120   48.2350 C   0  0  1  0  0  0  0  0  0  0  0  0
   33.5760   26.9000   48.1340 O   0  0  0  0  0  0  0  0  0  0  0  0
   32.8350   26.3010   47.1210 C   0  0  0  0  0  0  0  0  0  0  0  0
   32.2460   27.4090   46.2840 C   0  0  1  0  0  0  0  0  0  0  0  0
   31.0470   28.1210   47.9250 H   0  0  0  0  0  0  0  0  0  0  0  0
   33.0610   28.5600   49.2740 H   0  0  0  0  0  0  0  0  0  0  0  0
   32.1380   25.6260   47.5910 H   0  0  0  0  0  0  0  0  0  0  0  0
   33.5010   25.6490   46.4820 H   0  0  0  0  0  0  0  0  0  0  0  0
   32.9960   27.8500   45.6340 H   0  0  0  0  0  0  0  0  0  0  0  0
   31.9250   29.7240   46.9080 O   0  0  0  0  0  0  0  0  0  0  0  0
   32.2010   30.3100   47.6800 H   0  0  0  0  0  0  0  0  0  0  0  0
   34.5470   29.2180   47.4540 S   0  0  0  0  0  0  0  0  0  0  0  0
   36.9670   29.2430   50.5950 C   0  0  0  0  0  0  0  0  0  0  0  0
   37.3940   30.5640   50.7160 C   0  0  0  0  0  0  0  0  0  0  0  0
   36.9150   31.4900   49.7860 C   0  0  0  0  0  0  0  0  0  0  0  0
   36.0560   31.0610   48.8100 N   0  0  0  0  0  0  0  0  0  0  0  0
   35.6710   29.7680   48.7350 C   0  0  0  0  0  0  0  0  0  0  0  0
   36.1190   28.8440   49.6240 N   0  0  0  0  0  0  0  0  0  0  0  0
   37.3020   28.4850   51.2800 H   0  0  0  0  0  0  0  0  0  0  0  0
   38.0690   30.8080   51.5130 H   0  0  0  0  0  0  0  0  0  0  0  0
   37.2280   32.5110   49.8580 H   0  0  0  0  0  0  0  0  0  0  0  0
   31.0770   26.9710   45.7150 O   0  0  0  0  0  0  0  0  0  0  0  0
   29.6810   29.0880   44.2200 Cl  0  0  0  0  0  0  0  0  0  0  0  0
   29.1020   28.1500   45.5770 C   0  0  0  0  0  0  0  0  0  0  0  0
   29.8490   27.1700   46.1920 C   0  0  0  0  0  0  0  0  0  0  0  0
   29.2680   26.4720   47.2520 C   0  0  0  0  0  0  0  0  0  0  0  0
   27.9850   26.7590   47.6650 C   0  0  0  0  0  0  0  0  0  0  0  0
   27.2280   27.7400   47.0540 C   0  0  0  0  0  0  0  0  0  0  0  0
   27.7930   28.4370   46.0020 C   0  0  0  0  0  0  0  0  0  0  0  0
   29.7750   25.6890   47.7870 H   0  0  0  0  0  0  0  0  0  0  0  0
   27.4690   26.2640   48.4750 H   0  0  0  0  0  0  0  0  0  0  0  0
   26.2130   28.0000   47.3450 H   0  0  0  0  0  0  0  0  0  0  0  0
   27.0300   29.4530   45.3590 N   0  0  0  0  0  0  0  0  0  0  0  0
   26.9290   30.7370   46.0650 C   0  0  0  0  0  0  0  0  0  0  0  0
   27.6010   31.8370   45.2690 C   0  0  0  0  0  0  0  0  0  0  0  0
   27.6520   31.4470   43.7970 C   0  0  0  0  0  0  0  0  0  0  0  0
   27.8890   32.2900   43.1510 H   0  0  0  0  0  0  0  0  0  0  0  0
   26.2830   30.8220   43.5160 C   0  0  0  0  0  0  0  0  0  0  0  0
   26.3210   29.4260   44.1010 C   0  0  0  0  0  0  0  0  0  0  0  0
  1  6  1  1  0  0  0
  1  2  1  0  0  0  0
  2  7  1  1  0  0  0
  3  2  1  0  0  0  0
  4  8  1  0  0  0  0
  4  3  1  0  0  0  0
  5 10  1  6  0  0  0
  5  4  1  0  0  0  0
  5  1  1  0  0  0  0
  9  4  1  0  0  0  0
 11  1  1  0  0  0  0
 11 12  1  0  0  0  0
 13  2  1  0  0  0  0
 13 18  1  0  0  0  0
 14 15  1  0  0  0  0
 14 20  1  0  0  0  0
 15 21  1  0  0  0  0
 16 22  1  0  0  0  0
 16 15  2  0  0  0  0
 17 16  1  0  0  0  0
 18 17  2  0  0  0  0
 18 19  1  0  0  0  0
 19 14  2  0  0  0  0
 23 26  1  0  0  0  0
 23  5  1  0  0  0  0
 24 25  1  0  0  0  0
 25 30  2  0  0  0  0
 25 26  1  0  0  0  0
 26 27  2  0  0  0  0
 27 28  1  0  0  0  0
 27 31  1  0  0  0  0
 28 32  1  0  0  0  0
 29 33  1  0  0  0  0
 29 28  2  0  0  0  0
 30 29  1  0  0  0  0
 34 30  1  0  0  0  0
 34 35  1  0  0  0  0
 36 35  1  0  0  0  0
 37 36  1  0  0  0  0
 38 37  1  0  0  0  0
 39 37  1  0  0  0  0
 39 40  1  0  0  0  0
 40 34  1  0  0  0  0
M  END
>  <minimizedAffinity>
-5.26882362

>  <minimizedRMSD>
0.970284343

$$$$
