
 OpenBabel03272509393D

 33 35  0  0  0  0  0  0  0  0999 V2000
   36.9740   30.9210   49.1670 C   0  0  0  0  0  0  0  0  0  0  0  0
   36.6200   31.8760   50.1340 C   0  0  0  0  0  0  0  0  0  0  0  0
   37.1930   33.1290   50.1920 C   0  0  0  0  0  0  0  0  0  0  0  0
   38.1650   33.4860   49.2620 C   0  0  0  0  0  0  0  0  0  0  0  0
   38.5040   32.5440   48.3180 C   0  0  0  0  0  0  0  0  0  0  0  0
   37.9290   31.3070   48.2720 C   0  0  0  0  0  0  0  0  0  0  0  0
   35.8650   31.6440   50.8810 H   0  0  0  0  0  0  0  0  0  0  0  0
   36.8990   33.8410   50.9410 H   0  0  0  0  0  0  0  0  0  0  0  0
   38.6090   34.4720   49.3110 H   0  0  0  0  0  0  0  0  0  0  0  0
   39.2680   32.8900   47.6260 H   0  0  0  0  0  0  0  0  0  0  0  0
   36.3180   29.6310   49.1910 C   0  0  0  0  0  0  0  0  0  0  0  0
   36.8550   28.7790   49.9870 O   0  0  0  0  0  0  0  0  0  0  0  0
   33.6260   30.0570   46.8030 C   0  0  0  0  0  0  0  0  0  0  0  0
   32.9620   28.8280   46.8160 C   0  0  0  0  0  0  0  0  0  0  0  0
   33.4440   27.8400   47.6570 C   0  0  0  0  0  0  0  0  0  0  0  0
   34.5320   28.0970   48.4310 N   0  0  0  0  0  0  0  0  0  0  0  0
   35.1450   29.2770   48.3980 C   0  0  0  0  0  0  0  0  0  0  0  0
   34.6850   30.2370   47.5880 N   0  0  0  0  0  0  0  0  0  0  0  0
   33.2390   30.8360   46.1490 H   0  0  0  0  0  0  0  0  0  0  0  0
   32.0960   28.6300   46.1940 H   0  0  0  0  0  0  0  0  0  0  0  0
   32.9880   26.8610   47.7370 H   0  0  0  0  0  0  0  0  0  0  0  0
   38.3860   30.4360   47.2230 C   0  0  0  0  0  0  0  0  0  0  0  0
   38.3910   30.6850   45.9250 C   0  0  0  0  0  0  0  0  0  0  0  0
   38.7850   29.9480   44.7390 C   0  0  0  0  0  0  0  0  0  0  0  0
   37.9230   29.3510   44.3470 H   0  0  0  0  0  0  0  0  0  0  0  0
   39.6150   29.2230   44.9900 H   0  0  0  0  0  0  0  0  0  0  0  0
   39.2910   30.7590   43.6440 N   0  0  0  0  0  0  0  0  0  0  0  0
   40.5610   31.2770   44.1280 C   0  0  0  0  0  0  0  0  0  0  0  0
   40.4040   32.5600   44.9080 C   0  0  0  0  0  0  0  0  0  0  0  0
   40.2540   33.6530   43.8410 C   0  0  0  0  0  0  0  0  0  0  0  0
   40.0220   34.6220   44.2700 H   0  0  0  0  0  0  0  0  0  0  0  0
   39.2150   33.1130   42.8780 C   0  0  0  0  0  0  0  0  0  0  0  0
   38.4430   31.9350   43.4720 C   0  0  0  0  0  0  0  0  0  0  0  0
  1 11  1  0  0  0  0
  1  2  1  0  0  0  0
  2  3  2  0  0  0  0
  2  7  1  0  0  0  0
  3  8  1  0  0  0  0
  4  9  1  0  0  0  0
  4  3  1  0  0  0  0
  5  4  2  0  0  0  0
  6  5  1  0  0  0  0
  6  1  2  0  0  0  0
 10  5  1  0  0  0  0
 11 12  2  0  0  0  0
 13 14  2  0  0  0  0
 13 18  1  0  0  0  0
 14 15  1  0  0  0  0
 15 21  1  0  0  0  0
 15 16  2  0  0  0  0
 17 16  1  0  0  0  0
 17 11  1  0  0  0  0
 18 17  2  0  0  0  0
 19 13  1  0  0  0  0
 20 14  1  0  0  0  0
 22  6  1  0  0  0  0
 23 22  2  0  0  0  0
 24 26  1  0  0  0  0
 24 23  1  0  0  0  0
 25 24  1  0  0  0  0
 27 28  1  0  0  0  0
 27 24  1  0  0  0  0
 28 29  1  0  0  0  0
 30 31  1  0  0  0  0
 30 29  1  0  0  0  0
 32 33  1  0  0  0  0
 32 30  1  0  0  0  0
 33 27  1  0  0  0  0
M  END
>  <minimizedAffinity>
-5.97850466

>  <minimizedRMSD>
1.47669935

$$$$
