
 OpenBabel03272510053D

 28 30  0  0  0  0  0  0  0  0999 V2000
   36.1290   31.1080   49.1830 C   0  0  0  0  0  0  0  0  0  0  0  0
   36.9490   31.3150   48.0680 C   0  0  0  0  0  0  0  0  0  0  0  0
   36.6240   30.6620   46.8790 C   0  0  0  0  0  0  0  0  0  0  0  0
   35.5310   29.8580   46.8580 N   0  0  0  0  0  0  0  0  0  0  0  0
   34.7610   29.6750   47.9370 C   0  0  0  0  0  0  0  0  0  0  0  0
   35.0430   30.2840   49.0920 N   0  0  0  0  0  0  0  0  0  0  0  0
   33.6210   28.8100   47.8390 N   0  0  0  0  0  0  0  0  0  0  0  0
   32.5300   29.0350   46.8920 C   0  0  0  0  0  0  0  0  0  0  0  0
   31.7260   27.7840   46.9340 C   0  0  0  0  0  0  0  0  0  0  0  0
   32.5030   26.7970   47.7580 C   0  0  0  0  0  0  0  0  0  0  0  0
   33.3840   27.6240   48.6320 C   0  0  0  0  0  0  0  0  0  0  0  0
   36.2500   31.5340   50.1490 H   0  0  0  0  0  0  0  0  0  0  0  0
   37.2480   30.8210   46.0320 H   0  0  0  0  0  0  0  0  0  0  0  0
   31.9760   29.9380   47.2360 H   0  0  0  0  0  0  0  0  0  0  0  0
   32.9410   29.2900   45.8930 H   0  0  0  0  0  0  0  0  0  0  0  0
   31.6880   27.3800   45.8840 H   0  0  0  0  0  0  0  0  0  0  0  0
   30.6950   27.9310   47.2790 H   0  0  0  0  0  0  0  0  0  0  0  0
   31.7450   26.2840   48.4140 H   0  0  0  0  0  0  0  0  0  0  0  0
   32.9990   26.0080   47.1840 H   0  0  0  0  0  0  0  0  0  0  0  0
   32.9750   27.8430   49.6340 H   0  0  0  0  0  0  0  0  0  0  0  0
   34.3450   27.0780   48.7440 H   0  0  0  0  0  0  0  0  0  0  0  0
   38.0540   32.1800   48.2350 N   0  0  0  0  0  0  0  0  0  0  0  0
   37.9740   33.2080   49.2230 C   0  0  0  0  0  0  0  0  0  0  0  0
   39.3100   33.8460   49.5260 C   0  0  0  0  0  0  0  0  0  0  0  0
   39.9920   34.3500   48.2770 C   0  0  0  0  0  0  0  0  0  0  0  0
   39.7460   35.4010   48.0270 H   0  0  0  0  0  0  0  0  0  0  0  0
   39.6570   33.5080   47.0700 C   0  0  0  0  0  0  0  0  0  0  0  0
   39.2750   32.0880   47.4620 C   0  0  0  0  0  0  0  0  0  0  0  0
  1 12  1  0  0  0  0
  2 22  1  0  0  0  0
  2  1  2  0  0  0  0
  3  2  1  0  0  0  0
  4  3  2  0  0  0  0
  4  5  1  0  0  0  0
  5  6  2  0  0  0  0
  6  1  1  0  0  0  0
  7  5  1  0  0  0  0
  7 11  1  0  0  0  0
  8  9  1  0  0  0  0
  8 14  1  0  0  0  0
  8  7  1  0  0  0  0
  9 17  1  0  0  0  0
  9 10  1  0  0  0  0
 10 18  1  0  0  0  0
 10 11  1  0  0  0  0
 11 21  1  0  0  0  0
 11 20  1  0  0  0  0
 13  3  1  0  0  0  0
 15  8  1  0  0  0  0
 16  9  1  0  0  0  0
 19 10  1  0  0  0  0
 22 23  1  0  0  0  0
 23 24  1  0  0  0  0
 25 24  1  0  0  0  0
 26 25  1  0  0  0  0
 27 28  1  0  0  0  0
 27 25  1  0  0  0  0
 28 22  1  0  0  0  0
M  END
>  <minimizedAffinity>
-4.68332291

>  <minimizedRMSD>
2.85911226

$$$$
