
 OpenBabel03272508383D

 42 45  0  0  1  0  0  0  0  0999 V2000
   38.0500   25.3440   33.5280 C   0  0  0  0  0  0  0  0  0  0  0  0
   37.1240   25.4240   34.1170 H   0  0  0  0  0  0  0  0  0  0  0  0
   38.8310   25.7710   34.2450 H   0  0  0  0  0  0  0  0  0  0  0  0
   38.4170   24.0140   33.3290 N   0  0  0  0  0  0  0  0  0  0  0  0
   38.0350   23.4290   32.0920 C   0  0  0  0  0  0  0  0  0  0  0  0
   37.1130   22.2830   32.1560 C   0  0  0  0  0  0  0  0  0  0  0  0
   37.4900   21.3760   33.1850 O   0  0  0  0  0  0  0  0  0  0  0  0
   37.3990   22.0830   34.3790 C   0  0  0  0  0  0  0  0  0  0  0  0
   38.5000   23.0930   34.3700 C   0  0  2  0  0  0  0  0  0  0  0  0
   39.0410   22.9350   31.8330 H   0  0  0  0  0  0  0  0  0  0  0  0
   37.9210   24.0420   31.2210 H   0  0  0  0  0  0  0  0  0  0  0  0
   37.4020   21.6350   31.2260 H   0  0  0  0  0  0  0  0  0  0  0  0
   36.0790   22.3000   32.0860 H   0  0  0  0  0  0  0  0  0  0  0  0
   36.4040   22.4200   34.6130 H   0  0  0  0  0  0  0  0  0  0  0  0
   37.6460   21.3140   35.1690 H   0  0  0  0  0  0  0  0  0  0  0  0
   39.3960   22.4340   34.0450 H   0  0  0  0  0  0  0  0  0  0  0  0
   38.9600   23.5450   35.6500 N   0  0  0  0  0  0  0  0  0  0  0  0
   39.5960   22.4670   36.4070 C   0  0  0  0  0  2  0  0  0  0  0  0
   40.0500   22.9360   37.7600 C   0  0  0  0  0  2  0  0  0  0  0  0
   38.8690   23.2690   38.6210 C   0  0  0  0  0  3  0  0  0  0  0  0
   39.0320   24.2420   39.1250 H   0  0  0  0  0  0  0  0  0  0  0  0
   37.6560   23.4140   37.7270 C   0  0  0  0  0  2  0  0  0  0  0  0
   37.9450   24.1760   36.4540 C   0  0  0  0  0  2  0  0  0  0  0  0
   37.9540   26.2340   32.3780 C   0  0  0  0  0  0  0  0  0  0  0  0
   38.9450   26.7630   32.2430 H   0  0  0  0  0  0  0  0  0  0  0  0
   37.7150   25.8920   31.3810 H   0  0  0  0  0  0  0  0  0  0  0  0
   35.7980   28.8250   33.6040 C   0  0  0  0  0  0  0  0  0  0  0  0
   35.4590   28.7960   32.2760 C   0  0  0  0  0  0  0  0  0  0  0  0
   36.2230   27.8200   31.6620 C   0  0  0  0  0  0  0  0  0  0  0  0
   36.9860   27.2970   32.6270 N   0  0  0  0  0  0  0  0  0  0  0  0
   36.7270   27.9050   33.7940 N   0  0  0  0  0  0  0  0  0  0  0  0
   34.7000   29.4570   31.8140 H   0  0  0  0  0  0  0  0  0  0  0  0
   36.0330   27.7300   30.6170 H   0  0  0  0  0  0  0  0  0  0  0  0
   35.2690   31.5810   36.1210 C   0  0  0  0  0  0  0  0  0  0  0  0
   35.9410   30.7110   35.2590 C   0  0  0  0  0  0  0  0  0  0  0  0
   35.2230   29.7650   34.5480 C   0  0  0  0  0  0  0  0  0  0  0  0
   33.8790   29.7740   34.7680 N   0  0  0  0  0  0  0  0  0  0  0  0
   33.2530   30.6140   35.5980 C   0  0  0  0  0  0  0  0  0  0  0  0
   33.9530   31.5140   36.2710 N   0  0  0  0  0  0  0  0  0  0  0  0
   35.9320   32.2760   36.6220 H   0  0  0  0  0  0  0  0  0  0  0  0
   37.0140   30.7110   35.0900 H   0  0  0  0  0  0  0  0  0  0  0  0
   32.1700   30.5330   35.6980 H   0  0  0  0  0  0  0  0  0  0  0  0
  1  2  1  0  0  0  0
  1  3  1  0  0  0  0
  4  1  1  0  0  0  0
  4  9  1  0  0  0  0
  5  6  1  0  0  0  0
  5  4  1  0  0  0  0
  6  7  1  0  0  0  0
  7  8  1  0  0  0  0
  8 14  1  0  0  0  0
  8 15  1  0  0  0  0
  9 16  1  6  0  0  0
  9  8  1  0  0  0  0
  9 17  1  0  0  0  0
 10  5  1  0  0  0  0
 11  5  1  0  0  0  0
 12  6  1  0  0  0  0
 13  6  1  0  0  0  0
 17 18  1  0  0  0  0
 17 23  1  0  0  0  0
 18 19  1  0  0  0  0
 19 20  1  0  0  0  0
 20 21  1  0  0  0  0
 22 20  1  0  0  0  0
 23 22  1  0  0  0  0
 24 30  1  0  0  0  0
 24  1  1  0  0  0  0
 25 24  1  0  0  0  0
 26 24  1  0  0  0  0
 27 31  2  0  0  0  0
 27 36  1  0  0  0  0
 28 27  1  0  0  0  0
 29 28  2  0  0  0  0
 29 30  1  0  0  0  0
 30 31  1  0  0  0  0
 32 28  1  0  0  0  0
 33 29  1  0  0  0  0
 34 39  1  0  0  0  0
 34 40  1  0  0  0  0
 35 34  2  0  0  0  0
 36 37  2  0  0  0  0
 36 35  1  0  0  0  0
 37 38  1  0  0  0  0
 38 42  1  0  0  0  0
 38 39  2  0  0  0  0
 41 35  1  0  0  0  0
M  END
>  <minimizedAffinity>
-5.55093384

$$$$

 OpenBabel03272508383D

 42 45  0  0  1  0  0  0  0  0999 V2000
   36.1390   28.3740   33.2020 C   0  0  0  0  0  0  0  0  0  0  0  0
   36.8740   28.7090   33.9500 H   0  0  0  0  0  0  0  0  0  0  0  0
   35.3530   27.8570   33.8500 H   0  0  0  0  0  0  0  0  0  0  0  0
   35.4820   29.4520   32.6110 N   0  0  0  0  0  0  0  0  0  0  0  0
   35.7050   29.6450   31.2210 C   0  0  0  0  0  0  0  0  0  0  0  0
   36.3500   30.9060   30.8200 C   0  0  0  0  0  0  0  0  0  0  0  0
   35.7980   32.0120   31.5240 O   0  0  0  0  0  0  0  0  0  0  0  0
   36.0630   31.7890   32.8700 C   0  0  0  0  0  0  0  0  0  0  0  0
   35.2140   30.6360   33.2940 C   0  0  2  0  0  0  0  0  0  0  0  0
   34.6100   29.8060   30.9070 H   0  0  0  0  0  0  0  0  0  0  0  0
   35.9370   28.8090   30.5940 H   0  0  0  0  0  0  0  0  0  0  0  0
   35.9090   31.1250   29.7590 H   0  0  0  0  0  0  0  0  0  0  0  0
   37.3610   31.0770   30.6660 H   0  0  0  0  0  0  0  0  0  0  0  0
   37.1120   31.7630   33.1100 H   0  0  0  0  0  0  0  0  0  0  0  0
   35.6640   32.7150   33.3820 H   0  0  0  0  0  0  0  0  0  0  0  0
   34.1890   30.9470   32.8530 H   0  0  0  0  0  0  0  0  0  0  0  0
   34.8870   30.5630   34.6880 N   0  0  0  0  0  0  0  0  0  0  0  0
   33.5780   31.1540   34.9670 C   0  0  0  0  0  2  0  0  0  0  0  0
   33.2510   31.1040   36.4330 C   0  0  0  0  0  2  0  0  0  0  0  0
   34.1720   32.0010   37.2040 C   0  0  0  0  0  3  0  0  0  0  0  0
   34.5530   31.4710   38.0980 H   0  0  0  0  0  0  0  0  0  0  0  0
   35.3590   32.3320   36.3250 C   0  0  0  0  0  2  0  0  0  0  0  0
   35.8800   31.1370   35.5590 C   0  0  0  0  0  2  0  0  0  0  0  0
   36.7600   27.3670   32.3510 C   0  0  0  0  0  0  0  0  0  0  0  0
   35.9470   26.7440   31.8700 H   0  0  0  0  0  0  0  0  0  0  0  0
   37.4120   27.6100   31.5240 H   0  0  0  0  0  0  0  0  0  0  0  0
   38.2800   25.2320   34.8010 C   0  0  0  0  0  0  0  0  0  0  0  0
   39.0030   24.9170   33.6790 C   0  0  0  0  0  0  0  0  0  0  0  0
   38.5230   25.6820   32.6330 C   0  0  0  0  0  0  0  0  0  0  0  0
   37.5390   26.4260   33.1490 N   0  0  0  0  0  0  0  0  0  0  0  0
   37.3960   26.1520   34.4540 N   0  0  0  0  0  0  0  0  0  0  0  0
   39.8240   24.1730   33.6580 H   0  0  0  0  0  0  0  0  0  0  0  0
   39.0230   25.4970   31.7100 H   0  0  0  0  0  0  0  0  0  0  0  0
   38.0570   24.1760   38.4120 C   0  0  0  0  0  0  0  0  0  0  0  0
   37.7890   24.8900   37.2410 C   0  0  0  0  0  0  0  0  0  0  0  0
   38.4830   24.5850   36.0830 C   0  0  0  0  0  0  0  0  0  0  0  0
   39.3960   23.5800   36.2020 N   0  0  0  0  0  0  0  0  0  0  0  0
   39.6390   22.9090   37.3320 C   0  0  0  0  0  0  0  0  0  0  0  0
   38.9660   23.2110   38.4320 N   0  0  0  0  0  0  0  0  0  0  0  0
   37.4550   24.5000   39.2530 H   0  0  0  0  0  0  0  0  0  0  0  0
   37.0600   25.6890   37.1560 H   0  0  0  0  0  0  0  0  0  0  0  0
   40.3920   22.1210   37.3140 H   0  0  0  0  0  0  0  0  0  0  0  0
  1  3  1  0  0  0  0
  1  2  1  0  0  0  0
  4  1  1  0  0  0  0
  4  9  1  0  0  0  0
  5  4  1  0  0  0  0
  6  5  1  0  0  0  0
  6  7  1  0  0  0  0
  7  8  1  0  0  0  0
  8 14  1  0  0  0  0
  8  9  1  0  0  0  0
  8 15  1  0  0  0  0
  9 16  1  6  0  0  0
  9 17  1  0  0  0  0
 10  5  1  0  0  0  0
 11  5  1  0  0  0  0
 12  6  1  0  0  0  0
 13  6  1  0  0  0  0
 17 18  1  0  0  0  0
 17 23  1  0  0  0  0
 18 19  1  0  0  0  0
 19 20  1  0  0  0  0
 20 21  1  0  0  0  0
 22 20  1  0  0  0  0
 23 22  1  0  0  0  0
 24 30  1  0  0  0  0
 24  1  1  0  0  0  0
 25 24  1  0  0  0  0
 26 24  1  0  0  0  0
 27 36  1  0  0  0  0
 28 27  1  0  0  0  0
 29 30  1  0  0  0  0
 29 28  2  0  0  0  0
 30 31  1  0  0  0  0
 31 27  2  0  0  0  0
 32 28  1  0  0  0  0
 33 29  1  0  0  0  0
 34 39  1  0  0  0  0
 34 40  1  0  0  0  0
 35 34  2  0  0  0  0
 36 37  2  0  0  0  0
 36 35  1  0  0  0  0
 37 38  1  0  0  0  0
 38 39  2  0  0  0  0
 41 35  1  0  0  0  0
 42 38  1  0  0  0  0
M  END
>  <minimizedAffinity>
-5.41994619

$$$$

 OpenBabel03272508383D

 42 45  0  0  1  0  0  0  0  0999 V2000
   37.4510   26.4280   34.0800 C   0  0  0  0  0  0  0  0  0  0  0  0
   36.8960   25.5530   34.4510 H   0  0  0  0  0  0  0  0  0  0  0  0
   37.0860   27.2580   34.7750 H   0  0  0  0  0  0  0  0  0  0  0  0
   38.8180   26.3110   34.3260 N   0  0  0  0  0  0  0  0  0  0  0  0
   39.6830   27.0220   33.4510 C   0  0  0  0  0  0  0  0  0  0  0  0
   40.6170   26.2210   32.6440 C   0  0  0  0  0  0  0  0  0  0  0  0
   41.2230   25.1970   33.4250 O   0  0  0  0  0  0  0  0  0  0  0  0
   40.1890   24.3720   33.8530 C   0  0  0  0  0  0  0  0  0  0  0  0
   39.3920   25.1540   34.8450 C   0  0  2  0  0  0  0  0  0  0  0  0
   40.3670   27.4880   34.2500 H   0  0  0  0  0  0  0  0  0  0  0  0
   39.3450   27.9220   32.9770 H   0  0  0  0  0  0  0  0  0  0  0  0
   41.5450   26.9200   32.5080 H   0  0  0  0  0  0  0  0  0  0  0  0
   40.4770   25.8690   31.6790 H   0  0  0  0  0  0  0  0  0  0  0  0
   39.6620   23.8800   33.0530 H   0  0  0  0  0  0  0  0  0  0  0  0
   40.7170   23.5440   34.4130 H   0  0  0  0  0  0  0  0  0  0  0  0
   40.2360   25.5770   35.5160 H   0  0  0  0  0  0  0  0  0  0  0  0
   38.6500   24.3930   35.8080 N   0  0  0  0  0  0  0  0  0  0  0  0
   38.4530   25.1410   37.0500 C   0  0  0  0  0  2  0  0  0  0  0  0
   37.7020   24.3310   38.0680 C   0  0  0  0  0  2  0  0  0  0  0  0
   38.5330   23.1710   38.5280 C   0  0  0  0  0  3  0  0  0  0  0  0
   37.9210   22.2480   38.5340 H   0  0  0  0  0  0  0  0  0  0  0  0
   39.6580   22.9700   37.5370 C   0  0  0  0  0  2  0  0  0  0  0  0
   39.2110   23.0990   36.0990 C   0  0  0  0  0  2  0  0  0  0  0  0
   36.9950   26.7340   32.7290 C   0  0  0  0  0  0  0  0  0  0  0  0
   36.1490   27.4820   32.7910 H   0  0  0  0  0  0  0  0  0  0  0  0
   37.6390   27.1460   31.9650 H   0  0  0  0  0  0  0  0  0  0  0  0
   35.9680   23.4960   31.5770 C   0  0  0  0  0  0  0  0  0  0  0  0
   35.1510   24.3170   30.8430 C   0  0  0  0  0  0  0  0  0  0  0  0
   35.4430   25.6240   31.1840 C   0  0  0  0  0  0  0  0  0  0  0  0
   36.4150   25.5520   32.1000 N   0  0  0  0  0  0  0  0  0  0  0  0
   36.7280   24.2690   32.3330 N   0  0  0  0  0  0  0  0  0  0  0  0
   34.4010   23.9550   30.1130 H   0  0  0  0  0  0  0  0  0  0  0  0
   34.8470   26.3400   30.6660 H   0  0  0  0  0  0  0  0  0  0  0  0
   36.6460   19.8620   30.8420 C   0  0  0  0  0  0  0  0  0  0  0  0
   36.7960   21.2500   30.8110 C   0  0  0  0  0  0  0  0  0  0  0  0
   35.9050   22.0480   31.5080 C   0  0  0  0  0  0  0  0  0  0  0  0
   34.9310   21.3750   32.1830 N   0  0  0  0  0  0  0  0  0  0  0  0
   34.8040   20.0450   32.2010 C   0  0  0  0  0  0  0  0  0  0  0  0
   35.6640   19.2950   31.5300 N   0  0  0  0  0  0  0  0  0  0  0  0
   37.3990   19.3410   30.2630 H   0  0  0  0  0  0  0  0  0  0  0  0
   37.5750   21.7780   30.2700 H   0  0  0  0  0  0  0  0  0  0  0  0
   33.9850   19.6110   32.7760 H   0  0  0  0  0  0  0  0  0  0  0  0
  1  4  1  0  0  0  0
  1  2  1  0  0  0  0
  1  3  1  0  0  0  0
  4  9  1  0  0  0  0
  5 10  1  0  0  0  0
  5  4  1  0  0  0  0
  6  7  1  0  0  0  0
  6  5  1  0  0  0  0
  7  8  1  0  0  0  0
  8 15  1  0  0  0  0
  8  9  1  0  0  0  0
  9 16  1  1  0  0  0
  9 17  1  0  0  0  0
 11  5  1  0  0  0  0
 12  6  1  0  0  0  0
 13  6  1  0  0  0  0
 14  8  1  0  0  0  0
 17 23  1  0  0  0  0
 17 18  1  0  0  0  0
 18 19  1  0  0  0  0
 19 20  1  0  0  0  0
 20 21  1  0  0  0  0
 22 20  1  0  0  0  0
 23 22  1  0  0  0  0
 24 25  1  0  0  0  0
 24  1  1  0  0  0  0
 26 24  1  0  0  0  0
 27 31  2  0  0  0  0
 28 29  2  0  0  0  0
 28 27  1  0  0  0  0
 29 30  1  0  0  0  0
 30 31  1  0  0  0  0
 30 24  1  0  0  0  0
 32 28  1  0  0  0  0
 33 29  1  0  0  0  0
 34 39  1  0  0  0  0
 35 34  2  0  0  0  0
 35 36  1  0  0  0  0
 36 27  1  0  0  0  0
 36 37  2  0  0  0  0
 37 38  1  0  0  0  0
 38 42  1  0  0  0  0
 39 38  2  0  0  0  0
 40 34  1  0  0  0  0
 41 35  1  0  0  0  0
M  END
>  <minimizedAffinity>
-5.38786793

$$$$

 OpenBabel03272508383D

 42 45  0  0  1  0  0  0  0  0999 V2000
   37.3740   25.7340   33.1760 C   0  0  0  0  0  0  0  0  0  0  0  0
   37.0250   24.6950   33.0770 H   0  0  0  0  0  0  0  0  0  0  0  0
   36.8200   26.0880   34.1110 H   0  0  0  0  0  0  0  0  0  0  0  0
   38.7280   25.7910   33.5010 N   0  0  0  0  0  0  0  0  0  0  0  0
   39.5890   26.3740   32.5330 C   0  0  0  0  0  0  0  0  0  0  0  0
   40.6300   25.5040   31.9610 C   0  0  0  0  0  0  0  0  0  0  0  0
   41.2610   24.7260   32.9700 O   0  0  0  0  0  0  0  0  0  0  0  0
   40.2680   23.9230   33.5210 C   0  0  0  0  0  0  0  0  0  0  0  0
   39.3550   24.8250   34.2840 C   0  0  2  0  0  0  0  0  0  0  0  0
   40.1860   27.0560   33.2420 H   0  0  0  0  0  0  0  0  0  0  0  0
   39.2140   27.1190   31.8600 H   0  0  0  0  0  0  0  0  0  0  0  0
   41.5090   26.2360   31.7170 H   0  0  0  0  0  0  0  0  0  0  0  0
   40.5770   24.9440   31.0900 H   0  0  0  0  0  0  0  0  0  0  0  0
   39.8310   23.2290   32.8240 H   0  0  0  0  0  0  0  0  0  0  0  0
   40.8220   23.2820   34.2700 H   0  0  0  0  0  0  0  0  0  0  0  0
   40.1210   25.4530   34.8840 H   0  0  0  0  0  0  0  0  0  0  0  0
   38.6140   24.2250   35.3550 N   0  0  0  0  0  0  0  0  0  0  0  0
   38.5080   25.1210   36.5060 C   0  0  0  0  0  2  0  0  0  0  0  0
   37.7580   24.4790   37.6380 C   0  0  0  0  0  2  0  0  0  0  0  0
   38.5450   23.3340   38.2030 C   0  0  0  0  0  3  0  0  0  0  0  0
   37.8850   22.4540   38.3380 H   0  0  0  0  0  0  0  0  0  0  0  0
   39.6150   22.9550   37.2030 C   0  0  0  0  0  2  0  0  0  0  0  0
   39.1180   22.9430   35.7760 C   0  0  0  0  0  2  0  0  0  0  0  0
   36.8830   26.5050   32.0390 C   0  0  0  0  0  0  0  0  0  0  0  0
   37.7490   26.7180   31.3430 H   0  0  0  0  0  0  0  0  0  0  0  0
   36.1080   26.1520   31.3740 H   0  0  0  0  0  0  0  0  0  0  0  0
   35.6350   29.4400   33.6800 C   0  0  0  0  0  0  0  0  0  0  0  0
   35.9010   29.9230   32.4240 C   0  0  0  0  0  0  0  0  0  0  0  0
   36.3950   28.8800   31.6620 C   0  0  0  0  0  0  0  0  0  0  0  0
   36.4090   27.8160   32.4700 N   0  0  0  0  0  0  0  0  0  0  0  0
   35.9510   28.1570   33.6830 N   0  0  0  0  0  0  0  0  0  0  0  0
   35.7340   30.9730   32.1140 H   0  0  0  0  0  0  0  0  0  0  0  0
   36.6400   29.1650   30.6650 H   0  0  0  0  0  0  0  0  0  0  0  0
   35.3320   31.8910   36.5270 C   0  0  0  0  0  0  0  0  0  0  0  0
   35.9270   31.1170   35.5280 C   0  0  0  0  0  0  0  0  0  0  0  0
   35.1430   30.2730   34.7610 C   0  0  0  0  0  0  0  0  0  0  0  0
   33.8160   30.2780   35.0680 N   0  0  0  0  0  0  0  0  0  0  0  0
   33.2640   31.0260   36.0280 C   0  0  0  0  0  0  0  0  0  0  0  0
   34.0260   31.8300   36.7530 N   0  0  0  0  0  0  0  0  0  0  0  0
   36.0400   32.5130   37.0610 H   0  0  0  0  0  0  0  0  0  0  0  0
   36.9860   31.1190   35.2910 H   0  0  0  0  0  0  0  0  0  0  0  0
   32.1880   30.9510   36.1880 H   0  0  0  0  0  0  0  0  0  0  0  0
  1  4  1  0  0  0  0
  1  3  1  0  0  0  0
  2  1  1  0  0  0  0
  4  9  1  0  0  0  0
  5 10  1  0  0  0  0
  5  4  1  0  0  0  0
  6  5  1  0  0  0  0
  6  7  1  0  0  0  0
  7  8  1  0  0  0  0
  8 15  1  0  0  0  0
  8  9  1  0  0  0  0
  9 16  1  1  0  0  0
  9 17  1  0  0  0  0
 11  5  1  0  0  0  0
 12  6  1  0  0  0  0
 13  6  1  0  0  0  0
 14  8  1  0  0  0  0
 17 23  1  0  0  0  0
 17 18  1  0  0  0  0
 18 19  1  0  0  0  0
 19 20  1  0  0  0  0
 20 21  1  0  0  0  0
 22 20  1  0  0  0  0
 23 22  1  0  0  0  0
 24 30  1  0  0  0  0
 24  1  1  0  0  0  0
 25 24  1  0  0  0  0
 26 24  1  0  0  0  0
 27 31  2  0  0  0  0
 27 36  1  0  0  0  0
 28 27  1  0  0  0  0
 29 28  2  0  0  0  0
 29 30  1  0  0  0  0
 30 31  1  0  0  0  0
 32 28  1  0  0  0  0
 33 29  1  0  0  0  0
 34 39  1  0  0  0  0
 34 40  1  0  0  0  0
 35 34  2  0  0  0  0
 36 37  2  0  0  0  0
 36 35  1  0  0  0  0
 37 38  1  0  0  0  0
 38 42  1  0  0  0  0
 38 39  2  0  0  0  0
 41 35  1  0  0  0  0
M  END
>  <minimizedAffinity>
-5.2159462

$$$$

 OpenBabel03272508383D

 42 45  0  0  1  0  0  0  0  0999 V2000
   37.6860   23.3060   36.5260 C   0  0  0  0  0  0  0  0  0  0  0  0
   36.7470   23.4860   35.9800 H   0  0  0  0  0  0  0  0  0  0  0  0
   37.3260   22.7170   37.4370 H   0  0  0  0  0  0  0  0  0  0  0  0
   38.5250   22.4370   35.8300 N   0  0  0  0  0  0  0  0  0  0  0  0
   39.8000   22.1900   36.4060 C   0  0  0  0  0  0  0  0  0  0  0  0
   40.9740   22.6030   35.6210 C   0  0  0  0  0  0  0  0  0  0  0  0
   40.8290   22.2480   34.2520 O   0  0  0  0  0  0  0  0  0  0  0  0
   39.7190   22.9440   33.7850 C   0  0  0  0  0  0  0  0  0  0  0  0
   38.5210   22.3390   34.4410 C   0  0  2  0  0  0  0  0  0  0  0  0
   39.8050   21.0450   36.2920 H   0  0  0  0  0  0  0  0  0  0  0  0
   39.9300   22.2520   37.4670 H   0  0  0  0  0  0  0  0  0  0  0  0
   41.8020   21.8330   35.9230 H   0  0  0  0  0  0  0  0  0  0  0  0
   41.4910   23.5000   35.6830 H   0  0  0  0  0  0  0  0  0  0  0  0
   39.8290   24.0140   33.8170 H   0  0  0  0  0  0  0  0  0  0  0  0
   39.6770   22.6830   32.6860 H   0  0  0  0  0  0  0  0  0  0  0  0
   38.7270   21.2120   34.2730 H   0  0  0  0  0  0  0  0  0  0  0  0
   37.2740   22.4830   33.7480 N   0  0  0  0  0  0  0  0  0  0  0  0
   36.7170   21.1860   33.3660 C   0  0  0  0  0  2  0  0  0  0  0  0
   35.4260   21.3410   32.6130 C   0  0  0  0  0  2  0  0  0  0  0  0
   35.6720   21.9820   31.2800 C   0  0  0  0  0  3  0  0  0  0  0  0
   34.9300   22.7860   31.1060 H   0  0  0  0  0  0  0  0  0  0  0  0
   37.0430   22.6210   31.3070 C   0  0  0  0  0  2  0  0  0  0  0  0
   37.3330   23.3500   32.5990 C   0  0  0  0  0  2  0  0  0  0  0  0
   38.2130   24.5830   36.9910 C   0  0  0  0  0  0  0  0  0  0  0  0
   37.4920   25.0220   37.7450 H   0  0  0  0  0  0  0  0  0  0  0  0
   39.1740   24.6880   37.4720 H   0  0  0  0  0  0  0  0  0  0  0  0
   37.6750   26.8810   34.2890 C   0  0  0  0  0  0  0  0  0  0  0  0
   39.0300   26.9860   34.4690 C   0  0  0  0  0  0  0  0  0  0  0  0
   39.3910   26.1350   35.4980 C   0  0  0  0  0  0  0  0  0  0  0  0
   38.2580   25.5500   35.8990 N   0  0  0  0  0  0  0  0  0  0  0  0
   37.2270   26.0010   35.1690 N   0  0  0  0  0  0  0  0  0  0  0  0
   39.6870   27.6490   33.8730 H   0  0  0  0  0  0  0  0  0  0  0  0
   40.4340   26.1560   35.7180 H   0  0  0  0  0  0  0  0  0  0  0  0
   35.4320   29.3950   32.5990 C   0  0  0  0  0  0  0  0  0  0  0  0
   36.0600   28.6890   33.6280 C   0  0  0  0  0  0  0  0  0  0  0  0
   36.9420   27.6680   33.3170 C   0  0  0  0  0  0  0  0  0  0  0  0
   37.1170   27.4420   31.9840 N   0  0  0  0  0  0  0  0  0  0  0  0
   36.5070   28.1280   31.0130 C   0  0  0  0  0  0  0  0  0  0  0  0
   35.6670   29.1030   31.3270 N   0  0  0  0  0  0  0  0  0  0  0  0
   34.7670   30.1690   32.9610 H   0  0  0  0  0  0  0  0  0  0  0  0
   35.9140   28.8770   34.6870 H   0  0  0  0  0  0  0  0  0  0  0  0
   36.7210   27.8620   29.9780 H   0  0  0  0  0  0  0  0  0  0  0  0
  1 24  1  0  0  0  0
  1  3  1  0  0  0  0
  2  1  1  0  0  0  0
  4  5  1  0  0  0  0
  4  1  1  0  0  0  0
  5 11  1  0  0  0  0
  6 13  1  0  0  0  0
  6 12  1  0  0  0  0
  6  5  1  0  0  0  0
  7  6  1  0  0  0  0
  8 14  1  0  0  0  0
  8  7  1  0  0  0  0
  8  9  1  0  0  0  0
  9 16  1  6  0  0  0
  9  4  1  0  0  0  0
 10  5  1  0  0  0  0
 15  8  1  0  0  0  0
 17  9  1  0  0  0  0
 18 17  1  0  0  0  0
 19 18  1  0  0  0  0
 20 22  1  0  0  0  0
 20 19  1  0  0  0  0
 21 20  1  0  0  0  0
 22 23  1  0  0  0  0
 23 17  1  0  0  0  0
 24 26  1  0  0  0  0
 24 25  1  0  0  0  0
 27 28  1  0  0  0  0
 27 31  2  0  0  0  0
 28 29  2  0  0  0  0
 29 33  1  0  0  0  0
 29 30  1  0  0  0  0
 30 24  1  0  0  0  0
 31 30  1  0  0  0  0
 32 28  1  0  0  0  0
 34 40  1  0  0  0  0
 34 35  1  0  0  0  0
 35 41  1  0  0  0  0
 36 35  2  0  0  0  0
 36 27  1  0  0  0  0
 37 36  1  0  0  0  0
 38 39  1  0  0  0  0
 38 37  2  0  0  0  0
 39 34  2  0  0  0  0
 42 38  1  0  0  0  0
M  END
>  <minimizedAffinity>
-5.20596933

$$$$

 OpenBabel03272508383D

 42 45  0  0  1  0  0  0  0  0999 V2000
   36.7540   25.0540   31.2050 C   0  0  0  0  0  0  0  0  0  0  0  0
   36.1130   25.0990   32.0990 H   0  0  0  0  0  0  0  0  0  0  0  0
   35.9970   25.1800   30.3580 H   0  0  0  0  0  0  0  0  0  0  0  0
   37.5950   26.1620   31.1200 N   0  0  0  0  0  0  0  0  0  0  0  0
   38.8490   25.9600   30.4840 C   0  0  0  0  0  0  0  0  0  0  0  0
   40.0520   26.1680   31.3060 C   0  0  0  0  0  0  0  0  0  0  0  0
   39.9360   27.3440   32.0980 O   0  0  0  0  0  0  0  0  0  0  0  0
   38.8530   27.1380   32.9450 C   0  0  0  0  0  0  0  0  0  0  0  0
   37.6260   27.1590   32.0930 C   0  0  2  0  0  0  0  0  0  0  0  0
   38.8350   26.8910   29.8080 H   0  0  0  0  0  0  0  0  0  0  0  0
   38.9520   25.2070   29.7290 H   0  0  0  0  0  0  0  0  0  0  0  0
   40.8560   26.5400   30.5430 H   0  0  0  0  0  0  0  0  0  0  0  0
   40.5840   25.4560   31.8390 H   0  0  0  0  0  0  0  0  0  0  0  0
   38.9820   26.3170   33.6290 H   0  0  0  0  0  0  0  0  0  0  0  0
   38.8350   28.0640   33.5930 H   0  0  0  0  0  0  0  0  0  0  0  0
   37.8150   28.1120   31.4630 H   0  0  0  0  0  0  0  0  0  0  0  0
   36.4010   27.5170   32.7470 N   0  0  0  0  0  0  0  0  0  0  0  0
   35.7540   28.6540   32.0940 C   0  0  0  0  0  2  0  0  0  0  0  0
   34.4870   29.0470   32.7990 C   0  0  0  0  0  2  0  0  0  0  0  0
   34.7950   29.5980   34.1590 C   0  0  0  0  0  3  0  0  0  0  0  0
   34.1170   29.1480   34.9110 H   0  0  0  0  0  0  0  0  0  0  0  0
   36.2090   29.2020   34.5220 C   0  0  0  0  0  2  0  0  0  0  0  0
   36.5370   27.7720   34.1580 C   0  0  0  0  0  2  0  0  0  0  0  0
   37.3280   23.7170   31.1050 C   0  0  0  0  0  0  0  0  0  0  0  0
   36.5830   23.0380   30.5920 H   0  0  0  0  0  0  0  0  0  0  0  0
   38.2550   23.5070   30.5910 H   0  0  0  0  0  0  0  0  0  0  0  0
   37.9800   22.8990   34.5370 C   0  0  0  0  0  0  0  0  0  0  0  0
   37.5430   21.6940   34.0480 C   0  0  0  0  0  0  0  0  0  0  0  0
   37.2520   21.8580   32.7070 C   0  0  0  0  0  0  0  0  0  0  0  0
   37.5210   23.1380   32.4310 N   0  0  0  0  0  0  0  0  0  0  0  0
   37.9590   23.7610   33.5350 N   0  0  0  0  0  0  0  0  0  0  0  0
   37.4530   20.7730   34.6570 H   0  0  0  0  0  0  0  0  0  0  0  0
   36.8940   20.9690   32.2400 H   0  0  0  0  0  0  0  0  0  0  0  0
   38.0090   23.9380   38.1600 C   0  0  0  0  0  0  0  0  0  0  0  0
   37.5750   23.8280   36.8360 C   0  0  0  0  0  0  0  0  0  0  0  0
   38.3330   23.1090   35.9270 C   0  0  0  0  0  0  0  0  0  0  0  0
   39.4720   22.5580   36.4330 N   0  0  0  0  0  0  0  0  0  0  0  0
   39.8710   22.6740   37.7030 C   0  0  0  0  0  0  0  0  0  0  0  0
   39.1350   23.3640   38.5600 N   0  0  0  0  0  0  0  0  0  0  0  0
   37.3380   24.5210   38.7790 H   0  0  0  0  0  0  0  0  0  0  0  0
   36.6660   24.2710   36.4430 H   0  0  0  0  0  0  0  0  0  0  0  0
   40.8030   22.1910   37.9990 H   0  0  0  0  0  0  0  0  0  0  0  0
  1  2  1  0  0  0  0
  3  1  1  0  0  0  0
  4  1  1  0  0  0  0
  4  9  1  0  0  0  0
  5  4  1  0  0  0  0
  5  6  1  0  0  0  0
  6 13  1  0  0  0  0
  6  7  1  0  0  0  0
  7  8  1  0  0  0  0
  8 15  1  0  0  0  0
  8 14  1  0  0  0  0
  9 16  1  6  0  0  0
  9 17  1  0  0  0  0
  9  8  1  0  0  0  0
 10  5  1  0  0  0  0
 11  5  1  0  0  0  0
 12  6  1  0  0  0  0
 17 23  1  0  0  0  0
 18 17  1  0  0  0  0
 18 19  1  0  0  0  0
 19 20  1  0  0  0  0
 20 22  1  0  0  0  0
 20 21  1  0  0  0  0
 23 22  1  0  0  0  0
 24  1  1  0  0  0  0
 24 30  1  0  0  0  0
 25 24  1  0  0  0  0
 26 24  1  0  0  0  0
 27 36  1  0  0  0  0
 28 27  1  0  0  0  0
 28 32  1  0  0  0  0
 29 28  2  0  0  0  0
 30 29  1  0  0  0  0
 30 31  1  0  0  0  0
 31 27  2  0  0  0  0
 33 29  1  0  0  0  0
 34 39  1  0  0  0  0
 34 40  1  0  0  0  0
 35 34  2  0  0  0  0
 36 37  2  0  0  0  0
 36 35  1  0  0  0  0
 37 38  1  0  0  0  0
 38 42  1  0  0  0  0
 38 39  2  0  0  0  0
 41 35  1  0  0  0  0
M  END
>  <minimizedAffinity>
-5.1798811

$$$$

 OpenBabel03272508383D

 42 45  0  0  1  0  0  0  0  0999 V2000
   35.3060   30.6790   34.8810 C   0  0  0  0  0  0  0  0  0  0  0  0
   36.2980   31.0110   35.2250 H   0  0  0  0  0  0  0  0  0  0  0  0
   35.1350   29.7390   35.5070 H   0  0  0  0  0  0  0  0  0  0  0  0
   34.3050   31.5700   35.2670 N   0  0  0  0  0  0  0  0  0  0  0  0
   34.7240   32.8830   35.6130 C   0  0  0  0  0  0  0  0  0  0  0  0
   34.4710   33.3170   36.9970 C   0  0  0  0  0  0  0  0  0  0  0  0
   33.1660   32.9450   37.4220 O   0  0  0  0  0  0  0  0  0  0  0  0
   33.1240   31.5560   37.3800 C   0  0  0  0  0  0  0  0  0  0  0  0
   33.1560   31.1640   35.9390 C   0  0  2  0  0  0  0  0  0  0  0  0
   33.9330   33.4640   35.0130 H   0  0  0  0  0  0  0  0  0  0  0  0
   35.6070   33.2980   35.1720 H   0  0  0  0  0  0  0  0  0  0  0  0
   34.3120   34.4720   36.9070 H   0  0  0  0  0  0  0  0  0  0  0  0
   35.1170   33.2570   37.8050 H   0  0  0  0  0  0  0  0  0  0  0  0
   33.8160   31.0770   38.0520 H   0  0  0  0  0  0  0  0  0  0  0  0
   32.0980   31.3030   37.7820 H   0  0  0  0  0  0  0  0  0  0  0  0
   32.3520   31.8740   35.5030 H   0  0  0  0  0  0  0  0  0  0  0  0
   32.5840   29.8900   35.6130 N   0  0  0  0  0  0  0  0  0  0  0  0
   31.6890   29.9810   34.4590 C   0  0  0  0  0  2  0  0  0  0  0  0
   31.0680   28.6510   34.1370 C   0  0  0  0  0  2  0  0  0  0  0  0
   30.1310   28.2340   35.2310 C   0  0  0  0  0  3  0  0  0  0  0  0
   30.3100   27.1740   35.4970 H   0  0  0  0  0  0  0  0  0  0  0  0
   30.4280   29.0710   36.4550 C   0  0  0  0  0  2  0  0  0  0  0  0
   31.9080   29.2460   36.7090 C   0  0  0  0  0  2  0  0  0  0  0  0
   35.4030   30.2820   33.4820 C   0  0  0  0  0  0  0  0  0  0  0  0
   34.3620   30.0780   33.0880 H   0  0  0  0  0  0  0  0  0  0  0  0
   35.8430   30.9070   32.7170 H   0  0  0  0  0  0  0  0  0  0  0  0
   37.0790   27.1280   33.8140 C   0  0  0  0  0  0  0  0  0  0  0  0
   37.1180   27.3150   32.4560 C   0  0  0  0  0  0  0  0  0  0  0  0
   36.5000   28.5180   32.1730 C   0  0  0  0  0  0  0  0  0  0  0  0
   36.1140   29.0140   33.3530 N   0  0  0  0  0  0  0  0  0  0  0  0
   36.4650   28.1750   34.3380 N   0  0  0  0  0  0  0  0  0  0  0  0
   37.5760   26.6000   31.7430 H   0  0  0  0  0  0  0  0  0  0  0  0
   36.4740   28.7460   31.1320 H   0  0  0  0  0  0  0  0  0  0  0  0
   38.3590   24.6330   36.3330 C   0  0  0  0  0  0  0  0  0  0  0  0
   37.8860   25.8420   35.8160 C   0  0  0  0  0  0  0  0  0  0  0  0
   37.5990   25.9410   34.4660 C   0  0  0  0  0  0  0  0  0  0  0  0
   37.8130   24.8050   33.7440 N   0  0  0  0  0  0  0  0  0  0  0  0
   38.2660   23.6570   34.2560 C   0  0  0  0  0  0  0  0  0  0  0  0
   38.5360   23.5780   35.5500 N   0  0  0  0  0  0  0  0  0  0  0  0
   38.5480   24.6730   37.3990 H   0  0  0  0  0  0  0  0  0  0  0  0
   37.7190   26.7420   36.3990 H   0  0  0  0  0  0  0  0  0  0  0  0
   38.4010   22.8080   33.5850 H   0  0  0  0  0  0  0  0  0  0  0  0
  1  2  1  0  0  0  0
  1  4  1  0  0  0  0
  1  3  1  0  0  0  0
  4  5  1  0  0  0  0
  4  9  1  0  0  0  0
  5  6  1  0  0  0  0
  6  7  1  0  0  0  0
  6 13  1  0  0  0  0
  8  7  1  0  0  0  0
  8 15  1  0  0  0  0
  8 14  1  0  0  0  0
  9 16  1  6  0  0  0
  9  8  1  0  0  0  0
 10  5  1  0  0  0  0
 11  5  1  0  0  0  0
 12  6  1  0  0  0  0
 17  9  1  0  0  0  0
 17 23  1  0  0  0  0
 18 17  1  0  0  0  0
 19 18  1  0  0  0  0
 19 20  1  0  0  0  0
 20 21  1  0  0  0  0
 20 22  1  0  0  0  0
 22 23  1  0  0  0  0
 24  1  1  0  0  0  0
 25 24  1  0  0  0  0
 26 24  1  0  0  0  0
 27 31  2  0  0  0  0
 27 36  1  0  0  0  0
 28 27  1  0  0  0  0
 29 28  2  0  0  0  0
 29 30  1  0  0  0  0
 30 24  1  0  0  0  0
 30 31  1  0  0  0  0
 32 28  1  0  0  0  0
 33 29  1  0  0  0  0
 34 40  1  0  0  0  0
 35 34  1  0  0  0  0
 35 41  1  0  0  0  0
 36 35  2  0  0  0  0
 37 38  2  0  0  0  0
 37 36  1  0  0  0  0
 38 39  1  0  0  0  0
 39 34  2  0  0  0  0
 42 38  1  0  0  0  0
M  END
>  <minimizedAffinity>
-5.07290173

$$$$

 OpenBabel03272508383D

 42 45  0  0  1  0  0  0  0  0999 V2000
   37.8440   24.8400   36.2870 C   0  0  0  0  0  0  0  0  0  0  0  0
   36.8990   24.9080   35.7270 H   0  0  0  0  0  0  0  0  0  0  0  0
   37.5510   25.2600   37.3080 H   0  0  0  0  0  0  0  0  0  0  0  0
   38.2050   23.5140   36.5220 N   0  0  0  0  0  0  0  0  0  0  0  0
   38.8660   23.2440   37.7500 C   0  0  0  0  0  0  0  0  0  0  0  0
   40.2380   22.7180   37.6640 C   0  0  0  0  0  0  0  0  0  0  0  0
   40.3400   21.7090   36.6650 O   0  0  0  0  0  0  0  0  0  0  0  0
   40.0260   22.3240   35.4580 C   0  0  0  0  0  0  0  0  0  0  0  0
   38.5670   22.6410   35.4990 C   0  0  2  0  0  0  0  0  0  0  0  0
   38.2560   22.3200   38.0590 H   0  0  0  0  0  0  0  0  0  0  0  0
   38.6810   23.8610   38.6060 H   0  0  0  0  0  0  0  0  0  0  0  0
   40.3440   22.0450   38.6150 H   0  0  0  0  0  0  0  0  0  0  0  0
   41.1240   23.2560   37.6890 H   0  0  0  0  0  0  0  0  0  0  0  0
   40.7080   23.1080   35.1770 H   0  0  0  0  0  0  0  0  0  0  0  0
   40.1790   21.5080   34.6900 H   0  0  0  0  0  0  0  0  0  0  0  0
   38.1360   21.6320   35.8720 H   0  0  0  0  0  0  0  0  0  0  0  0
   37.9040   22.7550   34.2330 N   0  0  0  0  0  0  0  0  0  0  0  0
   37.0560   21.5950   33.9620 C   0  0  0  0  0  2  0  0  0  0  0  0
   36.3850   21.7030   32.6210 C   0  0  0  0  0  2  0  0  0  0  0  0
   37.4010   21.6150   31.5210 C   0  0  0  0  0  3  0  0  0  0  0  0
   37.2150   22.4110   30.7730 H   0  0  0  0  0  0  0  0  0  0  0  0
   38.7690   21.8560   32.1180 C   0  0  0  0  0  2  0  0  0  0  0  0
   38.7890   22.9870   33.1210 C   0  0  0  0  0  2  0  0  0  0  0  0
   38.8150   25.7450   35.6850 C   0  0  0  0  0  0  0  0  0  0  0  0
   39.1220   26.5150   36.4550 H   0  0  0  0  0  0  0  0  0  0  0  0
   39.7570   25.4140   35.2720 H   0  0  0  0  0  0  0  0  0  0  0  0
   37.8360   27.4380   32.6780 C   0  0  0  0  0  0  0  0  0  0  0  0
   36.7800   27.7200   33.5050 C   0  0  0  0  0  0  0  0  0  0  0  0
   37.0240   27.1240   34.7280 C   0  0  0  0  0  0  0  0  0  0  0  0
   38.2050   26.5100   34.6030 N   0  0  0  0  0  0  0  0  0  0  0  0
   38.6910   26.7020   33.3680 N   0  0  0  0  0  0  0  0  0  0  0  0
   35.9020   28.3250   33.2060 H   0  0  0  0  0  0  0  0  0  0  0  0
   36.2460   27.2830   35.4390 H   0  0  0  0  0  0  0  0  0  0  0  0
   37.2340   29.1630   29.3810 C   0  0  0  0  0  0  0  0  0  0  0  0
   37.0590   28.8100   30.7210 C   0  0  0  0  0  0  0  0  0  0  0  0
   37.8970   27.8690   31.2940 C   0  0  0  0  0  0  0  0  0  0  0  0
   38.8480   27.3580   30.4620 N   0  0  0  0  0  0  0  0  0  0  0  0
   39.0000   27.7080   29.1820 C   0  0  0  0  0  0  0  0  0  0  0  0
   38.1910   28.6100   28.6480 N   0  0  0  0  0  0  0  0  0  0  0  0
   36.5240   29.9060   29.0420 H   0  0  0  0  0  0  0  0  0  0  0  0
   36.2980   29.2220   31.3760 H   0  0  0  0  0  0  0  0  0  0  0  0
   39.7970   27.2340   28.6070 H   0  0  0  0  0  0  0  0  0  0  0  0
  1  4  1  0  0  0  0
  1  3  1  0  0  0  0
  2  1  1  0  0  0  0
  4  5  1  0  0  0  0
  5 10  1  0  0  0  0
  5 11  1  0  0  0  0
  6 13  1  0  0  0  0
  6  5  1  0  0  0  0
  6 12  1  0  0  0  0
  7  6  1  0  0  0  0
  8  9  1  0  0  0  0
  8  7  1  0  0  0  0
  9 16  1  1  0  0  0
  9  4  1  0  0  0  0
 14  8  1  0  0  0  0
 15  8  1  0  0  0  0
 17  9  1  0  0  0  0
 18 17  1  0  0  0  0
 19 18  1  0  0  0  0
 20 22  1  0  0  0  0
 20 19  1  0  0  0  0
 21 20  1  0  0  0  0
 22 23  1  0  0  0  0
 23 17  1  0  0  0  0
 24  1  1  0  0  0  0
 24 25  1  0  0  0  0
 26 24  1  0  0  0  0
 27 31  2  0  0  0  0
 27 28  1  0  0  0  0
 28 29  2  0  0  0  0
 29 33  1  0  0  0  0
 30 29  1  0  0  0  0
 30 24  1  0  0  0  0
 31 30  1  0  0  0  0
 32 28  1  0  0  0  0
 34 35  1  0  0  0  0
 35 36  2  0  0  0  0
 35 41  1  0  0  0  0
 36 27  1  0  0  0  0
 37 36  1  0  0  0  0
 38 37  2  0  0  0  0
 39 38  1  0  0  0  0
 39 34  2  0  0  0  0
 40 34  1  0  0  0  0
 42 38  1  0  0  0  0
M  END
>  <minimizedAffinity>
-5.06605244

$$$$

 OpenBabel03272508383D

 42 45  0  0  1  0  0  0  0  0999 V2000
   35.4810   28.3140   32.5200 C   0  0  0  0  0  0  0  0  0  0  0  0
   34.7870   27.4950   32.7620 H   0  0  0  0  0  0  0  0  0  0  0  0
   36.0210   27.9090   31.5980 H   0  0  0  0  0  0  0  0  0  0  0  0
   34.8010   29.4500   32.0840 N   0  0  0  0  0  0  0  0  0  0  0  0
   35.4740   30.2670   31.1360 C   0  0  0  0  0  0  0  0  0  0  0  0
   35.7850   31.6450   31.5490 C   0  0  0  0  0  0  0  0  0  0  0  0
   34.6800   32.2430   32.2160 O   0  0  0  0  0  0  0  0  0  0  0  0
   34.4550   31.4810   33.3570 C   0  0  0  0  0  0  0  0  0  0  0  0
   33.9240   30.1620   32.8990 C   0  0  2  0  0  0  0  0  0  0  0  0
   34.6000   30.4100   30.4020 H   0  0  0  0  0  0  0  0  0  0  0  0
   36.1870   29.8330   30.4640 H   0  0  0  0  0  0  0  0  0  0  0  0
   35.7490   32.2550   30.5520 H   0  0  0  0  0  0  0  0  0  0  0  0
   36.6630   31.9940   31.9750 H   0  0  0  0  0  0  0  0  0  0  0  0
   35.2750   31.4840   34.0540 H   0  0  0  0  0  0  0  0  0  0  0  0
   33.6150   32.0230   33.8850 H   0  0  0  0  0  0  0  0  0  0  0  0
   33.1120   30.5030   32.1470 H   0  0  0  0  0  0  0  0  0  0  0  0
   33.1210   29.4360   33.8390 N   0  0  0  0  0  0  0  0  0  0  0  0
   31.7950   29.1380   33.2980 C   0  0  0  0  0  2  0  0  0  0  0  0
   30.9450   28.4040   34.2970 C   0  0  0  0  0  2  0  0  0  0  0  0
   30.6180   29.2940   35.4580 C   0  0  0  0  0  3  0  0  0  0  0  0
   30.7780   28.7480   36.4080 H   0  0  0  0  0  0  0  0  0  0  0  0
   31.5700   30.4690   35.4380 C   0  0  0  0  0  2  0  0  0  0  0  0
   32.9950   30.0730   35.1240 C   0  0  0  0  0  2  0  0  0  0  0  0
   36.4540   28.4400   33.5980 C   0  0  0  0  0  0  0  0  0  0  0  0
   37.3220   29.0670   33.2340 H   0  0  0  0  0  0  0  0  0  0  0  0
   36.2200   28.8690   34.5620 H   0  0  0  0  0  0  0  0  0  0  0  0
   37.9050   25.4770   35.0090 C   0  0  0  0  0  0  0  0  0  0  0  0
   37.7500   25.1060   33.6980 C   0  0  0  0  0  0  0  0  0  0  0  0
   37.1930   26.1720   33.0160 C   0  0  0  0  0  0  0  0  0  0  0  0
   37.0340   27.1410   33.9240 N   0  0  0  0  0  0  0  0  0  0  0  0
   37.4640   26.7190   35.1220 N   0  0  0  0  0  0  0  0  0  0  0  0
   38.0340   24.1140   33.2960 H   0  0  0  0  0  0  0  0  0  0  0  0
   37.0260   25.9720   31.9830 H   0  0  0  0  0  0  0  0  0  0  0  0
   39.9370   22.9560   36.9390 C   0  0  0  0  0  0  0  0  0  0  0  0
   39.5160   23.7520   35.8700 C   0  0  0  0  0  0  0  0  0  0  0  0
   38.4230   24.5860   36.0290 C   0  0  0  0  0  0  0  0  0  0  0  0
   37.8410   24.5490   37.2610 N   0  0  0  0  0  0  0  0  0  0  0  0
   38.2580   23.7810   38.2720 C   0  0  0  0  0  0  0  0  0  0  0  0
   39.3050   22.9880   38.1050 N   0  0  0  0  0  0  0  0  0  0  0  0
   40.7990   22.3460   36.7000 H   0  0  0  0  0  0  0  0  0  0  0  0
   39.9860   23.7740   34.8920 H   0  0  0  0  0  0  0  0  0  0  0  0
   37.7160   23.8310   39.2170 H   0  0  0  0  0  0  0  0  0  0  0  0
  1  2  1  0  0  0  0
  1 24  1  0  0  0  0
  3  1  1  0  0  0  0
  4  1  1  0  0  0  0
  4  9  1  0  0  0  0
  5  6  1  0  0  0  0
  5  4  1  0  0  0  0
  6 13  1  0  0  0  0
  6  7  1  0  0  0  0
  7  8  1  0  0  0  0
  8 15  1  0  0  0  0
  8 14  1  0  0  0  0
  9 16  1  6  0  0  0
  9  8  1  0  0  0  0
  9 17  1  0  0  0  0
 10  5  1  0  0  0  0
 11  5  1  0  0  0  0
 12  6  1  0  0  0  0
 17 23  1  0  0  0  0
 18 17  1  0  0  0  0
 18 19  1  0  0  0  0
 19 20  1  0  0  0  0
 20 21  1  0  0  0  0
 22 20  1  0  0  0  0
 23 22  1  0  0  0  0
 24 30  1  0  0  0  0
 24 26  1  0  0  0  0
 25 24  1  0  0  0  0
 27 31  2  0  0  0  0
 27 36  1  0  0  0  0
 28 27  1  0  0  0  0
 29 28  2  0  0  0  0
 29 30  1  0  0  0  0
 30 31  1  0  0  0  0
 32 28  1  0  0  0  0
 33 29  1  0  0  0  0
 34 39  1  0  0  0  0
 35 36  1  0  0  0  0
 35 34  2  0  0  0  0
 36 37  2  0  0  0  0
 37 38  1  0  0  0  0
 38 42  1  0  0  0  0
 39 38  2  0  0  0  0
 40 34  1  0  0  0  0
 41 35  1  0  0  0  0
M  END
>  <minimizedAffinity>
-5.06556797

$$$$
