
 OpenBabel03272508343D

 29 31  0  0  0  0  0  0  0  0999 V2000
   37.6180   31.0080   47.9750 C   0  0  0  0  0  0  0  0  0  0  0  0
   36.9570   30.7490   46.8080 C   0  0  0  0  0  0  0  0  0  0  0  0
   37.6010   31.3790   45.7660 C   0  0  0  0  0  0  0  0  0  0  0  0
   38.6480   32.0120   46.3350 N   0  0  0  0  0  0  0  0  0  0  0  0
   38.6660   31.7950   47.6520 N   0  0  0  0  0  0  0  0  0  0  0  0
   36.0500   30.1430   46.6530 H   0  0  0  0  0  0  0  0  0  0  0  0
   37.3090   31.3530   44.7410 H   0  0  0  0  0  0  0  0  0  0  0  0
   37.3900   30.1160   51.6190 C   0  0  0  0  0  0  0  0  0  0  0  0
   37.9060   30.6640   50.4520 C   0  0  0  0  0  0  0  0  0  0  0  0
   37.1890   30.4910   49.2530 C   0  0  0  0  0  0  0  0  0  0  0  0
   36.0340   29.7890   49.3530 N   0  0  0  0  0  0  0  0  0  0  0  0
   35.5560   29.2690   50.5020 C   0  0  0  0  0  0  0  0  0  0  0  0
   36.2490   29.4400   51.6400 N   0  0  0  0  0  0  0  0  0  0  0  0
   38.0330   30.3160   52.4860 H   0  0  0  0  0  0  0  0  0  0  0  0
   38.8360   31.2310   50.3570 H   0  0  0  0  0  0  0  0  0  0  0  0
   34.6250   28.7320   50.4440 H   0  0  0  0  0  0  0  0  0  0  0  0
   39.6210   32.8220   45.5970 C   0  0  0  0  0  0  0  0  0  0  0  0
   40.1610   33.3700   46.4290 H   0  0  0  0  0  0  0  0  0  0  0  0
   39.0970   33.4870   44.9010 H   0  0  0  0  0  0  0  0  0  0  0  0
   40.6310   31.9210   44.9480 C   0  0  0  0  0  0  0  0  0  0  0  0
   41.6370   32.3050   45.1260 H   0  0  0  0  0  0  0  0  0  0  0  0
   40.5580   30.9340   45.4640 H   0  0  0  0  0  0  0  0  0  0  0  0
   40.4160   31.7230   43.5540 N   0  0  0  0  0  0  0  0  0  0  0  0
   40.3580   30.4130   43.0620 C   0  0  0  0  0  0  0  0  0  0  0  0
   39.0180   29.9200   42.6600 C   0  0  0  0  0  0  0  0  0  0  0  0
   38.3680   30.9180   41.7370 C   0  0  0  0  0  0  0  0  0  0  0  0
   38.9330   31.0190   40.7860 H   0  0  0  0  0  0  0  0  0  0  0  0
   38.2630   32.2260   42.5040 C   0  0  0  0  0  0  0  0  0  0  0  0
   39.6330   32.7270   42.9080 C   0  0  0  0  0  0  0  0  0  0  0  0
  1 10  1  0  0  0  0
  2  1  1  0  0  0  0
  3  4  1  0  0  0  0
  3  2  2  0  0  0  0
  4  5  1  0  0  0  0
  5  1  2  0  0  0  0
  6  2  1  0  0  0  0
  7  3  1  0  0  0  0
  8 13  1  0  0  0  0
  8 14  1  0  0  0  0
  9  8  2  0  0  0  0
 10 11  2  0  0  0  0
 10  9  1  0  0  0  0
 11 12  1  0  0  0  0
 12 13  2  0  0  0  0
 15  9  1  0  0  0  0
 16 12  1  0  0  0  0
 17  4  1  0  0  0  0
 17 18  1  0  0  0  0
 19 17  1  0  0  0  0
 20 21  1  0  0  0  0
 20 22  1  0  0  0  0
 20 17  1  0  0  0  0
 23 20  1  0  0  0  0
 24 23  1  0  0  0  0
 25 24  1  0  0  0  0
 26 28  1  0  0  0  0
 26 25  1  0  0  0  0
 27 26  1  0  0  0  0
 28 29  1  0  0  0  0
 29 23  1  0  0  0  0
M  END
>  <minimizedAffinity>
-5.16943884

>  <minimizedRMSD>
2.88286519

$$$$
