
 OpenBabel03272508353D

 29 31  0  0  0  0  0  0  0  0999 V2000
   36.1740   23.4050   31.2060 C   0  0  0  0  0  0  0  0  0  0  0  0
   35.1560   24.3150   31.2010 C   0  0  0  0  0  0  0  0  0  0  0  0
   35.6750   25.5830   31.0570 C   0  0  0  0  0  0  0  0  0  0  0  0
   37.0110   25.4060   30.9780 N   0  0  0  0  0  0  0  0  0  0  0  0
   37.3170   24.1100   31.0650 N   0  0  0  0  0  0  0  0  0  0  0  0
   34.0740   24.1350   31.2920 H   0  0  0  0  0  0  0  0  0  0  0  0
   35.1160   26.4900   31.0200 H   0  0  0  0  0  0  0  0  0  0  0  0
   34.8860   20.0300   32.2460 C   0  0  0  0  0  0  0  0  0  0  0  0
   34.9960   21.4140   32.1990 C   0  0  0  0  0  0  0  0  0  0  0  0
   35.9580   21.9840   31.3450 C   0  0  0  0  0  0  0  0  0  0  0  0
   36.7050   21.1070   30.6300 N   0  0  0  0  0  0  0  0  0  0  0  0
   36.5740   19.7660   30.6950 C   0  0  0  0  0  0  0  0  0  0  0  0
   35.6530   19.2330   31.5150 N   0  0  0  0  0  0  0  0  0  0  0  0
   34.1030   19.7040   32.9440 H   0  0  0  0  0  0  0  0  0  0  0  0
   34.4010   22.1330   32.7710 H   0  0  0  0  0  0  0  0  0  0  0  0
   37.2310   19.1820   30.0740 H   0  0  0  0  0  0  0  0  0  0  0  0
   37.9790   26.4960   30.8200 C   0  0  0  0  0  0  0  0  0  0  0  0
   37.5280   27.0990   29.9730 H   0  0  0  0  0  0  0  0  0  0  0  0
   38.9660   26.0820   30.5860 H   0  0  0  0  0  0  0  0  0  0  0  0
   37.9470   27.3720   32.0380 C   0  0  0  0  0  0  0  0  0  0  0  0
   38.7370   28.1230   31.9730 H   0  0  0  0  0  0  0  0  0  0  0  0
   36.9730   27.9160   32.0150 H   0  0  0  0  0  0  0  0  0  0  0  0
   38.0430   26.6570   33.2650 N   0  0  0  0  0  0  0  0  0  0  0  0
   39.3040   26.2200   33.6920 C   0  0  0  0  0  2  0  0  0  0  0  0
   39.9000   26.9470   34.8390 C   0  0  0  0  0  2  0  0  0  0  0  0
   38.8980   27.0250   35.9630 C   0  0  0  0  0  3  0  0  0  0  0  0
   38.6550   26.0160   36.3590 H   0  0  0  0  0  0  0  0  0  0  0  0
   37.6820   27.7580   35.4220 C   0  0  0  0  0  2  0  0  0  0  0  0
   37.0760   27.0090   34.2540 C   0  0  0  0  0  2  0  0  0  0  0  0
  1 10  1  0  0  0  0
  2  1  1  0  0  0  0
  2  6  1  0  0  0  0
  3  2  2  0  0  0  0
  4  3  1  0  0  0  0
  4  5  1  0  0  0  0
  5  1  2  0  0  0  0
  7  3  1  0  0  0  0
  8 14  1  0  0  0  0
  9  8  1  0  0  0  0
  9 15  1  0  0  0  0
 10  9  2  0  0  0  0
 11 12  2  0  0  0  0
 11 10  1  0  0  0  0
 12 13  1  0  0  0  0
 13  8  2  0  0  0  0
 16 12  1  0  0  0  0
 17  4  1  0  0  0  0
 17 20  1  0  0  0  0
 18 17  1  0  0  0  0
 19 17  1  0  0  0  0
 20 23  1  0  0  0  0
 21 20  1  0  0  0  0
 22 20  1  0  0  0  0
 23 24  1  0  0  0  0
 23 29  1  0  0  0  0
 24 25  1  0  0  0  0
 25 26  1  0  0  0  0
 26 27  1  0  0  0  0
 28 26  1  0  0  0  0
 29 28  1  0  0  0  0
M  END
>  <minimizedAffinity>
-4.94086313

$$$$

 OpenBabel03272508353D

 29 31  0  0  0  0  0  0  0  0999 V2000
   38.1270   23.9780   34.5690 C   0  0  0  0  0  0  0  0  0  0  0  0
   38.1850   25.2150   33.9960 C   0  0  0  0  0  0  0  0  0  0  0  0
   37.7700   25.1340   32.6840 C   0  0  0  0  0  0  0  0  0  0  0  0
   37.4680   23.8320   32.4950 N   0  0  0  0  0  0  0  0  0  0  0  0
   37.6770   23.1350   33.6140 N   0  0  0  0  0  0  0  0  0  0  0  0
   38.5030   26.1680   34.4490 H   0  0  0  0  0  0  0  0  0  0  0  0
   37.7120   25.9430   31.9940 H   0  0  0  0  0  0  0  0  0  0  0  0
   39.8810   22.8030   37.6790 C   0  0  0  0  0  0  0  0  0  0  0  0
   39.6270   22.9750   36.3240 C   0  0  0  0  0  0  0  0  0  0  0  0
   38.5020   23.7280   35.9410 C   0  0  0  0  0  0  0  0  0  0  0  0
   37.7540   24.2280   36.9550 N   0  0  0  0  0  0  0  0  0  0  0  0
   38.0260   24.0460   38.2630 C   0  0  0  0  0  0  0  0  0  0  0  0
   39.1030   23.3240   38.6180 N   0  0  0  0  0  0  0  0  0  0  0  0
   40.7830   22.2010   37.8550 H   0  0  0  0  0  0  0  0  0  0  0  0
   40.2210   22.5770   35.4970 H   0  0  0  0  0  0  0  0  0  0  0  0
   37.3500   24.4970   38.9690 H   0  0  0  0  0  0  0  0  0  0  0  0
   36.9790   23.2750   31.2300 C   0  0  0  0  0  0  0  0  0  0  0  0
   37.6090   23.8250   30.4650 H   0  0  0  0  0  0  0  0  0  0  0  0
   35.9040   23.4660   31.1320 H   0  0  0  0  0  0  0  0  0  0  0  0
   37.3610   21.8260   31.1420 C   0  0  0  0  0  0  0  0  0  0  0  0
   38.0060   21.6670   30.2770 H   0  0  0  0  0  0  0  0  0  0  0  0
   37.9660   21.5990   32.0520 H   0  0  0  0  0  0  0  0  0  0  0  0
   36.2480   20.9390   31.1010 N   0  0  0  0  0  0  0  0  0  0  0  0
   36.4310   19.6570   30.5650 C   0  0  0  0  0  2  0  0  0  0  0  0
   36.4410   18.5340   31.5330 C   0  0  0  0  0  2  0  0  0  0  0  0
   35.2310   18.6250   32.4260 C   0  0  0  0  0  3  0  0  0  0  0  0
   34.2910   18.4960   31.8490 H   0  0  0  0  0  0  0  0  0  0  0  0
   35.3090   19.9640   33.1400 C   0  0  0  0  0  2  0  0  0  0  0  0
   35.2930   21.1070   32.1480 C   0  0  0  0  0  2  0  0  0  0  0  0
  1 10  1  0  0  0  0
  2  6  1  0  0  0  0
  2  1  1  0  0  0  0
  3  2  2  0  0  0  0
  4  3  1  0  0  0  0
  4  5  1  0  0  0  0
  5  1  2  0  0  0  0
  7  3  1  0  0  0  0
  8 14  1  0  0  0  0
  8 13  1  0  0  0  0
  9  8  2  0  0  0  0
 10  9  1  0  0  0  0
 10 11  2  0  0  0  0
 11 12  1  0  0  0  0
 12 13  2  0  0  0  0
 12 16  1  0  0  0  0
 15  9  1  0  0  0  0
 17  4  1  0  0  0  0
 18 17  1  0  0  0  0
 19 17  1  0  0  0  0
 20 17  1  0  0  0  0
 20 22  1  0  0  0  0
 21 20  1  0  0  0  0
 23 20  1  0  0  0  0
 23 29  1  0  0  0  0
 24 23  1  0  0  0  0
 24 25  1  0  0  0  0
 25 26  1  0  0  0  0
 26 28  1  0  0  0  0
 27 26  1  0  0  0  0
 29 28  1  0  0  0  0
M  END
>  <minimizedAffinity>
-4.82453299

$$$$

 OpenBabel03272508353D

 29 31  0  0  0  0  0  0  0  0999 V2000
   38.0350   25.4200   35.3650 C   0  0  0  0  0  0  0  0  0  0  0  0
   37.7680   26.7240   35.6690 C   0  0  0  0  0  0  0  0  0  0  0  0
   37.2070   27.3450   34.5740 C   0  0  0  0  0  0  0  0  0  0  0  0
   37.1480   26.3880   33.6240 N   0  0  0  0  0  0  0  0  0  0  0  0
   37.6400   25.2370   34.0870 N   0  0  0  0  0  0  0  0  0  0  0  0
   37.9460   27.2590   36.6150 H   0  0  0  0  0  0  0  0  0  0  0  0
   36.8960   28.3630   34.5210 H   0  0  0  0  0  0  0  0  0  0  0  0
   38.7960   23.3510   38.4100 C   0  0  0  0  0  0  0  0  0  0  0  0
   38.1300   24.2590   37.5970 C   0  0  0  0  0  0  0  0  0  0  0  0
   38.6320   24.5010   36.3050 C   0  0  0  0  0  0  0  0  0  0  0  0
   39.7460   23.8060   35.9660 N   0  0  0  0  0  0  0  0  0  0  0  0
   40.3720   22.9280   36.7770 C   0  0  0  0  0  0  0  0  0  0  0  0
   39.8830   22.7060   38.0090 N   0  0  0  0  0  0  0  0  0  0  0  0
   38.3120   23.2450   39.3900 H   0  0  0  0  0  0  0  0  0  0  0  0
   37.2320   24.8260   37.8570 H   0  0  0  0  0  0  0  0  0  0  0  0
   41.2490   22.4430   36.3850 H   0  0  0  0  0  0  0  0  0  0  0  0
   36.6170   26.5990   32.2740 C   0  0  0  0  0  0  0  0  0  0  0  0
   36.6710   27.7260   32.1660 H   0  0  0  0  0  0  0  0  0  0  0  0
   35.5970   26.2010   32.2110 H   0  0  0  0  0  0  0  0  0  0  0  0
   37.5680   26.0220   31.2670 C   0  0  0  0  0  0  0  0  0  0  0  0
   37.8270   26.7810   30.5260 H   0  0  0  0  0  0  0  0  0  0  0  0
   38.5040   25.7700   31.8200 H   0  0  0  0  0  0  0  0  0  0  0  0
   37.0860   24.8470   30.6240 N   0  0  0  0  0  0  0  0  0  0  0  0
   37.9910   23.8140   30.3450 C   0  0  0  0  0  2  0  0  0  0  0  0
   37.8810   22.5970   31.1850 C   0  0  0  0  0  2  0  0  0  0  0  0
   36.4490   22.1270   31.2080 C   0  0  0  0  0  3  0  0  0  0  0  0
   36.1100   21.8100   30.1980 H   0  0  0  0  0  0  0  0  0  0  0  0
   35.6190   23.2640   31.7800 C   0  0  0  0  0  2  0  0  0  0  0  0
   35.7320   24.5020   30.9170 C   0  0  0  0  0  2  0  0  0  0  0  0
  1  2  1  0  0  0  0
  1 10  1  0  0  0  0
  2  6  1  0  0  0  0
  3  2  2  0  0  0  0
  4  5  1  0  0  0  0
  4  3  1  0  0  0  0
  5  1  2  0  0  0  0
  7  3  1  0  0  0  0
  8 14  1  0  0  0  0
  9 15  1  0  0  0  0
  9  8  2  0  0  0  0
 10  9  1  0  0  0  0
 11 10  2  0  0  0  0
 11 12  1  0  0  0  0
 12 13  2  0  0  0  0
 13  8  1  0  0  0  0
 16 12  1  0  0  0  0
 17  4  1  0  0  0  0
 18 17  1  0  0  0  0
 19 17  1  0  0  0  0
 20 22  1  0  0  0  0
 20 17  1  0  0  0  0
 21 20  1  0  0  0  0
 23 29  1  0  0  0  0
 23 20  1  0  0  0  0
 24 23  1  0  0  0  0
 24 25  1  0  0  0  0
 25 26  1  0  0  0  0
 26 28  1  0  0  0  0
 27 26  1  0  0  0  0
 29 28  1  0  0  0  0
M  END
>  <minimizedAffinity>
-4.78246355

$$$$

 OpenBabel03272508353D

 29 31  0  0  0  0  0  0  0  0999 V2000
   36.0540   28.9170   34.2400 C   0  0  0  0  0  0  0  0  0  0  0  0
   35.9350   28.4980   32.9460 C   0  0  0  0  0  0  0  0  0  0  0  0
   36.6270   27.3190   32.7800 C   0  0  0  0  0  0  0  0  0  0  0  0
   37.1540   27.0500   33.9940 N   0  0  0  0  0  0  0  0  0  0  0  0
   36.8170   27.9980   34.8700 N   0  0  0  0  0  0  0  0  0  0  0  0
   35.3900   28.9770   32.1170 H   0  0  0  0  0  0  0  0  0  0  0  0
   36.7090   26.7610   31.8750 H   0  0  0  0  0  0  0  0  0  0  0  0
   35.3730   32.1480   36.0360 C   0  0  0  0  0  0  0  0  0  0  0  0
   36.0670   31.0150   35.6320 C   0  0  0  0  0  0  0  0  0  0  0  0
   35.4430   30.1290   34.7340 C   0  0  0  0  0  0  0  0  0  0  0  0
   34.1940   30.4740   34.3370 N   0  0  0  0  0  0  0  0  0  0  0  0
   33.5450   31.5840   34.7450 C   0  0  0  0  0  0  0  0  0  0  0  0
   34.1500   32.4220   35.6040 N   0  0  0  0  0  0  0  0  0  0  0  0
   35.9590   32.7610   36.7340 H   0  0  0  0  0  0  0  0  0  0  0  0
   37.0730   30.7230   35.9460 H   0  0  0  0  0  0  0  0  0  0  0  0
   32.5550   31.7410   34.3540 H   0  0  0  0  0  0  0  0  0  0  0  0
   37.9810   25.8770   34.2910 C   0  0  0  0  0  0  0  0  0  0  0  0
   39.0320   26.2940   34.2080 H   0  0  0  0  0  0  0  0  0  0  0  0
   37.7670   25.0810   33.5690 H   0  0  0  0  0  0  0  0  0  0  0  0
   37.7870   25.4800   35.7260 C   0  0  0  0  0  0  0  0  0  0  0  0
   38.3600   26.1450   36.3730 H   0  0  0  0  0  0  0  0  0  0  0  0
   36.7080   25.6420   35.9590 H   0  0  0  0  0  0  0  0  0  0  0  0
   38.1130   24.1210   35.9970 N   0  0  0  0  0  0  0  0  0  0  0  0
   39.2520   23.5700   35.3940 C   0  0  0  0  0  2  0  0  0  0  0  0
   40.4160   23.3310   36.2810 C   0  0  0  0  0  2  0  0  0  0  0  0
   39.9740   22.5650   37.5010 C   0  0  0  0  0  3  0  0  0  0  0  0
   39.6070   21.5520   37.2320 H   0  0  0  0  0  0  0  0  0  0  0  0
   38.9210   23.4110   38.1960 C   0  0  0  0  0  2  0  0  0  0  0  0
   37.7330   23.6480   37.2890 C   0  0  0  0  0  2  0  0  0  0  0  0
  1 10  1  0  0  0  0
  1  5  2  0  0  0  0
  2  1  1  0  0  0  0
  3  2  2  0  0  0  0
  3  4  1  0  0  0  0
  4 17  1  0  0  0  0
  4  5  1  0  0  0  0
  6  2  1  0  0  0  0
  7  3  1  0  0  0  0
  8 14  1  0  0  0  0
  9 15  1  0  0  0  0
  9  8  1  0  0  0  0
 10  9  2  0  0  0  0
 11 10  1  0  0  0  0
 11 12  2  0  0  0  0
 12 13  1  0  0  0  0
 13  8  2  0  0  0  0
 16 12  1  0  0  0  0
 17 20  1  0  0  0  0
 18 17  1  0  0  0  0
 19 17  1  0  0  0  0
 20 22  1  0  0  0  0
 20 23  1  0  0  0  0
 20 21  1  0  0  0  0
 23 29  1  0  0  0  0
 24 23  1  0  0  0  0
 24 25  1  0  0  0  0
 25 26  1  0  0  0  0
 26 28  1  0  0  0  0
 27 26  1  0  0  0  0
 29 28  1  0  0  0  0
M  END
>  <minimizedAffinity>
-4.75630713

$$$$

 OpenBabel03272508353D

 29 31  0  0  0  0  0  0  0  0999 V2000
   37.2130   27.4560   34.1670 C   0  0  0  0  0  0  0  0  0  0  0  0
   37.8150   27.6670   35.3740 C   0  0  0  0  0  0  0  0  0  0  0  0
   38.6280   26.5960   35.6750 C   0  0  0  0  0  0  0  0  0  0  0  0
   38.4960   25.7540   34.6290 N   0  0  0  0  0  0  0  0  0  0  0  0
   37.6540   26.2590   33.7250 N   0  0  0  0  0  0  0  0  0  0  0  0
   37.7120   28.5310   36.0510 H   0  0  0  0  0  0  0  0  0  0  0  0
   39.2210   26.4870   36.5540 H   0  0  0  0  0  0  0  0  0  0  0  0
   35.3680   29.6730   31.7560 C   0  0  0  0  0  0  0  0  0  0  0  0
   36.3040   28.7530   32.2100 C   0  0  0  0  0  0  0  0  0  0  0  0
   36.2940   28.3970   33.5710 C   0  0  0  0  0  0  0  0  0  0  0  0
   35.3480   29.0010   34.3310 N   0  0  0  0  0  0  0  0  0  0  0  0
   34.4490   29.8920   33.8620 C   0  0  0  0  0  0  0  0  0  0  0  0
   34.4690   30.2240   32.5600 N   0  0  0  0  0  0  0  0  0  0  0  0
   35.4730   29.8690   30.6810 H   0  0  0  0  0  0  0  0  0  0  0  0
   37.0730   28.2590   31.6090 H   0  0  0  0  0  0  0  0  0  0  0  0
   33.7500   30.2990   34.5720 H   0  0  0  0  0  0  0  0  0  0  0  0
   39.1860   24.4660   34.5170 C   0  0  0  0  0  0  0  0  0  0  0  0
   39.8400   24.4600   35.4420 H   0  0  0  0  0  0  0  0  0  0  0  0
   39.7520   24.4300   33.5790 H   0  0  0  0  0  0  0  0  0  0  0  0
   38.1940   23.3520   34.6820 C   0  0  0  0  0  0  0  0  0  0  0  0
   37.1860   23.7260   34.5020 H   0  0  0  0  0  0  0  0  0  0  0  0
   38.4170   22.6040   33.8840 H   0  0  0  0  0  0  0  0  0  0  0  0
   38.2620   22.7020   35.9470 N   0  0  0  0  0  0  0  0  0  0  0  0
   39.4950   22.1900   36.3750 C   0  0  0  0  0  2  0  0  0  0  0  0
   40.1730   22.9310   37.4660 C   0  0  0  0  0  2  0  0  0  0  0  0
   39.2070   23.1510   38.6020 C   0  0  0  0  0  3  0  0  0  0  0  0
   38.8950   22.1890   39.0610 H   0  0  0  0  0  0  0  0  0  0  0  0
   38.0400   23.9470   38.0430 C   0  0  0  0  0  2  0  0  0  0  0  0
   37.3500   23.1850   36.9330 C   0  0  0  0  0  2  0  0  0  0  0  0
  1  2  1  0  0  0  0
  2  3  2  0  0  0  0
  2  6  1  0  0  0  0
  3  7  1  0  0  0  0
  4  3  1  0  0  0  0
  5  1  2  0  0  0  0
  5  4  1  0  0  0  0
  8  9  2  0  0  0  0
  8 13  1  0  0  0  0
  9 10  1  0  0  0  0
 10  1  1  0  0  0  0
 10 11  2  0  0  0  0
 12 11  1  0  0  0  0
 12 16  1  0  0  0  0
 13 12  2  0  0  0  0
 14  8  1  0  0  0  0
 15  9  1  0  0  0  0
 17  4  1  0  0  0  0
 17 20  1  0  0  0  0
 17 18  1  0  0  0  0
 19 17  1  0  0  0  0
 20 23  1  0  0  0  0
 21 20  1  0  0  0  0
 22 20  1  0  0  0  0
 23 24  1  0  0  0  0
 23 29  1  0  0  0  0
 24 25  1  0  0  0  0
 25 26  1  0  0  0  0
 26 27  1  0  0  0  0
 28 26  1  0  0  0  0
 29 28  1  0  0  0  0
M  END
>  <minimizedAffinity>
-4.74148846

$$$$

 OpenBabel03272508353D

 29 31  0  0  0  0  0  0  0  0999 V2000
   38.0400   25.6130   35.3950 C   0  0  0  0  0  0  0  0  0  0  0  0
   37.9090   26.9320   35.7200 C   0  0  0  0  0  0  0  0  0  0  0  0
   37.3580   27.6150   34.6570 C   0  0  0  0  0  0  0  0  0  0  0  0
   37.1670   26.6790   33.7040 N   0  0  0  0  0  0  0  0  0  0  0  0
   37.5700   25.4820   34.1350 N   0  0  0  0  0  0  0  0  0  0  0  0
   38.1800   27.4380   36.6600 H   0  0  0  0  0  0  0  0  0  0  0  0
   37.1410   28.6580   34.6260 H   0  0  0  0  0  0  0  0  0  0  0  0
   38.6880   23.3840   38.3520 C   0  0  0  0  0  0  0  0  0  0  0  0
   38.0660   24.3520   37.5740 C   0  0  0  0  0  0  0  0  0  0  0  0
   38.5910   24.6310   36.2980 C   0  0  0  0  0  0  0  0  0  0  0  0
   39.6830   23.9110   35.9400 N   0  0  0  0  0  0  0  0  0  0  0  0
   40.2660   22.9760   36.7170 C   0  0  0  0  0  0  0  0  0  0  0  0
   39.7560   22.7180   37.9330 N   0  0  0  0  0  0  0  0  0  0  0  0
   38.1890   23.2540   39.3210 H   0  0  0  0  0  0  0  0  0  0  0  0
   37.1860   24.9410   37.8500 H   0  0  0  0  0  0  0  0  0  0  0  0
   41.1300   22.4760   36.3130 H   0  0  0  0  0  0  0  0  0  0  0  0
   36.5950   26.9540   32.3820 C   0  0  0  0  0  0  0  0  0  0  0  0
   35.7520   26.2000   32.3210 H   0  0  0  0  0  0  0  0  0  0  0  0
   37.3630   26.8170   31.6120 H   0  0  0  0  0  0  0  0  0  0  0  0
   35.9590   28.3130   32.3860 C   0  0  0  0  0  0  0  0  0  0  0  0
   34.9570   28.2500   32.8120 H   0  0  0  0  0  0  0  0  0  0  0  0
   36.5690   28.9490   33.0710 H   0  0  0  0  0  0  0  0  0  0  0  0
   35.9150   28.9340   31.1060 N   0  0  0  0  0  0  0  0  0  0  0  0
   35.5700   30.2890   31.0270 C   0  0  0  0  0  2  0  0  0  0  0  0
   36.6700   31.2320   30.7070 C   0  0  0  0  0  2  0  0  0  0  0  0
   37.4120   30.7470   29.4880 C   0  0  0  0  0  3  0  0  0  0  0  0
   36.7600   30.7520   28.5890 H   0  0  0  0  0  0  0  0  0  0  0  0
   37.9530   29.3660   29.8190 C   0  0  0  0  0  2  0  0  0  0  0  0
   36.8260   28.4080   30.1400 C   0  0  0  0  0  2  0  0  0  0  0  0
  1  2  1  0  0  0  0
  1 10  1  0  0  0  0
  2  6  1  0  0  0  0
  3  2  2  0  0  0  0
  4  5  1  0  0  0  0
  4  3  1  0  0  0  0
  5  1  2  0  0  0  0
  7  3  1  0  0  0  0
  8 14  1  0  0  0  0
  9 15  1  0  0  0  0
  9  8  2  0  0  0  0
 10  9  1  0  0  0  0
 11 10  2  0  0  0  0
 11 12  1  0  0  0  0
 12 13  2  0  0  0  0
 13  8  1  0  0  0  0
 16 12  1  0  0  0  0
 17 20  1  0  0  0  0
 17  4  1  0  0  0  0
 18 17  1  0  0  0  0
 19 17  1  0  0  0  0
 20 21  1  0  0  0  0
 20 22  1  0  0  0  0
 23 20  1  0  0  0  0
 24 23  1  0  0  0  0
 25 24  1  0  0  0  0
 26 28  1  0  0  0  0
 26 25  1  0  0  0  0
 27 26  1  0  0  0  0
 28 29  1  0  0  0  0
 29 23  1  0  0  0  0
M  END
>  <minimizedAffinity>
-4.74122477

$$$$

 OpenBabel03272508353D

 29 31  0  0  0  0  0  0  0  0999 V2000
   36.1050   26.2930   31.3250 C   0  0  0  0  0  0  0  0  0  0  0  0
   35.0160   25.6280   30.8380 C   0  0  0  0  0  0  0  0  0  0  0  0
   35.1280   24.2870   31.1340 C   0  0  0  0  0  0  0  0  0  0  0  0
   36.2950   24.1730   31.8010 N   0  0  0  0  0  0  0  0  0  0  0  0
   36.8850   25.3650   31.9190 N   0  0  0  0  0  0  0  0  0  0  0  0
   34.1530   26.0350   30.2880 H   0  0  0  0  0  0  0  0  0  0  0  0
   34.4250   23.5280   30.8780 H   0  0  0  0  0  0  0  0  0  0  0  0
   36.1630   30.0090   31.8880 C   0  0  0  0  0  0  0  0  0  0  0  0
   35.9390   28.6650   32.1530 C   0  0  0  0  0  0  0  0  0  0  0  0
   36.2890   27.7170   31.1730 C   0  0  0  0  0  0  0  0  0  0  0  0
   36.8260   28.2190   30.0340 N   0  0  0  0  0  0  0  0  0  0  0  0
   37.0350   29.5320   29.8050 C   0  0  0  0  0  0  0  0  0  0  0  0
   36.6960   30.4270   30.7470 N   0  0  0  0  0  0  0  0  0  0  0  0
   35.8530   30.6500   32.7240 H   0  0  0  0  0  0  0  0  0  0  0  0
   35.5050   28.2470   33.0660 H   0  0  0  0  0  0  0  0  0  0  0  0
   37.4690   29.7970   28.8560 H   0  0  0  0  0  0  0  0  0  0  0  0
   36.8300   22.9090   32.3160 C   0  0  0  0  0  0  0  0  0  0  0  0
   36.0040   22.5610   33.0090 H   0  0  0  0  0  0  0  0  0  0  0  0
   37.7830   23.0910   32.8260 H   0  0  0  0  0  0  0  0  0  0  0  0
   36.9080   21.9080   31.2000 C   0  0  0  0  0  0  0  0  0  0  0  0
   36.8330   22.4200   30.2390 H   0  0  0  0  0  0  0  0  0  0  0  0
   37.9240   21.4510   31.2510 H   0  0  0  0  0  0  0  0  0  0  0  0
   35.9350   20.8720   31.2860 N   0  0  0  0  0  0  0  0  0  0  0  0
   36.2040   19.6450   30.6640 C   0  0  0  0  0  2  0  0  0  0  0  0
   36.5230   18.5080   31.5620 C   0  0  0  0  0  2  0  0  0  0  0  0
   35.4700   18.4000   32.6340 C   0  0  0  0  0  3  0  0  0  0  0  0
   34.4770   18.1540   32.2040 H   0  0  0  0  0  0  0  0  0  0  0  0
   35.4770   19.7150   33.3940 C   0  0  0  0  0  2  0  0  0  0  0  0
   35.1460   20.8720   32.4750 C   0  0  0  0  0  2  0  0  0  0  0  0
  1  5  2  0  0  0  0
  2  3  2  0  0  0  0
  2  1  1  0  0  0  0
  3  4  1  0  0  0  0
  4  5  1  0  0  0  0
  4 17  1  0  0  0  0
  6  2  1  0  0  0  0
  7  3  1  0  0  0  0
  8  9  1  0  0  0  0
  8 14  1  0  0  0  0
  9 15  1  0  0  0  0
 10  1  1  0  0  0  0
 10  9  2  0  0  0  0
 11 10  1  0  0  0  0
 12 11  2  0  0  0  0
 12 13  1  0  0  0  0
 13  8  2  0  0  0  0
 16 12  1  0  0  0  0
 17 19  1  0  0  0  0
 17 18  1  0  0  0  0
 20 22  1  0  0  0  0
 20 23  1  0  0  0  0
 20 17  1  0  0  0  0
 21 20  1  0  0  0  0
 23 29  1  0  0  0  0
 24 23  1  0  0  0  0
 24 25  1  0  0  0  0
 25 26  1  0  0  0  0
 26 28  1  0  0  0  0
 27 26  1  0  0  0  0
 29 28  1  0  0  0  0
M  END
>  <minimizedAffinity>
-4.69782305

$$$$

 OpenBabel03272508353D

 29 31  0  0  0  0  0  0  0  0999 V2000
   35.9240   27.4650   31.5640 C   0  0  0  0  0  0  0  0  0  0  0  0
   36.5060   28.2300   30.5950 C   0  0  0  0  0  0  0  0  0  0  0  0
   36.1320   29.5460   30.7630 C   0  0  0  0  0  0  0  0  0  0  0  0
   35.3230   29.5430   31.8430 N   0  0  0  0  0  0  0  0  0  0  0  0
   35.1940   28.3070   32.3280 N   0  0  0  0  0  0  0  0  0  0  0  0
   37.1760   27.9130   29.7800 H   0  0  0  0  0  0  0  0  0  0  0  0
   36.4350   30.3660   30.1530 H   0  0  0  0  0  0  0  0  0  0  0  0
   35.6070   23.7410   31.1640 C   0  0  0  0  0  0  0  0  0  0  0  0
   35.3230   25.0890   30.9880 C   0  0  0  0  0  0  0  0  0  0  0  0
   36.1170   26.0380   31.6600 C   0  0  0  0  0  0  0  0  0  0  0  0
   37.1080   25.5330   32.4360 N   0  0  0  0  0  0  0  0  0  0  0  0
   37.3610   24.2170   32.5860 C   0  0  0  0  0  0  0  0  0  0  0  0
   36.5970   23.3210   31.9400 N   0  0  0  0  0  0  0  0  0  0  0  0
   34.9250   23.1000   30.5900 H   0  0  0  0  0  0  0  0  0  0  0  0
   34.5270   25.5100   30.3670 H   0  0  0  0  0  0  0  0  0  0  0  0
   38.1800   23.9490   33.2330 H   0  0  0  0  0  0  0  0  0  0  0  0
   34.6820   30.7410   32.3940 C   0  0  0  0  0  0  0  0  0  0  0  0
   33.7630   30.3120   32.9000 H   0  0  0  0  0  0  0  0  0  0  0  0
   34.4500   31.4420   31.5850 H   0  0  0  0  0  0  0  0  0  0  0  0
   35.5440   31.3140   33.4810 C   0  0  0  0  0  0  0  0  0  0  0  0
   36.5920   31.0880   33.2780 H   0  0  0  0  0  0  0  0  0  0  0  0
   35.4300   32.4230   33.4280 H   0  0  0  0  0  0  0  0  0  0  0  0
   35.1890   30.8800   34.7890 N   0  0  0  0  0  0  0  0  0  0  0  0
   35.8660   31.4290   35.8860 C   0  0  0  0  0  2  0  0  0  0  0  0
   35.1010   32.3890   36.7190 C   0  0  0  0  0  2  0  0  0  0  0  0
   33.7730   31.7850   37.0960 C   0  0  0  0  0  3  0  0  0  0  0  0
   33.9040   30.8890   37.7400 H   0  0  0  0  0  0  0  0  0  0  0  0
   33.0410   31.4810   35.8000 C   0  0  0  0  0  2  0  0  0  0  0  0
   33.8240   30.4970   34.9560 C   0  0  0  0  0  2  0  0  0  0  0  0
  1 10  1  0  0  0  0
  1  5  2  0  0  0  0
  2  3  2  0  0  0  0
  2  1  1  0  0  0  0
  3  4  1  0  0  0  0
  4  5  1  0  0  0  0
  4 17  1  0  0  0  0
  6  2  1  0  0  0  0
  7  3  1  0  0  0  0
  8 13  1  0  0  0  0
  9  8  2  0  0  0  0
  9 10  1  0  0  0  0
 10 11  2  0  0  0  0
 11 12  1  0  0  0  0
 12 16  1  0  0  0  0
 13 12  2  0  0  0  0
 14  8  1  0  0  0  0
 15  9  1  0  0  0  0
 17 18  1  0  0  0  0
 17 20  1  0  0  0  0
 19 17  1  0  0  0  0
 20 23  1  0  0  0  0
 21 20  1  0  0  0  0
 22 20  1  0  0  0  0
 23 29  1  0  0  0  0
 23 24  1  0  0  0  0
 24 25  1  0  0  0  0
 25 26  1  0  0  0  0
 26 27  1  0  0  0  0
 28 26  1  0  0  0  0
 29 28  1  0  0  0  0
M  END
>  <minimizedAffinity>
-4.68266392

$$$$

 OpenBabel03272508353D

 29 31  0  0  0  0  0  0  0  0999 V2000
   36.3100   28.3440   33.8580 C   0  0  0  0  0  0  0  0  0  0  0  0
   36.8730   27.7910   32.7440 C   0  0  0  0  0  0  0  0  0  0  0  0
   37.9060   26.9590   33.1160 C   0  0  0  0  0  0  0  0  0  0  0  0
   37.9430   27.0310   34.4630 N   0  0  0  0  0  0  0  0  0  0  0  0
   36.9940   27.8540   34.9140 N   0  0  0  0  0  0  0  0  0  0  0  0
   36.5970   27.9420   31.6880 H   0  0  0  0  0  0  0  0  0  0  0  0
   38.5250   26.3940   32.4580 H   0  0  0  0  0  0  0  0  0  0  0  0
   33.9110   31.1550   34.5470 C   0  0  0  0  0  0  0  0  0  0  0  0
   35.0220   30.3360   34.7020 C   0  0  0  0  0  0  0  0  0  0  0  0
   35.2020   29.2680   33.8030 C   0  0  0  0  0  0  0  0  0  0  0  0
   34.2500   29.1360   32.8460 N   0  0  0  0  0  0  0  0  0  0  0  0
   33.1820   29.9490   32.7190 C   0  0  0  0  0  0  0  0  0  0  0  0
   33.0200   30.9650   33.5830 N   0  0  0  0  0  0  0  0  0  0  0  0
   33.8790   31.9510   35.3030 H   0  0  0  0  0  0  0  0  0  0  0  0
   35.7960   30.4290   35.4690 H   0  0  0  0  0  0  0  0  0  0  0  0
   32.4990   29.7340   31.9150 H   0  0  0  0  0  0  0  0  0  0  0  0
   38.8990   26.3010   35.3020 C   0  0  0  0  0  0  0  0  0  0  0  0
   39.4320   27.1390   35.8470 H   0  0  0  0  0  0  0  0  0  0  0  0
   39.5600   25.6980   34.6690 H   0  0  0  0  0  0  0  0  0  0  0  0
   38.1530   25.5150   36.3410 C   0  0  0  0  0  0  0  0  0  0  0  0
   38.3360   25.9430   37.3280 H   0  0  0  0  0  0  0  0  0  0  0  0
   37.0670   25.6460   36.1220 H   0  0  0  0  0  0  0  0  0  0  0  0
   38.4560   24.1240   36.3400 N   0  0  0  0  0  0  0  0  0  0  0  0
   39.5240   23.6690   35.5550 C   0  0  0  0  0  2  0  0  0  0  0  0
   40.7470   23.2550   36.2840 C   0  0  0  0  0  2  0  0  0  0  0  0
   40.3780   22.2910   37.3830 C   0  0  0  0  0  3  0  0  0  0  0  0
   39.9580   21.3490   36.9710 H   0  0  0  0  0  0  0  0  0  0  0  0
   39.4120   23.0180   38.3030 C   0  0  0  0  0  2  0  0  0  0  0  0
   38.1640   23.4340   37.5550 C   0  0  0  0  0  2  0  0  0  0  0  0
  1  5  2  0  0  0  0
  2  3  2  0  0  0  0
  2  1  1  0  0  0  0
  3  4  1  0  0  0  0
  4  5  1  0  0  0  0
  4 17  1  0  0  0  0
  6  2  1  0  0  0  0
  7  3  1  0  0  0  0
  8  9  1  0  0  0  0
  8 14  1  0  0  0  0
  9 15  1  0  0  0  0
 10  1  1  0  0  0  0
 10  9  2  0  0  0  0
 11 10  1  0  0  0  0
 12 11  2  0  0  0  0
 12 13  1  0  0  0  0
 13  8  2  0  0  0  0
 16 12  1  0  0  0  0
 17 18  1  0  0  0  0
 17 20  1  0  0  0  0
 19 17  1  0  0  0  0
 20 21  1  0  0  0  0
 22 20  1  0  0  0  0
 23 20  1  0  0  0  0
 23 29  1  0  0  0  0
 24 25  1  0  0  0  0
 24 23  1  0  0  0  0
 25 26  1  0  0  0  0
 26 28  1  0  0  0  0
 27 26  1  0  0  0  0
 29 28  1  0  0  0  0
M  END
>  <minimizedAffinity>
-4.57552147

$$$$
