
 OpenBabel03272509233D

 22 23  0  0  0  0  0  0  0  0999 V2000
   38.0740   30.6050   47.6420 C   0  0  0  0  0  0  0  0  0  0  0  0
   37.3290   30.4500   46.8650 H   0  0  0  0  0  0  0  0  0  0  0  0
   38.9820   29.9510   47.5310 H   0  0  0  0  0  0  0  0  0  0  0  0
   37.3680   30.2470   51.3460 C   0  0  0  0  0  0  0  0  0  0  0  0
   38.0330   30.6670   50.1730 C   0  0  0  0  0  0  0  0  0  0  0  0
   37.4950   30.2460   48.9690 C   0  0  0  0  0  0  0  0  0  0  0  0
   36.3680   29.4580   48.9790 N   0  0  0  0  0  0  0  0  0  0  0  0
   35.7710   29.0830   50.1200 C   0  0  0  0  0  0  0  0  0  0  0  0
   36.2640   29.4730   51.3160 N   0  0  0  0  0  0  0  0  0  0  0  0
   37.7270   30.5350   52.3090 H   0  0  0  0  0  0  0  0  0  0  0  0
   38.9020   31.2740   50.2060 H   0  0  0  0  0  0  0  0  0  0  0  0
   34.8940   28.4620   49.9530 H   0  0  0  0  0  0  0  0  0  0  0  0
   38.5910   32.0430   47.6900 C   0  0  0  0  0  0  0  0  0  0  0  0
   37.8620   32.6440   48.2250 H   0  0  0  0  0  0  0  0  0  0  0  0
   39.5760   32.0520   48.1800 H   0  0  0  0  0  0  0  0  0  0  0  0
   38.7740   32.5830   46.3690 N   0  0  0  0  0  0  0  0  0  0  0  0
   38.1030   31.8140   45.3460 C   0  0  0  0  0  0  0  0  0  0  0  0
   38.2210   32.6050   44.0570 C   0  0  0  0  0  0  0  0  0  0  0  0
   39.6770   32.5200   43.5940 C   0  0  0  0  0  0  0  0  0  0  0  0
   39.9520   33.4580   43.0930 H   0  0  0  0  0  0  0  0  0  0  0  0
   40.6040   32.2820   44.7660 C   0  0  0  0  0  0  0  0  0  0  0  0
   40.0930   32.9840   46.0310 C   0  0  0  0  0  0  0  0  0  0  0  0
  1 13  1  0  0  0  0
  1  6  1  0  0  0  0
  2  1  1  0  0  0  0
  3  1  1  0  0  0  0
  4 10  1  0  0  0  0
  5 11  1  0  0  0  0
  5  4  2  0  0  0  0
  6  7  2  0  0  0  0
  6  5  1  0  0  0  0
  7  8  1  0  0  0  0
  8  9  2  0  0  0  0
  9  4  1  0  0  0  0
 12  8  1  0  0  0  0
 13 15  1  0  0  0  0
 13 14  1  0  0  0  0
 16 13  1  0  0  0  0
 17 16  1  0  0  0  0
 18 17  1  0  0  0  0
 19 18  1  0  0  0  0
 19 21  1  0  0  0  0
 20 19  1  0  0  0  0
 21 22  1  0  0  0  0
 22 16  1  0  0  0  0
M  END
>  <minimizedAffinity>
-4.98884583

>  <minimizedRMSD>
1.87753153

$$$$
