
 OpenBabel03272505543D

 32 34  0  0  1  0  0  0  0  0999 V2000
   35.5570   30.0150   49.8070 C   0  0  2  0  0  0  0  0  0  0  0  0
   35.8990   31.3420   49.1720 C   0  0  0  0  0  0  0  0  0  0  0  0
   37.3540   31.5150   48.8710 C   0  0  1  0  0  0  0  0  0  0  0  0
   38.2340   31.2480   50.0450 C   0  0  0  0  0  0  0  0  0  0  0  0
   37.8060   30.0820   50.8870 C   0  0  0  0  0  0  0  0  0  0  0  0
   36.7640   29.2370   50.2020 C   0  0  0  0  0  0  0  0  0  0  0  0
   34.9090   30.1530   50.7000 H   0  0  0  0  0  0  0  0  0  0  0  0
   35.3360   31.4400   48.2290 H   0  0  0  0  0  0  0  0  0  0  0  0
   35.5260   32.1400   49.8480 H   0  0  0  0  0  0  0  0  0  0  0  0
   37.4570   32.6300   48.6830 H   0  0  0  0  0  0  0  0  0  0  0  0
   38.2000   32.1380   50.7420 H   0  0  0  0  0  0  0  0  0  0  0  0
   39.2830   31.1220   49.8080 H   0  0  0  0  0  0  0  0  0  0  0  0
   37.3670   30.3850   51.8660 H   0  0  0  0  0  0  0  0  0  0  0  0
   38.6630   29.4120   51.1370 H   0  0  0  0  0  0  0  0  0  0  0  0
   36.4360   28.4710   50.9420 H   0  0  0  0  0  0  0  0  0  0  0  0
   37.1860   28.6730   49.3500 H   0  0  0  0  0  0  0  0  0  0  0  0
   34.7740   29.1840   48.8440 C   0  0  0  0  0  0  0  0  0  0  0  0
   34.1130   29.8740   47.8130 C   0  0  0  0  0  0  0  0  0  0  0  0
   33.3740   29.1120   46.9150 C   0  0  0  0  0  0  0  0  0  0  0  0
   33.3170   27.7430   47.0660 N   0  0  0  0  0  0  0  0  0  0  0  0
   33.9770   27.1130   48.0870 C   0  0  0  0  0  0  0  0  0  0  0  0
   34.6930   27.8450   48.9570 N   0  0  0  0  0  0  0  0  0  0  0  0
   34.1070   30.9180   47.6340 H   0  0  0  0  0  0  0  0  0  0  0  0
   32.8300   29.5160   46.0920 H   0  0  0  0  0  0  0  0  0  0  0  0
   33.8820   26.0390   48.1370 H   0  0  0  0  0  0  0  0  0  0  0  0
   37.6850   30.9090   47.6580 N   0  0  0  0  0  0  0  0  0  0  0  0
   36.8170   31.0780   46.5580 C   0  0  0  0  0  0  0  0  0  0  0  0
   37.4130   31.7180   45.3280 C   0  0  0  0  0  0  0  0  0  0  0  0
   38.8280   31.3550   45.0490 C   0  0  0  0  0  0  0  0  0  0  0  0
   38.9010   30.3250   44.6320 H   0  0  0  0  0  0  0  0  0  0  0  0
   39.6380   31.5330   46.3120 C   0  0  0  0  0  0  0  0  0  0  0  0
   39.0010   30.5700   47.3240 C   0  0  0  0  0  0  0  0  0  0  0  0
  1  6  1  0  0  0  0
  1  7  1  1  0  0  0
  2  1  1  0  0  0  0
  2  9  1  0  0  0  0
  3 10  1  6  0  0  0
  3  2  1  0  0  0  0
  3  4  1  0  0  0  0
  4 11  1  0  0  0  0
  4  5  1  0  0  0  0
  5 14  1  0  0  0  0
  5 13  1  0  0  0  0
  6  5  1  0  0  0  0
  6 15  1  0  0  0  0
  8  2  1  0  0  0  0
 12  4  1  0  0  0  0
 16  6  1  0  0  0  0
 17 22  1  0  0  0  0
 17  1  1  0  0  0  0
 18 17  2  0  0  0  0
 19 20  2  0  0  0  0
 19 18  1  0  0  0  0
 20 21  1  0  0  0  0
 21 25  1  0  0  0  0
 21 22  2  0  0  0  0
 23 18  1  0  0  0  0
 24 19  1  0  0  0  0
 26  3  1  0  0  0  0
 27 26  1  0  0  0  0
 28 27  1  0  0  0  0
 29 28  1  0  0  0  0
 29 31  1  0  0  0  0
 30 29  1  0  0  0  0
 31 32  1  0  0  0  0
 32 26  1  0  0  0  0
M  END
>  <minimizedAffinity>
-4.63156223

>  <minimizedRMSD>
1.25849771

$$$$
