
 OpenBabel03272509483D

 23 24  0  0  0  0  0  0  0  0999 V2000
   38.1610   23.1810   33.7940 C   0  0  0  0  0  0  0  0  0  0  0  0
   39.1980   22.9480   33.5120 H   0  0  0  0  0  0  0  0  0  0  0  0
   37.6230   23.5960   32.9220 H   0  0  0  0  0  0  0  0  0  0  0  0
   37.5190   21.9080   34.2870 C   0  0  0  0  0  0  0  0  0  0  0  0
   38.3500   21.2510   34.6370 H   0  0  0  0  0  0  0  0  0  0  0  0
   36.9110   22.2090   35.1800 H   0  0  0  0  0  0  0  0  0  0  0  0
   36.6600   21.3010   33.3450 N   0  0  0  0  0  0  0  0  0  0  0  0
   36.5030   21.9210   32.0840 C   0  0  0  0  0  2  0  0  0  0  0  0
   35.4580   21.2250   31.2650 C   0  0  0  0  0  2  0  0  0  0  0  0
   35.4690   19.7280   31.4480 C   0  0  0  0  0  3  0  0  0  0  0  0
   34.5760   19.3390   30.9170 H   0  0  0  0  0  0  0  0  0  0  0  0
   35.3610   19.3280   32.8890 C   0  0  0  0  0  2  0  0  0  0  0  0
   35.5780   20.5230   33.8270 C   0  0  0  0  0  2  0  0  0  0  0  0
   38.1140   24.1590   34.8210 O   0  0  0  0  0  0  0  0  0  0  0  0
   39.8360   22.9130   37.7550 C   0  0  0  0  0  0  0  0  0  0  0  0
   38.9560   23.3410   38.7570 C   0  0  0  0  0  0  0  0  0  0  0  0
   37.8160   24.0370   38.3640 C   0  0  0  0  0  0  0  0  0  0  0  0
   37.6530   24.2450   37.0110 N   0  0  0  0  0  0  0  0  0  0  0  0
   38.5130   23.8210   36.0870 C   0  0  0  0  0  0  0  0  0  0  0  0
   39.6240   23.1440   36.4630 N   0  0  0  0  0  0  0  0  0  0  0  0
   40.7290   22.3660   38.0590 H   0  0  0  0  0  0  0  0  0  0  0  0
   39.1670   23.1320   39.8070 H   0  0  0  0  0  0  0  0  0  0  0  0
   37.1080   24.3880   39.0980 H   0  0  0  0  0  0  0  0  0  0  0  0
  1  4  1  0  0  0  0
  1 14  1  0  0  0  0
  2  1  1  0  0  0  0
  3  1  1  0  0  0  0
  4  5  1  0  0  0  0
  4  6  1  0  0  0  0
  7 13  1  0  0  0  0
  7  4  1  0  0  0  0
  8  7  1  0  0  0  0
  9 10  1  0  0  0  0
  9  8  1  0  0  0  0
 10 12  1  0  0  0  0
 11 10  1  0  0  0  0
 12 13  1  0  0  0  0
 14 19  1  0  0  0  0
 15 21  1  0  0  0  0
 15 16  1  0  0  0  0
 16 22  1  0  0  0  0
 17 16  2  0  0  0  0
 17 23  1  0  0  0  0
 18 17  1  0  0  0  0
 19 20  1  0  0  0  0
 19 18  2  0  0  0  0
 20 15  2  0  0  0  0
M  END
>  <minimizedAffinity>
-4.30363894

$$$$

 OpenBabel03272509483D

 23 24  0  0  0  0  0  0  0  0999 V2000
   38.1510   26.1070   34.5340 C   0  0  0  0  0  0  0  0  0  0  0  0
   38.7210   25.3160   34.0260 H   0  0  0  0  0  0  0  0  0  0  0  0
   38.8370   26.9120   34.8560 H   0  0  0  0  0  0  0  0  0  0  0  0
   37.1110   26.6190   33.5690 C   0  0  0  0  0  0  0  0  0  0  0  0
   36.2580   26.9840   34.1890 H   0  0  0  0  0  0  0  0  0  0  0  0
   37.5830   27.5040   33.0680 H   0  0  0  0  0  0  0  0  0  0  0  0
   36.7450   25.6850   32.5750 N   0  0  0  0  0  0  0  0  0  0  0  0
   37.5720   24.5530   32.3820 C   0  0  0  0  0  2  0  0  0  0  0  0
   37.1160   23.7450   31.2050 C   0  0  0  0  0  2  0  0  0  0  0  0
   35.6150   23.6970   31.0710 C   0  0  0  0  0  3  0  0  0  0  0  0
   35.4010   23.2040   30.1010 H   0  0  0  0  0  0  0  0  0  0  0  0
   35.0010   25.0650   31.0390 C   0  0  0  0  0  2  0  0  0  0  0  0
   36.0040   26.1470   31.4590 C   0  0  0  0  0  2  0  0  0  0  0  0
   37.5080   25.6120   35.6980 O   0  0  0  0  0  0  0  0  0  0  0  0
   38.6430   23.4470   38.3730 C   0  0  0  0  0  0  0  0  0  0  0  0
   39.7280   22.8260   37.7410 C   0  0  0  0  0  0  0  0  0  0  0  0
   40.0080   23.1880   36.4260 C   0  0  0  0  0  0  0  0  0  0  0  0
   39.1840   24.1350   35.8570 N   0  0  0  0  0  0  0  0  0  0  0  0
   38.1610   24.7060   36.4900 C   0  0  0  0  0  0  0  0  0  0  0  0
   37.8840   24.3570   37.7690 N   0  0  0  0  0  0  0  0  0  0  0  0
   38.4220   23.1670   39.4030 H   0  0  0  0  0  0  0  0  0  0  0  0
   40.3260   22.0820   38.2710 H   0  0  0  0  0  0  0  0  0  0  0  0
   40.8320   22.7370   35.8970 H   0  0  0  0  0  0  0  0  0  0  0  0
  1  3  1  0  0  0  0
  1 14  1  0  0  0  0
  2  1  1  0  0  0  0
  4  5  1  0  0  0  0
  4  1  1  0  0  0  0
  6  4  1  0  0  0  0
  7  4  1  0  0  0  0
  8  7  1  0  0  0  0
  9  8  1  0  0  0  0
 10  9  1  0  0  0  0
 11 10  1  0  0  0  0
 12 10  1  0  0  0  0
 12 13  1  0  0  0  0
 13  7  1  0  0  0  0
 14 19  1  0  0  0  0
 15 21  1  0  0  0  0
 16 22  1  0  0  0  0
 16 15  2  0  0  0  0
 17 16  1  0  0  0  0
 18 17  2  0  0  0  0
 18 19  1  0  0  0  0
 19 20  2  0  0  0  0
 20 15  1  0  0  0  0
 23 17  1  0  0  0  0
M  END
>  <minimizedAffinity>
-4.18114758

$$$$

 OpenBabel03272509483D

 23 24  0  0  0  0  0  0  0  0999 V2000
   38.7100   23.2280   33.4950 C   0  0  0  0  0  0  0  0  0  0  0  0
   38.6910   22.4520   32.7160 H   0  0  0  0  0  0  0  0  0  0  0  0
   39.7420   23.3490   33.8730 H   0  0  0  0  0  0  0  0  0  0  0  0
   38.1900   24.5050   32.8850 C   0  0  0  0  0  0  0  0  0  0  0  0
   38.7240   24.6320   31.9130 H   0  0  0  0  0  0  0  0  0  0  0  0
   37.1070   24.3100   32.6660 H   0  0  0  0  0  0  0  0  0  0  0  0
   38.2780   25.6240   33.7420 N   0  0  0  0  0  0  0  0  0  0  0  0
   37.0980   26.3580   34.0090 C   0  0  0  0  0  2  0  0  0  0  0  0
   37.3950   27.5840   34.8180 C   0  0  0  0  0  2  0  0  0  0  0  0
   38.4740   27.3610   35.8490 C   0  0  0  0  0  3  0  0  0  0  0  0
   38.7090   28.3560   36.2790 H   0  0  0  0  0  0  0  0  0  0  0  0
   39.7320   26.8110   35.2470 C   0  0  0  0  0  2  0  0  0  0  0  0
   39.5080   26.3250   33.8080 C   0  0  0  0  0  2  0  0  0  0  0  0
   37.8960   22.8690   34.6000 O   0  0  0  0  0  0  0  0  0  0  0  0
   39.8790   22.6800   37.6270 C   0  0  0  0  0  0  0  0  0  0  0  0
   39.0710   23.4230   38.4970 C   0  0  0  0  0  0  0  0  0  0  0  0
   37.8850   23.9490   37.9900 C   0  0  0  0  0  0  0  0  0  0  0  0
   37.6100   23.6890   36.6650 N   0  0  0  0  0  0  0  0  0  0  0  0
   38.4040   22.9770   35.8680 C   0  0  0  0  0  0  0  0  0  0  0  0
   39.5580   22.4630   36.3550 N   0  0  0  0  0  0  0  0  0  0  0  0
   40.8080   22.2650   38.0210 H   0  0  0  0  0  0  0  0  0  0  0  0
   39.3710   23.5800   39.5350 H   0  0  0  0  0  0  0  0  0  0  0  0
   37.2300   24.5280   38.6200 H   0  0  0  0  0  0  0  0  0  0  0  0
  1  3  1  0  0  0  0
  1 14  1  0  0  0  0
  2  1  1  0  0  0  0
  4  1  1  0  0  0  0
  4  7  1  0  0  0  0
  5  4  1  0  0  0  0
  6  4  1  0  0  0  0
  7 13  1  0  0  0  0
  7  8  1  0  0  0  0
  8  9  1  0  0  0  0
  9 10  1  0  0  0  0
 10 11  1  0  0  0  0
 12 10  1  0  0  0  0
 13 12  1  0  0  0  0
 14 19  1  0  0  0  0
 15 21  1  0  0  0  0
 15 16  1  0  0  0  0
 16 22  1  0  0  0  0
 17 16  2  0  0  0  0
 17 23  1  0  0  0  0
 18 17  1  0  0  0  0
 19 20  1  0  0  0  0
 19 18  2  0  0  0  0
 20 15  2  0  0  0  0
M  END
>  <minimizedAffinity>
-4.1485734

$$$$

 OpenBabel03272509483D

 23 24  0  0  0  0  0  0  0  0999 V2000
   37.9320   23.0380   33.5390 C   0  0  0  0  0  0  0  0  0  0  0  0
   37.0250   23.3840   34.0540 H   0  0  0  0  0  0  0  0  0  0  0  0
   37.6660   22.2630   32.7970 H   0  0  0  0  0  0  0  0  0  0  0  0
   38.5760   24.2340   32.8830 C   0  0  0  0  0  0  0  0  0  0  0  0
   39.6170   23.9270   32.6220 H   0  0  0  0  0  0  0  0  0  0  0  0
   38.0080   24.3900   31.9290 H   0  0  0  0  0  0  0  0  0  0  0  0
   38.4980   25.4170   33.6500 N   0  0  0  0  0  0  0  0  0  0  0  0
   37.2520   26.0820   33.7290 C   0  0  0  0  0  2  0  0  0  0  0  0
   37.3790   27.3840   34.4620 C   0  0  0  0  0  2  0  0  0  0  0  0
   38.3480   27.3160   35.6160 C   0  0  0  0  0  3  0  0  0  0  0  0
   38.4700   28.3540   35.9860 H   0  0  0  0  0  0  0  0  0  0  0  0
   39.6980   26.8130   35.1990 C   0  0  0  0  0  2  0  0  0  0  0  0
   39.6670   26.2060   33.7890 C   0  0  0  0  0  2  0  0  0  0  0  0
   38.8490   22.4510   34.4490 O   0  0  0  0  0  0  0  0  0  0  0  0
   37.8910   23.6210   37.7420 C   0  0  0  0  0  0  0  0  0  0  0  0
   39.0430   23.2880   38.4650 C   0  0  0  0  0  0  0  0  0  0  0  0
   40.0880   22.6770   37.7760 C   0  0  0  0  0  0  0  0  0  0  0  0
   39.8930   22.4520   36.4300 N   0  0  0  0  0  0  0  0  0  0  0  0
   38.7820   22.7840   35.7750 C   0  0  0  0  0  0  0  0  0  0  0  0
   37.7630   23.3790   36.4400 N   0  0  0  0  0  0  0  0  0  0  0  0
   37.0720   24.1010   38.2770 H   0  0  0  0  0  0  0  0  0  0  0  0
   39.1090   23.5020   39.5330 H   0  0  0  0  0  0  0  0  0  0  0  0
   40.9950   22.4000   38.2890 H   0  0  0  0  0  0  0  0  0  0  0  0
  1  2  1  0  0  0  0
  1 14  1  0  0  0  0
  3  1  1  0  0  0  0
  4  1  1  0  0  0  0
  4  7  1  0  0  0  0
  5  4  1  0  0  0  0
  6  4  1  0  0  0  0
  7  8  1  0  0  0  0
  7 13  1  0  0  0  0
  8  9  1  0  0  0  0
  9 10  1  0  0  0  0
 10 11  1  0  0  0  0
 12 10  1  0  0  0  0
 13 12  1  0  0  0  0
 14 19  1  0  0  0  0
 15 21  1  0  0  0  0
 15 16  1  0  0  0  0
 16 22  1  0  0  0  0
 17 23  1  0  0  0  0
 17 16  2  0  0  0  0
 18 17  1  0  0  0  0
 19 18  2  0  0  0  0
 19 20  1  0  0  0  0
 20 15  2  0  0  0  0
M  END
>  <minimizedAffinity>
-4.07537508

$$$$

 OpenBabel03272509483D

 23 24  0  0  0  0  0  0  0  0999 V2000
   37.6170   26.4650   34.7700 C   0  0  0  0  0  0  0  0  0  0  0  0
   36.8780   25.7630   35.1830 H   0  0  0  0  0  0  0  0  0  0  0  0
   37.3900   27.4890   35.1190 H   0  0  0  0  0  0  0  0  0  0  0  0
   38.9840   26.0160   35.2200 C   0  0  0  0  0  0  0  0  0  0  0  0
   39.5910   25.8750   34.2940 H   0  0  0  0  0  0  0  0  0  0  0  0
   39.4090   26.8840   35.7890 H   0  0  0  0  0  0  0  0  0  0  0  0
   38.9640   24.8900   36.0720 N   0  0  0  0  0  0  0  0  0  0  0  0
   39.8830   23.8440   35.8220 C   0  0  0  0  0  2  0  0  0  0  0  0
   39.6340   22.6760   36.7280 C   0  0  0  0  0  2  0  0  0  0  0  0
   39.2180   23.0890   38.1190 C   0  0  0  0  0  3  0  0  0  0  0  0
   38.9240   22.1600   38.6480 H   0  0  0  0  0  0  0  0  0  0  0  0
   38.0360   24.0110   38.1100 C   0  0  0  0  0  2  0  0  0  0  0  0
   37.7420   24.5450   36.7010 C   0  0  0  0  0  2  0  0  0  0  0  0
   37.5720   26.4850   33.3520 O   0  0  0  0  0  0  0  0  0  0  0  0
   36.6970   23.2160   32.0540 C   0  0  0  0  0  0  0  0  0  0  0  0
   35.6880   23.5740   31.1510 C   0  0  0  0  0  0  0  0  0  0  0  0
   35.3650   24.9230   31.0390 C   0  0  0  0  0  0  0  0  0  0  0  0
   36.0730   25.7970   31.8360 N   0  0  0  0  0  0  0  0  0  0  0  0
   37.0280   25.4200   32.6840 C   0  0  0  0  0  0  0  0  0  0  0  0
   37.3470   24.1080   32.7970 N   0  0  0  0  0  0  0  0  0  0  0  0
   36.9540   22.1610   32.1430 H   0  0  0  0  0  0  0  0  0  0  0  0
   35.1770   22.8110   30.5600 H   0  0  0  0  0  0  0  0  0  0  0  0
   34.5950   25.2480   30.3580 H   0  0  0  0  0  0  0  0  0  0  0  0
  1  3  1  0  0  0  0
  1  2  1  0  0  0  0
  1  4  1  0  0  0  0
  4  6  1  0  0  0  0
  4  7  1  0  0  0  0
  5  4  1  0  0  0  0
  7 13  1  0  0  0  0
  8  7  1  0  0  0  0
  8  9  1  0  0  0  0
  9 10  1  0  0  0  0
 10 11  1  0  0  0  0
 12 10  1  0  0  0  0
 13 12  1  0  0  0  0
 14  1  1  0  0  0  0
 15 21  1  0  0  0  0
 15 20  1  0  0  0  0
 16 15  2  0  0  0  0
 17 16  1  0  0  0  0
 17 18  2  0  0  0  0
 18 19  1  0  0  0  0
 19 20  2  0  0  0  0
 19 14  1  0  0  0  0
 22 16  1  0  0  0  0
 23 17  1  0  0  0  0
M  END
>  <minimizedAffinity>
-4.04227781

$$$$

 OpenBabel03272509483D

 23 24  0  0  0  0  0  0  0  0999 V2000
   39.1730   23.1560   33.5040 C   0  0  0  0  0  0  0  0  0  0  0  0
   39.0770   22.1570   33.9540 H   0  0  0  0  0  0  0  0  0  0  0  0
   39.9660   23.1410   32.7330 H   0  0  0  0  0  0  0  0  0  0  0  0
   37.8350   23.5270   32.9140 C   0  0  0  0  0  0  0  0  0  0  0  0
   37.3970   24.3000   33.5900 H   0  0  0  0  0  0  0  0  0  0  0  0
   38.0690   24.0130   31.9310 H   0  0  0  0  0  0  0  0  0  0  0  0
   36.9890   22.4220   32.6770 N   0  0  0  0  0  0  0  0  0  0  0  0
   36.7660   21.5090   33.7350 C   0  0  0  0  0  2  0  0  0  0  0  0
   35.9620   20.3310   33.2730 C   0  0  0  0  0  2  0  0  0  0  0  0
   34.8970   20.7030   32.2710 C   0  0  0  0  0  3  0  0  0  0  0  0
   34.4710   19.7500   31.8960 H   0  0  0  0  0  0  0  0  0  0  0  0
   35.4550   21.4530   31.0980 C   0  0  0  0  0  2  0  0  0  0  0  0
   36.8940   21.9210   31.3550 C   0  0  0  0  0  2  0  0  0  0  0  0
   39.5450   24.1240   34.4710 O   0  0  0  0  0  0  0  0  0  0  0  0
   37.8960   24.1680   37.6980 C   0  0  0  0  0  0  0  0  0  0  0  0
   38.7610   23.3430   38.4270 C   0  0  0  0  0  0  0  0  0  0  0  0
   39.8670   22.8160   37.7640 C   0  0  0  0  0  0  0  0  0  0  0  0
   40.0130   23.1570   36.4360 N   0  0  0  0  0  0  0  0  0  0  0  0
   39.1680   23.9470   35.7760 C   0  0  0  0  0  0  0  0  0  0  0  0
   38.0910   24.4620   36.4150 N   0  0  0  0  0  0  0  0  0  0  0  0
   37.0300   24.5840   38.2130 H   0  0  0  0  0  0  0  0  0  0  0  0
   38.5650   23.1250   39.4780 H   0  0  0  0  0  0  0  0  0  0  0  0
   40.5620   22.1750   38.2820 H   0  0  0  0  0  0  0  0  0  0  0  0
  1  2  1  0  0  0  0
  1 14  1  0  0  0  0
  3  1  1  0  0  0  0
  4  1  1  0  0  0  0
  4  5  1  0  0  0  0
  6  4  1  0  0  0  0
  7  4  1  0  0  0  0
  7  8  1  0  0  0  0
  9  8  1  0  0  0  0
 10  9  1  0  0  0  0
 11 10  1  0  0  0  0
 12 13  1  0  0  0  0
 12 10  1  0  0  0  0
 13  7  1  0  0  0  0
 14 19  1  0  0  0  0
 15 21  1  0  0  0  0
 15 16  1  0  0  0  0
 16 22  1  0  0  0  0
 17 23  1  0  0  0  0
 17 16  2  0  0  0  0
 18 17  1  0  0  0  0
 19 20  1  0  0  0  0
 19 18  2  0  0  0  0
 20 15  2  0  0  0  0
M  END
>  <minimizedAffinity>
-3.9514215

$$$$

 OpenBabel03272509483D

 23 24  0  0  0  0  0  0  0  0999 V2000
   37.8910   22.3430   35.4270 C   0  0  0  0  0  0  0  0  0  0  0  0
   36.9380   22.6790   35.8580 H   0  0  0  0  0  0  0  0  0  0  0  0
   38.0710   21.2870   35.6990 H   0  0  0  0  0  0  0  0  0  0  0  0
   37.8100   22.5230   33.9310 C   0  0  0  0  0  0  0  0  0  0  0  0
   37.6310   23.6100   33.7540 H   0  0  0  0  0  0  0  0  0  0  0  0
   38.8330   22.2700   33.5470 H   0  0  0  0  0  0  0  0  0  0  0  0
   36.8740   21.6730   33.3040 N   0  0  0  0  0  0  0  0  0  0  0  0
   36.1020   20.8100   34.1170 C   0  0  0  0  0  2  0  0  0  0  0  0
   35.2650   19.8870   33.2840 C   0  0  0  0  0  2  0  0  0  0  0  0
   34.7220   20.5470   32.0410 C   0  0  0  0  0  3  0  0  0  0  0  0
   34.2490   19.7440   31.4390 H   0  0  0  0  0  0  0  0  0  0  0  0
   35.8010   21.1720   31.2100 C   0  0  0  0  0  2  0  0  0  0  0  0
   37.1300   21.2570   31.9740 C   0  0  0  0  0  2  0  0  0  0  0  0
   38.9800   23.0990   35.9320 O   0  0  0  0  0  0  0  0  0  0  0  0
   38.1980   26.6340   36.0800 C   0  0  0  0  0  0  0  0  0  0  0  0
   39.2830   27.1560   35.3650 C   0  0  0  0  0  0  0  0  0  0  0  0
   40.2270   26.2580   34.8720 C   0  0  0  0  0  0  0  0  0  0  0  0
   40.0060   24.9230   35.1330 N   0  0  0  0  0  0  0  0  0  0  0  0
   38.9600   24.4630   35.8170 C   0  0  0  0  0  0  0  0  0  0  0  0
   38.0390   25.3320   36.2990 N   0  0  0  0  0  0  0  0  0  0  0  0
   37.4560   27.3340   36.4660 H   0  0  0  0  0  0  0  0  0  0  0  0
   39.3790   28.2320   35.2080 H   0  0  0  0  0  0  0  0  0  0  0  0
   41.0810   26.6110   34.3160 H   0  0  0  0  0  0  0  0  0  0  0  0
  1  3  1  0  0  0  0
  1  2  1  0  0  0  0
  1 14  1  0  0  0  0
  4  1  1  0  0  0  0
  5  4  1  0  0  0  0
  6  4  1  0  0  0  0
  7  4  1  0  0  0  0
  7  8  1  0  0  0  0
  9  8  1  0  0  0  0
 10  9  1  0  0  0  0
 11 10  1  0  0  0  0
 12 13  1  0  0  0  0
 12 10  1  0  0  0  0
 13  7  1  0  0  0  0
 15 20  1  0  0  0  0
 15 21  1  0  0  0  0
 16 15  2  0  0  0  0
 17 18  2  0  0  0  0
 17 16  1  0  0  0  0
 18 19  1  0  0  0  0
 19 14  1  0  0  0  0
 19 20  2  0  0  0  0
 22 16  1  0  0  0  0
 23 17  1  0  0  0  0
M  END
>  <minimizedAffinity>
-3.93022442

$$$$

 OpenBabel03272509483D

 23 24  0  0  0  0  0  0  0  0999 V2000
   36.7430   25.0930   31.8400 C   0  0  0  0  0  0  0  0  0  0  0  0
   36.2670   25.0460   32.8290 H   0  0  0  0  0  0  0  0  0  0  0  0
   36.0940   25.6530   31.1410 H   0  0  0  0  0  0  0  0  0  0  0  0
   38.0850   25.7620   32.0050 C   0  0  0  0  0  0  0  0  0  0  0  0
   38.8540   24.9860   31.7790 H   0  0  0  0  0  0  0  0  0  0  0  0
   38.1280   26.5420   31.1990 H   0  0  0  0  0  0  0  0  0  0  0  0
   38.2560   26.3990   33.2530 N   0  0  0  0  0  0  0  0  0  0  0  0
   37.1130   26.9250   33.8990 C   0  0  0  0  0  2  0  0  0  0  0  0
   37.4900   27.6820   35.1360 C   0  0  0  0  0  2  0  0  0  0  0  0
   38.6380   27.0500   35.8840 C   0  0  0  0  0  3  0  0  0  0  0  0
   38.9220   27.7630   36.6860 H   0  0  0  0  0  0  0  0  0  0  0  0
   39.8380   26.8350   35.0120 C   0  0  0  0  0  2  0  0  0  0  0  0
   39.5000   27.0190   33.5260 C   0  0  0  0  0  2  0  0  0  0  0  0
   36.9290   23.7970   31.2940 O   0  0  0  0  0  0  0  0  0  0  0  0
   35.0270   20.9250   32.4190 C   0  0  0  0  0  0  0  0  0  0  0  0
   35.7400   20.5980   33.5800 C   0  0  0  0  0  0  0  0  0  0  0  0
   36.8380   21.3870   33.9100 C   0  0  0  0  0  0  0  0  0  0  0  0
   37.1300   22.4300   33.0570 N   0  0  0  0  0  0  0  0  0  0  0  0
   36.4280   22.7110   31.9610 C   0  0  0  0  0  0  0  0  0  0  0  0
   35.3580   21.9470   31.6350 N   0  0  0  0  0  0  0  0  0  0  0  0
   34.1660   20.3100   32.1580 H   0  0  0  0  0  0  0  0  0  0  0  0
   35.4370   19.7500   34.1960 H   0  0  0  0  0  0  0  0  0  0  0  0
   37.4200   21.1760   34.7930 H   0  0  0  0  0  0  0  0  0  0  0  0
  1  4  1  0  0  0  0
  1  2  1  0  0  0  0
  3  1  1  0  0  0  0
  4  7  1  0  0  0  0
  5  4  1  0  0  0  0
  6  4  1  0  0  0  0
  7 13  1  0  0  0  0
  7  8  1  0  0  0  0
  8  9  1  0  0  0  0
  9 10  1  0  0  0  0
 10 11  1  0  0  0  0
 12 10  1  0  0  0  0
 13 12  1  0  0  0  0
 14  1  1  0  0  0  0
 14 19  1  0  0  0  0
 15 16  1  0  0  0  0
 16 17  2  0  0  0  0
 16 22  1  0  0  0  0
 17 23  1  0  0  0  0
 18 17  1  0  0  0  0
 19 18  2  0  0  0  0
 20 19  1  0  0  0  0
 20 15  2  0  0  0  0
 21 15  1  0  0  0  0
M  END
>  <minimizedAffinity>
-3.91847157

$$$$

 OpenBabel03272509483D

 23 24  0  0  0  0  0  0  0  0999 V2000
   38.1550   25.9690   34.3800 C   0  0  0  0  0  0  0  0  0  0  0  0
   39.0340   25.3480   34.1550 H   0  0  0  0  0  0  0  0  0  0  0  0
   38.4630   27.0260   34.4820 H   0  0  0  0  0  0  0  0  0  0  0  0
   37.1620   25.7870   33.2600 C   0  0  0  0  0  0  0  0  0  0  0  0
   37.5970   25.0210   32.5740 H   0  0  0  0  0  0  0  0  0  0  0  0
   36.2490   25.3470   33.7420 H   0  0  0  0  0  0  0  0  0  0  0  0
   36.7940   26.9910   32.6220 N   0  0  0  0  0  0  0  0  0  0  0  0
   36.4990   28.1150   33.4300 C   0  0  0  0  0  2  0  0  0  0  0  0
   35.9970   29.2600   32.6030 C   0  0  0  0  0  2  0  0  0  0  0  0
   36.6900   29.3680   31.2670 C   0  0  0  0  0  3  0  0  0  0  0  0
   36.1450   30.1440   30.6920 H   0  0  0  0  0  0  0  0  0  0  0  0
   36.6290   28.0890   30.4870 C   0  0  0  0  0  2  0  0  0  0  0  0
   36.1590   26.9150   31.3570 C   0  0  0  0  0  2  0  0  0  0  0  0
   37.5540   25.5870   35.6080 O   0  0  0  0  0  0  0  0  0  0  0  0
   38.6260   23.4090   38.2980 C   0  0  0  0  0  0  0  0  0  0  0  0
   39.7590   22.8330   37.7110 C   0  0  0  0  0  0  0  0  0  0  0  0
   40.0920   23.2280   36.4180 C   0  0  0  0  0  0  0  0  0  0  0  0
   39.2670   24.1600   35.8240 N   0  0  0  0  0  0  0  0  0  0  0  0
   38.1960   24.6870   36.4150 C   0  0  0  0  0  0  0  0  0  0  0  0
   37.8680   24.3060   37.6730 N   0  0  0  0  0  0  0  0  0  0  0  0
   38.3630   23.1030   39.3110 H   0  0  0  0  0  0  0  0  0  0  0  0
   40.3540   22.0980   38.2560 H   0  0  0  0  0  0  0  0  0  0  0  0
   40.9540   22.8130   35.9220 H   0  0  0  0  0  0  0  0  0  0  0  0
  1  3  1  0  0  0  0
  1 14  1  0  0  0  0
  2  1  1  0  0  0  0
  4  6  1  0  0  0  0
  4  1  1  0  0  0  0
  5  4  1  0  0  0  0
  7  4  1  0  0  0  0
  7  8  1  0  0  0  0
  9  8  1  0  0  0  0
 10  9  1  0  0  0  0
 11 10  1  0  0  0  0
 12 10  1  0  0  0  0
 12 13  1  0  0  0  0
 13  7  1  0  0  0  0
 14 19  1  0  0  0  0
 15 21  1  0  0  0  0
 16 22  1  0  0  0  0
 16 15  1  0  0  0  0
 17 16  2  0  0  0  0
 18 19  2  0  0  0  0
 18 17  1  0  0  0  0
 19 20  1  0  0  0  0
 20 15  2  0  0  0  0
 23 17  1  0  0  0  0
M  END
>  <minimizedAffinity>
-3.90596557

$$$$
