
 OpenBabel03262523393D

 43 46  0  0  1  0  0  0  0  0999 V2000
   36.6590   23.7580   30.9070 C   0  0  2  0  0  0  0  0  0  0  0  0
   37.7350   24.4900   31.6250 C   0  0  0  0  0  0  0  0  0  0  0  0
   37.1970   25.4540   32.6850 C   0  0  2  0  0  0  0  0  0  0  0  0
   36.3600   26.5060   31.9990 C   0  0  0  0  0  0  0  0  0  0  0  0
   35.3480   25.8970   31.0460 C   0  0  0  0  0  0  0  0  0  0  0  0
   35.3080   24.3960   31.1480 C   0  0  0  0  0  0  0  0  0  0  0  0
   36.7770   23.7400   29.7900 H   0  0  0  0  0  0  0  0  0  0  0  0
   38.5920   24.0060   32.0010 H   0  0  0  0  0  0  0  0  0  0  0  0
   38.1420   25.2240   30.8370 H   0  0  0  0  0  0  0  0  0  0  0  0
   36.5030   24.8490   33.3020 H   0  0  0  0  0  0  0  0  0  0  0  0
   37.0440   27.1320   31.3790 H   0  0  0  0  0  0  0  0  0  0  0  0
   35.8460   27.1400   32.7270 H   0  0  0  0  0  0  0  0  0  0  0  0
   35.5400   26.1700   29.9910 H   0  0  0  0  0  0  0  0  0  0  0  0
   34.3260   26.2530   31.3040 H   0  0  0  0  0  0  0  0  0  0  0  0
   34.8670   24.0700   32.1290 H   0  0  0  0  0  0  0  0  0  0  0  0
   34.6220   24.0240   30.3630 H   0  0  0  0  0  0  0  0  0  0  0  0
   38.2520   25.9690   33.5650 C   0  0  2  0  0  0  0  0  0  0  0  0
   39.1880   26.9890   32.9800 C   0  0  0  0  0  0  0  0  0  0  0  0
   40.2520   26.9950   34.0820 C   0  0  0  0  0  0  0  0  0  0  0  0
   40.3300   25.7090   34.5450 O   0  0  0  0  0  0  0  0  0  0  0  0
   39.2200   24.9900   34.1120 C   0  0  1  0  0  0  0  0  0  0  0  0
   37.7560   26.4680   34.4280 H   0  0  0  0  0  0  0  0  0  0  0  0
   38.6570   27.9670   32.9280 H   0  0  0  0  0  0  0  0  0  0  0  0
   39.5900   26.6590   32.0060 H   0  0  0  0  0  0  0  0  0  0  0  0
   40.0820   27.7630   34.8320 H   0  0  0  0  0  0  0  0  0  0  0  0
   41.2150   27.1950   33.5290 H   0  0  0  0  0  0  0  0  0  0  0  0
   39.6220   24.2380   33.4230 H   0  0  0  0  0  0  0  0  0  0  0  0
   38.7280   24.2830   35.2860 N   0  0  0  0  0  0  0  0  0  0  0  0
   39.8810   23.7410   35.9820 C   0  0  0  0  0  2  0  0  0  0  0  0
   39.4760   22.8500   37.1310 C   0  0  0  0  0  2  0  0  0  0  0  0
   38.1500   23.2750   37.7250 C   0  0  0  0  0  3  0  0  0  0  0  0
   37.3290   22.8290   37.1400 H   0  0  0  0  0  0  0  0  0  0  0  0
   38.0720   24.7800   37.5850 C   0  0  0  0  0  2  0  0  0  0  0  0
   37.8770   25.0900   36.1200 C   0  0  0  0  0  2  0  0  0  0  0  0
   36.5500   22.3410   31.3210 C   0  0  0  0  0  0  0  0  0  0  0  0
   35.3940   22.0040   32.0250 C   0  0  0  0  0  0  0  0  0  0  0  0
   35.2250   20.6940   32.4200 C   0  0  0  0  0  0  0  0  0  0  0  0
   36.2020   19.7680   32.1040 N   0  0  0  0  0  0  0  0  0  0  0  0
   37.3150   20.1320   31.4170 C   0  0  0  0  0  0  0  0  0  0  0  0
   37.4640   21.3980   31.0440 N   0  0  0  0  0  0  0  0  0  0  0  0
   34.5130   22.5010   32.3930 H   0  0  0  0  0  0  0  0  0  0  0  0
   34.4450   20.1850   32.9600 H   0  0  0  0  0  0  0  0  0  0  0  0
   38.0800   19.4110   31.1700 H   0  0  0  0  0  0  0  0  0  0  0  0
  1  7  1  6  0  0  0
  1  6  1  0  0  0  0
  1 35  1  0  0  0  0
  1  2  1  0  0  0  0
  2  8  1  0  0  0  0
  2  3  1  0  0  0  0
  3 10  1  1  0  0  0
  3 17  1  0  0  0  0
  4  3  1  0  0  0  0
  4 12  1  0  0  0  0
  5  6  1  0  0  0  0
  5 14  1  0  0  0  0
  5  4  1  0  0  0  0
  6 15  1  0  0  0  0
  9  2  1  0  0  0  0
 11  4  1  0  0  0  0
 13  5  1  0  0  0  0
 16  6  1  0  0  0  0
 17 21  1  0  0  0  0
 17 22  1  1  0  0  0
 18 17  1  0  0  0  0
 18 19  1  0  0  0  0
 19 20  1  0  0  0  0
 19 25  1  0  0  0  0
 21 27  1  6  0  0  0
 21 20  1  0  0  0  0
 21 28  1  0  0  0  0
 23 18  1  0  0  0  0
 24 18  1  0  0  0  0
 26 19  1  0  0  0  0
 28 29  1  0  0  0  0
 28 34  1  0  0  0  0
 29 30  1  0  0  0  0
 30 31  1  0  0  0  0
 32 31  1  0  0  0  0
 33 31  1  0  0  0  0
 34 33  1  0  0  0  0
 35 36  1  0  0  0  0
 36 41  1  0  0  0  0
 36 37  2  0  0  0  0
 37 42  1  0  0  0  0
 38 37  1  0  0  0  0
 39 38  2  0  0  0  0
 40 35  2  0  0  0  0
 40 39  1  0  0  0  0
 43 39  1  0  0  0  0
M  END
>  <minimizedAffinity>
-5.88261223

$$$$

 OpenBabel03262523393D

 43 46  0  0  1  0  0  0  0  0999 V2000
   35.7130   28.6610   33.8710 C   0  0  2  0  0  0  0  0  0  0  0  0
   36.7390   27.8140   34.5350 C   0  0  0  0  0  0  0  0  0  0  0  0
   37.8570   27.3790   33.5870 C   0  0  2  0  0  0  0  0  0  0  0  0
   37.2590   26.5290   32.4920 C   0  0  0  0  0  0  0  0  0  0  0  0
   36.0420   27.1850   31.8640 C   0  0  0  0  0  0  0  0  0  0  0  0
   35.8360   28.5890   32.3650 C   0  0  0  0  0  0  0  0  0  0  0  0
   34.6520   28.3610   34.0910 H   0  0  0  0  0  0  0  0  0  0  0  0
   37.1550   28.0620   35.4710 H   0  0  0  0  0  0  0  0  0  0  0  0
   36.1950   26.8160   34.7180 H   0  0  0  0  0  0  0  0  0  0  0  0
   38.2120   28.3130   33.1070 H   0  0  0  0  0  0  0  0  0  0  0  0
   36.9040   25.5790   32.9550 H   0  0  0  0  0  0  0  0  0  0  0  0
   37.9960   26.3040   31.7160 H   0  0  0  0  0  0  0  0  0  0  0  0
   35.1130   26.6110   32.0410 H   0  0  0  0  0  0  0  0  0  0  0  0
   36.1830   27.2650   30.7640 H   0  0  0  0  0  0  0  0  0  0  0  0
   36.6390   29.2750   31.9830 H   0  0  0  0  0  0  0  0  0  0  0  0
   34.8850   28.9610   31.9380 H   0  0  0  0  0  0  0  0  0  0  0  0
   38.9940   26.7770   34.2950 C   0  0  2  0  0  0  0  0  0  0  0  0
   40.3660   27.2390   33.8940 C   0  0  0  0  0  0  0  0  0  0  0  0
   41.1960   26.1750   34.6180 C   0  0  0  0  0  0  0  0  0  0  0  0
   40.4690   25.0170   34.5580 O   0  0  0  0  0  0  0  0  0  0  0  0
   39.1580   25.3090   34.1940 C   0  0  1  0  0  0  0  0  0  0  0  0
   38.8890   27.0300   35.3740 H   0  0  0  0  0  0  0  0  0  0  0  0
   40.5400   28.2500   34.3290 H   0  0  0  0  0  0  0  0  0  0  0  0
   40.5020   27.2080   32.7980 H   0  0  0  0  0  0  0  0  0  0  0  0
   41.5160   26.4870   35.6080 H   0  0  0  0  0  0  0  0  0  0  0  0
   42.0920   26.0260   33.9470 H   0  0  0  0  0  0  0  0  0  0  0  0
   39.0320   24.8530   33.2050 H   0  0  0  0  0  0  0  0  0  0  0  0
   38.3190   24.5670   35.1230 N   0  0  0  0  0  0  0  0  0  0  0  0
   38.7570   23.1830   35.0960 C   0  0  0  0  0  2  0  0  0  0  0  0
   37.8490   22.2890   35.9060 C   0  0  0  0  0  2  0  0  0  0  0  0
   37.2140   23.0380   37.0580 C   0  0  0  0  0  3  0  0  0  0  0  0
   36.3130   23.5640   36.6990 H   0  0  0  0  0  0  0  0  0  0  0  0
   38.2200   24.0730   37.5130 C   0  0  0  0  0  2  0  0  0  0  0  0
   38.2920   25.1380   36.4440 C   0  0  0  0  0  2  0  0  0  0  0  0
   35.8110   30.0890   34.2480 C   0  0  0  0  0  0  0  0  0  0  0  0
   35.6340   31.0020   33.2080 C   0  0  0  0  0  0  0  0  0  0  0  0
   35.6940   32.3470   33.5000 C   0  0  0  0  0  0  0  0  0  0  0  0
   35.9260   32.7400   34.8050 N   0  0  0  0  0  0  0  0  0  0  0  0
   36.0940   31.8230   35.7920 C   0  0  0  0  0  0  0  0  0  0  0  0
   36.0340   30.5290   35.4960 N   0  0  0  0  0  0  0  0  0  0  0  0
   35.4520   30.9740   32.1470 H   0  0  0  0  0  0  0  0  0  0  0  0
   35.5940   33.2340   32.8970 H   0  0  0  0  0  0  0  0  0  0  0  0
   36.2760   32.1280   36.8120 H   0  0  0  0  0  0  0  0  0  0  0  0
  1  7  1  1  0  0  0
  1 35  1  0  0  0  0
  1  2  1  0  0  0  0
  2  9  1  0  0  0  0
  2  8  1  0  0  0  0
  3 10  1  6  0  0  0
  3 17  1  0  0  0  0
  3  2  1  0  0  0  0
  4 11  1  0  0  0  0
  4  3  1  0  0  0  0
  5 13  1  0  0  0  0
  5  6  1  0  0  0  0
  5  4  1  0  0  0  0
  6  1  1  0  0  0  0
 12  4  1  0  0  0  0
 14  5  1  0  0  0  0
 15  6  1  0  0  0  0
 16  6  1  0  0  0  0
 17 22  1  1  0  0  0
 18 17  1  0  0  0  0
 18 23  1  0  0  0  0
 18 19  1  0  0  0  0
 19 25  1  0  0  0  0
 20 19  1  0  0  0  0
 21 27  1  6  0  0  0
 21 17  1  0  0  0  0
 21 20  1  0  0  0  0
 21 28  1  0  0  0  0
 24 18  1  0  0  0  0
 26 19  1  0  0  0  0
 28 34  1  0  0  0  0
 29 28  1  0  0  0  0
 29 30  1  0  0  0  0
 30 31  1  0  0  0  0
 31 33  1  0  0  0  0
 32 31  1  0  0  0  0
 34 33  1  0  0  0  0
 35 40  1  0  0  0  0
 36 37  1  0  0  0  0
 36 35  2  0  0  0  0
 37 38  2  0  0  0  0
 38 39  1  0  0  0  0
 39 43  1  0  0  0  0
 40 39  2  0  0  0  0
 41 36  1  0  0  0  0
 42 37  1  0  0  0  0
M  END
>  <minimizedAffinity>
-5.66706419

$$$$

 OpenBabel03262523393D

 43 46  0  0  1  0  0  0  0  0999 V2000
   37.4810   27.0130   33.1410 C   0  0  2  0  0  0  0  0  0  0  0  0
   38.9550   26.8270   33.0810 C   0  0  0  0  0  0  0  0  0  0  0  0
   39.5350   26.2390   34.3680 C   0  0  2  0  0  0  0  0  0  0  0  0
   39.2820   27.2070   35.4980 C   0  0  0  0  0  0  0  0  0  0  0  0
   37.8350   27.6640   35.5430 C   0  0  0  0  0  0  0  0  0  0  0  0
   36.9750   26.9120   34.5640 C   0  0  0  0  0  0  0  0  0  0  0  0
   37.1250   28.0150   32.7780 H   0  0  0  0  0  0  0  0  0  0  0  0
   39.4330   26.3870   32.2520 H   0  0  0  0  0  0  0  0  0  0  0  0
   39.3690   27.9010   33.1150 H   0  0  0  0  0  0  0  0  0  0  0  0
   38.9240   25.3380   34.5780 H   0  0  0  0  0  0  0  0  0  0  0  0
   39.8970   28.1170   35.3090 H   0  0  0  0  0  0  0  0  0  0  0  0
   39.5610   26.7730   36.4630 H   0  0  0  0  0  0  0  0  0  0  0  0
   37.7260   28.7470   35.3430 H   0  0  0  0  0  0  0  0  0  0  0  0
   37.4080   27.4630   36.5500 H   0  0  0  0  0  0  0  0  0  0  0  0
   36.8460   25.8410   34.8800 H   0  0  0  0  0  0  0  0  0  0  0  0
   35.9650   27.3630   34.5880 H   0  0  0  0  0  0  0  0  0  0  0  0
   40.9310   25.8100   34.2120 C   0  0  2  0  0  0  0  0  0  0  0  0
   41.6700   26.3290   33.0110 C   0  0  0  0  0  0  0  0  0  0  0  0
   42.9010   25.4200   33.0800 C   0  0  0  0  0  0  0  0  0  0  0  0
   42.4580   24.2100   33.5400 O   0  0  0  0  0  0  0  0  0  0  0  0
   41.1850   24.3570   34.0850 C   0  0  1  0  0  0  0  0  0  0  0  0
   41.4950   26.1740   35.1000 H   0  0  0  0  0  0  0  0  0  0  0  0
   41.9450   27.3920   33.1970 H   0  0  0  0  0  0  0  0  0  0  0  0
   41.0900   26.1850   32.0830 H   0  0  0  0  0  0  0  0  0  0  0  0
   43.7280   25.8650   33.6270 H   0  0  0  0  0  0  0  0  0  0  0  0
   43.1860   25.2660   31.9990 H   0  0  0  0  0  0  0  0  0  0  0  0
   40.5270   23.7840   33.4210 H   0  0  0  0  0  0  0  0  0  0  0  0
   41.2230   23.6620   35.3630 N   0  0  0  0  0  0  0  0  0  0  0  0
   39.9700   22.9430   35.5050 C   0  0  0  0  0  2  0  0  0  0  0  0
   39.8340   22.3130   36.8710 C   0  0  0  0  0  2  0  0  0  0  0  0
   41.1830   21.9480   37.4520 C   0  0  0  0  0  3  0  0  0  0  0  0
   41.6190   22.8330   37.9450 H   0  0  0  0  0  0  0  0  0  0  0  0
   42.0720   21.5660   36.2880 C   0  0  0  0  0  2  0  0  0  0  0  0
   42.3860   22.8300   35.5230 C   0  0  0  0  0  2  0  0  0  0  0  0
   36.7390   26.0110   32.3430 C   0  0  0  0  0  0  0  0  0  0  0  0
   37.1440   24.6870   32.5090 C   0  0  0  0  0  0  0  0  0  0  0  0
   36.4770   23.7060   31.8080 C   0  0  0  0  0  0  0  0  0  0  0  0
   35.4380   24.0680   30.9710 N   0  0  0  0  0  0  0  0  0  0  0  0
   35.0710   25.3690   30.8350 C   0  0  0  0  0  0  0  0  0  0  0  0
   35.7230   26.3040   31.5170 N   0  0  0  0  0  0  0  0  0  0  0  0
   37.8900   24.1460   33.0650 H   0  0  0  0  0  0  0  0  0  0  0  0
   36.5880   22.6350   31.7570 H   0  0  0  0  0  0  0  0  0  0  0  0
   34.2590   25.6540   30.1820 H   0  0  0  0  0  0  0  0  0  0  0  0
  1  7  1  6  0  0  0
  1  6  1  0  0  0  0
  2  9  1  0  0  0  0
  2  1  1  0  0  0  0
  2  3  1  0  0  0  0
  3 10  1  1  0  0  0
  3  4  1  0  0  0  0
  4  5  1  0  0  0  0
  4 12  1  0  0  0  0
  5 14  1  0  0  0  0
  6 16  1  0  0  0  0
  6 15  1  0  0  0  0
  6  5  1  0  0  0  0
  8  2  1  0  0  0  0
 11  4  1  0  0  0  0
 13  5  1  0  0  0  0
 17  3  1  0  0  0  0
 17 22  1  1  0  0  0
 18 19  1  0  0  0  0
 18 23  1  0  0  0  0
 18 17  1  0  0  0  0
 19 20  1  0  0  0  0
 19 25  1  0  0  0  0
 20 21  1  0  0  0  0
 21 27  1  6  0  0  0
 21 17  1  0  0  0  0
 21 28  1  0  0  0  0
 24 18  1  0  0  0  0
 26 19  1  0  0  0  0
 28 29  1  0  0  0  0
 28 34  1  0  0  0  0
 29 30  1  0  0  0  0
 30 31  1  0  0  0  0
 31 32  1  0  0  0  0
 33 31  1  0  0  0  0
 34 33  1  0  0  0  0
 35 36  1  0  0  0  0
 35  1  1  0  0  0  0
 36 41  1  0  0  0  0
 37 36  2  0  0  0  0
 38 37  1  0  0  0  0
 39 38  2  0  0  0  0
 39 40  1  0  0  0  0
 40 35  2  0  0  0  0
 42 37  1  0  0  0  0
 43 39  1  0  0  0  0
M  END
>  <minimizedAffinity>
-5.5948348

$$$$

 OpenBabel03262523393D

 43 46  0  0  1  0  0  0  0  0999 V2000
   38.7340   26.2430   35.1120 C   0  0  2  0  0  0  0  0  0  0  0  0
   37.6620   26.1230   34.0890 C   0  0  0  0  0  0  0  0  0  0  0  0
   38.1960   25.7480   32.7060 C   0  0  2  0  0  0  0  0  0  0  0  0
   39.1100   26.8500   32.2260 C   0  0  0  0  0  0  0  0  0  0  0  0
   40.1350   27.2370   33.2770 C   0  0  0  0  0  0  0  0  0  0  0  0
   40.1010   26.3150   34.4660 C   0  0  0  0  0  0  0  0  0  0  0  0
   38.6660   27.1670   35.7490 H   0  0  0  0  0  0  0  0  0  0  0  0
   36.7670   25.5970   34.2700 H   0  0  0  0  0  0  0  0  0  0  0  0
   37.3250   27.2110   33.9150 H   0  0  0  0  0  0  0  0  0  0  0  0
   38.8330   24.8560   32.8720 H   0  0  0  0  0  0  0  0  0  0  0  0
   38.4840   27.7540   32.0440 H   0  0  0  0  0  0  0  0  0  0  0  0
   39.6200   26.5670   31.3010 H   0  0  0  0  0  0  0  0  0  0  0  0
   40.0030   28.2740   33.6360 H   0  0  0  0  0  0  0  0  0  0  0  0
   41.1590   27.1560   32.8510 H   0  0  0  0  0  0  0  0  0  0  0  0
   40.4820   25.2930   34.1940 H   0  0  0  0  0  0  0  0  0  0  0  0
   40.8030   26.7150   35.2210 H   0  0  0  0  0  0  0  0  0  0  0  0
   37.1270   25.3710   31.7730 C   0  0  2  0  0  0  0  0  0  0  0  0
   36.0840   26.4120   31.4790 C   0  0  0  0  0  0  0  0  0  0  0  0
   35.0600   25.5260   30.7630 C   0  0  0  0  0  0  0  0  0  0  0  0
   35.1140   24.3050   31.3780 O   0  0  0  0  0  0  0  0  0  0  0  0
   36.2710   24.2220   32.1480 C   0  0  1  0  0  0  0  0  0  0  0  0
   37.6030   25.1310   30.7960 H   0  0  0  0  0  0  0  0  0  0  0  0
   36.5210   27.1640   30.7830 H   0  0  0  0  0  0  0  0  0  0  0  0
   35.6820   26.8580   32.4050 H   0  0  0  0  0  0  0  0  0  0  0  0
   35.1830   25.5230   29.6830 H   0  0  0  0  0  0  0  0  0  0  0  0
   34.0650   25.9800   31.0410 H   0  0  0  0  0  0  0  0  0  0  0  0
   35.9170   24.1730   33.1840 H   0  0  0  0  0  0  0  0  0  0  0  0
   36.8630   22.9310   31.8300 N   0  0  0  0  0  0  0  0  0  0  0  0
   37.3990   22.3820   33.0620 C   0  0  0  0  0  2  0  0  0  0  0  0
   38.1800   21.1130   32.8190 C   0  0  0  0  0  2  0  0  0  0  0  0
   37.6530   20.3560   31.6190 C   0  0  0  0  0  3  0  0  0  0  0  0
   38.1070   20.7660   30.7010 H   0  0  0  0  0  0  0  0  0  0  0  0
   36.1610   20.6070   31.5650 C   0  0  0  0  0  2  0  0  0  0  0  0
   35.9580   22.0440   31.1480 C   0  0  0  0  0  2  0  0  0  0  0  0
   38.7600   25.1050   36.0580 C   0  0  0  0  0  0  0  0  0  0  0  0
   39.6260   24.0630   35.7270 C   0  0  0  0  0  0  0  0  0  0  0  0
   39.7090   22.9840   36.5800 C   0  0  0  0  0  0  0  0  0  0  0  0
   38.9360   22.9750   37.7260 N   0  0  0  0  0  0  0  0  0  0  0  0
   38.1030   24.0070   38.0170 C   0  0  0  0  0  0  0  0  0  0  0  0
   38.0330   25.0410   37.1840 N   0  0  0  0  0  0  0  0  0  0  0  0
   40.3100   23.8190   34.9330 H   0  0  0  0  0  0  0  0  0  0  0  0
   40.2840   22.0740   36.5590 H   0  0  0  0  0  0  0  0  0  0  0  0
   37.4970   24.0020   38.9110 H   0  0  0  0  0  0  0  0  0  0  0  0
  1  7  1  1  0  0  0
  1 35  1  0  0  0  0
  2  8  1  0  0  0  0
  2  1  1  0  0  0  0
  3 10  1  1  0  0  0
  3  2  1  0  0  0  0
  4  3  1  0  0  0  0
  4  5  1  0  0  0  0
  5 13  1  0  0  0  0
  5  6  1  0  0  0  0
  6  1  1  0  0  0  0
  6 16  1  0  0  0  0
  9  2  1  0  0  0  0
 11  4  1  0  0  0  0
 12  4  1  0  0  0  0
 14  5  1  0  0  0  0
 15  6  1  0  0  0  0
 17 22  1  6  0  0  0
 17 21  1  0  0  0  0
 17  3  1  0  0  0  0
 18 17  1  0  0  0  0
 18 24  1  0  0  0  0
 19 26  1  0  0  0  0
 19 20  1  0  0  0  0
 19 18  1  0  0  0  0
 20 21  1  0  0  0  0
 21 27  1  1  0  0  0
 23 18  1  0  0  0  0
 25 19  1  0  0  0  0
 28 21  1  0  0  0  0
 28 29  1  0  0  0  0
 30 29  1  0  0  0  0
 31 30  1  0  0  0  0
 32 31  1  0  0  0  0
 33 31  1  0  0  0  0
 34 33  1  0  0  0  0
 34 28  1  0  0  0  0
 35 40  1  0  0  0  0
 36 35  2  0  0  0  0
 36 37  1  0  0  0  0
 37 38  2  0  0  0  0
 38 39  1  0  0  0  0
 39 43  1  0  0  0  0
 40 39  2  0  0  0  0
 41 36  1  0  0  0  0
 42 37  1  0  0  0  0
M  END
>  <minimizedAffinity>
-5.55368614

$$$$

 OpenBabel03262523393D

 43 46  0  0  1  0  0  0  0  0999 V2000
   38.4880   21.8910   34.3770 C   0  0  2  0  0  0  0  0  0  0  0  0
   38.8230   22.9140   33.3520 C   0  0  0  0  0  0  0  0  0  0  0  0
   37.5890   23.6120   32.7790 C   0  0  2  0  0  0  0  0  0  0  0  0
   36.7340   22.5840   32.0790 C   0  0  0  0  0  0  0  0  0  0  0  0
   36.4920   21.3600   32.9440 C   0  0  0  0  0  0  0  0  0  0  0  0
   37.0150   21.5460   34.3430 C   0  0  0  0  0  0  0  0  0  0  0  0
   39.0190   20.9090   34.2430 H   0  0  0  0  0  0  0  0  0  0  0  0
   39.5890   23.6240   33.4940 H   0  0  0  0  0  0  0  0  0  0  0  0
   39.1730   22.2930   32.4470 H   0  0  0  0  0  0  0  0  0  0  0  0
   37.0130   23.9560   33.6610 H   0  0  0  0  0  0  0  0  0  0  0  0
   37.2940   22.2320   31.1810 H   0  0  0  0  0  0  0  0  0  0  0  0
   35.7760   23.0090   31.7670 H   0  0  0  0  0  0  0  0  0  0  0  0
   36.9460   20.4440   32.5210 H   0  0  0  0  0  0  0  0  0  0  0  0
   35.3990   21.1780   33.0430 H   0  0  0  0  0  0  0  0  0  0  0  0
   36.4010   22.3010   34.9060 H   0  0  0  0  0  0  0  0  0  0  0  0
   36.8880   20.5860   34.8790 H   0  0  0  0  0  0  0  0  0  0  0  0
   37.9310   24.7920   31.9760 C   0  0  2  0  0  0  0  0  0  0  0  0
   38.2920   24.5540   30.5370 C   0  0  0  0  0  0  0  0  0  0  0  0
   38.8560   25.9370   30.2010 C   0  0  0  0  0  0  0  0  0  0  0  0
   39.4840   26.3810   31.3330 O   0  0  0  0  0  0  0  0  0  0  0  0
   39.0880   25.6030   32.4190 C   0  0  1  0  0  0  0  0  0  0  0  0
   37.0400   25.4590   31.9610 H   0  0  0  0  0  0  0  0  0  0  0  0
   37.3570   24.3510   29.9670 H   0  0  0  0  0  0  0  0  0  0  0  0
   39.0470   23.7540   30.4340 H   0  0  0  0  0  0  0  0  0  0  0  0
   38.1120   26.6060   29.7740 H   0  0  0  0  0  0  0  0  0  0  0  0
   39.6680   25.7250   29.4470 H   0  0  0  0  0  0  0  0  0  0  0  0
   39.9940   25.0670   32.7260 H   0  0  0  0  0  0  0  0  0  0  0  0
   38.7630   26.5460   33.4780 N   0  0  0  0  0  0  0  0  0  0  0  0
   37.3190   26.6920   33.5040 C   0  0  0  0  0  2  0  0  0  0  0  0
   36.8780   27.7720   34.4620 C   0  0  0  0  0  2  0  0  0  0  0  0
   37.8450   27.9200   35.6180 C   0  0  0  0  0  3  0  0  0  0  0  0
   38.6770   28.5780   35.3160 H   0  0  0  0  0  0  0  0  0  0  0  0
   38.4080   26.5410   35.8950 C   0  0  0  0  0  2  0  0  0  0  0  0
   39.3300   26.1890   34.7520 C   0  0  0  0  0  2  0  0  0  0  0  0
   38.8000   22.3300   35.7550 C   0  0  0  0  0  0  0  0  0  0  0  0
   37.7450   22.9110   36.4580 C   0  0  0  0  0  0  0  0  0  0  0  0
   37.9680   23.3220   37.7540 C   0  0  0  0  0  0  0  0  0  0  0  0
   39.2230   23.1440   38.3070 N   0  0  0  0  0  0  0  0  0  0  0  0
   40.2280   22.5750   37.5920 C   0  0  0  0  0  0  0  0  0  0  0  0
   39.9970   22.1840   36.3440 N   0  0  0  0  0  0  0  0  0  0  0  0
   36.7130   23.1640   36.2800 H   0  0  0  0  0  0  0  0  0  0  0  0
   37.3400   23.7870   38.4960 H   0  0  0  0  0  0  0  0  0  0  0  0
   41.2090   22.4350   38.0220 H   0  0  0  0  0  0  0  0  0  0  0  0
  1  7  1  6  0  0  0
  1 35  1  0  0  0  0
  2  8  1  0  0  0  0
  2  1  1  0  0  0  0
  3  2  1  0  0  0  0
  3 10  1  1  0  0  0
  4  3  1  0  0  0  0
  4  5  1  0  0  0  0
  5 14  1  0  0  0  0
  5  6  1  0  0  0  0
  6  1  1  0  0  0  0
  6 16  1  0  0  0  0
  6 15  1  0  0  0  0
  9  2  1  0  0  0  0
 11  4  1  0  0  0  0
 12  4  1  0  0  0  0
 13  5  1  0  0  0  0
 17 22  1  1  0  0  0
 17 21  1  0  0  0  0
 17  3  1  0  0  0  0
 18 17  1  0  0  0  0
 19 18  1  0  0  0  0
 19 20  1  0  0  0  0
 20 21  1  0  0  0  0
 21 27  1  1  0  0  0
 21 28  1  0  0  0  0
 23 18  1  0  0  0  0
 24 18  1  0  0  0  0
 25 19  1  0  0  0  0
 26 19  1  0  0  0  0
 28 29  1  0  0  0  0
 28 34  1  0  0  0  0
 29 30  1  0  0  0  0
 30 31  1  0  0  0  0
 31 33  1  0  0  0  0
 32 31  1  0  0  0  0
 34 33  1  0  0  0  0
 35 40  2  0  0  0  0
 35 36  1  0  0  0  0
 36 37  2  0  0  0  0
 37 38  1  0  0  0  0
 37 42  1  0  0  0  0
 39 43  1  0  0  0  0
 39 38  2  0  0  0  0
 40 39  1  0  0  0  0
 41 36  1  0  0  0  0
M  END
>  <minimizedAffinity>
-5.51866055

$$$$

 OpenBabel03262523393D

 43 46  0  0  1  0  0  0  0  0999 V2000
   37.4060   26.9000   33.2410 C   0  0  2  0  0  0  0  0  0  0  0  0
   38.8580   27.0030   32.9440 C   0  0  0  0  0  0  0  0  0  0  0  0
   39.7370   26.3870   34.0340 C   0  0  2  0  0  0  0  0  0  0  0  0
   39.5180   27.1500   35.3180 C   0  0  0  0  0  0  0  0  0  0  0  0
   38.0430   27.3170   35.6370 C   0  0  0  0  0  0  0  0  0  0  0  0
   37.1690   26.5370   34.6920 C   0  0  0  0  0  0  0  0  0  0  0  0
   36.8310   27.8530   33.0830 H   0  0  0  0  0  0  0  0  0  0  0  0
   39.2580   26.7620   31.9990 H   0  0  0  0  0  0  0  0  0  0  0  0
   39.0870   28.1240   33.0740 H   0  0  0  0  0  0  0  0  0  0  0  0
   39.3290   25.3690   34.1950 H   0  0  0  0  0  0  0  0  0  0  0  0
   39.9310   28.1750   35.1780 H   0  0  0  0  0  0  0  0  0  0  0  0
   40.0230   26.6650   36.1580 H   0  0  0  0  0  0  0  0  0  0  0  0
   37.7220   28.3750   35.6150 H   0  0  0  0  0  0  0  0  0  0  0  0
   37.8300   26.9220   36.6540 H   0  0  0  0  0  0  0  0  0  0  0  0
   37.2770   25.4320   34.8630 H   0  0  0  0  0  0  0  0  0  0  0  0
   36.1160   26.7840   34.9270 H   0  0  0  0  0  0  0  0  0  0  0  0
   41.1380   26.2500   33.6180 C   0  0  2  0  0  0  0  0  0  0  0  0
   41.5930   27.1100   32.4730 C   0  0  0  0  0  0  0  0  0  0  0  0
   42.9410   26.4380   32.1930 C   0  0  0  0  0  0  0  0  0  0  0  0
   42.7610   25.1030   32.4370 O   0  0  0  0  0  0  0  0  0  0  0  0
   41.5820   24.9160   33.1540 C   0  0  1  0  0  0  0  0  0  0  0  0
   41.7750   26.5340   34.4860 H   0  0  0  0  0  0  0  0  0  0  0  0
   41.7320   28.1500   32.8450 H   0  0  0  0  0  0  0  0  0  0  0  0
   40.9020   27.0430   31.6140 H   0  0  0  0  0  0  0  0  0  0  0  0
   43.7680   26.9120   32.7150 H   0  0  0  0  0  0  0  0  0  0  0  0
   43.0710   26.5440   31.0770 H   0  0  0  0  0  0  0  0  0  0  0  0
   40.9200   24.3720   32.4710 H   0  0  0  0  0  0  0  0  0  0  0  0
   41.9240   24.0100   34.2400 N   0  0  0  0  0  0  0  0  0  0  0  0
   42.6420   24.7800   35.2400 C   0  0  0  0  0  2  0  0  0  0  0  0
   43.1880   23.9020   36.3420 C   0  0  0  0  0  2  0  0  0  0  0  0
   42.3220   22.6790   36.5590 C   0  0  0  0  0  3  0  0  0  0  0  0
   42.6140   21.8940   35.8410 H   0  0  0  0  0  0  0  0  0  0  0  0
   40.8970   23.0930   36.2580 C   0  0  0  0  0  2  0  0  0  0  0  0
   40.7890   23.2980   34.7660 C   0  0  0  0  0  2  0  0  0  0  0  0
   36.7190   25.8770   32.4200 C   0  0  0  0  0  0  0  0  0  0  0  0
   37.1830   24.5700   32.5700 C   0  0  0  0  0  0  0  0  0  0  0  0
   36.5690   23.5710   31.8470 C   0  0  0  0  0  0  0  0  0  0  0  0
   35.5230   23.8980   31.0050 N   0  0  0  0  0  0  0  0  0  0  0  0
   35.0970   25.1820   30.8840 C   0  0  0  0  0  0  0  0  0  0  0  0
   35.6990   26.1350   31.5870 N   0  0  0  0  0  0  0  0  0  0  0  0
   37.9480   24.0560   33.1260 H   0  0  0  0  0  0  0  0  0  0  0  0
   36.7300   22.5080   31.7810 H   0  0  0  0  0  0  0  0  0  0  0  0
   34.2800   25.4410   30.2270 H   0  0  0  0  0  0  0  0  0  0  0  0
  1  7  1  6  0  0  0
  1  6  1  0  0  0  0
  2  9  1  0  0  0  0
  2  1  1  0  0  0  0
  2  3  1  0  0  0  0
  3 10  1  1  0  0  0
  3  4  1  0  0  0  0
  4  5  1  0  0  0  0
  4 12  1  0  0  0  0
  5 14  1  0  0  0  0
  6 15  1  0  0  0  0
  6 16  1  0  0  0  0
  6  5  1  0  0  0  0
  8  2  1  0  0  0  0
 11  4  1  0  0  0  0
 13  5  1  0  0  0  0
 17  3  1  0  0  0  0
 17 22  1  1  0  0  0
 18 23  1  0  0  0  0
 18 17  1  0  0  0  0
 19 20  1  0  0  0  0
 19 18  1  0  0  0  0
 19 25  1  0  0  0  0
 20 21  1  0  0  0  0
 21 27  1  6  0  0  0
 21 17  1  0  0  0  0
 21 28  1  0  0  0  0
 24 18  1  0  0  0  0
 26 19  1  0  0  0  0
 28 34  1  0  0  0  0
 28 29  1  0  0  0  0
 29 30  1  0  0  0  0
 30 31  1  0  0  0  0
 32 31  1  0  0  0  0
 33 31  1  0  0  0  0
 34 33  1  0  0  0  0
 35 36  1  0  0  0  0
 35  1  1  0  0  0  0
 36 41  1  0  0  0  0
 37 36  2  0  0  0  0
 38 37  1  0  0  0  0
 39 38  2  0  0  0  0
 39 40  1  0  0  0  0
 40 35  2  0  0  0  0
 42 37  1  0  0  0  0
 43 39  1  0  0  0  0
M  END
>  <minimizedAffinity>
-5.44082308

$$$$

 OpenBabel03262523393D

 43 46  0  0  1  0  0  0  0  0999 V2000
   36.9500   23.8760   31.2820 C   0  0  2  0  0  0  0  0  0  0  0  0
   37.7300   24.5310   32.3650 C   0  0  0  0  0  0  0  0  0  0  0  0
   36.9110   25.5530   33.1550 C   0  0  2  0  0  0  0  0  0  0  0  0
   36.4860   26.6590   32.2190 C   0  0  0  0  0  0  0  0  0  0  0  0
   35.8630   26.1170   30.9450 C   0  0  0  0  0  0  0  0  0  0  0  0
   35.6660   24.6270   31.0020 C   0  0  0  0  0  0  0  0  0  0  0  0
   37.4810   23.8300   30.2920 H   0  0  0  0  0  0  0  0  0  0  0  0
   38.3380   23.9850   33.0290 H   0  0  0  0  0  0  0  0  0  0  0  0
   38.4640   25.2160   31.8000 H   0  0  0  0  0  0  0  0  0  0  0  0
   35.9880   25.0180   33.4550 H   0  0  0  0  0  0  0  0  0  0  0  0
   37.4020   27.2160   31.9140 H   0  0  0  0  0  0  0  0  0  0  0  0
   35.7880   27.3450   32.7070 H   0  0  0  0  0  0  0  0  0  0  0  0
   36.4630   26.3560   30.0460 H   0  0  0  0  0  0  0  0  0  0  0  0
   34.8530   26.5590   30.8020 H   0  0  0  0  0  0  0  0  0  0  0  0
   34.8610   24.3550   31.7370 H   0  0  0  0  0  0  0  0  0  0  0  0
   35.3010   24.2980   30.0100 H   0  0  0  0  0  0  0  0  0  0  0  0
   37.5920   25.9960   34.3780 C   0  0  2  0  0  0  0  0  0  0  0  0
   37.5430   27.4650   34.6880 C   0  0  0  0  0  0  0  0  0  0  0  0
   38.5930   27.5070   35.8030 C   0  0  0  0  0  0  0  0  0  0  0  0
   39.5450   26.5830   35.4670 O   0  0  0  0  0  0  0  0  0  0  0  0
   39.0480   25.7430   34.4740 C   0  0  1  0  0  0  0  0  0  0  0  0
   37.1050   25.4850   35.2380 H   0  0  0  0  0  0  0  0  0  0  0  0
   36.5300   27.7100   35.0810 H   0  0  0  0  0  0  0  0  0  0  0  0
   37.8310   28.0760   33.8140 H   0  0  0  0  0  0  0  0  0  0  0  0
   38.1620   27.4090   36.7960 H   0  0  0  0  0  0  0  0  0  0  0  0
   39.0750   28.5210   35.6850 H   0  0  0  0  0  0  0  0  0  0  0  0
   39.6590   25.9590   33.5910 H   0  0  0  0  0  0  0  0  0  0  0  0
   39.3730   24.3920   34.9060 N   0  0  0  0  0  0  0  0  0  0  0  0
   40.8050   24.3430   35.1440 C   0  0  0  0  0  2  0  0  0  0  0  0
   41.2780   22.9410   35.4440 C   0  0  0  0  0  2  0  0  0  0  0  0
   40.1990   22.1200   36.1160 C   0  0  0  0  0  3  0  0  0  0  0  0
   39.5350   21.6910   35.3470 H   0  0  0  0  0  0  0  0  0  0  0  0
   39.3880   23.0760   36.9650 C   0  0  0  0  0  2  0  0  0  0  0  0
   38.5870   23.9480   36.0270 C   0  0  0  0  0  2  0  0  0  0  0  0
   36.5770   22.4800   31.6020 C   0  0  0  0  0  0  0  0  0  0  0  0
   37.5760   21.5270   31.4050 C   0  0  0  0  0  0  0  0  0  0  0  0
   37.2950   20.2120   31.7050 C   0  0  0  0  0  0  0  0  0  0  0  0
   36.0400   19.8880   32.1870 N   0  0  0  0  0  0  0  0  0  0  0  0
   35.0910   20.8420   32.3660 C   0  0  0  0  0  0  0  0  0  0  0  0
   35.3770   22.1060   32.0720 N   0  0  0  0  0  0  0  0  0  0  0  0
   38.5930   21.5010   31.0540 H   0  0  0  0  0  0  0  0  0  0  0  0
   37.8740   19.3050   31.6460 H   0  0  0  0  0  0  0  0  0  0  0  0
   34.1100   20.5920   32.7420 H   0  0  0  0  0  0  0  0  0  0  0  0
  1  7  1  6  0  0  0
  1 35  1  0  0  0  0
  1  2  1  0  0  0  0
  2  8  1  0  0  0  0
  2  3  1  0  0  0  0
  3 10  1  1  0  0  0
  3 17  1  0  0  0  0
  4 12  1  0  0  0  0
  4  3  1  0  0  0  0
  5  6  1  0  0  0  0
  5  4  1  0  0  0  0
  6  1  1  0  0  0  0
  6 15  1  0  0  0  0
  9  2  1  0  0  0  0
 11  4  1  0  0  0  0
 13  5  1  0  0  0  0
 14  5  1  0  0  0  0
 16  6  1  0  0  0  0
 17 21  1  0  0  0  0
 17 18  1  0  0  0  0
 17 22  1  1  0  0  0
 18 23  1  0  0  0  0
 18 19  1  0  0  0  0
 19 25  1  0  0  0  0
 20 19  1  0  0  0  0
 21 27  1  6  0  0  0
 21 28  1  0  0  0  0
 21 20  1  0  0  0  0
 24 18  1  0  0  0  0
 26 19  1  0  0  0  0
 28 29  1  0  0  0  0
 28 34  1  0  0  0  0
 29 30  1  0  0  0  0
 30 31  1  0  0  0  0
 31 33  1  0  0  0  0
 32 31  1  0  0  0  0
 34 33  1  0  0  0  0
 35 40  1  0  0  0  0
 36 35  2  0  0  0  0
 36 37  1  0  0  0  0
 37 38  2  0  0  0  0
 38 39  1  0  0  0  0
 39 43  1  0  0  0  0
 40 39  2  0  0  0  0
 41 36  1  0  0  0  0
 42 37  1  0  0  0  0
M  END
>  <minimizedAffinity>
-5.42932749

$$$$

 OpenBabel03262523393D

 43 46  0  0  1  0  0  0  0  0999 V2000
   35.6060   31.1090   31.9710 C   0  0  2  0  0  0  0  0  0  0  0  0
   35.5780   29.6250   31.8810 C   0  0  0  0  0  0  0  0  0  0  0  0
   36.8490   29.0400   31.2640 C   0  0  2  0  0  0  0  0  0  0  0  0
   36.9730   29.5430   29.8460 C   0  0  0  0  0  0  0  0  0  0  0  0
   36.7960   31.0480   29.7590 C   0  0  0  0  0  0  0  0  0  0  0  0
   36.7140   31.6870   31.1190 C   0  0  0  0  0  0  0  0  0  0  0  0
   34.6690   31.6130   31.6110 H   0  0  0  0  0  0  0  0  0  0  0  0
   35.2720   29.0180   32.6860 H   0  0  0  0  0  0  0  0  0  0  0  0
   34.8060   29.4150   31.0530 H   0  0  0  0  0  0  0  0  0  0  0  0
   37.6850   29.4920   31.8360 H   0  0  0  0  0  0  0  0  0  0  0  0
   36.1450   29.0910   29.2520 H   0  0  0  0  0  0  0  0  0  0  0  0
   37.9340   29.2590   29.4070 H   0  0  0  0  0  0  0  0  0  0  0  0
   35.8960   31.3370   29.1830 H   0  0  0  0  0  0  0  0  0  0  0  0
   37.6770   31.5030   29.2550 H   0  0  0  0  0  0  0  0  0  0  0  0
   37.7060   31.6430   31.6450 H   0  0  0  0  0  0  0  0  0  0  0  0
   36.4910   32.7620   30.9720 H   0  0  0  0  0  0  0  0  0  0  0  0
   36.9330   27.5830   31.4210 C   0  0  2  0  0  0  0  0  0  0  0  0
   35.9050   26.7620   30.6940 C   0  0  0  0  0  0  0  0  0  0  0  0
   36.1620   25.4110   31.3670 C   0  0  0  0  0  0  0  0  0  0  0  0
   36.4910   25.6870   32.6670 O   0  0  0  0  0  0  0  0  0  0  0  0
   36.8010   27.0380   32.7910 C   0  0  1  0  0  0  0  0  0  0  0  0
   37.9200   27.2590   31.0240 H   0  0  0  0  0  0  0  0  0  0  0  0
   36.1760   26.7310   29.6140 H   0  0  0  0  0  0  0  0  0  0  0  0
   34.8820   27.1370   30.8760 H   0  0  0  0  0  0  0  0  0  0  0  0
   36.8650   24.7900   30.8190 H   0  0  0  0  0  0  0  0  0  0  0  0
   35.1460   24.9210   31.3920 H   0  0  0  0  0  0  0  0  0  0  0  0
   36.0090   27.4520   33.4260 H   0  0  0  0  0  0  0  0  0  0  0  0
   38.0390   27.0870   33.5560 N   0  0  0  0  0  0  0  0  0  0  0  0
   37.6910   26.9420   34.9570 C   0  0  0  0  0  2  0  0  0  0  0  0
   38.8870   27.1400   35.8580 C   0  0  0  0  0  2  0  0  0  0  0  0
   40.1730   26.7260   35.1740 C   0  0  0  0  0  3  0  0  0  0  0  0
   40.5450   27.5630   34.5590 H   0  0  0  0  0  0  0  0  0  0  0  0
   39.8270   25.5760   34.2520 C   0  0  0  0  0  2  0  0  0  0  0  0
   39.0230   26.1400   33.1040 C   0  0  0  0  0  2  0  0  0  0  0  0
   35.8190   31.6000   33.3520 C   0  0  0  0  0  0  0  0  0  0  0  0
   35.6110   30.6630   34.3650 C   0  0  0  0  0  0  0  0  0  0  0  0
   35.8140   31.0550   35.6700 C   0  0  0  0  0  0  0  0  0  0  0  0
   36.2120   32.3540   35.9260 N   0  0  0  0  0  0  0  0  0  0  0  0
   36.4040   33.2390   34.9140 C   0  0  0  0  0  0  0  0  0  0  0  0
   36.2050   32.8470   33.6610 N   0  0  0  0  0  0  0  0  0  0  0  0
   35.3100   29.6330   34.4470 H   0  0  0  0  0  0  0  0  0  0  0  0
   35.7260   30.5410   36.6130 H   0  0  0  0  0  0  0  0  0  0  0  0
   36.7150   34.2540   35.1110 H   0  0  0  0  0  0  0  0  0  0  0  0
  1  7  1  6  0  0  0
  1 35  1  0  0  0  0
  2  1  1  0  0  0  0
  2  8  1  0  0  0  0
  3 17  1  0  0  0  0
  3 10  1  1  0  0  0
  3  2  1  0  0  0  0
  4  3  1  0  0  0  0
  5  4  1  0  0  0  0
  5  6  1  0  0  0  0
  6 15  1  0  0  0  0
  6  1  1  0  0  0  0
  9  2  1  0  0  0  0
 11  4  1  0  0  0  0
 12  4  1  0  0  0  0
 13  5  1  0  0  0  0
 14  5  1  0  0  0  0
 16  6  1  0  0  0  0
 17 22  1  6  0  0  0
 17 21  1  0  0  0  0
 18 24  1  0  0  0  0
 18 19  1  0  0  0  0
 18 17  1  0  0  0  0
 19 26  1  0  0  0  0
 19 20  1  0  0  0  0
 20 21  1  0  0  0  0
 21 27  1  1  0  0  0
 21 28  1  0  0  0  0
 23 18  1  0  0  0  0
 25 19  1  0  0  0  0
 28 29  1  0  0  0  0
 29 30  1  0  0  0  0
 31 30  1  0  0  0  0
 32 31  1  0  0  0  0
 33 31  1  0  0  0  0
 34 28  1  0  0  0  0
 34 33  1  0  0  0  0
 35 40  2  0  0  0  0
 35 36  1  0  0  0  0
 36 41  1  0  0  0  0
 36 37  2  0  0  0  0
 37 38  1  0  0  0  0
 37 42  1  0  0  0  0
 39 43  1  0  0  0  0
 39 38  2  0  0  0  0
 40 39  1  0  0  0  0
M  END
>  <minimizedAffinity>
-5.41765976

$$$$

 OpenBabel03262523393D

 43 46  0  0  1  0  0  0  0  0999 V2000
   37.9530   25.2740   35.5510 C   0  0  2  0  0  0  0  0  0  0  0  0
   37.8900   24.7500   34.1620 C   0  0  0  0  0  0  0  0  0  0  0  0
   38.8460   25.4690   33.2090 C   0  0  2  0  0  0  0  0  0  0  0  0
   38.4420   26.9210   33.1260 C   0  0  0  0  0  0  0  0  0  0  0  0
   38.2490   27.5380   34.5000 C   0  0  0  0  0  0  0  0  0  0  0  0
   38.6730   26.6040   35.6020 C   0  0  0  0  0  0  0  0  0  0  0  0
   36.9500   25.4690   36.0190 H   0  0  0  0  0  0  0  0  0  0  0  0
   37.8990   23.7180   33.9480 H   0  0  0  0  0  0  0  0  0  0  0  0
   36.8680   25.1140   33.7760 H   0  0  0  0  0  0  0  0  0  0  0  0
   39.8330   25.4420   33.7110 H   0  0  0  0  0  0  0  0  0  0  0  0
   37.4540   26.9700   32.6140 H   0  0  0  0  0  0  0  0  0  0  0  0
   39.1750   27.5050   32.5610 H   0  0  0  0  0  0  0  0  0  0  0  0
   37.2020   27.8420   34.6840 H   0  0  0  0  0  0  0  0  0  0  0  0
   38.8850   28.4440   34.5990 H   0  0  0  0  0  0  0  0  0  0  0  0
   39.7880   26.4700   35.6090 H   0  0  0  0  0  0  0  0  0  0  0  0
   38.4140   27.0840   36.5650 H   0  0  0  0  0  0  0  0  0  0  0  0
   38.9780   24.7820   31.9180 C   0  0  2  0  0  0  0  0  0  0  0  0
   39.5790   25.5690   30.7880 C   0  0  0  0  0  0  0  0  0  0  0  0
   39.2390   24.6220   29.6330 C   0  0  0  0  0  0  0  0  0  0  0  0
   38.0250   24.0690   29.9360 O   0  0  0  0  0  0  0  0  0  0  0  0
   37.7350   24.2900   31.2800 C   0  0  1  0  0  0  0  0  0  0  0  0
   39.6470   23.9060   32.0710 H   0  0  0  0  0  0  0  0  0  0  0  0
   40.6800   25.6300   30.9470 H   0  0  0  0  0  0  0  0  0  0  0  0
   39.0990   26.5570   30.6800 H   0  0  0  0  0  0  0  0  0  0  0  0
   40.0400   23.9230   29.4070 H   0  0  0  0  0  0  0  0  0  0  0  0
   39.0660   25.3130   28.7570 H   0  0  0  0  0  0  0  0  0  0  0  0
   36.8690   24.9610   31.2750 H   0  0  0  0  0  0  0  0  0  0  0  0
   37.2860   23.0070   31.8000 N   0  0  0  0  0  0  0  0  0  0  0  0
   35.9540   22.7670   31.2760 C   0  0  0  0  0  2  0  0  0  0  0  0
   35.3250   21.5340   31.8810 C   0  0  0  0  0  2  0  0  0  0  0  0
   36.3690   20.5080   32.2650 C   0  0  0  0  0  3  0  0  0  0  0  0
   36.7670   20.7490   33.2650 H   0  0  0  0  0  0  0  0  0  0  0  0
   37.4950   20.6330   31.2610 C   0  0  0  0  0  2  0  0  0  0  0  0
   38.2100   21.9340   31.5420 C   0  0  0  0  0  2  0  0  0  0  0  0
   38.6570   24.3630   36.4810 C   0  0  0  0  0  0  0  0  0  0  0  0
   38.0950   24.2430   37.7520 C   0  0  0  0  0  0  0  0  0  0  0  0
   38.6940   23.3930   38.6560 C   0  0  0  0  0  0  0  0  0  0  0  0
   39.8240   22.6950   38.2730 N   0  0  0  0  0  0  0  0  0  0  0  0
   40.3450   22.8370   37.0260 C   0  0  0  0  0  0  0  0  0  0  0  0
   39.7560   23.6610   36.1650 N   0  0  0  0  0  0  0  0  0  0  0  0
   37.2590   24.6520   38.2940 H   0  0  0  0  0  0  0  0  0  0  0  0
   38.4670   23.1260   39.6740 H   0  0  0  0  0  0  0  0  0  0  0  0
   41.2280   22.2940   36.7250 H   0  0  0  0  0  0  0  0  0  0  0  0
  1  6  1  0  0  0  0
  1  7  1  1  0  0  0
  1 35  1  0  0  0  0
  2  1  1  0  0  0  0
  3 10  1  1  0  0  0
  3  2  1  0  0  0  0
  4  3  1  0  0  0  0
  4  5  1  0  0  0  0
  5 14  1  0  0  0  0
  5 13  1  0  0  0  0
  5  6  1  0  0  0  0
  6 15  1  0  0  0  0
  6 16  1  0  0  0  0
  8  2  1  0  0  0  0
  9  2  1  0  0  0  0
 11  4  1  0  0  0  0
 12  4  1  0  0  0  0
 17 22  1  1  0  0  0
 17  3  1  0  0  0  0
 18 23  1  0  0  0  0
 18 17  1  0  0  0  0
 19 20  1  0  0  0  0
 19 18  1  0  0  0  0
 20 21  1  0  0  0  0
 21 27  1  1  0  0  0
 21 28  1  0  0  0  0
 21 17  1  0  0  0  0
 24 18  1  0  0  0  0
 25 19  1  0  0  0  0
 26 19  1  0  0  0  0
 29 28  1  0  0  0  0
 29 30  1  0  0  0  0
 30 31  1  0  0  0  0
 31 32  1  0  0  0  0
 33 34  1  0  0  0  0
 33 31  1  0  0  0  0
 34 28  1  0  0  0  0
 35 36  1  0  0  0  0
 36 41  1  0  0  0  0
 36 37  2  0  0  0  0
 37 42  1  0  0  0  0
 38 37  1  0  0  0  0
 39 38  2  0  0  0  0
 40 35  2  0  0  0  0
 40 39  1  0  0  0  0
 43 39  1  0  0  0  0
M  END
>  <minimizedAffinity>
-5.37232637

$$$$
