
 OpenBabel03262520113D

 40 42  0  0  0  0  0  0  0  0999 V2000
   35.3030   30.2060   49.3550 C   0  0  0  0  0  0  0  0  0  0  0  0
   35.1810   31.2230   49.7920 H   0  0  0  0  0  0  0  0  0  0  0  0
   36.1730   29.7730   49.9200 H   0  0  0  0  0  0  0  0  0  0  0  0
   38.1800   31.4130   48.9410 Br  0  0  0  0  0  0  0  0  0  0  0  0
   36.9610   30.8360   47.5790 C   0  0  0  0  0  0  0  0  0  0  0  0
   37.3000   30.9150   46.2440 C   0  0  0  0  0  0  0  0  0  0  0  0
   36.3870   30.4940   45.3220 C   0  0  0  0  0  0  0  0  0  0  0  0
   35.1470   29.9970   45.6800 C   0  0  0  0  0  0  0  0  0  0  0  0
   34.8310   29.9280   47.0360 C   0  0  0  0  0  0  0  0  0  0  0  0
   35.7440   30.3480   47.9690 C   0  0  0  0  0  0  0  0  0  0  0  0
   36.7180   30.5820   44.2740 H   0  0  0  0  0  0  0  0  0  0  0  0
   34.5590   29.7130   44.8390 H   0  0  0  0  0  0  0  0  0  0  0  0
   33.8410   29.5390   47.1050 H   0  0  0  0  0  0  0  0  0  0  0  0
   39.8130   33.2850   45.0550 C   0  0  0  0  0  0  0  0  0  0  0  0
   41.0120   32.5220   45.0330 C   0  0  0  0  0  0  0  0  0  0  0  0
   40.9210   31.2130   45.4290 C   0  0  0  0  0  0  0  0  0  0  0  0
   39.7140   30.6860   45.8260 N   0  0  0  0  0  0  0  0  0  0  0  0
   38.6060   31.4510   45.8290 C   0  0  0  0  0  0  0  0  0  0  0  0
   38.6680   32.7360   45.4450 N   0  0  0  0  0  0  0  0  0  0  0  0
   39.9010   34.3220   44.7370 H   0  0  0  0  0  0  0  0  0  0  0  0
   41.9540   32.9290   44.7260 H   0  0  0  0  0  0  0  0  0  0  0  0
   41.8300   30.6320   45.4140 H   0  0  0  0  0  0  0  0  0  0  0  0
   34.1480   29.3050   49.6040 C   0  0  0  0  0  0  0  0  0  0  0  0
   34.0640   29.2950   50.7490 H   0  0  0  0  0  0  0  0  0  0  0  0
   33.2410   29.7680   49.2860 H   0  0  0  0  0  0  0  0  0  0  0  0
   34.4880   27.9790   49.2630 N   0  0  0  0  0  0  0  0  0  0  0  0
   35.4310   27.8570   48.8420 H   0  0  0  0  0  0  0  0  0  0  0  0
   33.5380   27.2030   48.5580 C   0  0  0  0  0  0  0  0  0  0  0  0
   33.5560   26.1820   48.9700 H   0  0  0  0  0  0  0  0  0  0  0  0
   33.8170   27.1080   47.4880 H   0  0  0  0  0  0  0  0  0  0  0  0
   32.2050   27.8610   48.6960 C   0  0  0  0  0  0  0  0  0  0  0  0
   31.9650   28.7070   48.0880 H   0  0  0  0  0  0  0  0  0  0  0  0
   31.9610   28.0160   49.7970 H   0  0  0  0  0  0  0  0  0  0  0  0
   31.1770   26.8720   48.3280 N   0  0  0  0  0  0  0  0  0  0  0  0
   31.3350   26.3330   47.0500 C   0  0  0  0  0  0  0  0  0  0  0  0
   30.1520   26.3250   46.1410 C   0  0  0  0  0  0  0  0  0  0  0  0
   28.8420   26.1950   46.8800 C   0  0  0  0  0  0  0  0  0  0  0  0
   28.0330   26.4260   46.1580 H   0  0  0  0  0  0  0  0  0  0  0  0
   28.7290   27.1470   48.0230 C   0  0  0  0  0  0  0  0  0  0  0  0
   29.9230   27.0550   48.9020 C   0  0  0  0  0  0  0  0  0  0  0  0
  1 23  1  0  0  0  0
  1  2  1  0  0  0  0
  1  3  1  0  0  0  0
  5 10  1  0  0  0  0
  5  4  1  0  0  0  0
  6  5  2  0  0  0  0
  7  8  2  0  0  0  0
  7  6  1  0  0  0  0
  8  9  1  0  0  0  0
  9 13  1  0  0  0  0
  9 10  2  0  0  0  0
 10  1  1  0  0  0  0
 11  7  1  0  0  0  0
 12  8  1  0  0  0  0
 14 19  1  0  0  0  0
 15 14  2  0  0  0  0
 15 16  1  0  0  0  0
 16 17  2  0  0  0  0
 17 18  1  0  0  0  0
 18  6  1  0  0  0  0
 19 18  2  0  0  0  0
 20 14  1  0  0  0  0
 21 15  1  0  0  0  0
 22 16  1  0  0  0  0
 23 24  1  0  0  0  0
 25 23  1  0  0  0  0
 26 23  1  0  0  0  0
 27 26  1  0  0  0  0
 28 31  1  0  0  0  0
 28 29  1  0  0  0  0
 28 26  1  0  0  0  0
 30 28  1  0  0  0  0
 31 33  1  0  0  0  0
 32 31  1  0  0  0  0
 34 31  1  0  0  0  0
 34 40  1  0  0  0  0
 35 34  1  0  0  0  0
 36 37  1  0  0  0  0
 36 35  1  0  0  0  0
 37 39  1  0  0  0  0
 38 37  1  0  0  0  0
 39 40  1  0  0  0  0
M  END
>  <minimizedAffinity>
-5.35006905

>  <minimizedRMSD>
0.735425234

$$$$
