
 OpenBabel03272509063D

 38 41  0  0  0  0  0  0  0  0999 V2000
   32.7940   27.8920   48.8000 C   0  0  0  0  0  0  0  0  0  0  0  0
   32.5800   27.0980   49.5750 H   0  0  0  0  0  0  0  0  0  0  0  0
   31.9030   28.5360   48.7500 H   0  0  0  0  0  0  0  0  0  0  0  0
   33.0550   27.1560   47.5320 C   0  0  0  0  0  0  0  0  0  0  0  0
   33.5730   25.8800   47.4290 C   0  0  0  0  0  0  0  0  0  0  0  0
   33.7750   25.2920   46.2010 C   0  0  0  0  0  0  0  0  0  0  0  0
   33.4660   25.9580   45.0280 C   0  0  0  0  0  0  0  0  0  0  0  0
   32.9500   27.2290   45.1190 C   0  0  0  0  0  0  0  0  0  0  0  0
   32.7490   27.8140   46.3580 C   0  0  0  0  0  0  0  0  0  0  0  0
   33.7910   25.4230   48.3980 H   0  0  0  0  0  0  0  0  0  0  0  0
   34.1860   24.2880   46.2490 H   0  0  0  0  0  0  0  0  0  0  0  0
   33.6510   25.4340   44.1120 H   0  0  0  0  0  0  0  0  0  0  0  0
   32.7380   27.6730   44.1550 H   0  0  0  0  0  0  0  0  0  0  0  0
   32.2060   29.1400   46.2130 N   0  0  0  0  0  0  0  0  0  0  0  0
   32.8580   30.4320   46.1040 C   0  0  0  0  0  0  0  0  0  0  0  0
   32.3640   31.2100   44.8790 C   0  0  0  0  0  0  0  0  0  0  0  0
   30.8710   31.3120   44.8240 C   0  0  0  0  0  0  0  0  0  0  0  0
   30.6070   31.6720   43.8170 H   0  0  0  0  0  0  0  0  0  0  0  0
   30.2290   29.9480   44.9670 C   0  0  0  0  0  0  0  0  0  0  0  0
   30.7570   29.2070   46.1730 C   0  0  0  0  0  0  0  0  0  0  0  0
   35.2350   28.3750   49.1310 C   0  0  0  0  0  0  0  0  0  0  0  0
   33.9640   28.6410   49.3000 C   0  0  0  0  0  0  0  0  0  0  0  0
   37.3770   30.1470   51.4940 C   0  0  0  0  0  0  0  0  0  0  0  0
   38.0950   31.0090   50.6380 C   0  0  0  0  0  0  0  0  0  0  0  0
   37.8180   30.9590   49.2660 C   0  0  0  0  0  0  0  0  0  0  0  0
   36.8630   30.0710   48.8240 N   0  0  0  0  0  0  0  0  0  0  0  0
   36.2140   29.2710   49.7150 C   0  0  0  0  0  0  0  0  0  0  0  0
   36.4630   29.3060   51.0160 N   0  0  0  0  0  0  0  0  0  0  0  0
   37.5860   30.1810   52.5540 H   0  0  0  0  0  0  0  0  0  0  0  0
   38.8330   31.6960   50.9770 H   0  0  0  0  0  0  0  0  0  0  0  0
   38.4910   31.8040   48.2740 C   0  0  0  0  0  0  0  0  0  0  0  0
   38.8120   31.3720   47.0150 C   0  0  0  0  0  0  0  0  0  0  0  0
   39.4290   32.4260   46.3520 C   0  0  0  0  0  0  0  0  0  0  0  0
   39.4600   33.4650   47.2390 N   0  0  0  0  0  0  0  0  0  0  0  0
   38.8980   33.0810   48.3810 N   0  0  0  0  0  0  0  0  0  0  0  0
   38.6190   30.3930   46.6120 H   0  0  0  0  0  0  0  0  0  0  0  0
   39.8180   32.4570   45.3430 H   0  0  0  0  0  0  0  0  0  0  0  0
   39.8660   34.4300   47.0590 H   0  0  0  0  0  0  0  0  0  0  0  0
  1 22  1  0  0  0  0
  1  2  1  0  0  0  0
  3  1  1  0  0  0  0
  4  1  1  0  0  0  0
  5  4  1  0  0  0  0
  5 10  1  0  0  0  0
  6 11  1  0  0  0  0
  6  5  2  0  0  0  0
  7  8  2  0  0  0  0
  7  6  1  0  0  0  0
  8  9  1  0  0  0  0
  9  4  2  0  0  0  0
 12  7  1  0  0  0  0
 13  8  1  0  0  0  0
 14  9  1  0  0  0  0
 15 14  1  0  0  0  0
 16 15  1  0  0  0  0
 17 16  1  0  0  0  0
 17 19  1  0  0  0  0
 18 17  1  0  0  0  0
 19 20  1  0  0  0  0
 20 14  1  0  0  0  0
 21 22  2  0  0  0  0
 21 27  1  0  0  0  0
 23 29  1  0  0  0  0
 24 30  1  0  0  0  0
 24 23  2  0  0  0  0
 25 24  1  0  0  0  0
 26 25  2  0  0  0  0
 26 27  1  0  0  0  0
 27 28  2  0  0  0  0
 28 23  1  0  0  0  0
 31 35  2  0  0  0  0
 31 25  1  0  0  0  0
 32 31  1  0  0  0  0
 33 32  2  0  0  0  0
 33 34  1  0  0  0  0
 34 35  1  0  0  0  0
 36 32  1  0  0  0  0
 37 33  1  0  0  0  0
 38 34  1  0  0  0  0
M  END
>  <minimizedAffinity>
-6.45451307

>  <minimizedRMSD>
1.34138167

$$$$
