
 OpenBabel03272501473D

 45 49  0  0  1  0  0  0  0  0999 V2000
   35.8000   28.7900   32.6710 C   0  0  0  0  0  0  0  0  0  0  0  0
   36.3090   28.9590   31.7170 H   0  0  0  0  0  0  0  0  0  0  0  0
   34.7830   28.3740   32.4730 H   0  0  0  0  0  0  0  0  0  0  0  0
   35.6460   30.0800   33.4320 C   0  0  1  0  0  0  0  0  0  0  0  0
   35.7830   31.2110   32.4320 C   0  0  0  0  0  0  0  0  0  0  0  0
   34.4860   31.9730   32.4120 C   0  0  0  0  0  0  0  0  0  0  0  0
   33.4830   31.0100   32.9440 C   0  0  0  0  0  0  0  0  0  0  0  0
   34.2630   30.2470   33.9920 C   0  0  2  0  0  0  0  0  0  0  0  0
   36.4450   30.0930   34.1910 H   0  0  0  0  0  0  0  0  0  0  0  0
   35.9810   30.8480   31.4050 H   0  0  0  0  0  0  0  0  0  0  0  0
   36.6380   31.8770   32.6710 H   0  0  0  0  0  0  0  0  0  0  0  0
   34.2360   32.2750   31.3600 H   0  0  0  0  0  0  0  0  0  0  0  0
   34.5390   32.8790   33.0410 H   0  0  0  0  0  0  0  0  0  0  0  0
   33.1740   30.2940   32.1500 H   0  0  0  0  0  0  0  0  0  0  0  0
   32.5920   31.5160   33.3990 H   0  0  0  0  0  0  0  0  0  0  0  0
   33.8170   29.2050   33.9950 H   0  0  0  0  0  0  0  0  0  0  0  0
   34.1590   30.7560   35.2820 N   0  0  0  0  0  0  0  0  0  0  0  0
   32.9930   30.5990   36.0480 C   0  0  0  0  0  2  0  0  0  0  0  0
   32.9610   31.5880   37.2180 C   0  0  0  0  0  2  0  0  0  0  0  0
   33.7710   32.8320   36.9300 C   0  0  0  0  0  3  0  0  0  0  0  0
   33.2720   33.4530   36.1480 H   0  0  0  0  0  0  0  0  0  0  0  0
   35.2020   32.5260   36.6240 C   0  0  0  0  0  2  0  0  0  0  0  0
   35.3270   31.1660   35.9710 C   0  0  0  0  0  2  0  0  0  0  0  0
   37.5110   25.6580   33.6700 C   0  0  0  0  0  0  0  0  0  0  0  0
   37.9850   25.9590   34.9490 C   0  0  0  0  0  0  0  0  0  0  0  0
   37.7060   27.2330   35.4430 C   0  0  0  0  0  0  0  0  0  0  0  0
   37.0100   28.0970   34.6820 N   0  0  0  0  0  0  0  0  0  0  0  0
   36.5630   27.7670   33.4360 C   0  0  0  0  0  0  0  0  0  0  0  0
   36.8240   26.5520   32.9550 N   0  0  0  0  0  0  0  0  0  0  0  0
   37.6540   24.7120   33.1660 H   0  0  0  0  0  0  0  0  0  0  0  0
   38.0770   27.4500   36.4330 H   0  0  0  0  0  0  0  0  0  0  0  0
   38.1950   24.4600   36.8330 C   0  0  0  0  0  0  0  0  0  0  0  0
   38.7120   24.9180   35.6270 C   0  0  0  0  0  0  0  0  0  0  0  0
   39.8800   24.3200   35.2040 C   0  0  0  0  0  0  0  0  0  0  0  0
   40.4740   23.3180   35.9710 C   0  0  0  0  0  0  0  0  0  0  0  0
   41.5840   22.5940   35.7860 N   0  0  0  0  0  0  0  0  0  0  0  0
   41.7440   21.7530   36.7970 C   0  0  0  0  0  0  0  0  0  0  0  0
   40.7130   21.9300   37.6650 N   0  0  0  0  0  0  0  0  0  0  0  0
   39.9300   22.8960   37.1530 C   0  0  0  0  0  0  0  0  0  0  0  0
   38.7720   23.4750   37.5930 C   0  0  0  0  0  0  0  0  0  0  0  0
   37.2720   24.8920   37.2230 H   0  0  0  0  0  0  0  0  0  0  0  0
   40.2900   24.6670   34.2700 H   0  0  0  0  0  0  0  0  0  0  0  0
   42.2330   22.6660   34.9810 H   0  0  0  0  0  0  0  0  0  0  0  0
   42.5080   21.0130   37.0090 H   0  0  0  0  0  0  0  0  0  0  0  0
   38.3110   23.1660   38.5280 H   0  0  0  0  0  0  0  0  0  0  0  0
  1  4  1  0  0  0  0
  1 28  1  0  0  0  0
  2  1  1  0  0  0  0
  3  1  1  0  0  0  0
  4  8  1  0  0  0  0
  4  9  1  1  0  0  0
  5 11  1  0  0  0  0
  5  4  1  0  0  0  0
  6  5  1  0  0  0  0
  6  7  1  0  0  0  0
  6 13  1  0  0  0  0
  7 15  1  0  0  0  0
  7  8  1  0  0  0  0
  8 16  1  1  0  0  0
  8 17  1  0  0  0  0
 10  5  1  0  0  0  0
 12  6  1  0  0  0  0
 14  7  1  0  0  0  0
 17 23  1  0  0  0  0
 17 18  1  0  0  0  0
 18 19  1  0  0  0  0
 20 19  1  0  0  0  0
 21 20  1  0  0  0  0
 22 20  1  0  0  0  0
 23 22  1  0  0  0  0
 24 25  1  0  0  0  0
 25 26  2  0  0  0  0
 25 33  1  0  0  0  0
 26 31  1  0  0  0  0
 27 26  1  0  0  0  0
 28 27  2  0  0  0  0
 29 28  1  0  0  0  0
 29 24  2  0  0  0  0
 30 24  1  0  0  0  0
 32 41  1  0  0  0  0
 32 40  1  0  0  0  0
 33 32  2  0  0  0  0
 34 33  1  0  0  0  0
 34 35  2  0  0  0  0
 35 39  1  0  0  0  0
 36 35  1  0  0  0  0
 36 37  1  0  0  0  0
 37 44  1  0  0  0  0
 37 38  2  0  0  0  0
 39 40  2  0  0  0  0
 39 38  1  0  0  0  0
 40 45  1  0  0  0  0
 42 34  1  0  0  0  0
 43 36  1  0  0  0  0
M  END
>  <minimizedAffinity>
-6.40595293

$$$$

 OpenBabel03272501473D

 45 49  0  0  1  0  0  0  0  0999 V2000
   35.8360   28.6600   32.7330 C   0  0  0  0  0  0  0  0  0  0  0  0
   36.5380   29.2810   32.1690 H   0  0  0  0  0  0  0  0  0  0  0  0
   35.1750   28.1140   32.0180 H   0  0  0  0  0  0  0  0  0  0  0  0
   34.9710   29.5070   33.6280 C   0  0  1  0  0  0  0  0  0  0  0  0
   35.3730   30.9520   33.4050 C   0  0  0  0  0  0  0  0  0  0  0  0
   34.1780   31.6860   32.8600 C   0  0  0  0  0  0  0  0  0  0  0  0
   33.3200   30.6170   32.2780 C   0  0  0  0  0  0  0  0  0  0  0  0
   33.5250   29.4590   33.2300 C   0  0  2  0  0  0  0  0  0  0  0  0
   35.1660   29.1710   34.6600 H   0  0  0  0  0  0  0  0  0  0  0  0
   36.1990   31.0550   32.6760 H   0  0  0  0  0  0  0  0  0  0  0  0
   35.7490   31.4270   34.3340 H   0  0  0  0  0  0  0  0  0  0  0  0
   34.5050   32.4150   32.0700 H   0  0  0  0  0  0  0  0  0  0  0  0
   33.6440   32.2360   33.6550 H   0  0  0  0  0  0  0  0  0  0  0  0
   33.7020   30.3170   31.2760 H   0  0  0  0  0  0  0  0  0  0  0  0
   32.2390   30.9070   32.2270 H   0  0  0  0  0  0  0  0  0  0  0  0
   33.4240   28.5290   32.5900 H   0  0  0  0  0  0  0  0  0  0  0  0
   32.5870   29.3730   34.2540 N   0  0  0  0  0  0  0  0  0  0  0  0
   32.8320   29.9100   35.5270 C   0  0  0  0  0  2  0  0  0  0  0  0
   31.8720   29.3240   36.5690 C   0  0  0  0  0  2  0  0  0  0  0  0
   31.3790   27.9500   36.1740 C   0  0  0  0  0  3  0  0  0  0  0  0
   32.2040   27.2020   36.2420 H   0  0  0  0  0  0  0  0  0  0  0  0
   30.6810   27.9490   34.8520 C   0  0  0  0  0  2  0  0  0  0  0  0
   31.2480   29.0260   33.9520 C   0  0  0  0  0  2  0  0  0  0  0  0
   37.6150   25.5550   33.7010 C   0  0  0  0  0  0  0  0  0  0  0  0
   38.0570   25.8430   34.9950 C   0  0  0  0  0  0  0  0  0  0  0  0
   37.7340   27.0990   35.5090 C   0  0  0  0  0  0  0  0  0  0  0  0
   37.0280   27.9580   34.7530 N   0  0  0  0  0  0  0  0  0  0  0  0
   36.6130   27.6420   33.4920 C   0  0  0  0  0  0  0  0  0  0  0  0
   36.9170   26.4450   32.9910 N   0  0  0  0  0  0  0  0  0  0  0  0
   37.7940   24.6250   33.1810 H   0  0  0  0  0  0  0  0  0  0  0  0
   38.0810   27.3050   36.5100 H   0  0  0  0  0  0  0  0  0  0  0  0
   38.3000   24.3470   36.8770 C   0  0  0  0  0  0  0  0  0  0  0  0
   38.8010   24.8090   35.6650 C   0  0  0  0  0  0  0  0  0  0  0  0
   39.9690   24.2210   35.2290 C   0  0  0  0  0  0  0  0  0  0  0  0
   40.5800   23.2240   35.9910 C   0  0  0  0  0  0  0  0  0  0  0  0
   41.6940   22.5110   35.7940 N   0  0  0  0  0  0  0  0  0  0  0  0
   41.8730   21.6710   36.8040 C   0  0  0  0  0  0  0  0  0  0  0  0
   40.8500   21.8400   37.6820 N   0  0  0  0  0  0  0  0  0  0  0  0
   40.0530   22.7990   37.1790 C   0  0  0  0  0  0  0  0  0  0  0  0
   38.8950   23.3680   37.6310 C   0  0  0  0  0  0  0  0  0  0  0  0
   37.3780   24.7710   37.2770 H   0  0  0  0  0  0  0  0  0  0  0  0
   40.3660   24.5720   34.2920 H   0  0  0  0  0  0  0  0  0  0  0  0
   42.3340   22.5870   34.9830 H   0  0  0  0  0  0  0  0  0  0  0  0
   42.6460   20.9380   37.0070 H   0  0  0  0  0  0  0  0  0  0  0  0
   38.4460   23.0540   38.5700 H   0  0  0  0  0  0  0  0  0  0  0  0
  1 28  1  0  0  0  0
  1  4  1  0  0  0  0
  2  1  1  0  0  0  0
  3  1  1  0  0  0  0
  4  9  1  1  0  0  0
  5  4  1  0  0  0  0
  5 11  1  0  0  0  0
  6  5  1  0  0  0  0
  6 13  1  0  0  0  0
  7  6  1  0  0  0  0
  7  8  1  0  0  0  0
  8 16  1  6  0  0  0
  8  4  1  0  0  0  0
  8 17  1  0  0  0  0
 10  5  1  0  0  0  0
 12  6  1  0  0  0  0
 14  7  1  0  0  0  0
 15  7  1  0  0  0  0
 17 18  1  0  0  0  0
 18 19  1  0  0  0  0
 20 21  1  0  0  0  0
 20 19  1  0  0  0  0
 22 20  1  0  0  0  0
 23 17  1  0  0  0  0
 23 22  1  0  0  0  0
 24 25  1  0  0  0  0
 25 26  2  0  0  0  0
 25 33  1  0  0  0  0
 26 31  1  0  0  0  0
 27 26  1  0  0  0  0
 28 27  2  0  0  0  0
 29 28  1  0  0  0  0
 29 24  2  0  0  0  0
 30 24  1  0  0  0  0
 32 41  1  0  0  0  0
 32 40  1  0  0  0  0
 33 32  2  0  0  0  0
 34 33  1  0  0  0  0
 34 35  2  0  0  0  0
 35 39  1  0  0  0  0
 36 35  1  0  0  0  0
 36 37  1  0  0  0  0
 37 44  1  0  0  0  0
 37 38  2  0  0  0  0
 39 40  2  0  0  0  0
 39 38  1  0  0  0  0
 40 45  1  0  0  0  0
 42 34  1  0  0  0  0
 43 36  1  0  0  0  0
M  END
>  <minimizedAffinity>
-6.31305313

$$$$

 OpenBabel03272501473D

 45 49  0  0  1  0  0  0  0  0999 V2000
   35.9870   28.9800   33.4840 C   0  0  0  0  0  0  0  0  0  0  0  0
   36.6940   29.7410   33.1400 H   0  0  0  0  0  0  0  0  0  0  0  0
   35.4340   28.5710   32.6040 H   0  0  0  0  0  0  0  0  0  0  0  0
   34.9870   29.5710   34.4420 C   0  0  1  0  0  0  0  0  0  0  0  0
   35.5740   30.8690   34.9600 C   0  0  0  0  0  0  0  0  0  0  0  0
   34.6660   31.9910   34.5380 C   0  0  0  0  0  0  0  0  0  0  0  0
   33.9120   31.4400   33.3780 C   0  0  0  0  0  0  0  0  0  0  0  0
   33.7200   29.9870   33.7540 C   0  0  2  0  0  0  0  0  0  0  0  0
   34.8420   28.8260   35.2410 H   0  0  0  0  0  0  0  0  0  0  0  0
   36.5820   31.0730   34.5500 H   0  0  0  0  0  0  0  0  0  0  0  0
   35.7110   30.8530   36.0620 H   0  0  0  0  0  0  0  0  0  0  0  0
   35.2760   32.8840   34.2350 H   0  0  0  0  0  0  0  0  0  0  0  0
   33.9810   32.2850   35.3530 H   0  0  0  0  0  0  0  0  0  0  0  0
   34.5350   31.4830   32.4570 H   0  0  0  0  0  0  0  0  0  0  0  0
   32.9250   31.9470   33.2200 H   0  0  0  0  0  0  0  0  0  0  0  0
   33.7180   29.4240   32.7700 H   0  0  0  0  0  0  0  0  0  0  0  0
   32.5230   29.7070   34.4050 N   0  0  0  0  0  0  0  0  0  0  0  0
   31.2860   29.7910   33.7470 C   0  0  0  0  0  2  0  0  0  0  0  0
   30.1290   29.8640   34.7500 C   0  0  0  0  0  2  0  0  0  0  0  0
   30.5650   30.4480   36.0750 C   0  0  0  0  0  3  0  0  0  0  0  0
   30.7870   31.5370   35.9700 H   0  0  0  0  0  0  0  0  0  0  0  0
   31.6750   29.6710   36.7070 C   0  0  0  0  0  2  0  0  0  0  0  0
   32.5430   29.0270   35.6460 C   0  0  0  0  0  2  0  0  0  0  0  0
   38.0530   26.9300   35.7800 C   0  0  0  0  0  0  0  0  0  0  0  0
   38.1590   25.7150   35.0990 C   0  0  0  0  0  0  0  0  0  0  0  0
   37.5170   25.6250   33.8640 C   0  0  0  0  0  0  0  0  0  0  0  0
   36.8400   26.6880   33.3930 N   0  0  0  0  0  0  0  0  0  0  0  0
   36.7590   27.8590   34.0880 C   0  0  0  0  0  0  0  0  0  0  0  0
   37.3680   27.9560   35.2690 N   0  0  0  0  0  0  0  0  0  0  0  0
   38.4980   27.1390   36.7430 H   0  0  0  0  0  0  0  0  0  0  0  0
   37.6100   24.6810   33.3500 H   0  0  0  0  0  0  0  0  0  0  0  0
   38.4210   24.1680   36.9360 C   0  0  0  0  0  0  0  0  0  0  0  0
   38.9220   24.6810   35.7450 C   0  0  0  0  0  0  0  0  0  0  0  0
   40.1100   24.1380   35.3050 C   0  0  0  0  0  0  0  0  0  0  0  0
   40.7390   23.1330   36.0420 C   0  0  0  0  0  0  0  0  0  0  0  0
   41.8740   22.4550   35.8360 N   0  0  0  0  0  0  0  0  0  0  0  0
   42.0630   21.5890   36.8210 C   0  0  0  0  0  0  0  0  0  0  0  0
   41.0260   21.7030   37.6920 N   0  0  0  0  0  0  0  0  0  0  0  0
   40.2100   22.6570   37.2100 C   0  0  0  0  0  0  0  0  0  0  0  0
   39.0320   23.1810   37.6660 C   0  0  0  0  0  0  0  0  0  0  0  0
   37.4840   24.5550   37.3380 H   0  0  0  0  0  0  0  0  0  0  0  0
   40.5080   24.5270   34.3840 H   0  0  0  0  0  0  0  0  0  0  0  0
   42.5200   22.5740   35.0350 H   0  0  0  0  0  0  0  0  0  0  0  0
   42.8530   20.8700   37.0110 H   0  0  0  0  0  0  0  0  0  0  0  0
   38.5820   22.8260   38.5900 H   0  0  0  0  0  0  0  0  0  0  0  0
  1 28  1  0  0  0  0
  1  4  1  0  0  0  0
  2  1  1  0  0  0  0
  3  1  1  0  0  0  0
  4  5  1  0  0  0  0
  4  9  1  1  0  0  0
  5 11  1  0  0  0  0
  6  5  1  0  0  0  0
  6 13  1  0  0  0  0
  7  8  1  0  0  0  0
  7  6  1  0  0  0  0
  8 16  1  6  0  0  0
  8 17  1  0  0  0  0
  8  4  1  0  0  0  0
 10  5  1  0  0  0  0
 12  6  1  0  0  0  0
 14  7  1  0  0  0  0
 15  7  1  0  0  0  0
 17 23  1  0  0  0  0
 18 17  1  0  0  0  0
 18 19  1  0  0  0  0
 19 20  1  0  0  0  0
 20 22  1  0  0  0  0
 21 20  1  0  0  0  0
 23 22  1  0  0  0  0
 24 30  1  0  0  0  0
 25 33  1  0  0  0  0
 25 24  2  0  0  0  0
 26 25  1  0  0  0  0
 27 26  2  0  0  0  0
 27 28  1  0  0  0  0
 28 29  2  0  0  0  0
 29 24  1  0  0  0  0
 31 26  1  0  0  0  0
 32 41  1  0  0  0  0
 32 40  1  0  0  0  0
 33 32  2  0  0  0  0
 34 33  1  0  0  0  0
 34 35  2  0  0  0  0
 35 39  1  0  0  0  0
 36 35  1  0  0  0  0
 36 37  1  0  0  0  0
 37 44  1  0  0  0  0
 37 38  2  0  0  0  0
 39 40  2  0  0  0  0
 39 38  1  0  0  0  0
 40 45  1  0  0  0  0
 42 34  1  0  0  0  0
 43 36  1  0  0  0  0
M  END
>  <minimizedAffinity>
-6.28077316

$$$$

 OpenBabel03272501473D

 45 49  0  0  1  0  0  0  0  0999 V2000
   37.9910   24.0990   33.8830 C   0  0  0  0  0  0  0  0  0  0  0  0
   36.9920   23.8100   34.2230 H   0  0  0  0  0  0  0  0  0  0  0  0
   38.4320   23.2600   33.2920 H   0  0  0  0  0  0  0  0  0  0  0  0
   38.8950   24.3830   35.0530 C   0  0  1  0  0  0  0  0  0  0  0  0
   38.1270   25.2760   36.0070 C   0  0  0  0  0  0  0  0  0  0  0  0
   37.9680   24.5370   37.3080 C   0  0  0  0  0  0  0  0  0  0  0  0
   38.1350   23.1040   36.9420 C   0  0  0  0  0  0  0  0  0  0  0  0
   39.1880   23.1490   35.8560 C   0  0  2  0  0  0  0  0  0  0  0  0
   39.7910   24.8780   34.6430 H   0  0  0  0  0  0  0  0  0  0  0  0
   37.1170   25.5300   35.6320 H   0  0  0  0  0  0  0  0  0  0  0  0
   38.6310   26.2540   36.1580 H   0  0  0  0  0  0  0  0  0  0  0  0
   36.9460   24.7270   37.7330 H   0  0  0  0  0  0  0  0  0  0  0  0
   38.7260   24.8500   38.0460 H   0  0  0  0  0  0  0  0  0  0  0  0
   37.1960   22.7040   36.4990 H   0  0  0  0  0  0  0  0  0  0  0  0
   38.4760   22.4720   37.8030 H   0  0  0  0  0  0  0  0  0  0  0  0
   38.9430   22.2820   35.1680 H   0  0  0  0  0  0  0  0  0  0  0  0
   40.4950   22.9790   36.3020 N   0  0  0  0  0  0  0  0  0  0  0  0
   41.5570   23.7360   35.7860 C   0  0  0  0  0  2  0  0  0  0  0  0
   42.9070   23.0840   36.1030 C   0  0  0  0  0  2  0  0  0  0  0  0
   42.7840   21.5880   36.2890 C   0  0  0  0  0  3  0  0  0  0  0  0
   42.5610   21.0890   35.3170 H   0  0  0  0  0  0  0  0  0  0  0  0
   41.8290   21.2240   37.3790 C   0  0  0  0  0  2  0  0  0  0  0  0
   40.7390   22.2670   37.5020 C   0  0  0  0  0  2  0  0  0  0  0  0
   38.7280   27.0970   31.8300 C   0  0  0  0  0  0  0  0  0  0  0  0
   37.4840   27.4030   31.2730 C   0  0  0  0  0  0  0  0  0  0  0  0
   36.4160   26.5720   31.6140 C   0  0  0  0  0  0  0  0  0  0  0  0
   36.6270   25.5360   32.4450 N   0  0  0  0  0  0  0  0  0  0  0  0
   37.8580   25.2680   32.9710 C   0  0  0  0  0  0  0  0  0  0  0  0
   38.8840   26.0560   32.6510 N   0  0  0  0  0  0  0  0  0  0  0  0
   39.6370   27.6540   31.6530 H   0  0  0  0  0  0  0  0  0  0  0  0
   35.4620   26.8220   31.1770 H   0  0  0  0  0  0  0  0  0  0  0  0
   36.8220   29.6960   30.8940 C   0  0  0  0  0  0  0  0  0  0  0  0
   37.4330   28.5480   30.4030 C   0  0  0  0  0  0  0  0  0  0  0  0
   37.9320   28.6300   29.1210 C   0  0  0  0  0  0  0  0  0  0  0  0
   37.8090   29.8150   28.3930 C   0  0  0  0  0  0  0  0  0  0  0  0
   38.2000   30.1460   27.1580 N   0  0  0  0  0  0  0  0  0  0  0  0
   37.8590   31.4000   26.9010 C   0  0  0  0  0  0  0  0  0  0  0  0
   37.2290   31.9020   27.9960 N   0  0  0  0  0  0  0  0  0  0  0  0
   37.1990   30.9220   28.9160 C   0  0  0  0  0  0  0  0  0  0  0  0
   36.6970   30.8630   30.1860 C   0  0  0  0  0  0  0  0  0  0  0  0
   36.4060   29.6960   31.9030 H   0  0  0  0  0  0  0  0  0  0  0  0
   38.4080   27.7470   28.7300 H   0  0  0  0  0  0  0  0  0  0  0  0
   38.6960   29.5300   26.4880 H   0  0  0  0  0  0  0  0  0  0  0  0
   37.9990   32.0230   26.0240 H   0  0  0  0  0  0  0  0  0  0  0  0
   36.2060   31.7240   30.6350 H   0  0  0  0  0  0  0  0  0  0  0  0
  1  2  1  0  0  0  0
  1  4  1  0  0  0  0
  3  1  1  0  0  0  0
  4  9  1  6  0  0  0
  4  8  1  0  0  0  0
  4  5  1  0  0  0  0
  5 11  1  0  0  0  0
  5  6  1  0  0  0  0
  6 12  1  0  0  0  0
  6 13  1  0  0  0  0
  7  6  1  0  0  0  0
  7 15  1  0  0  0  0
  8 16  1  6  0  0  0
  8 17  1  0  0  0  0
  8  7  1  0  0  0  0
 10  5  1  0  0  0  0
 14  7  1  0  0  0  0
 17 23  1  0  0  0  0
 18 19  1  0  0  0  0
 18 17  1  0  0  0  0
 19 20  1  0  0  0  0
 20 22  1  0  0  0  0
 21 20  1  0  0  0  0
 22 23  1  0  0  0  0
 24 29  1  0  0  0  0
 25 26  1  0  0  0  0
 25 24  2  0  0  0  0
 26 27  2  0  0  0  0
 27 28  1  0  0  0  0
 28  1  1  0  0  0  0
 29 28  2  0  0  0  0
 30 24  1  0  0  0  0
 31 26  1  0  0  0  0
 32 41  1  0  0  0  0
 33 32  1  0  0  0  0
 33 25  1  0  0  0  0
 34 33  2  0  0  0  0
 35 39  2  0  0  0  0
 35 34  1  0  0  0  0
 36 35  1  0  0  0  0
 37 36  1  0  0  0  0
 37 38  2  0  0  0  0
 38 39  1  0  0  0  0
 39 40  1  0  0  0  0
 40 45  1  0  0  0  0
 40 32  2  0  0  0  0
 42 34  1  0  0  0  0
 43 36  1  0  0  0  0
 44 37  1  0  0  0  0
M  END
>  <minimizedAffinity>
-6.17589235

$$$$

 OpenBabel03272501473D

 45 49  0  0  1  0  0  0  0  0999 V2000
   35.5130   28.6300   32.4370 C   0  0  0  0  0  0  0  0  0  0  0  0
   35.7780   28.7220   31.3790 H   0  0  0  0  0  0  0  0  0  0  0  0
   34.4890   28.1910   32.5190 H   0  0  0  0  0  0  0  0  0  0  0  0
   35.5080   29.9780   33.1070 C   0  0  1  0  0  0  0  0  0  0  0  0
   35.4670   31.0250   32.0120 C   0  0  0  0  0  0  0  0  0  0  0  0
   34.1930   31.8100   32.1670 C   0  0  0  0  0  0  0  0  0  0  0  0
   33.2980   30.9110   32.9480 C   0  0  0  0  0  0  0  0  0  0  0  0
   34.2530   30.2160   33.8940 C   0  0  2  0  0  0  0  0  0  0  0  0
   36.4320   30.0320   33.7050 H   0  0  0  0  0  0  0  0  0  0  0  0
   35.4720   30.5790   30.9980 H   0  0  0  0  0  0  0  0  0  0  0  0
   36.3550   31.6890   32.0370 H   0  0  0  0  0  0  0  0  0  0  0  0
   33.7560   32.0340   31.1580 H   0  0  0  0  0  0  0  0  0  0  0  0
   34.3660   32.7600   32.7030 H   0  0  0  0  0  0  0  0  0  0  0  0
   32.8450   30.1420   32.2830 H   0  0  0  0  0  0  0  0  0  0  0  0
   32.5080   31.4690   33.5150 H   0  0  0  0  0  0  0  0  0  0  0  0
   33.8080   29.1870   34.0610 H   0  0  0  0  0  0  0  0  0  0  0  0
   34.3890   30.8250   35.1370 N   0  0  0  0  0  0  0  0  0  0  0  0
   33.3220   30.8970   36.0470 C   0  0  0  0  0  2  0  0  0  0  0  0
   33.5810   31.9610   37.1190 C   0  0  0  0  0  2  0  0  0  0  0  0
   34.5100   33.0480   36.6270 C   0  0  0  0  0  3  0  0  0  0  0  0
   34.0040   33.6790   35.8580 H   0  0  0  0  0  0  0  0  0  0  0  0
   35.8330   32.5120   36.1820 C   0  0  0  0  0  2  0  0  0  0  0  0
   35.6820   31.1050   35.6430 C   0  0  0  0  0  2  0  0  0  0  0  0
   37.6370   26.8700   34.9120 C   0  0  0  0  0  0  0  0  0  0  0  0
   38.2320   25.8620   34.1490 C   0  0  0  0  0  0  0  0  0  0  0  0
   37.8900   25.8080   32.7970 C   0  0  0  0  0  0  0  0  0  0  0  0
   37.0220   26.7080   32.3010 N   0  0  0  0  0  0  0  0  0  0  0  0
   36.4620   27.6790   33.0780 C   0  0  0  0  0  0  0  0  0  0  0  0
   36.7810   27.7390   34.3700 N   0  0  0  0  0  0  0  0  0  0  0  0
   37.8110   27.0270   35.9670 H   0  0  0  0  0  0  0  0  0  0  0  0
   38.3580   25.0250   32.2210 H   0  0  0  0  0  0  0  0  0  0  0  0
   40.4910   25.1010   34.5410 C   0  0  0  0  0  0  0  0  0  0  0  0
   39.1380   24.9830   34.8380 C   0  0  0  0  0  0  0  0  0  0  0  0
   38.8060   24.0260   35.7720 C   0  0  0  0  0  0  0  0  0  0  0  0
   39.8000   23.2430   36.3610 C   0  0  0  0  0  0  0  0  0  0  0  0
   39.7410   22.2680   37.2750 N   0  0  0  0  0  0  0  0  0  0  0  0
   40.9610   21.8150   37.5260 C   0  0  0  0  0  0  0  0  0  0  0  0
   41.8390   22.5110   36.7570 N   0  0  0  0  0  0  0  0  0  0  0  0
   41.1210   23.3920   36.0390 C   0  0  0  0  0  0  0  0  0  0  0  0
   41.4740   24.3360   35.1140 C   0  0  0  0  0  0  0  0  0  0  0  0
   40.8200   25.8400   33.8090 H   0  0  0  0  0  0  0  0  0  0  0  0
   37.7600   23.9260   36.0110 H   0  0  0  0  0  0  0  0  0  0  0  0
   38.8830   21.9070   37.7290 H   0  0  0  0  0  0  0  0  0  0  0  0
   41.3220   21.0410   38.1940 H   0  0  0  0  0  0  0  0  0  0  0  0
   42.5140   24.4830   34.8340 H   0  0  0  0  0  0  0  0  0  0  0  0
  1  3  1  0  0  0  0
  1 28  1  0  0  0  0
  1  4  1  0  0  0  0
  2  1  1  0  0  0  0
  4  9  1  1  0  0  0
  4  8  1  0  0  0  0
  5 11  1  0  0  0  0
  5  6  1  0  0  0  0
  5  4  1  0  0  0  0
  6 13  1  0  0  0  0
  6  7  1  0  0  0  0
  7 15  1  0  0  0  0
  7  8  1  0  0  0  0
  8 16  1  1  0  0  0
  8 17  1  0  0  0  0
 10  5  1  0  0  0  0
 12  6  1  0  0  0  0
 14  7  1  0  0  0  0
 17 23  1  0  0  0  0
 17 18  1  0  0  0  0
 18 19  1  0  0  0  0
 20 19  1  0  0  0  0
 21 20  1  0  0  0  0
 22 20  1  0  0  0  0
 23 22  1  0  0  0  0
 24 30  1  0  0  0  0
 25 33  1  0  0  0  0
 25 24  2  0  0  0  0
 26 25  1  0  0  0  0
 27 26  2  0  0  0  0
 27 28  1  0  0  0  0
 28 29  2  0  0  0  0
 29 24  1  0  0  0  0
 31 26  1  0  0  0  0
 32 33  2  0  0  0  0
 32 40  1  0  0  0  0
 33 34  1  0  0  0  0
 34 42  1  0  0  0  0
 34 35  2  0  0  0  0
 35 36  1  0  0  0  0
 36 37  1  0  0  0  0
 36 43  1  0  0  0  0
 37 44  1  0  0  0  0
 38 37  2  0  0  0  0
 39 35  1  0  0  0  0
 39 38  1  0  0  0  0
 40 39  2  0  0  0  0
 41 32  1  0  0  0  0
 45 40  1  0  0  0  0
M  END
>  <minimizedAffinity>
-6.14546204

$$$$

 OpenBabel03272501473D

 45 49  0  0  1  0  0  0  0  0999 V2000
   38.2730   25.2330   32.7570 C   0  0  0  0  0  0  0  0  0  0  0  0
   38.0040   25.0640   31.7100 H   0  0  0  0  0  0  0  0  0  0  0  0
   39.3660   25.4500   32.8230 H   0  0  0  0  0  0  0  0  0  0  0  0
   37.9800   24.0130   33.5900 C   0  0  1  0  0  0  0  0  0  0  0  0
   37.7360   22.8630   32.6320 C   0  0  0  0  0  0  0  0  0  0  0  0
   38.7920   21.8210   32.8790 C   0  0  0  0  0  0  0  0  0  0  0  0
   39.8990   22.5660   33.5400 C   0  0  0  0  0  0  0  0  0  0  0  0
   39.1680   23.5770   34.3960 C   0  0  2  0  0  0  0  0  0  0  0  0
   37.0890   24.2530   34.1930 H   0  0  0  0  0  0  0  0  0  0  0  0
   37.8030   23.1730   31.5710 H   0  0  0  0  0  0  0  0  0  0  0  0
   36.7160   22.4390   32.7430 H   0  0  0  0  0  0  0  0  0  0  0  0
   39.1300   21.3790   31.9040 H   0  0  0  0  0  0  0  0  0  0  0  0
   38.4170   21.0110   33.5290 H   0  0  0  0  0  0  0  0  0  0  0  0
   40.4990   23.1190   32.7830 H   0  0  0  0  0  0  0  0  0  0  0  0
   40.5530   21.9070   34.1690 H   0  0  0  0  0  0  0  0  0  0  0  0
   39.8500   24.4820   34.4330 H   0  0  0  0  0  0  0  0  0  0  0  0
   38.9320   23.1710   35.7050 N   0  0  0  0  0  0  0  0  0  0  0  0
   37.7350   23.4770   36.3700 C   0  0  0  0  0  2  0  0  0  0  0  0
   37.8850   23.3130   37.8860 C   0  0  0  0  0  2  0  0  0  0  0  0
   39.3170   23.4940   38.3360 C   0  0  0  0  0  3  0  0  0  0  0  0
   39.6290   24.5610   38.2340 H   0  0  0  0  0  0  0  0  0  0  0  0
   40.2520   22.5350   37.6730 C   0  0  0  0  0  2  0  0  0  0  0  0
   39.7530   22.1760   36.2900 C   0  0  0  0  0  2  0  0  0  0  0  0
   36.8960   27.9150   34.9130 C   0  0  0  0  0  0  0  0  0  0  0  0
   36.1600   28.6890   34.0120 C   0  0  0  0  0  0  0  0  0  0  0  0
   36.1520   28.2730   32.6810 C   0  0  0  0  0  0  0  0  0  0  0  0
   36.8380   27.1700   32.3310 N   0  0  0  0  0  0  0  0  0  0  0  0
   37.5460   26.4390   33.2400 C   0  0  0  0  0  0  0  0  0  0  0  0
   37.5600   26.8280   34.5150 N   0  0  0  0  0  0  0  0  0  0  0  0
   36.9880   28.1210   35.9700 H   0  0  0  0  0  0  0  0  0  0  0  0
   35.5780   28.8790   31.9980 H   0  0  0  0  0  0  0  0  0  0  0  0
   34.3970   30.3330   33.8410 C   0  0  0  0  0  0  0  0  0  0  0  0
   35.4840   29.8380   34.5540 C   0  0  0  0  0  0  0  0  0  0  0  0
   35.8010   30.5070   35.7160 C   0  0  0  0  0  0  0  0  0  0  0  0
   35.0490   31.6120   36.1180 C   0  0  0  0  0  0  0  0  0  0  0  0
   35.1480   32.4180   37.1810 N   0  0  0  0  0  0  0  0  0  0  0  0
   34.1990   33.3420   37.1340 C   0  0  0  0  0  0  0  0  0  0  0  0
   33.4610   33.1340   36.0110 N   0  0  0  0  0  0  0  0  0  0  0  0
   33.9870   32.0670   35.3860 C   0  0  0  0  0  0  0  0  0  0  0  0
   33.6540   31.4180   34.2290 C   0  0  0  0  0  0  0  0  0  0  0  0
   34.0950   29.8470   32.9130 H   0  0  0  0  0  0  0  0  0  0  0  0
   36.6400   30.1320   36.2760 H   0  0  0  0  0  0  0  0  0  0  0  0
   35.8530   32.3480   37.9380 H   0  0  0  0  0  0  0  0  0  0  0  0
   33.9520   34.1600   37.8010 H   0  0  0  0  0  0  0  0  0  0  0  0
   32.8160   31.7500   33.6220 H   0  0  0  0  0  0  0  0  0  0  0  0
  1  3  1  0  0  0  0
  1 28  1  0  0  0  0
  1  4  1  0  0  0  0
  2  1  1  0  0  0  0
  4  9  1  1  0  0  0
  4  8  1  0  0  0  0
  5 11  1  0  0  0  0
  5  6  1  0  0  0  0
  5  4  1  0  0  0  0
  6 13  1  0  0  0  0
  6  7  1  0  0  0  0
  7 15  1  0  0  0  0
  7  8  1  0  0  0  0
  8 16  1  1  0  0  0
  8 17  1  0  0  0  0
 10  5  1  0  0  0  0
 12  6  1  0  0  0  0
 14  7  1  0  0  0  0
 17 23  1  0  0  0  0
 17 18  1  0  0  0  0
 18 19  1  0  0  0  0
 19 20  1  0  0  0  0
 21 20  1  0  0  0  0
 22 20  1  0  0  0  0
 23 22  1  0  0  0  0
 24 30  1  0  0  0  0
 25 33  1  0  0  0  0
 25 24  2  0  0  0  0
 26 25  1  0  0  0  0
 27 26  2  0  0  0  0
 27 28  1  0  0  0  0
 28 29  2  0  0  0  0
 29 24  1  0  0  0  0
 31 26  1  0  0  0  0
 32 40  2  0  0  0  0
 32 33  1  0  0  0  0
 33 34  2  0  0  0  0
 34 35  1  0  0  0  0
 34 42  1  0  0  0  0
 35 36  1  0  0  0  0
 36 43  1  0  0  0  0
 37 36  1  0  0  0  0
 37 44  1  0  0  0  0
 38 37  2  0  0  0  0
 39 38  1  0  0  0  0
 39 35  2  0  0  0  0
 40 39  1  0  0  0  0
 41 32  1  0  0  0  0
 45 40  1  0  0  0  0
M  END
>  <minimizedAffinity>
-6.0913868

$$$$

 OpenBabel03272501473D

 45 49  0  0  1  0  0  0  0  0999 V2000
   38.2420   25.0690   32.7810 C   0  0  0  0  0  0  0  0  0  0  0  0
   37.9710   24.8720   31.7400 H   0  0  0  0  0  0  0  0  0  0  0  0
   39.3390   25.2740   32.8400 H   0  0  0  0  0  0  0  0  0  0  0  0
   37.9330   23.8790   33.6500 C   0  0  1  0  0  0  0  0  0  0  0  0
   37.6120   22.7200   32.7280 C   0  0  0  0  0  0  0  0  0  0  0  0
   38.6350   21.6430   32.9610 C   0  0  0  0  0  0  0  0  0  0  0  0
   39.7930   22.3580   33.5660 C   0  0  0  0  0  0  0  0  0  0  0  0
   39.1320   23.4150   34.4240 C   0  0  2  0  0  0  0  0  0  0  0  0
   37.0750   24.1670   34.2790 H   0  0  0  0  0  0  0  0  0  0  0  0
   37.6530   23.0050   31.6590 H   0  0  0  0  0  0  0  0  0  0  0  0
   36.5810   22.3380   32.8840 H   0  0  0  0  0  0  0  0  0  0  0  0
   38.9210   21.1680   31.9850 H   0  0  0  0  0  0  0  0  0  0  0  0
   38.2530   20.8620   33.6410 H   0  0  0  0  0  0  0  0  0  0  0  0
   40.3860   22.8720   32.7760 H   0  0  0  0  0  0  0  0  0  0  0  0
   40.4430   21.6880   34.1870 H   0  0  0  0  0  0  0  0  0  0  0  0
   39.8480   24.2930   34.4170 H   0  0  0  0  0  0  0  0  0  0  0  0
   38.9280   23.0460   35.7500 N   0  0  0  0  0  0  0  0  0  0  0  0
   37.7190   23.3080   36.4130 C   0  0  0  0  0  2  0  0  0  0  0  0
   37.8880   23.2100   37.9320 C   0  0  0  0  0  2  0  0  0  0  0  0
   39.3100   23.4900   38.3630 C   0  0  0  0  0  3  0  0  0  0  0  0
   39.5600   24.5680   38.2190 H   0  0  0  0  0  0  0  0  0  0  0  0
   40.2940   22.5600   37.7290 C   0  0  0  0  0  2  0  0  0  0  0  0
   39.8070   22.1220   36.3640 C   0  0  0  0  0  2  0  0  0  0  0  0
   36.1620   28.1360   32.8420 C   0  0  0  0  0  0  0  0  0  0  0  0
   36.2680   28.5550   34.1710 C   0  0  0  0  0  0  0  0  0  0  0  0
   37.0530   27.7750   35.0190 C   0  0  0  0  0  0  0  0  0  0  0  0
   37.6590   26.6780   34.5320 N   0  0  0  0  0  0  0  0  0  0  0  0
   37.5320   26.2990   33.2270 C   0  0  0  0  0  0  0  0  0  0  0  0
   36.7840   27.0380   32.4080 N   0  0  0  0  0  0  0  0  0  0  0  0
   35.5880   28.6440   32.0800 H   0  0  0  0  0  0  0  0  0  0  0  0
   37.1270   28.1130   36.0410 H   0  0  0  0  0  0  0  0  0  0  0  0
   36.1480   30.5960   35.4590 C   0  0  0  0  0  0  0  0  0  0  0  0
   35.5550   29.7540   34.5260 C   0  0  0  0  0  0  0  0  0  0  0  0
   34.3330   30.1600   34.0340 C   0  0  0  0  0  0  0  0  0  0  0  0
   33.7610   31.3550   34.4740 C   0  0  0  0  0  0  0  0  0  0  0  0
   32.6100   31.9600   34.1600 N   0  0  0  0  0  0  0  0  0  0  0  0
   32.4970   33.0900   34.8430 C   0  0  0  0  0  0  0  0  0  0  0  0
   33.6010   33.2260   35.6250 N   0  0  0  0  0  0  0  0  0  0  0  0
   34.3800   32.1550   35.3960 C   0  0  0  0  0  0  0  0  0  0  0  0
   35.5920   31.7710   35.8970 C   0  0  0  0  0  0  0  0  0  0  0  0
   37.1160   30.3310   35.8870 H   0  0  0  0  0  0  0  0  0  0  0  0
   33.8640   29.5160   33.3110 H   0  0  0  0  0  0  0  0  0  0  0  0
   31.9020   31.6160   33.4870 H   0  0  0  0  0  0  0  0  0  0  0  0
   31.7220   33.8480   34.8640 H   0  0  0  0  0  0  0  0  0  0  0  0
   36.1140   32.3810   36.6300 H   0  0  0  0  0  0  0  0  0  0  0  0
  1  3  1  0  0  0  0
  1 28  1  0  0  0  0
  1  4  1  0  0  0  0
  2  1  1  0  0  0  0
  4  9  1  1  0  0  0
  4  8  1  0  0  0  0
  5 11  1  0  0  0  0
  5  6  1  0  0  0  0
  5  4  1  0  0  0  0
  6  7  1  0  0  0  0
  6 13  1  0  0  0  0
  7 15  1  0  0  0  0
  7  8  1  0  0  0  0
  8 16  1  1  0  0  0
  8 17  1  0  0  0  0
 10  5  1  0  0  0  0
 12  6  1  0  0  0  0
 14  7  1  0  0  0  0
 17 23  1  0  0  0  0
 17 18  1  0  0  0  0
 18 19  1  0  0  0  0
 19 20  1  0  0  0  0
 21 20  1  0  0  0  0
 22 20  1  0  0  0  0
 23 22  1  0  0  0  0
 24 25  1  0  0  0  0
 25 33  1  0  0  0  0
 25 26  2  0  0  0  0
 26 31  1  0  0  0  0
 27 26  1  0  0  0  0
 28 27  2  0  0  0  0
 29 24  2  0  0  0  0
 29 28  1  0  0  0  0
 30 24  1  0  0  0  0
 32 41  1  0  0  0  0
 32 40  1  0  0  0  0
 33 32  2  0  0  0  0
 34 35  2  0  0  0  0
 34 33  1  0  0  0  0
 35 39  1  0  0  0  0
 36 35  1  0  0  0  0
 36 37  1  0  0  0  0
 37 44  1  0  0  0  0
 37 38  2  0  0  0  0
 39 38  1  0  0  0  0
 39 40  2  0  0  0  0
 40 45  1  0  0  0  0
 42 34  1  0  0  0  0
 43 36  1  0  0  0  0
M  END
>  <minimizedAffinity>
-5.90429831

$$$$

 OpenBabel03272501473D

 45 49  0  0  1  0  0  0  0  0999 V2000
   38.6770   25.3660   31.8970 C   0  0  0  0  0  0  0  0  0  0  0  0
   39.1750   25.8080   31.0280 H   0  0  0  0  0  0  0  0  0  0  0  0
   39.4520   25.0140   32.6200 H   0  0  0  0  0  0  0  0  0  0  0  0
   37.8360   24.1860   31.4890 C   0  0  1  0  0  0  0  0  0  0  0  0
   38.3260   23.7330   30.1280 C   0  0  0  0  0  0  0  0  0  0  0  0
   38.8430   22.3270   30.2650 C   0  0  0  0  0  0  0  0  0  0  0  0
   39.1510   22.1860   31.7150 C   0  0  0  0  0  0  0  0  0  0  0  0
   38.0580   22.9960   32.3770 C   0  0  2  0  0  0  0  0  0  0  0  0
   36.7930   24.5400   31.4630 H   0  0  0  0  0  0  0  0  0  0  0  0
   39.1500   24.3640   29.7420 H   0  0  0  0  0  0  0  0  0  0  0  0
   37.5310   23.7970   29.3570 H   0  0  0  0  0  0  0  0  0  0  0  0
   39.7690   22.1970   29.6430 H   0  0  0  0  0  0  0  0  0  0  0  0
   38.0900   21.5860   29.9460 H   0  0  0  0  0  0  0  0  0  0  0  0
   40.1290   22.6610   31.9520 H   0  0  0  0  0  0  0  0  0  0  0  0
   39.1250   21.1210   32.0640 H   0  0  0  0  0  0  0  0  0  0  0  0
   38.5280   23.4140   33.3200 H   0  0  0  0  0  0  0  0  0  0  0  0
   36.9350   22.2660   32.7520 N   0  0  0  0  0  0  0  0  0  0  0  0
   36.8630   21.6010   33.9860 C   0  0  0  0  0  2  0  0  0  0  0  0
   35.7530   20.5440   33.9810 C   0  0  0  0  0  2  0  0  0  0  0  0
   35.4610   20.0360   32.5870 C   0  0  0  0  0  3  0  0  0  0  0  0
   36.3090   19.4150   32.2100 H   0  0  0  0  0  0  0  0  0  0  0  0
   35.0600   21.1300   31.6510 C   0  0  0  0  0  2  0  0  0  0  0  0
   35.7210   22.4340   32.0430 C   0  0  0  0  0  2  0  0  0  0  0  0
   36.3510   28.1750   32.5560 C   0  0  0  0  0  0  0  0  0  0  0  0
   36.4620   28.3510   33.9370 C   0  0  0  0  0  0  0  0  0  0  0  0
   37.3350   27.5000   34.6150 C   0  0  0  0  0  0  0  0  0  0  0  0
   38.0160   26.5680   33.9230 N   0  0  0  0  0  0  0  0  0  0  0  0
   37.8810   26.4260   32.5730 C   0  0  0  0  0  0  0  0  0  0  0  0
   37.0490   27.2340   31.9160 N   0  0  0  0  0  0  0  0  0  0  0  0
   35.7140   28.7620   31.9090 H   0  0  0  0  0  0  0  0  0  0  0  0
   37.4110   27.6500   35.6810 H   0  0  0  0  0  0  0  0  0  0  0  0
   34.3420   29.4990   34.0960 C   0  0  0  0  0  0  0  0  0  0  0  0
   35.6630   29.3960   34.5190 C   0  0  0  0  0  0  0  0  0  0  0  0
   36.0700   30.3170   35.4610 C   0  0  0  0  0  0  0  0  0  0  0  0
   35.1760   31.2780   35.9360 C   0  0  0  0  0  0  0  0  0  0  0  0
   35.3200   32.2620   36.8300 N   0  0  0  0  0  0  0  0  0  0  0  0
   34.1790   32.9250   36.9540 C   0  0  0  0  0  0  0  0  0  0  0  0
   33.2670   32.3600   36.1200 N   0  0  0  0  0  0  0  0  0  0  0  0
   33.8840   31.3440   35.4920 C   0  0  0  0  0  0  0  0  0  0  0  0
   33.4580   30.4410   34.5570 C   0  0  0  0  0  0  0  0  0  0  0  0
   33.9580   28.8000   33.3520 H   0  0  0  0  0  0  0  0  0  0  0  0
   37.0910   30.2470   35.7960 H   0  0  0  0  0  0  0  0  0  0  0  0
   36.1820   32.4890   37.3570 H   0  0  0  0  0  0  0  0  0  0  0  0
   33.8970   33.7720   37.5690 H   0  0  0  0  0  0  0  0  0  0  0  0
   32.4380   30.4620   34.1820 H   0  0  0  0  0  0  0  0  0  0  0  0
  1 28  1  0  0  0  0
  1  3  1  0  0  0  0
  2  1  1  0  0  0  0
  4  9  1  6  0  0  0
  4  1  1  0  0  0  0
  4  8  1  0  0  0  0
  5  6  1  0  0  0  0
  5  4  1  0  0  0  0
  6  7  1  0  0  0  0
  7 14  1  0  0  0  0
  7 15  1  0  0  0  0
  7  8  1  0  0  0  0
  8 17  1  0  0  0  0
  8 16  1  1  0  0  0
 10  5  1  0  0  0  0
 11  5  1  0  0  0  0
 12  6  1  0  0  0  0
 13  6  1  0  0  0  0
 17 18  1  0  0  0  0
 19 18  1  0  0  0  0
 20 19  1  0  0  0  0
 21 20  1  0  0  0  0
 22 23  1  0  0  0  0
 22 20  1  0  0  0  0
 23 17  1  0  0  0  0
 24 25  1  0  0  0  0
 25 33  1  0  0  0  0
 25 26  2  0  0  0  0
 26 31  1  0  0  0  0
 27 26  1  0  0  0  0
 28 27  2  0  0  0  0
 29 24  2  0  0  0  0
 29 28  1  0  0  0  0
 30 24  1  0  0  0  0
 32 33  2  0  0  0  0
 32 40  1  0  0  0  0
 33 34  1  0  0  0  0
 34 42  1  0  0  0  0
 34 35  2  0  0  0  0
 35 36  1  0  0  0  0
 36 37  1  0  0  0  0
 36 43  1  0  0  0  0
 37 44  1  0  0  0  0
 38 37  2  0  0  0  0
 39 35  1  0  0  0  0
 39 38  1  0  0  0  0
 40 39  2  0  0  0  0
 41 32  1  0  0  0  0
 45 40  1  0  0  0  0
M  END
>  <minimizedAffinity>
-5.89660168

$$$$

 OpenBabel03272501473D

 45 49  0  0  1  0  0  0  0  0999 V2000
   36.0680   29.5130   33.0150 C   0  0  0  0  0  0  0  0  0  0  0  0
   37.0660   29.9390   33.1530 H   0  0  0  0  0  0  0  0  0  0  0  0
   35.5630   30.0330   32.1650 H   0  0  0  0  0  0  0  0  0  0  0  0
   35.2290   29.6980   34.2520 C   0  0  1  0  0  0  0  0  0  0  0  0
   36.1560   30.1650   35.3570 C   0  0  0  0  0  0  0  0  0  0  0  0
   35.7070   31.5330   35.7920 C   0  0  0  0  0  0  0  0  0  0  0  0
   34.9280   32.0530   34.6330 C   0  0  0  0  0  0  0  0  0  0  0  0
   34.2380   30.8150   34.1030 C   0  0  2  0  0  0  0  0  0  0  0  0
   34.7750   28.7180   34.4710 H   0  0  0  0  0  0  0  0  0  0  0  0
   37.2090   30.2410   35.0250 H   0  0  0  0  0  0  0  0  0  0  0  0
   36.1750   29.4560   36.2110 H   0  0  0  0  0  0  0  0  0  0  0  0
   36.6000   32.1810   36.0000 H   0  0  0  0  0  0  0  0  0  0  0  0
   35.0810   31.4840   36.7000 H   0  0  0  0  0  0  0  0  0  0  0  0
   35.6150   32.4340   33.8450 H   0  0  0  0  0  0  0  0  0  0  0  0
   34.1790   32.8330   34.9270 H   0  0  0  0  0  0  0  0  0  0  0  0
   34.1460   30.9830   32.9860 H   0  0  0  0  0  0  0  0  0  0  0  0
   32.9590   30.5990   34.6060 N   0  0  0  0  0  0  0  0  0  0  0  0
   31.8840   31.4400   34.2780 C   0  0  0  0  0  2  0  0  0  0  0  0
   30.7250   31.2660   35.2660 C   0  0  0  0  0  2  0  0  0  0  0  0
   31.1990   30.7810   36.6170 C   0  0  0  0  0  3  0  0  0  0  0  0
   31.7710   31.5820   37.1430 H   0  0  0  0  0  0  0  0  0  0  0  0
   31.9330   29.4820   36.5340 C   0  0  0  0  0  2  0  0  0  0  0  0
   32.6410   29.3550   35.2020 C   0  0  0  0  0  2  0  0  0  0  0  0
   37.0180   25.9300   33.0070 C   0  0  0  0  0  0  0  0  0  0  0  0
   36.4230   25.4550   31.8360 C   0  0  0  0  0  0  0  0  0  0  0  0
   35.7050   26.3760   31.0720 C   0  0  0  0  0  0  0  0  0  0  0  0
   35.6210   27.6530   31.4880 N   0  0  0  0  0  0  0  0  0  0  0  0
   36.2170   28.0800   32.6390 C   0  0  0  0  0  0  0  0  0  0  0  0
   36.9040   27.2080   33.3760 N   0  0  0  0  0  0  0  0  0  0  0  0
   37.6000   25.3280   33.6900 H   0  0  0  0  0  0  0  0  0  0  0  0
   35.2530   25.9940   30.1710 H   0  0  0  0  0  0  0  0  0  0  0  0
   37.8540   23.6760   31.0460 C   0  0  0  0  0  0  0  0  0  0  0  0
   36.6120   24.0600   31.5380 C   0  0  0  0  0  0  0  0  0  0  0  0
   35.6840   23.0520   31.6900 C   0  0  0  0  0  0  0  0  0  0  0  0
   36.0140   21.7370   31.3590 C   0  0  0  0  0  0  0  0  0  0  0  0
   35.3090   20.6020   31.4130 N   0  0  0  0  0  0  0  0  0  0  0  0
   36.0540   19.5910   30.9880 C   0  0  0  0  0  0  0  0  0  0  0  0
   37.2770   20.0790   30.6470 N   0  0  0  0  0  0  0  0  0  0  0  0
   37.2500   21.4030   30.8770 C   0  0  0  0  0  0  0  0  0  0  0  0
   38.1860   22.3870   30.7170 C   0  0  0  0  0  0  0  0  0  0  0  0
   38.6330   24.4270   30.9020 H   0  0  0  0  0  0  0  0  0  0  0  0
   34.7190   23.3380   32.0710 H   0  0  0  0  0  0  0  0  0  0  0  0
   34.3300   20.5050   31.7350 H   0  0  0  0  0  0  0  0  0  0  0  0
   35.8460   18.5320   30.8850 H   0  0  0  0  0  0  0  0  0  0  0  0
   39.1790   22.1580   30.3370 H   0  0  0  0  0  0  0  0  0  0  0  0
  1  2  1  0  0  0  0
  1  4  1  0  0  0  0
  3  1  1  0  0  0  0
  4  9  1  1  0  0  0
  4  5  1  0  0  0  0
  5  6  1  0  0  0  0
  5 11  1  0  0  0  0
  6 12  1  0  0  0  0
  6 13  1  0  0  0  0
  7 15  1  0  0  0  0
  7  6  1  0  0  0  0
  8 16  1  6  0  0  0
  8  4  1  0  0  0  0
  8 17  1  0  0  0  0
  8  7  1  0  0  0  0
 10  5  1  0  0  0  0
 14  7  1  0  0  0  0
 17 23  1  0  0  0  0
 18 17  1  0  0  0  0
 18 19  1  0  0  0  0
 19 20  1  0  0  0  0
 20 21  1  0  0  0  0
 22 20  1  0  0  0  0
 23 22  1  0  0  0  0
 24 29  1  0  0  0  0
 24 30  1  0  0  0  0
 25 24  2  0  0  0  0
 26 27  2  0  0  0  0
 26 25  1  0  0  0  0
 27 28  1  0  0  0  0
 28  1  1  0  0  0  0
 28 29  2  0  0  0  0
 31 26  1  0  0  0  0
 32 33  1  0  0  0  0
 33 34  2  0  0  0  0
 33 25  1  0  0  0  0
 34 42  1  0  0  0  0
 35 36  1  0  0  0  0
 35 34  1  0  0  0  0
 36 43  1  0  0  0  0
 37 36  1  0  0  0  0
 38 39  1  0  0  0  0
 38 37  2  0  0  0  0
 39 35  2  0  0  0  0
 40 39  1  0  0  0  0
 40 32  2  0  0  0  0
 41 32  1  0  0  0  0
 44 37  1  0  0  0  0
 45 40  1  0  0  0  0
M  END
>  <minimizedAffinity>
-5.86109352

$$$$
