
 OpenBabel03272505223D

 26 28  0  0  0  0  0  0  0  0999 V2000
   38.1720   23.5830   33.5530 Br  0  0  0  0  0  0  0  0  0  0  0  0
   36.9210   24.5080   32.4500 C   0  0  0  0  0  0  0  0  0  0  0  0
   36.0510   23.8110   31.6500 C   0  0  0  0  0  0  0  0  0  0  0  0
   35.1620   24.5330   30.8700 C   0  0  0  0  0  0  0  0  0  0  0  0
   35.1610   25.9120   30.9020 C   0  0  0  0  0  0  0  0  0  0  0  0
   36.0470   26.6240   31.7180 C   0  0  0  0  0  0  0  0  0  0  0  0
   36.9370   25.8890   32.5000 C   0  0  0  0  0  0  0  0  0  0  0  0
   34.4720   23.9700   30.2340 H   0  0  0  0  0  0  0  0  0  0  0  0
   34.4570   26.4440   30.2840 H   0  0  0  0  0  0  0  0  0  0  0  0
   36.0160   27.7030   31.7170 H   0  0  0  0  0  0  0  0  0  0  0  0
   35.3460   20.1800   32.4570 C   0  0  0  0  0  0  0  0  0  0  0  0
   35.2570   21.5770   32.4370 C   0  0  0  0  0  0  0  0  0  0  0  0
   36.1280   22.3630   31.6830 C   0  0  0  0  0  0  0  0  0  0  0  0
   37.0520   21.6580   30.9800 N   0  0  0  0  0  0  0  0  0  0  0  0
   37.1430   20.3250   30.9950 C   0  0  0  0  0  0  0  0  0  0  0  0
   36.2950   19.5950   31.7280 N   0  0  0  0  0  0  0  0  0  0  0  0
   34.6300   19.6530   33.0700 H   0  0  0  0  0  0  0  0  0  0  0  0
   34.5010   22.0920   33.0140 H   0  0  0  0  0  0  0  0  0  0  0  0
   37.9270   19.8590   30.3910 H   0  0  0  0  0  0  0  0  0  0  0  0
   37.7940   26.6730   33.2910 N   0  0  0  0  0  0  0  0  0  0  0  0
   37.5690   26.9590   34.6860 C   0  0  0  0  0  2  0  0  0  0  0  0
   38.7970   27.1650   35.4960 C   0  0  0  0  0  2  0  0  0  0  0  0
   40.0650   26.6280   34.9500 C   0  0  0  0  0  3  0  0  0  0  0  0
   40.2880   25.6180   35.3680 H   0  0  0  0  0  0  0  0  0  0  0  0
   40.1720   26.6330   33.4570 C   0  0  0  0  0  2  0  0  0  0  0  0
   38.9960   27.2740   32.7720 C   0  0  0  0  0  2  0  0  0  0  0  0
  2  7  1  0  0  0  0
  2  1  1  0  0  0  0
  3 13  1  0  0  0  0
  3  2  2  0  0  0  0
  4  5  2  0  0  0  0
  4  3  1  0  0  0  0
  5  6  1  0  0  0  0
  6  7  2  0  0  0  0
  7 20  1  0  0  0  0
  8  4  1  0  0  0  0
  9  5  1  0  0  0  0
 10  6  1  0  0  0  0
 11 17  1  0  0  0  0
 12 11  1  0  0  0  0
 12 18  1  0  0  0  0
 13 12  2  0  0  0  0
 14 15  2  0  0  0  0
 14 13  1  0  0  0  0
 15 16  1  0  0  0  0
 16 11  2  0  0  0  0
 19 15  1  0  0  0  0
 20 21  1  0  0  0  0
 21 22  1  0  0  0  0
 23 24  1  0  0  0  0
 23 22  1  0  0  0  0
 25 23  1  0  0  0  0
 26 20  1  0  0  0  0
 26 25  1  0  0  0  0
M  END
>  <minimizedAffinity>
-5.29132891

$$$$

 OpenBabel03272505223D

 26 28  0  0  0  0  0  0  0  0999 V2000
   38.2380   21.8540   33.7450 Br  0  0  0  0  0  0  0  0  0  0  0  0
   37.2270   23.1460   32.7730 C   0  0  0  0  0  0  0  0  0  0  0  0
   36.3080   22.7480   31.8340 C   0  0  0  0  0  0  0  0  0  0  0  0
   35.6000   23.7280   31.1580 C   0  0  0  0  0  0  0  0  0  0  0  0
   35.8210   25.0630   31.4260 C   0  0  0  0  0  0  0  0  0  0  0  0
   36.7570   25.4710   32.3820 C   0  0  0  0  0  0  0  0  0  0  0  0
   37.4640   24.4780   33.0580 C   0  0  0  0  0  0  0  0  0  0  0  0
   34.8700   23.4020   30.4110 H   0  0  0  0  0  0  0  0  0  0  0  0
   35.2550   25.8010   30.8820 H   0  0  0  0  0  0  0  0  0  0  0  0
   36.9020   26.5250   32.5650 H   0  0  0  0  0  0  0  0  0  0  0  0
   36.7120   19.2340   30.4820 C   0  0  0  0  0  0  0  0  0  0  0  0
   36.8820   20.6110   30.6730 C   0  0  0  0  0  0  0  0  0  0  0  0
   36.1470   21.3220   31.6220 C   0  0  0  0  0  0  0  0  0  0  0  0
   35.2680   20.5660   32.3310 N   0  0  0  0  0  0  0  0  0  0  0  0
   35.1010   19.2530   32.1530 C   0  0  0  0  0  0  0  0  0  0  0  0
   35.8190   18.5950   31.2360 N   0  0  0  0  0  0  0  0  0  0  0  0
   37.3240   18.7670   29.7250 H   0  0  0  0  0  0  0  0  0  0  0  0
   37.5960   21.1690   30.0830 H   0  0  0  0  0  0  0  0  0  0  0  0
   34.3640   18.7410   32.7800 H   0  0  0  0  0  0  0  0  0  0  0  0
   38.3850   24.9650   34.0010 N   0  0  0  0  0  0  0  0  0  0  0  0
   39.6880   25.4830   33.6660 C   0  0  0  0  0  2  0  0  0  0  0  0
   40.2090   26.5280   34.5830 C   0  0  0  0  0  2  0  0  0  0  0  0
   39.2210   27.2410   35.4260 C   0  0  0  0  0  3  0  0  0  0  0  0
   38.9050   28.2000   34.9530 H   0  0  0  0  0  0  0  0  0  0  0  0
   38.0370   26.4300   35.8510 C   0  0  0  0  0  2  0  0  0  0  0  0
   38.1070   24.9910   35.4140 C   0  0  0  0  0  2  0  0  0  0  0  0
  2  7  1  0  0  0  0
  2  1  1  0  0  0  0
  3  2  2  0  0  0  0
  4  5  2  0  0  0  0
  4  3  1  0  0  0  0
  5  6  1  0  0  0  0
  6 10  1  0  0  0  0
  6  7  2  0  0  0  0
  7 20  1  0  0  0  0
  8  4  1  0  0  0  0
  9  5  1  0  0  0  0
 11 12  2  0  0  0  0
 11 16  1  0  0  0  0
 12 13  1  0  0  0  0
 13  3  1  0  0  0  0
 13 14  2  0  0  0  0
 15 14  1  0  0  0  0
 15 19  1  0  0  0  0
 16 15  2  0  0  0  0
 17 11  1  0  0  0  0
 18 12  1  0  0  0  0
 20 26  1  0  0  0  0
 21 20  1  0  0  0  0
 21 22  1  0  0  0  0
 22 23  1  0  0  0  0
 23 25  1  0  0  0  0
 24 23  1  0  0  0  0
 26 25  1  0  0  0  0
M  END
>  <minimizedAffinity>
-5.08737803

$$$$

 OpenBabel03272505223D

 26 28  0  0  0  0  0  0  0  0999 V2000
   37.4180   21.7930   34.4770 Br  0  0  0  0  0  0  0  0  0  0  0  0
   38.0070   23.4810   33.8150 C   0  0  0  0  0  0  0  0  0  0  0  0
   38.5750   24.4000   34.6600 C   0  0  0  0  0  0  0  0  0  0  0  0
   38.9860   25.6110   34.1270 C   0  0  0  0  0  0  0  0  0  0  0  0
   38.8230   25.8760   32.7830 C   0  0  0  0  0  0  0  0  0  0  0  0
   38.2440   24.9410   31.9190 C   0  0  0  0  0  0  0  0  0  0  0  0
   37.8330   23.7250   32.4650 C   0  0  0  0  0  0  0  0  0  0  0  0
   39.4380   26.3380   34.8080 H   0  0  0  0  0  0  0  0  0  0  0  0
   39.1530   26.8270   32.3990 H   0  0  0  0  0  0  0  0  0  0  0  0
   38.1320   25.1830   30.8730 H   0  0  0  0  0  0  0  0  0  0  0  0
   37.9430   24.0810   38.3800 C   0  0  0  0  0  0  0  0  0  0  0  0
   37.8010   24.4460   37.0360 C   0  0  0  0  0  0  0  0  0  0  0  0
   38.7050   24.0310   36.0570 C   0  0  0  0  0  0  0  0  0  0  0  0
   39.7140   23.2500   36.5220 N   0  0  0  0  0  0  0  0  0  0  0  0
   39.8550   22.8970   37.8040 C   0  0  0  0  0  0  0  0  0  0  0  0
   38.9740   23.3100   38.7220 N   0  0  0  0  0  0  0  0  0  0  0  0
   37.1960   24.4490   39.0670 H   0  0  0  0  0  0  0  0  0  0  0  0
   36.9790   25.0700   36.7150 H   0  0  0  0  0  0  0  0  0  0  0  0
   40.7070   22.2640   38.0700 H   0  0  0  0  0  0  0  0  0  0  0  0
   37.2610   22.8390   31.5370 N   0  0  0  0  0  0  0  0  0  0  0  0
   37.9920   21.7960   30.8600 C   0  0  0  0  0  2  0  0  0  0  0  0
   37.1950   20.5960   30.4990 C   0  0  0  0  0  2  0  0  0  0  0  0
   35.9270   20.3810   31.2340 C   0  0  0  0  0  3  0  0  0  0  0  0
   36.0720   19.6890   32.0960 H   0  0  0  0  0  0  0  0  0  0  0  0
   35.2110   21.6270   31.6530 C   0  0  0  0  0  2  0  0  0  0  0  0
   35.8700   22.8910   31.1700 C   0  0  0  0  0  2  0  0  0  0  0  0
  2  1  1  0  0  0  0
  2  3  1  0  0  0  0
  3 13  1  0  0  0  0
  4  3  2  0  0  0  0
  4  8  1  0  0  0  0
  5  4  1  0  0  0  0
  6  7  1  0  0  0  0
  6  5  2  0  0  0  0
  7  2  2  0  0  0  0
  9  5  1  0  0  0  0
 10  6  1  0  0  0  0
 11 16  1  0  0  0  0
 11 17  1  0  0  0  0
 12 11  2  0  0  0  0
 13 14  2  0  0  0  0
 13 12  1  0  0  0  0
 14 15  1  0  0  0  0
 15 19  1  0  0  0  0
 15 16  2  0  0  0  0
 18 12  1  0  0  0  0
 20  7  1  0  0  0  0
 21 20  1  0  0  0  0
 22 21  1  0  0  0  0
 22 23  1  0  0  0  0
 23 25  1  0  0  0  0
 23 24  1  0  0  0  0
 26 20  1  0  0  0  0
 26 25  1  0  0  0  0
M  END
>  <minimizedAffinity>
-4.92624378

$$$$

 OpenBabel03272505223D

 26 28  0  0  0  0  0  0  0  0999 V2000
   38.8110   26.5660   35.1900 Br  0  0  0  0  0  0  0  0  0  0  0  0
   38.2450   25.1540   34.0390 C   0  0  0  0  0  0  0  0  0  0  0  0
   38.1330   23.8720   34.5150 C   0  0  0  0  0  0  0  0  0  0  0  0
   37.7160   22.8850   33.6370 C   0  0  0  0  0  0  0  0  0  0  0  0
   37.4280   23.1910   32.3240 C   0  0  0  0  0  0  0  0  0  0  0  0
   37.5420   24.4970   31.8370 C   0  0  0  0  0  0  0  0  0  0  0  0
   37.9610   25.4840   32.7270 C   0  0  0  0  0  0  0  0  0  0  0  0
   37.6300   21.8650   34.0250 H   0  0  0  0  0  0  0  0  0  0  0  0
   37.1070   22.4000   31.6660 H   0  0  0  0  0  0  0  0  0  0  0  0
   37.3070   24.6990   30.8030 H   0  0  0  0  0  0  0  0  0  0  0  0
   39.9550   22.8560   37.6750 C   0  0  0  0  0  0  0  0  0  0  0  0
   39.6580   23.0650   36.3230 C   0  0  0  0  0  0  0  0  0  0  0  0
   38.4590   23.6480   35.9110 C   0  0  0  0  0  0  0  0  0  0  0  0
   37.6240   23.9880   36.9270 N   0  0  0  0  0  0  0  0  0  0  0  0
   37.9010   23.7910   38.2190 C   0  0  0  0  0  0  0  0  0  0  0  0
   39.0580   23.2300   38.5860 N   0  0  0  0  0  0  0  0  0  0  0  0
   40.9060   22.3990   37.9010 H   0  0  0  0  0  0  0  0  0  0  0  0
   40.3570   22.7770   35.5510 H   0  0  0  0  0  0  0  0  0  0  0  0
   37.1550   24.1040   38.9560 H   0  0  0  0  0  0  0  0  0  0  0  0
   38.0510   26.7690   32.1650 N   0  0  0  0  0  0  0  0  0  0  0  0
   39.1850   27.2430   31.4110 C   0  0  0  0  0  2  0  0  0  0  0  0
   38.8740   28.2510   30.3650 C   0  0  0  0  0  2  0  0  0  0  0  0
   37.4710   28.3250   29.8950 C   0  0  0  0  0  3  0  0  0  0  0  0
   37.3230   27.7200   28.9690 H   0  0  0  0  0  0  0  0  0  0  0  0
   36.4320   28.0040   30.9240 C   0  0  0  0  0  2  0  0  0  0  0  0
   37.0020   27.7470   32.2930 C   0  0  0  0  0  2  0  0  0  0  0  0
  2  3  1  0  0  0  0
  2  1  1  0  0  0  0
  3 13  1  0  0  0  0
  4  8  1  0  0  0  0
  4  3  2  0  0  0  0
  5  4  1  0  0  0  0
  6  5  2  0  0  0  0
  6  7  1  0  0  0  0
  7  2  2  0  0  0  0
  9  5  1  0  0  0  0
 10  6  1  0  0  0  0
 11 17  1  0  0  0  0
 11 16  1  0  0  0  0
 12 11  2  0  0  0  0
 13 12  1  0  0  0  0
 13 14  2  0  0  0  0
 14 15  1  0  0  0  0
 15 16  2  0  0  0  0
 15 19  1  0  0  0  0
 18 12  1  0  0  0  0
 20 26  1  0  0  0  0
 20  7  1  0  0  0  0
 21 20  1  0  0  0  0
 22 21  1  0  0  0  0
 23 22  1  0  0  0  0
 23 25  1  0  0  0  0
 24 23  1  0  0  0  0
 25 26  1  0  0  0  0
M  END
>  <minimizedAffinity>
-4.89145756

$$$$

 OpenBabel03272505223D

 26 28  0  0  0  0  0  0  0  0999 V2000
   38.4530   22.6150   34.5150 Br  0  0  0  0  0  0  0  0  0  0  0  0
   37.3400   23.2870   33.1210 C   0  0  0  0  0  0  0  0  0  0  0  0
   37.2590   24.6360   32.8850 C   0  0  0  0  0  0  0  0  0  0  0  0
   36.4360   25.0710   31.8580 C   0  0  0  0  0  0  0  0  0  0  0  0
   35.7210   24.1650   31.1020 C   0  0  0  0  0  0  0  0  0  0  0  0
   35.8020   22.7900   31.3410 C   0  0  0  0  0  0  0  0  0  0  0  0
   36.6330   22.3620   32.3760 C   0  0  0  0  0  0  0  0  0  0  0  0
   36.3760   26.1480   31.6770 H   0  0  0  0  0  0  0  0  0  0  0  0
   35.0890   24.5350   30.3110 H   0  0  0  0  0  0  0  0  0  0  0  0
   35.2280   22.1110   30.7290 H   0  0  0  0  0  0  0  0  0  0  0  0
   38.3100   26.9560   35.6860 C   0  0  0  0  0  0  0  0  0  0  0  0
   37.5340   26.1150   34.8810 C   0  0  0  0  0  0  0  0  0  0  0  0
   38.0470   25.5110   33.7320 C   0  0  0  0  0  0  0  0  0  0  0  0
   39.3480   25.8090   33.4760 N   0  0  0  0  0  0  0  0  0  0  0  0
   40.0940   26.6110   34.2410 C   0  0  0  0  0  0  0  0  0  0  0  0
   39.5760   27.1780   35.3360 N   0  0  0  0  0  0  0  0  0  0  0  0
   37.8300   27.3800   36.5550 H   0  0  0  0  0  0  0  0  0  0  0  0
   36.5020   25.9080   35.1270 H   0  0  0  0  0  0  0  0  0  0  0  0
   41.1320   26.7840   33.9410 H   0  0  0  0  0  0  0  0  0  0  0  0
   36.6620   20.9680   32.5550 N   0  0  0  0  0  0  0  0  0  0  0  0
   35.6980   20.2340   33.3360 C   0  0  0  0  0  2  0  0  0  0  0  0
   35.4480   18.8400   32.8870 C   0  0  0  0  0  2  0  0  0  0  0  0
   35.8230   18.5020   31.4950 C   0  0  0  0  0  3  0  0  0  0  0  0
   34.9470   18.5890   30.8090 H   0  0  0  0  0  0  0  0  0  0  0  0
   37.0100   19.2360   30.9540 C   0  0  0  0  0  2  0  0  0  0  0  0
   37.6740   20.1320   31.9640 C   0  0  0  0  0  2  0  0  0  0  0  0
  2  1  1  0  0  0  0
  3  2  1  0  0  0  0
  3 13  1  0  0  0  0
  4  3  2  0  0  0  0
  5  6  2  0  0  0  0
  5  4  1  0  0  0  0
  6  7  1  0  0  0  0
  7 20  1  0  0  0  0
  7  2  2  0  0  0  0
  8  4  1  0  0  0  0
  9  5  1  0  0  0  0
 10  6  1  0  0  0  0
 11 17  1  0  0  0  0
 12 18  1  0  0  0  0
 12 11  2  0  0  0  0
 13 12  1  0  0  0  0
 14 13  2  0  0  0  0
 14 15  1  0  0  0  0
 15 16  2  0  0  0  0
 16 11  1  0  0  0  0
 19 15  1  0  0  0  0
 20 21  1  0  0  0  0
 22 21  1  0  0  0  0
 23 22  1  0  0  0  0
 24 23  1  0  0  0  0
 25 23  1  0  0  0  0
 25 26  1  0  0  0  0
 26 20  1  0  0  0  0
M  END
>  <minimizedAffinity>
-4.85617065

$$$$

 OpenBabel03272505223D

 26 28  0  0  0  0  0  0  0  0999 V2000
   38.2230   25.7460   34.6190 Br  0  0  0  0  0  0  0  0  0  0  0  0
   37.8880   24.0760   33.7620 C   0  0  0  0  0  0  0  0  0  0  0  0
   38.0100   22.9000   34.4590 C   0  0  0  0  0  0  0  0  0  0  0  0
   37.7530   21.7150   33.7890 C   0  0  0  0  0  0  0  0  0  0  0  0
   37.3880   21.7270   32.4580 C   0  0  0  0  0  0  0  0  0  0  0  0
   37.2640   22.9250   31.7470 C   0  0  0  0  0  0  0  0  0  0  0  0
   37.5230   24.1120   32.4290 C   0  0  0  0  0  0  0  0  0  0  0  0
   37.8530   20.7820   34.3520 H   0  0  0  0  0  0  0  0  0  0  0  0
   37.1960   20.7890   31.9650 H   0  0  0  0  0  0  0  0  0  0  0  0
   36.9760   22.8950   30.7070 H   0  0  0  0  0  0  0  0  0  0  0  0
   40.0480   22.7950   37.6480 C   0  0  0  0  0  0  0  0  0  0  0  0
   39.6910   22.7060   36.2980 C   0  0  0  0  0  0  0  0  0  0  0  0
   38.3990   22.9880   35.8540 C   0  0  0  0  0  0  0  0  0  0  0  0
   37.5370   23.3550   36.8380 N   0  0  0  0  0  0  0  0  0  0  0  0
   37.8710   23.4420   38.1290 C   0  0  0  0  0  0  0  0  0  0  0  0
   39.1170   23.1650   38.5270 N   0  0  0  0  0  0  0  0  0  0  0  0
   41.0700   22.5580   37.9000 H   0  0  0  0  0  0  0  0  0  0  0  0
   40.4150   22.4100   35.5510 H   0  0  0  0  0  0  0  0  0  0  0  0
   37.0960   23.7470   38.8380 H   0  0  0  0  0  0  0  0  0  0  0  0
   37.3770   25.2710   31.6490 N   0  0  0  0  0  0  0  0  0  0  0  0
   36.1760   26.0680   31.6020 C   0  0  0  0  0  2  0  0  0  0  0  0
   36.3850   27.5140   31.3350 C   0  0  0  0  0  2  0  0  0  0  0  0
   37.7370   28.0600   31.5950 C   0  0  0  0  0  3  0  0  0  0  0  0
   37.7980   28.5190   32.6100 H   0  0  0  0  0  0  0  0  0  0  0  0
   38.8690   27.1090   31.3600 C   0  0  0  0  0  2  0  0  0  0  0  0
   38.4320   25.7790   30.8100 C   0  0  0  0  0  2  0  0  0  0  0  0
  2  3  1  0  0  0  0
  2  1  1  0  0  0  0
  3 13  1  0  0  0  0
  4  8  1  0  0  0  0
  4  3  2  0  0  0  0
  5  4  1  0  0  0  0
  6  7  1  0  0  0  0
  6  5  2  0  0  0  0
  7  2  2  0  0  0  0
  9  5  1  0  0  0  0
 10  6  1  0  0  0  0
 11 17  1  0  0  0  0
 11 16  1  0  0  0  0
 12 11  2  0  0  0  0
 13 12  1  0  0  0  0
 13 14  2  0  0  0  0
 14 15  1  0  0  0  0
 15 16  2  0  0  0  0
 15 19  1  0  0  0  0
 18 12  1  0  0  0  0
 20  7  1  0  0  0  0
 21 20  1  0  0  0  0
 22 23  1  0  0  0  0
 22 21  1  0  0  0  0
 23 24  1  0  0  0  0
 25 23  1  0  0  0  0
 26 25  1  0  0  0  0
 26 20  1  0  0  0  0
M  END
>  <minimizedAffinity>
-4.76610994

$$$$

 OpenBabel03272505223D

 26 28  0  0  0  0  0  0  0  0999 V2000
   38.8500   26.9550   34.7890 Br  0  0  0  0  0  0  0  0  0  0  0  0
   38.2010   25.3940   33.9060 C   0  0  0  0  0  0  0  0  0  0  0  0
   37.4300   25.5040   32.7760 C   0  0  0  0  0  0  0  0  0  0  0  0
   36.9860   24.3390   32.1740 C   0  0  0  0  0  0  0  0  0  0  0  0
   37.3120   23.1070   32.7030 C   0  0  0  0  0  0  0  0  0  0  0  0
   38.0970   22.9930   33.8550 C   0  0  0  0  0  0  0  0  0  0  0  0
   38.5400   24.1710   34.4540 C   0  0  0  0  0  0  0  0  0  0  0  0
   36.3720   24.4350   31.2730 H   0  0  0  0  0  0  0  0  0  0  0  0
   36.9510   22.2190   32.2110 H   0  0  0  0  0  0  0  0  0  0  0  0
   38.3320   22.0130   34.2400 H   0  0  0  0  0  0  0  0  0  0  0  0
   37.5830   28.7500   30.8320 C   0  0  0  0  0  0  0  0  0  0  0  0
   37.8780   27.4580   31.2840 C   0  0  0  0  0  0  0  0  0  0  0  0
   37.1400   26.8410   32.2940 C   0  0  0  0  0  0  0  0  0  0  0  0
   36.1240   27.5970   32.7870 N   0  0  0  0  0  0  0  0  0  0  0  0
   35.8370   28.8310   32.3600 C   0  0  0  0  0  0  0  0  0  0  0  0
   36.5620   29.3990   31.3900 N   0  0  0  0  0  0  0  0  0  0  0  0
   38.2080   29.1470   30.0470 H   0  0  0  0  0  0  0  0  0  0  0  0
   38.6970   26.8960   30.8590 H   0  0  0  0  0  0  0  0  0  0  0  0
   34.9960   29.3510   32.8280 H   0  0  0  0  0  0  0  0  0  0  0  0
   39.3220   23.9760   35.6050 N   0  0  0  0  0  0  0  0  0  0  0  0
   38.7810   23.8060   36.9310 C   0  0  0  0  0  2  0  0  0  0  0  0
   39.5950   22.9670   37.8460 C   0  0  0  0  0  2  0  0  0  0  0  0
   40.5780   22.0480   37.2240 C   0  0  0  0  0  3  0  0  0  0  0  0
   40.1530   21.0240   37.1040 H   0  0  0  0  0  0  0  0  0  0  0  0
   41.1910   22.5340   35.9480 C   0  0  0  0  0  2  0  0  0  0  0  0
   40.7610   23.9250   35.5660 C   0  0  0  0  0  2  0  0  0  0  0  0
  2  7  1  0  0  0  0
  2  1  1  0  0  0  0
  3  2  2  0  0  0  0
  4  5  2  0  0  0  0
  4  3  1  0  0  0  0
  5  6  1  0  0  0  0
  6 10  1  0  0  0  0
  6  7  2  0  0  0  0
  7 20  1  0  0  0  0
  8  4  1  0  0  0  0
  9  5  1  0  0  0  0
 11 12  2  0  0  0  0
 11 16  1  0  0  0  0
 12 13  1  0  0  0  0
 13  3  1  0  0  0  0
 13 14  2  0  0  0  0
 15 14  1  0  0  0  0
 15 19  1  0  0  0  0
 16 15  2  0  0  0  0
 17 11  1  0  0  0  0
 18 12  1  0  0  0  0
 20 21  1  0  0  0  0
 21 22  1  0  0  0  0
 23 22  1  0  0  0  0
 24 23  1  0  0  0  0
 25 23  1  0  0  0  0
 26 20  1  0  0  0  0
 26 25  1  0  0  0  0
M  END
>  <minimizedAffinity>
-4.71488667

$$$$

 OpenBabel03272505223D

 26 28  0  0  0  0  0  0  0  0999 V2000
   38.3130   26.8820   33.2600 Br  0  0  0  0  0  0  0  0  0  0  0  0
   37.1490   25.6450   32.3930 C   0  0  0  0  0  0  0  0  0  0  0  0
   36.1360   26.0940   31.5850 C   0  0  0  0  0  0  0  0  0  0  0  0
   35.3200   25.1530   30.9780 C   0  0  0  0  0  0  0  0  0  0  0  0
   35.5270   23.8060   31.1880 C   0  0  0  0  0  0  0  0  0  0  0  0
   36.5600   23.3460   32.0120 C   0  0  0  0  0  0  0  0  0  0  0  0
   37.3760   24.3000   32.6180 C   0  0  0  0  0  0  0  0  0  0  0  0
   34.5140   25.5200   30.3350 H   0  0  0  0  0  0  0  0  0  0  0  0
   34.8750   23.0990   30.7020 H   0  0  0  0  0  0  0  0  0  0  0  0
   36.6920   22.2840   32.1520 H   0  0  0  0  0  0  0  0  0  0  0  0
   36.5090   29.6320   30.2880 C   0  0  0  0  0  0  0  0  0  0  0  0
   36.6550   28.2470   30.4270 C   0  0  0  0  0  0  0  0  0  0  0  0
   35.9960   27.5290   31.4250 C   0  0  0  0  0  0  0  0  0  0  0  0
   35.2100   28.2880   32.2320 N   0  0  0  0  0  0  0  0  0  0  0  0
   35.0650   29.6100   32.1060 C   0  0  0  0  0  0  0  0  0  0  0  0
   35.7100   30.2730   31.1400 N   0  0  0  0  0  0  0  0  0  0  0  0
   37.0580   30.1040   29.4870 H   0  0  0  0  0  0  0  0  0  0  0  0
   37.2930   27.6870   29.7570 H   0  0  0  0  0  0  0  0  0  0  0  0
   34.4060   30.1230   32.8120 H   0  0  0  0  0  0  0  0  0  0  0  0
   38.3900   23.7620   33.4290 N   0  0  0  0  0  0  0  0  0  0  0  0
   39.7570   23.5890   33.0050 C   0  0  0  0  0  2  0  0  0  0  0  0
   40.7720   23.6830   34.0860 C   0  0  0  0  0  2  0  0  0  0  0  0
   40.3680   24.3710   35.3340 C   0  0  0  0  0  3  0  0  0  0  0  0
   40.6790   25.4420   35.3220 H   0  0  0  0  0  0  0  0  0  0  0  0
   38.9250   24.2290   35.7060 C   0  0  0  0  0  2  0  0  0  0  0  0
   38.1520   23.3280   34.7810 C   0  0  0  0  0  2  0  0  0  0  0  0
  2  7  1  0  0  0  0
  2  1  1  0  0  0  0
  3  2  2  0  0  0  0
  4  5  2  0  0  0  0
  4  3  1  0  0  0  0
  5  6  1  0  0  0  0
  6 10  1  0  0  0  0
  6  7  2  0  0  0  0
  7 20  1  0  0  0  0
  8  4  1  0  0  0  0
  9  5  1  0  0  0  0
 11 12  2  0  0  0  0
 11 16  1  0  0  0  0
 12 13  1  0  0  0  0
 13  3  1  0  0  0  0
 13 14  2  0  0  0  0
 15 14  1  0  0  0  0
 15 19  1  0  0  0  0
 16 15  2  0  0  0  0
 17 11  1  0  0  0  0
 18 12  1  0  0  0  0
 20 26  1  0  0  0  0
 21 20  1  0  0  0  0
 21 22  1  0  0  0  0
 22 23  1  0  0  0  0
 23 25  1  0  0  0  0
 24 23  1  0  0  0  0
 26 25  1  0  0  0  0
M  END
>  <minimizedAffinity>
-4.70901251

$$$$

 OpenBabel03272505223D

 26 28  0  0  0  0  0  0  0  0999 V2000
   35.5310   24.3880   31.1720 Br  0  0  0  0  0  0  0  0  0  0  0  0
   37.0110   23.9110   32.2750 C   0  0  0  0  0  0  0  0  0  0  0  0
   37.8440   24.8790   32.7780 C   0  0  0  0  0  0  0  0  0  0  0  0
   38.9030   24.4770   33.5750 C   0  0  0  0  0  0  0  0  0  0  0  0
   39.1080   23.1410   33.8490 C   0  0  0  0  0  0  0  0  0  0  0  0
   38.2590   22.1530   33.3380 C   0  0  0  0  0  0  0  0  0  0  0  0
   37.1960   22.5660   32.5370 C   0  0  0  0  0  0  0  0  0  0  0  0
   39.5630   25.2550   33.9710 H   0  0  0  0  0  0  0  0  0  0  0  0
   39.9410   22.8610   34.4720 H   0  0  0  0  0  0  0  0  0  0  0  0
   38.4500   21.1170   33.5740 H   0  0  0  0  0  0  0  0  0  0  0  0
   37.7930   28.2210   30.9990 C   0  0  0  0  0  0  0  0  0  0  0  0
   38.0890   26.8890   31.3140 C   0  0  0  0  0  0  0  0  0  0  0  0
   37.5490   26.2570   32.4350 C   0  0  0  0  0  0  0  0  0  0  0  0
   36.7230   27.0400   33.1750 N   0  0  0  0  0  0  0  0  0  0  0  0
   36.4360   28.3120   32.8810 C   0  0  0  0  0  0  0  0  0  0  0  0
   36.9690   28.8940   31.8000 N   0  0  0  0  0  0  0  0  0  0  0  0
   38.2560   28.6270   30.1130 H   0  0  0  0  0  0  0  0  0  0  0  0
   38.7530   26.3070   30.6910 H   0  0  0  0  0  0  0  0  0  0  0  0
   35.7580   28.8520   33.5470 H   0  0  0  0  0  0  0  0  0  0  0  0
   36.3890   21.5190   32.0620 N   0  0  0  0  0  0  0  0  0  0  0  0
   36.6330   20.8050   30.8320 C   0  0  0  0  0  2  0  0  0  0  0  0
   36.1780   19.3910   30.8190 C   0  0  0  0  0  2  0  0  0  0  0  0
   35.9640   18.7390   32.1320 C   0  0  0  0  0  3  0  0  0  0  0  0
   36.8640   18.1610   32.4470 H   0  0  0  0  0  0  0  0  0  0  0  0
   35.4890   19.6430   33.2270 C   0  0  0  0  0  2  0  0  0  0  0  0
   35.2260   21.0520   32.7710 C   0  0  0  0  0  2  0  0  0  0  0  0
  1  2  1  0  0  0  0
  2  7  2  0  0  0  0
  2  3  1  0  0  0  0
  3  4  2  0  0  0  0
  4  5  1  0  0  0  0
  4  8  1  0  0  0  0
  5  9  1  0  0  0  0
  6 10  1  0  0  0  0
  6  5  2  0  0  0  0
  7  6  1  0  0  0  0
 11 12  2  0  0  0  0
 11 16  1  0  0  0  0
 12 13  1  0  0  0  0
 13  3  1  0  0  0  0
 13 14  2  0  0  0  0
 15 14  1  0  0  0  0
 15 19  1  0  0  0  0
 16 15  2  0  0  0  0
 17 11  1  0  0  0  0
 18 12  1  0  0  0  0
 20  7  1  0  0  0  0
 20 26  1  0  0  0  0
 21 20  1  0  0  0  0
 22 21  1  0  0  0  0
 22 23  1  0  0  0  0
 23 24  1  0  0  0  0
 23 25  1  0  0  0  0
 26 25  1  0  0  0  0
M  END
>  <minimizedAffinity>
-4.64034367

$$$$
