
 OpenBabel03272510153D

 26 28  0  0  0  0  0  0  0  0999 V2000
   37.4680   29.2150   50.8890 Br  0  0  0  0  0  0  0  0  0  0  0  0
   36.0350   29.2870   49.6290 C   0  0  0  0  0  0  0  0  0  0  0  0
   36.0110   30.2640   48.6630 C   0  0  0  0  0  0  0  0  0  0  0  0
   34.9370   30.2550   47.7800 C   0  0  0  0  0  0  0  0  0  0  0  0
   33.9150   29.3350   47.8210 C   0  0  0  0  0  0  0  0  0  0  0  0
   33.9910   28.3730   48.8170 C   0  0  0  0  0  0  0  0  0  0  0  0
   35.0440   28.3590   49.7060 C   0  0  0  0  0  0  0  0  0  0  0  0
   34.9460   31.0460   47.0200 H   0  0  0  0  0  0  0  0  0  0  0  0
   33.1830   27.6560   48.8400 H   0  0  0  0  0  0  0  0  0  0  0  0
   35.0160   27.5640   50.4520 H   0  0  0  0  0  0  0  0  0  0  0  0
   38.0320   33.2040   49.4230 C   0  0  0  0  0  0  0  0  0  0  0  0
   39.0370   33.1890   48.4300 C   0  0  0  0  0  0  0  0  0  0  0  0
   39.0060   32.1580   47.5060 C   0  0  0  0  0  0  0  0  0  0  0  0
   38.0180   31.2150   47.5910 N   0  0  0  0  0  0  0  0  0  0  0  0
   37.0650   31.2670   48.5680 C   0  0  0  0  0  0  0  0  0  0  0  0
   37.0850   32.2600   49.4700 N   0  0  0  0  0  0  0  0  0  0  0  0
   38.0770   34.0110   50.1290 H   0  0  0  0  0  0  0  0  0  0  0  0
   39.8130   33.9310   48.3650 H   0  0  0  0  0  0  0  0  0  0  0  0
   39.7210   32.0430   46.7030 H   0  0  0  0  0  0  0  0  0  0  0  0
   32.8300   29.3650   46.8910 N   0  0  0  0  0  0  0  0  0  0  0  0
   32.7590   30.5830   46.1150 C   0  0  0  0  0  0  0  0  0  0  0  0
   31.6480   30.6530   45.1400 C   0  0  0  0  0  0  0  0  0  0  0  0
   30.4990   29.7270   45.4260 C   0  0  0  0  0  0  0  0  0  0  0  0
   29.9090   29.6670   44.4810 H   0  0  0  0  0  0  0  0  0  0  0  0
   30.9290   28.3270   45.7580 C   0  0  0  0  0  0  0  0  0  0  0  0
   31.9520   28.2120   46.8330 C   0  0  0  0  0  0  0  0  0  0  0  0
  2  7  1  0  0  0  0
  2  1  1  0  0  0  0
  3  2  2  0  0  0  0
  4  5  2  0  0  0  0
  4  3  1  0  0  0  0
  5  6  1  0  0  0  0
  6  9  1  0  0  0  0
  6  7  2  0  0  0  0
  7 10  1  0  0  0  0
  8  4  1  0  0  0  0
 11 16  1  0  0  0  0
 11 17  1  0  0  0  0
 12 11  2  0  0  0  0
 13 14  2  0  0  0  0
 13 12  1  0  0  0  0
 14 15  1  0  0  0  0
 15  3  1  0  0  0  0
 15 16  2  0  0  0  0
 18 12  1  0  0  0  0
 19 13  1  0  0  0  0
 20  5  1  0  0  0  0
 21 20  1  0  0  0  0
 22 23  1  0  0  0  0
 22 21  1  0  0  0  0
 23 25  1  0  0  0  0
 24 23  1  0  0  0  0
 25 26  1  0  0  0  0
 26 20  1  0  0  0  0
M  END
>  <minimizedAffinity>
-5.88724232

>  <minimizedRMSD>
0.933315516

$$$$
