
 OpenBabel03272510153D

 26 28  0  0  0  0  0  0  0  0999 V2000
   37.4490   29.2330   50.9140 Br  0  0  0  0  0  0  0  0  0  0  0  0
   36.0250   29.2900   49.6430 C   0  0  0  0  0  0  0  0  0  0  0  0
   36.0080   30.2560   48.6660 C   0  0  0  0  0  0  0  0  0  0  0  0
   34.9400   30.2370   47.7760 C   0  0  0  0  0  0  0  0  0  0  0  0
   33.9190   29.3160   47.8200 C   0  0  0  0  0  0  0  0  0  0  0  0
   33.9880   28.3660   48.8270 C   0  0  0  0  0  0  0  0  0  0  0  0
   35.0340   28.3620   49.7230 C   0  0  0  0  0  0  0  0  0  0  0  0
   34.9540   31.0190   47.0070 H   0  0  0  0  0  0  0  0  0  0  0  0
   33.1800   27.6490   48.8520 H   0  0  0  0  0  0  0  0  0  0  0  0
   35.0010   27.5760   50.4780 H   0  0  0  0  0  0  0  0  0  0  0  0
   38.0280   33.2000   49.4130 C   0  0  0  0  0  0  0  0  0  0  0  0
   39.0340   33.1800   48.4230 C   0  0  0  0  0  0  0  0  0  0  0  0
   39.0050   32.1430   47.5040 C   0  0  0  0  0  0  0  0  0  0  0  0
   38.0170   31.2010   47.5930 N   0  0  0  0  0  0  0  0  0  0  0  0
   37.0620   31.2580   48.5670 C   0  0  0  0  0  0  0  0  0  0  0  0
   37.0800   32.2560   49.4640 N   0  0  0  0  0  0  0  0  0  0  0  0
   38.0710   34.0110   50.1150 H   0  0  0  0  0  0  0  0  0  0  0  0
   39.8100   33.9220   48.3540 H   0  0  0  0  0  0  0  0  0  0  0  0
   39.7210   32.0240   46.7030 H   0  0  0  0  0  0  0  0  0  0  0  0
   32.8400   29.3360   46.8820 N   0  0  0  0  0  0  0  0  0  0  0  0
   32.0360   28.1330   46.8890 C   0  0  0  0  0  2  0  0  0  0  0  0
   30.9090   28.1150   45.9300 C   0  0  0  0  0  2  0  0  0  0  0  0
   31.0440   29.0730   44.7810 C   0  0  0  0  0  3  0  0  0  0  0  0
   30.0250   29.1670   44.3360 H   0  0  0  0  0  0  0  0  0  0  0  0
   31.4650   30.4530   45.1980 C   0  0  0  0  0  2  0  0  0  0  0  0
   32.6780   30.5180   46.0570 C   0  0  0  0  0  2  0  0  0  0  0  0
  2  7  1  0  0  0  0
  2  1  1  0  0  0  0
  3  2  2  0  0  0  0
  4  5  2  0  0  0  0
  4  3  1  0  0  0  0
  5  6  1  0  0  0  0
  6  9  1  0  0  0  0
  6  7  2  0  0  0  0
  7 10  1  0  0  0  0
  8  4  1  0  0  0  0
 11 16  1  0  0  0  0
 11 17  1  0  0  0  0
 12 11  2  0  0  0  0
 13 14  2  0  0  0  0
 13 12  1  0  0  0  0
 14 15  1  0  0  0  0
 15  3  1  0  0  0  0
 15 16  2  0  0  0  0
 18 12  1  0  0  0  0
 19 13  1  0  0  0  0
 20 21  1  0  0  0  0
 20  5  1  0  0  0  0
 22 21  1  0  0  0  0
 23 25  1  0  0  0  0
 23 22  1  0  0  0  0
 24 23  1  0  0  0  0
 25 26  1  0  0  0  0
 26 20  1  0  0  0  0
M  END
>  <minimizedAffinity>
-5.85575056

>  <minimizedRMSD>
0.29638952

$$$$
