
 OpenBabel03272500543D

 26 28  0  0  0  0  0  0  0  0999 V2000
   36.1390   26.3140   31.7460 C   0  0  0  0  0  0  0  0  0  0  0  0
   35.4090   25.4560   30.9590 C   0  0  0  0  0  0  0  0  0  0  0  0
   35.5050   24.0820   30.9800 C   0  0  0  0  0  0  0  0  0  0  0  0
   36.4230   23.5020   31.8800 C   0  0  0  0  0  0  0  0  0  0  0  0
   37.1680   24.3610   32.6800 C   0  0  0  0  0  0  0  0  0  0  0  0
   37.0370   25.7230   32.6220 C   0  0  0  0  0  0  0  0  0  0  0  0
   34.6800   25.8080   30.2400 H   0  0  0  0  0  0  0  0  0  0  0  0
   34.9260   23.4230   30.3580 H   0  0  0  0  0  0  0  0  0  0  0  0
   36.5810   22.4360   31.9800 H   0  0  0  0  0  0  0  0  0  0  0  0
   37.9000   24.0300   33.4040 H   0  0  0  0  0  0  0  0  0  0  0  0
   36.5610   28.3660   30.5020 C   0  0  0  0  0  0  0  0  0  0  0  0
   35.8970   27.7310   31.5800 C   0  0  0  0  0  0  0  0  0  0  0  0
   35.0860   28.5360   32.3630 C   0  0  0  0  0  0  0  0  0  0  0  0
   34.9660   29.8490   32.0750 N   0  0  0  0  0  0  0  0  0  0  0  0
   35.6150   30.4270   31.0350 C   0  0  0  0  0  0  0  0  0  0  0  0
   36.4190   29.6690   30.2440 N   0  0  0  0  0  0  0  0  0  0  0  0
   37.2310   27.8780   29.7940 H   0  0  0  0  0  0  0  0  0  0  0  0
   34.5860   28.0380   33.1830 H   0  0  0  0  0  0  0  0  0  0  0  0
   35.5090   31.4840   30.8130 H   0  0  0  0  0  0  0  0  0  0  0  0
   37.7940   26.6160   33.4380 N   0  0  0  0  0  0  0  0  0  0  0  0
   39.0290   27.2260   32.9520 C   0  0  0  0  0  2  0  0  0  0  0  0
   40.2090   26.7970   33.7960 C   0  0  0  0  0  2  0  0  0  0  0  0
   39.8230   26.6620   35.2500 C   0  0  0  0  0  3  0  0  0  0  0  0
   39.6560   25.5890   35.4490 H   0  0  0  0  0  0  0  0  0  0  0  0
   38.5670   27.4520   35.5640 C   0  0  0  0  0  2  0  0  0  0  0  0
   37.3780   26.9650   34.7880 C   0  0  0  0  0  2  0  0  0  0  0  0
  1  6  1  0  0  0  0
  2  3  1  0  0  0  0
  2  1  2  0  0  0  0
  3  4  2  0  0  0  0
  4  9  1  0  0  0  0
  4  5  1  0  0  0  0
  5 10  1  0  0  0  0
  6  5  2  0  0  0  0
  6 20  1  0  0  0  0
  7  2  1  0  0  0  0
  8  3  1  0  0  0  0
 11 12  1  0  0  0  0
 12  1  1  0  0  0  0
 12 13  2  0  0  0  0
 13 18  1  0  0  0  0
 14 13  1  0  0  0  0
 15 14  2  0  0  0  0
 16 11  2  0  0  0  0
 16 15  1  0  0  0  0
 17 11  1  0  0  0  0
 19 15  1  0  0  0  0
 20 26  1  0  0  0  0
 21 20  1  0  0  0  0
 21 22  1  0  0  0  0
 22 23  1  0  0  0  0
 23 24  1  0  0  0  0
 23 25  1  0  0  0  0
 26 25  1  0  0  0  0
M  END
>  <minimizedAffinity>
-5.09970522

$$$$

 OpenBabel03272500543D

 26 28  0  0  0  0  0  0  0  0999 V2000
   37.4640   24.0440   33.0150 C   0  0  0  0  0  0  0  0  0  0  0  0
   36.9000   23.0200   32.2910 C   0  0  0  0  0  0  0  0  0  0  0  0
   35.9490   23.1740   31.3070 C   0  0  0  0  0  0  0  0  0  0  0  0
   35.5140   24.4830   31.0130 C   0  0  0  0  0  0  0  0  0  0  0  0
   36.0780   25.5250   31.7400 C   0  0  0  0  0  0  0  0  0  0  0  0
   37.0210   25.3220   32.7110 C   0  0  0  0  0  0  0  0  0  0  0  0
   37.1710   21.9840   32.4450 H   0  0  0  0  0  0  0  0  0  0  0  0
   35.5160   22.3640   30.7480 H   0  0  0  0  0  0  0  0  0  0  0  0
   34.7730   24.7200   30.2600 H   0  0  0  0  0  0  0  0  0  0  0  0
   35.8220   26.5660   31.6010 H   0  0  0  0  0  0  0  0  0  0  0  0
   39.7840   23.5330   33.5580 C   0  0  0  0  0  0  0  0  0  0  0  0
   38.4510   23.6830   34.0110 C   0  0  0  0  0  0  0  0  0  0  0  0
   38.2320   23.4670   35.3620 C   0  0  0  0  0  0  0  0  0  0  0  0
   39.2640   23.1340   36.1640 N   0  0  0  0  0  0  0  0  0  0  0  0
   40.5310   22.9980   35.6990 C   0  0  0  0  0  0  0  0  0  0  0  0
   40.7850   23.2020   34.3790 N   0  0  0  0  0  0  0  0  0  0  0  0
   40.1230   23.6670   32.5310 H   0  0  0  0  0  0  0  0  0  0  0  0
   37.2090   23.5850   35.6940 H   0  0  0  0  0  0  0  0  0  0  0  0
   41.3540   22.7300   36.3540 H   0  0  0  0  0  0  0  0  0  0  0  0
   37.6090   26.3820   33.4640 N   0  0  0  0  0  0  0  0  0  0  0  0
   38.7230   27.1630   32.9330 C   0  0  0  0  0  2  0  0  0  0  0  0
   39.9560   26.9980   33.7960 C   0  0  0  0  0  2  0  0  0  0  0  0
   39.5900   26.8900   35.2580 C   0  0  0  0  0  3  0  0  0  0  0  0
   39.6100   25.8190   35.5250 H   0  0  0  0  0  0  0  0  0  0  0  0
   38.2160   27.4700   35.5290 C   0  0  0  0  0  2  0  0  0  0  0  0
   37.1330   26.7380   34.7920 C   0  0  0  0  0  2  0  0  0  0  0  0
  1 12  1  0  0  0  0
  2  7  1  0  0  0  0
  2  1  2  0  0  0  0
  3  2  1  0  0  0  0
  4  3  2  0  0  0  0
  4  5  1  0  0  0  0
  5  6  2  0  0  0  0
  6  1  1  0  0  0  0
  6 20  1  0  0  0  0
  8  3  1  0  0  0  0
  9  4  1  0  0  0  0
 10  5  1  0  0  0  0
 11 12  2  0  0  0  0
 11 16  1  0  0  0  0
 12 13  1  0  0  0  0
 13 18  1  0  0  0  0
 13 14  2  0  0  0  0
 15 14  1  0  0  0  0
 15 19  1  0  0  0  0
 16 15  2  0  0  0  0
 17 11  1  0  0  0  0
 20 26  1  0  0  0  0
 21 20  1  0  0  0  0
 21 22  1  0  0  0  0
 22 23  1  0  0  0  0
 23 24  1  0  0  0  0
 23 25  1  0  0  0  0
 26 25  1  0  0  0  0
M  END
>  <minimizedAffinity>
-4.92970085

$$$$

 OpenBabel03272500543D

 26 28  0  0  0  0  0  0  0  0999 V2000
   37.5400   26.9670   33.6630 C   0  0  0  0  0  0  0  0  0  0  0  0
   37.7910   27.5300   34.8920 C   0  0  0  0  0  0  0  0  0  0  0  0
   38.1890   26.8380   36.0150 C   0  0  0  0  0  0  0  0  0  0  0  0
   38.3550   25.4420   35.9020 C   0  0  0  0  0  0  0  0  0  0  0  0
   38.1020   24.8640   34.6640 C   0  0  0  0  0  0  0  0  0  0  0  0
   37.7070   25.5930   33.5750 C   0  0  0  0  0  0  0  0  0  0  0  0
   37.6920   28.5920   35.0740 H   0  0  0  0  0  0  0  0  0  0  0  0
   38.3830   27.2920   36.9700 H   0  0  0  0  0  0  0  0  0  0  0  0
   38.6630   24.8020   36.7190 H   0  0  0  0  0  0  0  0  0  0  0  0
   38.1960   23.8060   34.4610 H   0  0  0  0  0  0  0  0  0  0  0  0
   35.8400   28.4330   32.7150 C   0  0  0  0  0  0  0  0  0  0  0  0
   37.1290   27.8590   32.5990 C   0  0  0  0  0  0  0  0  0  0  0  0
   37.8630   28.2130   31.4780 C   0  0  0  0  0  0  0  0  0  0  0  0
   37.3350   29.0620   30.5720 N   0  0  0  0  0  0  0  0  0  0  0  0
   36.0960   29.5950   30.7110 C   0  0  0  0  0  0  0  0  0  0  0  0
   35.3470   29.2720   31.7990 N   0  0  0  0  0  0  0  0  0  0  0  0
   35.1400   28.2600   33.5320 H   0  0  0  0  0  0  0  0  0  0  0  0
   38.8460   27.7660   31.4030 H   0  0  0  0  0  0  0  0  0  0  0  0
   35.6830   30.2780   29.9760 H   0  0  0  0  0  0  0  0  0  0  0  0
   37.4450   25.0130   32.2980 N   0  0  0  0  0  0  0  0  0  0  0  0
   36.0790   24.7830   31.8350 C   0  0  0  0  0  2  0  0  0  0  0  0
   35.8250   23.3070   31.6190 C   0  0  0  0  0  2  0  0  0  0  0  0
   37.0530   22.6130   31.0780 C   0  0  0  0  0  3  0  0  0  0  0  0
   37.5500   22.1110   31.9260 H   0  0  0  0  0  0  0  0  0  0  0  0
   38.0020   23.5990   30.4250 C   0  0  0  0  0  2  0  0  0  0  0  0
   38.5170   24.6220   31.3950 C   0  0  0  0  0  2  0  0  0  0  0  0
  1  2  1  0  0  0  0
  2  7  1  0  0  0  0
  2  3  2  0  0  0  0
  3  8  1  0  0  0  0
  4  3  1  0  0  0  0
  4  9  1  0  0  0  0
  5  4  2  0  0  0  0
  6  1  2  0  0  0  0
  6  5  1  0  0  0  0
 10  5  1  0  0  0  0
 11 17  1  0  0  0  0
 12 11  1  0  0  0  0
 12  1  1  0  0  0  0
 13 12  2  0  0  0  0
 14 15  2  0  0  0  0
 14 13  1  0  0  0  0
 15 16  1  0  0  0  0
 16 11  2  0  0  0  0
 18 13  1  0  0  0  0
 19 15  1  0  0  0  0
 20  6  1  0  0  0  0
 21 20  1  0  0  0  0
 22 21  1  0  0  0  0
 23 22  1  0  0  0  0
 23 24  1  0  0  0  0
 25 23  1  0  0  0  0
 25 26  1  0  0  0  0
 26 20  1  0  0  0  0
M  END
>  <minimizedAffinity>
-4.74673986

$$$$

 OpenBabel03272500543D

 26 28  0  0  0  0  0  0  0  0999 V2000
   39.9080   25.1920   34.8950 C   0  0  0  0  0  0  0  0  0  0  0  0
   41.2450   24.8940   35.0080 C   0  0  0  0  0  0  0  0  0  0  0  0
   42.2760   25.6780   34.5380 C   0  0  0  0  0  0  0  0  0  0  0  0
   41.9400   26.8850   33.8890 C   0  0  0  0  0  0  0  0  0  0  0  0
   40.5900   27.1940   33.7690 C   0  0  0  0  0  0  0  0  0  0  0  0
   39.6000   26.3810   34.2530 C   0  0  0  0  0  0  0  0  0  0  0  0
   41.5990   23.9930   35.4910 H   0  0  0  0  0  0  0  0  0  0  0  0
   43.3180   25.4330   34.6340 H   0  0  0  0  0  0  0  0  0  0  0  0
   42.6660   27.5760   33.4820 H   0  0  0  0  0  0  0  0  0  0  0  0
   40.2150   28.0890   33.2920 H   0  0  0  0  0  0  0  0  0  0  0  0
   38.4560   24.5380   36.7390 C   0  0  0  0  0  0  0  0  0  0  0  0
   38.9700   24.2410   35.4540 C   0  0  0  0  0  0  0  0  0  0  0  0
   38.5210   23.0700   34.8650 C   0  0  0  0  0  0  0  0  0  0  0  0
   37.6400   22.2850   35.5210 N   0  0  0  0  0  0  0  0  0  0  0  0
   37.1660   22.5970   36.7520 C   0  0  0  0  0  0  0  0  0  0  0  0
   37.5830   23.7390   37.3610 N   0  0  0  0  0  0  0  0  0  0  0  0
   38.7050   25.4150   37.3350 H   0  0  0  0  0  0  0  0  0  0  0  0
   38.9220   22.8560   33.8840 H   0  0  0  0  0  0  0  0  0  0  0  0
   36.4570   21.9580   37.2700 H   0  0  0  0  0  0  0  0  0  0  0  0
   38.2110   26.6870   34.1370 N   0  0  0  0  0  0  0  0  0  0  0  0
   37.3890   26.0970   33.0830 C   0  0  0  0  0  2  0  0  0  0  0  0
   36.8380   27.1680   32.1670 C   0  0  0  0  0  2  0  0  0  0  0  0
   36.4940   28.4220   32.9350 C   0  0  0  0  0  3  0  0  0  0  0  0
   37.3260   29.1340   32.7950 H   0  0  0  0  0  0  0  0  0  0  0  0
   36.2980   28.1310   34.4100 C   0  0  0  0  0  2  0  0  0  0  0  0
   37.5430   27.5970   35.0560 C   0  0  0  0  0  2  0  0  0  0  0  0
  1  2  1  0  0  0  0
  1 12  1  0  0  0  0
  2  7  1  0  0  0  0
  3  8  1  0  0  0  0
  3  2  2  0  0  0  0
  4  3  1  0  0  0  0
  5  4  2  0  0  0  0
  5  6  1  0  0  0  0
  6  1  2  0  0  0  0
  9  4  1  0  0  0  0
 10  5  1  0  0  0  0
 11 17  1  0  0  0  0
 11 16  1  0  0  0  0
 12 11  2  0  0  0  0
 13 12  1  0  0  0  0
 13 14  2  0  0  0  0
 14 15  1  0  0  0  0
 15 19  1  0  0  0  0
 15 16  2  0  0  0  0
 18 13  1  0  0  0  0
 20  6  1  0  0  0  0
 20 26  1  0  0  0  0
 21 20  1  0  0  0  0
 22 23  1  0  0  0  0
 22 21  1  0  0  0  0
 23 25  1  0  0  0  0
 24 23  1  0  0  0  0
 25 26  1  0  0  0  0
M  END
>  <minimizedAffinity>
-4.68482399

$$$$

 OpenBabel03272500543D

 26 28  0  0  0  0  0  0  0  0999 V2000
   39.2350   24.4880   36.0060 C   0  0  0  0  0  0  0  0  0  0  0  0
   38.6880   23.8750   37.1080 C   0  0  0  0  0  0  0  0  0  0  0  0
   39.2940   22.8810   37.8450 C   0  0  0  0  0  0  0  0  0  0  0  0
   40.5770   22.4560   37.4450 C   0  0  0  0  0  0  0  0  0  0  0  0
   41.1380   23.0700   36.3310 C   0  0  0  0  0  0  0  0  0  0  0  0
   40.4960   24.0540   35.6290 C   0  0  0  0  0  0  0  0  0  0  0  0
   37.7100   24.1340   37.4900 H   0  0  0  0  0  0  0  0  0  0  0  0
   38.8540   22.4100   38.7060 H   0  0  0  0  0  0  0  0  0  0  0  0
   41.1450   21.6850   37.9500 H   0  0  0  0  0  0  0  0  0  0  0  0
   42.1140   22.8260   35.9330 H   0  0  0  0  0  0  0  0  0  0  0  0
   38.4780   26.8040   35.9440 C   0  0  0  0  0  0  0  0  0  0  0  0
   38.4420   25.5140   35.3600 C   0  0  0  0  0  0  0  0  0  0  0  0
   37.6520   25.3700   34.2310 C   0  0  0  0  0  0  0  0  0  0  0  0
   36.9700   26.4310   33.7510 N   0  0  0  0  0  0  0  0  0  0  0  0
   37.0240   27.6540   34.3330 C   0  0  0  0  0  0  0  0  0  0  0  0
   37.7900   27.8340   35.4420 N   0  0  0  0  0  0  0  0  0  0  0  0
   39.0470   27.0840   36.8300 H   0  0  0  0  0  0  0  0  0  0  0  0
   37.6340   24.3800   33.7960 H   0  0  0  0  0  0  0  0  0  0  0  0
   36.4710   28.5000   33.9370 H   0  0  0  0  0  0  0  0  0  0  0  0
   41.0600   24.6940   34.4840 N   0  0  0  0  0  0  0  0  0  0  0  0
   41.9900   25.8120   34.6210 C   0  0  0  0  0  2  0  0  0  0  0  0
   41.4200   27.0660   33.9940 C   0  0  0  0  0  2  0  0  0  0  0  0
   40.6280   26.7440   32.7480 C   0  0  0  0  0  3  0  0  0  0  0  0
   39.5600   26.7420   33.0270 H   0  0  0  0  0  0  0  0  0  0  0  0
   41.0210   25.3950   32.1770 C   0  0  0  0  0  2  0  0  0  0  0  0
   40.7410   24.2700   33.1290 C   0  0  0  0  0  2  0  0  0  0  0  0
  1  2  1  0  0  0  0
  2  7  1  0  0  0  0
  2  3  2  0  0  0  0
  3  8  1  0  0  0  0
  4  3  1  0  0  0  0
  4  9  1  0  0  0  0
  5  4  2  0  0  0  0
  6  1  2  0  0  0  0
  6  5  1  0  0  0  0
 10  5  1  0  0  0  0
 11 17  1  0  0  0  0
 12 11  2  0  0  0  0
 12  1  1  0  0  0  0
 13 12  1  0  0  0  0
 14 13  2  0  0  0  0
 14 15  1  0  0  0  0
 15 16  2  0  0  0  0
 16 11  1  0  0  0  0
 18 13  1  0  0  0  0
 19 15  1  0  0  0  0
 20 21  1  0  0  0  0
 20  6  1  0  0  0  0
 22 21  1  0  0  0  0
 23 24  1  0  0  0  0
 23 22  1  0  0  0  0
 25 23  1  0  0  0  0
 25 26  1  0  0  0  0
 26 20  1  0  0  0  0
M  END
>  <minimizedAffinity>
-4.68194008

$$$$

 OpenBabel03272500543D

 26 28  0  0  0  0  0  0  0  0999 V2000
   37.9540   24.5870   33.8940 C   0  0  0  0  0  0  0  0  0  0  0  0
   37.6180   25.6110   33.0410 C   0  0  0  0  0  0  0  0  0  0  0  0
   37.4660   26.9310   33.4070 C   0  0  0  0  0  0  0  0  0  0  0  0
   37.6720   27.2650   34.7620 C   0  0  0  0  0  0  0  0  0  0  0  0
   38.0120   26.2350   35.6320 C   0  0  0  0  0  0  0  0  0  0  0  0
   38.1500   24.9370   35.2210 C   0  0  0  0  0  0  0  0  0  0  0  0
   37.4420   25.4530   31.9860 H   0  0  0  0  0  0  0  0  0  0  0  0
   37.2030   27.7230   32.7290 H   0  0  0  0  0  0  0  0  0  0  0  0
   37.5800   28.2670   35.1590 H   0  0  0  0  0  0  0  0  0  0  0  0
   38.1930   26.3720   36.6890 H   0  0  0  0  0  0  0  0  0  0  0  0
   39.2820   22.9570   32.6620 C   0  0  0  0  0  0  0  0  0  0  0  0
   38.0670   23.2620   33.3210 C   0  0  0  0  0  0  0  0  0  0  0  0
   37.1120   22.2570   33.3490 C   0  0  0  0  0  0  0  0  0  0  0  0
   37.3720   21.0700   32.7640 N   0  0  0  0  0  0  0  0  0  0  0  0
   38.5470   20.8080   32.1400 C   0  0  0  0  0  0  0  0  0  0  0  0
   39.5080   21.7690   32.0930 N   0  0  0  0  0  0  0  0  0  0  0  0
   40.1310   23.6320   32.5520 H   0  0  0  0  0  0  0  0  0  0  0  0
   36.1890   22.5050   33.8560 H   0  0  0  0  0  0  0  0  0  0  0  0
   38.7440   19.8480   31.6740 H   0  0  0  0  0  0  0  0  0  0  0  0
   38.4990   23.8700   36.1030 N   0  0  0  0  0  0  0  0  0  0  0  0
   37.4900   23.1970   36.9160 C   0  0  0  0  0  2  0  0  0  0  0  0
   37.7740   23.3850   38.3900 C   0  0  0  0  0  2  0  0  0  0  0  0
   39.2590   23.3760   38.6680 C   0  0  0  0  0  3  0  0  0  0  0  0
   39.5830   24.4270   38.7640 H   0  0  0  0  0  0  0  0  0  0  0  0
   40.0250   22.6930   37.5520 C   0  0  0  0  0  2  0  0  0  0  0  0
   39.8700   23.4000   36.2380 C   0  0  0  0  0  2  0  0  0  0  0  0
  1  6  1  0  0  0  0
  2  3  1  0  0  0  0
  2  1  2  0  0  0  0
  3  4  2  0  0  0  0
  4  9  1  0  0  0  0
  4  5  1  0  0  0  0
  5 10  1  0  0  0  0
  6  5  2  0  0  0  0
  6 20  1  0  0  0  0
  7  2  1  0  0  0  0
  8  3  1  0  0  0  0
 11 12  1  0  0  0  0
 12 13  2  0  0  0  0
 12  1  1  0  0  0  0
 13 18  1  0  0  0  0
 14 13  1  0  0  0  0
 15 14  2  0  0  0  0
 16 15  1  0  0  0  0
 16 11  2  0  0  0  0
 17 11  1  0  0  0  0
 19 15  1  0  0  0  0
 20 26  1  0  0  0  0
 20 21  1  0  0  0  0
 21 22  1  0  0  0  0
 22 23  1  0  0  0  0
 23 24  1  0  0  0  0
 25 23  1  0  0  0  0
 26 25  1  0  0  0  0
M  END
>  <minimizedAffinity>
-4.62299109

$$$$

 OpenBabel03272500543D

 26 28  0  0  0  0  0  0  0  0999 V2000
   37.4400   23.6630   32.8920 C   0  0  0  0  0  0  0  0  0  0  0  0
   37.4430   25.0220   32.6870 C   0  0  0  0  0  0  0  0  0  0  0  0
   36.5740   25.7020   31.8620 C   0  0  0  0  0  0  0  0  0  0  0  0
   35.6010   24.9500   31.1710 C   0  0  0  0  0  0  0  0  0  0  0  0
   35.5910   23.5750   31.3710 C   0  0  0  0  0  0  0  0  0  0  0  0
   36.4770   22.9430   32.2020 C   0  0  0  0  0  0  0  0  0  0  0  0
   38.1500   25.6800   33.1730 H   0  0  0  0  0  0  0  0  0  0  0  0
   36.5870   26.7660   31.7110 H   0  0  0  0  0  0  0  0  0  0  0  0
   34.8690   25.3800   30.4980 H   0  0  0  0  0  0  0  0  0  0  0  0
   34.8920   22.9000   30.8960 H   0  0  0  0  0  0  0  0  0  0  0  0
   38.1460   23.2210   35.1820 C   0  0  0  0  0  0  0  0  0  0  0  0
   38.4350   23.1300   33.7990 C   0  0  0  0  0  0  0  0  0  0  0  0
   39.6420   22.5400   33.4590 C   0  0  0  0  0  0  0  0  0  0  0  0
   40.4650   22.0920   34.4290 N   0  0  0  0  0  0  0  0  0  0  0  0
   40.1600   22.1940   35.7460 C   0  0  0  0  0  0  0  0  0  0  0  0
   38.9850   22.7660   36.1180 N   0  0  0  0  0  0  0  0  0  0  0  0
   37.2450   23.6540   35.6150 H   0  0  0  0  0  0  0  0  0  0  0  0
   39.8490   22.4770   32.3990 H   0  0  0  0  0  0  0  0  0  0  0  0
   40.8310   21.8280   36.5180 H   0  0  0  0  0  0  0  0  0  0  0  0
   36.4770   21.5330   32.4180 N   0  0  0  0  0  0  0  0  0  0  0  0
   37.1410   20.6230   31.4880 C   0  0  0  0  0  2  0  0  0  0  0  0
   36.1430   19.6760   30.8570 C   0  0  0  0  0  2  0  0  0  0  0  0
   35.0670   19.2780   31.8400 C   0  0  0  0  0  3  0  0  0  0  0  0
   34.1800   19.9000   31.6280 H   0  0  0  0  0  0  0  0  0  0  0  0
   35.5220   19.4890   33.2710 C   0  0  0  0  0  2  0  0  0  0  0  0
   35.8210   20.9290   33.5680 C   0  0  0  0  0  2  0  0  0  0  0  0
  1 12  1  0  0  0  0
  2  1  1  0  0  0  0
  2  7  1  0  0  0  0
  3  2  2  0  0  0  0
  4  5  2  0  0  0  0
  4  3  1  0  0  0  0
  5  6  1  0  0  0  0
  6 20  1  0  0  0  0
  6  1  2  0  0  0  0
  8  3  1  0  0  0  0
  9  4  1  0  0  0  0
 10  5  1  0  0  0  0
 11 17  1  0  0  0  0
 11 16  1  0  0  0  0
 12 11  2  0  0  0  0
 13 12  1  0  0  0  0
 13 14  2  0  0  0  0
 14 15  1  0  0  0  0
 15 16  2  0  0  0  0
 15 19  1  0  0  0  0
 18 13  1  0  0  0  0
 20 26  1  0  0  0  0
 21 20  1  0  0  0  0
 22 21  1  0  0  0  0
 22 23  1  0  0  0  0
 23 25  1  0  0  0  0
 24 23  1  0  0  0  0
 25 26  1  0  0  0  0
M  END
>  <minimizedAffinity>
-4.60834455

$$$$

 OpenBabel03272500543D

 26 28  0  0  0  0  0  0  0  0999 V2000
   37.8290   22.6830   34.6970 C   0  0  0  0  0  0  0  0  0  0  0  0
   37.1750   21.5050   34.4250 C   0  0  0  0  0  0  0  0  0  0  0  0
   36.6300   21.1640   33.2070 C   0  0  0  0  0  0  0  0  0  0  0  0
   36.7500   22.0900   32.1500 C   0  0  0  0  0  0  0  0  0  0  0  0
   37.4100   23.2850   32.4170 C   0  0  0  0  0  0  0  0  0  0  0  0
   37.9350   23.5800   33.6460 C   0  0  0  0  0  0  0  0  0  0  0  0
   37.0340   20.7340   35.1710 H   0  0  0  0  0  0  0  0  0  0  0  0
   36.1200   20.2380   33.0070 H   0  0  0  0  0  0  0  0  0  0  0  0
   36.3600   21.9260   31.1540 H   0  0  0  0  0  0  0  0  0  0  0  0
   37.5610   24.0670   31.6860 H   0  0  0  0  0  0  0  0  0  0  0  0
   37.4410   23.4240   36.9860 C   0  0  0  0  0  0  0  0  0  0  0  0
   38.3350   22.8620   36.0420 C   0  0  0  0  0  0  0  0  0  0  0  0
   39.6010   22.5420   36.5070 C   0  0  0  0  0  0  0  0  0  0  0  0
   39.9190   22.7730   37.7970 N   0  0  0  0  0  0  0  0  0  0  0  0
   39.0400   23.3120   38.6770 C   0  0  0  0  0  0  0  0  0  0  0  0
   37.7890   23.6380   38.2590 N   0  0  0  0  0  0  0  0  0  0  0  0
   36.4140   23.7280   36.7850 H   0  0  0  0  0  0  0  0  0  0  0  0
   40.2720   22.1140   35.7740 H   0  0  0  0  0  0  0  0  0  0  0  0
   39.3080   23.4930   39.7140 H   0  0  0  0  0  0  0  0  0  0  0  0
   38.6150   24.8010   33.9330 N   0  0  0  0  0  0  0  0  0  0  0  0
   37.8910   25.9810   34.3990 C   0  0  0  0  0  2  0  0  0  0  0  0
   38.0250   27.1200   33.4110 C   0  0  0  0  0  2  0  0  0  0  0  0
   39.3970   27.1380   32.7780 C   0  0  0  0  0  3  0  0  0  0  0  0
   39.3080   26.6650   31.7850 H   0  0  0  0  0  0  0  0  0  0  0  0
   40.4060   26.3870   33.6250 C   0  0  0  0  0  2  0  0  0  0  0  0
   40.0550   24.9360   33.7770 C   0  0  0  0  0  2  0  0  0  0  0  0
  1 12  1  0  0  0  0
  2  1  1  0  0  0  0
  2  7  1  0  0  0  0
  3  2  2  0  0  0  0
  4  5  2  0  0  0  0
  4  3  1  0  0  0  0
  5  6  1  0  0  0  0
  6 20  1  0  0  0  0
  6  1  2  0  0  0  0
  8  3  1  0  0  0  0
  9  4  1  0  0  0  0
 10  5  1  0  0  0  0
 11 16  1  0  0  0  0
 12 13  1  0  0  0  0
 12 11  2  0  0  0  0
 13 14  2  0  0  0  0
 14 15  1  0  0  0  0
 15 19  1  0  0  0  0
 16 15  2  0  0  0  0
 17 11  1  0  0  0  0
 18 13  1  0  0  0  0
 20 21  1  0  0  0  0
 22 21  1  0  0  0  0
 23 22  1  0  0  0  0
 23 25  1  0  0  0  0
 24 23  1  0  0  0  0
 25 26  1  0  0  0  0
 26 20  1  0  0  0  0
M  END
>  <minimizedAffinity>
-4.56122494

$$$$

 OpenBabel03272500543D

 26 28  0  0  0  0  0  0  0  0999 V2000
   34.6880   30.9560   35.2610 C   0  0  0  0  0  0  0  0  0  0  0  0
   35.5140   31.8620   35.8810 C   0  0  0  0  0  0  0  0  0  0  0  0
   35.1310   32.7310   36.8800 C   0  0  0  0  0  0  0  0  0  0  0  0
   33.7870   32.6930   37.3040 C   0  0  0  0  0  0  0  0  0  0  0  0
   32.9430   31.7800   36.6810 C   0  0  0  0  0  0  0  0  0  0  0  0
   33.3710   30.9360   35.6920 C   0  0  0  0  0  0  0  0  0  0  0  0
   36.5600   31.9640   35.6250 H   0  0  0  0  0  0  0  0  0  0  0  0
   35.7890   33.4350   37.3570 H   0  0  0  0  0  0  0  0  0  0  0  0
   33.3780   33.3290   38.0790 H   0  0  0  0  0  0  0  0  0  0  0  0
   31.8960   31.6620   36.9240 H   0  0  0  0  0  0  0  0  0  0  0  0
   35.3850   30.6980   32.9400 C   0  0  0  0  0  0  0  0  0  0  0  0
   35.2750   30.1260   34.2300 C   0  0  0  0  0  0  0  0  0  0  0  0
   35.7420   28.8280   34.3700 C   0  0  0  0  0  0  0  0  0  0  0  0
   36.2640   28.1850   33.3050 N   0  0  0  0  0  0  0  0  0  0  0  0
   36.3550   28.7610   32.0820 C   0  0  0  0  0  0  0  0  0  0  0  0
   35.9090   30.0330   31.9060 N   0  0  0  0  0  0  0  0  0  0  0  0
   35.0680   31.7030   32.6630 H   0  0  0  0  0  0  0  0  0  0  0  0
   35.6510   28.4040   35.3610 H   0  0  0  0  0  0  0  0  0  0  0  0
   36.7780   28.2340   31.2320 H   0  0  0  0  0  0  0  0  0  0  0  0
   32.5160   29.9940   35.0440 N   0  0  0  0  0  0  0  0  0  0  0  0
   31.8990   30.2910   33.7540 C   0  0  0  0  0  2  0  0  0  0  0  0
   30.3900   30.3070   33.8710 C   0  0  0  0  0  2  0  0  0  0  0  0
   29.9040   29.2580   34.8440 C   0  0  0  0  0  3  0  0  0  0  0  0
   29.6980   29.7670   35.8020 H   0  0  0  0  0  0  0  0  0  0  0  0
   30.9400   28.1690   35.0440 C   0  0  0  0  0  2  0  0  0  0  0  0
   32.2170   28.6960   35.6310 C   0  0  0  0  0  2  0  0  0  0  0  0
  1  6  2  0  0  0  0
  1  2  1  0  0  0  0
  2  3  2  0  0  0  0
  3  4  1  0  0  0  0
  3  8  1  0  0  0  0
  4  9  1  0  0  0  0
  5 10  1  0  0  0  0
  5  4  2  0  0  0  0
  6  5  1  0  0  0  0
  7  2  1  0  0  0  0
 11 12  1  0  0  0  0
 12 13  2  0  0  0  0
 12  1  1  0  0  0  0
 13 18  1  0  0  0  0
 14 13  1  0  0  0  0
 15 14  2  0  0  0  0
 16 15  1  0  0  0  0
 16 11  2  0  0  0  0
 17 11  1  0  0  0  0
 19 15  1  0  0  0  0
 20 26  1  0  0  0  0
 20  6  1  0  0  0  0
 21 22  1  0  0  0  0
 21 20  1  0  0  0  0
 22 23  1  0  0  0  0
 23 25  1  0  0  0  0
 23 24  1  0  0  0  0
 25 26  1  0  0  0  0
M  END
>  <minimizedAffinity>
-4.55821133

$$$$
