
 OpenBabel03272508133D

 32 34  0  0  0  0  0  0  0  0999 V2000
   38.9850   22.9870   33.2790 Cl  0  0  0  0  0  0  0  0  0  0  0  0
   37.6160   23.7840   32.4990 C   0  0  0  0  0  0  0  0  0  0  0  0
   37.3480   25.1510   32.5860 C   0  0  0  0  0  0  0  0  0  0  0  0
   36.2400   25.6310   31.9220 C   0  0  0  0  0  0  0  0  0  0  0  0
   35.4270   24.7940   31.2010 C   0  0  0  0  0  0  0  0  0  0  0  0
   35.6680   23.4520   31.1020 C   0  0  0  0  0  0  0  0  0  0  0  0
   36.7580   22.9650   31.7520 C   0  0  0  0  0  0  0  0  0  0  0  0
   36.1180   26.7020   32.0500 H   0  0  0  0  0  0  0  0  0  0  0  0
   34.5790   25.2540   30.7110 H   0  0  0  0  0  0  0  0  0  0  0  0
   35.0080   22.8170   30.5240 H   0  0  0  0  0  0  0  0  0  0  0  0
   37.0250   21.5480   31.6550 N   0  0  0  0  0  0  0  0  0  0  0  0
   36.5480   20.5090   32.5100 C   0  0  0  0  0  2  0  0  0  0  0  0
   35.7020   19.5420   31.7080 C   0  0  0  0  0  2  0  0  0  0  0  0
   36.3200   19.3170   30.3570 C   0  0  0  0  0  3  0  0  0  0  0  0
   36.2770   18.2640   30.0300 H   0  0  0  0  0  0  0  0  0  0  0  0
   37.7850   19.6980   30.3460 C   0  0  0  0  0  2  0  0  0  0  0  0
   37.8800   21.2070   30.5370 C   0  0  0  0  0  2  0  0  0  0  0  0
   38.2770   25.8060   33.3510 O   0  0  0  0  0  0  0  0  0  0  0  0
   39.3910   27.1360   35.2730 O   0  0  0  0  0  0  0  0  0  0  0  0
   38.1010   26.5170   34.8540 P   0  0  1  0  0  0  0  0  0  0  0  0
   36.9370   27.7470   34.6310 O   0  0  0  0  0  0  0  0  0  0  0  0
   37.4440   28.5440   34.3040 H   0  0  0  0  0  0  0  0  0  0  0  0
   37.5130   25.3720   35.9530 O   0  0  0  0  0  0  0  0  0  0  0  0
   38.7950   23.3960   38.7900 C   0  0  0  0  0  0  0  0  0  0  0  0
   37.9500   24.2930   38.1230 C   0  0  0  0  0  0  0  0  0  0  0  0
   38.1870   24.5570   36.7740 C   0  0  0  0  0  0  0  0  0  0  0  0
   39.2400   23.9190   36.1730 N   0  0  0  0  0  0  0  0  0  0  0  0
   40.0280   23.0640   36.8460 C   0  0  0  0  0  0  0  0  0  0  0  0
   39.7990   22.8080   38.1540 N   0  0  0  0  0  0  0  0  0  0  0  0
   38.5510   23.2420   39.8290 H   0  0  0  0  0  0  0  0  0  0  0  0
   37.1010   24.8360   38.5260 H   0  0  0  0  0  0  0  0  0  0  0  0
   40.8590   22.5570   36.3790 H   0  0  0  0  0  0  0  0  0  0  0  0
  2  3  1  0  0  0  0
  2  1  1  0  0  0  0
  3 18  1  0  0  0  0
  4  8  1  0  0  0  0
  4  3  2  0  0  0  0
  5  4  1  0  0  0  0
  6  5  2  0  0  0  0
  6  7  1  0  0  0  0
  7  2  2  0  0  0  0
  9  5  1  0  0  0  0
 10  6  1  0  0  0  0
 11  7  1  0  0  0  0
 11 12  1  0  0  0  0
 13 12  1  0  0  0  0
 14 13  1  0  0  0  0
 15 14  1  0  0  0  0
 16 14  1  0  0  0  0
 16 17  1  0  0  0  0
 17 11  1  0  0  0  0
 18 20  1  0  0  0  0
 20 19  2  1  0  0  0
 20 23  1  0  0  0  0
 21 20  1  0  0  0  0
 22 21  1  0  0  0  0
 23 26  1  0  0  0  0
 24 30  1  0  0  0  0
 25 31  1  0  0  0  0
 25 24  2  0  0  0  0
 26 25  1  0  0  0  0
 27 26  2  0  0  0  0
 27 28  1  0  0  0  0
 28 29  2  0  0  0  0
 29 24  1  0  0  0  0
 32 28  1  0  0  0  0
M  END
>  <minimizedAffinity>
-5.61371708

$$$$

 OpenBabel03272508133D

 32 34  0  0  0  0  0  0  0  0999 V2000
   34.1650   29.4630   34.2860 Cl  0  0  0  0  0  0  0  0  0  0  0  0
   35.1580   30.4080   33.1730 C   0  0  0  0  0  0  0  0  0  0  0  0
   35.7120   29.9050   31.9940 C   0  0  0  0  0  0  0  0  0  0  0  0
   36.4670   30.7620   31.2240 C   0  0  0  0  0  0  0  0  0  0  0  0
   36.6680   32.0660   31.6020 C   0  0  0  0  0  0  0  0  0  0  0  0
   36.1360   32.5800   32.7510 C   0  0  0  0  0  0  0  0  0  0  0  0
   35.3890   31.7450   33.5210 C   0  0  0  0  0  0  0  0  0  0  0  0
   36.8530   30.2800   30.3310 H   0  0  0  0  0  0  0  0  0  0  0  0
   37.2730   32.6700   30.9390 H   0  0  0  0  0  0  0  0  0  0  0  0
   36.3120   33.6140   33.0220 H   0  0  0  0  0  0  0  0  0  0  0  0
   34.8210   32.2770   34.7390 N   0  0  0  0  0  0  0  0  0  0  0  0
   33.5840   32.9730   34.8940 C   0  0  0  0  0  2  0  0  0  0  0  0
   32.6750   32.1890   35.8160 C   0  0  0  0  0  2  0  0  0  0  0  0
   33.4710   31.6040   36.9480 C   0  0  0  0  0  3  0  0  0  0  0  0
   32.9540   31.6690   37.9220 H   0  0  0  0  0  0  0  0  0  0  0  0
   34.7910   32.3240   37.1280 C   0  0  0  0  0  2  0  0  0  0  0  0
   35.6510   32.0430   35.9020 C   0  0  0  0  0  2  0  0  0  0  0  0
   35.3940   28.5860   31.8010 O   0  0  0  0  0  0  0  0  0  0  0  0
   35.6110   26.0540   31.3110 O   0  0  0  0  0  0  0  0  0  0  0  0
   36.3260   27.3530   31.1640 P   0  0  1  0  0  0  0  0  0  0  0  0
   36.4800   27.7230   29.5040 O   0  0  0  0  0  0  0  0  0  0  0  0
   35.6650   27.3450   29.0650 H   0  0  0  0  0  0  0  0  0  0  0  0
   37.8540   27.3690   31.8920 O   0  0  0  0  0  0  0  0  0  0  0  0
   37.9150   27.3120   35.5780 C   0  0  0  0  0  0  0  0  0  0  0  0
   37.3510   27.4360   34.3020 C   0  0  0  0  0  0  0  0  0  0  0  0
   38.1790   27.2890   33.1890 C   0  0  0  0  0  0  0  0  0  0  0  0
   39.5060   27.0300   33.4090 N   0  0  0  0  0  0  0  0  0  0  0  0
   40.0090   26.9170   34.6490 C   0  0  0  0  0  0  0  0  0  0  0  0
   39.2070   27.0590   35.7290 N   0  0  0  0  0  0  0  0  0  0  0  0
   37.2140   27.4370   36.3890 H   0  0  0  0  0  0  0  0  0  0  0  0
   36.3150   27.6400   34.0450 H   0  0  0  0  0  0  0  0  0  0  0  0
   41.0540   26.7120   34.8300 H   0  0  0  0  0  0  0  0  0  0  0  0
  2  7  1  0  0  0  0
  2  1  1  0  0  0  0
  3  2  2  0  0  0  0
  4  5  2  0  0  0  0
  4  3  1  0  0  0  0
  5  6  1  0  0  0  0
  6 10  1  0  0  0  0
  6  7  2  0  0  0  0
  7 11  1  0  0  0  0
  8  4  1  0  0  0  0
  9  5  1  0  0  0  0
 11 12  1  0  0  0  0
 11 17  1  0  0  0  0
 12 13  1  0  0  0  0
 13 14  1  0  0  0  0
 14 16  1  0  0  0  0
 14 15  1  0  0  0  0
 17 16  1  0  0  0  0
 18  3  1  0  0  0  0
 20 19  2  1  0  0  0
 20 18  1  0  0  0  0
 20 23  1  0  0  0  0
 21 20  1  0  0  0  0
 22 21  1  0  0  0  0
 23 26  1  0  0  0  0
 24 29  1  0  0  0  0
 24 30  1  0  0  0  0
 25 24  2  0  0  0  0
 26 27  2  0  0  0  0
 26 25  1  0  0  0  0
 27 28  1  0  0  0  0
 28 32  1  0  0  0  0
 28 29  2  0  0  0  0
 31 25  1  0  0  0  0
M  END
>  <minimizedAffinity>
-5.56223249

$$$$

 OpenBabel03272508133D

 32 34  0  0  0  0  0  0  0  0999 V2000
   35.6380   29.2320   34.4830 Cl  0  0  0  0  0  0  0  0  0  0  0  0
   36.3080   28.8090   32.9050 C   0  0  0  0  0  0  0  0  0  0  0  0
   37.0920   27.6810   32.6610 C   0  0  0  0  0  0  0  0  0  0  0  0
   37.5450   27.4800   31.3750 C   0  0  0  0  0  0  0  0  0  0  0  0
   37.2370   28.3610   30.3690 C   0  0  0  0  0  0  0  0  0  0  0  0
   36.4720   29.4730   30.5840 C   0  0  0  0  0  0  0  0  0  0  0  0
   36.0180   29.6820   31.8480 C   0  0  0  0  0  0  0  0  0  0  0  0
   38.1440   26.5800   31.2870 H   0  0  0  0  0  0  0  0  0  0  0  0
   37.6340   28.1280   29.3890 H   0  0  0  0  0  0  0  0  0  0  0  0
   36.2450   30.1490   29.7680 H   0  0  0  0  0  0  0  0  0  0  0  0
   35.2070   30.8550   32.0880 N   0  0  0  0  0  0  0  0  0  0  0  0
   33.7950   30.9880   31.9260 C   0  0  0  0  0  2  0  0  0  0  0  0
   33.1620   31.3200   33.2610 C   0  0  0  0  0  2  0  0  0  0  0  0
   34.0280   32.2890   34.0140 C   0  0  0  0  0  3  0  0  0  0  0  0
   33.4510   33.0750   34.5310 H   0  0  0  0  0  0  0  0  0  0  0  0
   34.9830   33.0130   33.0900 C   0  0  0  0  0  2  0  0  0  0  0  0
   35.9770   31.9920   32.5460 C   0  0  0  0  0  2  0  0  0  0  0  0
   37.2820   26.9350   33.7950 O   0  0  0  0  0  0  0  0  0  0  0  0
   39.8430   27.2750   33.9510 O   0  0  0  0  0  0  0  0  0  0  0  0
   38.6840   26.6700   34.6660 P   0  0  1  0  0  0  0  0  0  0  0  0
   38.4490   27.4910   36.1460 O   0  0  0  0  0  0  0  0  0  0  0  0
   38.7220   28.4380   35.9770 H   0  0  0  0  0  0  0  0  0  0  0  0
   38.8610   25.0130   34.9600 O   0  0  0  0  0  0  0  0  0  0  0  0
   39.7650   22.8080   37.7740 C   0  0  0  0  0  0  0  0  0  0  0  0
   39.8490   23.3500   36.4840 C   0  0  0  0  0  0  0  0  0  0  0  0
   38.9570   24.3620   36.1260 C   0  0  0  0  0  0  0  0  0  0  0  0
   38.0450   24.7710   37.0620 N   0  0  0  0  0  0  0  0  0  0  0  0
   37.9960   24.2260   38.2890 C   0  0  0  0  0  0  0  0  0  0  0  0
   38.8590   23.2460   38.6370 N   0  0  0  0  0  0  0  0  0  0  0  0
   40.4850   22.0320   37.9780 H   0  0  0  0  0  0  0  0  0  0  0  0
   40.5390   23.0820   35.6900 H   0  0  0  0  0  0  0  0  0  0  0  0
   37.2790   24.5440   39.0320 H   0  0  0  0  0  0  0  0  0  0  0  0
  2  1  1  0  0  0  0
  3  2  1  0  0  0  0
  3 18  1  0  0  0  0
  4  3  2  0  0  0  0
  5  6  2  0  0  0  0
  5  4  1  0  0  0  0
  6  7  1  0  0  0  0
  7 11  1  0  0  0  0
  7  2  2  0  0  0  0
  8  4  1  0  0  0  0
  9  5  1  0  0  0  0
 10  6  1  0  0  0  0
 11 17  1  0  0  0  0
 12 11  1  0  0  0  0
 12 13  1  0  0  0  0
 13 14  1  0  0  0  0
 14 15  1  0  0  0  0
 16 14  1  0  0  0  0
 17 16  1  0  0  0  0
 18 20  1  0  0  0  0
 20 19  2  6  0  0  0
 20 23  1  0  0  0  0
 20 21  1  0  0  0  0
 22 21  1  0  0  0  0
 23 26  1  0  0  0  0
 24 30  1  0  0  0  0
 24 29  1  0  0  0  0
 25 24  2  0  0  0  0
 26 25  1  0  0  0  0
 26 27  2  0  0  0  0
 27 28  1  0  0  0  0
 28 29  2  0  0  0  0
 28 32  1  0  0  0  0
 31 25  1  0  0  0  0
M  END
>  <minimizedAffinity>
-5.35590696

$$$$

 OpenBabel03272508133D

 32 34  0  0  0  0  0  0  0  0999 V2000
   37.3820   24.2490   32.9980 Cl  0  0  0  0  0  0  0  0  0  0  0  0
   38.6880   25.3810   33.3560 C   0  0  0  0  0  0  0  0  0  0  0  0
   39.1190   26.3850   32.4870 C   0  0  0  0  0  0  0  0  0  0  0  0
   40.1530   27.1950   32.9040 C   0  0  0  0  0  0  0  0  0  0  0  0
   40.7390   27.0200   34.1330 C   0  0  0  0  0  0  0  0  0  0  0  0
   40.3350   26.0450   35.0000 C   0  0  0  0  0  0  0  0  0  0  0  0
   39.3160   25.2380   34.6000 C   0  0  0  0  0  0  0  0  0  0  0  0
   40.4150   27.9410   32.1620 H   0  0  0  0  0  0  0  0  0  0  0  0
   41.5440   27.7000   34.3810 H   0  0  0  0  0  0  0  0  0  0  0  0
   40.8180   25.9330   35.9640 H   0  0  0  0  0  0  0  0  0  0  0  0
   38.8790   24.2030   35.5100 N   0  0  0  0  0  0  0  0  0  0  0  0
   39.2730   22.8310   35.5250 C   0  0  0  0  0  2  0  0  0  0  0  0
   39.9550   22.5160   36.8400 C   0  0  0  0  0  2  0  0  0  0  0  0
   39.2450   23.2120   37.9670 C   0  0  0  0  0  3  0  0  0  0  0  0
   39.1450   22.5850   38.8700 H   0  0  0  0  0  0  0  0  0  0  0  0
   37.8370   23.6060   37.5760 C   0  0  0  0  0  2  0  0  0  0  0  0
   37.9310   24.6780   36.4960 C   0  0  0  0  0  2  0  0  0  0  0  0
   38.4060   26.3890   31.3170 O   0  0  0  0  0  0  0  0  0  0  0  0
   38.2420   28.0960   29.3780 O   0  0  0  0  0  0  0  0  0  0  0  0
   37.5400   27.6320   30.6080 P   0  0  1  0  0  0  0  0  0  0  0  0
   36.0430   26.9370   30.1690 O   0  0  0  0  0  0  0  0  0  0  0  0
   36.1910   26.5170   29.2730 H   0  0  0  0  0  0  0  0  0  0  0  0
   37.2840   28.8590   31.7440 O   0  0  0  0  0  0  0  0  0  0  0  0
   34.7080   29.3720   34.3320 C   0  0  0  0  0  0  0  0  0  0  0  0
   35.9530   28.9950   33.8120 C   0  0  0  0  0  0  0  0  0  0  0  0
   36.1810   29.1520   32.4440 C   0  0  0  0  0  0  0  0  0  0  0  0
   35.1660   29.6700   31.6830 N   0  0  0  0  0  0  0  0  0  0  0  0
   33.9860   30.0200   32.2190 C   0  0  0  0  0  0  0  0  0  0  0  0
   33.7640   29.8690   33.5450 N   0  0  0  0  0  0  0  0  0  0  0  0
   34.6060   29.2230   35.3950 H   0  0  0  0  0  0  0  0  0  0  0  0
   36.8030   28.5800   34.3450 H   0  0  0  0  0  0  0  0  0  0  0  0
   33.1820   30.4290   31.6250 H   0  0  0  0  0  0  0  0  0  0  0  0
  1  2  1  0  0  0  0
  2  7  1  0  0  0  0
  3  4  1  0  0  0  0
  3  2  2  0  0  0  0
  4  5  2  0  0  0  0
  5  9  1  0  0  0  0
  5  6  1  0  0  0  0
  6 10  1  0  0  0  0
  7  6  2  0  0  0  0
  7 11  1  0  0  0  0
  8  4  1  0  0  0  0
 11 12  1  0  0  0  0
 11 17  1  0  0  0  0
 12 13  1  0  0  0  0
 13 14  1  0  0  0  0
 14 15  1  0  0  0  0
 16 14  1  0  0  0  0
 17 16  1  0  0  0  0
 18  3  1  0  0  0  0
 20 19  2  6  0  0  0
 20 18  1  0  0  0  0
 20 23  1  0  0  0  0
 21 20  1  0  0  0  0
 22 21  1  0  0  0  0
 23 26  1  0  0  0  0
 24 30  1  0  0  0  0
 25 24  1  0  0  0  0
 25 31  1  0  0  0  0
 26 25  2  0  0  0  0
 27 28  2  0  0  0  0
 27 26  1  0  0  0  0
 28 29  1  0  0  0  0
 29 24  2  0  0  0  0
 32 28  1  0  0  0  0
M  END
>  <minimizedAffinity>
-5.34135342

$$$$

 OpenBabel03272508133D

 32 34  0  0  0  0  0  0  0  0999 V2000
   36.1450   30.5110   35.6750 Cl  0  0  0  0  0  0  0  0  0  0  0  0
   35.9620   29.9230   34.0210 C   0  0  0  0  0  0  0  0  0  0  0  0
   36.1760   28.6010   33.6290 C   0  0  0  0  0  0  0  0  0  0  0  0
   35.9940   28.2880   32.2990 C   0  0  0  0  0  0  0  0  0  0  0  0
   35.6160   29.2450   31.3910 C   0  0  0  0  0  0  0  0  0  0  0  0
   35.4010   30.5460   31.7510 C   0  0  0  0  0  0  0  0  0  0  0  0
   35.5780   30.8670   33.0600 C   0  0  0  0  0  0  0  0  0  0  0  0
   36.1830   27.2400   32.0940 H   0  0  0  0  0  0  0  0  0  0  0  0
   35.4960   28.9140   30.3680 H   0  0  0  0  0  0  0  0  0  0  0  0
   35.1030   31.2780   31.0110 H   0  0  0  0  0  0  0  0  0  0  0  0
   35.3540   32.2400   33.4540 N   0  0  0  0  0  0  0  0  0  0  0  0
   34.1330   32.8330   33.8980 C   0  0  0  0  0  2  0  0  0  0  0  0
   34.3060   33.3470   35.3120 C   0  0  0  0  0  2  0  0  0  0  0  0
   35.6640   33.9710   35.4700 C   0  0  0  0  0  3  0  0  0  0  0  0
   35.6480   34.9000   36.0650 H   0  0  0  0  0  0  0  0  0  0  0  0
   36.2620   34.3450   34.1300 C   0  0  0  0  0  2  0  0  0  0  0  0
   36.5460   33.0570   33.3660 C   0  0  0  0  0  2  0  0  0  0  0  0
   36.5460   27.8070   34.6840 O   0  0  0  0  0  0  0  0  0  0  0  0
   38.9460   27.3110   33.8500 O   0  0  0  0  0  0  0  0  0  0  0  0
   38.0040   27.0420   34.9730 P   0  0  1  0  0  0  0  0  0  0  0  0
   38.6110   27.7640   36.3970 O   0  0  0  0  0  0  0  0  0  0  0  0
   39.0920   28.5880   36.0990 H   0  0  0  0  0  0  0  0  0  0  0  0
   37.7300   25.3940   35.2460 O   0  0  0  0  0  0  0  0  0  0  0  0
   39.6630   22.8530   37.0910 C   0  0  0  0  0  0  0  0  0  0  0  0
   39.2360   23.5870   35.9770 C   0  0  0  0  0  0  0  0  0  0  0  0
   38.2750   24.5830   36.1610 C   0  0  0  0  0  0  0  0  0  0  0  0
   37.8020   24.7860   37.4300 N   0  0  0  0  0  0  0  0  0  0  0  0
   38.2360   24.0610   38.4740 C   0  0  0  0  0  0  0  0  0  0  0  0
   39.1670   23.0960   38.2970 N   0  0  0  0  0  0  0  0  0  0  0  0
   40.4050   22.1020   36.8720 H   0  0  0  0  0  0  0  0  0  0  0  0
   39.5610   23.4870   34.9460 H   0  0  0  0  0  0  0  0  0  0  0  0
   37.8670   24.2170   39.4770 H   0  0  0  0  0  0  0  0  0  0  0  0
  2  1  1  0  0  0  0
  3  2  1  0  0  0  0
  3 18  1  0  0  0  0
  4  3  2  0  0  0  0
  5  6  2  0  0  0  0
  5  4  1  0  0  0  0
  6  7  1  0  0  0  0
  7 11  1  0  0  0  0
  7  2  2  0  0  0  0
  8  4  1  0  0  0  0
  9  5  1  0  0  0  0
 10  6  1  0  0  0  0
 11 12  1  0  0  0  0
 12 13  1  0  0  0  0
 13 14  1  0  0  0  0
 14 15  1  0  0  0  0
 16 14  1  0  0  0  0
 17 11  1  0  0  0  0
 17 16  1  0  0  0  0
 18 20  1  0  0  0  0
 20 19  2  6  0  0  0
 20 23  1  0  0  0  0
 20 21  1  0  0  0  0
 22 21  1  0  0  0  0
 23 26  1  0  0  0  0
 24 29  1  0  0  0  0
 25 26  1  0  0  0  0
 25 24  2  0  0  0  0
 26 27  2  0  0  0  0
 27 28  1  0  0  0  0
 28 32  1  0  0  0  0
 29 28  2  0  0  0  0
 30 24  1  0  0  0  0
 31 25  1  0  0  0  0
M  END
>  <minimizedAffinity>
-5.31921816

$$$$

 OpenBabel03272508133D

 32 34  0  0  0  0  0  0  0  0999 V2000
   37.6600   24.3800   32.6200 Cl  0  0  0  0  0  0  0  0  0  0  0  0
   37.7400   25.6900   33.8010 C   0  0  0  0  0  0  0  0  0  0  0  0
   37.0850   26.9140   33.6620 C   0  0  0  0  0  0  0  0  0  0  0  0
   37.2400   27.8430   34.6680 C   0  0  0  0  0  0  0  0  0  0  0  0
   38.0140   27.5730   35.7690 C   0  0  0  0  0  0  0  0  0  0  0  0
   38.6660   26.3830   35.9260 C   0  0  0  0  0  0  0  0  0  0  0  0
   38.5210   25.4570   34.9410 C   0  0  0  0  0  0  0  0  0  0  0  0
   36.6940   28.7590   34.4690 H   0  0  0  0  0  0  0  0  0  0  0  0
   38.0830   28.3580   36.5110 H   0  0  0  0  0  0  0  0  0  0  0  0
   39.2700   26.1990   36.8070 H   0  0  0  0  0  0  0  0  0  0  0  0
   39.2050   24.1930   35.0960 N   0  0  0  0  0  0  0  0  0  0  0  0
   40.4840   23.8230   34.5810 C   0  0  0  0  0  2  0  0  0  0  0  0
   41.4170   23.5020   35.7300 C   0  0  0  0  0  2  0  0  0  0  0  0
   40.6770   22.7460   36.7970 C   0  0  0  0  0  3  0  0  0  0  0  0
   41.2670   21.9220   37.2330 H   0  0  0  0  0  0  0  0  0  0  0  0
   39.4140   22.1130   36.2550 C   0  0  0  0  0  2  0  0  0  0  0  0
   38.4520   23.2330   35.8760 C   0  0  0  0  0  2  0  0  0  0  0  0
   36.3670   26.9810   32.4960 O   0  0  0  0  0  0  0  0  0  0  0  0
   37.9010   28.5270   31.0960 O   0  0  0  0  0  0  0  0  0  0  0  0
   36.4870   28.0790   31.2410 P   0  0  1  0  0  0  0  0  0  0  0  0
   36.0300   27.2080   29.8440 O   0  0  0  0  0  0  0  0  0  0  0  0
   36.8590   26.7450   29.5300 H   0  0  0  0  0  0  0  0  0  0  0  0
   35.3980   29.3490   31.4970 O   0  0  0  0  0  0  0  0  0  0  0  0
   34.9250   31.3220   34.5760 C   0  0  0  0  0  0  0  0  0  0  0  0
   35.5470   30.9220   33.3860 C   0  0  0  0  0  0  0  0  0  0  0  0
   34.9750   29.8850   32.6490 C   0  0  0  0  0  0  0  0  0  0  0  0
   33.8280   29.3140   33.1340 N   0  0  0  0  0  0  0  0  0  0  0  0
   33.2610   29.7260   34.2800 C   0  0  0  0  0  0  0  0  0  0  0  0
   33.8150   30.7310   34.9950 N   0  0  0  0  0  0  0  0  0  0  0  0
   35.4240   32.1280   35.0910 H   0  0  0  0  0  0  0  0  0  0  0  0
   36.4520   31.3220   32.9380 H   0  0  0  0  0  0  0  0  0  0  0  0
   32.3570   29.2800   34.6670 H   0  0  0  0  0  0  0  0  0  0  0  0
  1  2  1  0  0  0  0
  2  7  1  0  0  0  0
  3  2  2  0  0  0  0
  3  4  1  0  0  0  0
  4  5  2  0  0  0  0
  5  6  1  0  0  0  0
  5  9  1  0  0  0  0
  6 10  1  0  0  0  0
  7 11  1  0  0  0  0
  7  6  2  0  0  0  0
  8  4  1  0  0  0  0
 11 17  1  0  0  0  0
 12 11  1  0  0  0  0
 12 13  1  0  0  0  0
 13 14  1  0  0  0  0
 14 15  1  0  0  0  0
 16 14  1  0  0  0  0
 17 16  1  0  0  0  0
 18  3  1  0  0  0  0
 20 19  2  6  0  0  0
 20 23  1  0  0  0  0
 20 18  1  0  0  0  0
 21 20  1  0  0  0  0
 22 21  1  0  0  0  0
 23 26  1  0  0  0  0
 24 29  1  0  0  0  0
 24 30  1  0  0  0  0
 25 24  2  0  0  0  0
 26 27  2  0  0  0  0
 26 25  1  0  0  0  0
 27 28  1  0  0  0  0
 28 32  1  0  0  0  0
 28 29  2  0  0  0  0
 31 25  1  0  0  0  0
M  END
>  <minimizedAffinity>
-5.26674318

$$$$

 OpenBabel03272508133D

 32 34  0  0  0  0  0  0  0  0999 V2000
   35.5560   25.2320   31.2750 Cl  0  0  0  0  0  0  0  0  0  0  0  0
   36.9070   25.5280   32.3730 C   0  0  0  0  0  0  0  0  0  0  0  0
   37.6520   24.5230   32.9920 C   0  0  0  0  0  0  0  0  0  0  0  0
   38.6800   24.9070   33.8250 C   0  0  0  0  0  0  0  0  0  0  0  0
   38.9620   26.2330   34.0400 C   0  0  0  0  0  0  0  0  0  0  0  0
   38.2470   27.2340   33.4450 C   0  0  0  0  0  0  0  0  0  0  0  0
   37.2290   26.8690   32.6210 C   0  0  0  0  0  0  0  0  0  0  0  0
   39.1970   24.0570   34.2570 H   0  0  0  0  0  0  0  0  0  0  0  0
   39.7850   26.4460   34.7090 H   0  0  0  0  0  0  0  0  0  0  0  0
   38.4940   28.2720   33.6340 H   0  0  0  0  0  0  0  0  0  0  0  0
   36.4650   27.9190   31.9860 N   0  0  0  0  0  0  0  0  0  0  0  0
   35.2550   28.5210   32.4480 C   0  0  0  0  0  2  0  0  0  0  0  0
   35.4850   29.9980   32.6880 C   0  0  0  0  0  2  0  0  0  0  0  0
   36.3600   30.5650   31.6050 C   0  0  0  0  0  3  0  0  0  0  0  0
   36.0350   31.5630   31.2630 H   0  0  0  0  0  0  0  0  0  0  0  0
   36.3640   29.6830   30.3750 C   0  0  0  0  0  2  0  0  0  0  0  0
   37.0490   28.3700   30.7400 C   0  0  0  0  0  2  0  0  0  0  0  0
   37.2100   23.2720   32.6460 O   0  0  0  0  0  0  0  0  0  0  0  0
   36.7890   20.7180   32.6570 O   0  0  0  0  0  0  0  0  0  0  0  0
   37.5240   21.8000   33.3720 P   0  0  1  0  0  0  0  0  0  0  0  0
   39.2040   21.5570   33.1770 O   0  0  0  0  0  0  0  0  0  0  0  0
   39.3160   21.1460   32.2730 H   0  0  0  0  0  0  0  0  0  0  0  0
   37.1530   21.8930   35.0200 O   0  0  0  0  0  0  0  0  0  0  0  0
   38.4880   23.4450   38.0870 C   0  0  0  0  0  0  0  0  0  0  0  0
   37.5190   23.0990   37.1360 C   0  0  0  0  0  0  0  0  0  0  0  0
   37.9060   22.3310   36.0380 C   0  0  0  0  0  0  0  0  0  0  0  0
   39.2200   21.9550   35.9520 N   0  0  0  0  0  0  0  0  0  0  0  0
   40.1200   22.3060   36.8850 C   0  0  0  0  0  0  0  0  0  0  0  0
   39.7460   23.0510   37.9500 N   0  0  0  0  0  0  0  0  0  0  0  0
   38.1160   24.0390   38.9070 H   0  0  0  0  0  0  0  0  0  0  0  0
   36.4640   23.3570   37.1320 H   0  0  0  0  0  0  0  0  0  0  0  0
   41.1570   22.0130   36.8240 H   0  0  0  0  0  0  0  0  0  0  0  0
  1  2  1  0  0  0  0
  2  7  2  0  0  0  0
  2  3  1  0  0  0  0
  3  4  2  0  0  0  0
  4  5  1  0  0  0  0
  4  8  1  0  0  0  0
  5  9  1  0  0  0  0
  6 10  1  0  0  0  0
  6  5  2  0  0  0  0
  7  6  1  0  0  0  0
 11 12  1  0  0  0  0
 11  7  1  0  0  0  0
 12 13  1  0  0  0  0
 14 13  1  0  0  0  0
 15 14  1  0  0  0  0
 16 17  1  0  0  0  0
 16 14  1  0  0  0  0
 17 11  1  0  0  0  0
 18  3  1  0  0  0  0
 18 20  1  0  0  0  0
 20 19  2  6  0  0  0
 20 23  1  0  0  0  0
 21 20  1  0  0  0  0
 22 21  1  0  0  0  0
 23 26  1  0  0  0  0
 24 30  1  0  0  0  0
 25 24  2  0  0  0  0
 26 25  1  0  0  0  0
 27 26  2  0  0  0  0
 27 28  1  0  0  0  0
 28 29  2  0  0  0  0
 29 24  1  0  0  0  0
 31 25  1  0  0  0  0
 32 28  1  0  0  0  0
M  END
>  <minimizedAffinity>
-5.21098995

$$$$

 OpenBabel03272508133D

 32 34  0  0  0  0  0  0  0  0999 V2000
   36.8260   24.7380   32.4890 Cl  0  0  0  0  0  0  0  0  0  0  0  0
   37.4350   25.6690   33.8600 C   0  0  0  0  0  0  0  0  0  0  0  0
   37.9130   25.1040   35.0430 C   0  0  0  0  0  0  0  0  0  0  0  0
   38.3570   25.9580   36.0290 C   0  0  0  0  0  0  0  0  0  0  0  0
   38.3310   27.3190   35.8530 C   0  0  0  0  0  0  0  0  0  0  0  0
   37.8680   27.8950   34.7040 C   0  0  0  0  0  0  0  0  0  0  0  0
   37.4260   27.0630   33.7230 C   0  0  0  0  0  0  0  0  0  0  0  0
   38.7070   25.4250   36.9070 H   0  0  0  0  0  0  0  0  0  0  0  0
   38.6980   27.9160   36.6770 H   0  0  0  0  0  0  0  0  0  0  0  0
   37.8610   28.9730   34.5940 H   0  0  0  0  0  0  0  0  0  0  0  0
   36.9340   27.6610   32.5020 N   0  0  0  0  0  0  0  0  0  0  0  0
   35.5900   28.0260   32.1880 C   0  0  0  0  0  2  0  0  0  0  0  0
   35.5160   29.5190   31.9470 C   0  0  0  0  0  2  0  0  0  0  0  0
   36.7250   29.9770   31.1810 C   0  0  0  0  0  3  0  0  0  0  0  0
   36.4890   30.7210   30.4010 H   0  0  0  0  0  0  0  0  0  0  0  0
   37.3990   28.8250   30.4670 C   0  0  0  0  0  2  0  0  0  0  0  0
   37.9770   27.8900   31.5240 C   0  0  0  0  0  2  0  0  0  0  0  0
   37.8530   23.7340   35.0170 O   0  0  0  0  0  0  0  0  0  0  0  0
   40.3810   23.3300   34.6390 O   0  0  0  0  0  0  0  0  0  0  0  0
   39.0940   22.6220   34.8870 P   0  0  1  0  0  0  0  0  0  0  0  0
   39.1630   21.8520   36.4100 O   0  0  0  0  0  0  0  0  0  0  0  0
   39.7360   22.4380   36.9840 H   0  0  0  0  0  0  0  0  0  0  0  0
   38.7080   21.4850   33.6950 O   0  0  0  0  0  0  0  0  0  0  0  0
   35.2030   20.7800   32.7910 C   0  0  0  0  0  0  0  0  0  0  0  0
   36.2980   20.9770   33.6420 C   0  0  0  0  0  0  0  0  0  0  0  0
   37.5410   21.2650   33.0760 C   0  0  0  0  0  0  0  0  0  0  0  0
   37.6190   21.3400   31.7100 N   0  0  0  0  0  0  0  0  0  0  0  0
   36.5450   21.1460   30.9270 C   0  0  0  0  0  0  0  0  0  0  0  0
   35.3400   20.8670   31.4750 N   0  0  0  0  0  0  0  0  0  0  0  0
   34.2770   20.5620   33.2990 H   0  0  0  0  0  0  0  0  0  0  0  0
   36.3180   20.9340   34.7270 H   0  0  0  0  0  0  0  0  0  0  0  0
   36.5990   21.2040   29.8510 H   0  0  0  0  0  0  0  0  0  0  0  0
  1  2  1  0  0  0  0
  2  3  1  0  0  0  0
  3  4  2  0  0  0  0
  4  8  1  0  0  0  0
  5  4  1  0  0  0  0
  5  9  1  0  0  0  0
  6  5  2  0  0  0  0
  7  2  2  0  0  0  0
  7  6  1  0  0  0  0
 10  6  1  0  0  0  0
 11  7  1  0  0  0  0
 12 11  1  0  0  0  0
 13 12  1  0  0  0  0
 14 13  1  0  0  0  0
 15 14  1  0  0  0  0
 16 14  1  0  0  0  0
 16 17  1  0  0  0  0
 17 11  1  0  0  0  0
 18  3  1  0  0  0  0
 20 19  2  6  0  0  0
 20 18  1  0  0  0  0
 20 21  1  0  0  0  0
 21 22  1  0  0  0  0
 23 20  1  0  0  0  0
 24 30  1  0  0  0  0
 24 25  1  0  0  0  0
 25 31  1  0  0  0  0
 26 25  2  0  0  0  0
 26 23  1  0  0  0  0
 27 26  1  0  0  0  0
 28 29  1  0  0  0  0
 28 27  2  0  0  0  0
 29 24  2  0  0  0  0
 32 28  1  0  0  0  0
M  END
>  <minimizedAffinity>
-5.19703007

$$$$

 OpenBabel03272508133D

 32 34  0  0  0  0  0  0  0  0999 V2000
   38.4950   27.7050   32.2380 Cl  0  0  0  0  0  0  0  0  0  0  0  0
   37.4610   26.3430   31.7970 C   0  0  0  0  0  0  0  0  0  0  0  0
   37.8860   25.0150   31.7600 C   0  0  0  0  0  0  0  0  0  0  0  0
   36.9660   24.0560   31.3960 C   0  0  0  0  0  0  0  0  0  0  0  0
   35.6730   24.3970   31.0820 C   0  0  0  0  0  0  0  0  0  0  0  0
   35.2340   25.6900   31.1120 C   0  0  0  0  0  0  0  0  0  0  0  0
   36.1340   26.6460   31.4680 C   0  0  0  0  0  0  0  0  0  0  0  0
   37.3900   23.0580   31.3970 H   0  0  0  0  0  0  0  0  0  0  0  0
   35.0160   23.5820   30.8080 H   0  0  0  0  0  0  0  0  0  0  0  0
   34.2080   25.9280   30.8590 H   0  0  0  0  0  0  0  0  0  0  0  0
   35.6810   28.0190   31.5040 N   0  0  0  0  0  0  0  0  0  0  0  0
   34.7670   28.6130   32.4260 C   0  0  0  0  0  2  0  0  0  0  0  0
   35.4670   29.7150   33.1920 C   0  0  0  0  0  2  0  0  0  0  0  0
   36.3730   30.4860   32.2740 C   0  0  0  0  0  3  0  0  0  0  0  0
   36.3450   31.5750   32.4500 H   0  0  0  0  0  0  0  0  0  0  0  0
   35.9890   30.2890   30.8230 C   0  0  0  0  0  2  0  0  0  0  0  0
   36.2610   28.8340   30.4570 C   0  0  0  0  0  2  0  0  0  0  0  0
   39.2070   24.8900   32.1060 O   0  0  0  0  0  0  0  0  0  0  0  0
   40.9660   23.4220   33.3120 O   0  0  0  0  0  0  0  0  0  0  0  0
   39.8800   24.4140   33.5600 P   0  0  1  0  0  0  0  0  0  0  0  0
   40.5610   25.8340   34.2210 O   0  0  0  0  0  0  0  0  0  0  0  0
   41.4710   25.9130   33.8150 H   0  0  0  0  0  0  0  0  0  0  0  0
   38.6620   23.8390   34.5840 O   0  0  0  0  0  0  0  0  0  0  0  0
   37.9220   24.1970   38.1790 C   0  0  0  0  0  0  0  0  0  0  0  0
   37.7580   24.4090   36.8040 C   0  0  0  0  0  0  0  0  0  0  0  0
   38.6360   23.7760   35.9220 C   0  0  0  0  0  0  0  0  0  0  0  0
   39.6130   22.9780   36.4550 N   0  0  0  0  0  0  0  0  0  0  0  0
   39.7370   22.7990   37.7800 C   0  0  0  0  0  0  0  0  0  0  0  0
   38.8870   23.4120   38.6360 N   0  0  0  0  0  0  0  0  0  0  0  0
   37.2080   24.7170   38.7980 H   0  0  0  0  0  0  0  0  0  0  0  0
   37.0140   25.0220   36.3050 H   0  0  0  0  0  0  0  0  0  0  0  0
   40.5050   22.1710   38.2070 H   0  0  0  0  0  0  0  0  0  0  0  0
  2  1  1  0  0  0  0
  3  2  1  0  0  0  0
  3 18  1  0  0  0  0
  4  8  1  0  0  0  0
  4  3  2  0  0  0  0
  5  6  2  0  0  0  0
  5  4  1  0  0  0  0
  6  7  1  0  0  0  0
  7 11  1  0  0  0  0
  7  2  2  0  0  0  0
  9  5  1  0  0  0  0
 10  6  1  0  0  0  0
 11 12  1  0  0  0  0
 12 13  1  0  0  0  0
 14 15  1  0  0  0  0
 14 13  1  0  0  0  0
 16 14  1  0  0  0  0
 17 16  1  0  0  0  0
 17 11  1  0  0  0  0
 18 20  1  0  0  0  0
 20 19  2  6  0  0  0
 20 21  1  0  0  0  0
 20 23  1  0  0  0  0
 22 21  1  0  0  0  0
 23 26  1  0  0  0  0
 24 29  1  0  0  0  0
 24 30  1  0  0  0  0
 25 24  2  0  0  0  0
 26 27  2  0  0  0  0
 26 25  1  0  0  0  0
 27 28  1  0  0  0  0
 28 32  1  0  0  0  0
 28 29  2  0  0  0  0
 31 25  1  0  0  0  0
M  END
>  <minimizedAffinity>
-5.09114122

$$$$
