
 OpenBabel03272500503D

 43 48  0  0  1  0  0  0  0  0999 V2000
   30.6990   27.4010   46.8510 C   0  0  1  0  0  0  0  0  0  0  0  0
   30.9700   26.9520   45.3680 C   0  0  0  0  0  0  0  0  0  0  0  0
   31.2490   28.3370   45.8730 C   0  0  2  0  0  0  0  0  0  0  0  0
   31.3860   26.9390   47.6010 H   0  0  0  0  0  0  0  0  0  0  0  0
   31.8420   26.2610   45.2530 H   0  0  0  0  0  0  0  0  0  0  0  0
   30.0880   26.7380   44.7520 H   0  0  0  0  0  0  0  0  0  0  0  0
   30.5790   29.1290   45.4670 H   0  0  0  0  0  0  0  0  0  0  0  0
   27.4080   28.4190   47.8820 C   0  0  0  0  0  0  0  0  0  0  0  0
   27.2220   27.0620   47.7630 C   0  0  0  0  0  0  0  0  0  0  0  0
   28.4370   26.4840   47.3580 C   0  0  0  0  0  0  0  0  0  0  0  0
   29.3070   27.4930   47.2440 N   0  0  0  0  0  0  0  0  0  0  0  0
   28.6700   28.5950   47.5580 N   0  0  0  0  0  0  0  0  0  0  0  0
   26.3640   26.4100   47.9160 H   0  0  0  0  0  0  0  0  0  0  0  0
   28.6650   25.4480   47.1640 H   0  0  0  0  0  0  0  0  0  0  0  0
   25.2050   28.9070   48.9740 C   0  0  0  0  0  0  0  0  0  0  0  0
   26.3720   29.3260   48.2800 C   0  0  0  0  0  0  0  0  0  0  0  0
   26.4650   30.6730   48.0010 C   0  0  0  0  0  0  0  0  0  0  0  0
   25.4680   31.5170   48.3900 N   0  0  0  0  0  0  0  0  0  0  0  0
   24.3760   31.0580   49.0520 C   0  0  0  0  0  0  0  0  0  0  0  0
   24.2290   29.7350   49.3550 N   0  0  0  0  0  0  0  0  0  0  0  0
   25.1640   27.8380   49.1810 H   0  0  0  0  0  0  0  0  0  0  0  0
   27.3260   31.0440   47.4760 H   0  0  0  0  0  0  0  0  0  0  0  0
   23.5620   31.6800   49.3820 H   0  0  0  0  0  0  0  0  0  0  0  0
   32.6730   28.7970   45.9930 C   0  0  0  0  0  0  0  0  0  0  0  0
   33.6300   28.7300   45.0070 C   0  0  0  0  0  0  0  0  0  0  0  0
   34.7770   29.2620   45.5020 N   0  0  0  0  0  0  0  0  0  0  0  0
   34.5650   29.6630   46.7750 C   0  0  0  0  0  0  0  0  0  0  0  0
   33.2850   29.3740   47.0600 N   0  0  0  0  0  0  0  0  0  0  0  0
   33.5430   28.3380   44.0060 H   0  0  0  0  0  0  0  0  0  0  0  0
   35.7270   29.3890   45.0510 H   0  0  0  0  0  0  0  0  0  0  0  0
   35.5530   30.3020   47.6870 C   0  0  0  0  0  0  0  0  0  0  0  0
   35.3010   30.3950   49.0790 C   0  0  0  0  0  0  0  0  0  0  0  0
   36.8060   31.2400   49.6900 S   0  0  0  0  0  0  0  0  0  0  0  0
   37.5200   31.3180   47.9210 C   0  0  0  0  0  0  0  0  0  0  0  0
   36.7020   30.8170   47.3240 N   0  0  0  0  0  0  0  0  0  0  0  0
   34.3970   30.0230   49.5790 H   0  0  0  0  0  0  0  0  0  0  0  0
   38.8050   31.9620   47.9760 N   0  0  0  0  0  0  0  0  0  0  0  0
   39.1510   32.5880   49.2570 C   0  0  0  0  0  0  0  0  0  0  0  0
   39.0240   34.0900   48.9810 C   0  0  0  0  0  0  0  0  0  0  0  0
   40.0850   34.4150   47.9730 C   0  0  0  0  0  0  0  0  0  0  0  0
   40.0000   35.4900   47.7090 H   0  0  0  0  0  0  0  0  0  0  0  0
   39.9320   33.6250   46.7180 C   0  0  0  0  0  0  0  0  0  0  0  0
   39.8400   32.1230   46.9770 C   0  0  0  0  0  0  0  0  0  0  0  0
  1 11  1  0  0  0  0
  1  4  1  1  0  0  0
  2  3  1  0  0  0  0
  2  1  1  0  0  0  0
  3  7  1  6  0  0  0
  3 24  1  0  0  0  0
  3  1  1  0  0  0  0
  5  2  1  0  0  0  0
  6  2  1  0  0  0  0
  8 16  1  0  0  0  0
  9  8  1  0  0  0  0
  9 13  1  0  0  0  0
 10  9  2  0  0  0  0
 11 10  1  0  0  0  0
 11 12  1  0  0  0  0
 12  8  2  0  0  0  0
 14 10  1  0  0  0  0
 15 21  1  0  0  0  0
 15 20  1  0  0  0  0
 16 15  2  0  0  0  0
 17 16  1  0  0  0  0
 17 18  2  0  0  0  0
 18 19  1  0  0  0  0
 19 20  2  0  0  0  0
 19 23  1  0  0  0  0
 22 17  1  0  0  0  0
 24 28  1  0  0  0  0
 25 26  1  0  0  0  0
 25 24  2  0  0  0  0
 26 27  1  0  0  0  0
 27 28  2  0  0  0  0
 27 31  1  0  0  0  0
 29 25  1  0  0  0  0
 30 26  1  0  0  0  0
 31 32  2  0  0  0  0
 32 36  1  0  0  0  0
 32 33  1  0  0  0  0
 34 37  1  0  0  0  0
 34 33  1  0  0  0  0
 35 31  1  0  0  0  0
 35 34  2  0  0  0  0
 37 38  1  0  0  0  0
 39 38  1  0  0  0  0
 40 39  1  0  0  0  0
 41 40  1  0  0  0  0
 42 43  1  0  0  0  0
 42 40  1  0  0  0  0
 43 37  1  0  0  0  0
M  END
>  <minimizedAffinity>
-6.09788322

>  <minimizedRMSD>
1.74203086

$$$$
