REMARK  Name = 
REMARK  3 active torsions:
REMARK  status: ('A' for Active; 'I' for Inactive)
REMARK    1  A    between atoms: C_2  and  C_12
REMARK    2  A    between atoms: C_6  and  O_16
REMARK    3  A    between atoms: O_16  and  C_26
REMARK                            x       y       z     vdW  Elec       q    Type
REMARK                         _______ _______ _______ _____ _____    ______ ____
ROOT
ATOM      1  C   UNL     1      36.845  30.559  46.907  0.00  0.00    +0.000 A 
ATOM      2  C   UNL     1      37.506  31.030  48.021  0.00  0.00    +0.000 A 
ATOM      3  C   UNL     1      38.497  31.975  47.883  0.00  0.00    +0.000 A 
ATOM      4  C   UNL     1      38.785  32.416  46.593  0.00  0.00    +0.000 A 
ATOM      5  N   UNL     1      39.729  33.349  46.217  0.00  0.00    +0.000 N 
ATOM      6  C   UNL     1      39.644  33.444  44.894  0.00  0.00    +0.000 A 
ATOM      7  N   UNL     1      38.696  32.622  44.413  0.00  0.00    +0.000 NA
ATOM      8  C   UNL     1      38.152  31.975  45.459  0.00  0.00    +0.000 A 
ATOM      9  C   UNL     1      37.159  31.023  45.629  0.00  0.00    +0.000 A 
ATOM     10  H   UNL     1      36.056  29.811  46.983  0.00  0.00    +0.000 HD
ATOM     11  H   UNL     1      39.009  32.339  48.746  0.00  0.00    +0.000 HD
ATOM     12  H   UNL     1      40.365  33.851  46.908  0.00  0.00    +0.000 HD
ATOM     13  H   UNL     1      36.651  30.664  44.756  0.00  0.00    +0.000 HD
ENDROOT
BRANCH   2  16
ATOM     14  C   UNL     1      37.395  30.107  51.669  0.00  0.00    +0.000 A 
ATOM     15  C   UNL     1      37.871  30.664  50.486  0.00  0.00    +0.000 A 
ATOM     16  C   UNL     1      37.129  30.503  49.319  0.00  0.00    +0.000 A 
ATOM     17  N   UNL     1      35.954  29.797  49.395  0.00  0.00    +0.000 NA
ATOM     18  C   UNL     1      35.515  29.264  50.564  0.00  0.00    +0.000 A 
ATOM     19  N   UNL     1      36.224  29.418  51.679  0.00  0.00    +0.000 NA
ATOM     20  H   UNL     1      38.012  30.266  52.530  0.00  0.00    +0.000 HD
ATOM     21  H   UNL     1      38.779  31.210  50.429  0.00  0.00    +0.000 HD
ATOM     22  H   UNL     1      34.586  28.712  50.596  0.00  0.00    +0.000 HD
ENDBRANCH   2  16
BRANCH   6  23
ATOM     23  O   UNL     1      40.494  34.327  44.231  0.00  0.00    +0.000 OA
BRANCH  23  26
ATOM     24  F   UNL     1      41.700  36.444  42.835  0.00  0.00    +0.000 F 
ATOM     25  C   UNL     1      41.060  35.514  42.121  0.00  0.00    +0.000 A 
ATOM     26  C   UNL     1      40.495  34.509  42.865  0.00  0.00    +0.000 A 
ATOM     27  C   UNL     1      39.800  33.480  42.220  0.00  0.00    +0.000 A 
ATOM     28  H   UNL     1      39.308  32.627  42.703  0.00  0.00    +0.000 HD
ATOM     29  C   UNL     1      39.678  33.468  40.831  0.00  0.00    +0.000 A 
ATOM     30  H   UNL     1      39.146  32.684  40.304  0.00  0.00    +0.000 HD
ATOM     31  C   UNL     1      40.272  34.514  40.122  0.00  0.00    +0.000 A 
ATOM     32  C   UNL     1      40.959  35.533  40.745  0.00  0.00    +0.000 A 
ENDBRANCH  23  26
ENDBRANCH   6  23
TORSDOF 3
