
 OpenBabel03272500213D

 37 39  0  0  0  0  0  0  0  0999 V2000
   35.5350   29.1540   50.4190 C   0  0  0  0  0  0  0  0  0  0  0  0
   36.3460   30.1100   49.7630 C   0  0  0  0  0  0  0  0  0  0  0  0
   36.2160   30.2820   48.3800 C   0  0  0  0  0  0  0  0  0  0  0  0
   35.2940   29.5020   47.7240 N   0  0  0  0  0  0  0  0  0  0  0  0
   34.5430   28.6110   48.3630 C   0  0  0  0  0  0  0  0  0  0  0  0
   34.6480   28.4250   49.6910 N   0  0  0  0  0  0  0  0  0  0  0  0
   35.6290   29.0180   51.4800 H   0  0  0  0  0  0  0  0  0  0  0  0
   32.6950   30.1870   46.5510 Cl  0  0  0  0  0  0  0  0  0  0  0  0
   32.6740   28.4440   46.7190 C   0  0  0  0  0  0  0  0  0  0  0  0
   33.5750   27.8120   47.5920 C   0  0  0  0  0  0  0  0  0  0  0  0
   33.5920   26.4350   47.7580 C   0  0  0  0  0  0  0  0  0  0  0  0
   32.6600   25.7060   47.0100 C   0  0  0  0  0  0  0  0  0  0  0  0
   31.7800   26.2930   46.1630 C   0  0  0  0  0  0  0  0  0  0  0  0
   30.6720   25.2690   45.2800 Cl  0  0  0  0  0  0  0  0  0  0  0  0
   31.7900   27.6730   46.0190 C   0  0  0  0  0  0  0  0  0  0  0  0
   34.2930   25.9680   48.4300 H   0  0  0  0  0  0  0  0  0  0  0  0
   32.6690   24.6250   47.1340 H   0  0  0  0  0  0  0  0  0  0  0  0
   30.8310   28.3220   45.0950 C   0  0  0  0  0  0  0  0  0  0  0  0
   29.8180   27.4240   44.7330 F   0  0  0  0  0  0  0  0  0  0  0  0
   31.4310   28.8460   43.9890 F   0  0  0  0  0  0  0  0  0  0  0  0
   30.1910   29.3590   45.7480 F   0  0  0  0  0  0  0  0  0  0  0  0
   37.3120   30.9050   50.5860 C   0  0  0  0  0  0  0  0  0  0  0  0
   38.5950   30.8070   50.0780 F   0  0  0  0  0  0  0  0  0  0  0  0
   36.9280   32.2290   50.5310 F   0  0  0  0  0  0  0  0  0  0  0  0
   37.3190   30.5250   51.9060 F   0  0  0  0  0  0  0  0  0  0  0  0
   37.0510   31.2650   47.7030 C   0  0  0  0  0  0  0  0  0  0  0  0
   37.9940   31.5020   48.2300 H   0  0  0  0  0  0  0  0  0  0  0  0
   36.4690   32.2280   47.6880 H   0  0  0  0  0  0  0  0  0  0  0  0
   39.7510   31.0610   47.0170 F   0  0  0  0  0  0  0  0  0  0  0  0
   38.8260   30.7460   46.0810 C   0  0  0  0  0  0  0  0  0  0  0  0
   37.4510   30.8210   46.3460 C   0  0  0  0  0  0  0  0  0  0  0  0
   36.6170   30.4730   45.3090 C   0  0  0  0  0  0  0  0  0  0  0  0
   35.5590   30.5530   45.5800 H   0  0  0  0  0  0  0  0  0  0  0  0
   37.0590   30.0700   44.0720 C   0  0  0  0  0  0  0  0  0  0  0  0
   36.3320   29.8070   43.2970 H   0  0  0  0  0  0  0  0  0  0  0  0
   38.4270   30.0050   43.8360 C   0  0  0  0  0  0  0  0  0  0  0  0
   39.3090   30.3450   44.8430 C   0  0  0  0  0  0  0  0  0  0  0  0
  1  7  1  0  0  0  0
  2  1  1  0  0  0  0
  2 22  1  0  0  0  0
  3  2  2  0  0  0  0
  4  5  2  0  0  0  0
  4  3  1  0  0  0  0
  5  6  1  0  0  0  0
  6  1  2  0  0  0  0
  8  9  1  0  0  0  0
  9 10  1  0  0  0  0
 10 11  2  0  0  0  0
 10  5  1  0  0  0  0
 11 16  1  0  0  0  0
 12 17  1  0  0  0  0
 12 11  1  0  0  0  0
 13 12  2  0  0  0  0
 14 13  1  0  0  0  0
 15 13  1  0  0  0  0
 15  9  2  0  0  0  0
 18 21  1  0  0  0  0
 18 15  1  0  0  0  0
 19 18  1  0  0  0  0
 20 18  1  0  0  0  0
 22 25  1  0  0  0  0
 23 22  1  0  0  0  0
 24 22  1  0  0  0  0
 26 27  1  0  0  0  0
 26  3  1  0  0  0  0
 28 26  1  0  0  0  0
 30 31  1  0  0  0  0
 30 29  1  0  0  0  0
 31 26  1  0  0  0  0
 32 33  1  0  0  0  0
 32 31  2  0  0  0  0
 34 32  1  0  0  0  0
 35 34  1  0  0  0  0
 36 34  2  0  0  0  0
 36 37  1  0  0  0  0
 37 30  2  0  0  0  0
M  END
>  <minimizedAffinity>
-6.69468164

>  <minimizedRMSD>
1.32269168

$$$$
