
 OpenBabel03272510243D

 32 35  0  0  0  0  0  0  0  0999 V2000
   35.9330   30.0750   46.9950 C   0  0  0  0  0  0  0  0  0  0  0  0
   36.8610   30.6280   47.8500 C   0  0  0  0  0  0  0  0  0  0  0  0
   37.8200   31.4860   47.3620 C   0  0  0  0  0  0  0  0  0  0  0  0
   37.8000   31.7560   45.9950 C   0  0  0  0  0  0  0  0  0  0  0  0
   38.6550   32.5770   45.2900 N   0  0  0  0  0  0  0  0  0  0  0  0
   38.2530   32.5250   44.0240 C   0  0  0  0  0  0  0  0  0  0  0  0
   37.1890   31.7150   43.8910 N   0  0  0  0  0  0  0  0  0  0  0  0
   36.8950   31.2280   45.1090 C   0  0  0  0  0  0  0  0  0  0  0  0
   35.9420   30.3670   45.6300 C   0  0  0  0  0  0  0  0  0  0  0  0
   35.1610   29.3920   47.3500 H   0  0  0  0  0  0  0  0  0  0  0  0
   38.5390   31.9130   48.0250 H   0  0  0  0  0  0  0  0  0  0  0  0
   39.4560   33.1140   45.7400 H   0  0  0  0  0  0  0  0  0  0  0  0
   35.2240   29.9430   44.9560 H   0  0  0  0  0  0  0  0  0  0  0  0
   37.5950   30.1730   51.5150 C   0  0  0  0  0  0  0  0  0  0  0  0
   37.7850   30.5640   50.1920 C   0  0  0  0  0  0  0  0  0  0  0  0
   36.7940   30.2790   49.2570 C   0  0  0  0  0  0  0  0  0  0  0  0
   35.6690   29.6220   49.6900 N   0  0  0  0  0  0  0  0  0  0  0  0
   35.5120   29.2530   50.9870 C   0  0  0  0  0  0  0  0  0  0  0  0
   36.4590   29.5250   51.8810 N   0  0  0  0  0  0  0  0  0  0  0  0
   38.3940   30.4210   52.1840 H   0  0  0  0  0  0  0  0  0  0  0  0
   38.6550   31.0720   49.8590 H   0  0  0  0  0  0  0  0  0  0  0  0
   34.6160   28.7360   51.3020 H   0  0  0  0  0  0  0  0  0  0  0  0
   38.9450   33.2690   43.0710 O   0  0  0  0  0  0  0  0  0  0  0  0
   37.8660   34.5460   40.8150 F   0  0  0  0  0  0  0  0  0  0  0  0
   38.6050   33.4520   40.6150 C   0  0  0  0  0  0  0  0  0  0  0  0
   39.1010   32.8790   41.7590 C   0  0  0  0  0  0  0  0  0  0  0  0
   39.8900   31.7270   41.6680 C   0  0  0  0  0  0  0  0  0  0  0  0
   40.3400   31.1810   42.5060 H   0  0  0  0  0  0  0  0  0  0  0  0
   40.1750   31.1580   40.4280 C   0  0  0  0  0  0  0  0  0  0  0  0
   40.7840   30.2660   40.3270 H   0  0  0  0  0  0  0  0  0  0  0  0
   39.6470   31.7810   39.2960 C   0  0  0  0  0  3  0  0  0  0  0  0
   38.8680   32.9150   39.3710 C   0  0  0  0  0  3  0  0  0  0  0  0
  1 10  1  0  0  0  0
  1  2  1  0  0  0  0
  2 16  1  0  0  0  0
  3  2  2  0  0  0  0
  3 11  1  0  0  0  0
  4  3  1  0  0  0  0
  5 12  1  0  0  0  0
  5  4  1  0  0  0  0
  6  5  1  0  0  0  0
  7  6  2  0  0  0  0
  7  8  1  0  0  0  0
  8  9  1  0  0  0  0
  8  4  2  0  0  0  0
  9  1  2  0  0  0  0
 13  9  1  0  0  0  0
 14 19  1  0  0  0  0
 14 20  1  0  0  0  0
 15 14  2  0  0  0  0
 16 17  2  0  0  0  0
 16 15  1  0  0  0  0
 17 18  1  0  0  0  0
 18 22  1  0  0  0  0
 18 19  2  0  0  0  0
 21 15  1  0  0  0  0
 23  6  1  0  0  0  0
 25 24  1  0  0  0  0
 25 26  1  0  0  0  0
 26 23  1  0  0  0  0
 27 26  2  0  0  0  0
 27 28  1  0  0  0  0
 29 27  1  0  0  0  0
 30 29  1  0  0  0  0
 31 32  1  0  0  0  0
 31 29  2  0  0  0  0
 32 25  2  0  0  0  0
M  END
>  <minimizedAffinity>
-5.59525061

>  <minimizedRMSD>
2.09334826

$$$$
