
 OpenBabel03272504183D

 26 27  0  0  0  0  0  0  0  0999 V2000
   39.2160   26.8430   34.0130 O   0  0  0  0  0  0  0  0  0  0  0  0
   38.1200   26.8610   35.0540 P   0  0  1  0  0  0  0  0  0  0  0  0
   38.5680   27.7730   36.3960 O   0  0  0  0  0  0  0  0  0  0  0  0
   39.5330   28.0130   36.3110 H   0  0  0  0  0  0  0  0  0  0  0  0
   36.6830   27.5910   34.4270 O   0  0  0  0  0  0  0  0  0  0  0  0
   36.5290   27.8920   33.0820 C   0  0  0  0  0  0  0  0  0  0  0  0
   36.4980   26.9840   32.0240 C   0  0  0  0  0  0  0  0  0  0  0  0
   36.3350   27.4680   30.7420 C   0  0  0  0  0  0  0  0  0  0  0  0
   36.2090   28.8200   30.5400 N   0  0  0  0  0  0  0  0  0  0  0  0
   36.2460   29.6680   31.5990 C   0  0  0  0  0  0  0  0  0  0  0  0
   36.4050   29.2070   32.8670 N   0  0  0  0  0  0  0  0  0  0  0  0
   36.3150   26.7370   29.9550 H   0  0  0  0  0  0  0  0  0  0  0  0
   36.1410   30.7180   31.3600 H   0  0  0  0  0  0  0  0  0  0  0  0
   36.6400   25.6360   32.4070 N   0  0  0  0  0  0  0  0  0  0  0  0
   36.0860   24.8340   32.0310 H   0  0  0  0  0  0  0  0  0  0  0  0
   37.3420   25.3510   33.1250 H   0  0  0  0  0  0  0  0  0  0  0  0
   37.7980   25.2530   35.4210 O   0  0  0  0  0  0  0  0  0  0  0  0
   39.9780   23.8840   34.6250 F   0  0  0  0  0  0  0  0  0  0  0  0
   39.4960   23.7960   35.8940 C   0  0  0  0  0  0  0  0  0  0  0  0
   38.3720   24.4720   36.3860 C   0  0  0  0  0  0  0  0  0  0  0  0
   38.0150   24.2720   37.7030 C   0  0  0  0  0  0  0  0  0  0  0  0
   37.1540   24.8210   37.9940 H   0  0  0  0  0  0  0  0  0  0  0  0
   38.7310   23.4400   38.5100 C   0  0  0  0  0  0  0  0  0  0  0  0
   38.3870   23.3330   39.5390 H   0  0  0  0  0  0  0  0  0  0  0  0
   39.8260   22.7850   38.0240 C   0  0  0  0  0  3  0  0  0  0  0  0
   40.2360   22.9440   36.7100 C   0  0  0  0  0  3  0  0  0  0  0  0
  2  1  2  6  0  0  0
  2 17  1  0  0  0  0
  2  3  1  0  0  0  0
  4  3  1  0  0  0  0
  5  2  1  0  0  0  0
  6  5  1  0  0  0  0
  7 14  1  0  0  0  0
  7  6  2  0  0  0  0
  8  7  1  0  0  0  0
  9  8  2  0  0  0  0
  9 10  1  0  0  0  0
 10 11  2  0  0  0  0
 11  6  1  0  0  0  0
 12  8  1  0  0  0  0
 13 10  1  0  0  0  0
 14 16  1  0  0  0  0
 15 14  1  0  0  0  0
 17 20  1  0  0  0  0
 18 19  1  0  0  0  0
 19 20  2  0  0  0  0
 19 26  1  0  0  0  0
 20 21  1  0  0  0  0
 21 22  1  0  0  0  0
 21 23  2  0  0  0  0
 23 24  1  0  0  0  0
 25 23  1  0  0  0  0
 26 25  2  0  0  0  0
M  END
>  <minimizedAffinity>
-5.23895407

$$$$

 OpenBabel03272504183D

 26 27  0  0  0  0  0  0  0  0999 V2000
   39.1550   27.2580   35.3990 O   0  0  0  0  0  0  0  0  0  0  0  0
   37.9400   26.5200   34.8860 P   0  0  1  0  0  0  0  0  0  0  0  0
   36.5960   27.5320   34.8190 O   0  0  0  0  0  0  0  0  0  0  0  0
   36.8230   28.3940   35.2670 H   0  0  0  0  0  0  0  0  0  0  0  0
   38.1980   25.9470   33.2740 O   0  0  0  0  0  0  0  0  0  0  0  0
   37.1610   25.5000   32.4710 C   0  0  0  0  0  0  0  0  0  0  0  0
   36.8320   24.1720   32.1960 C   0  0  0  0  0  0  0  0  0  0  0  0
   35.7590   23.9150   31.3680 C   0  0  0  0  0  0  0  0  0  0  0  0
   35.0470   24.9620   30.8370 N   0  0  0  0  0  0  0  0  0  0  0  0
   35.4030   26.2390   31.1290 C   0  0  0  0  0  0  0  0  0  0  0  0
   36.4560   26.5090   31.9440 N   0  0  0  0  0  0  0  0  0  0  0  0
   35.5370   22.8800   31.1830 H   0  0  0  0  0  0  0  0  0  0  0  0
   34.7940   27.0080   30.6730 H   0  0  0  0  0  0  0  0  0  0  0  0
   37.6640   23.2240   32.8220 N   0  0  0  0  0  0  0  0  0  0  0  0
   37.3430   22.3460   33.2880 H   0  0  0  0  0  0  0  0  0  0  0  0
   38.7000   23.3540   32.8560 H   0  0  0  0  0  0  0  0  0  0  0  0
   37.7280   25.2010   35.9050 O   0  0  0  0  0  0  0  0  0  0  0  0
   37.4500   24.4500   38.4780 F   0  0  0  0  0  0  0  0  0  0  0  0
   38.4550   23.9760   37.6930 C   0  0  0  0  0  0  0  0  0  0  0  0
   38.6690   24.3150   36.3520 C   0  0  0  0  0  0  0  0  0  0  0  0
   39.7380   23.7420   35.6960 C   0  0  0  0  0  0  0  0  0  0  0  0
   39.8290   24.0520   34.6850 H   0  0  0  0  0  0  0  0  0  0  0  0
   40.5700   22.8680   36.3310 C   0  0  0  0  0  0  0  0  0  0  0  0
   41.3930   22.4560   35.7470 H   0  0  0  0  0  0  0  0  0  0  0  0
   40.3550   22.5420   37.6390 C   0  0  0  0  0  3  0  0  0  0  0  0
   39.2980   23.0830   38.3520 C   0  0  0  0  0  3  0  0  0  0  0  0
  2  1  2  1  0  0  0
  2 17  1  0  0  0  0
  3  2  1  0  0  0  0
  3  4  1  0  0  0  0
  5  2  1  0  0  0  0
  6  5  1  0  0  0  0
  7  6  1  0  0  0  0
  7 14  1  0  0  0  0
  8  7  2  0  0  0  0
  9 10  2  0  0  0  0
  9  8  1  0  0  0  0
 10 11  1  0  0  0  0
 11  6  2  0  0  0  0
 12  8  1  0  0  0  0
 13 10  1  0  0  0  0
 14 16  1  0  0  0  0
 14 15  1  0  0  0  0
 17 20  1  0  0  0  0
 19 26  1  0  0  0  0
 19 18  1  0  0  0  0
 20 19  2  0  0  0  0
 21 23  2  0  0  0  0
 21 20  1  0  0  0  0
 22 21  1  0  0  0  0
 23 25  1  0  0  0  0
 24 23  1  0  0  0  0
 25 26  2  0  0  0  0
M  END
>  <minimizedAffinity>
-5.13117933

$$$$

 OpenBabel03272504183D

 26 27  0  0  0  0  0  0  0  0999 V2000
   39.2860   27.1140   35.5450 O   0  0  0  0  0  0  0  0  0  0  0  0
   37.9710   26.7420   34.9000 P   0  0  1  0  0  0  0  0  0  0  0  0
   36.8690   28.0120   34.9850 O   0  0  0  0  0  0  0  0  0  0  0  0
   37.2460   28.7230   35.5740 H   0  0  0  0  0  0  0  0  0  0  0  0
   38.1830   26.3940   33.2190 O   0  0  0  0  0  0  0  0  0  0  0  0
   37.1750   25.8470   32.4410 C   0  0  0  0  0  0  0  0  0  0  0  0
   36.1920   26.5440   31.7390 C   0  0  0  0  0  0  0  0  0  0  0  0
   35.2640   25.8280   31.0130 C   0  0  0  0  0  0  0  0  0  0  0  0
   35.3280   24.4570   30.9980 N   0  0  0  0  0  0  0  0  0  0  0  0
   36.3020   23.8180   31.6950 C   0  0  0  0  0  0  0  0  0  0  0  0
   37.2240   24.5090   32.4150 N   0  0  0  0  0  0  0  0  0  0  0  0
   34.5240   26.4020   30.4860 H   0  0  0  0  0  0  0  0  0  0  0  0
   36.2870   22.7370   31.6340 H   0  0  0  0  0  0  0  0  0  0  0  0
   36.2710   27.9460   31.8630 N   0  0  0  0  0  0  0  0  0  0  0  0
   36.1490   28.6330   31.0850 H   0  0  0  0  0  0  0  0  0  0  0  0
   36.4640   28.3960   32.7850 H   0  0  0  0  0  0  0  0  0  0  0  0
   37.4440   25.3510   35.6810 O   0  0  0  0  0  0  0  0  0  0  0  0
   39.3520   23.7940   34.5880 F   0  0  0  0  0  0  0  0  0  0  0  0
   39.0980   23.7910   35.9240 C   0  0  0  0  0  0  0  0  0  0  0  0
   38.1270   24.5660   36.5690 C   0  0  0  0  0  0  0  0  0  0  0  0
   37.9970   24.4450   37.9370 C   0  0  0  0  0  0  0  0  0  0  0  0
   37.2390   25.0660   38.3460 H   0  0  0  0  0  0  0  0  0  0  0  0
   38.7880   23.5930   38.6490 C   0  0  0  0  0  0  0  0  0  0  0  0
   38.6250   23.5510   39.7260 H   0  0  0  0  0  0  0  0  0  0  0  0
   39.7320   22.8400   38.0130 C   0  0  0  0  0  3  0  0  0  0  0  0
   39.9130   22.9170   36.6410 C   0  0  0  0  0  3  0  0  0  0  0  0
  2  3  1  0  0  0  0
  2  1  2  1  0  0  0
  2 17  1  0  0  0  0
  3  4  1  0  0  0  0
  5  2  1  0  0  0  0
  6  5  1  0  0  0  0
  7 14  1  0  0  0  0
  7  6  2  0  0  0  0
  8  7  1  0  0  0  0
  9  8  2  0  0  0  0
  9 10  1  0  0  0  0
 10 11  2  0  0  0  0
 11  6  1  0  0  0  0
 12  8  1  0  0  0  0
 13 10  1  0  0  0  0
 14 16  1  0  0  0  0
 15 14  1  0  0  0  0
 17 20  1  0  0  0  0
 18 19  1  0  0  0  0
 19 20  2  0  0  0  0
 19 26  1  0  0  0  0
 20 21  1  0  0  0  0
 21 22  1  0  0  0  0
 21 23  2  0  0  0  0
 23 24  1  0  0  0  0
 25 23  1  0  0  0  0
 26 25  2  0  0  0  0
M  END
>  <minimizedAffinity>
-5.04365444

$$$$

 OpenBabel03272504183D

 26 27  0  0  0  0  0  0  0  0999 V2000
   39.4900   23.3140   32.5860 O   0  0  0  0  0  0  0  0  0  0  0  0
   38.2630   23.5780   33.4290 P   0  0  1  0  0  0  0  0  0  0  0  0
   37.0570   24.3340   32.5290 O   0  0  0  0  0  0  0  0  0  0  0  0
   37.4360   24.5940   31.6430 H   0  0  0  0  0  0  0  0  0  0  0  0
   37.5810   22.0990   34.0110 O   0  0  0  0  0  0  0  0  0  0  0  0
   36.7790   21.2910   33.2220 C   0  0  0  0  0  0  0  0  0  0  0  0
   35.7320   20.4770   33.6550 C   0  0  0  0  0  0  0  0  0  0  0  0
   35.0390   19.7370   32.7200 C   0  0  0  0  0  0  0  0  0  0  0  0
   35.3920   19.8180   31.3960 N   0  0  0  0  0  0  0  0  0  0  0  0
   36.4170   20.6220   31.0170 C   0  0  0  0  0  0  0  0  0  0  0  0
   37.1100   21.3570   31.9260 N   0  0  0  0  0  0  0  0  0  0  0  0
   34.2400   19.1240   33.0940 H   0  0  0  0  0  0  0  0  0  0  0  0
   36.6360   20.6320   29.9570 H   0  0  0  0  0  0  0  0  0  0  0  0
   35.5040   20.5120   35.0450 N   0  0  0  0  0  0  0  0  0  0  0  0
   34.5680   20.5560   35.5070 H   0  0  0  0  0  0  0  0  0  0  0  0
   36.2980   20.4960   35.7220 H   0  0  0  0  0  0  0  0  0  0  0  0
   38.7850   24.4910   34.7400 O   0  0  0  0  0  0  0  0  0  0  0  0
   40.7110   22.8300   35.6280 F   0  0  0  0  0  0  0  0  0  0  0  0
   39.7450   23.3180   36.4520 C   0  0  0  0  0  0  0  0  0  0  0  0
   38.7110   24.1820   36.0700 C   0  0  0  0  0  0  0  0  0  0  0  0
   37.8100   24.5860   37.0330 C   0  0  0  0  0  0  0  0  0  0  0  0
   37.0600   25.2390   36.6610 H   0  0  0  0  0  0  0  0  0  0  0  0
   37.9140   24.1580   38.3230 C   0  0  0  0  0  0  0  0  0  0  0  0
   37.1640   24.5200   39.0260 H   0  0  0  0  0  0  0  0  0  0  0  0
   38.9240   23.3150   38.6870 C   0  0  0  0  0  3  0  0  0  0  0  0
   39.8620   22.8740   37.7670 C   0  0  0  0  0  3  0  0  0  0  0  0
  2  1  2  6  0  0  0
  2  5  1  0  0  0  0
  2 17  1  0  0  0  0
  3  2  1  0  0  0  0
  4  3  1  0  0  0  0
  6  7  1  0  0  0  0
  6  5  1  0  0  0  0
  7 14  1  0  0  0  0
  8 12  1  0  0  0  0
  8  7  2  0  0  0  0
  9  8  1  0  0  0  0
 10  9  2  0  0  0  0
 10 11  1  0  0  0  0
 11  6  2  0  0  0  0
 13 10  1  0  0  0  0
 14 15  1  0  0  0  0
 14 16  1  0  0  0  0
 17 20  1  0  0  0  0
 18 19  1  0  0  0  0
 19 26  1  0  0  0  0
 20 19  2  0  0  0  0
 20 21  1  0  0  0  0
 21 23  2  0  0  0  0
 22 21  1  0  0  0  0
 23 25  1  0  0  0  0
 23 24  1  0  0  0  0
 26 25  2  0  0  0  0
M  END
>  <minimizedAffinity>
-5.00129604

$$$$

 OpenBabel03272504183D

 26 27  0  0  0  0  0  0  0  0999 V2000
   36.8590   26.9490   35.1000 O   0  0  0  0  0  0  0  0  0  0  0  0
   38.0940   26.0950   34.9250 P   0  0  1  0  0  0  0  0  0  0  0  0
   39.4770   26.9130   35.4290 O   0  0  0  0  0  0  0  0  0  0  0  0
   39.2360   27.8630   35.6150 H   0  0  0  0  0  0  0  0  0  0  0  0
   37.9980   24.6630   35.8900 O   0  0  0  0  0  0  0  0  0  0  0  0
   39.1230   23.9550   36.2830 C   0  0  0  0  0  0  0  0  0  0  0  0
   39.2360   23.1160   37.3910 C   0  0  0  0  0  0  0  0  0  0  0  0
   40.4430   22.4900   37.6260 C   0  0  0  0  0  0  0  0  0  0  0  0
   41.4950   22.7070   36.7730 N   0  0  0  0  0  0  0  0  0  0  0  0
   41.3430   23.5320   35.7070 C   0  0  0  0  0  0  0  0  0  0  0  0
   40.1610   24.1560   35.4600 N   0  0  0  0  0  0  0  0  0  0  0  0
   40.4880   21.8510   38.4890 H   0  0  0  0  0  0  0  0  0  0  0  0
   42.2170   23.6530   35.0810 H   0  0  0  0  0  0  0  0  0  0  0  0
   38.0610   23.0050   38.1600 N   0  0  0  0  0  0  0  0  0  0  0  0
   37.6770   22.1200   38.5610 H   0  0  0  0  0  0  0  0  0  0  0  0
   37.4810   23.8440   38.3830 H   0  0  0  0  0  0  0  0  0  0  0  0
   38.1340   25.6570   33.3040 O   0  0  0  0  0  0  0  0  0  0  0  0
   36.0040   26.5300   31.9050 F   0  0  0  0  0  0  0  0  0  0  0  0
   36.3320   25.2120   31.9690 C   0  0  0  0  0  0  0  0  0  0  0  0
   37.4190   24.6780   32.6720 C   0  0  0  0  0  0  0  0  0  0  0  0
   37.6130   23.3130   32.6340 C   0  0  0  0  0  0  0  0  0  0  0  0
   38.4570   22.9910   33.1920 H   0  0  0  0  0  0  0  0  0  0  0  0
   36.7730   22.4990   31.9340 C   0  0  0  0  0  0  0  0  0  0  0  0
   36.9910   21.4310   31.9520 H   0  0  0  0  0  0  0  0  0  0  0  0
   35.7160   23.0270   31.2510 C   0  0  0  0  0  3  0  0  0  0  0  0
   35.4670   24.3900   31.2500 C   0  0  0  0  0  3  0  0  0  0  0  0
  2  1  2  1  0  0  0
  2  3  1  0  0  0  0
  2  5  1  0  0  0  0
  3  4  1  0  0  0  0
  5  6  1  0  0  0  0
  6  7  1  0  0  0  0
  7  8  2  0  0  0  0
  7 14  1  0  0  0  0
  8 12  1  0  0  0  0
  9  8  1  0  0  0  0
 10  9  2  0  0  0  0
 11 10  1  0  0  0  0
 11  6  2  0  0  0  0
 13 10  1  0  0  0  0
 14 16  1  0  0  0  0
 14 15  1  0  0  0  0
 17  2  1  0  0  0  0
 18 19  1  0  0  0  0
 19 20  1  0  0  0  0
 20 17  1  0  0  0  0
 21 20  2  0  0  0  0
 21 22  1  0  0  0  0
 23 24  1  0  0  0  0
 23 21  1  0  0  0  0
 25 23  2  0  0  0  0
 26 25  1  0  0  0  0
 26 19  2  0  0  0  0
M  END
>  <minimizedAffinity>
-4.95382452

$$$$

 OpenBabel03272504183D

 26 27  0  0  0  0  0  0  0  0999 V2000
   39.9800   22.2950   33.1820 O   0  0  0  0  0  0  0  0  0  0  0  0
   39.3200   23.6540   33.1380 P   0  0  1  0  0  0  0  0  0  0  0  0
   39.7910   24.5170   31.7720 O   0  0  0  0  0  0  0  0  0  0  0  0
   40.5310   24.0220   31.3210 H   0  0  0  0  0  0  0  0  0  0  0  0
   37.5990   23.5030   33.0490 O   0  0  0  0  0  0  0  0  0  0  0  0
   36.8090   24.4090   32.3590 C   0  0  0  0  0  0  0  0  0  0  0  0
   35.7930   24.1090   31.4530 C   0  0  0  0  0  0  0  0  0  0  0  0
   35.1080   25.1480   30.8580 C   0  0  0  0  0  0  0  0  0  0  0  0
   35.4410   26.4430   31.1680 N   0  0  0  0  0  0  0  0  0  0  0  0
   36.4380   26.6910   32.0550 C   0  0  0  0  0  0  0  0  0  0  0  0
   37.1210   25.6790   32.6500 N   0  0  0  0  0  0  0  0  0  0  0  0
   34.3320   24.8740   30.1670 H   0  0  0  0  0  0  0  0  0  0  0  0
   36.6420   27.7370   32.2470 H   0  0  0  0  0  0  0  0  0  0  0  0
   35.5810   22.7310   31.2500 N   0  0  0  0  0  0  0  0  0  0  0  0
   34.6510   22.2600   31.1880 H   0  0  0  0  0  0  0  0  0  0  0  0
   36.3840   22.0720   31.1450 H   0  0  0  0  0  0  0  0  0  0  0  0
   39.7250   24.4180   34.5790 O   0  0  0  0  0  0  0  0  0  0  0  0
   37.5710   25.4790   35.8000 F   0  0  0  0  0  0  0  0  0  0  0  0
   38.3800   24.5780   36.4210 C   0  0  0  0  0  0  0  0  0  0  0  0
   39.5150   23.9820   35.8580 C   0  0  0  0  0  0  0  0  0  0  0  0
   40.2280   23.0840   36.6250 C   0  0  0  0  0  0  0  0  0  0  0  0
   41.0730   22.6790   36.1240 H   0  0  0  0  0  0  0  0  0  0  0  0
   39.8460   22.7820   37.8970 C   0  0  0  0  0  0  0  0  0  0  0  0
   40.4600   22.0630   38.4410 H   0  0  0  0  0  0  0  0  0  0  0  0
   38.7380   23.3670   38.4390 C   0  0  0  0  0  3  0  0  0  0  0  0
   37.9790   24.2760   37.7200 C   0  0  0  0  0  3  0  0  0  0  0  0
  2  1  2  6  0  0  0
  2 17  1  0  0  0  0
  3  2  1  0  0  0  0
  4  3  1  0  0  0  0
  5  2  1  0  0  0  0
  6 11  1  0  0  0  0
  6  5  1  0  0  0  0
  7  6  2  0  0  0  0
  8  9  2  0  0  0  0
  8  7  1  0  0  0  0
  9 10  1  0  0  0  0
 10 13  1  0  0  0  0
 10 11  2  0  0  0  0
 12  8  1  0  0  0  0
 14  7  1  0  0  0  0
 15 14  1  0  0  0  0
 16 14  1  0  0  0  0
 17 20  1  0  0  0  0
 18 19  1  0  0  0  0
 19 26  1  0  0  0  0
 20 19  2  0  0  0  0
 20 21  1  0  0  0  0
 21 23  2  0  0  0  0
 22 21  1  0  0  0  0
 23 25  1  0  0  0  0
 23 24  1  0  0  0  0
 26 25  2  0  0  0  0
M  END
>  <minimizedAffinity>
-4.75036097

$$$$

 OpenBabel03272504183D

 26 27  0  0  0  0  0  0  0  0999 V2000
   37.0310   25.5850   33.2520 O   0  0  0  0  0  0  0  0  0  0  0  0
   38.2870   24.8380   33.6370 P   0  0  1  0  0  0  0  0  0  0  0  0
   39.6670   25.7150   33.2350 O   0  0  0  0  0  0  0  0  0  0  0  0
   39.3950   26.5030   32.6870 H   0  0  0  0  0  0  0  0  0  0  0  0
   38.3550   24.5800   35.3460 O   0  0  0  0  0  0  0  0  0  0  0  0
   39.3810   23.8700   35.9500 C   0  0  0  0  0  0  0  0  0  0  0  0
   39.2640   22.9860   37.0220 C   0  0  0  0  0  0  0  0  0  0  0  0
   40.4020   22.3640   37.4940 C   0  0  0  0  0  0  0  0  0  0  0  0
   41.6120   22.6290   36.9030 N   0  0  0  0  0  0  0  0  0  0  0  0
   41.6810   23.4960   35.8610 C   0  0  0  0  0  0  0  0  0  0  0  0
   40.5690   24.1160   35.3850 N   0  0  0  0  0  0  0  0  0  0  0  0
   40.2690   21.6910   38.3200 H   0  0  0  0  0  0  0  0  0  0  0  0
   42.6690   23.6530   35.4490 H   0  0  0  0  0  0  0  0  0  0  0  0
   37.9510   22.8300   37.5090 N   0  0  0  0  0  0  0  0  0  0  0  0
   37.5060   21.9250   37.7810 H   0  0  0  0  0  0  0  0  0  0  0  0
   37.3200   23.6530   37.6300 H   0  0  0  0  0  0  0  0  0  0  0  0
   38.1990   23.3470   32.8650 O   0  0  0  0  0  0  0  0  0  0  0  0
   36.5900   23.2110   30.7090 F   0  0  0  0  0  0  0  0  0  0  0  0
   36.4190   22.4010   31.7880 C   0  0  0  0  0  0  0  0  0  0  0  0
   37.2080   22.4090   32.9440 C   0  0  0  0  0  0  0  0  0  0  0  0
   36.9000   21.5180   33.9510 C   0  0  0  0  0  0  0  0  0  0  0  0
   37.5460   21.5900   34.7910 H   0  0  0  0  0  0  0  0  0  0  0  0
   35.8550   20.6510   33.8320 C   0  0  0  0  0  0  0  0  0  0  0  0
   35.6730   19.9780   34.6700 H   0  0  0  0  0  0  0  0  0  0  0  0
   35.0900   20.6490   32.7010 C   0  0  0  0  0  3  0  0  0  0  0  0
   35.3490   21.5180   31.6540 C   0  0  0  0  0  3  0  0  0  0  0  0
  2  1  2  6  0  0  0
  2  5  1  0  0  0  0
  3  2  1  0  0  0  0
  4  3  1  0  0  0  0
  5  6  1  0  0  0  0
  6  7  1  0  0  0  0
  7  8  2  0  0  0  0
  7 14  1  0  0  0  0
  8 12  1  0  0  0  0
  9  8  1  0  0  0  0
 10  9  2  0  0  0  0
 11 10  1  0  0  0  0
 11  6  2  0  0  0  0
 13 10  1  0  0  0  0
 14 16  1  0  0  0  0
 14 15  1  0  0  0  0
 17 20  1  0  0  0  0
 17  2  1  0  0  0  0
 18 19  1  0  0  0  0
 19 20  1  0  0  0  0
 20 21  2  0  0  0  0
 21 22  1  0  0  0  0
 23 21  1  0  0  0  0
 23 24  1  0  0  0  0
 25 23  2  0  0  0  0
 26 19  2  0  0  0  0
 26 25  1  0  0  0  0
M  END
>  <minimizedAffinity>
-4.74776649

$$$$

 OpenBabel03272504183D

 26 27  0  0  0  0  0  0  0  0999 V2000
   38.4600   27.0880   36.2910 O   0  0  0  0  0  0  0  0  0  0  0  0
   38.3420   26.2410   35.0450 P   0  0  1  0  0  0  0  0  0  0  0  0
   39.6760   26.4480   34.0390 O   0  0  0  0  0  0  0  0  0  0  0  0
   40.2270   27.2020   34.3900 H   0  0  0  0  0  0  0  0  0  0  0  0
   38.2890   24.5590   35.4430 O   0  0  0  0  0  0  0  0  0  0  0  0
   39.3620   23.8990   36.0220 C   0  0  0  0  0  0  0  0  0  0  0  0
   39.3260   23.0790   37.1500 C   0  0  0  0  0  0  0  0  0  0  0  0
   40.5010   22.5020   37.5860 C   0  0  0  0  0  0  0  0  0  0  0  0
   41.6680   22.7460   36.9050 N   0  0  0  0  0  0  0  0  0  0  0  0
   41.6580   23.5510   35.8130 C   0  0  0  0  0  0  0  0  0  0  0  0
   40.5090   24.1260   35.3710 N   0  0  0  0  0  0  0  0  0  0  0  0
   40.4300   21.8770   38.4570 H   0  0  0  0  0  0  0  0  0  0  0  0
   42.6160   23.6950   35.3310 H   0  0  0  0  0  0  0  0  0  0  0  0
   38.0480   22.9360   37.7260 N   0  0  0  0  0  0  0  0  0  0  0  0
   37.6360   22.0430   38.0780 H   0  0  0  0  0  0  0  0  0  0  0  0
   37.4120   23.7560   37.8380 H   0  0  0  0  0  0  0  0  0  0  0  0
   36.8900   26.6750   34.3210 O   0  0  0  0  0  0  0  0  0  0  0  0
   37.5160   27.0220   31.7230 F   0  0  0  0  0  0  0  0  0  0  0  0
   36.8900   27.9880   32.4480 C   0  0  0  0  0  0  0  0  0  0  0  0
   36.5310   27.8870   33.7980 C   0  0  0  0  0  0  0  0  0  0  0  0
   35.8980   28.9620   34.3870 C   0  0  0  0  0  0  0  0  0  0  0  0
   35.6620   28.8030   35.4100 H   0  0  0  0  0  0  0  0  0  0  0  0
   35.6280   30.0960   33.6810 C   0  0  0  0  0  0  0  0  0  0  0  0
   35.1260   30.9030   34.2150 H   0  0  0  0  0  0  0  0  0  0  0  0
   35.9810   30.1870   32.3650 C   0  0  0  0  0  3  0  0  0  0  0  0
   36.6180   29.1410   31.7170 C   0  0  0  0  0  3  0  0  0  0  0  0
  2  5  1  0  0  0  0
  2  1  2  1  0  0  0
  3  4  1  0  0  0  0
  3  2  1  0  0  0  0
  5  6  1  0  0  0  0
  6  7  1  0  0  0  0
  7  8  2  0  0  0  0
  7 14  1  0  0  0  0
  8 12  1  0  0  0  0
  9  8  1  0  0  0  0
 10  9  2  0  0  0  0
 11 10  1  0  0  0  0
 11  6  2  0  0  0  0
 13 10  1  0  0  0  0
 14 16  1  0  0  0  0
 14 15  1  0  0  0  0
 17  2  1  0  0  0  0
 18 19  1  0  0  0  0
 19 20  1  0  0  0  0
 20 17  1  0  0  0  0
 20 21  2  0  0  0  0
 21 22  1  0  0  0  0
 23 24  1  0  0  0  0
 23 21  1  0  0  0  0
 25 23  2  0  0  0  0
 26 25  1  0  0  0  0
 26 19  2  0  0  0  0
M  END
>  <minimizedAffinity>
-4.72312737

$$$$

 OpenBabel03272504183D

 26 27  0  0  0  0  0  0  0  0999 V2000
   39.7350   24.5850   32.6030 O   0  0  0  0  0  0  0  0  0  0  0  0
   38.7100   25.0900   33.5920 P   0  0  1  0  0  0  0  0  0  0  0  0
   39.2620   26.4600   34.3980 O   0  0  0  0  0  0  0  0  0  0  0  0
   40.2240   26.5970   34.1720 H   0  0  0  0  0  0  0  0  0  0  0  0
   37.2500   25.5540   32.7870 O   0  0  0  0  0  0  0  0  0  0  0  0
   36.7750   26.8550   32.8050 C   0  0  0  0  0  0  0  0  0  0  0  0
   36.4680   27.6470   31.6980 C   0  0  0  0  0  0  0  0  0  0  0  0
   36.0030   28.9280   31.9090 C   0  0  0  0  0  0  0  0  0  0  0  0
   35.8540   29.3910   33.1930 N   0  0  0  0  0  0  0  0  0  0  0  0
   36.1650   28.5880   34.2420 C   0  0  0  0  0  0  0  0  0  0  0  0
   36.6240   27.3230   34.0510 N   0  0  0  0  0  0  0  0  0  0  0  0
   35.7780   29.5040   31.0310 H   0  0  0  0  0  0  0  0  0  0  0  0
   36.0210   29.0240   35.2220 H   0  0  0  0  0  0  0  0  0  0  0  0
   36.6780   27.0170   30.4560 N   0  0  0  0  0  0  0  0  0  0  0  0
   36.0360   27.0630   29.6330 H   0  0  0  0  0  0  0  0  0  0  0  0
   37.5310   26.4410   30.2810 H   0  0  0  0  0  0  0  0  0  0  0  0
   38.3790   23.8020   34.6200 O   0  0  0  0  0  0  0  0  0  0  0  0
   40.4230   22.3430   35.5940 F   0  0  0  0  0  0  0  0  0  0  0  0
   39.5460   22.9880   36.4090 C   0  0  0  0  0  0  0  0  0  0  0  0
   38.4600   23.7640   35.9840 C   0  0  0  0  0  0  0  0  0  0  0  0
   37.6640   24.3540   36.9430 C   0  0  0  0  0  0  0  0  0  0  0  0
   36.8650   24.9230   36.5370 H   0  0  0  0  0  0  0  0  0  0  0  0
   37.9200   24.1890   38.2720 C   0  0  0  0  0  0  0  0  0  0  0  0
   37.2460   24.6860   38.9700 H   0  0  0  0  0  0  0  0  0  0  0  0
   38.9800   23.4320   38.6790 C   0  0  0  0  0  3  0  0  0  0  0  0
   39.8170   22.8140   37.7650 C   0  0  0  0  0  3  0  0  0  0  0  0
  2  1  2  6  0  0  0
  2  3  1  0  0  0  0
  2 17  1  0  0  0  0
  4  3  1  0  0  0  0
  5  6  1  0  0  0  0
  5  2  1  0  0  0  0
  6 11  1  0  0  0  0
  7  8  1  0  0  0  0
  7  6  2  0  0  0  0
  8  9  2  0  0  0  0
  9 10  1  0  0  0  0
 10 13  1  0  0  0  0
 11 10  2  0  0  0  0
 12  8  1  0  0  0  0
 14  7  1  0  0  0  0
 15 14  1  0  0  0  0
 16 14  1  0  0  0  0
 17 20  1  0  0  0  0
 18 19  1  0  0  0  0
 19 26  1  0  0  0  0
 20 19  2  0  0  0  0
 20 21  1  0  0  0  0
 21 23  2  0  0  0  0
 22 21  1  0  0  0  0
 23 25  1  0  0  0  0
 23 24  1  0  0  0  0
 26 25  2  0  0  0  0
M  END
>  <minimizedAffinity>
-4.71122122

$$$$
