
     RDKit          3D

 41 43  0  0  0  0  0  0  0  0999 V2000
   36.0353   29.9490   46.9679 O   0  0  0  0  0  0  0  0  0  0  0  0
   36.0260   30.2345   48.4445 P   0  0  2  0  0  0  0  0  0  0  0  0
   36.7996   28.9150   49.2356 O   0  0  0  0  0  0  0  0  0  0  0  0
   34.4386   30.3672   49.0207 O   0  0  0  0  0  0  0  0  0  0  0  0
   34.1757   29.2373   49.7643 C   0  0  0  0  0  0  0  0  0  0  0  0
   33.3161   28.2566   49.0654 C   0  0  0  0  0  0  0  0  0  0  0  0
   33.9436   27.3766   48.2163 C   0  0  0  0  0  0  0  0  0  0  0  0
   33.1873   26.4258   47.5266 C   0  0  0  0  0  0  0  0  0  0  0  0
   31.8416   26.4312   47.7450 N   0  0  0  0  0  0  0  0  0  0  0  0
   31.2415   27.3069   48.5861 C   0  0  0  0  0  0  0  0  0  0  0  0
   31.9818   28.2255   49.2508 N   0  0  0  0  0  0  0  0  0  0  0  0
   36.8773   31.6560   48.7453 O   0  0  0  0  0  0  0  0  0  0  0  0
   38.8570   32.4702   47.8030 C   0  0  2  0  0  0  0  0  0  0  0  0
   38.2369   31.4680   48.7677 C   0  0  1  0  0  0  0  0  0  0  0  0
   38.8361   32.0126   50.0679 C   0  0  0  0  0  0  0  0  0  0  0  0
   38.4913   33.3477   49.9619 O   0  0  0  0  0  0  0  0  0  0  0  0
   38.6656   33.7392   48.6566 C   0  0  0  0  0  0  0  0  0  0  0  0
   38.0937   32.4898   46.6696 O   0  0  0  0  0  0  0  0  0  0  0  0
   37.5303   28.6480   48.6173 H   0  0  0  0  0  0  0  0  0  0  0  0
   33.6423   29.4800   50.7186 H   0  0  0  0  0  0  0  0  0  0  0  0
   35.0906   28.6912   50.0928 H   0  0  0  0  0  0  0  0  0  0  0  0
   34.9902   27.2951   47.9804 H   0  0  0  0  0  0  0  0  0  0  0  0
   33.5979   25.6975   46.8412 H   0  0  0  0  0  0  0  0  0  0  0  0
   30.1645   27.2268   48.6889 H   0  0  0  0  0  0  0  0  0  0  0  0
   39.9168   32.2982   47.6429 H   0  0  0  0  0  0  0  0  0  0  0  0
   38.5562   30.4304   48.5878 H   0  0  0  0  0  0  0  0  0  0  0  0
   38.2773   31.5280   50.8862 H   0  0  0  0  0  0  0  0  0  0  0  0
   39.9104   31.8133   50.1040 H   0  0  0  0  0  0  0  0  0  0  0  0
   37.8085   34.3226   48.2749 H   0  0  0  0  0  0  0  0  0  0  0  0
   39.5711   34.3619   48.5949 H   0  0  0  0  0  0  0  0  0  0  0  0
   38.7478   29.9382   46.1523 F   0  0  0  0  0  0  0  0  0  0  0  0
   38.9423   30.9444   45.2615 C   0  0  0  0  0  0  0  0  0  0  0  0
   38.6443   32.3027   45.4154 C   0  0  0  0  0  0  0  0  0  0  0  0
   38.9278   33.1504   44.3755 C   0  0  0  0  0  0  0  0  0  0  0  0
   38.6619   34.1586   44.5982 H   0  0  0  0  0  0  0  0  0  0  0  0
   39.4912   32.6617   43.2166 C   0  0  0  0  0  0  0  0  0  0  0  0
   39.6562   33.4600   42.4838 H   0  0  0  0  0  0  0  0  0  0  0  0
   39.7959   31.3231   43.0381 C   0  0  0  0  0  0  0  0  0  0  0  0
   39.5142   30.4662   44.0773 C   0  0  0  0  0  0  0  0  0  0  0  0
   40.2357   31.0502   42.0876 H   0  0  0  0  0  0  0  0  0  0  0  0
   39.7729   29.4369   43.8810 H   0  0  0  0  0  0  0  0  0  0  0  0
  2  1  2  0
  2 12  1  6
  2  4  1  0
  2  3  1  0
  4  5  1  0
  6 11  1  0
  6  5  1  0
  7  6  2  0
  8  9  2  0
  8  7  1  0
  9 10  1  0
 10 11  2  0
 13 18  1  0
 13 17  1  0
 13 14  1  0
 14 12  1  0
 14 15  1  0
 16 15  1  0
 17 16  1  0
  3 19  1  0
  5 20  1  0
  5 21  1  0
  7 22  1  0
  8 23  1  0
 10 24  1  0
 13 25  1  6
 14 26  1  6
 15 27  1  0
 15 28  1  0
 17 29  1  0
 17 30  1  0
 31 32  1  0
 32 33  2  0
 33 34  1  0
 34 35  1  0
 34 36  2  0
 36 37  1  0
 36 38  1  0
 38 39  2  0
 39 32  1  0
 38 40  1  0
 39 41  1  0
 18 33  1  0
M  ISO  8  19   3  20   8  21   8  22  14  23  14  24  14  25  13  26  13
M  ISO  6  27  13  28  13  29  13  30  13  35  15  37  16
M  END
>  <DihAtoms>  (1) 
12,17,32,31

>  <DihDeg>  (1) 
-179.99894394166907

$$$$
