REMARK  Name = 
REMARK  5 active torsions:
REMARK  status: ('A' for Active; 'I' for Inactive)
REMARK    1  A    between atoms: C_3  and  O_7
REMARK    2  A    between atoms: O_7  and  P_9
REMARK    3  A    between atoms: P_9  and  O_10
REMARK    4  A    between atoms: P_9  and  O_11
REMARK    5  A    between atoms: O_11  and  C_18
REMARK                            x       y       z     vdW  Elec       q    Type
REMARK                         _______ _______ _______ _____ _____    ______ ____
ROOT
ATOM      1  O   UNL     1      39.060  32.736  48.137  0.00  0.00    +0.000 OA
ATOM      2  P   UNL     1      38.710  31.720  47.113  0.00  0.00    +0.000 P 
ENDROOT
BRANCH   2   3
ATOM      3  O   UNL     1      37.840  32.462  45.847  0.00  0.00    +0.000 OA
ATOM      4  H   UNL     1      37.124  33.012  46.298  0.00  0.00    +0.000 HD
ENDBRANCH   2   3
BRANCH   2   5
ATOM      5  O   UNL     1      37.844  30.382  47.692  0.00  0.00    +0.000 OA
BRANCH   5   8
ATOM      6  C   UNL     1      37.343  30.161  51.359  0.00  0.00    +0.000 A 
ATOM      7  C   UNL     1      37.993  30.521  50.175  0.00  0.00    +0.000 A 
ATOM      8  C   UNL     1      37.413  30.153  48.963  0.00  0.00    +0.000 A 
ATOM      9  N   UNL     1      36.236  29.458  48.991  0.00  0.00    +0.000 NA
ATOM     10  C   UNL     1      35.640  29.130  50.148  0.00  0.00    +0.000 A 
ATOM     11  N   UNL     1      36.190  29.479  51.328  0.00  0.00    +0.000 NA
ATOM     12  H   UNL     1      37.879  30.496  52.242  0.00  0.00    +0.000 HD
ATOM     13  H   UNL     1      38.894  31.052  50.071  0.00  0.00    +0.000 HD
ATOM     14  H   UNL     1      34.703  28.576  50.181  0.00  0.00    +0.000 HD
ENDBRANCH   5   8
ENDBRANCH   2   5
BRANCH   2  15
ATOM     15  O   UNL     1      40.149  31.169  46.399  0.00  0.00    +0.000 OA
BRANCH  15  18
ATOM     16  F   UNL     1      42.565  30.892  47.553  0.00  0.00    +0.000 F 
ATOM     17  C   UNL     1      42.363  31.770  46.516  0.00  0.00    +0.000 A 
ATOM     18  C   UNL     1      41.136  31.964  45.872  0.00  0.00    +0.000 A 
ATOM     19  C   UNL     1      41.118  32.890  44.847  0.00  0.00    +0.000 A 
ATOM     20  H   UNL     1      40.115  32.971  44.405  0.00  0.00    +0.000 HD
ATOM     21  C   UNL     1      42.245  33.574  44.491  0.00  0.00    +0.000 A 
ATOM     22  H   UNL     1      42.142  34.281  43.678  0.00  0.00    +0.000 HD
ATOM     23  C   UNL     1      43.433  33.382  45.120  0.00  0.00    +0.000 A 
ATOM     24  C   UNL     1      43.500  32.463  46.154  0.00  0.00    +0.000 A 
ENDBRANCH  15  18
ENDBRANCH   2  15
TORSDOF 5
