
 OpenBabel03272510243D

 32 35  0  0  0  0  0  0  0  0999 V2000
   35.9730   30.0820   46.9580 C   0  0  0  0  0  0  0  0  0  0  0  0
   36.8850   30.6420   47.8260 C   0  0  0  0  0  0  0  0  0  0  0  0
   37.8440   31.5080   47.3500 C   0  0  0  0  0  0  0  0  0  0  0  0
   37.8390   31.7790   45.9830 C   0  0  0  0  0  0  0  0  0  0  0  0
   38.6960   32.6070   45.2900 N   0  0  0  0  0  0  0  0  0  0  0  0
   38.3120   32.5520   44.0190 C   0  0  0  0  0  0  0  0  0  0  0  0
   37.2560   31.7340   43.8710 N   0  0  0  0  0  0  0  0  0  0  0  0
   36.9500   31.2440   45.0860 C   0  0  0  0  0  0  0  0  0  0  0  0
   35.9970   30.3750   45.5940 C   0  0  0  0  0  0  0  0  0  0  0  0
   35.2020   29.3930   47.3030 H   0  0  0  0  0  0  0  0  0  0  0  0
   38.5500   31.9410   48.0230 H   0  0  0  0  0  0  0  0  0  0  0  0
   39.4880   33.1500   45.7510 H   0  0  0  0  0  0  0  0  0  0  0  0
   35.2920   29.9460   44.9100 H   0  0  0  0  0  0  0  0  0  0  0  0
   37.5800   30.1830   51.4970 C   0  0  0  0  0  0  0  0  0  0  0  0
   37.7840   30.5750   50.1780 C   0  0  0  0  0  0  0  0  0  0  0  0
   36.8030   30.2920   49.2310 C   0  0  0  0  0  0  0  0  0  0  0  0
   35.6730   29.6350   49.6510 N   0  0  0  0  0  0  0  0  0  0  0  0
   35.5010   29.2650   50.9460 C   0  0  0  0  0  0  0  0  0  0  0  0
   36.4390   29.5350   51.8510 N   0  0  0  0  0  0  0  0  0  0  0  0
   38.3710   30.4300   52.1750 H   0  0  0  0  0  0  0  0  0  0  0  0
   38.6580   31.0830   49.8550 H   0  0  0  0  0  0  0  0  0  0  0  0
   34.6020   28.7480   51.2510 H   0  0  0  0  0  0  0  0  0  0  0  0
   39.0100   33.3030   43.0750 O   0  0  0  0  0  0  0  0  0  0  0  0
   40.2520   31.0610   41.9290 F   0  0  0  0  0  0  0  0  0  0  0  0
   39.6440   31.9210   41.1070 C   0  0  0  0  0  0  0  0  0  0  0  0
   39.0590   32.9930   41.7330 C   0  0  0  0  0  0  0  0  0  0  0  0
   38.3940   33.9590   40.9710 C   0  0  0  0  0  0  0  0  0  0  0  0
   37.8890   34.8550   41.3530 H   0  0  0  0  0  0  0  0  0  0  0  0
   38.3210   33.8410   39.5820 C   0  0  0  0  0  0  0  0  0  0  0  0
   37.8120   34.5730   38.9660 H   0  0  0  0  0  0  0  0  0  0  0  0
   38.9330   32.7320   38.9970 C   0  0  0  0  0  3  0  0  0  0  0  0
   39.5910   31.7730   39.7370 C   0  0  0  0  0  3  0  0  0  0  0  0
  1 10  1  0  0  0  0
  1  2  1  0  0  0  0
  2 16  1  0  0  0  0
  3  2  2  0  0  0  0
  3 11  1  0  0  0  0
  4  3  1  0  0  0  0
  5 12  1  0  0  0  0
  5  4  1  0  0  0  0
  6  5  1  0  0  0  0
  7  6  2  0  0  0  0
  7  8  1  0  0  0  0
  8  9  1  0  0  0  0
  8  4  2  0  0  0  0
  9  1  2  0  0  0  0
 13  9  1  0  0  0  0
 14 19  1  0  0  0  0
 14 20  1  0  0  0  0
 15 14  2  0  0  0  0
 16 17  2  0  0  0  0
 16 15  1  0  0  0  0
 17 18  1  0  0  0  0
 18 22  1  0  0  0  0
 18 19  2  0  0  0  0
 21 15  1  0  0  0  0
 23  6  1  0  0  0  0
 25 26  1  0  0  0  0
 25 24  1  0  0  0  0
 26 23  1  0  0  0  0
 27 28  1  0  0  0  0
 27 26  2  0  0  0  0
 29 27  1  0  0  0  0
 30 29  1  0  0  0  0
 31 29  2  0  0  0  0
 31 32  1  0  0  0  0
 32 25  2  0  0  0  0
M  END
>  <minimizedAffinity>
-5.58691549

>  <minimizedRMSD>
1.77843618

$$$$
