
 OpenBabel03272508193D

 31 33  0  0  0  0  0  0  0  0999 V2000
   34.9240   30.0670   47.8040 C   0  0  0  0  0  0  0  0  0  0  0  0
   36.0890   30.1790   47.0340 C   0  0  0  0  0  0  0  0  0  0  0  0
   35.8250   30.2420   45.6910 C   0  0  0  0  0  0  0  0  0  0  0  0
   34.5840   30.2020   45.1760 N   0  0  0  0  0  0  0  0  0  0  0  0
   33.4900   30.0960   45.9370 C   0  0  0  0  0  0  0  0  0  0  0  0
   33.6640   30.0280   47.2540 N   0  0  0  0  0  0  0  0  0  0  0  0
   36.6440   30.3300   44.9840 H   0  0  0  0  0  0  0  0  0  0  0  0
   32.4590   30.0510   45.6830 H   0  0  0  0  0  0  0  0  0  0  0  0
   35.1120   30.0850   49.3180 C   0  0  0  0  0  0  0  0  0  0  0  0
   34.0860   29.6910   50.2070 C   0  0  0  0  0  0  0  0  0  0  0  0
   35.0600   28.5940   49.8240 C   0  0  0  0  0  0  0  0  0  0  0  0
   36.0810   30.5320   49.6900 H   0  0  0  0  0  0  0  0  0  0  0  0
   34.1340   29.9630   51.2740 H   0  0  0  0  0  0  0  0  0  0  0  0
   33.0230   29.5920   49.8600 H   0  0  0  0  0  0  0  0  0  0  0  0
   35.8300   28.2840   50.5330 H   0  0  0  0  0  0  0  0  0  0  0  0
   34.6370   27.8450   49.1700 H   0  0  0  0  0  0  0  0  0  0  0  0
   37.4200   30.1990   47.6060 C   0  0  0  0  0  0  0  0  0  0  0  0
   37.4190   30.4770   48.6880 H   0  0  0  0  0  0  0  0  0  0  0  0
   37.8160   29.1610   47.5800 H   0  0  0  0  0  0  0  0  0  0  0  0
   38.4130   31.0780   46.9570 C   0  0  0  0  0  0  0  0  0  0  0  0
   39.3570   30.5300   46.7390 H   0  0  0  0  0  0  0  0  0  0  0  0
   38.0680   31.3760   45.9210 H   0  0  0  0  0  0  0  0  0  0  0  0
   40.1280   32.8500   45.7540 F   0  0  0  0  0  0  0  0  0  0  0  0
   39.7010   33.0850   47.0330 C   0  0  0  0  0  0  0  0  0  0  0  0
   38.8330   32.2580   47.7340 C   0  0  0  0  0  0  0  0  0  0  0  0
   38.4850   32.6280   49.0290 C   0  0  0  0  0  0  0  0  0  0  0  0
   37.8230   31.9480   49.5050 H   0  0  0  0  0  0  0  0  0  0  0  0
   38.9940   33.7770   49.5840 C   0  0  0  0  0  0  0  0  0  0  0  0
   38.6940   34.0170   50.5910 H   0  0  0  0  0  0  0  0  0  0  0  0
   39.8650   34.6010   48.8700 C   0  0  0  0  0  0  0  0  0  0  0  0
   40.2110   34.2400   47.5900 C   0  0  0  0  0  0  0  0  0  0  0  0
  1  9  1  0  0  0  0
  2 17  1  0  0  0  0
  2  1  2  0  0  0  0
  3  2  1  0  0  0  0
  4  3  2  0  0  0  0
  4  5  1  0  0  0  0
  5  6  2  0  0  0  0
  6  1  1  0  0  0  0
  7  3  1  0  0  0  0
  8  5  1  0  0  0  0
  9 12  1  0  0  0  0
  9 11  1  0  0  0  0
  9 10  1  0  0  0  0
 10 13  1  0  0  0  0
 11 10  1  0  0  0  0
 11 15  1  0  0  0  0
 14 10  1  0  0  0  0
 16 11  1  0  0  0  0
 17 18  1  0  0  0  0
 19 17  1  0  0  0  0
 20 17  1  0  0  0  0
 20 25  1  0  0  0  0
 21 20  1  0  0  0  0
 22 20  1  0  0  0  0
 23 24  1  0  0  0  0
 24 31  2  0  0  0  0
 24 25  1  0  0  0  0
 25 26  2  0  0  0  0
 26 27  1  0  0  0  0
 26 28  1  0  0  0  0
 28 29  1  0  0  0  0
 30 28  2  0  0  0  0
 31 30  1  0  0  0  0
M  END
>  <minimizedAffinity>
-5.27872467

>  <minimizedRMSD>
3.16262484

$$$$
