
 OpenBabel03272508083D

 24 25  0  0  0  0  0  0  0  0999 V2000
   38.4550   32.9990   48.1710 O   0  0  0  0  0  0  0  0  0  0  0  0
   38.3570   31.7710   47.3420 P   0  0  2  0  0  0  0  0  0  0  0  0
   36.9950   31.8800   46.3200 O   0  0  0  0  0  0  0  0  0  0  0  0
   36.2330   32.1660   46.9170 H   0  0  0  0  0  0  0  0  0  0  0  0
   38.3020   30.3170   48.2120 O   0  0  0  0  0  0  0  0  0  0  0  0
   36.9980   29.9470   51.6630 C   0  0  0  0  0  0  0  0  0  0  0  0
   37.9040   30.3340   50.6710 C   0  0  0  0  0  0  0  0  0  0  0  0
   37.5940   30.0470   49.3440 C   0  0  0  0  0  0  0  0  0  0  0  0
   36.4190   29.4020   49.0750 N   0  0  0  0  0  0  0  0  0  0  0  0
   35.5730   29.0460   50.0540 C   0  0  0  0  0  0  0  0  0  0  0  0
   35.8600   29.3160   51.3430 N   0  0  0  0  0  0  0  0  0  0  0  0
   37.3360   30.2180   52.6590 H   0  0  0  0  0  0  0  0  0  0  0  0
   38.8220   30.8310   50.7960 H   0  0  0  0  0  0  0  0  0  0  0  0
   34.6350   28.5310   49.8520 H   0  0  0  0  0  0  0  0  0  0  0  0
   39.6940   31.7290   46.2960 O   0  0  0  0  0  0  0  0  0  0  0  0
   39.3990   29.4620   44.8760 F   0  0  0  0  0  0  0  0  0  0  0  0
   39.4970   30.6860   44.2590 C   0  0  0  0  0  0  0  0  0  0  0  0
   39.6510   31.9010   44.9350 C   0  0  0  0  0  0  0  0  0  0  0  0
   39.7320   33.0350   44.1510 C   0  0  0  0  0  0  0  0  0  0  0  0
   39.8510   33.9360   44.7700 H   0  0  0  0  0  0  0  0  0  0  0  0
   39.6640   32.9610   42.7890 C   0  0  0  0  0  0  0  0  0  0  0  0
   39.7350   33.8990   42.2520 H   0  0  0  0  0  0  0  0  0  0  0  0
   39.5140   31.7780   42.1390 C   0  0  0  0  0  3  0  0  0  0  0  0
   39.4280   30.6140   42.8820 C   0  0  0  0  0  3  0  0  0  0  0  0
  2  1  2  1  0  0  0
  2  5  1  0  0  0  0
  3  4  1  0  0  0  0
  3  2  1  0  0  0  0
  5  8  1  0  0  0  0
  6 12  1  0  0  0  0
  7 13  1  0  0  0  0
  7  6  2  0  0  0  0
  8  7  1  0  0  0  0
  9  8  2  0  0  0  0
  9 10  1  0  0  0  0
 10 11  2  0  0  0  0
 11  6  1  0  0  0  0
 14 10  1  0  0  0  0
 15  2  1  0  0  0  0
 17 16  1  0  0  0  0
 17 18  1  0  0  0  0
 18 15  1  0  0  0  0
 19 20  1  0  0  0  0
 19 18  2  0  0  0  0
 21 19  1  0  0  0  0
 22 21  1  0  0  0  0
 23 21  2  0  0  0  0
 23 24  1  0  0  0  0
 24 17  2  0  0  0  0
M  END
>  <minimizedAffinity>
-4.9832654

>  <minimizedRMSD>
2.33957624

$$$$
