
 OpenBabel03272510243D

 32 35  0  0  0  0  0  0  0  0999 V2000
   35.9180   30.0980   46.9500 C   0  0  0  0  0  0  0  0  0  0  0  0
   36.8760   30.5930   47.8090 C   0  0  0  0  0  0  0  0  0  0  0  0
   37.8860   31.3920   47.3250 C   0  0  0  0  0  0  0  0  0  0  0  0
   37.8860   31.6650   45.9580 C   0  0  0  0  0  0  0  0  0  0  0  0
   38.7910   32.4340   45.2570 N   0  0  0  0  0  0  0  0  0  0  0  0
   38.3910   32.4070   43.9900 C   0  0  0  0  0  0  0  0  0  0  0  0
   37.2810   31.6630   43.8520 N   0  0  0  0  0  0  0  0  0  0  0  0
   36.9540   31.1940   45.0690 C   0  0  0  0  0  0  0  0  0  0  0  0
   35.9490   30.3910   45.5860 C   0  0  0  0  0  0  0  0  0  0  0  0
   35.1060   29.4630   47.3020 H   0  0  0  0  0  0  0  0  0  0  0  0
   38.6280   31.7740   47.9900 H   0  0  0  0  0  0  0  0  0  0  0  0
   39.6230   32.9210   45.7100 H   0  0  0  0  0  0  0  0  0  0  0  0
   35.2090   30.0120   44.9090 H   0  0  0  0  0  0  0  0  0  0  0  0
   37.5490   30.1370   51.4850 C   0  0  0  0  0  0  0  0  0  0  0  0
   37.7630   30.5230   50.1650 C   0  0  0  0  0  0  0  0  0  0  0  0
   36.7840   30.2460   49.2150 C   0  0  0  0  0  0  0  0  0  0  0  0
   35.6460   29.6010   49.6310 N   0  0  0  0  0  0  0  0  0  0  0  0
   35.4650   29.2350   50.9260 C   0  0  0  0  0  0  0  0  0  0  0  0
   36.4010   29.5000   51.8340 N   0  0  0  0  0  0  0  0  0  0  0  0
   38.3390   30.3780   52.1660 H   0  0  0  0  0  0  0  0  0  0  0  0
   38.6420   31.0230   49.8450 H   0  0  0  0  0  0  0  0  0  0  0  0
   34.5590   28.7270   51.2270 H   0  0  0  0  0  0  0  0  0  0  0  0
   39.1300   33.1100   43.0400 O   0  0  0  0  0  0  0  0  0  0  0  0
   37.9130   34.4930   40.9210 F   0  0  0  0  0  0  0  0  0  0  0  0
   38.6150   33.3970   40.6240 C   0  0  0  0  0  0  0  0  0  0  0  0
   39.1830   32.7700   41.7060 C   0  0  0  0  0  0  0  0  0  0  0  0
   39.9420   31.6110   41.5120 C   0  0  0  0  0  0  0  0  0  0  0  0
   40.4420   31.0260   42.2920 H   0  0  0  0  0  0  0  0  0  0  0  0
   40.1250   31.0890   40.2330 C   0  0  0  0  0  0  0  0  0  0  0  0
   40.7080   30.1930   40.0520 H   0  0  0  0  0  0  0  0  0  0  0  0
   39.5270   31.7650   39.1680 C   0  0  0  0  0  3  0  0  0  0  0  0
   38.7760   32.9070   39.3450 C   0  0  0  0  0  3  0  0  0  0  0  0
  1 10  1  0  0  0  0
  1  2  1  0  0  0  0
  2 16  1  0  0  0  0
  3  2  2  0  0  0  0
  3 11  1  0  0  0  0
  4  3  1  0  0  0  0
  5 12  1  0  0  0  0
  5  4  1  0  0  0  0
  6  5  1  0  0  0  0
  7  6  2  0  0  0  0
  7  8  1  0  0  0  0
  8  9  1  0  0  0  0
  8  4  2  0  0  0  0
  9  1  2  0  0  0  0
 13  9  1  0  0  0  0
 14 19  1  0  0  0  0
 14 20  1  0  0  0  0
 15 14  2  0  0  0  0
 16 17  2  0  0  0  0
 16 15  1  0  0  0  0
 17 18  1  0  0  0  0
 18 22  1  0  0  0  0
 18 19  2  0  0  0  0
 21 15  1  0  0  0  0
 23  6  1  0  0  0  0
 25 24  1  0  0  0  0
 25 26  1  0  0  0  0
 26 23  1  0  0  0  0
 27 26  2  0  0  0  0
 27 28  1  0  0  0  0
 29 27  1  0  0  0  0
 30 29  1  0  0  0  0
 31 32  1  0  0  0  0
 31 29  2  0  0  0  0
 32 25  2  0  0  0  0
M  END
>  <minimizedAffinity>
-5.55431414

>  <minimizedRMSD>
1.94687259

$$$$
