
     RDKit          3D

 26 27  0  0  0  0  0  0  0  0999 V2000
   37.3428   30.1608   51.3586 C   0  0  0  0  0  0  0  0  0  0  0  0
   37.9932   30.5211   50.1746 C   0  0  0  0  0  0  0  0  0  0  0  0
   37.4132   30.1534   48.9632 C   0  0  0  0  0  0  0  0  0  0  0  0
   36.2362   29.4581   48.9913 N   0  0  0  0  0  0  0  0  0  0  0  0
   35.6402   29.1295   50.1485 C   0  0  0  0  0  0  0  0  0  0  0  0
   36.1902   29.4788   51.3284 N   0  0  0  0  0  0  0  0  0  0  0  0
   37.8444   30.3822   47.6921 O   0  0  0  0  0  0  0  0  0  0  0  0
   39.0604   32.7365   48.1371 O   0  0  0  0  0  0  0  0  0  0  0  0
   38.7100   31.7201   47.1127 P   0  0  2  0  0  0  0  0  0  0  0  0
   37.8401   32.4621   45.8475 O   0  0  0  0  0  0  0  0  0  0  0  0
   40.1494   31.1695   46.3991 O   0  0  0  0  0  0  0  0  0  0  0  0
   37.8789   30.4959   52.2421 H   0  0  0  0  0  0  0  0  0  0  0  0
   38.8941   31.0515   50.0714 H   0  0  0  0  0  0  0  0  0  0  0  0
   34.7025   28.5759   50.1811 H   0  0  0  0  0  0  0  0  0  0  0  0
   37.1240   33.0120   46.2985 H   0  0  0  0  0  0  0  0  0  0  0  0
   42.6554   30.4693   47.0849 F   0  0  0  0  0  0  0  0  0  0  0  0
   42.4110   31.5454   46.2674 C   0  0  0  0  0  0  0  0  0  0  0  0
   41.1362   31.9641   45.8720 C   0  0  0  0  0  0  0  0  0  0  0  0
   41.0798   33.0690   45.0454 C   0  0  0  0  0  0  0  0  0  0  0  0
   40.0401   33.3196   44.7905 H   0  0  0  0  0  0  0  0  0  0  0  0
   42.2157   33.7107   44.6419 C   0  0  0  0  0  0  0  0  0  0  0  0
   42.0803   34.5674   43.9949 H   0  0  0  0  0  0  0  0  0  0  0  0
   43.4509   33.2995   45.0291 C   0  0  0  0  0  0  0  0  0  0  0  0
   43.5576   32.1958   45.8581 C   0  0  0  0  0  0  0  0  0  0  0  0
   44.3071   33.8348   44.6865 H   0  0  0  0  0  0  0  0  0  0  0  0
   44.5529   31.8907   46.1507 H   0  0  0  0  0  0  0  0  0  0  0  0
  2  1  2  0
  3  4  2  0
  3  2  1  0
  4  5  1  0
  5  6  2  0
  6  1  1  0
  7  3  1  0
  9  7  1  1
  9  8  2  0
 10  9  1  0
 11  9  1  0
  1 12  1  0
  2 13  1  0
  5 14  1  0
 10 15  1  0
 16 17  1  0
 17 18  2  0
 18 19  1  0
 19 20  1  0
 19 21  2  0
 21 22  1  0
 21 23  1  0
 23 24  2  0
 24 17  1  0
 23 25  1  0
 24 26  1  0
 11 18  1  0
M  ISO  6  12  14  13  14  14  14  15   3  20  15  22  16
M  END
>  <DihAtoms>  (1) 
8,10,17,16

>  <DihDeg>  (1) 
-179.99997175137128

$$$$
