
 OpenBabel03262521083D

 45 47  0  0  1  0  0  0  0  0999 V2000
   39.8080   25.6810   33.8520 C   0  0  2  0  0  0  0  0  0  0  0  0
   39.8550   27.0730   34.2770 C   0  0  0  0  0  0  0  0  0  0  0  0
   39.0680   27.3350   35.5590 C   0  0  0  0  0  0  0  0  0  0  0  0
   37.6320   26.9270   35.4350 C   0  0  0  0  0  0  0  0  0  0  0  0
   37.4180   25.6730   34.6200 C   0  0  0  0  0  0  0  0  0  0  0  0
   38.7120   24.8730   34.4970 C   0  0  2  0  0  0  0  0  0  0  0  0
   39.6080   25.6690   32.7380 H   0  0  0  0  0  0  0  0  0  0  0  0
   40.8440   27.5060   34.4720 H   0  0  0  0  0  0  0  0  0  0  0  0
   39.4020   27.7760   33.5060 H   0  0  0  0  0  0  0  0  0  0  0  0
   39.0920   28.4380   35.6950 H   0  0  0  0  0  0  0  0  0  0  0  0
   39.5930   26.9000   36.4410 H   0  0  0  0  0  0  0  0  0  0  0  0
   37.2780   26.7060   36.4640 H   0  0  0  0  0  0  0  0  0  0  0  0
   36.9910   27.7870   35.0840 H   0  0  0  0  0  0  0  0  0  0  0  0
   37.1590   26.0030   33.5840 H   0  0  0  0  0  0  0  0  0  0  0  0
   36.6360   25.0260   35.0100 H   0  0  0  0  0  0  0  0  0  0  0  0
   38.4560   24.0590   33.7840 H   0  0  0  0  0  0  0  0  0  0  0  0
   41.0530   24.9190   34.0120 C   0  0  0  0  0  0  0  0  0  0  0  0
   42.1010   25.6500   34.5840 C   0  0  0  0  0  0  0  0  0  0  0  0
   43.2950   24.9770   34.7730 C   0  0  0  0  0  0  0  0  0  0  0  0
   43.3990   23.6670   34.4030 N   0  0  0  0  0  0  0  0  0  0  0  0
   42.3670   23.0030   33.8550 C   0  0  0  0  0  0  0  0  0  0  0  0
   41.2510   23.6490   33.6850 N   0  0  0  0  0  0  0  0  0  0  0  0
   42.2540   26.6510   34.9310 H   0  0  0  0  0  0  0  0  0  0  0  0
   44.2220   25.3150   35.1850 H   0  0  0  0  0  0  0  0  0  0  0  0
   42.4660   21.9570   33.5650 H   0  0  0  0  0  0  0  0  0  0  0  0
   38.9400   24.2950   35.7440 N   0  0  0  0  0  0  0  0  0  0  0  0
   39.9220   24.4150   36.0550 H   0  0  0  0  0  0  0  0  0  0  0  0
   38.5030   22.6690   35.9490 S   0  0  1  0  0  0  0  0  0  0  0  0
   37.5630   22.6580   37.1520 O   0  0  0  0  0  0  0  0  0  0  0  0
   37.8420   22.4190   38.0900 H   0  0  0  0  0  0  0  0  0  0  0  0
   37.8310   22.0820   34.8130 O   0  0  0  0  0  0  0  0  0  0  0  0
   35.4900   20.5500   35.0810 F   0  0  0  0  0  0  0  0  0  0  0  0
   35.9600   20.8670   33.8520 C   0  0  0  0  0  0  0  0  0  0  0  0
   37.1160   21.6220   33.8050 C   0  0  0  0  0  0  0  0  0  0  0  0
   37.5620   21.9250   32.5150 C   0  0  0  0  0  0  0  0  0  0  0  0
   38.4720   22.5210   32.3660 H   0  0  0  0  0  0  0  0  0  0  0  0
   36.9360   21.5260   31.3500 C   0  0  0  0  0  0  0  0  0  0  0  0
   37.3210   21.7860   30.3880 H   0  0  0  0  0  0  0  0  0  0  0  0
   35.7880   20.7740   31.5350 C   0  0  0  0  0  3  0  0  0  0  0  0
   35.2590   20.4180   32.7550 C   0  0  0  0  0  3  0  0  0  0  0  0
   39.8100   21.7160   36.4140 O   0  0  0  0  0  0  0  0  0  0  0  0
   40.5730   22.3030   37.4090 C   0  0  0  0  0  0  0  0  0  0  0  0
   39.7550   22.8120   38.3800 F   0  0  0  0  0  0  0  0  0  0  0  0
   41.3290   21.2990   37.9930 F   0  0  0  0  0  0  0  0  0  0  0  0
   41.4780   23.2430   36.9320 F   0  0  0  0  0  0  0  0  0  0  0  0
  1  7  1  6  0  0  0
  1 17  1  0  0  0  0
  1  2  1  0  0  0  0
  1  6  1  0  0  0  0
  2  8  1  0  0  0  0
  2  3  1  0  0  0  0
  3 10  1  0  0  0  0
  3 11  1  0  0  0  0
  4  3  1  0  0  0  0
  4 12  1  0  0  0  0
  5 15  1  0  0  0  0
  5  4  1  0  0  0  0
  6 16  1  6  0  0  0
  6  5  1  0  0  0  0
  6 26  1  0  0  0  0
  9  2  1  0  0  0  0
 13  4  1  0  0  0  0
 14  5  1  0  0  0  0
 17 18  1  0  0  0  0
 18 19  2  0  0  0  0
 18 23  1  0  0  0  0
 19 24  1  0  0  0  0
 20 19  1  0  0  0  0
 21 20  2  0  0  0  0
 22 21  1  0  0  0  0
 22 17  2  0  0  0  0
 25 21  1  0  0  0  0
 26 28  1  0  0  0  0
 26 27  1  0  0  0  0
 28 31  1  6  0  0  0
 28 41  1  0  0  0  0
 28 29  1  0  0  0  0
 29 30  1  0  0  0  0
 33 32  1  0  0  0  0
 34 33  1  0  0  0  0
 34 31  1  0  0  0  0
 35 34  2  0  0  0  0
 36 35  1  0  0  0  0
 37 39  2  0  0  0  0
 37 35  1  0  0  0  0
 38 37  1  0  0  0  0
 39 40  1  0  0  0  0
 40 33  2  0  0  0  0
 41 42  1  0  0  0  0
 42 44  1  0  0  0  0
 42 43  1  0  0  0  0
 45 42  1  0  0  0  0
M  END
>  <minimizedAffinity>
-6.19787073

$$$$

 OpenBabel03262521083D

 45 47  0  0  1  0  0  0  0  0999 V2000
   38.8990   26.2850   34.8150 C   0  0  2  0  0  0  0  0  0  0  0  0
   38.1950   27.3930   35.4470 C   0  0  0  0  0  0  0  0  0  0  0  0
   36.8870   27.7490   34.7430 C   0  0  0  0  0  0  0  0  0  0  0  0
   37.0950   28.0850   33.2980 C   0  0  0  0  0  0  0  0  0  0  0  0
   38.1520   27.2460   32.6190 C   0  0  0  0  0  0  0  0  0  0  0  0
   38.4370   25.9750   33.4150 C   0  0  2  0  0  0  0  0  0  0  0  0
   39.9920   26.5720   34.7410 H   0  0  0  0  0  0  0  0  0  0  0  0
   37.9120   27.2730   36.5000 H   0  0  0  0  0  0  0  0  0  0  0  0
   38.8030   28.3530   35.4390 H   0  0  0  0  0  0  0  0  0  0  0  0
   36.5250   28.6700   35.2520 H   0  0  0  0  0  0  0  0  0  0  0  0
   36.1140   26.9670   34.9250 H   0  0  0  0  0  0  0  0  0  0  0  0
   36.1350   27.8690   32.7840 H   0  0  0  0  0  0  0  0  0  0  0  0
   37.2610   29.1910   33.1540 H   0  0  0  0  0  0  0  0  0  0  0  0
   39.0980   27.8420   32.6400 H   0  0  0  0  0  0  0  0  0  0  0  0
   37.9060   26.9770   31.5950 H   0  0  0  0  0  0  0  0  0  0  0  0
   39.3040   25.5180   32.8890 H   0  0  0  0  0  0  0  0  0  0  0  0
   38.8990   25.0180   35.5570 C   0  0  0  0  0  0  0  0  0  0  0  0
   38.2070   25.0680   36.7730 C   0  0  0  0  0  0  0  0  0  0  0  0
   38.1610   23.8970   37.5080 C   0  0  0  0  0  0  0  0  0  0  0  0
   38.7750   22.7740   37.0320 N   0  0  0  0  0  0  0  0  0  0  0  0
   39.4310   22.7710   35.8590 C   0  0  0  0  0  0  0  0  0  0  0  0
   39.4650   23.8800   35.1790 N   0  0  0  0  0  0  0  0  0  0  0  0
   37.6760   25.8060   37.3370 H   0  0  0  0  0  0  0  0  0  0  0  0
   37.6990   23.6890   38.4500 H   0  0  0  0  0  0  0  0  0  0  0  0
   39.9180   21.8680   35.4930 H   0  0  0  0  0  0  0  0  0  0  0  0
   37.3360   25.1400   33.2330 N   0  0  0  0  0  0  0  0  0  0  0  0
   37.1530   24.5520   34.0680 H   0  0  0  0  0  0  0  0  0  0  0  0
   37.3210   24.1470   31.8590 S   0  0  1  0  0  0  0  0  0  0  0  0
   38.7600   24.1470   31.3510 O   0  0  0  0  0  0  0  0  0  0  0  0
   39.0980   24.7240   30.5970 H   0  0  0  0  0  0  0  0  0  0  0  0
   36.9030   22.7870   32.1080 O   0  0  0  0  0  0  0  0  0  0  0  0
   36.3110   21.5190   34.5460 F   0  0  0  0  0  0  0  0  0  0  0  0
   36.1400   20.8600   33.3760 C   0  0  0  0  0  0  0  0  0  0  0  0
   36.4530   21.5520   32.2230 C   0  0  0  0  0  0  0  0  0  0  0  0
   36.2600   20.8300   31.0400 C   0  0  0  0  0  0  0  0  0  0  0  0
   36.4790   21.2880   30.0670 H   0  0  0  0  0  0  0  0  0  0  0  0
   35.7960   19.5310   30.9760 C   0  0  0  0  0  0  0  0  0  0  0  0
   35.6680   19.0260   30.0440 H   0  0  0  0  0  0  0  0  0  0  0  0
   35.5200   18.9510   32.2030 C   0  0  0  0  0  3  0  0  0  0  0  0
   35.6730   19.5660   33.4250 C   0  0  0  0  0  3  0  0  0  0  0  0
   36.4210   24.8160   30.6040 O   0  0  0  0  0  0  0  0  0  0  0  0
   35.1250   25.1240   30.9800 C   0  0  0  0  0  0  0  0  0  0  0  0
   35.0770   26.4010   31.4710 F   0  0  0  0  0  0  0  0  0  0  0  0
   34.3470   25.0960   29.8340 F   0  0  0  0  0  0  0  0  0  0  0  0
   34.5650   24.2000   31.8530 F   0  0  0  0  0  0  0  0  0  0  0  0
  1  7  1  6  0  0  0
  1  2  1  0  0  0  0
  1 17  1  0  0  0  0
  2  8  1  0  0  0  0
  3 11  1  0  0  0  0
  3 10  1  0  0  0  0
  3  2  1  0  0  0  0
  4  3  1  0  0  0  0
  5 14  1  0  0  0  0
  5  4  1  0  0  0  0
  5  6  1  0  0  0  0
  6 16  1  6  0  0  0
  6  1  1  0  0  0  0
  9  2  1  0  0  0  0
 12  4  1  0  0  0  0
 13  4  1  0  0  0  0
 15  5  1  0  0  0  0
 17 18  1  0  0  0  0
 18 23  1  0  0  0  0
 18 19  2  0  0  0  0
 19 24  1  0  0  0  0
 20 19  1  0  0  0  0
 21 20  2  0  0  0  0
 22 17  2  0  0  0  0
 22 21  1  0  0  0  0
 25 21  1  0  0  0  0
 26  6  1  0  0  0  0
 26 27  1  0  0  0  0
 28 41  1  6  0  0  0
 28 31  1  0  0  0  0
 28 26  1  0  0  0  0
 29 28  1  0  0  0  0
 30 29  1  0  0  0  0
 31 34  1  0  0  0  0
 33 40  1  0  0  0  0
 33 32  1  0  0  0  0
 34 33  2  0  0  0  0
 35 34  1  0  0  0  0
 36 35  1  0  0  0  0
 37 35  2  0  0  0  0
 37 39  1  0  0  0  0
 38 37  1  0  0  0  0
 39 40  2  0  0  0  0
 41 42  1  0  0  0  0
 42 43  1  0  0  0  0
 42 45  1  0  0  0  0
 44 42  1  0  0  0  0
M  END
>  <minimizedAffinity>
-6.07006836

$$$$

 OpenBabel03262521083D

 45 47  0  0  1  0  0  0  0  0999 V2000
   37.6350   25.9710   33.5910 C   0  0  2  0  0  0  0  0  0  0  0  0
   38.5260   27.1190   33.4830 C   0  0  0  0  0  0  0  0  0  0  0  0
   39.6940   27.0660   34.4640 C   0  0  0  0  0  0  0  0  0  0  0  0
   39.2350   26.9580   35.8850 C   0  0  0  0  0  0  0  0  0  0  0  0
   38.0090   26.0940   36.0710 C   0  0  0  0  0  0  0  0  0  0  0  0
   37.7950   25.1830   34.8650 C   0  0  2  0  0  0  0  0  0  0  0  0
   36.5720   26.3600   33.5800 H   0  0  0  0  0  0  0  0  0  0  0  0
   38.9970   27.2990   32.5080 H   0  0  0  0  0  0  0  0  0  0  0  0
   37.9960   28.0990   33.7100 H   0  0  0  0  0  0  0  0  0  0  0  0
   40.2120   28.0440   34.3520 H   0  0  0  0  0  0  0  0  0  0  0  0
   40.4300   26.2860   34.1600 H   0  0  0  0  0  0  0  0  0  0  0  0
   40.0600   26.4690   36.4460 H   0  0  0  0  0  0  0  0  0  0  0  0
   39.1230   27.9760   36.3580 H   0  0  0  0  0  0  0  0  0  0  0  0
   37.1300   26.7840   36.0970 H   0  0  0  0  0  0  0  0  0  0  0  0
   38.0330   25.4890   36.9740 H   0  0  0  0  0  0  0  0  0  0  0  0
   36.8130   24.7010   35.0650 H   0  0  0  0  0  0  0  0  0  0  0  0
   37.6890   25.0100   32.4830 C   0  0  0  0  0  0  0  0  0  0  0  0
   36.4350   24.6720   31.9590 C   0  0  0  0  0  0  0  0  0  0  0  0
   36.4270   23.7810   30.9010 C   0  0  0  0  0  0  0  0  0  0  0  0
   37.6050   23.2810   30.4260 N   0  0  0  0  0  0  0  0  0  0  0  0
   38.7880   23.6320   30.9610 C   0  0  0  0  0  0  0  0  0  0  0  0
   38.7800   24.4710   31.9540 N   0  0  0  0  0  0  0  0  0  0  0  0
   35.4140   24.9170   32.1630 H   0  0  0  0  0  0  0  0  0  0  0  0
   35.6080   23.3790   30.3420 H   0  0  0  0  0  0  0  0  0  0  0  0
   39.7200   23.2230   30.5720 H   0  0  0  0  0  0  0  0  0  0  0  0
   38.7780   24.1970   34.9340 N   0  0  0  0  0  0  0  0  0  0  0  0
   39.3060   24.1120   34.0460 H   0  0  0  0  0  0  0  0  0  0  0  0
   38.3030   22.6470   35.4300 S   0  0  1  0  0  0  0  0  0  0  0  0
   37.2320   22.8780   36.4940 O   0  0  0  0  0  0  0  0  0  0  0  0
   37.4000   22.8490   37.4860 H   0  0  0  0  0  0  0  0  0  0  0  0
   37.7590   21.8210   34.3760 O   0  0  0  0  0  0  0  0  0  0  0  0
   39.1110   20.3940   32.3680 F   0  0  0  0  0  0  0  0  0  0  0  0
   37.7590   20.4370   32.3800 C   0  0  0  0  0  0  0  0  0  0  0  0
   37.1700   21.1600   33.3990 C   0  0  0  0  0  0  0  0  0  0  0  0
   35.7710   21.1760   33.3690 C   0  0  0  0  0  0  0  0  0  0  0  0
   35.2050   21.7210   34.1350 H   0  0  0  0  0  0  0  0  0  0  0  0
   34.9950   20.5380   32.4220 C   0  0  0  0  0  0  0  0  0  0  0  0
   33.9290   20.5830   32.4460 H   0  0  0  0  0  0  0  0  0  0  0  0
   35.7090   19.8490   31.4540 C   0  0  0  0  0  3  0  0  0  0  0  0
   37.0810   19.7670   31.3870 C   0  0  0  0  0  3  0  0  0  0  0  0
   39.5380   21.8330   36.2330 O   0  0  0  0  0  0  0  0  0  0  0  0
   40.2640   22.6570   37.0750 C   0  0  0  0  0  0  0  0  0  0  0  0
   39.4110   23.3450   37.8950 F   0  0  0  0  0  0  0  0  0  0  0  0
   41.0400   21.8410   37.8820 F   0  0  0  0  0  0  0  0  0  0  0  0
   41.1470   23.4950   36.4060 F   0  0  0  0  0  0  0  0  0  0  0  0
  1  7  1  1  0  0  0
  1  6  1  0  0  0  0
  2  1  1  0  0  0  0
  2  9  1  0  0  0  0
  2  3  1  0  0  0  0
  3  4  1  0  0  0  0
  4  5  1  0  0  0  0
  4 13  1  0  0  0  0
  4 12  1  0  0  0  0
  5 14  1  0  0  0  0
  5 15  1  0  0  0  0
  6 26  1  0  0  0  0
  6 16  1  1  0  0  0
  6  5  1  0  0  0  0
  8  2  1  0  0  0  0
 10  3  1  0  0  0  0
 11  3  1  0  0  0  0
 17  1  1  0  0  0  0
 18 23  1  0  0  0  0
 18 17  1  0  0  0  0
 19 18  2  0  0  0  0
 20 19  1  0  0  0  0
 20 21  2  0  0  0  0
 21 22  1  0  0  0  0
 22 17  2  0  0  0  0
 24 19  1  0  0  0  0
 25 21  1  0  0  0  0
 26 28  1  0  0  0  0
 27 26  1  0  0  0  0
 28 31  1  6  0  0  0
 28 41  1  0  0  0  0
 28 29  1  0  0  0  0
 29 30  1  0  0  0  0
 32 33  1  0  0  0  0
 33 34  1  0  0  0  0
 34 31  1  0  0  0  0
 35 34  2  0  0  0  0
 35 36  1  0  0  0  0
 37 38  1  0  0  0  0
 37 35  1  0  0  0  0
 39 37  2  0  0  0  0
 40 39  1  0  0  0  0
 40 33  2  0  0  0  0
 41 42  1  0  0  0  0
 42 44  1  0  0  0  0
 42 43  1  0  0  0  0
 45 42  1  0  0  0  0
M  END
>  <minimizedAffinity>
-5.74468136

$$$$

 OpenBabel03262521083D

 45 47  0  0  1  0  0  0  0  0999 V2000
   40.9070   26.7620   34.4360 C   0  0  2  0  0  0  0  0  0  0  0  0
   41.7240   27.1790   33.3050 C   0  0  0  0  0  0  0  0  0  0  0  0
   42.3320   26.0060   32.5400 C   0  0  0  0  0  0  0  0  0  0  0  0
   43.1620   25.1250   33.4220 C   0  0  0  0  0  0  0  0  0  0  0  0
   42.6060   24.9530   34.8170 C   0  0  0  0  0  0  0  0  0  0  0  0
   41.1300   25.3360   34.8680 C   0  0  2  0  0  0  0  0  0  0  0  0
   41.1820   27.4160   35.3170 H   0  0  0  0  0  0  0  0  0  0  0  0
   41.2380   27.7860   32.5300 H   0  0  0  0  0  0  0  0  0  0  0  0
   42.6120   27.8130   33.6240 H   0  0  0  0  0  0  0  0  0  0  0  0
   43.0140   26.4680   31.7920 H   0  0  0  0  0  0  0  0  0  0  0  0
   41.5500   25.4650   31.9580 H   0  0  0  0  0  0  0  0  0  0  0  0
   43.1620   24.1180   32.9510 H   0  0  0  0  0  0  0  0  0  0  0  0
   44.2430   25.4460   33.4230 H   0  0  0  0  0  0  0  0  0  0  0  0
   43.1380   25.6900   35.4680 H   0  0  0  0  0  0  0  0  0  0  0  0
   42.7280   23.9500   35.2160 H   0  0  0  0  0  0  0  0  0  0  0  0
   40.8780   25.2890   35.9500 H   0  0  0  0  0  0  0  0  0  0  0  0
   39.4580   26.9410   34.2810 C   0  0  0  0  0  0  0  0  0  0  0  0
   38.8010   27.3230   35.4580 C   0  0  0  0  0  0  0  0  0  0  0  0
   37.4350   27.5210   35.3670 C   0  0  0  0  0  0  0  0  0  0  0  0
   36.8020   27.3410   34.1710 N   0  0  0  0  0  0  0  0  0  0  0  0
   37.4720   26.9720   33.0660 C   0  0  0  0  0  0  0  0  0  0  0  0
   38.7560   26.7900   33.1660 N   0  0  0  0  0  0  0  0  0  0  0  0
   39.0710   27.5080   36.4760 H   0  0  0  0  0  0  0  0  0  0  0  0
   36.7270   27.8120   36.1150 H   0  0  0  0  0  0  0  0  0  0  0  0
   36.9520   26.8310   32.1180 H   0  0  0  0  0  0  0  0  0  0  0  0
   40.4340   24.3150   34.2220 N   0  0  0  0  0  0  0  0  0  0  0  0
   39.7470   24.6840   33.5390 H   0  0  0  0  0  0  0  0  0  0  0  0
   39.6650   23.1540   35.1890 S   0  0  1  0  0  0  0  0  0  0  0  0
   39.2290   23.9050   36.4440 O   0  0  0  0  0  0  0  0  0  0  0  0
   39.7350   23.9010   37.3150 H   0  0  0  0  0  0  0  0  0  0  0  0
   38.5100   22.5360   34.5780 O   0  0  0  0  0  0  0  0  0  0  0  0
   36.4590   20.9930   35.7230 F   0  0  0  0  0  0  0  0  0  0  0  0
   36.4740   21.2240   34.3900 C   0  0  0  0  0  0  0  0  0  0  0  0
   37.5160   21.9900   33.9050 C   0  0  0  0  0  0  0  0  0  0  0  0
   37.4890   22.2020   32.5230 C   0  0  0  0  0  0  0  0  0  0  0  0
   38.2720   22.7980   32.0360 H   0  0  0  0  0  0  0  0  0  0  0  0
   36.5240   21.7080   31.6670 C   0  0  0  0  0  0  0  0  0  0  0  0
   36.5520   21.9000   30.6180 H   0  0  0  0  0  0  0  0  0  0  0  0
   35.5350   20.9540   32.2800 C   0  0  0  0  0  3  0  0  0  0  0  0
   35.4630   20.6830   33.6270 C   0  0  0  0  0  3  0  0  0  0  0  0
   40.7360   21.9780   35.7410 O   0  0  0  0  0  0  0  0  0  0  0  0
   41.0130   22.0980   37.0910 C   0  0  0  0  0  0  0  0  0  0  0  0
   41.6780   23.2710   37.3240 F   0  0  0  0  0  0  0  0  0  0  0  0
   39.7990   22.1760   37.7550 F   0  0  0  0  0  0  0  0  0  0  0  0
   41.6750   20.9980   37.6220 F   0  0  0  0  0  0  0  0  0  0  0  0
  1  6  1  0  0  0  0
  1  7  1  1  0  0  0
  2  9  1  0  0  0  0
  2  1  1  0  0  0  0
  3  2  1  0  0  0  0
  3  4  1  0  0  0  0
  4 13  1  0  0  0  0
  4  5  1  0  0  0  0
  5  6  1  0  0  0  0
  5 15  1  0  0  0  0
  5 14  1  0  0  0  0
  6 16  1  1  0  0  0
  8  2  1  0  0  0  0
 10  3  1  0  0  0  0
 11  3  1  0  0  0  0
 12  4  1  0  0  0  0
 17  1  1  0  0  0  0
 17 18  1  0  0  0  0
 18 23  1  0  0  0  0
 19 18  2  0  0  0  0
 19 24  1  0  0  0  0
 20 19  1  0  0  0  0
 21 22  1  0  0  0  0
 21 20  2  0  0  0  0
 22 17  2  0  0  0  0
 25 21  1  0  0  0  0
 26  6  1  0  0  0  0
 26 28  1  0  0  0  0
 27 26  1  0  0  0  0
 28 31  1  6  0  0  0
 28 41  1  0  0  0  0
 28 29  1  0  0  0  0
 29 30  1  0  0  0  0
 33 32  1  0  0  0  0
 34 33  1  0  0  0  0
 34 31  1  0  0  0  0
 35 34  2  0  0  0  0
 36 35  1  0  0  0  0
 37 39  2  0  0  0  0
 37 35  1  0  0  0  0
 38 37  1  0  0  0  0
 39 40  1  0  0  0  0
 40 33  2  0  0  0  0
 41 42  1  0  0  0  0
 42 43  1  0  0  0  0
 42 45  1  0  0  0  0
 42 44  1  0  0  0  0
M  END
>  <minimizedAffinity>
-5.60911703

$$$$

 OpenBabel03262521083D

 45 47  0  0  1  0  0  0  0  0999 V2000
   40.6820   22.3020   35.7150 C   0  0  2  0  0  0  0  0  0  0  0  0
   41.9730   21.9780   36.3080 C   0  0  0  0  0  0  0  0  0  0  0  0
   43.0370   23.0390   36.0390 C   0  0  0  0  0  0  0  0  0  0  0  0
   43.2380   23.2810   34.5750 C   0  0  0  0  0  0  0  0  0  0  0  0
   41.9660   23.2180   33.7620 C   0  0  0  0  0  0  0  0  0  0  0  0
   40.7380   23.3710   34.6550 C   0  0  2  0  0  0  0  0  0  0  0  0
   40.2910   21.3660   35.2130 H   0  0  0  0  0  0  0  0  0  0  0  0
   42.0040   21.8320   37.3950 H   0  0  0  0  0  0  0  0  0  0  0  0
   42.4080   21.0140   35.8940 H   0  0  0  0  0  0  0  0  0  0  0  0
   43.9820   22.6100   36.4400 H   0  0  0  0  0  0  0  0  0  0  0  0
   42.8360   23.9610   36.6330 H   0  0  0  0  0  0  0  0  0  0  0  0
   43.6290   24.3170   34.4780 H   0  0  0  0  0  0  0  0  0  0  0  0
   44.0520   22.6220   34.1580 H   0  0  0  0  0  0  0  0  0  0  0  0
   41.9090   22.1870   33.3330 H   0  0  0  0  0  0  0  0  0  0  0  0
   41.9190   23.9540   32.9630 H   0  0  0  0  0  0  0  0  0  0  0  0
   39.8830   23.1830   33.9690 H   0  0  0  0  0  0  0  0  0  0  0  0
   39.6220   22.6860   36.6560 C   0  0  0  0  0  0  0  0  0  0  0  0
   38.3250   22.5310   36.1500 C   0  0  0  0  0  0  0  0  0  0  0  0
   37.2860   22.8640   37.0000 C   0  0  0  0  0  0  0  0  0  0  0  0
   37.5580   23.3180   38.2580 N   0  0  0  0  0  0  0  0  0  0  0  0
   38.8190   23.4540   38.7020 C   0  0  0  0  0  0  0  0  0  0  0  0
   39.7860   23.1360   37.8930 N   0  0  0  0  0  0  0  0  0  0  0  0
   37.8810   22.2150   35.2290 H   0  0  0  0  0  0  0  0  0  0  0  0
   36.2280   22.8290   36.8440 H   0  0  0  0  0  0  0  0  0  0  0  0
   39.0200   23.8200   39.7090 H   0  0  0  0  0  0  0  0  0  0  0  0
   40.6920   24.7100   35.0390 N   0  0  0  0  0  0  0  0  0  0  0  0
   40.6670   24.8180   36.0700 H   0  0  0  0  0  0  0  0  0  0  0  0
   39.4770   25.6810   34.3640 S   0  0  1  0  0  0  0  0  0  0  0  0
   40.2060   26.6360   33.4230 O   0  0  0  0  0  0  0  0  0  0  0  0
   40.4570   27.5840   33.6560 H   0  0  0  0  0  0  0  0  0  0  0  0
   38.4730   24.9540   33.6220 O   0  0  0  0  0  0  0  0  0  0  0  0
   36.6620   26.3280   31.9690 F   0  0  0  0  0  0  0  0  0  0  0  0
   36.6550   24.9750   32.0090 C   0  0  0  0  0  0  0  0  0  0  0  0
   37.5760   24.3750   32.8470 C   0  0  0  0  0  0  0  0  0  0  0  0
   37.5310   22.9770   32.8550 C   0  0  0  0  0  0  0  0  0  0  0  0
   38.2210   22.4030   33.4870 H   0  0  0  0  0  0  0  0  0  0  0  0
   36.6590   22.2120   32.1070 C   0  0  0  0  0  0  0  0  0  0  0  0
   36.6670   21.1450   32.1520 H   0  0  0  0  0  0  0  0  0  0  0  0
   35.7870   22.9360   31.3100 C   0  0  0  0  0  3  0  0  0  0  0  0
   35.7430   24.3090   31.2240 C   0  0  0  0  0  3  0  0  0  0  0  0
   38.7510   26.6760   35.5110 O   0  0  0  0  0  0  0  0  0  0  0  0
   37.7090   27.4220   34.9900 C   0  0  0  0  0  0  0  0  0  0  0  0
   37.9580   27.7100   33.6760 F   0  0  0  0  0  0  0  0  0  0  0  0
   36.5750   26.6270   35.0270 F   0  0  0  0  0  0  0  0  0  0  0  0
   37.4120   28.5570   35.7330 F   0  0  0  0  0  0  0  0  0  0  0  0
  1  7  1  6  0  0  0
  1  2  1  0  0  0  0
  1 17  1  0  0  0  0
  2  8  1  0  0  0  0
  3  2  1  0  0  0  0
  3 10  1  0  0  0  0
  3 11  1  0  0  0  0
  4  3  1  0  0  0  0
  5  4  1  0  0  0  0
  5  6  1  0  0  0  0
  6 16  1  6  0  0  0
  6 26  1  0  0  0  0
  6  1  1  0  0  0  0
  9  2  1  0  0  0  0
 12  4  1  0  0  0  0
 13  4  1  0  0  0  0
 14  5  1  0  0  0  0
 15  5  1  0  0  0  0
 17 22  1  0  0  0  0
 18 17  2  0  0  0  0
 18 19  1  0  0  0  0
 19 20  2  0  0  0  0
 20 21  1  0  0  0  0
 21 25  1  0  0  0  0
 22 21  2  0  0  0  0
 23 18  1  0  0  0  0
 24 19  1  0  0  0  0
 26 27  1  0  0  0  0
 28 29  1  6  0  0  0
 28 26  1  0  0  0  0
 28 41  1  0  0  0  0
 29 30  1  0  0  0  0
 31 28  1  0  0  0  0
 32 33  1  0  0  0  0
 33 34  1  0  0  0  0
 34 35  2  0  0  0  0
 34 31  1  0  0  0  0
 35 36  1  0  0  0  0
 37 38  1  0  0  0  0
 37 35  1  0  0  0  0
 39 37  2  0  0  0  0
 40 39  1  0  0  0  0
 40 33  2  0  0  0  0
 42 44  1  0  0  0  0
 42 41  1  0  0  0  0
 42 45  1  0  0  0  0
 43 42  1  0  0  0  0
M  END
>  <minimizedAffinity>
-5.52948856

$$$$

 OpenBabel03262521083D

 45 47  0  0  1  0  0  0  0  0999 V2000
   39.0730   26.1910   35.1070 C   0  0  2  0  0  0  0  0  0  0  0  0
   38.0890   27.2440   35.3210 C   0  0  0  0  0  0  0  0  0  0  0  0
   37.0180   27.2920   34.2350 C   0  0  0  0  0  0  0  0  0  0  0  0
   37.6060   27.4670   32.8680 C   0  0  0  0  0  0  0  0  0  0  0  0
   38.9070   26.7280   32.6600 C   0  0  0  0  0  0  0  0  0  0  0  0
   39.0880   25.6330   33.7070 C   0  0  2  0  0  0  0  0  0  0  0  0
   40.0970   26.6370   35.2900 H   0  0  0  0  0  0  0  0  0  0  0  0
   37.5220   27.2170   36.2600 H   0  0  0  0  0  0  0  0  0  0  0  0
   38.5570   28.2790   35.3180 H   0  0  0  0  0  0  0  0  0  0  0  0
   36.4170   28.2000   34.4590 H   0  0  0  0  0  0  0  0  0  0  0  0
   36.3220   26.4260   34.3260 H   0  0  0  0  0  0  0  0  0  0  0  0
   36.8730   27.0350   32.1530 H   0  0  0  0  0  0  0  0  0  0  0  0
   37.6770   28.5570   32.5890 H   0  0  0  0  0  0  0  0  0  0  0  0
   39.7280   27.4650   32.8390 H   0  0  0  0  0  0  0  0  0  0  0  0
   39.0090   26.2930   31.6690 H   0  0  0  0  0  0  0  0  0  0  0  0
   40.1180   25.2570   33.5260 H   0  0  0  0  0  0  0  0  0  0  0  0
   39.0000   25.0470   36.0240 C   0  0  0  0  0  0  0  0  0  0  0  0
   37.9780   25.1430   36.9760 C   0  0  0  0  0  0  0  0  0  0  0  0
   37.8520   24.0840   37.8580 C   0  0  0  0  0  0  0  0  0  0  0  0
   38.7050   23.0220   37.7670 N   0  0  0  0  0  0  0  0  0  0  0  0
   39.6740   22.9720   36.8370 C   0  0  0  0  0  0  0  0  0  0  0  0
   39.7790   23.9740   36.0150 N   0  0  0  0  0  0  0  0  0  0  0  0
   37.2220   25.8530   37.2390 H   0  0  0  0  0  0  0  0  0  0  0  0
   37.1590   23.9300   38.6590 H   0  0  0  0  0  0  0  0  0  0  0  0
   40.3480   22.1170   36.7780 H   0  0  0  0  0  0  0  0  0  0  0  0
   38.1960   24.6160   33.3740 N   0  0  0  0  0  0  0  0  0  0  0  0
   37.6670   24.2760   34.1990 H   0  0  0  0  0  0  0  0  0  0  0  0
   38.8090   23.2740   32.5370 S   0  0  1  0  0  0  0  0  0  0  0  0
   39.9680   22.7670   33.3920 O   0  0  0  0  0  0  0  0  0  0  0  0
   40.9380   22.9770   33.2190 H   0  0  0  0  0  0  0  0  0  0  0  0
   37.8580   22.2050   32.3390 O   0  0  0  0  0  0  0  0  0  0  0  0
   35.1140   22.7840   32.1420 F   0  0  0  0  0  0  0  0  0  0  0  0
   35.5430   21.5000   32.1290 C   0  0  0  0  0  0  0  0  0  0  0  0
   36.9060   21.2990   32.2310 C   0  0  0  0  0  0  0  0  0  0  0  0
   37.3000   19.9580   32.2140 C   0  0  0  0  0  0  0  0  0  0  0  0
   38.3620   19.6890   32.2880 H   0  0  0  0  0  0  0  0  0  0  0  0
   36.4390   18.8830   32.1050 C   0  0  0  0  0  0  0  0  0  0  0  0
   36.7940   17.8770   32.0970 H   0  0  0  0  0  0  0  0  0  0  0  0
   35.0980   19.2210   32.0110 C   0  0  0  0  0  3  0  0  0  0  0  0
   34.5990   20.5030   32.0180 C   0  0  0  0  0  3  0  0  0  0  0  0
   39.5140   23.7100   31.0720 O   0  0  0  0  0  0  0  0  0  0  0  0
   38.5910   23.8180   30.0450 C   0  0  0  0  0  0  0  0  0  0  0  0
   39.0790   24.6430   29.0700 F   0  0  0  0  0  0  0  0  0  0  0  0
   38.4500   22.5590   29.4860 F   0  0  0  0  0  0  0  0  0  0  0  0
   37.3250   24.1960   30.4740 F   0  0  0  0  0  0  0  0  0  0  0  0
  1  7  1  1  0  0  0
  1  2  1  0  0  0  0
  1 17  1  0  0  0  0
  2  8  1  0  0  0  0
  3 11  1  0  0  0  0
  3 10  1  0  0  0  0
  3  2  1  0  0  0  0
  4  3  1  0  0  0  0
  5 14  1  0  0  0  0
  5  4  1  0  0  0  0
  5  6  1  0  0  0  0
  6 16  1  6  0  0  0
  6  1  1  0  0  0  0
  9  2  1  0  0  0  0
 12  4  1  0  0  0  0
 13  4  1  0  0  0  0
 15  5  1  0  0  0  0
 17 18  1  0  0  0  0
 18 23  1  0  0  0  0
 18 19  2  0  0  0  0
 19 24  1  0  0  0  0
 20 19  1  0  0  0  0
 21 20  2  0  0  0  0
 22 17  2  0  0  0  0
 22 21  1  0  0  0  0
 25 21  1  0  0  0  0
 26  6  1  0  0  0  0
 26 27  1  0  0  0  0
 28 41  1  6  0  0  0
 28 26  1  0  0  0  0
 28 29  1  0  0  0  0
 30 29  1  0  0  0  0
 31 28  1  0  0  0  0
 33 32  1  0  0  0  0
 33 34  1  0  0  0  0
 34 31  1  0  0  0  0
 35 34  2  0  0  0  0
 35 36  1  0  0  0  0
 37 35  1  0  0  0  0
 38 37  1  0  0  0  0
 39 40  1  0  0  0  0
 39 37  2  0  0  0  0
 40 33  2  0  0  0  0
 42 45  1  0  0  0  0
 42 41  1  0  0  0  0
 43 42  1  0  0  0  0
 44 42  1  0  0  0  0
M  END
>  <minimizedAffinity>
-5.49617672

$$$$

 OpenBabel03262521083D

 45 47  0  0  1  0  0  0  0  0999 V2000
   38.4410   26.0690   34.3200 C   0  0  2  0  0  0  0  0  0  0  0  0
   37.8810   27.2640   34.9370 C   0  0  0  0  0  0  0  0  0  0  0  0
   36.6750   27.8170   34.1830 C   0  0  0  0  0  0  0  0  0  0  0  0
   36.9950   28.1300   32.7540 C   0  0  0  0  0  0  0  0  0  0  0  0
   37.9450   27.1490   32.1080 C   0  0  0  0  0  0  0  0  0  0  0  0
   38.0020   25.8430   32.8970 C   0  0  2  0  0  0  0  0  0  0  0  0
   39.5670   26.1900   34.2980 H   0  0  0  0  0  0  0  0  0  0  0  0
   37.5370   27.1790   35.9760 H   0  0  0  0  0  0  0  0  0  0  0  0
   38.6250   28.1220   34.9700 H   0  0  0  0  0  0  0  0  0  0  0  0
   36.4310   28.7770   34.6900 H   0  0  0  0  0  0  0  0  0  0  0  0
   35.7860   27.1570   34.3200 H   0  0  0  0  0  0  0  0  0  0  0  0
   36.0370   28.0640   32.1950 H   0  0  0  0  0  0  0  0  0  0  0  0
   37.3290   29.2000   32.6340 H   0  0  0  0  0  0  0  0  0  0  0  0
   38.9670   27.5970   32.1790 H   0  0  0  0  0  0  0  0  0  0  0  0
   37.7080   26.9280   31.0710 H   0  0  0  0  0  0  0  0  0  0  0  0
   38.8140   25.2670   32.4020 H   0  0  0  0  0  0  0  0  0  0  0  0
   38.2200   24.8100   35.0420 C   0  0  0  0  0  0  0  0  0  0  0  0
   37.8350   24.9770   36.3780 C   0  0  0  0  0  0  0  0  0  0  0  0
   37.5980   23.8230   37.1030 C   0  0  0  0  0  0  0  0  0  0  0  0
   37.7450   22.6050   36.5040 N   0  0  0  0  0  0  0  0  0  0  0  0
   38.1180   22.4900   35.2180 C   0  0  0  0  0  0  0  0  0  0  0  0
   38.3370   23.5840   34.5500 N   0  0  0  0  0  0  0  0  0  0  0  0
   37.6710   25.7980   37.0440 H   0  0  0  0  0  0  0  0  0  0  0  0
   37.2970   23.6960   38.1220 H   0  0  0  0  0  0  0  0  0  0  0  0
   38.2330   21.5100   34.7550 H   0  0  0  0  0  0  0  0  0  0  0  0
   36.7990   25.1830   32.6550 N   0  0  0  0  0  0  0  0  0  0  0  0
   36.6290   24.4210   33.3390 H   0  0  0  0  0  0  0  0  0  0  0  0
   36.5350   24.5750   31.0940 S   0  0  1  0  0  0  0  0  0  0  0  0
   35.7990   25.6880   30.3520 O   0  0  0  0  0  0  0  0  0  0  0  0
   34.8020   25.7190   30.2150 H   0  0  0  0  0  0  0  0  0  0  0  0
   37.7400   24.2350   30.3720 O   0  0  0  0  0  0  0  0  0  0  0  0
   38.6870   21.7350   29.5040 F   0  0  0  0  0  0  0  0  0  0  0  0
   39.3780   22.8630   29.2170 C   0  0  0  0  0  0  0  0  0  0  0  0
   38.8470   24.0510   29.6790 C   0  0  0  0  0  0  0  0  0  0  0  0
   39.5950   25.1880   29.3580 C   0  0  0  0  0  0  0  0  0  0  0  0
   39.2600   26.1840   29.6780 H   0  0  0  0  0  0  0  0  0  0  0  0
   40.7750   25.1790   28.6400 C   0  0  0  0  0  0  0  0  0  0  0  0
   41.3070   26.0790   28.4220 H   0  0  0  0  0  0  0  0  0  0  0  0
   41.1990   23.9240   28.2350 C   0  0  0  0  0  3  0  0  0  0  0  0
   40.5440   22.7420   28.4950 C   0  0  0  0  0  3  0  0  0  0  0  0
   35.4650   23.2760   31.0920 O   0  0  0  0  0  0  0  0  0  0  0  0
   36.0020   22.1390   31.6720 C   0  0  0  0  0  0  0  0  0  0  0  0
   35.2560   21.7790   32.7600 F   0  0  0  0  0  0  0  0  0  0  0  0
   35.8960   21.1160   30.7440 F   0  0  0  0  0  0  0  0  0  0  0  0
   37.3540   22.2540   31.9700 F   0  0  0  0  0  0  0  0  0  0  0  0
  1  7  1  6  0  0  0
  1  2  1  0  0  0  0
  1 17  1  0  0  0  0
  2  9  1  0  0  0  0
  2  8  1  0  0  0  0
  3 11  1  0  0  0  0
  3 10  1  0  0  0  0
  3  2  1  0  0  0  0
  4  3  1  0  0  0  0
  5 14  1  0  0  0  0
  5  4  1  0  0  0  0
  5  6  1  0  0  0  0
  6 16  1  6  0  0  0
  6  1  1  0  0  0  0
 12  4  1  0  0  0  0
 13  4  1  0  0  0  0
 15  5  1  0  0  0  0
 17 18  1  0  0  0  0
 18 23  1  0  0  0  0
 18 19  2  0  0  0  0
 19 24  1  0  0  0  0
 20 19  1  0  0  0  0
 21 20  2  0  0  0  0
 22 17  2  0  0  0  0
 22 21  1  0  0  0  0
 25 21  1  0  0  0  0
 26  6  1  0  0  0  0
 26 27  1  0  0  0  0
 28 29  1  6  0  0  0
 28 26  1  0  0  0  0
 30 29  1  0  0  0  0
 31 28  1  0  0  0  0
 33 32  1  0  0  0  0
 33 34  1  0  0  0  0
 34 31  1  0  0  0  0
 35 36  1  0  0  0  0
 35 34  2  0  0  0  0
 37 35  1  0  0  0  0
 38 37  1  0  0  0  0
 39 40  1  0  0  0  0
 39 37  2  0  0  0  0
 40 33  2  0  0  0  0
 41 28  1  0  0  0  0
 41 42  1  0  0  0  0
 42 45  1  0  0  0  0
 42 43  1  0  0  0  0
 44 42  1  0  0  0  0
M  END
>  <minimizedAffinity>
-5.408566

$$$$

 OpenBabel03262521083D

 45 47  0  0  1  0  0  0  0  0999 V2000
   40.4050   24.4680   34.0740 C   0  0  2  0  0  0  0  0  0  0  0  0
   41.0650   25.5040   34.8570 C   0  0  0  0  0  0  0  0  0  0  0  0
   40.6690   26.9160   34.4350 C   0  0  0  0  0  0  0  0  0  0  0  0
   40.9450   27.1730   32.9850 C   0  0  0  0  0  0  0  0  0  0  0  0
   40.6890   25.9820   32.0910 C   0  0  0  0  0  0  0  0  0  0  0  0
   39.7950   24.9590   32.7860 C   0  0  2  0  0  0  0  0  0  0  0  0
   41.1880   23.7010   33.7910 H   0  0  0  0  0  0  0  0  0  0  0  0
   40.9060   25.4900   35.9430 H   0  0  0  0  0  0  0  0  0  0  0  0
   42.1960   25.4720   34.7500 H   0  0  0  0  0  0  0  0  0  0  0  0
   41.3260   27.5910   35.0260 H   0  0  0  0  0  0  0  0  0  0  0  0
   39.6240   27.1450   34.7490 H   0  0  0  0  0  0  0  0  0  0  0  0
   40.2410   27.9710   32.6670 H   0  0  0  0  0  0  0  0  0  0  0  0
   41.9730   27.6140   32.8360 H   0  0  0  0  0  0  0  0  0  0  0  0
   41.6740   25.4770   31.9370 H   0  0  0  0  0  0  0  0  0  0  0  0
   40.2520   26.2420   31.1300 H   0  0  0  0  0  0  0  0  0  0  0  0
   39.7870   24.0930   32.0880 H   0  0  0  0  0  0  0  0  0  0  0  0
   39.3690   23.6970   34.7720 C   0  0  0  0  0  0  0  0  0  0  0  0
   39.1270   24.1230   36.0840 C   0  0  0  0  0  0  0  0  0  0  0  0
   38.1480   23.4410   36.7850 C   0  0  0  0  0  0  0  0  0  0  0  0
   37.4800   22.4120   36.1880 N   0  0  0  0  0  0  0  0  0  0  0  0
   37.7460   22.0340   34.9260 C   0  0  0  0  0  0  0  0  0  0  0  0
   38.6670   22.6850   34.2790 N   0  0  0  0  0  0  0  0  0  0  0  0
   39.5160   24.8690   36.7450 H   0  0  0  0  0  0  0  0  0  0  0  0
   37.7900   23.5800   37.7840 H   0  0  0  0  0  0  0  0  0  0  0  0
   37.2040   21.2100   34.4630 H   0  0  0  0  0  0  0  0  0  0  0  0
   38.5130   25.5040   32.8080 N   0  0  0  0  0  0  0  0  0  0  0  0
   38.0400   25.3490   33.7180 H   0  0  0  0  0  0  0  0  0  0  0  0
   37.4490   25.0600   31.5640 S   0  0  1  0  0  0  0  0  0  0  0  0
   38.0960   25.5760   30.2820 O   0  0  0  0  0  0  0  0  0  0  0  0
   37.8440   26.4360   29.8220 H   0  0  0  0  0  0  0  0  0  0  0  0
   37.2240   23.6380   31.4470 O   0  0  0  0  0  0  0  0  0  0  0  0
   34.8360   22.3870   32.2440 F   0  0  0  0  0  0  0  0  0  0  0  0
   35.7930   21.6800   31.5990 C   0  0  0  0  0  0  0  0  0  0  0  0
   36.9370   22.3670   31.2420 C   0  0  0  0  0  0  0  0  0  0  0  0
   37.8970   21.5950   30.5780 C   0  0  0  0  0  0  0  0  0  0  0  0
   38.8430   22.0450   30.2500 H   0  0  0  0  0  0  0  0  0  0  0  0
   37.7610   20.2530   30.2800 C   0  0  0  0  0  0  0  0  0  0  0  0
   38.5270   19.7110   29.7710 H   0  0  0  0  0  0  0  0  0  0  0  0
   36.5680   19.6840   30.6940 C   0  0  0  0  0  3  0  0  0  0  0  0
   35.5580   20.3460   31.3530 C   0  0  0  0  0  3  0  0  0  0  0  0
   35.9810   25.8780   31.6650 O   0  0  0  0  0  0  0  0  0  0  0  0
   36.1200   27.2470   31.5130 C   0  0  0  0  0  0  0  0  0  0  0  0
   36.1550   27.5640   30.1830 F   0  0  0  0  0  0  0  0  0  0  0  0
   34.9850   27.8370   32.0460 F   0  0  0  0  0  0  0  0  0  0  0  0
   37.1980   27.7770   32.2130 F   0  0  0  0  0  0  0  0  0  0  0  0
  1  7  1  6  0  0  0
  1 17  1  0  0  0  0
  1  2  1  0  0  0  0
  2  8  1  0  0  0  0
  3 11  1  0  0  0  0
  3  2  1  0  0  0  0
  3 10  1  0  0  0  0
  4  3  1  0  0  0  0
  5  6  1  0  0  0  0
  5  4  1  0  0  0  0
  6 16  1  6  0  0  0
  6 26  1  0  0  0  0
  6  1  1  0  0  0  0
  9  2  1  0  0  0  0
 12  4  1  0  0  0  0
 13  4  1  0  0  0  0
 14  5  1  0  0  0  0
 15  5  1  0  0  0  0
 17 18  1  0  0  0  0
 18 23  1  0  0  0  0
 18 19  2  0  0  0  0
 19 24  1  0  0  0  0
 20 19  1  0  0  0  0
 21 20  2  0  0  0  0
 22 17  2  0  0  0  0
 22 21  1  0  0  0  0
 25 21  1  0  0  0  0
 26 27  1  0  0  0  0
 28 29  1  6  0  0  0
 28 41  1  0  0  0  0
 28 26  1  0  0  0  0
 30 29  1  0  0  0  0
 31 28  1  0  0  0  0
 33 32  1  0  0  0  0
 34 31  1  0  0  0  0
 34 33  2  0  0  0  0
 35 34  1  0  0  0  0
 36 35  1  0  0  0  0
 37 35  2  0  0  0  0
 37 39  1  0  0  0  0
 38 37  1  0  0  0  0
 39 40  2  0  0  0  0
 40 33  1  0  0  0  0
 42 41  1  0  0  0  0
 42 44  1  0  0  0  0
 42 45  1  0  0  0  0
 43 42  1  0  0  0  0
M  END
>  <minimizedAffinity>
-5.3339529

$$$$

 OpenBabel03262521083D

 45 47  0  0  1  0  0  0  0  0999 V2000
   40.6640   26.4690   32.7980 C   0  0  2  0  0  0  0  0  0  0  0  0
   41.0070   27.4140   31.7440 C   0  0  0  0  0  0  0  0  0  0  0  0
   40.6680   26.9020   30.3470 C   0  0  0  0  0  0  0  0  0  0  0  0
   41.3370   25.5960   30.0450 C   0  0  0  0  0  0  0  0  0  0  0  0
   41.4210   24.6610   31.2280 C   0  0  0  0  0  0  0  0  0  0  0  0
   40.4260   25.0620   32.3140 C   0  0  2  0  0  0  0  0  0  0  0  0
   41.5390   26.4220   33.5140 H   0  0  0  0  0  0  0  0  0  0  0  0
   40.5420   28.4070   31.7900 H   0  0  0  0  0  0  0  0  0  0  0  0
   42.1200   27.6400   31.7120 H   0  0  0  0  0  0  0  0  0  0  0  0
   41.0860   27.6610   29.6500 H   0  0  0  0  0  0  0  0  0  0  0  0
   39.5650   26.9000   30.1830 H   0  0  0  0  0  0  0  0  0  0  0  0
   40.7090   25.0900   29.2800 H   0  0  0  0  0  0  0  0  0  0  0  0
   42.3360   25.7530   29.5450 H   0  0  0  0  0  0  0  0  0  0  0  0
   42.4360   24.7970   31.6750 H   0  0  0  0  0  0  0  0  0  0  0  0
   41.2650   23.6160   30.9720 H   0  0  0  0  0  0  0  0  0  0  0  0
   40.6700   24.3880   33.1640 H   0  0  0  0  0  0  0  0  0  0  0  0
   39.5180   26.8330   33.6390 C   0  0  0  0  0  0  0  0  0  0  0  0
   39.7920   26.8260   35.0130 C   0  0  0  0  0  0  0  0  0  0  0  0
   38.7500   27.1770   35.8530 C   0  0  0  0  0  0  0  0  0  0  0  0
   37.5340   27.5040   35.3250 N   0  0  0  0  0  0  0  0  0  0  0  0
   37.3140   27.4950   33.9990 C   0  0  0  0  0  0  0  0  0  0  0  0
   38.3030   27.1640   33.2220 N   0  0  0  0  0  0  0  0  0  0  0  0
   40.6300   26.6040   35.6390 H   0  0  0  0  0  0  0  0  0  0  0  0
   38.7160   27.2460   36.9200 H   0  0  0  0  0  0  0  0  0  0  0  0
   36.3370   27.7570   33.5930 H   0  0  0  0  0  0  0  0  0  0  0  0
   39.1620   24.7130   31.8410 N   0  0  0  0  0  0  0  0  0  0  0  0
   38.5260   25.5310   31.7890 H   0  0  0  0  0  0  0  0  0  0  0  0
   38.3510   23.4470   32.6240 S   0  0  1  0  0  0  0  0  0  0  0  0
   38.7270   22.1890   31.8460 O   0  0  0  0  0  0  0  0  0  0  0  0
   38.1490   21.7610   31.1410 H   0  0  0  0  0  0  0  0  0  0  0  0
   38.7100   23.2740   34.0130 O   0  0  0  0  0  0  0  0  0  0  0  0
   37.4070   24.1560   36.3430 F   0  0  0  0  0  0  0  0  0  0  0  0
   38.5830   23.4900   36.4300 C   0  0  0  0  0  0  0  0  0  0  0  0
   39.1590   23.0910   35.2390 C   0  0  0  0  0  0  0  0  0  0  0  0
   40.3720   22.4080   35.3800 C   0  0  0  0  0  0  0  0  0  0  0  0
   40.9120   22.0470   34.4950 H   0  0  0  0  0  0  0  0  0  0  0  0
   40.9850   22.1290   36.5850 C   0  0  0  0  0  0  0  0  0  0  0  0
   41.9130   21.6030   36.6350 H   0  0  0  0  0  0  0  0  0  0  0  0
   40.3040   22.5840   37.7030 C   0  0  0  0  0  3  0  0  0  0  0  0
   39.1090   23.2650   37.6820 C   0  0  0  0  0  3  0  0  0  0  0  0
   36.6800   23.5700   32.4630 O   0  0  0  0  0  0  0  0  0  0  0  0
   36.2600   23.4630   31.1480 C   0  0  0  0  0  0  0  0  0  0  0  0
   35.9280   22.1650   30.8720 F   0  0  0  0  0  0  0  0  0  0  0  0
   35.1040   24.2170   31.0230 F   0  0  0  0  0  0  0  0  0  0  0  0
   37.1650   23.9850   30.2320 F   0  0  0  0  0  0  0  0  0  0  0  0
  1  7  1  1  0  0  0
  1 17  1  0  0  0  0
  2  8  1  0  0  0  0
  2  1  1  0  0  0  0
  3  2  1  0  0  0  0
  4  3  1  0  0  0  0
  4  5  1  0  0  0  0
  5 14  1  0  0  0  0
  5  6  1  0  0  0  0
  6  1  1  0  0  0  0
  6 16  1  1  0  0  0
  9  2  1  0  0  0  0
 10  3  1  0  0  0  0
 11  3  1  0  0  0  0
 12  4  1  0  0  0  0
 13  4  1  0  0  0  0
 15  5  1  0  0  0  0
 17 18  1  0  0  0  0
 18 23  1  0  0  0  0
 18 19  2  0  0  0  0
 19 24  1  0  0  0  0
 20 19  1  0  0  0  0
 21 20  2  0  0  0  0
 22 17  2  0  0  0  0
 22 21  1  0  0  0  0
 25 21  1  0  0  0  0
 26  6  1  0  0  0  0
 26 28  1  0  0  0  0
 27 26  1  0  0  0  0
 28 29  1  6  0  0  0
 28 31  1  0  0  0  0
 30 29  1  0  0  0  0
 31 34  1  0  0  0  0
 32 33  1  0  0  0  0
 33 40  1  0  0  0  0
 34 35  1  0  0  0  0
 34 33  2  0  0  0  0
 35 37  2  0  0  0  0
 36 35  1  0  0  0  0
 37 38  1  0  0  0  0
 37 39  1  0  0  0  0
 40 39  2  0  0  0  0
 41 28  1  0  0  0  0
 42 41  1  0  0  0  0
 43 42  1  0  0  0  0
 44 42  1  0  0  0  0
 45 42  1  0  0  0  0
M  END
>  <minimizedAffinity>
-5.31809425

$$$$
