
 OpenBabel03272504223D

 39 41  0  0  1  0  0  0  0  0999 V2000
   38.8790   32.3380   47.8190 C   0  0  2  0  0  0  0  0  0  0  0  0
   38.1750   31.3790   48.7710 C   0  0  1  0  0  0  0  0  0  0  0  0
   38.7130   31.9420   50.0900 C   0  0  0  0  0  0  0  0  0  0  0  0
   38.4130   33.2830   49.9300 O   0  0  0  0  0  0  0  0  0  0  0  0
   38.6750   33.6340   48.6280 C   0  0  0  0  0  0  0  0  0  0  0  0
   39.9410   32.1320   47.7260 H   0  0  0  0  0  0  0  0  0  0  0  0
   38.4740   30.3280   48.6360 H   0  0  0  0  0  0  0  0  0  0  0  0
   38.0930   31.4940   50.8850 H   0  0  0  0  0  0  0  0  0  0  0  0
   39.7760   31.7140   50.1940 H   0  0  0  0  0  0  0  0  0  0  0  0
   37.8590   34.2300   48.1820 H   0  0  0  0  0  0  0  0  0  0  0  0
   39.6000   34.2300   48.6040 H   0  0  0  0  0  0  0  0  0  0  0  0
   36.8250   31.6030   48.6630 O   0  0  0  0  0  0  0  0  0  0  0  0
   35.8350   29.8660   46.9950 O   0  0  0  0  0  0  0  0  0  0  0  0
   35.9410   30.1850   48.4600 P   0  0  1  0  0  0  0  0  0  0  0  0
   36.7610   28.8750   49.2210 O   0  0  0  0  0  0  0  0  0  0  0  0
   37.4400   28.5870   48.5550 H   0  0  0  0  0  0  0  0  0  0  0  0
   34.4040   30.3460   49.1530 O   0  0  0  0  0  0  0  0  0  0  0  0
   34.1440   29.1880   49.8530 C   0  0  0  0  0  0  0  0  0  0  0  0
   33.6180   29.3940   50.8210 H   0  0  0  0  0  0  0  0  0  0  0  0
   35.0600   28.6280   50.1530 H   0  0  0  0  0  0  0  0  0  0  0  0
   33.2770   28.2380   49.1220 C   0  0  0  0  0  0  0  0  0  0  0  0
   33.9030   27.3430   48.2880 C   0  0  0  0  0  0  0  0  0  0  0  0
   33.1400   26.4190   47.5700 C   0  0  0  0  0  0  0  0  0  0  0  0
   31.7890   26.4650   47.7460 N   0  0  0  0  0  0  0  0  0  0  0  0
   31.1890   27.3550   48.5730 C   0  0  0  0  0  0  0  0  0  0  0  0
   31.9370   28.2470   49.2660 N   0  0  0  0  0  0  0  0  0  0  0  0
   34.9530   27.2300   48.0840 H   0  0  0  0  0  0  0  0  0  0  0  0
   33.5490   25.6820   46.8930 H   0  0  0  0  0  0  0  0  0  0  0  0
   30.1090   27.3070   48.6420 H   0  0  0  0  0  0  0  0  0  0  0  0
   38.1840   32.3480   46.6430 O   0  0  0  0  0  0  0  0  0  0  0  0
   38.6800   29.8310   45.8530 F   0  0  0  0  0  0  0  0  0  0  0  0
   39.0250   30.9170   45.1140 C   0  0  0  0  0  0  0  0  0  0  0  0
   38.8200   32.2670   45.4180 C   0  0  0  0  0  0  0  0  0  0  0  0
   39.2530   33.2070   44.5180 C   0  0  0  0  0  0  0  0  0  0  0  0
   39.0480   34.1990   44.8480 H   0  0  0  0  0  0  0  0  0  0  0  0
   39.8720   32.8150   43.3510 C   0  0  0  0  0  0  0  0  0  0  0  0
   40.1580   33.6790   42.7400 H   0  0  0  0  0  0  0  0  0  0  0  0
   40.0860   31.4870   43.0260 C   0  0  0  0  0  3  0  0  0  0  0  0
   39.6540   30.5370   43.9230 C   0  0  0  0  0  3  0  0  0  0  0  0
  1  6  1  6  0  0  0
  1  5  1  0  0  0  0
  1  2  1  0  0  0  0
  2  7  1  6  0  0  0
  2  3  1  0  0  0  0
  3  9  1  0  0  0  0
  3  8  1  0  0  0  0
  4  3  1  0  0  0  0
  5  4  1  0  0  0  0
 10  5  1  0  0  0  0
 11  5  1  0  0  0  0
 12  2  1  0  0  0  0
 14 13  2  6  0  0  0
 14 12  1  0  0  0  0
 14 17  1  0  0  0  0
 14 15  1  0  0  0  0
 16 15  1  0  0  0  0
 17 18  1  0  0  0  0
 18 20  1  0  0  0  0
 18 19  1  0  0  0  0
 21 26  1  0  0  0  0
 21 18  1  0  0  0  0
 22 21  2  0  0  0  0
 23 24  2  0  0  0  0
 23 22  1  0  0  0  0
 24 25  1  0  0  0  0
 25 29  1  0  0  0  0
 25 26  2  0  0  0  0
 27 22  1  0  0  0  0
 28 23  1  0  0  0  0
 30  1  1  0  0  0  0
 32 33  1  0  0  0  0
 32 31  1  0  0  0  0
 33 30  1  0  0  0  0
 34 35  1  0  0  0  0
 34 33  2  0  0  0  0
 36 34  1  0  0  0  0
 37 36  1  0  0  0  0
 38 36  2  0  0  0  0
 38 39  1  0  0  0  0
 39 32  2  0  0  0  0
M  END
>  <minimizedAffinity>
-4.93607664

>  <minimizedRMSD>
0.228435978

$$$$
