
 OpenBabel03272510243D

 32 35  0  0  0  0  0  0  0  0999 V2000
   35.9120   30.0950   46.9630 C   0  0  0  0  0  0  0  0  0  0  0  0
   36.8700   30.5880   47.8240 C   0  0  0  0  0  0  0  0  0  0  0  0
   37.8810   31.3870   47.3400 C   0  0  0  0  0  0  0  0  0  0  0  0
   37.8820   31.6620   45.9740 C   0  0  0  0  0  0  0  0  0  0  0  0
   38.7880   32.4310   45.2740 N   0  0  0  0  0  0  0  0  0  0  0  0
   38.3870   32.4060   44.0070 C   0  0  0  0  0  0  0  0  0  0  0  0
   37.2760   31.6630   43.8680 N   0  0  0  0  0  0  0  0  0  0  0  0
   36.9490   31.1930   45.0850 C   0  0  0  0  0  0  0  0  0  0  0  0
   35.9430   30.3900   45.6000 C   0  0  0  0  0  0  0  0  0  0  0  0
   35.0990   29.4600   47.3150 H   0  0  0  0  0  0  0  0  0  0  0  0
   38.6230   31.7680   48.0070 H   0  0  0  0  0  0  0  0  0  0  0  0
   39.6190   32.9170   45.7280 H   0  0  0  0  0  0  0  0  0  0  0  0
   35.2030   30.0130   44.9220 H   0  0  0  0  0  0  0  0  0  0  0  0
   37.5420   30.1260   51.4990 C   0  0  0  0  0  0  0  0  0  0  0  0
   37.7570   30.5140   50.1800 C   0  0  0  0  0  0  0  0  0  0  0  0
   36.7770   30.2400   49.2290 C   0  0  0  0  0  0  0  0  0  0  0  0
   35.6380   29.5960   49.6440 N   0  0  0  0  0  0  0  0  0  0  0  0
   35.4570   29.2290   50.9390 C   0  0  0  0  0  0  0  0  0  0  0  0
   36.3930   29.4900   51.8470 N   0  0  0  0  0  0  0  0  0  0  0  0
   38.3330   30.3650   52.1800 H   0  0  0  0  0  0  0  0  0  0  0  0
   38.6370   31.0120   49.8600 H   0  0  0  0  0  0  0  0  0  0  0  0
   34.5510   28.7220   51.2400 H   0  0  0  0  0  0  0  0  0  0  0  0
   39.1270   33.1100   43.0580 O   0  0  0  0  0  0  0  0  0  0  0  0
   37.9590   34.4650   40.8930 F   0  0  0  0  0  0  0  0  0  0  0  0
   38.6660   33.3640   40.6280 C   0  0  0  0  0  0  0  0  0  0  0  0
   39.2080   32.7510   41.7300 C   0  0  0  0  0  0  0  0  0  0  0  0
   39.9690   31.5880   41.5700 C   0  0  0  0  0  0  0  0  0  0  0  0
   40.4500   31.0120   42.3690 H   0  0  0  0  0  0  0  0  0  0  0  0
   40.1790   31.0470   40.3010 C   0  0  0  0  0  0  0  0  0  0  0  0
   40.7640   30.1470   40.1460 H   0  0  0  0  0  0  0  0  0  0  0  0
   39.6050   31.7090   39.2140 C   0  0  0  0  0  3  0  0  0  0  0  0
   38.8540   32.8550   39.3600 C   0  0  0  0  0  3  0  0  0  0  0  0
  1 10  1  0  0  0  0
  1  2  1  0  0  0  0
  2 16  1  0  0  0  0
  3  2  2  0  0  0  0
  3 11  1  0  0  0  0
  4  3  1  0  0  0  0
  5 12  1  0  0  0  0
  5  4  1  0  0  0  0
  6  5  1  0  0  0  0
  7  6  2  0  0  0  0
  7  8  1  0  0  0  0
  8  9  1  0  0  0  0
  8  4  2  0  0  0  0
  9  1  2  0  0  0  0
 13  9  1  0  0  0  0
 14 19  1  0  0  0  0
 14 20  1  0  0  0  0
 15 14  2  0  0  0  0
 16 17  2  0  0  0  0
 16 15  1  0  0  0  0
 17 18  1  0  0  0  0
 18 22  1  0  0  0  0
 18 19  2  0  0  0  0
 21 15  1  0  0  0  0
 23  6  1  0  0  0  0
 25 24  1  0  0  0  0
 25 26  1  0  0  0  0
 26 23  1  0  0  0  0
 27 26  2  0  0  0  0
 27 28  1  0  0  0  0
 29 27  1  0  0  0  0
 30 29  1  0  0  0  0
 31 32  1  0  0  0  0
 31 29  2  0  0  0  0
 32 25  2  0  0  0  0
M  END
>  <minimizedAffinity>
-5.55431986

>  <minimizedRMSD>
1.99613047

$$$$
