
     RDKit          3D

 43 45  0  0  0  0  0  0  0  0999 V2000
   36.6865   29.9712   49.0175 C   0  0  0  0  0  0  0  0  0  0  0  0
   37.6961   30.6334   48.3126 C   0  0  0  0  0  0  0  0  0  0  0  0
   37.4883   30.9121   46.9709 C   0  0  0  0  0  0  0  0  0  0  0  0
   36.3337   30.5364   46.4150 N   0  0  0  0  0  0  0  0  0  0  0  0
   35.3677   29.8983   47.1067 C   0  0  0  0  0  0  0  0  0  0  0  0
   35.5479   29.6204   48.3962 N   0  0  0  0  0  0  0  0  0  0  0  0
   38.4681   31.5568   46.2197 N   0  0  0  0  0  0  0  0  0  0  0  0
   39.4432   32.5565   46.7320 C   0  0  0  0  0  0  0  0  0  0  0  0
   40.0845   33.2019   45.5636 C   0  0  0  0  0  0  0  0  0  0  0  0
   39.2253   32.8487   44.4474 C   0  0  0  0  0  0  0  0  0  0  0  0
   38.7959   31.4802   44.8349 C   0  0  2  0  0  0  0  0  0  0  0  0
   37.6394   31.0323   43.9377 C   0  0  0  0  0  0  0  0  0  0  0  0
   36.5131   31.7475   44.2886 F   0  0  0  0  0  0  0  0  0  0  0  0
   37.3115   29.7138   44.0264 F   0  0  0  0  0  0  0  0  0  0  0  0
   37.9595   31.4238   42.6528 F   0  0  0  0  0  0  0  0  0  0  0  0
   39.8336   30.5057   44.6743 C   0  0  1  0  0  0  0  0  0  0  0  0
   40.3470   30.6906   43.5316 O   0  0  0  0  0  0  0  0  0  0  0  0
   40.9911   29.9822   42.5838 C   0  0  0  0  0  0  0  0  0  0  0  0
   40.7642   30.4342   41.4567 O   0  0  0  0  0  0  0  0  0  0  0  0
   41.8585   28.9080   42.2414 N   0  0  0  0  0  0  0  0  0  0  0  0
   36.9596   29.8027   50.0701 H   0  0  0  0  0  0  0  0  0  0  0  0
   38.6471   30.9544   48.7330 H   0  0  0  0  0  0  0  0  0  0  0  0
   34.4155   29.5743   46.6985 H   0  0  0  0  0  0  0  0  0  0  0  0
   38.6971   33.2871   47.2288 H   0  0  0  0  0  0  0  0  0  0  0  0
   40.0359   32.2445   47.5633 H   0  0  0  0  0  0  0  0  0  0  0  0
   39.7599   34.3437   45.7206 H   0  0  0  0  0  0  0  0  0  0  0  0
   41.1231   33.3824   45.5056 H   0  0  0  0  0  0  0  0  0  0  0  0
   38.3933   33.5275   44.2092 H   0  0  0  0  0  0  0  0  0  0  0  0
   39.8708   32.7352   43.5244 H   0  0  0  0  0  0  0  0  0  0  0  0
   39.5485   29.5328   45.0057 H   0  0  0  0  0  0  0  0  0  0  0  0
   42.8866   29.1409   42.3256 H   0  0  0  0  0  0  0  0  0  0  0  0
   41.4834   27.9717   41.9336 H   0  0  0  0  0  0  0  0  0  0  0  0
   42.5165   30.7943   43.6469 F   0  0  0  0  0  0  0  0  0  0  0  0
   42.4007   30.7564   44.9925 C   0  0  0  0  0  0  0  0  0  0  0  0
   41.1432   30.5962   45.5502 C   0  0  0  0  0  0  0  0  0  0  0  0
   41.1578   30.6196   46.9364 C   0  0  0  0  0  0  0  0  0  0  0  0
   40.1646   30.4982   47.4032 H   0  0  0  0  0  0  0  0  0  0  0  0
   42.2543   30.7776   47.7352 C   0  0  0  0  0  0  0  0  0  0  0  0
   42.0968   30.7729   48.7937 H   0  0  0  0  0  0  0  0  0  0  0  0
   43.4293   30.9236   47.0790 C   0  0  0  0  0  0  0  0  0  0  0  0
   43.5533   30.9198   45.7118 C   0  0  0  0  0  0  0  0  0  0  0  0
   44.3338   31.0520   47.6588 H   0  0  0  0  0  0  0  0  0  0  0  0
   44.4973   31.0377   45.2042 H   0  0  0  0  0  0  0  0  0  0  0  0
  2  1  2  0
  3  2  1  0
  4  3  2  0
  4  5  1  0
  5  6  2  0
  6  1  1  0
  7  8  1  0
  7  3  1  0
  9  8  1  0
 10 11  1  0
 10  9  1  0
 11 12  1  6
 11  7  1  0
 12 14  1  0
 12 13  1  0
 15 12  1  0
 16 11  1  0
 17 16  1  0
 18 17  1  0
 19 18  2  0
 20 18  1  0
  1 21  1  0
  2 22  1  0
  5 23  1  0
  8 24  1  0
  8 25  1  0
  9 26  1  0
  9 27  1  0
 10 28  1  0
 10 29  1  0
 16 30  1  6
 20 31  1  0
 20 32  1  0
 33 34  1  0
 34 35  2  0
 35 36  1  0
 36 37  1  0
 36 38  2  0
 38 39  1  0
 38 40  1  0
 40 41  2  0
 41 34  1  0
 40 42  1  0
 41 43  1  0
 16 35  1  0
M  ISO  8  21  14  22  14  23  14  24  13  25  13  26  13  27  13  28  13
M  ISO  4  29  13  30   8  37  15  39  16
M  END
>  <DihAtoms>  (1) 
10,15,34,33

>  <DihDeg>  (1) 
90.8529885422096

$$$$
