
 OpenBabel03272507283D

 41 43  0  0  1  0  0  0  0  0999 V2000
   37.2660   30.1660   48.8480 C   0  0  0  0  0  0  0  0  0  0  0  0
   37.8740   30.7340   47.7250 C   0  0  0  0  0  0  0  0  0  0  0  0
   37.1530   30.7860   46.5420 C   0  0  0  0  0  0  0  0  0  0  0  0
   35.9120   30.2930   46.5310 N   0  0  0  0  0  0  0  0  0  0  0  0
   35.3380   29.7480   47.6230 C   0  0  0  0  0  0  0  0  0  0  0  0
   36.0130   29.6880   48.7690 N   0  0  0  0  0  0  0  0  0  0  0  0
   37.7180   31.3280   45.3900 N   0  0  0  0  0  0  0  0  0  0  0  0
   38.7220   32.4240   45.3430 C   0  0  0  0  0  0  0  0  0  0  0  0
   38.8170   32.8900   43.9410 C   0  0  0  0  0  0  0  0  0  0  0  0
   37.6360   32.3370   43.3020 C   0  0  0  0  0  0  0  0  0  0  0  0
   37.5060   31.0370   44.0110 C   0  0  2  0  0  0  0  0  0  0  0  0
   37.9290   30.1790   49.7270 H   0  0  0  0  0  0  0  0  0  0  0  0
   38.8810   31.1450   47.6980 H   0  0  0  0  0  0  0  0  0  0  0  0
   34.3340   29.3360   47.6630 H   0  0  0  0  0  0  0  0  0  0  0  0
   38.1560   33.2040   45.9820 H   0  0  0  0  0  0  0  0  0  0  0  0
   39.6090   32.2680   45.9160 H   0  0  0  0  0  0  0  0  0  0  0  0
   38.4770   34.0330   44.0510 H   0  0  0  0  0  0  0  0  0  0  0  0
   39.7380   33.0870   43.4630 H   0  0  0  0  0  0  0  0  0  0  0  0
   36.7190   32.9450   43.3110 H   0  0  0  0  0  0  0  0  0  0  0  0
   37.8950   32.0930   42.2260 H   0  0  0  0  0  0  0  0  0  0  0  0
   36.1410   30.4180   43.7000 C   0  0  0  0  0  0  0  0  0  0  0  0
   35.1600   31.3030   44.0970 F   0  0  0  0  0  0  0  0  0  0  0  0
   35.8830   29.2370   44.3250 F   0  0  0  0  0  0  0  0  0  0  0  0
   36.0490   30.3320   42.3250 F   0  0  0  0  0  0  0  0  0  0  0  0
   38.4890   30.0800   43.5990 C   0  0  2  0  0  0  0  0  0  0  0  0
   39.3770   30.1140   44.1890 H   0  0  0  0  0  0  0  0  0  0  0  0
   41.3470   30.1910   43.2050 F   0  0  0  0  0  0  0  0  0  0  0  0
   40.5940   30.2670   42.0860 C   0  0  0  0  0  0  0  0  0  0  0  0
   39.2140   30.2420   42.2080 C   0  0  0  0  0  0  0  0  0  0  0  0
   38.5620   30.2800   40.9840 C   0  0  0  0  0  0  0  0  0  0  0  0
   37.4610   30.2560   41.0560 H   0  0  0  0  0  0  0  0  0  0  0  0
   39.1480   30.3380   39.7520 C   0  0  0  0  0  0  0  0  0  0  0  0
   38.5010   30.3610   38.9000 H   0  0  0  0  0  0  0  0  0  0  0  0
   40.5010   30.3580   39.7580 C   0  0  0  0  0  3  0  0  0  0  0  0
   41.2680   30.3250   40.8960 C   0  0  0  0  0  3  0  0  0  0  0  0
   37.8820   28.9910   43.3800 O   0  0  0  0  0  0  0  0  0  0  0  0
   38.1750   27.7130   43.0690 C   0  0  0  0  0  0  0  0  0  0  0  0
   37.2550   27.1860   42.4340 O   0  0  0  0  0  0  0  0  0  0  0  0
   39.0860   26.6230   43.1190 N   0  0  0  0  0  0  0  0  0  0  0  0
   39.8320   26.6500   42.3690 H   0  0  0  0  0  0  0  0  0  0  0  0
   39.0050   25.8680   43.8510 H   0  0  0  0  0  0  0  0  0  0  0  0
  1 12  1  0  0  0  0
  2  1  2  0  0  0  0
  3  2  1  0  0  0  0
  4  3  2  0  0  0  0
  4  5  1  0  0  0  0
  5 14  1  0  0  0  0
  5  6  2  0  0  0  0
  6  1  1  0  0  0  0
  7  3  1  0  0  0  0
  8  7  1  0  0  0  0
  8 16  1  0  0  0  0
  8 15  1  0  0  0  0
  9 17  1  0  0  0  0
  9  8  1  0  0  0  0
 10 19  1  0  0  0  0
 10  9  1  0  0  0  0
 10 11  1  0  0  0  0
 11 21  1  6  0  0  0
 11  7  1  0  0  0  0
 13  2  1  0  0  0  0
 18  9  1  0  0  0  0
 20 10  1  0  0  0  0
 21 22  1  0  0  0  0
 21 23  1  0  0  0  0
 24 21  1  0  0  0  0
 25 11  1  0  0  0  0
 25 26  1  1  0  0  0
 28 29  1  0  0  0  0
 28 27  1  0  0  0  0
 29 25  1  0  0  0  0
 30 31  1  0  0  0  0
 30 29  2  0  0  0  0
 32 34  2  0  0  0  0
 32 30  1  0  0  0  0
 33 32  1  0  0  0  0
 34 35  1  0  0  0  0
 35 28  2  0  0  0  0
 36 25  1  0  0  0  0
 37 39  1  0  0  0  0
 37 36  1  0  0  0  0
 38 37  2  0  0  0  0
 39 41  1  0  0  0  0
 40 39  1  0  0  0  0
M  END
>  <minimizedAffinity>
-4.56347847

>  <minimizedRMSD>
3.53567028

$$$$
