
 OpenBabel03272507283D

 41 43  0  0  1  0  0  0  0  0999 V2000
   34.2010   29.4900   46.6510 C   0  0  0  0  0  0  0  0  0  0  0  0
   35.1500   30.1760   45.8900 C   0  0  0  0  0  0  0  0  0  0  0  0
   35.5160   29.6480   44.6620 C   0  0  0  0  0  0  0  0  0  0  0  0
   34.9450   28.5090   44.2640 N   0  0  0  0  0  0  0  0  0  0  0  0
   34.0290   27.8570   45.0090 C   0  0  0  0  0  0  0  0  0  0  0  0
   33.6640   28.3470   46.1910 N   0  0  0  0  0  0  0  0  0  0  0  0
   36.4690   30.2850   43.8710 N   0  0  0  0  0  0  0  0  0  0  0  0
   36.7150   31.7500   43.8110 C   0  0  0  0  0  0  0  0  0  0  0  0
   37.5830   32.0160   42.6410 C   0  0  0  0  0  0  0  0  0  0  0  0
   37.5090   30.7940   41.8590 C   0  0  0  0  0  0  0  0  0  0  0  0
   37.4110   29.7710   42.9330 C   0  0  2  0  0  0  0  0  0  0  0  0
   33.9870   29.9990   47.6030 H   0  0  0  0  0  0  0  0  0  0  0  0
   35.6360   31.1050   46.1820 H   0  0  0  0  0  0  0  0  0  0  0  0
   33.5380   26.9310   44.7270 H   0  0  0  0  0  0  0  0  0  0  0  0
   35.6350   32.0980   43.5900 H   0  0  0  0  0  0  0  0  0  0  0  0
   36.9150   32.2280   44.7450 H   0  0  0  0  0  0  0  0  0  0  0  0
   36.8780   32.7260   41.9830 H   0  0  0  0  0  0  0  0  0  0  0  0
   38.4100   32.6730   42.6770 H   0  0  0  0  0  0  0  0  0  0  0  0
   36.7180   30.7220   41.0990 H   0  0  0  0  0  0  0  0  0  0  0  0
   38.5100   30.6350   41.3530 H   0  0  0  0  0  0  0  0  0  0  0  0
   37.0200   28.4230   42.3220 C   0  0  0  0  0  0  0  0  0  0  0  0
   35.6680   28.4460   42.0450 F   0  0  0  0  0  0  0  0  0  0  0  0
   37.2410   27.3390   43.1140 F   0  0  0  0  0  0  0  0  0  0  0  0
   37.6610   28.3400   41.1010 F   0  0  0  0  0  0  0  0  0  0  0  0
   38.6530   29.5600   43.6150 C   0  0  2  0  0  0  0  0  0  0  0  0
   38.6040   28.7790   44.3400 H   0  0  0  0  0  0  0  0  0  0  0  0
   40.4640   31.6910   42.8960 F   0  0  0  0  0  0  0  0  0  0  0  0
   40.0590   31.6710   44.1850 C   0  0  0  0  0  0  0  0  0  0  0  0
   39.2080   30.6600   44.6010 C   0  0  0  0  0  0  0  0  0  0  0  0
   38.8330   30.7810   45.9310 C   0  0  0  0  0  0  0  0  0  0  0  0
   38.1500   29.9870   46.2830 H   0  0  0  0  0  0  0  0  0  0  0  0
   39.2210   31.7600   46.7990 C   0  0  0  0  0  0  0  0  0  0  0  0
   38.8420   31.7110   47.7990 H   0  0  0  0  0  0  0  0  0  0  0  0
   40.0550   32.6930   46.2820 C   0  0  0  0  0  0  0  0  0  0  0  0
   40.5020   32.6900   44.9830 C   0  0  0  0  0  0  0  0  0  0  0  0
   39.5700   29.5960   42.7430 O   0  0  0  0  0  0  0  0  0  0  0  0
   40.6580   28.8850   42.3870 C   0  0  0  0  0  0  0  0  0  0  0  0
   40.3790   27.6930   42.2270 O   0  0  0  0  0  0  0  0  0  0  0  0
   42.0480   28.8490   42.0870 N   0  0  0  0  0  0  0  0  0  0  0  0
   42.2800   29.1170   41.0900 H   0  0  0  0  0  0  0  0  0  0  0  0
   42.7630   28.5770   42.8120 H   0  0  0  0  0  0  0  0  0  0  0  0
  1 12  1  0  0  0  0
  2 13  1  0  0  0  0
  2  1  2  0  0  0  0
  3  2  1  0  0  0  0
  4  3  2  0  0  0  0
  4  5  1  0  0  0  0
  5  6  2  0  0  0  0
  6  1  1  0  0  0  0
  7  3  1  0  0  0  0
  8  7  1  0  0  0  0
  8 16  1  0  0  0  0
  9 18  1  0  0  0  0
  9  8  1  0  0  0  0
 10  9  1  0  0  0  0
 10 11  1  0  0  0  0
 11 21  1  6  0  0  0
 11 25  1  0  0  0  0
 11  7  1  0  0  0  0
 14  5  1  0  0  0  0
 15  8  1  0  0  0  0
 17  9  1  0  0  0  0
 19 10  1  0  0  0  0
 20 10  1  0  0  0  0
 21 23  1  0  0  0  0
 22 21  1  0  0  0  0
 24 21  1  0  0  0  0
 25 26  1  1  0  0  0
 25 29  1  0  0  0  0
 27 28  1  0  0  0  0
 28 29  2  0  0  0  0
 28 35  1  0  0  0  0
 29 30  1  0  0  0  0
 30 31  1  0  0  0  0
 30 32  2  0  0  0  0
 32 33  1  0  0  0  0
 34 32  1  0  0  0  0
 35 34  2  0  0  0  0
 36 25  1  0  0  0  0
 37 36  1  0  0  0  0
 38 37  2  0  0  0  0
 39 37  1  0  0  0  0
 39 41  1  0  0  0  0
 40 39  1  0  0  0  0
M  END
>  <minimizedAffinity>
-5.19643164

>  <minimizedRMSD>
3.06830192

$$$$
