REMARK  Name = 
REMARK  2 active torsions:
REMARK  status: ('A' for Active; 'I' for Inactive)
REMARK    1  A    between atoms: C_5  and  S_7
REMARK    2  A    between atoms: S_7  and  C_13
REMARK                            x       y       z     vdW  Elec       q    Type
REMARK                         _______ _______ _______ _____ _____    ______ ____
ROOT
ATOM      1  S   UNL     1      34.537  28.243  49.298  0.00  0.00    +0.000 S 
ENDROOT
BRANCH   1   6
ATOM      2  C   UNL     1      37.262  30.177  51.425  0.00  0.00    +0.000 A 
ATOM      3  C   UNL     1      38.121  30.762  50.470  0.00  0.00    +0.000 A 
ATOM      4  C   UNL     1      37.847  30.549  49.115  0.00  0.00    +0.000 A 
ATOM      5  N   UNL     1      36.768  29.792  48.787  0.00  0.00    +0.000 NA
ATOM      6  C   UNL     1      35.957  29.240  49.720  0.00  0.00    +0.000 A 
ATOM      7  N   UNL     1      36.209  29.436  51.019  0.00  0.00    +0.000 NA
ATOM      8  H   UNL     1      37.447  30.323  52.471  0.00  0.00    +0.000 HD
ATOM      9  H   UNL     1      38.949  31.345  50.839  0.00  0.00    +0.000 HD
ATOM     10  H   UNL     1      38.488  30.985  48.388  0.00  0.00    +0.000 HD
ENDBRANCH   1   6
BRANCH   1  13
ATOM     11  F   UNL     1      36.697  26.960  50.826  0.00  0.00    +0.000 F 
ATOM     12  C   UNL     1      36.015  26.141  49.975  0.00  0.00    +0.000 A 
ATOM     13  C   UNL     1      34.960  26.516  49.153  0.00  0.00    +0.000 A 
ATOM     14  C   UNL     1      34.369  25.569  48.343  0.00  0.00    +0.000 A 
ATOM     15  H   UNL     1      33.551  25.959  47.735  0.00  0.00    +0.000 HD
ATOM     16  C   UNL     1      34.830  24.269  48.360  0.00  0.00    +0.000 A 
ATOM     17  H   UNL     1      34.326  23.571  47.703  0.00  0.00    +0.000 HD
ATOM     18  C   UNL     1      35.878  23.893  49.176  0.00  0.00    +0.000 A 
ATOM     19  C   UNL     1      36.486  24.843  50.001  0.00  0.00    +0.000 A 
ENDBRANCH   1  13
TORSDOF 2
