REMARK  Name = 
REMARK  5 active torsions:
REMARK  status: ('A' for Active; 'I' for Inactive)
REMARK    1  A    between atoms: C_11  and  C_12
REMARK    2  A    between atoms: C_11  and  C_16
REMARK    3  A    between atoms: C_16  and  O_17
REMARK    4  A    between atoms: C_16  and  C_35
REMARK    5  A    between atoms: O_17  and  C_18
REMARK                            x       y       z     vdW  Elec       q    Type
REMARK                         _______ _______ _______ _____ _____    ______ ____
ROOT
ATOM      1  C   UNL     1      36.687  29.971  49.017  0.00  0.00    +0.000 A 
ATOM      2  C   UNL     1      37.696  30.633  48.313  0.00  0.00    +0.000 A 
ATOM      3  C   UNL     1      37.488  30.912  46.971  0.00  0.00    +0.000 A 
ATOM      4  N   UNL     1      36.334  30.536  46.415  0.00  0.00    +0.000 NA
ATOM      5  C   UNL     1      35.368  29.898  47.107  0.00  0.00    +0.000 A 
ATOM      6  N   UNL     1      35.548  29.620  48.396  0.00  0.00    +0.000 NA
ATOM      7  N   UNL     1      38.468  31.557  46.220  0.00  0.00    +0.000 N 
ATOM      8  C   UNL     1      39.443  32.556  46.732  0.00  0.00    +0.000 C 
ATOM      9  C   UNL     1      40.084  33.202  45.564  0.00  0.00    +0.000 C 
ATOM     10  C   UNL     1      39.225  32.849  44.447  0.00  0.00    +0.000 C 
ATOM     11  C   UNL     1      38.796  31.480  44.835  0.00  0.00    +0.000 C 
ATOM     12  H   UNL     1      36.960  29.803  50.070  0.00  0.00    +0.000 HD
ATOM     13  H   UNL     1      38.647  30.954  48.733  0.00  0.00    +0.000 HD
ATOM     14  H   UNL     1      34.416  29.574  46.699  0.00  0.00    +0.000 HD
ATOM     15  H   UNL     1      38.697  33.287  47.229  0.00  0.00    +0.000 HD
ATOM     16  H   UNL     1      40.036  32.245  47.563  0.00  0.00    +0.000 HD
ATOM     17  H   UNL     1      39.760  34.344  45.721  0.00  0.00    +0.000 HD
ATOM     18  H   UNL     1      41.123  33.382  45.506  0.00  0.00    +0.000 HD
ATOM     19  H   UNL     1      38.393  33.528  44.209  0.00  0.00    +0.000 HD
ATOM     20  H   UNL     1      39.871  32.735  43.524  0.00  0.00    +0.000 HD
ENDROOT
BRANCH  11  21
ATOM     21  C   UNL     1      37.639  31.032  43.938  0.00  0.00    +0.000 C 
ATOM     22  F   UNL     1      36.513  31.747  44.289  0.00  0.00    +0.000 F 
ATOM     23  F   UNL     1      37.312  29.714  44.026  0.00  0.00    +0.000 F 
ATOM     24  F   UNL     1      37.959  31.424  42.653  0.00  0.00    +0.000 F 
ENDBRANCH  11  21
BRANCH  11  25
ATOM     25  C   UNL     1      39.834  30.506  44.674  0.00  0.00    +0.000 C 
ATOM     26  H   UNL     1      39.548  29.533  45.006  0.00  0.00    +0.000 HD
BRANCH  25  29
ATOM     27  F   UNL     1      41.679  32.726  44.699  0.00  0.00    +0.000 F 
ATOM     28  C   UNL     1      41.976  31.703  45.530  0.00  0.00    +0.000 A 
ATOM     29  C   UNL     1      41.143  30.596  45.550  0.00  0.00    +0.000 A 
ATOM     30  C   UNL     1      41.533  29.641  46.477  0.00  0.00    +0.000 A 
ATOM     31  H   UNL     1      40.880  28.751  46.513  0.00  0.00    +0.000 HD
ATOM     32  C   UNL     1      42.610  29.712  47.313  0.00  0.00    +0.000 A 
ATOM     33  H   UNL     1      42.776  28.887  47.974  0.00  0.00    +0.000 HD
ATOM     34  C   UNL     1      43.352  30.839  47.203  0.00  0.00    +0.000 A 
ATOM     35  C   UNL     1      43.075  31.861  46.329  0.00  0.00    +0.000 A 
ENDBRANCH  25  29
BRANCH  25  36
ATOM     36  O   UNL     1      40.347  30.691  43.532  0.00  0.00    +0.000 OA
BRANCH  36  37
ATOM     37  C   UNL     1      40.991  29.982  42.584  0.00  0.00    +0.000 C 
ATOM     38  O   UNL     1      40.764  30.434  41.457  0.00  0.00    +0.000 OA
ATOM     39  N   UNL     1      41.858  28.908  42.241  0.00  0.00    +0.000 N 
ATOM     40  H   UNL     1      42.887  29.141  42.326  0.00  0.00    +0.000 HD
ATOM     41  H   UNL     1      41.483  27.972  41.934  0.00  0.00    +0.000 HD
ENDBRANCH  36  37
ENDBRANCH  25  36
ENDBRANCH  11  25
TORSDOF 5
