
 OpenBabel03262522023D

 39 42  0  0  1  0  0  0  0  0999 V2000
   34.4760   29.1330   48.8510 C   0  0  2  0  0  0  0  0  0  0  0  0
   35.1730   28.4110   49.9730 C   0  0  0  0  0  0  0  0  0  0  0  0
   36.3430   29.1580   50.3640 N   0  0  0  0  0  0  0  0  0  0  0  0
   37.3330   29.8730   51.1080 C   0  0  0  0  0  0  0  0  0  0  0  0
   37.6280   30.0640   52.3120 O   0  0  0  0  0  0  0  0  0  0  0  0
   38.0030   30.3960   49.9230 C   0  0  1  0  0  0  0  0  0  0  0  0
   37.1450   29.3930   49.1930 C   0  0  2  0  0  0  0  0  0  0  0  0
   35.8430   30.1190   48.1440 S   0  0  0  0  0  0  0  0  0  0  0  0
   35.5470   27.4330   49.5890 H   0  0  0  0  0  0  0  0  0  0  0  0
   34.5360   28.2310   50.8360 H   0  0  0  0  0  0  0  0  0  0  0  0
   39.0760   30.1520   49.8210 H   0  0  0  0  0  0  0  0  0  0  0  0
   37.6640   28.5160   48.7590 H   0  0  0  0  0  0  0  0  0  0  0  0
   33.3070   29.9600   49.2800 C   0  0  0  0  0  0  0  0  0  0  0  0
   32.5780   29.3230   49.7700 H   0  0  0  0  0  0  0  0  0  0  0  0
   33.7040   30.6490   50.0960 H   0  0  0  0  0  0  0  0  0  0  0  0
   32.9820   30.6020   48.4670 H   0  0  0  0  0  0  0  0  0  0  0  0
   34.1130   28.1210   47.7710 C   0  0  0  0  0  0  0  0  0  0  0  0
   34.4840   27.1060   48.0420 H   0  0  0  0  0  0  0  0  0  0  0  0
   34.5930   28.4050   46.7980 H   0  0  0  0  0  0  0  0  0  0  0  0
   32.4130   29.6970   45.9760 F   0  0  0  0  0  0  0  0  0  0  0  0
   31.8390   28.7560   46.7450 C   0  0  0  0  0  0  0  0  0  0  0  0
   32.6560   28.0530   47.5960 C   0  0  0  0  0  0  0  0  0  0  0  0
   31.9720   27.1170   48.3820 C   0  0  0  0  0  0  0  0  0  0  0  0
   32.4550   26.4790   49.1030 H   0  0  0  0  0  0  0  0  0  0  0  0
   30.5980   26.9430   48.2860 C   0  0  0  0  0  0  0  0  0  0  0  0
   30.0720   26.2090   48.9050 H   0  0  0  0  0  0  0  0  0  0  0  0
   29.8380   27.6820   47.4110 C   0  0  0  0  0  0  0  0  0  0  0  0
   30.4880   28.5970   46.6380 C   0  0  0  0  0  0  0  0  0  0  0  0
   37.7760   31.8190   49.6180 C   0  0  0  0  0  0  0  0  0  0  0  0
   36.7910   32.3200   50.2300 O   0  0  0  0  0  0  0  0  0  0  0  0
   38.6080   32.5640   48.7080 C   0  0  0  0  0  0  0  0  0  0  0  0
   39.1350   33.7630   49.1680 C   0  0  0  0  0  0  0  0  0  0  0  0
   39.9550   34.5050   48.2800 C   0  0  0  0  0  0  0  0  0  0  0  0
   40.1750   33.9910   47.0230 N   0  0  0  0  0  0  0  0  0  0  0  0
   39.6450   32.8380   46.6380 C   0  0  0  0  0  0  0  0  0  0  0  0
   38.8650   32.1190   47.4650 N   0  0  0  0  0  0  0  0  0  0  0  0
   38.9590   34.1690   50.1670 H   0  0  0  0  0  0  0  0  0  0  0  0
   40.3500   35.4360   48.6690 H   0  0  0  0  0  0  0  0  0  0  0  0
   39.8700   32.5050   45.6300 H   0  0  0  0  0  0  0  0  0  0  0  0
  1 17  1  6  0  0  0
  1 13  1  0  0  0  0
  1  2  1  0  0  0  0
  2  3  1  0  0  0  0
  2 10  1  0  0  0  0
  3  4  1  0  0  0  0
  4  5  2  0  0  0  0
  6 11  1  6  0  0  0
  6  4  1  0  0  0  0
  7 12  1  6  0  0  0
  7  6  1  0  0  0  0
  7  3  1  0  0  0  0
  8  1  1  0  0  0  0
  8  7  1  0  0  0  0
  9  2  1  0  0  0  0
 13 14  1  0  0  0  0
 13 15  1  0  0  0  0
 16 13  1  0  0  0  0
 17 18  1  0  0  0  0
 19 17  1  0  0  0  0
 20 21  1  0  0  0  0
 21 22  1  0  0  0  0
 22 17  1  0  0  0  0
 22 23  2  0  0  0  0
 23 24  1  0  0  0  0
 25 23  1  0  0  0  0
 25 26  1  0  0  0  0
 27 25  2  0  0  0  0
 28 21  2  0  0  0  0
 28 27  1  0  0  0  0
 29  6  1  0  0  0  0
 29 30  2  0  0  0  0
 31 32  1  0  0  0  0
 31 29  1  0  0  0  0
 32 37  1  0  0  0  0
 33 38  1  0  0  0  0
 33 32  2  0  0  0  0
 34 33  1  0  0  0  0
 35 34  2  0  0  0  0
 35 36  1  0  0  0  0
 36 31  2  0  0  0  0
 39 35  1  0  0  0  0
M  END
>  <minimizedAffinity>
-5.49309826

>  <minimizedRMSD>
1.8688159

$$$$
