
     RDKit          3D

 21 22  0  0  0  0  0  0  0  0999 V2000
   36.8921   29.8923   51.3186 C   0  0  0  0  0  0  0  0  0  0  0  0
   37.5905   30.2252   50.1400 C   0  0  0  0  0  0  0  0  0  0  0  0
   37.0059   29.8774   48.9185 C   0  0  0  0  0  0  0  0  0  0  0  0
   35.8121   29.2456   48.9313 N   0  0  0  0  0  0  0  0  0  0  0  0
   35.1638   28.9380   50.0723 C   0  0  0  0  0  0  0  0  0  0  0  0
   35.6914   29.2552   51.2782 N   0  0  0  0  0  0  0  0  0  0  0  0
   38.7832   30.8633   50.3482 O   0  0  0  0  0  0  0  0  0  0  0  0
   37.2467   30.1111   52.3088 H   0  0  0  0  0  0  0  0  0  0  0  0
   37.5626   30.1454   48.0640 H   0  0  0  0  0  0  0  0  0  0  0  0
   34.2225   28.4383   50.0332 H   0  0  0  0  0  0  0  0  0  0  0  0
   37.6618   32.8049   48.6530 F   0  0  0  0  0  0  0  0  0  0  0  0
   38.4505   33.2505   49.6546 C   0  0  0  0  0  0  0  0  0  0  0  0
   38.9613   32.2364   50.4404 C   0  0  0  0  0  0  0  0  0  0  0  0
   39.7930   32.5633   51.5117 C   0  0  0  0  0  0  0  0  0  0  0  0
   40.2579   31.8498   52.2048 H   0  0  0  0  0  0  0  0  0  0  0  0
   40.1244   33.8616   51.8155 C   0  0  0  0  0  0  0  0  0  0  0  0
   40.7648   34.1563   52.6360 H   0  0  0  0  0  0  0  0  0  0  0  0
   39.6007   34.8673   51.0136 C   0  0  0  0  0  0  0  0  0  0  0  0
   38.7720   34.5588   49.9444 C   0  0  0  0  0  0  0  0  0  0  0  0
   39.8271   35.9002   51.2058 H   0  0  0  0  0  0  0  0  0  0  0  0
   38.3280   35.2850   49.2777 H   0  0  0  0  0  0  0  0  0  0  0  0
  2  7  1  0
  2  1  2  0
  3  4  2  0
  3  2  1  0
  4  5  1  0
  5  6  2  0
  6  1  1  0
  1  8  1  0
  3  9  1  0
  5 10  1  0
 11 12  1  0
 12 13  2  0
 13 14  1  0
 14 15  1  0
 14 16  2  0
 16 17  1  0
 16 18  1  0
 18 19  2  0
 19 12  1  0
 18 20  1  0
 19 21  1  0
  7 13  1  0
M  ISO  5   8  14   9  14  10  14  15  15  17  16
M  END
>  <DihAtoms>  (1) 
1,6,12,11

>  <DihDeg>  (1) 
-59.99822074529671

$$$$
