REMARK  Name = 
REMARK  2 active torsions:
REMARK  status: ('A' for Active; 'I' for Inactive)
REMARK    1  A    between atoms: C_2  and  O_7
REMARK    2  A    between atoms: O_7  and  C_13
REMARK                            x       y       z     vdW  Elec       q    Type
REMARK                         _______ _______ _______ _____ _____    ______ ____
ROOT
ATOM      1  O   UNL     1      38.783  30.863  50.348  0.00  0.00    +0.000 OA
ENDROOT
BRANCH   1   3
ATOM      2  C   UNL     1      36.892  29.892  51.319  0.00  0.00    +0.000 A 
ATOM      3  C   UNL     1      37.590  30.225  50.140  0.00  0.00    +0.000 A 
ATOM      4  C   UNL     1      37.006  29.877  48.919  0.00  0.00    +0.000 A 
ATOM      5  N   UNL     1      35.812  29.246  48.931  0.00  0.00    +0.000 NA
ATOM      6  C   UNL     1      35.164  28.938  50.072  0.00  0.00    +0.000 A 
ATOM      7  N   UNL     1      35.691  29.255  51.278  0.00  0.00    +0.000 NA
ATOM      8  H   UNL     1      37.247  30.111  52.309  0.00  0.00    +0.000 HD
ATOM      9  H   UNL     1      37.563  30.145  48.064  0.00  0.00    +0.000 HD
ATOM     10  H   UNL     1      34.222  28.438  50.033  0.00  0.00    +0.000 HD
ENDBRANCH   1   3
BRANCH   1  13
ATOM     11  F   UNL     1      37.662  32.805  48.653  0.00  0.00    +0.000 F 
ATOM     12  C   UNL     1      38.450  33.251  49.655  0.00  0.00    +0.000 A 
ATOM     13  C   UNL     1      38.961  32.236  50.440  0.00  0.00    +0.000 A 
ATOM     14  C   UNL     1      39.793  32.563  51.512  0.00  0.00    +0.000 A 
ATOM     15  H   UNL     1      40.258  31.850  52.205  0.00  0.00    +0.000 HD
ATOM     16  C   UNL     1      40.124  33.862  51.816  0.00  0.00    +0.000 A 
ATOM     17  H   UNL     1      40.765  34.156  52.636  0.00  0.00    +0.000 HD
ATOM     18  C   UNL     1      39.601  34.867  51.014  0.00  0.00    +0.000 A 
ATOM     19  C   UNL     1      38.772  34.559  49.944  0.00  0.00    +0.000 A 
ENDBRANCH   1  13
TORSDOF 2
