REMARK  Name = 
REMARK  5 active torsions:
REMARK  status: ('A' for Active; 'I' for Inactive)
REMARK    1  A    between atoms: S_1  and  C_6
REMARK    2  A    between atoms: S_1  and  C_9
REMARK    3  A    between atoms: C_8  and  O_13
REMARK    4  A    between atoms: C_12  and  O_14
REMARK    5  A    between atoms: O_14  and  C_26
REMARK                            x       y       z     vdW  Elec       q    Type
REMARK                         _______ _______ _______ _____ _____    ______ ____
ROOT
ATOM      1  C   UNL     1      32.384  28.358  47.478  0.00  0.00    +0.000 C 
ATOM      2  C   UNL     1      33.626  28.413  48.346  0.00  0.00    +0.000 C 
ATOM      3  O   UNL     1      34.190  27.158  48.353  0.00  0.00    +0.000 OA
ATOM      4  C   UNL     1      33.561  26.369  47.414  0.00  0.00    +0.000 C 
ATOM      5  C   UNL     1      32.843  27.330  46.451  0.00  0.00    +0.000 C 
ATOM      6  H   UNL     1      31.488  28.015  47.999  0.00  0.00    +0.000 HD
ATOM      7  H   UNL     1      33.419  28.808  49.355  0.00  0.00    +0.000 HD
ATOM      8  H   UNL     1      34.312  25.763  46.860  0.00  0.00    +0.000 HD
ATOM      9  H   UNL     1      32.760  25.744  47.860  0.00  0.00    +0.000 HD
ATOM     10  H   UNL     1      33.599  27.796  45.821  0.00  0.00    +0.000 HD
ENDROOT
BRANCH   1  11
ATOM     11  O   UNL     1      32.142  29.601  46.877  0.00  0.00    +0.000 OA
ATOM     12  H   UNL     1      32.873  29.893  46.308  0.00  0.00    +0.000 HD
ENDBRANCH   1  11
BRANCH   2  13
ATOM     13  S   UNL     1      34.798  29.543  47.513  0.00  0.00    +0.000 S 
BRANCH  13  18
ATOM     14  C   UNL     1      37.373  29.467  50.528  0.00  0.00    +0.000 A 
ATOM     15  C   UNL     1      37.979  30.727  50.520  0.00  0.00    +0.000 A 
ATOM     16  C   UNL     1      37.575  31.640  49.541  0.00  0.00    +0.000 A 
ATOM     17  N   UNL     1      36.618  31.259  48.651  0.00  0.00    +0.000 NA
ATOM     18  C   UNL     1      36.052  30.027  48.690  0.00  0.00    +0.000 A 
ATOM     19  N   UNL     1      36.424  29.134  49.620  0.00  0.00    +0.000 NA
ATOM     20  H   UNL     1      37.651  28.726  51.265  0.00  0.00    +0.000 HD
ATOM     21  H   UNL     1      38.729  30.965  51.252  0.00  0.00    +0.000 HD
ATOM     22  H   UNL     1      38.024  32.624  49.507  0.00  0.00    +0.000 HD
ENDBRANCH  13  18
ENDBRANCH   2  13
BRANCH   5  23
ATOM     23  O   UNL     1      31.792  26.685  45.845  0.00  0.00    +0.000 OA
BRANCH  23  26
ATOM     24  F   UNL     1      34.036  26.036  44.509  0.00  0.00    +0.000 F 
ATOM     25  C   UNL     1      32.858  26.252  43.875  0.00  0.00    +0.000 A 
ATOM     26  C   UNL     1      31.639  26.593  44.472  0.00  0.00    +0.000 A 
ATOM     27  C   UNL     1      30.521  26.781  43.687  0.00  0.00    +0.000 A 
ATOM     28  H   UNL     1      29.651  27.037  44.259  0.00  0.00    +0.000 HD
ATOM     29  C   UNL     1      30.615  26.631  42.319  0.00  0.00    +0.000 A 
ATOM     30  H   UNL     1      29.692  26.797  41.789  0.00  0.00    +0.000 HD
ATOM     31  C   UNL     1      31.813  26.294  41.707  0.00  0.00    +0.000 A 
ATOM     32  C   UNL     1      32.948  26.101  42.489  0.00  0.00    +0.000 A 
ENDBRANCH  23  26
ENDBRANCH   5  23
TORSDOF 5
