
 OpenBabel03272507373D

 23 24  0  0  0  0  0  0  0  0999 V2000
   37.6330   31.1580   48.5060 C   0  0  0  0  0  0  0  0  0  0  0  0
   36.7680   30.0580   48.4650 C   0  0  0  0  0  0  0  0  0  0  0  0
   36.5770   29.2810   49.5820 C   0  0  0  0  0  0  0  0  0  0  0  0
   37.2650   29.6320   50.7200 N   0  0  0  0  0  0  0  0  0  0  0  0
   38.0960   30.6970   50.7400 C   0  0  0  0  0  0  0  0  0  0  0  0
   38.2800   31.4460   49.6630 N   0  0  0  0  0  0  0  0  0  0  0  0
   35.9250   28.4170   49.6280 H   0  0  0  0  0  0  0  0  0  0  0  0
   38.5790   30.8800   51.6730 H   0  0  0  0  0  0  0  0  0  0  0  0
   34.6780   30.0390   47.2000 C   0  0  0  0  0  0  0  0  0  0  0  0
   33.8310   30.6640   47.9150 O   0  0  0  0  0  0  0  0  0  0  0  0
   36.0410   29.6550   47.3350 N   0  0  0  0  0  0  0  0  0  0  0  0
   34.0370   29.8270   46.3260 H   0  0  0  0  0  0  0  0  0  0  0  0
   36.3380   29.0790   46.5060 H   0  0  0  0  0  0  0  0  0  0  0  0
   37.7000   31.8120   47.3080 O   0  0  0  0  0  0  0  0  0  0  0  0
   39.7790   33.6180   47.3000 F   0  0  0  0  0  0  0  0  0  0  0  0
   39.6950   32.6100   46.4010 C   0  0  0  0  0  0  0  0  0  0  0  0
   38.6780   31.6760   46.3560 C   0  0  0  0  0  0  0  0  0  0  0  0
   38.7310   30.7140   45.3870 C   0  0  0  0  0  0  0  0  0  0  0  0
   37.9140   29.9820   45.3670 H   0  0  0  0  0  0  0  0  0  0  0  0
   39.7150   30.5840   44.4360 C   0  0  0  0  0  0  0  0  0  0  0  0
   39.7000   29.7980   43.6930 H   0  0  0  0  0  0  0  0  0  0  0  0
   40.7200   31.5450   44.5180 C   0  0  0  0  0  0  0  0  0  0  0  0
   40.7120   32.5290   45.4700 C   0  0  0  0  0  0  0  0  0  0  0  0
  1  6  1  0  0  0  0
  2  1  2  0  0  0  0
  2  3  1  0  0  0  0
  3  7  1  0  0  0  0
  3  4  2  0  0  0  0
  4  5  1  0  0  0  0
  5  8  1  0  0  0  0
  6  5  2  0  0  0  0
  9 11  1  0  0  0  0
  9 10  2  0  0  0  0
 11  2  1  0  0  0  0
 12  9  1  0  0  0  0
 13 11  1  0  0  0  0
 14  1  1  0  0  0  0
 16 15  1  0  0  0  0
 17 16  1  0  0  0  0
 17 14  1  0  0  0  0
 18 17  2  0  0  0  0
 19 18  1  0  0  0  0
 20 22  2  0  0  0  0
 20 18  1  0  0  0  0
 21 20  1  0  0  0  0
 22 23  1  0  0  0  0
 23 16  2  0  0  0  0
M  END
>  <minimizedAffinity>
-4.77401209

>  <minimizedRMSD>
6.99811554

$$$$
