
 OpenBabel03272510133D

 41 44  0  0  0  0  0  0  0  0999 V2000
   38.4300   31.4240   48.7760 C   0  0  0  0  0  0  0  0  0  0  0  0
   38.5150   32.6320   49.4220 C   0  0  0  0  0  0  0  0  0  0  0  0
   39.0910   33.5360   48.5290 C   0  0  0  0  0  0  0  0  0  0  0  0
   39.3320   32.8760   47.4010 N   0  0  0  0  0  0  0  0  0  0  0  0
   38.9430   31.6520   47.5610 N   0  0  0  0  0  0  0  0  0  0  0  0
   38.2550   33.0140   50.3980 H   0  0  0  0  0  0  0  0  0  0  0  0
   39.3310   34.5870   48.6410 H   0  0  0  0  0  0  0  0  0  0  0  0
   39.9220   33.3860   46.1910 C   0  0  0  0  0  0  0  0  0  0  0  0
   39.1710   33.8760   45.5290 H   0  0  0  0  0  0  0  0  0  0  0  0
   40.6170   34.2010   46.4750 H   0  0  0  0  0  0  0  0  0  0  0  0
   40.6620   32.2880   45.5020 C   0  0  0  0  0  0  0  0  0  0  0  0
   41.6460   32.7430   45.1790 H   0  0  0  0  0  0  0  0  0  0  0  0
   40.9870   31.5820   46.3240 H   0  0  0  0  0  0  0  0  0  0  0  0
   39.8960   33.7960   43.2400 F   0  0  0  0  0  0  0  0  0  0  0  0
   39.6500   32.4480   43.3510 C   0  0  0  0  0  0  0  0  0  0  0  0
   39.9750   31.6060   44.4160 C   0  0  0  0  0  0  0  0  0  0  0  0
   39.6150   30.2810   44.2800 C   0  0  0  0  0  0  0  0  0  0  0  0
   39.8850   29.6560   45.1090 H   0  0  0  0  0  0  0  0  0  0  0  0
   38.9720   29.7810   43.1740 C   0  0  0  0  0  0  0  0  0  0  0  0
   38.7460   28.7060   43.2020 H   0  0  0  0  0  0  0  0  0  0  0  0
   38.6610   30.6230   42.1360 C   0  0  0  0  0  3  0  0  0  0  0  0
   39.0010   31.9590   42.2280 C   0  0  0  0  0  3  0  0  0  0  0  0
   37.8780   30.4000   49.5230 O   0  0  0  0  0  0  0  0  0  0  0  0
   34.1440   28.8560   48.3440 C   0  0  0  0  0  0  0  0  0  0  0  0
   34.7820   28.3950   49.4590 C   0  0  0  0  0  0  0  0  0  0  0  0
   35.9950   28.8530   49.8990 C   0  0  0  0  0  0  0  0  0  0  0  0
   36.6580   29.8280   49.2240 C   0  0  0  0  0  0  0  0  0  0  0  0
   36.0140   30.3090   48.0750 C   0  0  0  0  0  0  0  0  0  0  0  0
   34.8200   29.8410   47.6670 N   0  0  0  0  0  0  0  0  0  0  0  0
   34.3130   27.6180   50.0490 H   0  0  0  0  0  0  0  0  0  0  0  0
   36.4930   28.4780   50.7910 H   0  0  0  0  0  0  0  0  0  0  0  0
   36.4250   31.0820   47.4440 H   0  0  0  0  0  0  0  0  0  0  0  0
   32.0300   27.5690   48.6150 C   0  0  0  0  0  0  0  0  0  0  0  0
   32.8800   28.3970   47.8630 C   0  0  0  0  0  0  0  0  0  0  0  0
   32.4390   28.7550   46.6180 C   0  0  0  0  0  0  0  0  0  0  0  0
   31.2310   28.3150   46.1620 N   0  0  0  0  0  0  0  0  0  0  0  0
   30.4480   27.5110   46.9420 C   0  0  0  0  0  0  0  0  0  0  0  0
   30.8340   27.1280   48.1740 N   0  0  0  0  0  0  0  0  0  0  0  0
   32.3280   27.2550   49.6040 H   0  0  0  0  0  0  0  0  0  0  0  0
   33.0250   29.3960   45.9540 H   0  0  0  0  0  0  0  0  0  0  0  0
   29.5230   27.2460   46.4420 H   0  0  0  0  0  0  0  0  0  0  0  0
  1  2  1  0  0  0  0
  1 23  1  0  0  0  0
  2  6  1  0  0  0  0
  3  7  1  0  0  0  0
  3  2  2  0  0  0  0
  4  5  1  0  0  0  0
  4  3  1  0  0  0  0
  5  1  2  0  0  0  0
  8 10  1  0  0  0  0
  8  4  1  0  0  0  0
  9  8  1  0  0  0  0
 11  8  1  0  0  0  0
 11 13  1  0  0  0  0
 12 11  1  0  0  0  0
 14 15  1  0  0  0  0
 15 16  1  0  0  0  0
 16 11  1  0  0  0  0
 17 16  2  0  0  0  0
 17 18  1  0  0  0  0
 19 20  1  0  0  0  0
 19 17  1  0  0  0  0
 21 22  1  0  0  0  0
 21 19  2  0  0  0  0
 22 15  2  0  0  0  0
 24 25  1  0  0  0  0
 25 26  2  0  0  0  0
 25 30  1  0  0  0  0
 26 31  1  0  0  0  0
 27 23  1  0  0  0  0
 27 26  1  0  0  0  0
 28 27  2  0  0  0  0
 29 28  1  0  0  0  0
 29 24  2  0  0  0  0
 32 28  1  0  0  0  0
 33 39  1  0  0  0  0
 34 24  1  0  0  0  0
 34 33  2  0  0  0  0
 35 34  1  0  0  0  0
 36 35  2  0  0  0  0
 36 37  1  0  0  0  0
 37 38  2  0  0  0  0
 38 33  1  0  0  0  0
 40 35  1  0  0  0  0
 41 37  1  0  0  0  0
M  END
>  <minimizedAffinity>
-6.37640238

>  <minimizedRMSD>
1.13074696

$$$$
