
 OpenBabel03262520213D

 23 24  0  0  0  0  0  0  0  0999 V2000
   35.7140   29.5250   49.3400 C   0  0  0  0  0  0  0  0  0  0  0  0
   35.8580   29.9630   48.0020 C   0  0  0  0  0  0  0  0  0  0  0  0
   34.8510   29.7090   47.0820 C   0  0  0  0  0  0  0  0  0  0  0  0
   33.7610   29.0370   47.5420 N   0  0  0  0  0  0  0  0  0  0  0  0
   33.6210   28.6220   48.8080 C   0  0  0  0  0  0  0  0  0  0  0  0
   34.6040   28.8730   49.6890 N   0  0  0  0  0  0  0  0  0  0  0  0
   32.4000   27.9330   49.0910 N   0  0  0  0  0  0  0  0  0  0  0  0
   36.4770   29.7030   50.0870 H   0  0  0  0  0  0  0  0  0  0  0  0
   32.3070   27.1190   49.7480 H   0  0  0  0  0  0  0  0  0  0  0  0
   31.5080   28.2270   48.6340 H   0  0  0  0  0  0  0  0  0  0  0  0
   36.4270   32.1510   49.5260 F   0  0  0  0  0  0  0  0  0  0  0  0
   37.2870   31.7520   48.5420 C   0  0  0  0  0  0  0  0  0  0  0  0
   37.0950   30.6580   47.7110 C   0  0  0  0  0  0  0  0  0  0  0  0
   38.0680   30.3710   46.7460 C   0  0  0  0  0  0  0  0  0  0  0  0
   37.8170   29.5040   46.1590 H   0  0  0  0  0  0  0  0  0  0  0  0
   39.1790   31.1840   46.6550 C   0  0  0  0  0  0  0  0  0  0  0  0
   39.8950   30.9030   45.8820 H   0  0  0  0  0  0  0  0  0  0  0  0
   39.3510   32.2670   47.4910 C   0  0  0  0  0  0  0  0  0  0  0  0
   38.4010   32.5620   48.4470 C   0  0  0  0  0  0  0  0  0  0  0  0
   35.0270   30.1780   45.6930 C   0  0  0  0  0  0  0  0  0  0  0  0
   35.6210   29.1890   44.9930 F   0  0  0  0  0  0  0  0  0  0  0  0
   33.8390   30.5560   45.1110 F   0  0  0  0  0  0  0  0  0  0  0  0
   35.8820   31.3000   45.6460 F   0  0  0  0  0  0  0  0  0  0  0  0
  1  6  1  0  0  0  0
  1  8  1  0  0  0  0
  2  1  2  0  0  0  0
  3  4  2  0  0  0  0
  3  2  1  0  0  0  0
  4  5  1  0  0  0  0
  5  7  1  0  0  0  0
  5  6  2  0  0  0  0
  7  9  1  0  0  0  0
 10  7  1  0  0  0  0
 12 11  1  0  0  0  0
 13  2  1  0  0  0  0
 13 12  2  0  0  0  0
 14 13  1  0  0  0  0
 15 14  1  0  0  0  0
 16 14  2  0  0  0  0
 16 18  1  0  0  0  0
 17 16  1  0  0  0  0
 18 19  2  0  0  0  0
 19 12  1  0  0  0  0
 20  3  1  0  0  0  0
 21 20  1  0  0  0  0
 22 20  1  0  0  0  0
 23 20  1  0  0  0  0
M  END
>  <minimizedAffinity>
-4.62651682

>  <minimizedRMSD>
4.58677912

$$$$
