
 OpenBabel03272506433D

 32 34  0  0  1  0  0  0  0  0999 V2000
   30.9750   26.9110   48.2720 C   0  0  2  0  0  0  0  0  0  0  0  0
   32.4620   26.6860   48.0830 C   0  0  1  0  0  0  0  0  0  0  0  0
   32.6210   25.5880   47.2690 O   0  0  0  0  0  0  0  0  0  0  0  0
   31.3980   25.2230   46.7490 C   0  0  0  0  0  0  0  0  0  0  0  0
   30.4770   26.4450   46.9090 C   0  0  1  0  0  0  0  0  0  0  0  0
   30.5300   26.3170   49.0730 H   0  0  0  0  0  0  0  0  0  0  0  0
   33.0020   26.6040   49.0420 H   0  0  0  0  0  0  0  0  0  0  0  0
   31.5030   24.9620   45.6720 H   0  0  0  0  0  0  0  0  0  0  0  0
   30.9180   24.4130   47.3350 H   0  0  0  0  0  0  0  0  0  0  0  0
   30.7760   27.1860   46.1690 H   0  0  0  0  0  0  0  0  0  0  0  0
   30.6990   28.2700   48.4740 O   0  0  0  0  0  0  0  0  0  0  0  0
   30.9780   28.8260   47.7280 H   0  0  0  0  0  0  0  0  0  0  0  0
   33.1020   28.1420   47.1820 S   0  0  0  0  0  0  0  0  0  0  0  0
   35.2110   29.2420   50.3560 C   0  0  0  0  0  0  0  0  0  0  0  0
   36.0100   30.3000   49.9120 C   0  0  0  0  0  0  0  0  0  0  0  0
   35.8930   30.6910   48.5750 C   0  0  0  0  0  0  0  0  0  0  0  0
   35.0120   30.0270   47.7770 N   0  0  0  0  0  0  0  0  0  0  0  0
   34.2530   29.0040   48.2430 C   0  0  0  0  0  0  0  0  0  0  0  0
   34.3490   28.6110   49.5230 N   0  0  0  0  0  0  0  0  0  0  0  0
   35.2650   28.9020   51.3810 H   0  0  0  0  0  0  0  0  0  0  0  0
   36.6860   30.7830   50.5940 H   0  0  0  0  0  0  0  0  0  0  0  0
   36.4970   31.5070   48.1990 H   0  0  0  0  0  0  0  0  0  0  0  0
   29.1650   26.0400   46.9370 O   0  0  0  0  0  0  0  0  0  0  0  0
   28.3710   27.8450   45.1050 F   0  0  0  0  0  0  0  0  0  0  0  0
   27.7850   27.7510   46.3250 C   0  0  0  0  0  0  0  0  0  0  0  0
   28.1210   26.8540   47.3440 C   0  0  0  0  0  0  0  0  0  0  0  0
   27.4280   26.8820   48.5360 C   0  0  0  0  0  0  0  0  0  0  0  0
   27.7760   26.1470   49.2360 H   0  0  0  0  0  0  0  0  0  0  0  0
   26.4110   27.7970   48.7130 C   0  0  0  0  0  0  0  0  0  0  0  0
   25.9270   27.7440   49.6740 H   0  0  0  0  0  0  0  0  0  0  0  0
   26.0630   28.6950   47.7150 C   0  0  0  0  0  0  0  0  0  0  0  0
   26.7550   28.6760   46.5080 C   0  0  0  0  0  0  0  0  0  0  0  0
  1 11  1  0  0  0  0
  1  6  1  1  0  0  0
  2  1  1  0  0  0  0
  2  7  1  1  0  0  0
  3  2  1  0  0  0  0
  4  5  1  0  0  0  0
  4  3  1  0  0  0  0
  4  9  1  0  0  0  0
  5 10  1  6  0  0  0
  5 23  1  0  0  0  0
  5  1  1  0  0  0  0
  8  4  1  0  0  0  0
 12 11  1  0  0  0  0
 13  2  1  0  0  0  0
 13 18  1  0  0  0  0
 14 20  1  0  0  0  0
 15 14  1  0  0  0  0
 15 21  1  0  0  0  0
 16 15  2  0  0  0  0
 17 18  2  0  0  0  0
 17 16  1  0  0  0  0
 18 19  1  0  0  0  0
 19 14  2  0  0  0  0
 22 16  1  0  0  0  0
 23 26  1  0  0  0  0
 24 25  1  0  0  0  0
 25 32  2  0  0  0  0
 25 26  1  0  0  0  0
 26 27  2  0  0  0  0
 27 29  1  0  0  0  0
 27 28  1  0  0  0  0
 29 30  1  0  0  0  0
 31 29  2  0  0  0  0
 32 31  1  0  0  0  0
M  END
>  <minimizedAffinity>
-4.8616581

>  <minimizedRMSD>
4.32163811

$$$$
