
 OpenBabel03272506423D

 32 34  0  0  1  0  0  0  0  0999 V2000
   32.4300   28.3550   47.6550 C   0  0  2  0  0  0  0  0  0  0  0  0
   33.7370   28.3950   48.4230 C   0  0  1  0  0  0  0  0  0  0  0  0
   34.2950   27.1380   48.3670 O   0  0  0  0  0  0  0  0  0  0  0  0
   33.5910   26.3650   47.4690 C   0  0  0  0  0  0  0  0  0  0  0  0
   32.8030   27.3420   46.5800 C   0  0  1  0  0  0  0  0  0  0  0  0
   31.5760   28.0070   48.2400 H   0  0  0  0  0  0  0  0  0  0  0  0
   33.6110   28.7750   49.4500 H   0  0  0  0  0  0  0  0  0  0  0  0
   34.2940   25.7660   46.8480 H   0  0  0  0  0  0  0  0  0  0  0  0
   32.8260   25.7350   47.9670 H   0  0  0  0  0  0  0  0  0  0  0  0
   33.5080   27.8160   45.8990 H   0  0  0  0  0  0  0  0  0  0  0  0
   32.1450   29.6080   47.0930 O   0  0  0  0  0  0  0  0  0  0  0  0
   32.8300   29.9070   46.4720 H   0  0  0  0  0  0  0  0  0  0  0  0
   34.8430   29.5340   47.5160 S   0  0  0  0  0  0  0  0  0  0  0  0
   37.5230   29.5800   50.4390 C   0  0  0  0  0  0  0  0  0  0  0  0
   38.1380   30.8320   50.3480 C   0  0  0  0  0  0  0  0  0  0  0  0
   37.7070   31.7010   49.3400 C   0  0  0  0  0  0  0  0  0  0  0  0
   36.7160   31.2860   48.5040 N   0  0  0  0  0  0  0  0  0  0  0  0
   36.1420   30.0630   48.6240 C   0  0  0  0  0  0  0  0  0  0  0  0
   36.5390   29.2130   49.5830 N   0  0  0  0  0  0  0  0  0  0  0  0
   37.8210   28.8730   51.2020 H   0  0  0  0  0  0  0  0  0  0  0  0
   38.9160   31.0980   51.0410 H   0  0  0  0  0  0  0  0  0  0  0  0
   38.1620   32.6770   49.2430 H   0  0  0  0  0  0  0  0  0  0  0  0
   31.7050   26.7080   46.0490 O   0  0  0  0  0  0  0  0  0  0  0  0
   32.6100   25.4220   43.8650 F   0  0  0  0  0  0  0  0  0  0  0  0
   31.6380   26.3640   43.7950 C   0  0  0  0  0  0  0  0  0  0  0  0
   31.1000   27.0890   44.8630 C   0  0  0  0  0  0  0  0  0  0  0  0
   30.1090   28.0210   44.6290 C   0  0  0  0  0  0  0  0  0  0  0  0
   29.7790   28.5080   45.5250 H   0  0  0  0  0  0  0  0  0  0  0  0
   29.6600   28.2290   43.3410 C   0  0  0  0  0  0  0  0  0  0  0  0
   28.8860   28.9730   43.2560 H   0  0  0  0  0  0  0  0  0  0  0  0
   30.1800   27.5220   42.2690 C   0  0  0  0  0  3  0  0  0  0  0  0
   31.1810   26.5790   42.4930 C   0  0  0  0  0  3  0  0  0  0  0  0
  1  6  1  1  0  0  0
  1  2  1  0  0  0  0
  2  7  1  1  0  0  0
  3  2  1  0  0  0  0
  4  9  1  0  0  0  0
  4  3  1  0  0  0  0
  5 10  1  6  0  0  0
  5  4  1  0  0  0  0
  5  1  1  0  0  0  0
  8  4  1  0  0  0  0
 11  1  1  0  0  0  0
 12 11  1  0  0  0  0
 13  2  1  0  0  0  0
 13 18  1  0  0  0  0
 14 20  1  0  0  0  0
 15 14  1  0  0  0  0
 15 21  1  0  0  0  0
 16 15  2  0  0  0  0
 17 18  2  0  0  0  0
 17 16  1  0  0  0  0
 18 19  1  0  0  0  0
 19 14  2  0  0  0  0
 22 16  1  0  0  0  0
 23  5  1  0  0  0  0
 25 24  1  0  0  0  0
 25 26  1  0  0  0  0
 26 23  1  0  0  0  0
 27 26  2  0  0  0  0
 27 28  1  0  0  0  0
 29 27  1  0  0  0  0
 30 29  1  0  0  0  0
 31 32  1  0  0  0  0
 31 29  2  0  0  0  0
 32 25  2  0  0  0  0
M  END
>  <minimizedAffinity>
-3.74916267

>  <minimizedRMSD>
0.945198953

$$$$
