
 OpenBabel03272510133D

 41 44  0  0  0  0  0  0  0  0999 V2000
   38.3070   31.4860   48.9090 C   0  0  0  0  0  0  0  0  0  0  0  0
   38.4210   32.7270   49.4840 C   0  0  0  0  0  0  0  0  0  0  0  0
   39.0640   33.5510   48.5580 C   0  0  0  0  0  0  0  0  0  0  0  0
   39.3150   32.8130   47.4820 N   0  0  0  0  0  0  0  0  0  0  0  0
   38.8690   31.6180   47.7010 N   0  0  0  0  0  0  0  0  0  0  0  0
   38.1460   33.1790   50.4250 H   0  0  0  0  0  0  0  0  0  0  0  0
   39.3450   34.5950   48.6160 H   0  0  0  0  0  0  0  0  0  0  0  0
   39.9650   33.2240   46.2650 C   0  0  0  0  0  0  0  0  0  0  0  0
   39.3010   33.8440   45.6190 H   0  0  0  0  0  0  0  0  0  0  0  0
   40.7970   33.9020   46.5420 H   0  0  0  0  0  0  0  0  0  0  0  0
   40.4900   32.0200   45.5560 C   0  0  0  0  0  0  0  0  0  0  0  0
   41.6130   32.1490   45.5320 H   0  0  0  0  0  0  0  0  0  0  0  0
   40.3670   31.1630   46.2850 H   0  0  0  0  0  0  0  0  0  0  0  0
   39.2030   29.5360   45.1690 F   0  0  0  0  0  0  0  0  0  0  0  0
   39.3150   30.4760   44.1720 C   0  0  0  0  0  0  0  0  0  0  0  0
   39.9310   31.7260   44.2450 C   0  0  0  0  0  0  0  0  0  0  0  0
   39.9070   32.4880   43.0950 C   0  0  0  0  0  0  0  0  0  0  0  0
   40.3780   33.4470   43.1820 H   0  0  0  0  0  0  0  0  0  0  0  0
   39.3210   32.0720   41.9240 C   0  0  0  0  0  0  0  0  0  0  0  0
   39.3770   32.7810   41.0860 H   0  0  0  0  0  0  0  0  0  0  0  0
   38.7220   30.8390   41.8700 C   0  0  0  0  0  3  0  0  0  0  0  0
   38.7200   30.0420   42.9980 C   0  0  0  0  0  3  0  0  0  0  0  0
   37.6880   30.5330   49.6950 O   0  0  0  0  0  0  0  0  0  0  0  0
   34.0440   28.8950   48.3690 C   0  0  0  0  0  0  0  0  0  0  0  0
   34.7460   28.3290   49.3940 C   0  0  0  0  0  0  0  0  0  0  0  0
   35.9340   28.8090   49.8750 C   0  0  0  0  0  0  0  0  0  0  0  0
   36.5050   29.9190   49.3370 C   0  0  0  0  0  0  0  0  0  0  0  0
   35.7950   30.5100   48.2830 C   0  0  0  0  0  0  0  0  0  0  0  0
   34.6280   30.0160   47.8310 N   0  0  0  0  0  0  0  0  0  0  0  0
   34.3510   27.4410   49.8720 H   0  0  0  0  0  0  0  0  0  0  0  0
   36.4830   28.3490   50.6930 H   0  0  0  0  0  0  0  0  0  0  0  0
   36.1320   31.3950   47.7640 H   0  0  0  0  0  0  0  0  0  0  0  0
   31.9380   27.5860   48.5790 C   0  0  0  0  0  0  0  0  0  0  0  0
   32.8040   28.4150   47.8480 C   0  0  0  0  0  0  0  0  0  0  0  0
   32.4050   28.7540   46.5840 C   0  0  0  0  0  0  0  0  0  0  0  0
   31.2190   28.2940   46.0900 N   0  0  0  0  0  0  0  0  0  0  0  0
   30.4170   27.4890   46.8510 C   0  0  0  0  0  0  0  0  0  0  0  0
   30.7640   27.1260   48.1000 N   0  0  0  0  0  0  0  0  0  0  0  0
   32.2030   27.2870   49.5810 H   0  0  0  0  0  0  0  0  0  0  0  0
   33.0060   29.3940   45.9340 H   0  0  0  0  0  0  0  0  0  0  0  0
   29.5140   27.2080   46.3210 H   0  0  0  0  0  0  0  0  0  0  0  0
  1  2  1  0  0  0  0
  1 23  1  0  0  0  0
  2  6  1  0  0  0  0
  3  7  1  0  0  0  0
  3  2  2  0  0  0  0
  4  5  1  0  0  0  0
  4  3  1  0  0  0  0
  5  1  2  0  0  0  0
  8 10  1  0  0  0  0
  8  4  1  0  0  0  0
  9  8  1  0  0  0  0
 11  8  1  0  0  0  0
 11 13  1  0  0  0  0
 12 11  1  0  0  0  0
 15 16  1  0  0  0  0
 15 14  1  0  0  0  0
 16 11  1  0  0  0  0
 17 18  1  0  0  0  0
 17 16  2  0  0  0  0
 19 17  1  0  0  0  0
 20 19  1  0  0  0  0
 21 19  2  0  0  0  0
 21 22  1  0  0  0  0
 22 15  2  0  0  0  0
 24 25  1  0  0  0  0
 25 30  1  0  0  0  0
 25 26  2  0  0  0  0
 26 31  1  0  0  0  0
 27 23  1  0  0  0  0
 27 26  1  0  0  0  0
 28 27  2  0  0  0  0
 29 28  1  0  0  0  0
 29 24  2  0  0  0  0
 32 28  1  0  0  0  0
 33 39  1  0  0  0  0
 34 24  1  0  0  0  0
 34 33  2  0  0  0  0
 35 34  1  0  0  0  0
 36 35  2  0  0  0  0
 36 37  1  0  0  0  0
 37 38  2  0  0  0  0
 38 33  1  0  0  0  0
 40 35  1  0  0  0  0
 41 37  1  0  0  0  0
M  END
>  <minimizedAffinity>
-6.38337517

>  <minimizedRMSD>
1.43645716

$$$$
