
 OpenBabel03272506433D

 32 34  0  0  1  0  0  0  0  0999 V2000
   32.3940   28.3760   47.5150 C   0  0  2  0  0  0  0  0  0  0  0  0
   33.6410   28.4280   48.3750 C   0  0  1  0  0  0  0  0  0  0  0  0
   34.1920   27.1670   48.3920 O   0  0  0  0  0  0  0  0  0  0  0  0
   33.5500   26.3750   47.4650 C   0  0  0  0  0  0  0  0  0  0  0  0
   32.8360   27.3330   46.4960 C   0  0  1  0  0  0  0  0  0  0  0  0
   31.4970   28.0480   48.0440 H   0  0  0  0  0  0  0  0  0  0  0  0
   33.4440   28.8350   49.3810 H   0  0  0  0  0  0  0  0  0  0  0  0
   34.2910   25.7550   46.9130 H   0  0  0  0  0  0  0  0  0  0  0  0
   32.7450   25.7630   47.9220 H   0  0  0  0  0  0  0  0  0  0  0  0
   33.5930   27.7840   45.8570 H   0  0  0  0  0  0  0  0  0  0  0  0
   32.1610   29.6150   46.9020 O   0  0  0  0  0  0  0  0  0  0  0  0
   32.8910   29.8940   46.3260 H   0  0  0  0  0  0  0  0  0  0  0  0
   34.8200   29.5370   47.5240 S   0  0  0  0  0  0  0  0  0  0  0  0
   37.4030   29.4890   50.5320 C   0  0  0  0  0  0  0  0  0  0  0  0
   38.0100   30.7480   50.5100 C   0  0  0  0  0  0  0  0  0  0  0  0
   37.6040   31.6510   49.5220 C   0  0  0  0  0  0  0  0  0  0  0  0
   36.6450   31.2620   48.6390 N   0  0  0  0  0  0  0  0  0  0  0  0
   36.0770   30.0310   48.6920 C   0  0  0  0  0  0  0  0  0  0  0  0
   36.4510   29.1480   49.6300 N   0  0  0  0  0  0  0  0  0  0  0  0
   37.6820   28.7550   51.2760 H   0  0  0  0  0  0  0  0  0  0  0  0
   38.7620   30.9930   51.2370 H   0  0  0  0  0  0  0  0  0  0  0  0
   38.0540   32.6350   49.4770 H   0  0  0  0  0  0  0  0  0  0  0  0
   31.7750   26.6920   45.9030 O   0  0  0  0  0  0  0  0  0  0  0  0
   32.4770   24.5490   44.4340 F   0  0  0  0  0  0  0  0  0  0  0  0
   31.8780   25.6340   43.8850 C   0  0  0  0  0  0  0  0  0  0  0  0
   31.4750   26.7950   44.5550 C   0  0  0  0  0  0  0  0  0  0  0  0
   30.8750   27.8170   43.8520 C   0  0  0  0  0  0  0  0  0  0  0  0
   30.6130   28.6500   44.4750 H   0  0  0  0  0  0  0  0  0  0  0  0
   30.6790   27.6880   42.4930 C   0  0  0  0  0  0  0  0  0  0  0  0
   30.2040   28.5370   42.0290 H   0  0  0  0  0  0  0  0  0  0  0  0
   31.0700   26.5470   41.8090 C   0  0  0  0  0  3  0  0  0  0  0  0
   31.6770   25.5070   42.5080 C   0  0  0  0  0  3  0  0  0  0  0  0
  1  6  1  1  0  0  0
  1  2  1  0  0  0  0
  2  3  1  0  0  0  0
  2  7  1  1  0  0  0
  4  9  1  0  0  0  0
  4  3  1  0  0  0  0
  5 10  1  6  0  0  0
  5  4  1  0  0  0  0
  5  1  1  0  0  0  0
  8  4  1  0  0  0  0
 11  1  1  0  0  0  0
 12 11  1  0  0  0  0
 13  2  1  0  0  0  0
 13 18  1  0  0  0  0
 14 20  1  0  0  0  0
 15 14  1  0  0  0  0
 15 21  1  0  0  0  0
 16 15  2  0  0  0  0
 17 18  2  0  0  0  0
 17 16  1  0  0  0  0
 18 19  1  0  0  0  0
 19 14  2  0  0  0  0
 22 16  1  0  0  0  0
 23  5  1  0  0  0  0
 25 24  1  0  0  0  0
 25 26  1  0  0  0  0
 26 23  1  0  0  0  0
 27 28  1  0  0  0  0
 27 26  2  0  0  0  0
 29 27  1  0  0  0  0
 30 29  1  0  0  0  0
 31 29  2  0  0  0  0
 31 32  1  0  0  0  0
 32 25  2  0  0  0  0
M  END
>  <minimizedAffinity>
-3.73166513

>  <minimizedRMSD>
0.336820275

$$$$
