REMARK  Name = 
REMARK  6 active torsions:
REMARK  status: ('A' for Active; 'I' for Inactive)
REMARK    1  A    between atoms: C_1  and  C_8
REMARK    2  A    between atoms: C_4  and  O_13
REMARK    3  A    between atoms: O_13  and  C_14
REMARK    4  A    between atoms: N_17  and  C_19
REMARK    5  A    between atoms: C_19  and  C_20
REMARK    6  A    between atoms: C_20  and  C_35
REMARK                            x       y       z     vdW  Elec       q    Type
REMARK                         _______ _______ _______ _____ _____    ______ ____
ROOT
ATOM      1  C   UNL     1      38.358  31.273  48.645  0.00  0.00    +0.000 A 
ATOM      2  C   UNL     1      38.447  32.511  49.231  0.00  0.00    +0.000 A 
ATOM      3  C   UNL     1      39.056  33.361  48.306  0.00  0.00    +0.000 A 
ATOM      4  N   UNL     1      39.312  32.641  47.219  0.00  0.00    +0.000 N 
ATOM      5  N   UNL     1      38.901  31.432  47.431  0.00  0.00    +0.000 NA
ATOM      6  H   UNL     1      38.172  32.946  50.180  0.00  0.00    +0.000 HD
ATOM      7  H   UNL     1      39.310  34.412  48.371  0.00  0.00    +0.000 HD
ENDROOT
BRANCH   4   8
ATOM      8  C   UNL     1      39.936  33.081  45.998  0.00  0.00    +0.000 C 
ATOM      9  H   UNL     1      39.204  33.528  45.287  0.00  0.00    +0.000 HD
ATOM     10  H   UNL     1      40.621  33.913  46.254  0.00  0.00    +0.000 HD
BRANCH   8  11
ATOM     11  C   UNL     1      40.697  31.946  45.397  0.00  0.00    +0.000 C 
ATOM     12  H   UNL     1      41.249  32.387  44.514  0.00  0.00    +0.000 HD
ATOM     13  H   UNL     1      41.541  31.733  46.120  0.00  0.00    +0.000 HD
BRANCH  11  16
ATOM     14  F   UNL     1      41.796  29.424  46.034  0.00  0.00    +0.000 F 
ATOM     15  C   UNL     1      40.577  29.567  45.415  0.00  0.00    +0.000 A 
ATOM     16  C   UNL     1      39.941  30.753  45.048  0.00  0.00    +0.000 A 
ATOM     17  C   UNL     1      38.712  30.624  44.435  0.00  0.00    +0.000 A 
ATOM     18  H   UNL     1      38.241  31.552  44.172  0.00  0.00    +0.000 HD
ATOM     19  C   UNL     1      38.116  29.413  44.181  0.00  0.00    +0.000 A 
ATOM     20  H   UNL     1      37.136  29.459  43.686  0.00  0.00    +0.000 HD
ATOM     21  C   UNL     1      38.757  28.256  44.548  0.00  0.00    +0.000 A 
ATOM     22  C   UNL     1      39.989  28.336  45.166  0.00  0.00    +0.000 A 
ENDBRANCH  11  16
ENDBRANCH   8  11
ENDBRANCH   4   8
BRANCH   1  23
ATOM     23  O   UNL     1      37.774  30.297  49.429  0.00  0.00    +0.000 OA
BRANCH  23  27
ATOM     24  C   UNL     1      34.005  28.808  48.291  0.00  0.00    +0.000 A 
ATOM     25  C   UNL     1      34.638  28.355  49.413  0.00  0.00    +0.000 A 
ATOM     26  C   UNL     1      35.861  28.796  49.840  0.00  0.00    +0.000 A 
ATOM     27  C   UNL     1      36.542  29.744  49.145  0.00  0.00    +0.000 A 
ATOM     28  C   UNL     1      35.903  30.217  47.990  0.00  0.00    +0.000 A 
ATOM     29  N   UNL     1      34.699  29.766  47.594  0.00  0.00    +0.000 NA
ATOM     30  H   UNL     1      34.155  27.598  50.018  0.00  0.00    +0.000 HD
ATOM     31  H   UNL     1      36.355  28.427  50.737  0.00  0.00    +0.000 HD
ATOM     32  H   UNL     1      36.328  30.970  47.343  0.00  0.00    +0.000 HD
BRANCH  24  34
ATOM     33  C   UNL     1      31.904  27.500  48.558  0.00  0.00    +0.000 A 
ATOM     34  C   UNL     1      32.730  28.366  47.823  0.00  0.00    +0.000 A 
ATOM     35  C   UNL     1      32.255  28.781  46.609  0.00  0.00    +0.000 A 
ATOM     36  N   UNL     1      31.036  28.357  46.165  0.00  0.00    +0.000 NA
ATOM     37  C   UNL     1      30.277  27.513  46.927  0.00  0.00    +0.000 A 
ATOM     38  N   UNL     1      30.698  27.075  48.128  0.00  0.00    +0.000 NA
ATOM     39  H   UNL     1      32.229  27.141  49.522  0.00  0.00    +0.000 HD
ATOM     40  H   UNL     1      32.820  29.455  45.960  0.00  0.00    +0.000 HD
ATOM     41  H   UNL     1      29.340  27.268  46.440  0.00  0.00    +0.000 HD
ENDBRANCH  24  34
ENDBRANCH  23  27
ENDBRANCH   1  23
TORSDOF 6
