
     RDKit          3D

 39 41  0  0  0  0  0  0  0  0999 V2000
   37.3471   30.1142   48.2899 O   0  0  0  0  0  0  0  0  0  0  0  0
   38.0648   31.3062   48.2207 C   0  0  0  0  0  0  0  0  0  0  0  0
   38.2182   32.0169   49.3969 C   0  0  0  0  0  0  0  0  0  0  0  0
   38.9266   33.2063   49.3582 C   0  0  0  0  0  0  0  0  0  0  0  0
   39.4413   33.6249   48.1661 N   0  0  0  0  0  0  0  0  0  0  0  0
   39.2809   32.9189   47.0330 C   0  0  0  0  0  0  0  0  0  0  0  0
   38.6033   31.7859   47.0821 N   0  0  0  0  0  0  0  0  0  0  0  0
   40.7737   32.4677   45.2437 C   0  0  0  0  0  0  0  0  0  0  0  0
   41.1369   31.3388   45.6954 O   0  0  0  0  0  0  0  0  0  0  0  0
   39.8341   33.3944   45.8109 N   0  0  0  0  0  0  0  0  0  0  0  0
   35.4870   28.6730   50.0521 O   0  0  0  0  0  0  0  0  0  0  0  0
   35.2635   29.0464   48.8933 C   0  0  0  0  0  0  0  0  0  0  0  0
   35.9234   30.2038   48.3295 C   0  0  2  0  0  0  0  0  0  0  0  0
   35.4573   30.1232   46.8400 C   0  0  0  0  0  0  0  0  0  0  0  0
   34.1505   29.3862   46.9403 C   0  0  0  0  0  0  0  0  0  0  0  0
   34.3545   28.4001   47.9949 N   0  0  0  0  0  0  0  0  0  0  0  0
   33.7498   27.0860   48.0541 C   0  0  0  0  0  0  0  0  0  0  0  0
   37.8356   31.7406   50.3753 H   0  0  0  0  0  0  0  0  0  0  0  0
   39.0792   33.7966   50.2256 H   0  0  0  0  0  0  0  0  0  0  0  0
   41.2779   32.6900   44.3123 H   0  0  0  0  0  0  0  0  0  0  0  0
   39.6686   34.2747   45.2864 H   0  0  0  0  0  0  0  0  0  0  0  0
   35.5595   31.1403   48.7507 H   0  0  0  0  0  0  0  0  0  0  0  0
   35.2468   31.1669   46.5508 H   0  0  0  0  0  0  0  0  0  0  0  0
   36.2106   29.6078   46.2442 H   0  0  0  0  0  0  0  0  0  0  0  0
   33.2849   30.0225   47.1151 H   0  0  0  0  0  0  0  0  0  0  0  0
   34.0569   28.8024   45.9884 H   0  0  0  0  0  0  0  0  0  0  0  0
   32.7487   27.1558   47.6262 H   0  0  0  0  0  0  0  0  0  0  0  0
   33.6181   26.7278   49.1108 H   0  0  0  0  0  0  0  0  0  0  0  0
   33.7941   24.2903   48.7272 F   0  0  0  0  0  0  0  0  0  0  0  0
   34.5781   24.7089   47.7094 C   0  0  0  0  0  0  0  0  0  0  0  0
   34.5618   26.0443   47.3781 C   0  0  0  0  0  0  0  0  0  0  0  0
   35.3744   26.4706   46.3194 C   0  0  0  0  0  0  0  0  0  0  0  0
   35.4286   27.4955   45.9866 H   0  0  0  0  0  0  0  0  0  0  0  0
   36.1280   25.5070   45.6954 C   0  0  0  0  0  0  0  0  0  0  0  0
   36.7679   25.8239   44.8680 H   0  0  0  0  0  0  0  0  0  0  0  0
   36.1561   24.1536   46.0182 C   0  0  0  0  0  0  0  0  0  0  0  0
   35.3437   23.7573   47.0682 C   0  0  0  0  0  0  0  0  0  0  0  0
   36.7561   23.4396   45.5069 H   0  0  0  0  0  0  0  0  0  0  0  0
   35.3055   22.7094   47.3885 H   0  0  0  0  0  0  0  0  0  0  0  0
  2  1  1  0
  2  3  2  0
  4  3  1  0
  5  4  2  0
  6  7  2  0
  6  5  1  0
  7  2  1  0
  8  9  2  0
  8 10  1  0
 10  6  1  0
 12 11  2  0
 13  1  1  0
 13 12  1  0
 14 15  1  0
 14 13  1  0
 15 16  1  0
 16 17  1  0
 16 12  1  0
  3 18  1  0
  4 19  1  0
  8 20  1  0
 10 21  1  0
 13 22  1  1
 14 23  1  0
 14 24  1  0
 15 25  1  0
 15 26  1  0
 17 27  1  0
 17 28  1  0
 29 30  1  0
 30 31  2  0
 31 32  1  0
 32 33  1  0
 32 34  2  0
 34 35  1  0
 34 36  1  0
 36 37  2  0
 37 30  1  0
 36 38  1  0
 37 39  1  0
 17 31  1  0
M  ISO  8  18  14  19  14  20   6  22  13  23  13  24  13  25  13  26  13
M  ISO  4  27   8  28   8  33  15  35  16
M  END
>  <DihAtoms>  (1) 
15,16,30,29

>  <DihDeg>  (1) 
76.50391136453017

$$$$
