
 OpenBabel03272504103D

 33 35  0  0  0  0  0  0  0  0999 V2000
   38.1950   25.5590   36.4840 C   0  0  0  0  0  0  0  0  0  0  0  0
   38.3780   24.9610   35.2530 C   0  0  0  0  0  0  0  0  0  0  0  0
   38.5220   23.5570   35.1670 C   0  0  0  0  0  0  0  0  0  0  0  0
   38.4730   22.8420   36.3150 N   0  0  0  0  0  0  0  0  0  0  0  0
   38.2880   23.4780   37.5290 C   0  0  0  0  0  0  0  0  0  0  0  0
   38.1500   24.8280   37.6010 N   0  0  0  0  0  0  0  0  0  0  0  0
   38.2440   22.6700   38.7060 N   0  0  0  0  0  0  0  0  0  0  0  0
   38.0830   26.6390   36.5240 H   0  0  0  0  0  0  0  0  0  0  0  0
   37.3590   22.6970   39.2960 H   0  0  0  0  0  0  0  0  0  0  0  0
   39.0180   22.0500   39.0290 H   0  0  0  0  0  0  0  0  0  0  0  0
   41.0150   25.7310   33.9490 Cl  0  0  0  0  0  0  0  0  0  0  0  0
   39.4900   26.2870   33.3430 C   0  0  0  0  0  0  0  0  0  0  0  0
   38.4110   25.8310   34.0540 C   0  0  0  0  0  0  0  0  0  0  0  0
   37.1350   26.2210   33.6350 C   0  0  0  0  0  0  0  0  0  0  0  0
   36.9360   27.0240   32.5660 C   0  0  0  0  0  0  0  0  0  0  0  0
   38.0440   27.4790   31.8550 C   0  0  0  0  0  0  0  0  0  0  0  0
   37.8560   28.5080   30.4670 Cl  0  0  0  0  0  0  0  0  0  0  0  0
   39.2960   27.1010   32.2570 C   0  0  0  0  0  0  0  0  0  0  0  0
   36.2080   25.9170   34.1000 H   0  0  0  0  0  0  0  0  0  0  0  0
   35.9620   27.3550   32.2000 H   0  0  0  0  0  0  0  0  0  0  0  0
   40.1810   27.4330   31.7340 H   0  0  0  0  0  0  0  0  0  0  0  0
   38.7160   22.9440   33.8570 C   0  0  0  0  0  0  0  0  0  0  0  0
   39.1550   23.7030   33.1810 H   0  0  0  0  0  0  0  0  0  0  0  0
   39.4660   22.1170   33.8960 H   0  0  0  0  0  0  0  0  0  0  0  0
   37.6590   23.8780   31.4840 F   0  0  0  0  0  0  0  0  0  0  0  0
   36.9420   22.8900   32.0680 C   0  0  0  0  0  0  0  0  0  0  0  0
   37.4570   22.4110   33.2550 C   0  0  0  0  0  0  0  0  0  0  0  0
   36.7910   21.4010   33.9190 C   0  0  0  0  0  0  0  0  0  0  0  0
   37.1470   20.9810   34.8660 H   0  0  0  0  0  0  0  0  0  0  0  0
   35.6170   20.8430   33.4450 C   0  0  0  0  0  0  0  0  0  0  0  0
   35.1040   20.0540   33.9710 H   0  0  0  0  0  0  0  0  0  0  0  0
   35.1360   21.3460   32.2590 C   0  0  0  0  0  3  0  0  0  0  0  0
   35.7710   22.3590   31.5560 C   0  0  0  0  0  3  0  0  0  0  0  0
  1  8  1  0  0  0  0
  1  6  1  0  0  0  0
  2  1  2  0  0  0  0
  3  2  1  0  0  0  0
  3  4  2  0  0  0  0
  4  5  1  0  0  0  0
  5  6  2  0  0  0  0
  5  7  1  0  0  0  0
  7 10  1  0  0  0  0
  7  9  1  0  0  0  0
 12 11  1  0  0  0  0
 12 13  1  0  0  0  0
 13  2  1  0  0  0  0
 14 13  2  0  0  0  0
 14 19  1  0  0  0  0
 15 14  1  0  0  0  0
 16 18  1  0  0  0  0
 16 15  2  0  0  0  0
 17 16  1  0  0  0  0
 18 12  2  0  0  0  0
 20 15  1  0  0  0  0
 21 18  1  0  0  0  0
 22 24  1  0  0  0  0
 22  3  1  0  0  0  0
 23 22  1  0  0  0  0
 25 26  1  0  0  0  0
 26 27  1  0  0  0  0
 27 22  1  0  0  0  0
 27 28  2  0  0  0  0
 28 29  1  0  0  0  0
 30 28  1  0  0  0  0
 30 31  1  0  0  0  0
 32 30  2  0  0  0  0
 33 26  2  0  0  0  0
 33 32  1  0  0  0  0
M  END
>  <minimizedAffinity>
-5.90503931

$$$$

 OpenBabel03272504103D

 33 35  0  0  0  0  0  0  0  0999 V2000
   38.3050   26.2150   35.8200 C   0  0  0  0  0  0  0  0  0  0  0  0
   38.6120   25.0960   35.0720 C   0  0  0  0  0  0  0  0  0  0  0  0
   38.1310   24.9810   33.7470 C   0  0  0  0  0  0  0  0  0  0  0  0
   37.3750   25.9900   33.2560 N   0  0  0  0  0  0  0  0  0  0  0  0
   37.0890   27.0950   34.0370 C   0  0  0  0  0  0  0  0  0  0  0  0
   37.5570   27.1960   35.3090 N   0  0  0  0  0  0  0  0  0  0  0  0
   36.2880   28.1290   33.4630 N   0  0  0  0  0  0  0  0  0  0  0  0
   38.6890   26.2820   36.8340 H   0  0  0  0  0  0  0  0  0  0  0  0
   36.7090   29.1030   33.3890 H   0  0  0  0  0  0  0  0  0  0  0  0
   35.3160   27.9970   33.1080 H   0  0  0  0  0  0  0  0  0  0  0  0
   37.4200   23.0930   37.0240 Cl  0  0  0  0  0  0  0  0  0  0  0  0
   39.0990   23.0760   36.5970 C   0  0  0  0  0  0  0  0  0  0  0  0
   39.4520   24.0480   35.6980 C   0  0  0  0  0  0  0  0  0  0  0  0
   40.7870   24.1090   35.2870 C   0  0  0  0  0  0  0  0  0  0  0  0
   41.7270   23.2520   35.7440 C   0  0  0  0  0  0  0  0  0  0  0  0
   41.3510   22.2710   36.6580 C   0  0  0  0  0  0  0  0  0  0  0  0
   42.5090   21.1340   37.2790 Cl  0  0  0  0  0  0  0  0  0  0  0  0
   40.0460   22.2030   37.0650 C   0  0  0  0  0  0  0  0  0  0  0  0
   41.1860   24.8160   34.5730 H   0  0  0  0  0  0  0  0  0  0  0  0
   42.7800   23.2590   35.4540 H   0  0  0  0  0  0  0  0  0  0  0  0
   39.7140   21.4580   37.7730 H   0  0  0  0  0  0  0  0  0  0  0  0
   38.4650   23.7900   32.9730 C   0  0  0  0  0  0  0  0  0  0  0  0
   38.8340   24.1160   31.9800 H   0  0  0  0  0  0  0  0  0  0  0  0
   39.3120   23.2240   33.4290 H   0  0  0  0  0  0  0  0  0  0  0  0
   36.7080   23.9410   30.8480 F   0  0  0  0  0  0  0  0  0  0  0  0
   36.4460   22.9440   31.7240 C   0  0  0  0  0  0  0  0  0  0  0  0
   37.3150   22.8540   32.7920 C   0  0  0  0  0  0  0  0  0  0  0  0
   37.1240   21.8640   33.7350 C   0  0  0  0  0  0  0  0  0  0  0  0
   37.7770   21.7430   34.6050 H   0  0  0  0  0  0  0  0  0  0  0  0
   36.0880   20.9500   33.6580 C   0  0  0  0  0  0  0  0  0  0  0  0
   35.9470   20.1800   34.4000 H   0  0  0  0  0  0  0  0  0  0  0  0
   35.2440   21.0720   32.5800 C   0  0  0  0  0  3  0  0  0  0  0  0
   35.3970   22.0490   31.6080 C   0  0  0  0  0  3  0  0  0  0  0  0
  1  8  1  0  0  0  0
  2 13  1  0  0  0  0
  2  1  2  0  0  0  0
  3  2  1  0  0  0  0
  4  3  2  0  0  0  0
  4  5  1  0  0  0  0
  5  6  2  0  0  0  0
  6  1  1  0  0  0  0
  7  5  1  0  0  0  0
  9  7  1  0  0  0  0
 10  7  1  0  0  0  0
 12 11  1  0  0  0  0
 12 18  1  0  0  0  0
 13 12  2  0  0  0  0
 14 13  1  0  0  0  0
 14 15  2  0  0  0  0
 15 16  1  0  0  0  0
 16 18  2  0  0  0  0
 16 17  1  0  0  0  0
 18 21  1  0  0  0  0
 19 14  1  0  0  0  0
 20 15  1  0  0  0  0
 22 24  1  0  0  0  0
 22  3  1  0  0  0  0
 23 22  1  0  0  0  0
 25 26  1  0  0  0  0
 26 27  1  0  0  0  0
 27 22  1  0  0  0  0
 27 28  2  0  0  0  0
 28 29  1  0  0  0  0
 30 28  1  0  0  0  0
 30 31  1  0  0  0  0
 32 30  2  0  0  0  0
 33 26  2  0  0  0  0
 33 32  1  0  0  0  0
M  END
>  <minimizedAffinity>
-5.86039639

$$$$

 OpenBabel03272504103D

 33 35  0  0  0  0  0  0  0  0999 V2000
   35.4420   24.7460   31.0330 C   0  0  0  0  0  0  0  0  0  0  0  0
   36.4540   24.0980   31.7140 C   0  0  0  0  0  0  0  0  0  0  0  0
   37.4190   24.8500   32.4230 C   0  0  0  0  0  0  0  0  0  0  0  0
   37.3110   26.1990   32.4060 N   0  0  0  0  0  0  0  0  0  0  0  0
   36.2830   26.8110   31.7110 C   0  0  0  0  0  0  0  0  0  0  0  0
   35.3600   26.0790   31.0340 N   0  0  0  0  0  0  0  0  0  0  0  0
   36.2210   28.2380   31.7320 N   0  0  0  0  0  0  0  0  0  0  0  0
   34.7100   24.1460   30.4980 H   0  0  0  0  0  0  0  0  0  0  0  0
   35.3470   28.6930   32.1330 H   0  0  0  0  0  0  0  0  0  0  0  0
   36.9740   28.8690   31.3820 H   0  0  0  0  0  0  0  0  0  0  0  0
   38.5010   22.6120   30.0260 Cl  0  0  0  0  0  0  0  0  0  0  0  0
   37.3130   21.7830   30.9760 C   0  0  0  0  0  0  0  0  0  0  0  0
   36.4810   22.6170   31.6760 C   0  0  0  0  0  0  0  0  0  0  0  0
   35.4940   22.0380   32.4790 C   0  0  0  0  0  0  0  0  0  0  0  0
   35.3350   20.7000   32.5840 C   0  0  0  0  0  0  0  0  0  0  0  0
   36.1890   19.8670   31.8640 C   0  0  0  0  0  0  0  0  0  0  0  0
   36.0420   18.1380   31.9600 Cl  0  0  0  0  0  0  0  0  0  0  0  0
   37.1590   20.4240   31.0770 C   0  0  0  0  0  0  0  0  0  0  0  0
   34.7900   22.5850   33.0910 H   0  0  0  0  0  0  0  0  0  0  0  0
   34.5810   20.2010   33.1960 H   0  0  0  0  0  0  0  0  0  0  0  0
   37.8400   19.8130   30.5020 H   0  0  0  0  0  0  0  0  0  0  0  0
   38.4810   24.1480   33.1350 C   0  0  0  0  0  0  0  0  0  0  0  0
   38.5760   23.1330   32.7020 H   0  0  0  0  0  0  0  0  0  0  0  0
   39.4750   24.6300   32.9730 H   0  0  0  0  0  0  0  0  0  0  0  0
   38.0410   21.7470   34.4260 F   0  0  0  0  0  0  0  0  0  0  0  0
   38.0250   22.8310   35.2350 C   0  0  0  0  0  0  0  0  0  0  0  0
   38.2430   24.0390   34.6060 C   0  0  0  0  0  0  0  0  0  0  0  0
   38.2450   25.1980   35.3550 C   0  0  0  0  0  0  0  0  0  0  0  0
   38.4100   26.1870   34.9140 H   0  0  0  0  0  0  0  0  0  0  0  0
   38.0340   25.2040   36.7220 C   0  0  0  0  0  0  0  0  0  0  0  0
   38.0370   26.1150   37.2990 H   0  0  0  0  0  0  0  0  0  0  0  0
   37.8190   23.9810   37.3130 C   0  0  0  0  0  3  0  0  0  0  0  0
   37.8090   22.7910   36.6010 C   0  0  0  0  0  3  0  0  0  0  0  0
  1  6  2  0  0  0  0
  1  2  1  0  0  0  0
  2  3  2  0  0  0  0
  3 22  1  0  0  0  0
  4  3  1  0  0  0  0
  5  7  1  0  0  0  0
  5  4  2  0  0  0  0
  6  5  1  0  0  0  0
  7  9  1  0  0  0  0
  8  1  1  0  0  0  0
 10  7  1  0  0  0  0
 11 12  1  0  0  0  0
 12 18  2  0  0  0  0
 12 13  1  0  0  0  0
 13  2  1  0  0  0  0
 13 14  2  0  0  0  0
 14 15  1  0  0  0  0
 14 19  1  0  0  0  0
 15 20  1  0  0  0  0
 16 17  1  0  0  0  0
 16 15  2  0  0  0  0
 18 16  1  0  0  0  0
 21 18  1  0  0  0  0
 22 27  1  0  0  0  0
 23 22  1  0  0  0  0
 24 22  1  0  0  0  0
 25 26  1  0  0  0  0
 26 33  1  0  0  0  0
 27 26  2  0  0  0  0
 27 28  1  0  0  0  0
 28 30  2  0  0  0  0
 29 28  1  0  0  0  0
 30 31  1  0  0  0  0
 30 32  1  0  0  0  0
 33 32  2  0  0  0  0
M  END
>  <minimizedAffinity>
-5.66704369

$$$$

 OpenBabel03272504103D

 33 35  0  0  0  0  0  0  0  0999 V2000
   37.4170   25.5750   33.3070 C   0  0  0  0  0  0  0  0  0  0  0  0
   37.9220   24.3010   33.1360 C   0  0  0  0  0  0  0  0  0  0  0  0
   37.5680   23.5520   31.9920 C   0  0  0  0  0  0  0  0  0  0  0  0
   36.7330   24.1220   31.0920 N   0  0  0  0  0  0  0  0  0  0  0  0
   36.2490   25.4010   31.2980 C   0  0  0  0  0  0  0  0  0  0  0  0
   36.5960   26.1140   32.4020 N   0  0  0  0  0  0  0  0  0  0  0  0
   35.3730   25.9510   30.3130 N   0  0  0  0  0  0  0  0  0  0  0  0
   37.7070   26.1330   34.1940 H   0  0  0  0  0  0  0  0  0  0  0  0
   35.6740   26.8460   29.8230 H   0  0  0  0  0  0  0  0  0  0  0  0
   34.4570   25.5350   30.0350 H   0  0  0  0  0  0  0  0  0  0  0  0
   40.9400   24.4430   32.7950 Cl  0  0  0  0  0  0  0  0  0  0  0  0
   40.2030   23.7350   34.1940 C   0  0  0  0  0  0  0  0  0  0  0  0
   38.8330   23.7680   34.1760 C   0  0  0  0  0  0  0  0  0  0  0  0
   38.1480   23.2270   35.2680 C   0  0  0  0  0  0  0  0  0  0  0  0
   38.7860   22.6770   36.3260 C   0  0  0  0  0  0  0  0  0  0  0  0
   40.1790   22.6510   36.3260 C   0  0  0  0  0  0  0  0  0  0  0  0
   41.0600   21.9650   37.6580 Cl  0  0  0  0  0  0  0  0  0  0  0  0
   40.8580   23.1800   35.2630 C   0  0  0  0  0  0  0  0  0  0  0  0
   37.0730   23.2070   35.3810 H   0  0  0  0  0  0  0  0  0  0  0  0
   38.2980   22.2420   37.2000 H   0  0  0  0  0  0  0  0  0  0  0  0
   41.9370   23.1780   35.2250 H   0  0  0  0  0  0  0  0  0  0  0  0
   38.1090   22.2070   31.8290 C   0  0  0  0  0  0  0  0  0  0  0  0
   38.5680   22.1380   30.8240 H   0  0  0  0  0  0  0  0  0  0  0  0
   38.9420   22.0070   32.5460 H   0  0  0  0  0  0  0  0  0  0  0  0
   37.4820   20.4170   29.8230 F   0  0  0  0  0  0  0  0  0  0  0  0
   36.7840   20.2430   30.9690 C   0  0  0  0  0  0  0  0  0  0  0  0
   37.0860   21.1290   31.9820 C   0  0  0  0  0  0  0  0  0  0  0  0
   36.4230   21.0240   33.1890 C   0  0  0  0  0  0  0  0  0  0  0  0
   36.6160   21.6980   34.0300 H   0  0  0  0  0  0  0  0  0  0  0  0
   35.4590   20.0610   33.4300 C   0  0  0  0  0  0  0  0  0  0  0  0
   34.9470   19.9880   34.3750 H   0  0  0  0  0  0  0  0  0  0  0  0
   35.1860   19.1970   32.3960 C   0  0  0  0  0  3  0  0  0  0  0  0
   35.8270   19.2640   31.1670 C   0  0  0  0  0  3  0  0  0  0  0  0
  1  8  1  0  0  0  0
  2  1  1  0  0  0  0
  2 13  1  0  0  0  0
  3  2  2  0  0  0  0
  4  5  2  0  0  0  0
  4  3  1  0  0  0  0
  5  6  1  0  0  0  0
  6  1  2  0  0  0  0
  7  5  1  0  0  0  0
  9  7  1  0  0  0  0
 10  7  1  0  0  0  0
 11 12  1  0  0  0  0
 12 18  1  0  0  0  0
 13 12  2  0  0  0  0
 13 14  1  0  0  0  0
 14 19  1  0  0  0  0
 14 15  2  0  0  0  0
 15 20  1  0  0  0  0
 16 15  1  0  0  0  0
 16 17  1  0  0  0  0
 18 16  2  0  0  0  0
 21 18  1  0  0  0  0
 22 27  1  0  0  0  0
 22  3  1  0  0  0  0
 22 24  1  0  0  0  0
 23 22  1  0  0  0  0
 25 26  1  0  0  0  0
 26 33  2  0  0  0  0
 26 27  1  0  0  0  0
 27 28  2  0  0  0  0
 28 30  1  0  0  0  0
 28 29  1  0  0  0  0
 30 31  1  0  0  0  0
 32 30  2  0  0  0  0
 33 32  1  0  0  0  0
M  END
>  <minimizedAffinity>
-5.6264019

$$$$

 OpenBabel03272504103D

 33 35  0  0  0  0  0  0  0  0999 V2000
   40.1160   25.0080   35.0690 C   0  0  0  0  0  0  0  0  0  0  0  0
   39.6440   23.7180   35.2090 C   0  0  0  0  0  0  0  0  0  0  0  0
   38.3440   23.3920   34.7590 C   0  0  0  0  0  0  0  0  0  0  0  0
   37.6000   24.3750   34.2000 N   0  0  0  0  0  0  0  0  0  0  0  0
   38.1080   25.6550   34.0790 C   0  0  0  0  0  0  0  0  0  0  0  0
   39.3600   25.9580   34.5130 N   0  0  0  0  0  0  0  0  0  0  0  0
   37.2770   26.6500   33.4790 N   0  0  0  0  0  0  0  0  0  0  0  0
   41.1200   25.2330   35.4200 H   0  0  0  0  0  0  0  0  0  0  0  0
   37.6290   27.1280   32.5960 H   0  0  0  0  0  0  0  0  0  0  0  0
   36.3440   26.9420   33.8440 H   0  0  0  0  0  0  0  0  0  0  0  0
   39.4490   23.0640   38.1720 Cl  0  0  0  0  0  0  0  0  0  0  0  0
   40.6040   22.2970   37.1330 C   0  0  0  0  0  0  0  0  0  0  0  0
   40.5380   22.7120   35.8290 C   0  0  0  0  0  0  0  0  0  0  0  0
   41.4270   22.1420   34.9120 C   0  0  0  0  0  0  0  0  0  0  0  0
   42.3370   21.2080   35.2680 C   0  0  0  0  0  0  0  0  0  0  0  0
   42.3900   20.7990   36.5970 C   0  0  0  0  0  0  0  0  0  0  0  0
   43.5330   19.5980   37.1190 Cl  0  0  0  0  0  0  0  0  0  0  0  0
   41.5230   21.3500   37.5010 C   0  0  0  0  0  0  0  0  0  0  0  0
   41.4640   22.3720   33.8560 H   0  0  0  0  0  0  0  0  0  0  0  0
   43.0510   20.7350   34.5910 H   0  0  0  0  0  0  0  0  0  0  0  0
   41.5340   21.0600   38.5420 H   0  0  0  0  0  0  0  0  0  0  0  0
   37.8610   22.0240   34.9160 C   0  0  0  0  0  0  0  0  0  0  0  0
   38.7340   21.3700   35.1120 H   0  0  0  0  0  0  0  0  0  0  0  0
   37.2070   21.9170   35.8140 H   0  0  0  0  0  0  0  0  0  0  0  0
   35.4000   20.7850   35.0860 F   0  0  0  0  0  0  0  0  0  0  0  0
   35.8870   20.8970   33.8290 C   0  0  0  0  0  0  0  0  0  0  0  0
   37.1160   21.5140   33.7260 C   0  0  0  0  0  0  0  0  0  0  0  0
   37.6890   21.6710   32.4800 C   0  0  0  0  0  0  0  0  0  0  0  0
   38.6630   22.1500   32.3330 H   0  0  0  0  0  0  0  0  0  0  0  0
   37.0800   21.2320   31.3180 C   0  0  0  0  0  0  0  0  0  0  0  0
   37.5360   21.3600   30.3490 H   0  0  0  0  0  0  0  0  0  0  0  0
   35.8560   20.6220   31.4620 C   0  0  0  0  0  3  0  0  0  0  0  0
   35.2420   20.4430   32.6920 C   0  0  0  0  0  3  0  0  0  0  0  0
  1  2  1  0  0  0  0
  1  8  1  0  0  0  0
  2 13  1  0  0  0  0
  3 22  1  0  0  0  0
  3  2  2  0  0  0  0
  4  3  1  0  0  0  0
  5  4  2  0  0  0  0
  5  6  1  0  0  0  0
  6  1  2  0  0  0  0
  7 10  1  0  0  0  0
  7  5  1  0  0  0  0
  9  7  1  0  0  0  0
 12 18  1  0  0  0  0
 12 11  1  0  0  0  0
 13 12  2  0  0  0  0
 14 15  2  0  0  0  0
 14 13  1  0  0  0  0
 15 16  1  0  0  0  0
 16 17  1  0  0  0  0
 16 18  2  0  0  0  0
 18 21  1  0  0  0  0
 19 14  1  0  0  0  0
 20 15  1  0  0  0  0
 22 23  1  0  0  0  0
 22 24  1  0  0  0  0
 26 25  1  0  0  0  0
 27 26  1  0  0  0  0
 27 22  1  0  0  0  0
 28 27  2  0  0  0  0
 29 28  1  0  0  0  0
 30 32  2  0  0  0  0
 30 28  1  0  0  0  0
 31 30  1  0  0  0  0
 32 33  1  0  0  0  0
 33 26  2  0  0  0  0
M  END
>  <minimizedAffinity>
-5.62278032

$$$$

 OpenBabel03272504103D

 33 35  0  0  0  0  0  0  0  0999 V2000
   41.3550   24.1850   34.3330 C   0  0  0  0  0  0  0  0  0  0  0  0
   40.0500   24.6070   34.4900 C   0  0  0  0  0  0  0  0  0  0  0  0
   39.7640   25.9880   34.5830 C   0  0  0  0  0  0  0  0  0  0  0  0
   40.7990   26.8580   34.5130 N   0  0  0  0  0  0  0  0  0  0  0  0
   42.0930   26.3950   34.3560 C   0  0  0  0  0  0  0  0  0  0  0  0
   42.3570   25.0650   34.2670 N   0  0  0  0  0  0  0  0  0  0  0  0
   43.1430   27.3600   34.2870 N   0  0  0  0  0  0  0  0  0  0  0  0
   41.5490   23.1170   34.2600 H   0  0  0  0  0  0  0  0  0  0  0  0
   43.7400   27.3860   33.4070 H   0  0  0  0  0  0  0  0  0  0  0  0
   43.3680   28.0460   35.0410 H   0  0  0  0  0  0  0  0  0  0  0  0
   39.1750   23.4100   37.1440 Cl  0  0  0  0  0  0  0  0  0  0  0  0
   38.4720   22.9230   35.6380 C   0  0  0  0  0  0  0  0  0  0  0  0
   38.9860   23.5770   34.5490 C   0  0  0  0  0  0  0  0  0  0  0  0
   38.4740   23.2570   33.2880 C   0  0  0  0  0  0  0  0  0  0  0  0
   37.5030   22.3330   33.1120 C   0  0  0  0  0  0  0  0  0  0  0  0
   36.9920   21.6780   34.2300 C   0  0  0  0  0  0  0  0  0  0  0  0
   35.7380   20.4850   34.0730 Cl  0  0  0  0  0  0  0  0  0  0  0  0
   37.4860   21.9860   35.4680 C   0  0  0  0  0  0  0  0  0  0  0  0
   38.7830   23.7110   32.3570 H   0  0  0  0  0  0  0  0  0  0  0  0
   37.0710   22.0490   32.1500 H   0  0  0  0  0  0  0  0  0  0  0  0
   37.1180   21.5000   36.3600 H   0  0  0  0  0  0  0  0  0  0  0  0
   38.3790   26.4160   34.7500 C   0  0  0  0  0  0  0  0  0  0  0  0
   37.7630   25.5190   34.9570 H   0  0  0  0  0  0  0  0  0  0  0  0
   38.2540   27.0710   35.6460 H   0  0  0  0  0  0  0  0  0  0  0  0
   36.2630   28.1840   34.8930 F   0  0  0  0  0  0  0  0  0  0  0  0
   36.7690   28.0130   33.6510 C   0  0  0  0  0  0  0  0  0  0  0  0
   37.8280   27.1330   33.5610 C   0  0  0  0  0  0  0  0  0  0  0  0
   38.4080   26.8990   32.3310 C   0  0  0  0  0  0  0  0  0  0  0  0
   39.2480   26.2110   32.1950 H   0  0  0  0  0  0  0  0  0  0  0  0
   37.9700   27.5130   31.1700 C   0  0  0  0  0  0  0  0  0  0  0  0
   38.4300   27.3230   30.2130 H   0  0  0  0  0  0  0  0  0  0  0  0
   36.9130   28.3830   31.3000 C   0  0  0  0  0  3  0  0  0  0  0  0
   36.3000   28.6500   32.5150 C   0  0  0  0  0  3  0  0  0  0  0  0
  1  2  1  0  0  0  0
  2 13  1  0  0  0  0
  2  3  2  0  0  0  0
  3 22  1  0  0  0  0
  4  3  1  0  0  0  0
  5  4  2  0  0  0  0
  6  1  2  0  0  0  0
  6  5  1  0  0  0  0
  7  5  1  0  0  0  0
  7 10  1  0  0  0  0
  8  1  1  0  0  0  0
  9  7  1  0  0  0  0
 12 11  1  0  0  0  0
 13 12  2  0  0  0  0
 14 13  1  0  0  0  0
 15 14  2  0  0  0  0
 15 16  1  0  0  0  0
 16 18  2  0  0  0  0
 17 16  1  0  0  0  0
 18 12  1  0  0  0  0
 18 21  1  0  0  0  0
 19 14  1  0  0  0  0
 20 15  1  0  0  0  0
 22 23  1  0  0  0  0
 22 24  1  0  0  0  0
 26 25  1  0  0  0  0
 27 26  1  0  0  0  0
 27 22  1  0  0  0  0
 28 27  2  0  0  0  0
 29 28  1  0  0  0  0
 30 32  2  0  0  0  0
 30 28  1  0  0  0  0
 31 30  1  0  0  0  0
 32 33  1  0  0  0  0
 33 26  2  0  0  0  0
M  END
>  <minimizedAffinity>
-5.5833602

$$$$

 OpenBabel03272504103D

 33 35  0  0  0  0  0  0  0  0999 V2000
   35.8290   30.5250   31.2810 C   0  0  0  0  0  0  0  0  0  0  0  0
   35.6270   29.6490   32.3300 C   0  0  0  0  0  0  0  0  0  0  0  0
   36.0690   28.3110   32.2240 C   0  0  0  0  0  0  0  0  0  0  0  0
   36.6840   27.9330   31.0790 N   0  0  0  0  0  0  0  0  0  0  0  0
   36.8670   28.8400   30.0510 C   0  0  0  0  0  0  0  0  0  0  0  0
   36.4390   30.1250   30.1630 N   0  0  0  0  0  0  0  0  0  0  0  0
   37.5250   28.3830   28.8680 N   0  0  0  0  0  0  0  0  0  0  0  0
   35.4820   31.5500   31.3880 H   0  0  0  0  0  0  0  0  0  0  0  0
   38.4280   28.8670   28.5810 H   0  0  0  0  0  0  0  0  0  0  0  0
   37.1820   27.6060   28.2620 H   0  0  0  0  0  0  0  0  0  0  0  0
   32.6430   29.2400   32.7470 Cl  0  0  0  0  0  0  0  0  0  0  0  0
   33.6270   30.0820   33.8980 C   0  0  0  0  0  0  0  0  0  0  0  0
   34.9490   30.1610   33.5440 C   0  0  0  0  0  0  0  0  0  0  0  0
   35.8240   30.8160   34.4150 C   0  0  0  0  0  0  0  0  0  0  0  0
   35.4120   31.3680   35.5790 C   0  0  0  0  0  0  0  0  0  0  0  0
   34.0650   31.2790   35.9220 C   0  0  0  0  0  0  0  0  0  0  0  0
   33.4730   31.9620   37.4060 Cl  0  0  0  0  0  0  0  0  0  0  0  0
   33.2020   30.6380   35.0760 C   0  0  0  0  0  0  0  0  0  0  0  0
   36.8880   30.9310   34.2590 H   0  0  0  0  0  0  0  0  0  0  0  0
   36.0550   31.8890   36.2910 H   0  0  0  0  0  0  0  0  0  0  0  0
   32.1490   30.5490   35.3040 H   0  0  0  0  0  0  0  0  0  0  0  0
   35.8460   27.4000   33.3420 C   0  0  0  0  0  0  0  0  0  0  0  0
   35.2280   27.9240   34.0970 H   0  0  0  0  0  0  0  0  0  0  0  0
   35.2440   26.5110   33.0360 H   0  0  0  0  0  0  0  0  0  0  0  0
   37.1270   25.0690   32.6020 F   0  0  0  0  0  0  0  0  0  0  0  0
   37.7340   25.7510   33.6000 C   0  0  0  0  0  0  0  0  0  0  0  0
   37.1080   26.9190   33.9820 C   0  0  0  0  0  0  0  0  0  0  0  0
   37.6590   27.6810   34.9920 C   0  0  0  0  0  0  0  0  0  0  0  0
   37.2080   28.6150   35.3420 H   0  0  0  0  0  0  0  0  0  0  0  0
   38.8240   27.3210   35.6470 C   0  0  0  0  0  0  0  0  0  0  0  0
   39.2470   27.9230   36.4360 H   0  0  0  0  0  0  0  0  0  0  0  0
   39.4190   26.1510   35.2380 C   0  0  0  0  0  3  0  0  0  0  0  0
   38.9020   25.3540   34.2280 C   0  0  0  0  0  3  0  0  0  0  0  0
  1  8  1  0  0  0  0
  1  2  1  0  0  0  0
  2 13  1  0  0  0  0
  3  2  2  0  0  0  0
  3 22  1  0  0  0  0
  4  3  1  0  0  0  0
  5  6  1  0  0  0  0
  5  4  2  0  0  0  0
  6  1  2  0  0  0  0
  7  5  1  0  0  0  0
  9  7  1  0  0  0  0
 10  7  1  0  0  0  0
 11 12  1  0  0  0  0
 12 18  1  0  0  0  0
 13 12  2  0  0  0  0
 13 14  1  0  0  0  0
 14 15  2  0  0  0  0
 15 16  1  0  0  0  0
 15 20  1  0  0  0  0
 16 17  1  0  0  0  0
 18 21  1  0  0  0  0
 18 16  2  0  0  0  0
 19 14  1  0  0  0  0
 22 27  1  0  0  0  0
 22 23  1  0  0  0  0
 24 22  1  0  0  0  0
 25 26  1  0  0  0  0
 26 27  2  0  0  0  0
 26 33  1  0  0  0  0
 27 28  1  0  0  0  0
 28 29  1  0  0  0  0
 28 30  2  0  0  0  0
 30 31  1  0  0  0  0
 32 30  1  0  0  0  0
 33 32  2  0  0  0  0
M  END
>  <minimizedAffinity>
-5.56438065

$$$$

 OpenBabel03272504103D

 33 35  0  0  0  0  0  0  0  0999 V2000
   38.5160   23.9090   37.1210 C   0  0  0  0  0  0  0  0  0  0  0  0
   38.8210   23.8890   35.7740 C   0  0  0  0  0  0  0  0  0  0  0  0
   38.1530   22.9870   34.9150 C   0  0  0  0  0  0  0  0  0  0  0  0
   37.2260   22.1630   35.4550 N   0  0  0  0  0  0  0  0  0  0  0  0
   36.9490   22.2120   36.8090 C   0  0  0  0  0  0  0  0  0  0  0  0
   37.5950   23.0840   37.6270 N   0  0  0  0  0  0  0  0  0  0  0  0
   35.9580   21.3190   37.3210 N   0  0  0  0  0  0  0  0  0  0  0  0
   39.0400   24.6140   37.7610 H   0  0  0  0  0  0  0  0  0  0  0  0
   35.1040   21.7410   37.7940 H   0  0  0  0  0  0  0  0  0  0  0  0
   36.0110   20.2790   37.2630 H   0  0  0  0  0  0  0  0  0  0  0  0
   38.1210   26.7870   35.1770 Cl  0  0  0  0  0  0  0  0  0  0  0  0
   39.7200   26.1600   34.9500 C   0  0  0  0  0  0  0  0  0  0  0  0
   39.8480   24.8360   35.2790 C   0  0  0  0  0  0  0  0  0  0  0  0
   41.1050   24.2420   35.1370 C   0  0  0  0  0  0  0  0  0  0  0  0
   42.1840   24.9230   34.6890 C   0  0  0  0  0  0  0  0  0  0  0  0
   42.0350   26.2680   34.3590 C   0  0  0  0  0  0  0  0  0  0  0  0
   43.3830   27.2030   33.7840 Cl  0  0  0  0  0  0  0  0  0  0  0  0
   40.8080   26.8580   34.4960 C   0  0  0  0  0  0  0  0  0  0  0  0
   41.3390   23.2140   35.3770 H   0  0  0  0  0  0  0  0  0  0  0  0
   43.1840   24.5050   34.5610 H   0  0  0  0  0  0  0  0  0  0  0  0
   40.6510   27.8980   34.2500 H   0  0  0  0  0  0  0  0  0  0  0  0
   38.4900   22.9800   33.4950 C   0  0  0  0  0  0  0  0  0  0  0  0
   39.3830   23.6180   33.3480 H   0  0  0  0  0  0  0  0  0  0  0  0
   38.7960   21.9630   33.1480 H   0  0  0  0  0  0  0  0  0  0  0  0
   36.7740   21.2890   32.1450 F   0  0  0  0  0  0  0  0  0  0  0  0
   36.5350   22.6060   31.9490 C   0  0  0  0  0  0  0  0  0  0  0  0
   37.3830   23.4650   32.6170 C   0  0  0  0  0  0  0  0  0  0  0  0
   37.2110   24.8270   32.4760 C   0  0  0  0  0  0  0  0  0  0  0  0
   37.8520   25.5590   32.9770 H   0  0  0  0  0  0  0  0  0  0  0  0
   36.2160   25.3760   31.6850 C   0  0  0  0  0  0  0  0  0  0  0  0
   36.0900   26.4420   31.5810 H   0  0  0  0  0  0  0  0  0  0  0  0
   35.3920   24.4880   31.0360 C   0  0  0  0  0  3  0  0  0  0  0  0
   35.5260   23.1120   31.1480 C   0  0  0  0  0  3  0  0  0  0  0  0
  1  6  1  0  0  0  0
  1  8  1  0  0  0  0
  2  1  2  0  0  0  0
  3  4  2  0  0  0  0
  3  2  1  0  0  0  0
  4  5  1  0  0  0  0
  5  7  1  0  0  0  0
  5  6  2  0  0  0  0
  7  9  1  0  0  0  0
 10  7  1  0  0  0  0
 12 11  1  0  0  0  0
 12 13  1  0  0  0  0
 13  2  1  0  0  0  0
 14 13  2  0  0  0  0
 14 19  1  0  0  0  0
 15 14  1  0  0  0  0
 16 18  1  0  0  0  0
 16 15  2  0  0  0  0
 17 16  1  0  0  0  0
 18 12  2  0  0  0  0
 20 15  1  0  0  0  0
 21 18  1  0  0  0  0
 22  3  1  0  0  0  0
 23 22  1  0  0  0  0
 24 22  1  0  0  0  0
 26 25  1  0  0  0  0
 26 27  1  0  0  0  0
 27 22  1  0  0  0  0
 28 27  2  0  0  0  0
 28 29  1  0  0  0  0
 30 28  1  0  0  0  0
 31 30  1  0  0  0  0
 32 33  1  0  0  0  0
 32 30  2  0  0  0  0
 33 26  2  0  0  0  0
M  END
>  <minimizedAffinity>
-5.56235409

$$$$

 OpenBabel03272504103D

 33 35  0  0  0  0  0  0  0  0999 V2000
   37.0010   23.1870   32.3570 C   0  0  0  0  0  0  0  0  0  0  0  0
   37.6520   24.1070   33.1550 C   0  0  0  0  0  0  0  0  0  0  0  0
   37.3660   25.4840   33.0190 C   0  0  0  0  0  0  0  0  0  0  0  0
   36.4490   25.8540   32.0940 N   0  0  0  0  0  0  0  0  0  0  0  0
   35.8190   24.9020   31.3130 C   0  0  0  0  0  0  0  0  0  0  0  0
   36.1000   23.5800   31.4530 N   0  0  0  0  0  0  0  0  0  0  0  0
   34.8590   25.3520   30.3570 N   0  0  0  0  0  0  0  0  0  0  0  0
   37.2360   22.1330   32.4840 H   0  0  0  0  0  0  0  0  0  0  0  0
   33.8600   24.9970   30.4460 H   0  0  0  0  0  0  0  0  0  0  0  0
   35.0660   26.0100   29.5730 H   0  0  0  0  0  0  0  0  0  0  0  0
   40.5460   23.6080   32.3680 Cl  0  0  0  0  0  0  0  0  0  0  0  0
   39.9640   23.3110   33.9720 C   0  0  0  0  0  0  0  0  0  0  0  0
   38.6360   23.6010   34.1420 C   0  0  0  0  0  0  0  0  0  0  0  0
   38.0760   23.4010   35.4080 C   0  0  0  0  0  0  0  0  0  0  0  0
   38.7940   22.9340   36.4540 C   0  0  0  0  0  0  0  0  0  0  0  0
   40.1430   22.6430   36.2620 C   0  0  0  0  0  0  0  0  0  0  0  0
   41.1230   22.0470   37.5670 Cl  0  0  0  0  0  0  0  0  0  0  0  0
   40.6990   22.8380   35.0270 C   0  0  0  0  0  0  0  0  0  0  0  0
   37.0480   23.6060   35.6730 H   0  0  0  0  0  0  0  0  0  0  0  0
   38.4040   22.7610   37.4580 H   0  0  0  0  0  0  0  0  0  0  0  0
   41.7410   22.6230   34.8370 H   0  0  0  0  0  0  0  0  0  0  0  0
   38.0640   26.4420   33.8700 C   0  0  0  0  0  0  0  0  0  0  0  0
   37.4310   27.3450   33.9660 H   0  0  0  0  0  0  0  0  0  0  0  0
   38.1870   26.0570   34.9100 H   0  0  0  0  0  0  0  0  0  0  0  0
   40.3120   26.6210   35.4630 F   0  0  0  0  0  0  0  0  0  0  0  0
   40.5220   26.9180   34.1600 C   0  0  0  0  0  0  0  0  0  0  0  0
   39.4090   26.8320   33.3500 C   0  0  0  0  0  0  0  0  0  0  0  0
   39.5320   27.1160   32.0040 C   0  0  0  0  0  0  0  0  0  0  0  0
   38.6860   27.0690   31.3100 H   0  0  0  0  0  0  0  0  0  0  0  0
   40.7330   27.4880   31.4260 C   0  0  0  0  0  0  0  0  0  0  0  0
   40.8190   27.7080   30.3740 H   0  0  0  0  0  0  0  0  0  0  0  0
   41.8190   27.5620   32.2670 C   0  0  0  0  0  3  0  0  0  0  0  0
   41.7430   27.2850   33.6240 C   0  0  0  0  0  3  0  0  0  0  0  0
  1  8  1  0  0  0  0
  1  2  1  0  0  0  0
  2 13  1  0  0  0  0
  3  2  2  0  0  0  0
  3 22  1  0  0  0  0
  4  3  1  0  0  0  0
  5  6  1  0  0  0  0
  5  4  2  0  0  0  0
  6  1  2  0  0  0  0
  7  9  1  0  0  0  0
  7  5  1  0  0  0  0
 10  7  1  0  0  0  0
 11 12  1  0  0  0  0
 12 13  2  0  0  0  0
 12 18  1  0  0  0  0
 13 14  1  0  0  0  0
 14 19  1  0  0  0  0
 14 15  2  0  0  0  0
 15 20  1  0  0  0  0
 16 15  1  0  0  0  0
 16 17  1  0  0  0  0
 18 16  2  0  0  0  0
 21 18  1  0  0  0  0
 22 23  1  0  0  0  0
 22 24  1  0  0  0  0
 26 25  1  0  0  0  0
 27 22  1  0  0  0  0
 27 26  2  0  0  0  0
 28 27  1  0  0  0  0
 29 28  1  0  0  0  0
 30 28  2  0  0  0  0
 30 32  1  0  0  0  0
 31 30  1  0  0  0  0
 32 33  2  0  0  0  0
 33 26  1  0  0  0  0
M  END
>  <minimizedAffinity>
-5.55214405

$$$$
