
 OpenBabel03272506383D

 37 39  0  0  1  0  0  0  0  0999 V2000
   34.1940   28.0600   49.6410 O   0  0  0  0  0  0  0  0  0  0  0  0
   34.0220   28.6580   48.5710 C   0  0  0  0  0  0  0  0  0  0  0  0
   34.8490   29.7840   48.1920 C   0  0  2  0  0  0  0  0  0  0  0  0
   34.3640   30.0350   46.7270 C   0  0  0  0  0  0  0  0  0  0  0  0
   32.9600   29.4980   46.7450 C   0  0  0  0  0  0  0  0  0  0  0  0
   33.0170   28.3240   47.6080 N   0  0  0  0  0  0  0  0  0  0  0  0
   34.6380   30.6760   48.7790 H   0  0  0  0  0  0  0  0  0  0  0  0
   34.3160   31.1330   46.6290 H   0  0  0  0  0  0  0  0  0  0  0  0
   35.0240   29.5240   46.0260 H   0  0  0  0  0  0  0  0  0  0  0  0
   32.2050   30.2190   47.0570 H   0  0  0  0  0  0  0  0  0  0  0  0
   32.7690   29.1100   45.7110 H   0  0  0  0  0  0  0  0  0  0  0  0
   32.2160   27.1270   47.4630 C   0  0  0  0  0  0  0  0  0  0  0  0
   32.0040   26.7400   48.4600 H   0  0  0  0  0  0  0  0  0  0  0  0
   32.7670   26.3130   46.9180 H   0  0  0  0  0  0  0  0  0  0  0  0
   31.4040   25.6680   45.1210 F   0  0  0  0  0  0  0  0  0  0  0  0
   30.5930   26.6520   45.5670 C   0  0  0  0  0  0  0  0  0  0  0  0
   30.9710   27.3540   46.6880 C   0  0  0  0  0  0  0  0  0  0  0  0
   30.1240   28.3710   47.1460 C   0  0  0  0  0  0  0  0  0  0  0  0
   30.3340   28.9750   48.0150 H   0  0  0  0  0  0  0  0  0  0  0  0
   28.9730   28.5840   46.4280 C   0  0  0  0  0  0  0  0  0  0  0  0
   28.3010   29.3740   46.7730 H   0  0  0  0  0  0  0  0  0  0  0  0
   28.5760   27.8830   45.2920 C   0  0  0  0  0  3  0  0  0  0  0  0
   29.4310   26.8830   44.8600 C   0  0  0  0  0  3  0  0  0  0  0  0
   36.2410   29.4870   48.0880 O   0  0  0  0  0  0  0  0  0  0  0  0
   37.1400   30.4970   48.4250 C   0  0  0  0  0  0  0  0  0  0  0  0
   37.4030   30.6820   49.7690 C   0  0  0  0  0  0  0  0  0  0  0  0
   38.2930   31.6790   50.1340 C   0  0  0  0  0  0  0  0  0  0  0  0
   38.8690   32.4340   49.1550 N   0  0  0  0  0  0  0  0  0  0  0  0
   38.6000   32.2380   47.8520 C   0  0  0  0  0  0  0  0  0  0  0  0
   37.7500   31.2850   47.5160 N   0  0  0  0  0  0  0  0  0  0  0  0
   40.0050   32.2770   45.9390 C   0  0  0  0  0  0  0  0  0  0  0  0
   40.1820   31.0210   45.9160 O   0  0  0  0  0  0  0  0  0  0  0  0
   39.2240   33.0510   46.8640 N   0  0  0  0  0  0  0  0  0  0  0  0
   36.9800   30.1180   50.5950 H   0  0  0  0  0  0  0  0  0  0  0  0
   38.5360   31.8700   51.1490 H   0  0  0  0  0  0  0  0  0  0  0  0
   40.5390   32.7560   45.1290 H   0  0  0  0  0  0  0  0  0  0  0  0
   39.2020   34.0780   46.7150 H   0  0  0  0  0  0  0  0  0  0  0  0
  2  1  2  0  0  0  0
  3  2  1  0  0  0  0
  3  7  1  1  0  0  0
  4  5  1  0  0  0  0
  4  3  1  0  0  0  0
  5 10  1  0  0  0  0
  5  6  1  0  0  0  0
  6  2  1  0  0  0  0
  8  4  1  0  0  0  0
  9  4  1  0  0  0  0
 11  5  1  0  0  0  0
 12  6  1  0  0  0  0
 12 13  1  0  0  0  0
 14 12  1  0  0  0  0
 15 16  1  0  0  0  0
 16 17  1  0  0  0  0
 17 18  2  0  0  0  0
 17 12  1  0  0  0  0
 18 19  1  0  0  0  0
 20 21  1  0  0  0  0
 20 18  1  0  0  0  0
 22 20  2  0  0  0  0
 23 22  1  0  0  0  0
 23 16  2  0  0  0  0
 24  3  1  0  0  0  0
 24 25  1  0  0  0  0
 25 26  1  0  0  0  0
 26 27  2  0  0  0  0
 26 34  1  0  0  0  0
 27 35  1  0  0  0  0
 28 27  1  0  0  0  0
 29 28  2  0  0  0  0
 30 29  1  0  0  0  0
 30 25  2  0  0  0  0
 31 33  1  0  0  0  0
 32 31  2  0  0  0  0
 33 29  1  0  0  0  0
 36 31  1  0  0  0  0
 37 33  1  0  0  0  0
M  END
>  <minimizedAffinity>
-5.08703613

>  <minimizedRMSD>
3.6633873

$$$$
