
 OpenBabel03272502583D

 34 36  0  0  1  0  0  0  0  0999 V2000
   35.9220   29.7450   48.7710 N   0  0  0  0  0  0  0  0  0  0  0  0
   36.6940   28.9160   49.6730 C   0  0  0  0  0  0  0  0  0  0  0  0
   37.1690   29.5280   50.9070 C   0  0  0  0  0  0  0  0  0  0  0  0
   37.4110   30.9780   50.9310 C   0  0  0  0  0  0  0  0  0  0  0  0
   36.6160   31.7430   49.9070 C   0  0  0  0  0  0  0  0  0  0  0  0
   36.6320   30.9920   48.5800 C   0  0  1  0  0  0  0  0  0  0  0  0
   37.5890   28.5720   49.0770 H   0  0  0  0  0  0  0  0  0  0  0  0
   36.1170   27.9900   49.8860 H   0  0  0  0  0  0  0  0  0  0  0  0
   38.0760   28.9800   51.2570 H   0  0  0  0  0  0  0  0  0  0  0  0
   36.4070   29.3100   51.7060 H   0  0  0  0  0  0  0  0  0  0  0  0
   38.4950   31.1820   50.7480 H   0  0  0  0  0  0  0  0  0  0  0  0
   37.1880   31.4180   51.9440 H   0  0  0  0  0  0  0  0  0  0  0  0
   36.9650   32.7730   49.8110 H   0  0  0  0  0  0  0  0  0  0  0  0
   35.5590   31.7510   50.2570 H   0  0  0  0  0  0  0  0  0  0  0  0
   36.1520   31.6680   47.8510 H   0  0  0  0  0  0  0  0  0  0  0  0
   34.6730   29.3770   48.1780 C   0  0  0  0  0  0  0  0  0  0  0  0
   34.1390   29.9920   47.0480 C   0  0  0  0  0  0  0  0  0  0  0  0
   32.9090   29.5360   46.5720 C   0  0  0  0  0  0  0  0  0  0  0  0
   32.3010   28.5210   47.2310 N   0  0  0  0  0  0  0  0  0  0  0  0
   32.8540   27.9550   48.3190 C   0  0  0  0  0  0  0  0  0  0  0  0
   34.0440   28.3840   48.7950 N   0  0  0  0  0  0  0  0  0  0  0  0
   34.6860   30.7820   46.5980 H   0  0  0  0  0  0  0  0  0  0  0  0
   32.5330   30.0440   45.6930 H   0  0  0  0  0  0  0  0  0  0  0  0
   32.3020   27.1470   48.7870 H   0  0  0  0  0  0  0  0  0  0  0  0
   37.9880   30.7510   48.3030 O   0  0  0  0  0  0  0  0  0  0  0  0
   39.0690   33.3160   48.3580 F   0  0  0  0  0  0  0  0  0  0  0  0
   39.1950   32.4670   47.2990 C   0  0  0  0  0  0  0  0  0  0  0  0
   38.6810   31.1710   47.2000 C   0  0  0  0  0  0  0  0  0  0  0  0
   38.9310   30.5050   46.0410 C   0  0  0  0  0  0  0  0  0  0  0  0
   38.5270   29.5040   45.9840 H   0  0  0  0  0  0  0  0  0  0  0  0
   39.6500   31.0420   44.9930 C   0  0  0  0  0  0  0  0  0  0  0  0
   39.7730   30.3970   44.1310 H   0  0  0  0  0  0  0  0  0  0  0  0
   40.1490   32.3090   45.0950 C   0  0  0  0  0  0  0  0  0  0  0  0
   39.9190   33.0270   46.2610 C   0  0  0  0  0  0  0  0  0  0  0  0
  1  2  1  0  0  0  0
  2  8  1  0  0  0  0
  2  3  1  0  0  0  0
  3  4  1  0  0  0  0
  3  9  1  0  0  0  0
  3 10  1  0  0  0  0
  4 12  1  0  0  0  0
  5 14  1  0  0  0  0
  5  4  1  0  0  0  0
  6 15  1  6  0  0  0
  6  1  1  0  0  0  0
  6  5  1  0  0  0  0
  7  2  1  0  0  0  0
 11  4  1  0  0  0  0
 13  5  1  0  0  0  0
 16  1  1  0  0  0  0
 16 21  1  0  0  0  0
 17 16  2  0  0  0  0
 18 17  1  0  0  0  0
 18 19  2  0  0  0  0
 19 20  1  0  0  0  0
 20 24  1  0  0  0  0
 20 21  2  0  0  0  0
 22 17  1  0  0  0  0
 23 18  1  0  0  0  0
 25  6  1  0  0  0  0
 27 26  1  0  0  0  0
 28 27  1  0  0  0  0
 28 25  1  0  0  0  0
 29 28  2  0  0  0  0
 30 29  1  0  0  0  0
 31 33  2  0  0  0  0
 31 29  1  0  0  0  0
 32 31  1  0  0  0  0
 33 34  1  0  0  0  0
 34 27  2  0  0  0  0
M  END
>  <minimizedAffinity>
-6.30391932

>  <minimizedRMSD>
1.00151706

$$$$
