REMARK  Name = 
REMARK  3 active torsions:
REMARK  status: ('A' for Active; 'I' for Inactive)
REMARK    1  A    between atoms: C_3  and  C_13
REMARK    2  A    between atoms: C_8  and  C_15
REMARK    3  A    between atoms: C_15  and  C_25
REMARK                            x       y       z     vdW  Elec       q    Type
REMARK                         _______ _______ _______ _____ _____    ______ ____
ROOT
ATOM      1 CL   UNL     1      38.465  30.808  49.852  0.00  0.00    +0.000 Cl
ATOM      2  C   UNL     1      37.093  30.362  48.892  0.00  0.00    +0.000 A 
ATOM      3  C   UNL     1      37.086  30.644  47.531  0.00  0.00    +0.000 A 
ATOM      4  C   UNL     1      36.021  30.314  46.732  0.00  0.00    +0.000 A 
ATOM      5  C   UNL     1      34.918  29.688  47.262  0.00  0.00    +0.000 A 
ATOM      6  C   UNL     1      34.887  29.389  48.614  0.00  0.00    +0.000 A 
ATOM      7 CL   UNL     1      33.540  28.595  49.408  0.00  0.00    +0.000 Cl
ATOM      8  C   UNL     1      35.988  29.742  49.382  0.00  0.00    +0.000 A 
ATOM      9  H   UNL     1      35.986  30.523  45.662  0.00  0.00    +0.000 HD
ATOM     10  H   UNL     1      34.056  29.410  46.671  0.00  0.00    +0.000 HD
ENDROOT
BRANCH   3  15
ATOM     11  C   UNL     1      39.593  33.160  46.631  0.00  0.00    +0.000 A 
ATOM     12  C   UNL     1      40.469  32.460  45.799  0.00  0.00    +0.000 A 
ATOM     13  C   UNL     1      40.179  31.092  45.550  0.00  0.00    +0.000 A 
ATOM     14  N   UNL     1      39.074  30.574  46.139  0.00  0.00    +0.000 NA
ATOM     15  C   UNL     1      38.243  31.297  46.948  0.00  0.00    +0.000 A 
ATOM     16  N   UNL     1      38.523  32.573  47.174  0.00  0.00    +0.000 NA
ATOM     17  H   UNL     1      39.851  34.210  46.797  0.00  0.00    +0.000 HD
ATOM     18  H   UNL     1      41.353  32.854  45.320  0.00  0.00    +0.000 HD
ATOM     19  H   UNL     1      40.756  30.439  44.938  0.00  0.00    +0.000 HD
ENDBRANCH   3  15
BRANCH   8  20
ATOM     20  C   UNL     1      35.969  29.412  50.840  0.00  0.00    +0.000 C 
ATOM     21  H   UNL     1      36.390  30.245  51.436  0.00  0.00    +0.000 HD
ATOM     22  H   UNL     1      34.924  29.168  51.164  0.00  0.00    +0.000 HD
BRANCH  20  25
ATOM     23  F   UNL     1      37.813  28.523  48.924  0.00  0.00    +0.000 F 
ATOM     24  C   UNL     1      37.717  27.851  50.116  0.00  0.00    +0.000 A 
ATOM     25  C   UNL     1      36.828  28.226  51.121  0.00  0.00    +0.000 A 
ATOM     26  C   UNL     1      36.809  27.482  52.287  0.00  0.00    +0.000 A 
ATOM     27  H   UNL     1      36.083  27.849  53.014  0.00  0.00    +0.000 HD
ATOM     28  C   UNL     1      37.641  26.400  52.457  0.00  0.00    +0.000 A 
ATOM     29  H   UNL     1      37.572  25.856  53.407  0.00  0.00    +0.000 HD
ATOM     30  C   UNL     1      38.527  26.038  51.438  0.00  0.00    +0.000 A 
ATOM     31  C   UNL     1      38.564  26.771  50.257  0.00  0.00    +0.000 A 
ENDBRANCH  20  25
ENDBRANCH   8  20
TORSDOF 3
