
 OpenBabel03272506403D

 37 39  0  0  1  0  0  0  0  0999 V2000
   37.3900   27.8610   35.3990 O   0  0  0  0  0  0  0  0  0  0  0  0
   37.0160   27.6820   34.2330 C   0  0  0  0  0  0  0  0  0  0  0  0
   37.5770   26.6320   33.4110 C   0  0  2  0  0  0  0  0  0  0  0  0
   36.6560   26.7100   32.1500 C   0  0  0  0  0  0  0  0  0  0  0  0
   36.1960   28.1410   32.1630 C   0  0  0  0  0  0  0  0  0  0  0  0
   36.0160   28.4660   33.5730 N   0  0  0  0  0  0  0  0  0  0  0  0
   38.5990   26.8430   33.1000 H   0  0  0  0  0  0  0  0  0  0  0  0
   37.3360   26.5710   31.2920 H   0  0  0  0  0  0  0  0  0  0  0  0
   35.8470   25.9850   32.2380 H   0  0  0  0  0  0  0  0  0  0  0  0
   36.8600   28.8340   31.6480 H   0  0  0  0  0  0  0  0  0  0  0  0
   35.1680   28.1350   31.7160 H   0  0  0  0  0  0  0  0  0  0  0  0
   35.0290   29.3770   34.1130 C   0  0  0  0  0  0  0  0  0  0  0  0
   34.6520   28.9520   35.0440 H   0  0  0  0  0  0  0  0  0  0  0  0
   34.1410   29.4890   33.4340 H   0  0  0  0  0  0  0  0  0  0  0  0
   35.4100   31.3460   32.0510 F   0  0  0  0  0  0  0  0  0  0  0  0
   35.7360   31.6830   33.3190 C   0  0  0  0  0  0  0  0  0  0  0  0
   35.5550   30.7500   34.3120 C   0  0  0  0  0  0  0  0  0  0  0  0
   35.8920   31.1090   35.6240 C   0  0  0  0  0  0  0  0  0  0  0  0
   35.7850   30.4460   36.4680 H   0  0  0  0  0  0  0  0  0  0  0  0
   36.3810   32.3790   35.8070 C   0  0  0  0  0  0  0  0  0  0  0  0
   36.6500   32.6740   36.8250 H   0  0  0  0  0  0  0  0  0  0  0  0
   36.5700   33.3340   34.8140 C   0  0  0  0  0  3  0  0  0  0  0  0
   36.2300   32.9550   33.5260 C   0  0  0  0  0  3  0  0  0  0  0  0
   37.4010   25.3150   33.9310 O   0  0  0  0  0  0  0  0  0  0  0  0
   38.4670   24.7520   34.6300 C   0  0  0  0  0  0  0  0  0  0  0  0
   39.7380   25.0000   34.1450 C   0  0  0  0  0  0  0  0  0  0  0  0
   40.8170   24.4520   34.8200 C   0  0  0  0  0  0  0  0  0  0  0  0
   40.5810   23.6940   35.9290 N   0  0  0  0  0  0  0  0  0  0  0  0
   39.3370   23.4640   36.3840 C   0  0  0  0  0  0  0  0  0  0  0  0
   38.3150   23.9920   35.7330 N   0  0  0  0  0  0  0  0  0  0  0  0
   38.4650   23.3870   38.5910 C   0  0  0  0  0  0  0  0  0  0  0  0
   38.0580   24.5880   38.5830 O   0  0  0  0  0  0  0  0  0  0  0  0
   39.1370   22.6660   37.5450 N   0  0  0  0  0  0  0  0  0  0  0  0
   39.9940   25.5920   33.2720 H   0  0  0  0  0  0  0  0  0  0  0  0
   41.8160   24.6060   34.4980 H   0  0  0  0  0  0  0  0  0  0  0  0
   38.2420   22.9110   39.5370 H   0  0  0  0  0  0  0  0  0  0  0  0
   39.3920   21.6800   37.7450 H   0  0  0  0  0  0  0  0  0  0  0  0
  2  1  2  0  0  0  0
  3  7  1  6  0  0  0
  3 24  1  0  0  0  0
  3  2  1  0  0  0  0
  4  5  1  0  0  0  0
  4  9  1  0  0  0  0
  4  3  1  0  0  0  0
  5  6  1  0  0  0  0
  6 12  1  0  0  0  0
  6  2  1  0  0  0  0
  8  4  1  0  0  0  0
 10  5  1  0  0  0  0
 11  5  1  0  0  0  0
 12 17  1  0  0  0  0
 12 13  1  0  0  0  0
 14 12  1  0  0  0  0
 15 16  1  0  0  0  0
 16 23  2  0  0  0  0
 16 17  1  0  0  0  0
 17 18  2  0  0  0  0
 18 20  1  0  0  0  0
 18 19  1  0  0  0  0
 20 21  1  0  0  0  0
 22 20  2  0  0  0  0
 23 22  1  0  0  0  0
 24 25  1  0  0  0  0
 25 30  1  0  0  0  0
 26 25  2  0  0  0  0
 26 27  1  0  0  0  0
 27 28  2  0  0  0  0
 28 29  1  0  0  0  0
 29 33  1  0  0  0  0
 30 29  2  0  0  0  0
 31 36  1  0  0  0  0
 32 31  2  0  0  0  0
 33 37  1  0  0  0  0
 33 31  1  0  0  0  0
 34 26  1  0  0  0  0
 35 27  1  0  0  0  0
M  END
>  <minimizedAffinity>
-5.95948792

$$$$

 OpenBabel03272506403D

 37 39  0  0  1  0  0  0  0  0999 V2000
   37.4840   24.8560   33.1510 O   0  0  0  0  0  0  0  0  0  0  0  0
   37.7090   25.6610   34.0640 C   0  0  0  0  0  0  0  0  0  0  0  0
   37.6910   27.0890   33.8360 C   0  0  2  0  0  0  0  0  0  0  0  0
   37.8360   27.6300   35.2960 C   0  0  0  0  0  0  0  0  0  0  0  0
   38.5560   26.5110   35.9950 C   0  0  0  0  0  0  0  0  0  0  0  0
   38.0090   25.2900   35.4140 N   0  0  0  0  0  0  0  0  0  0  0  0
   38.5470   27.4330   33.2580 H   0  0  0  0  0  0  0  0  0  0  0  0
   38.5240   28.4890   35.2140 H   0  0  0  0  0  0  0  0  0  0  0  0
   36.8510   27.8480   35.7090 H   0  0  0  0  0  0  0  0  0  0  0  0
   39.6420   26.5620   35.9300 H   0  0  0  0  0  0  0  0  0  0  0  0
   38.1970   26.5330   37.0560 H   0  0  0  0  0  0  0  0  0  0  0  0
   37.8310   24.0300   36.1040 C   0  0  0  0  0  0  0  0  0  0  0  0
   37.0810   23.4520   35.5630 H   0  0  0  0  0  0  0  0  0  0  0  0
   37.4320   24.1700   37.1450 H   0  0  0  0  0  0  0  0  0  0  0  0
   39.0500   23.2920   38.6030 F   0  0  0  0  0  0  0  0  0  0  0  0
   39.6730   22.9260   37.4610 C   0  0  0  0  0  0  0  0  0  0  0  0
   39.0970   23.2720   36.2610 C   0  0  0  0  0  0  0  0  0  0  0  0
   39.7480   22.8860   35.0810 C   0  0  0  0  0  0  0  0  0  0  0  0
   39.3730   23.1100   34.0950 H   0  0  0  0  0  0  0  0  0  0  0  0
   40.9200   22.1870   35.2270 C   0  0  0  0  0  0  0  0  0  0  0  0
   41.4400   21.8790   34.3160 H   0  0  0  0  0  0  0  0  0  0  0  0
   41.5160   21.8290   36.4310 C   0  0  0  0  0  3  0  0  0  0  0  0
   40.8540   22.2220   37.5830 C   0  0  0  0  0  3  0  0  0  0  0  0
   36.4440   27.5970   33.3630 O   0  0  0  0  0  0  0  0  0  0  0  0
   36.4690   28.4140   32.2350 C   0  0  0  0  0  0  0  0  0  0  0  0
   35.9900   29.7030   32.3800 C   0  0  0  0  0  0  0  0  0  0  0  0
   36.0020   30.5370   31.2750 C   0  0  0  0  0  0  0  0  0  0  0  0
   36.4830   30.0530   30.0930 N   0  0  0  0  0  0  0  0  0  0  0  0
   36.9440   28.7960   29.9720 C   0  0  0  0  0  0  0  0  0  0  0  0
   36.9280   28.0100   31.0340 N   0  0  0  0  0  0  0  0  0  0  0  0
   38.8090   27.9190   28.7950 C   0  0  0  0  0  0  0  0  0  0  0  0
   39.5790   27.9230   29.8040 O   0  0  0  0  0  0  0  0  0  0  0  0
   37.4360   28.3330   28.7200 N   0  0  0  0  0  0  0  0  0  0  0  0
   35.5950   30.1480   33.2880 H   0  0  0  0  0  0  0  0  0  0  0  0
   35.6480   31.5360   31.3220 H   0  0  0  0  0  0  0  0  0  0  0  0
   39.3230   27.5400   27.9210 H   0  0  0  0  0  0  0  0  0  0  0  0
   36.9730   28.2530   27.7940 H   0  0  0  0  0  0  0  0  0  0  0  0
  1  2  2  0  0  0  0
  2  6  1  0  0  0  0
  3  7  1  6  0  0  0
  3  2  1  0  0  0  0
  3  4  1  0  0  0  0
  4  9  1  0  0  0  0
  4  5  1  0  0  0  0
  5 11  1  0  0  0  0
  6  5  1  0  0  0  0
  6 12  1  0  0  0  0
  8  4  1  0  0  0  0
 10  5  1  0  0  0  0
 12 17  1  0  0  0  0
 12 14  1  0  0  0  0
 13 12  1  0  0  0  0
 16 23  1  0  0  0  0
 16 15  1  0  0  0  0
 17 16  2  0  0  0  0
 18 20  2  0  0  0  0
 18 17  1  0  0  0  0
 19 18  1  0  0  0  0
 20 22  1  0  0  0  0
 21 20  1  0  0  0  0
 22 23  2  0  0  0  0
 24  3  1  0  0  0  0
 25 26  1  0  0  0  0
 25 24  1  0  0  0  0
 26 34  1  0  0  0  0
 27 35  1  0  0  0  0
 27 26  2  0  0  0  0
 28 27  1  0  0  0  0
 29 28  2  0  0  0  0
 29 30  1  0  0  0  0
 30 25  2  0  0  0  0
 31 32  2  0  0  0  0
 33 31  1  0  0  0  0
 33 29  1  0  0  0  0
 36 31  1  0  0  0  0
 37 33  1  0  0  0  0
M  END
>  <minimizedAffinity>
-5.82088947

$$$$

 OpenBabel03272506403D

 37 39  0  0  1  0  0  0  0  0999 V2000
   36.4970   25.6160   32.6880 O   0  0  0  0  0  0  0  0  0  0  0  0
   37.2630   26.1310   33.5110 C   0  0  0  0  0  0  0  0  0  0  0  0
   37.2910   27.5600   33.7290 C   0  0  2  0  0  0  0  0  0  0  0  0
   38.2500   27.6600   34.9600 C   0  0  0  0  0  0  0  0  0  0  0  0
   39.0970   26.4260   34.8230 C   0  0  0  0  0  0  0  0  0  0  0  0
   38.1890   25.4000   34.3240 N   0  0  0  0  0  0  0  0  0  0  0  0
   37.7430   28.1030   32.9000 H   0  0  0  0  0  0  0  0  0  0  0  0
   38.8820   28.5420   34.7570 H   0  0  0  0  0  0  0  0  0  0  0  0
   37.6670   27.6960   35.8810 H   0  0  0  0  0  0  0  0  0  0  0  0
   39.9800   26.5520   34.1980 H   0  0  0  0  0  0  0  0  0  0  0  0
   39.3610   26.1200   35.8680 H   0  0  0  0  0  0  0  0  0  0  0  0
   38.2610   23.9860   34.6260 C   0  0  0  0  0  0  0  0  0  0  0  0
   39.0080   23.5380   33.9690 H   0  0  0  0  0  0  0  0  0  0  0  0
   37.2930   23.4570   34.4120 H   0  0  0  0  0  0  0  0  0  0  0  0
   40.5580   22.5750   35.6280 F   0  0  0  0  0  0  0  0  0  0  0  0
   39.6570   23.0360   36.5240 C   0  0  0  0  0  0  0  0  0  0  0  0
   38.5570   23.7140   36.0550 C   0  0  0  0  0  0  0  0  0  0  0  0
   37.6290   24.1920   36.9900 C   0  0  0  0  0  0  0  0  0  0  0  0
   36.7370   24.7350   36.7190 H   0  0  0  0  0  0  0  0  0  0  0  0
   37.9020   23.9390   38.3110 C   0  0  0  0  0  0  0  0  0  0  0  0
   37.1870   24.3040   39.0530 H   0  0  0  0  0  0  0  0  0  0  0  0
   39.0090   23.2550   38.8020 C   0  0  0  0  0  3  0  0  0  0  0  0
   39.9110   22.7920   37.8580 C   0  0  0  0  0  3  0  0  0  0  0  0
   36.0510   28.1170   34.1650 O   0  0  0  0  0  0  0  0  0  0  0  0
   35.8810   29.4930   34.0270 C   0  0  0  0  0  0  0  0  0  0  0  0
   35.7470   29.9840   32.7410 C   0  0  0  0  0  0  0  0  0  0  0  0
   35.5760   31.3480   32.5740 C   0  0  0  0  0  0  0  0  0  0  0  0
   35.5490   32.1470   33.6790 N   0  0  0  0  0  0  0  0  0  0  0  0
   35.6810   31.6500   34.9210 C   0  0  0  0  0  0  0  0  0  0  0  0
   35.8430   30.3470   35.0690 N   0  0  0  0  0  0  0  0  0  0  0  0
   34.5810   32.1960   36.9520 C   0  0  0  0  0  0  0  0  0  0  0  0
   33.7200   31.2680   36.8560 O   0  0  0  0  0  0  0  0  0  0  0  0
   35.6470   32.5200   36.0470 N   0  0  0  0  0  0  0  0  0  0  0  0
   35.7600   29.4060   31.8220 H   0  0  0  0  0  0  0  0  0  0  0  0
   35.4680   31.7860   31.6130 H   0  0  0  0  0  0  0  0  0  0  0  0
   34.4270   32.7700   37.8570 H   0  0  0  0  0  0  0  0  0  0  0  0
   36.2520   33.3250   36.3040 H   0  0  0  0  0  0  0  0  0  0  0  0
  1  2  2  0  0  0  0
  2  3  1  0  0  0  0
  2  6  1  0  0  0  0
  3  7  1  6  0  0  0
  3 24  1  0  0  0  0
  3  4  1  0  0  0  0
  4  9  1  0  0  0  0
  5  4  1  0  0  0  0
  5 11  1  0  0  0  0
  6 12  1  0  0  0  0
  6  5  1  0  0  0  0
  8  4  1  0  0  0  0
 10  5  1  0  0  0  0
 12 17  1  0  0  0  0
 13 12  1  0  0  0  0
 14 12  1  0  0  0  0
 15 16  1  0  0  0  0
 16 23  1  0  0  0  0
 17 16  2  0  0  0  0
 17 18  1  0  0  0  0
 18 20  2  0  0  0  0
 19 18  1  0  0  0  0
 20 22  1  0  0  0  0
 20 21  1  0  0  0  0
 23 22  2  0  0  0  0
 25 24  1  0  0  0  0
 25 30  1  0  0  0  0
 26 25  2  0  0  0  0
 27 26  1  0  0  0  0
 27 28  2  0  0  0  0
 28 29  1  0  0  0  0
 29 30  2  0  0  0  0
 29 33  1  0  0  0  0
 31 36  1  0  0  0  0
 32 31  2  0  0  0  0
 33 37  1  0  0  0  0
 33 31  1  0  0  0  0
 34 26  1  0  0  0  0
 35 27  1  0  0  0  0
M  END
>  <minimizedAffinity>
-5.77248955

$$$$

 OpenBabel03272506403D

 37 39  0  0  1  0  0  0  0  0999 V2000
   36.9390   27.8740   34.6310 O   0  0  0  0  0  0  0  0  0  0  0  0
   38.0780   27.4030   34.5160 C   0  0  0  0  0  0  0  0  0  0  0  0
   38.8330   26.9590   35.6660 C   0  0  2  0  0  0  0  0  0  0  0  0
   40.0710   26.2960   34.9790 C   0  0  0  0  0  0  0  0  0  0  0  0
   40.1530   27.0250   33.6670 C   0  0  0  0  0  0  0  0  0  0  0  0
   38.7670   27.2440   33.2710 N   0  0  0  0  0  0  0  0  0  0  0  0
   39.1870   27.7860   36.2800 H   0  0  0  0  0  0  0  0  0  0  0  0
   40.9340   26.5940   35.5980 H   0  0  0  0  0  0  0  0  0  0  0  0
   39.9060   25.2220   34.8780 H   0  0  0  0  0  0  0  0  0  0  0  0
   40.7370   27.9440   33.6980 H   0  0  0  0  0  0  0  0  0  0  0  0
   40.5690   26.2880   32.9340 H   0  0  0  0  0  0  0  0  0  0  0  0
   38.2700   27.2750   31.9110 C   0  0  0  0  0  0  0  0  0  0  0  0
   39.1260   27.3720   31.2410 H   0  0  0  0  0  0  0  0  0  0  0  0
   37.6160   28.1680   31.7200 H   0  0  0  0  0  0  0  0  0  0  0  0
   35.3950   27.1820   31.9100 F   0  0  0  0  0  0  0  0  0  0  0  0
   36.0660   26.0570   31.5750 C   0  0  0  0  0  0  0  0  0  0  0  0
   37.4410   26.0920   31.5710 C   0  0  0  0  0  0  0  0  0  0  0  0
   38.1290   24.9230   31.2190 C   0  0  0  0  0  0  0  0  0  0  0  0
   39.2050   24.8530   31.1870 H   0  0  0  0  0  0  0  0  0  0  0  0
   37.3610   23.8290   30.9070 C   0  0  0  0  0  0  0  0  0  0  0  0
   37.8830   22.9080   30.6320 H   0  0  0  0  0  0  0  0  0  0  0  0
   35.9710   23.7760   30.9070 C   0  0  0  0  0  3  0  0  0  0  0  0
   35.3140   24.9450   31.2580 C   0  0  0  0  0  3  0  0  0  0  0  0
   38.2110   25.9180   36.4190 O   0  0  0  0  0  0  0  0  0  0  0  0
   38.4450   24.6050   36.0160 C   0  0  0  0  0  0  0  0  0  0  0  0
   37.8280   24.1850   34.8520 C   0  0  0  0  0  0  0  0  0  0  0  0
   38.0430   22.8840   34.4280 C   0  0  0  0  0  0  0  0  0  0  0  0
   38.8490   22.0750   35.1730 N   0  0  0  0  0  0  0  0  0  0  0  0
   39.4400   22.5030   36.3030 C   0  0  0  0  0  0  0  0  0  0  0  0
   39.2280   23.7460   36.6980 N   0  0  0  0  0  0  0  0  0  0  0  0
   41.6140   22.1230   37.1740 C   0  0  0  0  0  0  0  0  0  0  0  0
   42.1000   23.2010   36.7140 O   0  0  0  0  0  0  0  0  0  0  0  0
   40.2730   21.6240   37.0500 N   0  0  0  0  0  0  0  0  0  0  0  0
   37.1770   24.7750   34.2140 H   0  0  0  0  0  0  0  0  0  0  0  0
   37.5980   22.5020   33.5430 H   0  0  0  0  0  0  0  0  0  0  0  0
   42.3660   21.5640   37.7180 H   0  0  0  0  0  0  0  0  0  0  0  0
   40.0680   20.7120   37.5020 H   0  0  0  0  0  0  0  0  0  0  0  0
  2  1  2  0  0  0  0
  2  3  1  0  0  0  0
  3  7  1  1  0  0  0
  3 24  1  0  0  0  0
  4  8  1  0  0  0  0
  4  3  1  0  0  0  0
  5 10  1  0  0  0  0
  5  4  1  0  0  0  0
  6  5  1  0  0  0  0
  6  2  1  0  0  0  0
  9  4  1  0  0  0  0
 11  5  1  0  0  0  0
 12  6  1  0  0  0  0
 13 12  1  0  0  0  0
 14 12  1  0  0  0  0
 16 15  1  0  0  0  0
 17 16  1  0  0  0  0
 17 12  1  0  0  0  0
 18 17  2  0  0  0  0
 19 18  1  0  0  0  0
 20 22  2  0  0  0  0
 20 18  1  0  0  0  0
 21 20  1  0  0  0  0
 22 23  1  0  0  0  0
 23 16  2  0  0  0  0
 25 24  1  0  0  0  0
 25 30  1  0  0  0  0
 26 25  2  0  0  0  0
 27 26  1  0  0  0  0
 27 28  2  0  0  0  0
 28 29  1  0  0  0  0
 29 30  2  0  0  0  0
 29 33  1  0  0  0  0
 31 36  1  0  0  0  0
 32 31  2  0  0  0  0
 33 31  1  0  0  0  0
 33 37  1  0  0  0  0
 34 26  1  0  0  0  0
 35 27  1  0  0  0  0
M  END
>  <minimizedAffinity>
-5.74465799

$$$$

 OpenBabel03272506403D

 37 39  0  0  1  0  0  0  0  0999 V2000
   36.5710   25.7020   32.6270 O   0  0  0  0  0  0  0  0  0  0  0  0
   37.3210   26.0820   33.5360 C   0  0  0  0  0  0  0  0  0  0  0  0
   37.4200   27.4780   33.9020 C   0  0  2  0  0  0  0  0  0  0  0  0
   38.3150   27.3930   35.1810 C   0  0  0  0  0  0  0  0  0  0  0  0
   39.0940   26.1280   34.9570 C   0  0  0  0  0  0  0  0  0  0  0  0
   38.1570   25.2160   34.3120 N   0  0  0  0  0  0  0  0  0  0  0  0
   37.9470   28.0710   33.1560 H   0  0  0  0  0  0  0  0  0  0  0  0
   39.0070   28.2480   35.1010 H   0  0  0  0  0  0  0  0  0  0  0  0
   37.6860   27.3730   36.0720 H   0  0  0  0  0  0  0  0  0  0  0  0
   40.0170   26.2590   34.3930 H   0  0  0  0  0  0  0  0  0  0  0  0
   39.2840   25.7020   35.9770 H   0  0  0  0  0  0  0  0  0  0  0  0
   38.1300   23.7770   34.4690 C   0  0  0  0  0  0  0  0  0  0  0  0
   38.4660   23.3290   33.5330 H   0  0  0  0  0  0  0  0  0  0  0  0
   37.0900   23.3910   34.6500 H   0  0  0  0  0  0  0  0  0  0  0  0
   37.4350   24.0820   37.2440 F   0  0  0  0  0  0  0  0  0  0  0  0
   38.5970   23.4590   36.9460 C   0  0  0  0  0  0  0  0  0  0  0  0
   38.9370   23.3060   35.6220 C   0  0  0  0  0  0  0  0  0  0  0  0
   40.1410   22.6560   35.3220 C   0  0  0  0  0  0  0  0  0  0  0  0
   40.4920   22.4890   34.3150 H   0  0  0  0  0  0  0  0  0  0  0  0
   40.8890   22.2230   36.3880 C   0  0  0  0  0  0  0  0  0  0  0  0
   41.8310   21.7150   36.1700 H   0  0  0  0  0  0  0  0  0  0  0  0
   40.5600   22.3690   37.7320 C   0  0  0  0  0  3  0  0  0  0  0  0
   39.3640   23.0150   38.0030 C   0  0  0  0  0  3  0  0  0  0  0  0
   36.1930   28.0660   34.3330 O   0  0  0  0  0  0  0  0  0  0  0  0
   35.5410   28.9180   33.4440 C   0  0  0  0  0  0  0  0  0  0  0  0
   36.2230   29.2680   32.2930 C   0  0  0  0  0  0  0  0  0  0  0  0
   35.6000   30.1140   31.3910 C   0  0  0  0  0  0  0  0  0  0  0  0
   34.3450   30.5660   31.6760 N   0  0  0  0  0  0  0  0  0  0  0  0
   33.6980   30.2140   32.8000 C   0  0  0  0  0  0  0  0  0  0  0  0
   34.3020   29.4060   33.6540 N   0  0  0  0  0  0  0  0  0  0  0  0
   31.4250   29.6540   33.1910 C   0  0  0  0  0  0  0  0  0  0  0  0
   31.6110   28.4020   33.1090 O   0  0  0  0  0  0  0  0  0  0  0  0
   32.3890   30.7100   33.0570 N   0  0  0  0  0  0  0  0  0  0  0  0
   37.2200   28.9450   32.0070 H   0  0  0  0  0  0  0  0  0  0  0  0
   36.0700   30.4190   30.4910 H   0  0  0  0  0  0  0  0  0  0  0  0
   30.3840   29.8760   33.3890 H   0  0  0  0  0  0  0  0  0  0  0  0
   32.0370   31.6820   33.1580 H   0  0  0  0  0  0  0  0  0  0  0  0
  1  2  2  0  0  0  0
  2  3  1  0  0  0  0
  2  6  1  0  0  0  0
  3  7  1  6  0  0  0
  3 24  1  0  0  0  0
  3  4  1  0  0  0  0
  4  9  1  0  0  0  0
  5  4  1  0  0  0  0
  5 11  1  0  0  0  0
  6 12  1  0  0  0  0
  6  5  1  0  0  0  0
  8  4  1  0  0  0  0
 10  5  1  0  0  0  0
 12 14  1  0  0  0  0
 12 17  1  0  0  0  0
 13 12  1  0  0  0  0
 16 15  1  0  0  0  0
 16 23  1  0  0  0  0
 17 16  2  0  0  0  0
 18 17  1  0  0  0  0
 18 20  2  0  0  0  0
 19 18  1  0  0  0  0
 20 22  1  0  0  0  0
 21 20  1  0  0  0  0
 22 23  2  0  0  0  0
 25 30  1  0  0  0  0
 25 24  1  0  0  0  0
 26 25  2  0  0  0  0
 27 28  2  0  0  0  0
 27 26  1  0  0  0  0
 28 29  1  0  0  0  0
 29 33  1  0  0  0  0
 29 30  2  0  0  0  0
 31 36  1  0  0  0  0
 32 31  2  0  0  0  0
 33 37  1  0  0  0  0
 33 31  1  0  0  0  0
 34 26  1  0  0  0  0
 35 27  1  0  0  0  0
M  END
>  <minimizedAffinity>
-5.67417812

$$$$

 OpenBabel03272506403D

 37 39  0  0  1  0  0  0  0  0999 V2000
   38.0160   22.2970   33.7030 O   0  0  0  0  0  0  0  0  0  0  0  0
   37.8410   23.4370   33.2540 C   0  0  0  0  0  0  0  0  0  0  0  0
   38.2170   24.6140   34.0060 C   0  0  2  0  0  0  0  0  0  0  0  0
   37.9770   25.7390   32.9490 C   0  0  0  0  0  0  0  0  0  0  0  0
   36.9240   25.1400   32.0590 C   0  0  0  0  0  0  0  0  0  0  0  0
   37.2630   23.7240   31.9760 N   0  0  0  0  0  0  0  0  0  0  0  0
   37.5590   24.7970   34.8550 H   0  0  0  0  0  0  0  0  0  0  0  0
   37.5220   26.5700   33.5160 H   0  0  0  0  0  0  0  0  0  0  0  0
   38.9110   25.9700   32.4350 H   0  0  0  0  0  0  0  0  0  0  0  0
   35.9010   25.3130   32.3890 H   0  0  0  0  0  0  0  0  0  0  0  0
   37.1120   25.5610   31.0370 H   0  0  0  0  0  0  0  0  0  0  0  0
   37.0440   22.8670   30.8290 C   0  0  0  0  0  0  0  0  0  0  0  0
   38.0030   22.7190   30.3300 H   0  0  0  0  0  0  0  0  0  0  0  0
   36.3620   23.3400   30.0720 H   0  0  0  0  0  0  0  0  0  0  0  0
   34.5570   22.5490   32.2390 F   0  0  0  0  0  0  0  0  0  0  0  0
   35.2200   21.4330   31.8630 C   0  0  0  0  0  0  0  0  0  0  0  0
   36.4090   21.5740   31.1870 C   0  0  0  0  0  0  0  0  0  0  0  0
   37.0880   20.4120   30.7970 C   0  0  0  0  0  0  0  0  0  0  0  0
   38.0240   20.4220   30.2630 H   0  0  0  0  0  0  0  0  0  0  0  0
   36.5010   19.2170   31.1300 C   0  0  0  0  0  0  0  0  0  0  0  0
   37.0190   18.3010   30.8330 H   0  0  0  0  0  0  0  0  0  0  0  0
   35.3000   19.0560   31.8130 C   0  0  0  0  0  3  0  0  0  0  0  0
   34.6480   20.2200   32.1870 C   0  0  0  0  0  3  0  0  0  0  0  0
   39.6040   24.6880   34.3350 O   0  0  0  0  0  0  0  0  0  0  0  0
   40.0340   24.0020   35.4690 C   0  0  0  0  0  0  0  0  0  0  0  0
   41.3800   23.6970   35.5470 C   0  0  0  0  0  0  0  0  0  0  0  0
   41.8360   23.0150   36.6620 C   0  0  0  0  0  0  0  0  0  0  0  0
   40.9410   22.6720   37.6330 N   0  0  0  0  0  0  0  0  0  0  0  0
   39.6350   22.9780   37.5390 C   0  0  0  0  0  0  0  0  0  0  0  0
   39.2110   23.6290   36.4700 N   0  0  0  0  0  0  0  0  0  0  0  0
   38.0810   23.7340   39.1660 C   0  0  0  0  0  0  0  0  0  0  0  0
   38.2150   24.9610   38.8740 O   0  0  0  0  0  0  0  0  0  0  0  0
   38.7360   22.6000   38.5750 N   0  0  0  0  0  0  0  0  0  0  0  0
   42.1420   23.9390   34.8120 H   0  0  0  0  0  0  0  0  0  0  0  0
   42.8570   22.7520   36.7810 H   0  0  0  0  0  0  0  0  0  0  0  0
   37.3660   23.6050   39.9690 H   0  0  0  0  0  0  0  0  0  0  0  0
   38.4900   21.6660   38.9560 H   0  0  0  0  0  0  0  0  0  0  0  0
  2  1  2  0  0  0  0
  2  3  1  0  0  0  0
  3 24  1  0  0  0  0
  3  7  1  1  0  0  0
  4  8  1  0  0  0  0
  4  3  1  0  0  0  0
  5 10  1  0  0  0  0
  5  4  1  0  0  0  0
  6  5  1  0  0  0  0
  6  2  1  0  0  0  0
  9  4  1  0  0  0  0
 11  5  1  0  0  0  0
 12 17  1  0  0  0  0
 12  6  1  0  0  0  0
 13 12  1  0  0  0  0
 14 12  1  0  0  0  0
 16 23  1  0  0  0  0
 16 15  1  0  0  0  0
 17 16  2  0  0  0  0
 18 20  2  0  0  0  0
 18 17  1  0  0  0  0
 19 18  1  0  0  0  0
 20 22  1  0  0  0  0
 21 20  1  0  0  0  0
 22 23  2  0  0  0  0
 24 25  1  0  0  0  0
 25 26  2  0  0  0  0
 25 30  1  0  0  0  0
 26 27  1  0  0  0  0
 27 35  1  0  0  0  0
 27 28  2  0  0  0  0
 29 28  1  0  0  0  0
 29 33  1  0  0  0  0
 30 29  2  0  0  0  0
 31 36  1  0  0  0  0
 32 31  2  0  0  0  0
 33 37  1  0  0  0  0
 33 31  1  0  0  0  0
 34 26  1  0  0  0  0
M  END
>  <minimizedAffinity>
-5.66160727

$$$$

 OpenBabel03272506403D

 37 39  0  0  1  0  0  0  0  0999 V2000
   36.6320   25.0880   32.5330 O   0  0  0  0  0  0  0  0  0  0  0  0
   37.6170   25.5710   33.1070 C   0  0  0  0  0  0  0  0  0  0  0  0
   37.9030   26.9880   33.0560 C   0  0  2  0  0  0  0  0  0  0  0  0
   39.0930   27.0930   34.0650 C   0  0  0  0  0  0  0  0  0  0  0  0
   39.6990   25.7190   34.0070 C   0  0  0  0  0  0  0  0  0  0  0  0
   38.5650   24.8130   33.8650 N   0  0  0  0  0  0  0  0  0  0  0  0
   38.2560   27.3110   32.0780 H   0  0  0  0  0  0  0  0  0  0  0  0
   39.7970   27.8040   33.6010 H   0  0  0  0  0  0  0  0  0  0  0  0
   38.7190   27.3700   35.0510 H   0  0  0  0  0  0  0  0  0  0  0  0
   40.4480   25.5880   33.2280 H   0  0  0  0  0  0  0  0  0  0  0  0
   40.1180   25.5280   35.0290 H   0  0  0  0  0  0  0  0  0  0  0  0
   38.4830   23.4700   34.3990 C   0  0  0  0  0  0  0  0  0  0  0  0
   39.2170   22.8540   33.8790 H   0  0  0  0  0  0  0  0  0  0  0  0
   37.4810   22.9980   34.2070 H   0  0  0  0  0  0  0  0  0  0  0  0
   40.7000   22.2530   35.7690 F   0  0  0  0  0  0  0  0  0  0  0  0
   39.7350   22.8330   36.5160 C   0  0  0  0  0  0  0  0  0  0  0  0
   38.6710   23.4190   35.8700 C   0  0  0  0  0  0  0  0  0  0  0  0
   37.6760   24.0220   36.6520 C   0  0  0  0  0  0  0  0  0  0  0  0
   36.8070   24.5070   36.2370 H   0  0  0  0  0  0  0  0  0  0  0  0
   37.8500   23.9730   38.0130 C   0  0  0  0  0  0  0  0  0  0  0  0
   37.0820   24.4380   38.6360 H   0  0  0  0  0  0  0  0  0  0  0  0
   38.9180   23.3840   38.6810 C   0  0  0  0  0  3  0  0  0  0  0  0
   39.8890   22.7950   37.8860 C   0  0  0  0  0  3  0  0  0  0  0  0
   36.8740   27.8200   33.5920 O   0  0  0  0  0  0  0  0  0  0  0  0
   36.2690   28.7310   32.7290 C   0  0  0  0  0  0  0  0  0  0  0  0
   36.8540   28.9060   31.4890 C   0  0  0  0  0  0  0  0  0  0  0  0
   36.2730   29.8060   30.6100 C   0  0  0  0  0  0  0  0  0  0  0  0
   35.1550   30.4800   31.0040 N   0  0  0  0  0  0  0  0  0  0  0  0
   34.6010   30.2950   32.2160 C   0  0  0  0  0  0  0  0  0  0  0  0
   35.1630   29.4340   33.0450 N   0  0  0  0  0  0  0  0  0  0  0  0
   32.3310   30.1530   32.8950 C   0  0  0  0  0  0  0  0  0  0  0  0
   32.2970   28.8850   32.8740 O   0  0  0  0  0  0  0  0  0  0  0  0
   33.4340   31.0200   32.5860 N   0  0  0  0  0  0  0  0  0  0  0  0
   37.7400   28.4040   31.1140 H   0  0  0  0  0  0  0  0  0  0  0  0
   36.6750   29.9850   29.6440 H   0  0  0  0  0  0  0  0  0  0  0  0
   31.3740   30.5590   33.1950 H   0  0  0  0  0  0  0  0  0  0  0  0
   33.2630   32.0410   32.6620 H   0  0  0  0  0  0  0  0  0  0  0  0
  1  2  2  0  0  0  0
  2  6  1  0  0  0  0
  3  7  1  6  0  0  0
  3  2  1  0  0  0  0
  3 24  1  0  0  0  0
  3  4  1  0  0  0  0
  4  9  1  0  0  0  0
  5  4  1  0  0  0  0
  5 11  1  0  0  0  0
  6  5  1  0  0  0  0
  6 12  1  0  0  0  0
  8  4  1  0  0  0  0
 10  5  1  0  0  0  0
 12 17  1  0  0  0  0
 13 12  1  0  0  0  0
 14 12  1  0  0  0  0
 15 16  1  0  0  0  0
 16 23  1  0  0  0  0
 17 16  2  0  0  0  0
 17 18  1  0  0  0  0
 18 20  2  0  0  0  0
 19 18  1  0  0  0  0
 20 21  1  0  0  0  0
 20 22  1  0  0  0  0
 23 22  2  0  0  0  0
 25 30  1  0  0  0  0
 25 24  1  0  0  0  0
 26 25  2  0  0  0  0
 27 28  2  0  0  0  0
 27 26  1  0  0  0  0
 28 29  1  0  0  0  0
 29 33  1  0  0  0  0
 29 30  2  0  0  0  0
 31 36  1  0  0  0  0
 32 31  2  0  0  0  0
 33 37  1  0  0  0  0
 33 31  1  0  0  0  0
 34 26  1  0  0  0  0
 35 27  1  0  0  0  0
M  END
>  <minimizedAffinity>
-5.60615301

$$$$

 OpenBabel03272506403D

 37 39  0  0  1  0  0  0  0  0999 V2000
   36.6300   25.8260   32.7000 O   0  0  0  0  0  0  0  0  0  0  0  0
   37.3840   26.1690   33.6200 C   0  0  0  0  0  0  0  0  0  0  0  0
   37.4800   27.5480   34.0460 C   0  0  2  0  0  0  0  0  0  0  0  0
   38.3840   27.4120   35.3130 C   0  0  0  0  0  0  0  0  0  0  0  0
   39.1680   26.1610   35.0290 C   0  0  0  0  0  0  0  0  0  0  0  0
   38.2290   25.2750   34.3510 N   0  0  0  0  0  0  0  0  0  0  0  0
   37.9980   28.1760   33.3230 H   0  0  0  0  0  0  0  0  0  0  0  0
   39.0720   28.2730   35.2660 H   0  0  0  0  0  0  0  0  0  0  0  0
   37.7620   27.3500   36.2070 H   0  0  0  0  0  0  0  0  0  0  0  0
   40.0850   26.3220   34.4640 H   0  0  0  0  0  0  0  0  0  0  0  0
   39.3660   25.6920   36.0280 H   0  0  0  0  0  0  0  0  0  0  0  0
   38.2110   23.8300   34.4450 C   0  0  0  0  0  0  0  0  0  0  0  0
   38.5670   23.4250   33.4970 H   0  0  0  0  0  0  0  0  0  0  0  0
   37.1710   23.4290   34.5910 H   0  0  0  0  0  0  0  0  0  0  0  0
   37.5160   24.1010   37.2230 F   0  0  0  0  0  0  0  0  0  0  0  0
   38.6610   23.4510   36.9160 C   0  0  0  0  0  0  0  0  0  0  0  0
   39.0010   23.3150   35.5910 C   0  0  0  0  0  0  0  0  0  0  0  0
   40.1870   22.6370   35.2810 C   0  0  0  0  0  0  0  0  0  0  0  0
   40.5360   22.4790   34.2720 H   0  0  0  0  0  0  0  0  0  0  0  0
   40.9190   22.1620   36.3410 C   0  0  0  0  0  0  0  0  0  0  0  0
   41.8480   21.6320   36.1160 H   0  0  0  0  0  0  0  0  0  0  0  0
   40.5900   22.2920   37.6860 C   0  0  0  0  0  3  0  0  0  0  0  0
   39.4120   22.9660   37.9670 C   0  0  0  0  0  3  0  0  0  0  0  0
   36.2530   28.1110   34.5110 O   0  0  0  0  0  0  0  0  0  0  0  0
   35.8380   29.3110   33.9380 C   0  0  0  0  0  0  0  0  0  0  0  0
   35.5400   30.3500   34.8000 C   0  0  0  0  0  0  0  0  0  0  0  0
   35.1250   31.5550   34.2590 C   0  0  0  0  0  0  0  0  0  0  0  0
   35.0260   31.6660   32.9030 N   0  0  0  0  0  0  0  0  0  0  0  0
   35.3200   30.6430   32.0810 C   0  0  0  0  0  0  0  0  0  0  0  0
   35.7150   29.4980   32.6080 N   0  0  0  0  0  0  0  0  0  0  0  0
   36.4490   30.5860   29.9940 C   0  0  0  0  0  0  0  0  0  0  0  0
   37.5750   30.2840   30.4940 O   0  0  0  0  0  0  0  0  0  0  0  0
   35.2010   30.8030   30.6720 N   0  0  0  0  0  0  0  0  0  0  0  0
   35.5980   30.3280   35.8840 H   0  0  0  0  0  0  0  0  0  0  0  0
   34.8820   32.3900   34.8670 H   0  0  0  0  0  0  0  0  0  0  0  0
   36.5170   30.6710   28.9170 H   0  0  0  0  0  0  0  0  0  0  0  0
   34.3820   31.0440   30.0800 H   0  0  0  0  0  0  0  0  0  0  0  0
  1  2  2  0  0  0  0
  2  3  1  0  0  0  0
  2  6  1  0  0  0  0
  3  7  1  6  0  0  0
  3 24  1  0  0  0  0
  3  4  1  0  0  0  0
  4  9  1  0  0  0  0
  5  4  1  0  0  0  0
  5 11  1  0  0  0  0
  6 12  1  0  0  0  0
  6  5  1  0  0  0  0
  8  4  1  0  0  0  0
 10  5  1  0  0  0  0
 12 14  1  0  0  0  0
 12 17  1  0  0  0  0
 13 12  1  0  0  0  0
 16 15  1  0  0  0  0
 16 23  1  0  0  0  0
 17 16  2  0  0  0  0
 18 17  1  0  0  0  0
 18 20  2  0  0  0  0
 19 18  1  0  0  0  0
 20 22  1  0  0  0  0
 21 20  1  0  0  0  0
 22 23  2  0  0  0  0
 25 24  1  0  0  0  0
 25 26  1  0  0  0  0
 26 34  1  0  0  0  0
 27 26  2  0  0  0  0
 27 35  1  0  0  0  0
 28 27  1  0  0  0  0
 29 30  1  0  0  0  0
 29 28  2  0  0  0  0
 30 25  2  0  0  0  0
 31 32  2  0  0  0  0
 31 33  1  0  0  0  0
 33 29  1  0  0  0  0
 36 31  1  0  0  0  0
 37 33  1  0  0  0  0
M  END
>  <minimizedAffinity>
-5.57517099

$$$$

 OpenBabel03272506403D

 37 39  0  0  1  0  0  0  0  0999 V2000
   36.8490   24.7020   32.3120 O   0  0  0  0  0  0  0  0  0  0  0  0
   37.0230   25.7590   32.9320 C   0  0  0  0  0  0  0  0  0  0  0  0
   37.8090   25.8040   34.1460 C   0  0  2  0  0  0  0  0  0  0  0  0
   37.8760   27.3440   34.4060 C   0  0  0  0  0  0  0  0  0  0  0  0
   36.6290   27.8490   33.7360 C   0  0  0  0  0  0  0  0  0  0  0  0
   36.4850   27.0270   32.5400 N   0  0  0  0  0  0  0  0  0  0  0  0
   37.3040   25.3370   34.9900 H   0  0  0  0  0  0  0  0  0  0  0  0
   37.7540   27.4530   35.4970 H   0  0  0  0  0  0  0  0  0  0  0  0
   38.7980   27.7500   33.9880 H   0  0  0  0  0  0  0  0  0  0  0  0
   35.7420   27.8400   34.3670 H   0  0  0  0  0  0  0  0  0  0  0  0
   36.8750   28.8800   33.3710 H   0  0  0  0  0  0  0  0  0  0  0  0
   35.9240   27.4590   31.2770 C   0  0  0  0  0  0  0  0  0  0  0  0
   34.9000   27.7890   31.4580 H   0  0  0  0  0  0  0  0  0  0  0  0
   35.8600   26.6200   30.5330 H   0  0  0  0  0  0  0  0  0  0  0  0
   35.1200   30.1950   30.9000 F   0  0  0  0  0  0  0  0  0  0  0  0
   36.3350   29.8220   30.4400 C   0  0  0  0  0  0  0  0  0  0  0  0
   36.7300   28.5170   30.6180 C   0  0  0  0  0  0  0  0  0  0  0  0
   37.9930   28.1400   30.1420 C   0  0  0  0  0  0  0  0  0  0  0  0
   38.3890   27.1410   30.2360 H   0  0  0  0  0  0  0  0  0  0  0  0
   38.7360   29.1180   29.5310 C   0  0  0  0  0  0  0  0  0  0  0  0
   39.7230   28.8390   29.1530 H   0  0  0  0  0  0  0  0  0  0  0  0
   38.3520   30.4410   29.3420 C   0  0  0  0  0  3  0  0  0  0  0  0
   37.0990   30.7900   29.8210 C   0  0  0  0  0  3  0  0  0  0  0  0
   39.1640   25.3840   33.9900 O   0  0  0  0  0  0  0  0  0  0  0  0
   39.6910   24.5390   34.9640 C   0  0  0  0  0  0  0  0  0  0  0  0
   41.0500   24.2890   34.9110 C   0  0  0  0  0  0  0  0  0  0  0  0
   41.6010   23.4510   35.8670 C   0  0  0  0  0  0  0  0  0  0  0  0
   40.7840   22.9100   36.8150 N   0  0  0  0  0  0  0  0  0  0  0  0
   39.4650   23.1650   36.8490 C   0  0  0  0  0  0  0  0  0  0  0  0
   38.9490   23.9650   35.9330 N   0  0  0  0  0  0  0  0  0  0  0  0
   37.9930   23.5650   38.6680 C   0  0  0  0  0  0  0  0  0  0  0  0
   38.0620   24.8280   38.5810 O   0  0  0  0  0  0  0  0  0  0  0  0
   38.6490   22.5780   37.8560 N   0  0  0  0  0  0  0  0  0  0  0  0
   41.7540   24.6860   34.1860 H   0  0  0  0  0  0  0  0  0  0  0  0
   42.6370   23.2210   35.8800 H   0  0  0  0  0  0  0  0  0  0  0  0
   37.3360   23.2700   39.4770 H   0  0  0  0  0  0  0  0  0  0  0  0
   38.4630   21.5820   38.0870 H   0  0  0  0  0  0  0  0  0  0  0  0
  1  2  2  0  0  0  0
  2  3  1  0  0  0  0
  3  4  1  0  0  0  0
  3  7  1  1  0  0  0
  4  8  1  0  0  0  0
  5 10  1  0  0  0  0
  5  4  1  0  0  0  0
  6  2  1  0  0  0  0
  6  5  1  0  0  0  0
  9  4  1  0  0  0  0
 11  5  1  0  0  0  0
 12 13  1  0  0  0  0
 12  6  1  0  0  0  0
 14 12  1  0  0  0  0
 16 17  1  0  0  0  0
 16 15  1  0  0  0  0
 17 12  1  0  0  0  0
 18 19  1  0  0  0  0
 18 17  2  0  0  0  0
 20 18  1  0  0  0  0
 21 20  1  0  0  0  0
 22 20  2  0  0  0  0
 22 23  1  0  0  0  0
 23 16  2  0  0  0  0
 24  3  1  0  0  0  0
 24 25  1  0  0  0  0
 25 30  1  0  0  0  0
 26 25  2  0  0  0  0
 26 27  1  0  0  0  0
 27 35  1  0  0  0  0
 27 28  2  0  0  0  0
 28 29  1  0  0  0  0
 29 33  1  0  0  0  0
 30 29  2  0  0  0  0
 31 36  1  0  0  0  0
 32 31  2  0  0  0  0
 33 37  1  0  0  0  0
 33 31  1  0  0  0  0
 34 26  1  0  0  0  0
M  END
>  <minimizedAffinity>
-5.50793695

$$$$
