REMARK  Name = 
REMARK  4 active torsions:
REMARK  status: ('A' for Active; 'I' for Inactive)
REMARK    1  A    between atoms: C_5  and  O_7
REMARK    2  A    between atoms: O_7  and  C_8
REMARK    3  A    between atoms: C_8  and  C_9
REMARK    4  A    between atoms: C_9  and  C_19
REMARK                            x       y       z     vdW  Elec       q    Type
REMARK                         _______ _______ _______ _____ _____    ______ ____
ROOT
ATOM      1  C   UNL     1      34.221  28.386  48.447  0.00  0.00    +0.000 C 
ATOM      2  H   UNL     1      34.982  28.813  47.752  0.00  0.00    +0.000 HD
ATOM      3  H   UNL     1      33.375  29.102  48.492  0.00  0.00    +0.000 HD
ENDROOT
BRANCH   1   4
ATOM      4  C   UNL     1      33.823  27.047  47.920  0.00  0.00    +0.000 C 
ATOM      5  H   UNL     1      33.449  27.076  46.897  0.00  0.00    +0.000 HD
ATOM      6  H   UNL     1      34.742  26.397  47.981  0.00  0.00    +0.000 HD
BRANCH   4   9
ATOM      7  F   UNL     1      33.749  24.320  48.199  0.00  0.00    +0.000 F 
ATOM      8  C   UNL     1      32.841  25.095  48.874  0.00  0.00    +0.000 A 
ATOM      9  C   UNL     1      32.773  26.487  48.815  0.00  0.00    +0.000 A 
ATOM     10  C   UNL     1      31.806  27.135  49.547  0.00  0.00    +0.000 A 
ATOM     11  H   UNL     1      31.854  28.210  49.422  0.00  0.00    +0.000 HD
ATOM     12  C   UNL     1      30.917  26.444  50.322  0.00  0.00    +0.000 A 
ATOM     13  H   UNL     1      30.185  27.008  50.870  0.00  0.00    +0.000 HD
ATOM     14  C   UNL     1      30.985  25.051  50.381  0.00  0.00    +0.000 A 
ATOM     15  C   UNL     1      31.961  24.371  49.646  0.00  0.00    +0.000 A 
ENDBRANCH   4   9
ENDBRANCH   1   4
BRANCH   1  16
ATOM     16  O   UNL     1      34.738  28.296  49.750  0.00  0.00    +0.000 OA
BRANCH  16  21
ATOM     17  C   UNL     1      37.327  30.216  51.402  0.00  0.00    +0.000 A 
ATOM     18  C   UNL     1      38.050  30.666  50.303  0.00  0.00    +0.000 A 
ATOM     19  C   UNL     1      37.616  30.289  49.039  0.00  0.00    +0.000 A 
ATOM     20  N   UNL     1      36.506  29.501  48.975  0.00  0.00    +0.000 NA
ATOM     21  C   UNL     1      35.827  29.082  50.068  0.00  0.00    +0.000 A 
ATOM     22  N   UNL     1      36.248  29.448  51.297  0.00  0.00    +0.000 NA
ATOM     23  H   UNL     1      37.714  30.543  52.363  0.00  0.00    +0.000 HD
ATOM     24  H   UNL     1      38.923  31.281  50.307  0.00  0.00    +0.000 HD
ATOM     25  H   UNL     1      38.110  30.586  48.120  0.00  0.00    +0.000 HD
ENDBRANCH  16  21
ENDBRANCH   1  16
TORSDOF 4
