
 OpenBabel03272501453D

 34 37  0  0  0  0  0  0  0  0999 V2000
   37.8040   27.2960   35.7030 C   0  0  0  0  0  0  0  0  0  0  0  0
   37.8750   26.0750   34.9670 C   0  0  0  0  0  0  0  0  0  0  0  0
   37.2650   26.0370   33.7220 C   0  0  0  0  0  0  0  0  0  0  0  0
   36.6390   27.1530   33.2730 N   0  0  0  0  0  0  0  0  0  0  0  0
   36.5820   28.3020   33.9860 C   0  0  0  0  0  0  0  0  0  0  0  0
   37.1680   28.3610   35.1970 N   0  0  0  0  0  0  0  0  0  0  0  0
   38.2090   27.5230   36.6810 H   0  0  0  0  0  0  0  0  0  0  0  0
   37.3360   25.1130   33.1990 H   0  0  0  0  0  0  0  0  0  0  0  0
   38.0890   24.5540   36.8460 C   0  0  0  0  0  0  0  0  0  0  0  0
   38.5960   25.0200   35.6330 C   0  0  0  0  0  0  0  0  0  0  0  0
   39.7560   24.4290   35.1600 C   0  0  0  0  0  0  0  0  0  0  0  0
   40.3550   23.4100   35.9090 C   0  0  0  0  0  0  0  0  0  0  0  0
   41.4590   22.6660   35.7130 N   0  0  0  0  0  0  0  0  0  0  0  0
   41.6150   21.8120   36.7260 C   0  0  0  0  0  0  0  0  0  0  0  0
   40.6020   21.9970   37.5980 N   0  0  0  0  0  0  0  0  0  0  0  0
   39.8320   22.9740   37.0980 C   0  0  0  0  0  0  0  0  0  0  0  0
   38.6860   23.5500   37.5780 C   0  0  0  0  0  0  0  0  0  0  0  0
   37.1810   24.9290   37.3460 H   0  0  0  0  0  0  0  0  0  0  0  0
   40.1610   24.7720   34.2300 H   0  0  0  0  0  0  0  0  0  0  0  0
   42.0890   22.7530   34.8900 H   0  0  0  0  0  0  0  0  0  0  0  0
   42.3730   21.0670   36.9160 H   0  0  0  0  0  0  0  0  0  0  0  0
   38.2990   23.1790   38.5220 H   0  0  0  0  0  0  0  0  0  0  0  0
   35.8760   29.4920   33.4230 C   0  0  0  0  0  0  0  0  0  0  0  0
   35.1530   29.1020   32.6730 H   0  0  0  0  0  0  0  0  0  0  0  0
   36.6170   30.1750   32.9680 H   0  0  0  0  0  0  0  0  0  0  0  0
   33.1290   29.0630   34.0840 F   0  0  0  0  0  0  0  0  0  0  0  0
   33.7950   29.9730   34.8610 C   0  0  0  0  0  0  0  0  0  0  0  0
   35.1120   30.1460   34.5070 C   0  0  0  0  0  0  0  0  0  0  0  0
   35.8850   31.0540   35.2350 C   0  0  0  0  0  0  0  0  0  0  0  0
   36.9350   31.2750   35.0490 H   0  0  0  0  0  0  0  0  0  0  0  0
   35.3260   31.7550   36.2870 C   0  0  0  0  0  0  0  0  0  0  0  0
   35.9000   32.4710   36.8750 H   0  0  0  0  0  0  0  0  0  0  0  0
   34.0060   31.5750   36.6330 C   0  0  0  0  0  3  0  0  0  0  0  0
   33.2400   30.6710   35.9080 C   0  0  0  0  0  3  0  0  0  0  0  0
  1  7  1  0  0  0  0
  2 10  1  0  0  0  0
  2  1  2  0  0  0  0
  3  2  1  0  0  0  0
  4  3  2  0  0  0  0
  4  5  1  0  0  0  0
  5  6  2  0  0  0  0
  6  1  1  0  0  0  0
  8  3  1  0  0  0  0
  9 18  1  0  0  0  0
  9 17  1  0  0  0  0
 10  9  2  0  0  0  0
 11 10  1  0  0  0  0
 11 12  2  0  0  0  0
 12 16  1  0  0  0  0
 13 12  1  0  0  0  0
 13 14  1  0  0  0  0
 14 21  1  0  0  0  0
 14 15  2  0  0  0  0
 16 17  2  0  0  0  0
 16 15  1  0  0  0  0
 17 22  1  0  0  0  0
 19 11  1  0  0  0  0
 20 13  1  0  0  0  0
 23  5  1  0  0  0  0
 23 28  1  0  0  0  0
 24 23  1  0  0  0  0
 25 23  1  0  0  0  0
 26 27  1  0  0  0  0
 27 34  1  0  0  0  0
 28 27  2  0  0  0  0
 28 29  1  0  0  0  0
 29 31  2  0  0  0  0
 30 29  1  0  0  0  0
 31 33  1  0  0  0  0
 31 32  1  0  0  0  0
 34 33  2  0  0  0  0
M  END
>  <minimizedAffinity>
-6.11835957

$$$$

 OpenBabel03272501453D

 34 37  0  0  0  0  0  0  0  0999 V2000
   37.8230   27.3420   35.7050 C   0  0  0  0  0  0  0  0  0  0  0  0
   37.8640   26.1130   34.9780 C   0  0  0  0  0  0  0  0  0  0  0  0
   37.2280   26.0730   33.7460 C   0  0  0  0  0  0  0  0  0  0  0  0
   36.6070   27.1930   33.3000 N   0  0  0  0  0  0  0  0  0  0  0  0
   36.5780   28.3480   34.0040 C   0  0  0  0  0  0  0  0  0  0  0  0
   37.1890   28.4100   35.2020 N   0  0  0  0  0  0  0  0  0  0  0  0
   38.2500   27.5720   36.6720 H   0  0  0  0  0  0  0  0  0  0  0  0
   37.2760   25.1440   33.2300 H   0  0  0  0  0  0  0  0  0  0  0  0
   38.0620   24.5630   36.8340 C   0  0  0  0  0  0  0  0  0  0  0  0
   38.5850   25.0550   35.6380 C   0  0  0  0  0  0  0  0  0  0  0  0
   39.7600   24.4850   35.1750 C   0  0  0  0  0  0  0  0  0  0  0  0
   40.3570   23.4610   35.9180 C   0  0  0  0  0  0  0  0  0  0  0  0
   41.4720   22.7320   35.7280 N   0  0  0  0  0  0  0  0  0  0  0  0
   41.6210   21.8630   36.7290 C   0  0  0  0  0  0  0  0  0  0  0  0
   40.5910   22.0210   37.5860 N   0  0  0  0  0  0  0  0  0  0  0  0
   39.8180   22.9980   37.0890 C   0  0  0  0  0  0  0  0  0  0  0  0
   38.6580   23.5530   37.5590 C   0  0  0  0  0  0  0  0  0  0  0  0
   37.1410   24.9190   37.3250 H   0  0  0  0  0  0  0  0  0  0  0  0
   40.1770   24.8490   34.2590 H   0  0  0  0  0  0  0  0  0  0  0  0
   42.1150   22.8410   34.9180 H   0  0  0  0  0  0  0  0  0  0  0  0
   42.3840   21.1230   36.9190 H   0  0  0  0  0  0  0  0  0  0  0  0
   38.2580   23.1620   38.4900 H   0  0  0  0  0  0  0  0  0  0  0  0
   35.8760   29.5420   33.4450 C   0  0  0  0  0  0  0  0  0  0  0  0
   35.2550   29.1740   32.5990 H   0  0  0  0  0  0  0  0  0  0  0  0
   36.6250   30.2870   33.1170 H   0  0  0  0  0  0  0  0  0  0  0  0
   36.4360   31.6810   35.2570 F   0  0  0  0  0  0  0  0  0  0  0  0
   35.1960   31.1110   35.3710 C   0  0  0  0  0  0  0  0  0  0  0  0
   34.9710   30.0880   34.4800 C   0  0  0  0  0  0  0  0  0  0  0  0
   33.7370   29.4350   34.5120 C   0  0  0  0  0  0  0  0  0  0  0  0
   33.4430   28.6140   33.8580 H   0  0  0  0  0  0  0  0  0  0  0  0
   32.7690   29.8200   35.4210 C   0  0  0  0  0  0  0  0  0  0  0  0
   31.7970   29.3330   35.4720 H   0  0  0  0  0  0  0  0  0  0  0  0
   33.0050   30.8460   36.3090 C   0  0  0  0  0  3  0  0  0  0  0  0
   34.2330   31.4930   36.2760 C   0  0  0  0  0  3  0  0  0  0  0  0
  1  7  1  0  0  0  0
  2 10  1  0  0  0  0
  2  1  2  0  0  0  0
  3  2  1  0  0  0  0
  4  3  2  0  0  0  0
  4  5  1  0  0  0  0
  5  6  2  0  0  0  0
  6  1  1  0  0  0  0
  8  3  1  0  0  0  0
  9 18  1  0  0  0  0
  9 17  1  0  0  0  0
 10  9  2  0  0  0  0
 11 10  1  0  0  0  0
 11 12  2  0  0  0  0
 12 16  1  0  0  0  0
 13 12  1  0  0  0  0
 13 14  1  0  0  0  0
 14 21  1  0  0  0  0
 14 15  2  0  0  0  0
 16 17  2  0  0  0  0
 16 15  1  0  0  0  0
 17 22  1  0  0  0  0
 19 11  1  0  0  0  0
 20 13  1  0  0  0  0
 23  5  1  0  0  0  0
 23 28  1  0  0  0  0
 24 23  1  0  0  0  0
 25 23  1  0  0  0  0
 26 27  1  0  0  0  0
 27 34  1  0  0  0  0
 28 29  1  0  0  0  0
 28 27  2  0  0  0  0
 29 31  2  0  0  0  0
 30 29  1  0  0  0  0
 31 32  1  0  0  0  0
 31 33  1  0  0  0  0
 34 33  2  0  0  0  0
M  END
>  <minimizedAffinity>
-5.82914257

$$$$

 OpenBabel03272501453D

 34 37  0  0  0  0  0  0  0  0999 V2000
   35.3500   28.9440   32.4880 C   0  0  0  0  0  0  0  0  0  0  0  0
   35.7380   28.9030   33.8620 C   0  0  0  0  0  0  0  0  0  0  0  0
   36.7070   27.9810   34.2300 C   0  0  0  0  0  0  0  0  0  0  0  0
   37.2310   27.1750   33.2740 N   0  0  0  0  0  0  0  0  0  0  0  0
   36.8500   27.2290   31.9760 C   0  0  0  0  0  0  0  0  0  0  0  0
   35.9120   28.1160   31.5960 N   0  0  0  0  0  0  0  0  0  0  0  0
   34.6190   29.5810   32.0090 H   0  0  0  0  0  0  0  0  0  0  0  0
   36.9730   27.9750   35.2590 H   0  0  0  0  0  0  0  0  0  0  0  0
   33.6670   29.7600   34.7910 C   0  0  0  0  0  0  0  0  0  0  0  0
   35.0550   29.8540   34.7010 C   0  0  0  0  0  0  0  0  0  0  0  0
   35.6730   30.8570   35.4300 C   0  0  0  0  0  0  0  0  0  0  0  0
   34.8870   31.7140   36.2090 C   0  0  0  0  0  0  0  0  0  0  0  0
   35.1930   32.7550   37.0050 N   0  0  0  0  0  0  0  0  0  0  0  0
   34.0790   33.2590   37.5390 C   0  0  0  0  0  0  0  0  0  0  0  0
   33.0290   32.5410   37.0890 N   0  0  0  0  0  0  0  0  0  0  0  0
   33.5240   31.5960   36.2760 C   0  0  0  0  0  0  0  0  0  0  0  0
   32.9000   30.6100   35.5600 C   0  0  0  0  0  0  0  0  0  0  0  0
   33.0390   29.0190   34.2670 H   0  0  0  0  0  0  0  0  0  0  0  0
   36.7380   30.9460   35.3750 H   0  0  0  0  0  0  0  0  0  0  0  0
   36.1580   33.1060   37.1700 H   0  0  0  0  0  0  0  0  0  0  0  0
   33.9290   34.0850   38.2170 H   0  0  0  0  0  0  0  0  0  0  0  0
   31.8190   30.5440   35.6370 H   0  0  0  0  0  0  0  0  0  0  0  0
   37.4760   26.3100   30.9790 C   0  0  0  0  0  0  0  0  0  0  0  0
   38.5730   26.3520   31.1580 H   0  0  0  0  0  0  0  0  0  0  0  0
   37.2100   26.6420   29.9580 H   0  0  0  0  0  0  0  0  0  0  0  0
   34.8820   25.2340   30.4450 F   0  0  0  0  0  0  0  0  0  0  0  0
   35.7820   24.3710   31.0110 C   0  0  0  0  0  0  0  0  0  0  0  0
   37.0150   24.9310   31.2500 C   0  0  0  0  0  0  0  0  0  0  0  0
   38.0080   24.1370   31.8270 C   0  0  0  0  0  0  0  0  0  0  0  0
   39.0200   24.4670   32.0610 H   0  0  0  0  0  0  0  0  0  0  0  0
   37.7460   22.8170   32.1450 C   0  0  0  0  0  0  0  0  0  0  0  0
   38.4980   22.1710   32.5960 H   0  0  0  0  0  0  0  0  0  0  0  0
   36.5080   22.2660   31.9030 C   0  0  0  0  0  3  0  0  0  0  0  0
   35.5220   23.0580   31.3290 C   0  0  0  0  0  3  0  0  0  0  0  0
  1  2  1  0  0  0  0
  2  3  2  0  0  0  0
  2 10  1  0  0  0  0
  3  8  1  0  0  0  0
  4  3  1  0  0  0  0
  5  4  2  0  0  0  0
  6  5  1  0  0  0  0
  6  1  2  0  0  0  0
  7  1  1  0  0  0  0
  9 17  1  0  0  0  0
 10  9  2  0  0  0  0
 10 11  1  0  0  0  0
 11 12  2  0  0  0  0
 12 16  1  0  0  0  0
 12 13  1  0  0  0  0
 13 20  1  0  0  0  0
 13 14  1  0  0  0  0
 14 21  1  0  0  0  0
 15 14  2  0  0  0  0
 16 15  1  0  0  0  0
 17 22  1  0  0  0  0
 17 16  2  0  0  0  0
 18  9  1  0  0  0  0
 19 11  1  0  0  0  0
 23 24  1  0  0  0  0
 23 28  1  0  0  0  0
 23  5  1  0  0  0  0
 25 23  1  0  0  0  0
 26 27  1  0  0  0  0
 27 28  2  0  0  0  0
 27 34  1  0  0  0  0
 28 29  1  0  0  0  0
 29 30  1  0  0  0  0
 29 31  2  0  0  0  0
 31 32  1  0  0  0  0
 33 31  1  0  0  0  0
 34 33  2  0  0  0  0
M  END
>  <minimizedAffinity>
-5.78305864

$$$$

 OpenBabel03272501453D

 34 37  0  0  0  0  0  0  0  0999 V2000
   36.6710   27.9070   34.3540 C   0  0  0  0  0  0  0  0  0  0  0  0
   35.7750   28.8020   33.6930 C   0  0  0  0  0  0  0  0  0  0  0  0
   35.6370   28.6780   32.3190 C   0  0  0  0  0  0  0  0  0  0  0  0
   36.3540   27.7220   31.6800 N   0  0  0  0  0  0  0  0  0  0  0  0
   37.1990   26.8820   32.3230 C   0  0  0  0  0  0  0  0  0  0  0  0
   37.3480   26.9840   33.6570 N   0  0  0  0  0  0  0  0  0  0  0  0
   36.9150   27.8460   35.4060 H   0  0  0  0  0  0  0  0  0  0  0  0
   34.9630   29.3600   31.8580 H   0  0  0  0  0  0  0  0  0  0  0  0
   33.7330   29.6040   34.7300 C   0  0  0  0  0  0  0  0  0  0  0  0
   35.1120   29.7340   34.5700 C   0  0  0  0  0  0  0  0  0  0  0  0
   35.7400   30.7510   35.2700 C   0  0  0  0  0  0  0  0  0  0  0  0
   34.9740   31.5870   36.0900 C   0  0  0  0  0  0  0  0  0  0  0  0
   35.2930   32.6340   36.8720 N   0  0  0  0  0  0  0  0  0  0  0  0
   34.1960   33.1070   37.4650 C   0  0  0  0  0  0  0  0  0  0  0  0
   33.1430   32.3630   37.0680 N   0  0  0  0  0  0  0  0  0  0  0  0
   33.6190   31.4330   36.2270 C   0  0  0  0  0  0  0  0  0  0  0  0
   32.9850   30.4320   35.5410 C   0  0  0  0  0  0  0  0  0  0  0  0
   33.0990   28.8480   34.2370 H   0  0  0  0  0  0  0  0  0  0  0  0
   36.7980   30.8680   35.1600 H   0  0  0  0  0  0  0  0  0  0  0  0
   36.2560   33.0090   36.9890 H   0  0  0  0  0  0  0  0  0  0  0  0
   34.0580   33.9280   38.1530 H   0  0  0  0  0  0  0  0  0  0  0  0
   31.9110   30.3380   35.6730 H   0  0  0  0  0  0  0  0  0  0  0  0
   37.9530   25.8500   31.5490 C   0  0  0  0  0  0  0  0  0  0  0  0
   39.0000   25.8800   31.9240 H   0  0  0  0  0  0  0  0  0  0  0  0
   37.8920   26.0850   30.4710 H   0  0  0  0  0  0  0  0  0  0  0  0
   38.8780   24.0140   33.5360 F   0  0  0  0  0  0  0  0  0  0  0  0
   37.7970   23.6050   32.8010 C   0  0  0  0  0  0  0  0  0  0  0  0
   37.3880   24.5190   31.8590 C   0  0  0  0  0  0  0  0  0  0  0  0
   36.2930   24.2010   31.0530 C   0  0  0  0  0  0  0  0  0  0  0  0
   35.8770   24.8420   30.2760 H   0  0  0  0  0  0  0  0  0  0  0  0
   35.6410   22.9910   31.2100 C   0  0  0  0  0  0  0  0  0  0  0  0
   34.7850   22.7120   30.5970 H   0  0  0  0  0  0  0  0  0  0  0  0
   36.0600   22.0830   32.1550 C   0  0  0  0  0  3  0  0  0  0  0  0
   37.1500   22.4020   32.9560 C   0  0  0  0  0  3  0  0  0  0  0  0
  1  7  1  0  0  0  0
  2  1  1  0  0  0  0
  2 10  1  0  0  0  0
  3  2  2  0  0  0  0
  4  3  1  0  0  0  0
  4  5  2  0  0  0  0
  5  6  1  0  0  0  0
  6  1  2  0  0  0  0
  8  3  1  0  0  0  0
  9 17  1  0  0  0  0
 10  9  2  0  0  0  0
 10 11  1  0  0  0  0
 11 12  2  0  0  0  0
 12 16  1  0  0  0  0
 12 13  1  0  0  0  0
 13 20  1  0  0  0  0
 13 14  1  0  0  0  0
 14 21  1  0  0  0  0
 15 14  2  0  0  0  0
 16 15  1  0  0  0  0
 17 22  1  0  0  0  0
 17 16  2  0  0  0  0
 18  9  1  0  0  0  0
 19 11  1  0  0  0  0
 23 28  1  0  0  0  0
 23 24  1  0  0  0  0
 23  5  1  0  0  0  0
 25 23  1  0  0  0  0
 27 34  1  0  0  0  0
 27 26  1  0  0  0  0
 28 27  2  0  0  0  0
 29 31  2  0  0  0  0
 29 28  1  0  0  0  0
 30 29  1  0  0  0  0
 31 33  1  0  0  0  0
 32 31  1  0  0  0  0
 33 34  2  0  0  0  0
M  END
>  <minimizedAffinity>
-5.70590067

$$$$

 OpenBabel03272501453D

 34 37  0  0  0  0  0  0  0  0999 V2000
   35.4190   29.0220   32.6000 C   0  0  0  0  0  0  0  0  0  0  0  0
   35.8010   29.0070   33.9760 C   0  0  0  0  0  0  0  0  0  0  0  0
   36.7640   28.0890   34.3670 C   0  0  0  0  0  0  0  0  0  0  0  0
   37.2880   27.2610   33.4300 N   0  0  0  0  0  0  0  0  0  0  0  0
   36.9130   27.2900   32.1300 C   0  0  0  0  0  0  0  0  0  0  0  0
   35.9800   28.1730   31.7280 N   0  0  0  0  0  0  0  0  0  0  0  0
   34.6930   29.6530   32.1050 H   0  0  0  0  0  0  0  0  0  0  0  0
   37.0260   28.1030   35.3980 H   0  0  0  0  0  0  0  0  0  0  0  0
   35.9030   30.8570   35.5440 C   0  0  0  0  0  0  0  0  0  0  0  0
   35.1200   29.9790   34.7930 C   0  0  0  0  0  0  0  0  0  0  0  0
   33.7450   30.1130   34.8900 C   0  0  0  0  0  0  0  0  0  0  0  0
   33.2150   31.1040   35.7230 C   0  0  0  0  0  0  0  0  0  0  0  0
   31.9520   31.4670   36.0150 N   0  0  0  0  0  0  0  0  0  0  0  0
   31.9610   32.4850   36.8770 C   0  0  0  0  0  0  0  0  0  0  0  0
   33.2440   32.7960   37.1540 N   0  0  0  0  0  0  0  0  0  0  0  0
   34.0100   31.9520   36.4480 C   0  0  0  0  0  0  0  0  0  0  0  0
   35.3720   31.8300   36.3630 C   0  0  0  0  0  0  0  0  0  0  0  0
   37.0060   30.8680   35.5720 H   0  0  0  0  0  0  0  0  0  0  0  0
   33.1270   29.4500   34.3210 H   0  0  0  0  0  0  0  0  0  0  0  0
   31.1040   31.0120   35.6210 H   0  0  0  0  0  0  0  0  0  0  0  0
   31.1520   33.0350   37.3330 H   0  0  0  0  0  0  0  0  0  0  0  0
   35.9720   32.5180   36.9510 H   0  0  0  0  0  0  0  0  0  0  0  0
   37.5380   26.3470   31.1540 C   0  0  0  0  0  0  0  0  0  0  0  0
   38.6390   26.4610   31.2690 H   0  0  0  0  0  0  0  0  0  0  0  0
   37.2000   26.6010   30.1330 H   0  0  0  0  0  0  0  0  0  0  0  0
   39.1060   24.5200   32.6960 F   0  0  0  0  0  0  0  0  0  0  0  0
   37.8920   24.0520   32.2680 C   0  0  0  0  0  0  0  0  0  0  0  0
   37.1740   24.9640   31.5310 C   0  0  0  0  0  0  0  0  0  0  0  0
   35.9200   24.5890   31.0440 C   0  0  0  0  0  0  0  0  0  0  0  0
   35.2610   25.2220   30.4510 H   0  0  0  0  0  0  0  0  0  0  0  0
   35.4220   23.3250   31.3050 C   0  0  0  0  0  0  0  0  0  0  0  0
   34.4490   23.0010   30.9390 H   0  0  0  0  0  0  0  0  0  0  0  0
   36.1500   22.4190   32.0420 C   0  0  0  0  0  3  0  0  0  0  0  0
   37.3970   22.7950   32.5260 C   0  0  0  0  0  3  0  0  0  0  0  0
  1  2  1  0  0  0  0
  2  3  2  0  0  0  0
  2 10  1  0  0  0  0
  3  8  1  0  0  0  0
  4  3  1  0  0  0  0
  5  4  2  0  0  0  0
  6  5  1  0  0  0  0
  6  1  2  0  0  0  0
  7  1  1  0  0  0  0
  9 18  1  0  0  0  0
  9 17  1  0  0  0  0
 10 11  1  0  0  0  0
 10  9  2  0  0  0  0
 11 12  2  0  0  0  0
 12 13  1  0  0  0  0
 12 16  1  0  0  0  0
 13 14  1  0  0  0  0
 14 15  2  0  0  0  0
 14 21  1  0  0  0  0
 16 15  1  0  0  0  0
 17 16  2  0  0  0  0
 17 22  1  0  0  0  0
 19 11  1  0  0  0  0
 20 13  1  0  0  0  0
 23 24  1  0  0  0  0
 23 28  1  0  0  0  0
 23  5  1  0  0  0  0
 25 23  1  0  0  0  0
 27 34  1  0  0  0  0
 27 26  1  0  0  0  0
 28 27  2  0  0  0  0
 29 31  2  0  0  0  0
 29 28  1  0  0  0  0
 30 29  1  0  0  0  0
 31 33  1  0  0  0  0
 32 31  1  0  0  0  0
 33 34  2  0  0  0  0
M  END
>  <minimizedAffinity>
-5.56712961

$$$$

 OpenBabel03272501453D

 34 37  0  0  0  0  0  0  0  0999 V2000
   37.5260   27.1520   32.8080 C   0  0  0  0  0  0  0  0  0  0  0  0
   36.3010   27.7760   32.4180 C   0  0  0  0  0  0  0  0  0  0  0  0
   35.4830   27.0910   31.5330 C   0  0  0  0  0  0  0  0  0  0  0  0
   35.8850   25.8750   31.0890 N   0  0  0  0  0  0  0  0  0  0  0  0
   37.0490   25.2990   31.4700 C   0  0  0  0  0  0  0  0  0  0  0  0
   37.8590   25.9460   32.3290 N   0  0  0  0  0  0  0  0  0  0  0  0
   38.2910   27.5210   33.4780 H   0  0  0  0  0  0  0  0  0  0  0  0
   34.5790   27.5820   31.2630 H   0  0  0  0  0  0  0  0  0  0  0  0
   35.9680   30.1670   32.1690 C   0  0  0  0  0  0  0  0  0  0  0  0
   36.0730   29.0660   33.0190 C   0  0  0  0  0  0  0  0  0  0  0  0
   35.9480   29.2990   34.3790 C   0  0  0  0  0  0  0  0  0  0  0  0
   35.7260   30.6050   34.8270 C   0  0  0  0  0  0  0  0  0  0  0  0
   35.5670   31.1300   36.0560 N   0  0  0  0  0  0  0  0  0  0  0  0
   35.3800   32.4470   35.9660 C   0  0  0  0  0  0  0  0  0  0  0  0
   35.4150   32.7930   34.6620 N   0  0  0  0  0  0  0  0  0  0  0  0
   35.6270   31.6660   33.9670 C   0  0  0  0  0  0  0  0  0  0  0  0
   35.7490   31.4510   32.6200 C   0  0  0  0  0  0  0  0  0  0  0  0
   36.0500   30.1370   31.0690 H   0  0  0  0  0  0  0  0  0  0  0  0
   36.0260   28.4670   35.0480 H   0  0  0  0  0  0  0  0  0  0  0  0
   35.5900   30.5790   36.9380 H   0  0  0  0  0  0  0  0  0  0  0  0
   35.2190   33.1950   36.7280 H   0  0  0  0  0  0  0  0  0  0  0  0
   35.6650   32.3140   31.9660 H   0  0  0  0  0  0  0  0  0  0  0  0
   37.4220   23.9530   30.9390 C   0  0  0  0  0  0  0  0  0  0  0  0
   38.5340   23.9170   30.9300 H   0  0  0  0  0  0  0  0  0  0  0  0
   36.9950   23.8280   29.9270 H   0  0  0  0  0  0  0  0  0  0  0  0
   38.7320   23.0270   33.3050 F   0  0  0  0  0  0  0  0  0  0  0  0
   37.5250   22.4450   33.0230 C   0  0  0  0  0  0  0  0  0  0  0  0
   36.9320   22.9210   31.8780 C   0  0  0  0  0  0  0  0  0  0  0  0
   35.6960   22.3940   31.4980 C   0  0  0  0  0  0  0  0  0  0  0  0
   35.1310   22.6910   30.6140 H   0  0  0  0  0  0  0  0  0  0  0  0
   35.0900   21.4160   32.2660 C   0  0  0  0  0  0  0  0  0  0  0  0
   34.1280   20.9840   31.9970 H   0  0  0  0  0  0  0  0  0  0  0  0
   35.6930   20.9450   33.4100 C   0  0  0  0  0  3  0  0  0  0  0  0
   36.9220   21.4720   33.7860 C   0  0  0  0  0  3  0  0  0  0  0  0
  1  7  1  0  0  0  0
  2  1  1  0  0  0  0
  2 10  1  0  0  0  0
  3  2  2  0  0  0  0
  4  5  2  0  0  0  0
  4  3  1  0  0  0  0
  5  6  1  0  0  0  0
  6  1  2  0  0  0  0
  8  3  1  0  0  0  0
  9 17  2  0  0  0  0
  9 10  1  0  0  0  0
 10 11  2  0  0  0  0
 11 12  1  0  0  0  0
 11 19  1  0  0  0  0
 12 13  1  0  0  0  0
 13 20  1  0  0  0  0
 14 13  1  0  0  0  0
 14 21  1  0  0  0  0
 15 14  2  0  0  0  0
 16 15  1  0  0  0  0
 16 12  2  0  0  0  0
 17 16  1  0  0  0  0
 18  9  1  0  0  0  0
 22 17  1  0  0  0  0
 23  5  1  0  0  0  0
 23 28  1  0  0  0  0
 24 23  1  0  0  0  0
 25 23  1  0  0  0  0
 27 26  1  0  0  0  0
 27 34  1  0  0  0  0
 28 27  2  0  0  0  0
 29 28  1  0  0  0  0
 29 31  2  0  0  0  0
 30 29  1  0  0  0  0
 31 33  1  0  0  0  0
 32 31  1  0  0  0  0
 33 34  2  0  0  0  0
M  END
>  <minimizedAffinity>
-5.53161526

$$$$

 OpenBabel03272501453D

 34 37  0  0  0  0  0  0  0  0999 V2000
   37.3900   27.6570   35.1690 C   0  0  0  0  0  0  0  0  0  0  0  0
   37.6370   26.5390   34.3150 C   0  0  0  0  0  0  0  0  0  0  0  0
   37.0410   26.5430   33.0620 C   0  0  0  0  0  0  0  0  0  0  0  0
   36.2630   27.5980   32.7180 N   0  0  0  0  0  0  0  0  0  0  0  0
   36.0410   28.6480   33.5410 C   0  0  0  0  0  0  0  0  0  0  0  0
   36.6090   28.6670   34.7610 N   0  0  0  0  0  0  0  0  0  0  0  0
   37.7560   27.8380   36.1710 H   0  0  0  0  0  0  0  0  0  0  0  0
   37.2450   25.6960   32.4510 H   0  0  0  0  0  0  0  0  0  0  0  0
   39.7570   25.3580   34.3040 C   0  0  0  0  0  0  0  0  0  0  0  0
   38.5000   25.5360   34.8830 C   0  0  0  0  0  0  0  0  0  0  0  0
   38.1790   24.7310   35.9640 C   0  0  0  0  0  0  0  0  0  0  0  0
   39.1150   23.7950   36.4160 C   0  0  0  0  0  0  0  0  0  0  0  0
   39.0910   22.8960   37.4170 N   0  0  0  0  0  0  0  0  0  0  0  0
   40.2410   22.2220   37.4490 C   0  0  0  0  0  0  0  0  0  0  0  0
   41.0310   22.6830   36.4570 N   0  0  0  0  0  0  0  0  0  0  0  0
   40.3420   23.6450   35.8260 C   0  0  0  0  0  0  0  0  0  0  0  0
   40.6720   24.4330   34.7560 C   0  0  0  0  0  0  0  0  0  0  0  0
   40.1490   25.9200   33.4390 H   0  0  0  0  0  0  0  0  0  0  0  0
   37.2200   24.8520   36.4220 H   0  0  0  0  0  0  0  0  0  0  0  0
   38.2880   22.7570   38.0640 H   0  0  0  0  0  0  0  0  0  0  0  0
   40.5850   21.4340   38.1030 H   0  0  0  0  0  0  0  0  0  0  0  0
   41.6540   24.2880   34.3130 H   0  0  0  0  0  0  0  0  0  0  0  0
   35.1730   29.7770   33.0890 C   0  0  0  0  0  0  0  0  0  0  0  0
   35.0470   29.6560   31.9900 H   0  0  0  0  0  0  0  0  0  0  0  0
   35.6580   30.7370   33.3470 H   0  0  0  0  0  0  0  0  0  0  0  0
   34.4180   30.6870   35.6910 F   0  0  0  0  0  0  0  0  0  0  0  0
   33.4380   30.0600   34.9700 C   0  0  0  0  0  0  0  0  0  0  0  0
   33.8460   29.6400   33.7260 C   0  0  0  0  0  0  0  0  0  0  0  0
   32.9230   28.9860   32.9060 C   0  0  0  0  0  0  0  0  0  0  0  0
   33.1280   28.6090   31.9050 H   0  0  0  0  0  0  0  0  0  0  0  0
   31.6290   28.7730   33.3470 C   0  0  0  0  0  0  0  0  0  0  0  0
   30.8860   28.2670   32.7340 H   0  0  0  0  0  0  0  0  0  0  0  0
   31.2310   29.1970   34.5950 C   0  0  0  0  0  3  0  0  0  0  0  0
   32.1510   29.8470   35.4080 C   0  0  0  0  0  3  0  0  0  0  0  0
  1  7  1  0  0  0  0
  2 10  1  0  0  0  0
  2  1  2  0  0  0  0
  3  2  1  0  0  0  0
  4  3  2  0  0  0  0
  4  5  1  0  0  0  0
  5  6  2  0  0  0  0
  6  1  1  0  0  0  0
  8  3  1  0  0  0  0
  9 17  2  0  0  0  0
  9 10  1  0  0  0  0
 10 11  2  0  0  0  0
 11 12  1  0  0  0  0
 11 19  1  0  0  0  0
 12 13  1  0  0  0  0
 13 14  1  0  0  0  0
 13 20  1  0  0  0  0
 14 21  1  0  0  0  0
 15 14  2  0  0  0  0
 16 12  2  0  0  0  0
 16 15  1  0  0  0  0
 17 16  1  0  0  0  0
 18  9  1  0  0  0  0
 22 17  1  0  0  0  0
 23 25  1  0  0  0  0
 23  5  1  0  0  0  0
 23 28  1  0  0  0  0
 24 23  1  0  0  0  0
 27 34  1  0  0  0  0
 27 26  1  0  0  0  0
 28 27  2  0  0  0  0
 29 31  2  0  0  0  0
 29 28  1  0  0  0  0
 30 29  1  0  0  0  0
 31 33  1  0  0  0  0
 32 31  1  0  0  0  0
 33 34  2  0  0  0  0
M  END
>  <minimizedAffinity>
-5.52419758

$$$$

 OpenBabel03272501453D

 34 37  0  0  0  0  0  0  0  0999 V2000
   37.2790   27.6380   34.9130 C   0  0  0  0  0  0  0  0  0  0  0  0
   38.0960   27.2000   33.8270 C   0  0  0  0  0  0  0  0  0  0  0  0
   37.7270   27.5880   32.5470 C   0  0  0  0  0  0  0  0  0  0  0  0
   36.6200   28.3560   32.3970 N   0  0  0  0  0  0  0  0  0  0  0  0
   35.8580   28.7610   33.4390 C   0  0  0  0  0  0  0  0  0  0  0  0
   36.1970   28.3970   34.6900 N   0  0  0  0  0  0  0  0  0  0  0  0
   37.3960   27.4420   35.9710 H   0  0  0  0  0  0  0  0  0  0  0  0
   38.3560   27.2460   31.7600 H   0  0  0  0  0  0  0  0  0  0  0  0
   39.0070   25.0430   34.4620 C   0  0  0  0  0  0  0  0  0  0  0  0
   39.2270   26.3990   34.2180 C   0  0  0  0  0  0  0  0  0  0  0  0
   40.5210   26.8700   34.3700 C   0  0  0  0  0  0  0  0  0  0  0  0
   41.5290   25.9790   34.7550 C   0  0  0  0  0  0  0  0  0  0  0  0
   42.8460   26.1380   34.9780 N   0  0  0  0  0  0  0  0  0  0  0  0
   43.3890   24.9720   35.3310 C   0  0  0  0  0  0  0  0  0  0  0  0
   42.4180   24.0350   35.3400 N   0  0  0  0  0  0  0  0  0  0  0  0
   41.2810   24.6520   34.9870 C   0  0  0  0  0  0  0  0  0  0  0  0
   40.0060   24.1720   34.8410 C   0  0  0  0  0  0  0  0  0  0  0  0
   38.0350   24.5280   34.3860 H   0  0  0  0  0  0  0  0  0  0  0  0
   40.7110   27.9070   34.1870 H   0  0  0  0  0  0  0  0  0  0  0  0
   43.3540   27.0410   34.8870 H   0  0  0  0  0  0  0  0  0  0  0  0
   44.4060   24.7100   35.5840 H   0  0  0  0  0  0  0  0  0  0  0  0
   39.8450   23.1150   35.0320 H   0  0  0  0  0  0  0  0  0  0  0  0
   34.6530   29.6090   33.1940 C   0  0  0  0  0  0  0  0  0  0  0  0
   33.8230   28.9120   32.9450 H   0  0  0  0  0  0  0  0  0  0  0  0
   34.8640   30.3140   32.3680 H   0  0  0  0  0  0  0  0  0  0  0  0
   36.1090   31.7420   34.4190 F   0  0  0  0  0  0  0  0  0  0  0  0
   34.9740   31.3410   35.0720 C   0  0  0  0  0  0  0  0  0  0  0  0
   34.3070   30.3140   34.4470 C   0  0  0  0  0  0  0  0  0  0  0  0
   33.1350   29.8280   35.0300 C   0  0  0  0  0  0  0  0  0  0  0  0
   32.5220   29.0210   34.6280 H   0  0  0  0  0  0  0  0  0  0  0  0
   32.6640   30.3760   36.2080 C   0  0  0  0  0  0  0  0  0  0  0  0
   31.7550   30.0190   36.6890 H   0  0  0  0  0  0  0  0  0  0  0  0
   33.3400   31.4030   36.8270 C   0  0  0  0  0  3  0  0  0  0  0  0
   34.5060   31.8860   36.2450 C   0  0  0  0  0  3  0  0  0  0  0  0
  1  7  1  0  0  0  0
  2 10  1  0  0  0  0
  2  1  2  0  0  0  0
  3  2  1  0  0  0  0
  4  3  2  0  0  0  0
  4  5  1  0  0  0  0
  5  6  2  0  0  0  0
  6  1  1  0  0  0  0
  8  3  1  0  0  0  0
  9 17  1  0  0  0  0
 10 11  1  0  0  0  0
 10  9  2  0  0  0  0
 11 12  2  0  0  0  0
 12 13  1  0  0  0  0
 12 16  1  0  0  0  0
 13 14  1  0  0  0  0
 14 15  2  0  0  0  0
 14 21  1  0  0  0  0
 16 15  1  0  0  0  0
 17 16  2  0  0  0  0
 17 22  1  0  0  0  0
 18  9  1  0  0  0  0
 19 11  1  0  0  0  0
 20 13  1  0  0  0  0
 23  5  1  0  0  0  0
 23 28  1  0  0  0  0
 24 23  1  0  0  0  0
 25 23  1  0  0  0  0
 26 27  1  0  0  0  0
 27 34  1  0  0  0  0
 28 29  1  0  0  0  0
 28 27  2  0  0  0  0
 29 31  2  0  0  0  0
 30 29  1  0  0  0  0
 31 32  1  0  0  0  0
 31 33  1  0  0  0  0
 34 33  2  0  0  0  0
M  END
>  <minimizedAffinity>
-5.51493692

$$$$

 OpenBabel03272501453D

 34 37  0  0  0  0  0  0  0  0999 V2000
   37.1940   27.4280   34.8860 C   0  0  0  0  0  0  0  0  0  0  0  0
   37.6170   26.3190   34.0910 C   0  0  0  0  0  0  0  0  0  0  0  0
   37.1200   26.2250   32.8000 C   0  0  0  0  0  0  0  0  0  0  0  0
   36.2660   27.1820   32.3630 N   0  0  0  0  0  0  0  0  0  0  0  0
   35.8750   28.2260   33.1310 C   0  0  0  0  0  0  0  0  0  0  0  0
   36.3460   28.3390   34.3870 N   0  0  0  0  0  0  0  0  0  0  0  0
   37.4630   27.6750   35.9040 H   0  0  0  0  0  0  0  0  0  0  0  0
   37.4550   25.3880   32.2360 H   0  0  0  0  0  0  0  0  0  0  0  0
   39.8720   25.4640   34.3630 C   0  0  0  0  0  0  0  0  0  0  0  0
   38.5340   25.4280   34.7560 C   0  0  0  0  0  0  0  0  0  0  0  0
   38.1900   24.5360   35.7580 C   0  0  0  0  0  0  0  0  0  0  0  0
   39.1840   23.7280   36.3200 C   0  0  0  0  0  0  0  0  0  0  0  0
   39.1560   22.7900   37.2840 N   0  0  0  0  0  0  0  0  0  0  0  0
   40.3790   22.2920   37.4680 C   0  0  0  0  0  0  0  0  0  0  0  0
   41.2220   22.9090   36.6140 N   0  0  0  0  0  0  0  0  0  0  0  0
   40.4910   23.7870   35.9120 C   0  0  0  0  0  0  0  0  0  0  0  0
   40.8450   24.6630   34.9210 C   0  0  0  0  0  0  0  0  0  0  0  0
   40.2920   26.1170   33.5790 H   0  0  0  0  0  0  0  0  0  0  0  0
   37.1680   24.4930   36.0740 H   0  0  0  0  0  0  0  0  0  0  0  0
   38.3000   22.5050   37.8020 H   0  0  0  0  0  0  0  0  0  0  0  0
   40.7430   21.5330   38.1450 H   0  0  0  0  0  0  0  0  0  0  0  0
   41.8890   24.6850   34.6240 H   0  0  0  0  0  0  0  0  0  0  0  0
   34.9320   29.2450   32.5780 C   0  0  0  0  0  0  0  0  0  0  0  0
   34.3440   29.6280   33.4400 H   0  0  0  0  0  0  0  0  0  0  0  0
   34.2890   28.7700   31.8140 H   0  0  0  0  0  0  0  0  0  0  0  0
   36.2500   29.3160   30.0420 F   0  0  0  0  0  0  0  0  0  0  0  0
   36.3680   30.4440   30.8090 C   0  0  0  0  0  0  0  0  0  0  0  0
   35.7190   30.3650   32.0180 C   0  0  0  0  0  0  0  0  0  0  0  0
   35.7770   31.4630   32.8790 C   0  0  0  0  0  0  0  0  0  0  0  0
   35.3030   31.5180   33.8590 H   0  0  0  0  0  0  0  0  0  0  0  0
   36.4720   32.6000   32.5120 C   0  0  0  0  0  0  0  0  0  0  0  0
   36.5370   33.4720   33.1600 H   0  0  0  0  0  0  0  0  0  0  0  0
   37.1200   32.6690   31.2990 C   0  0  0  0  0  3  0  0  0  0  0  0
   37.0610   31.5750   30.4440 C   0  0  0  0  0  3  0  0  0  0  0  0
  1  7  1  0  0  0  0
  2 10  1  0  0  0  0
  2  1  2  0  0  0  0
  3  2  1  0  0  0  0
  4  3  2  0  0  0  0
  4  5  1  0  0  0  0
  5  6  2  0  0  0  0
  6  1  1  0  0  0  0
  8  3  1  0  0  0  0
  9 10  2  0  0  0  0
  9 17  1  0  0  0  0
 10 11  1  0  0  0  0
 11 19  1  0  0  0  0
 11 12  2  0  0  0  0
 12 13  1  0  0  0  0
 13 14  1  0  0  0  0
 13 20  1  0  0  0  0
 14 21  1  0  0  0  0
 15 14  2  0  0  0  0
 16 12  1  0  0  0  0
 16 15  1  0  0  0  0
 17 16  2  0  0  0  0
 18  9  1  0  0  0  0
 22 17  1  0  0  0  0
 23  5  1  0  0  0  0
 23 24  1  0  0  0  0
 25 23  1  0  0  0  0
 26 27  1  0  0  0  0
 27 28  1  0  0  0  0
 28 23  1  0  0  0  0
 28 29  2  0  0  0  0
 29 30  1  0  0  0  0
 31 29  1  0  0  0  0
 31 32  1  0  0  0  0
 33 31  2  0  0  0  0
 34 27  2  0  0  0  0
 34 33  1  0  0  0  0
M  END
>  <minimizedAffinity>
-5.48321342

$$$$
