REMARK  Name = 
REMARK  4 active torsions:
REMARK  status: ('A' for Active; 'I' for Inactive)
REMARK    1  A    between atoms: O_1  and  C_2
REMARK    2  A    between atoms: O_1  and  C_13
REMARK    3  A    between atoms: N_16  and  C_17
REMARK    4  A    between atoms: C_17  and  C_31
REMARK                            x       y       z     vdW  Elec       q    Type
REMARK                         _______ _______ _______ _____ _____    ______ ____
ROOT
ATOM      1  O   UNL     1      35.487  28.673  50.052  0.00  0.00    +0.000 OA
ATOM      2  C   UNL     1      35.264  29.046  48.893  0.00  0.00    +0.000 C 
ATOM      3  C   UNL     1      35.923  30.204  48.330  0.00  0.00    +0.000 C 
ATOM      4  C   UNL     1      35.457  30.123  46.840  0.00  0.00    +0.000 C 
ATOM      5  C   UNL     1      34.151  29.386  46.940  0.00  0.00    +0.000 C 
ATOM      6  N   UNL     1      34.355  28.400  47.995  0.00  0.00    +0.000 N 
ATOM      7  H   UNL     1      35.559  31.140  48.751  0.00  0.00    +0.000 HD
ATOM      8  H   UNL     1      35.247  31.167  46.551  0.00  0.00    +0.000 HD
ATOM      9  H   UNL     1      36.211  29.608  46.244  0.00  0.00    +0.000 HD
ATOM     10  H   UNL     1      33.285  30.023  47.115  0.00  0.00    +0.000 HD
ATOM     11  H   UNL     1      34.057  28.802  45.988  0.00  0.00    +0.000 HD
ENDROOT
BRANCH   6  12
ATOM     12  C   UNL     1      33.750  27.086  48.054  0.00  0.00    +0.000 C 
ATOM     13  H   UNL     1      32.749  27.156  47.626  0.00  0.00    +0.000 HD
ATOM     14  H   UNL     1      33.618  26.728  49.111  0.00  0.00    +0.000 HD
BRANCH  12  17
ATOM     15  F   UNL     1      35.285  25.038  49.366  0.00  0.00    +0.000 F 
ATOM     16  C   UNL     1      35.296  25.070  48.015  0.00  0.00    +0.000 A 
ATOM     17  C   UNL     1      34.562  26.044  47.378  0.00  0.00    +0.000 A 
ATOM     18  C   UNL     1      34.574  26.069  45.977  0.00  0.00    +0.000 A 
ATOM     19  H   UNL     1      34.031  26.793  45.390  0.00  0.00    +0.000 HD
ATOM     20  C   UNL     1      35.328  25.106  45.352  0.00  0.00    +0.000 A 
ATOM     21  H   UNL     1      35.348  25.113  44.259  0.00  0.00    +0.000 HD
ATOM     22  C   UNL     1      36.075  24.115  45.980  0.00  0.00    +0.000 A 
ATOM     23  C   UNL     1      36.046  24.112  47.366  0.00  0.00    +0.000 A 
ENDBRANCH  12  17
ENDBRANCH   6  12
BRANCH   3  24
ATOM     24  O   UNL     1      37.347  30.114  48.290  0.00  0.00    +0.000 OA
BRANCH  24  25
ATOM     25  C   UNL     1      38.065  31.306  48.221  0.00  0.00    +0.000 A 
ATOM     26  C   UNL     1      38.218  32.017  49.397  0.00  0.00    +0.000 A 
ATOM     27  C   UNL     1      38.927  33.206  49.358  0.00  0.00    +0.000 A 
ATOM     28  N   UNL     1      39.441  33.625  48.166  0.00  0.00    +0.000 NA
ATOM     29  C   UNL     1      39.281  32.919  47.033  0.00  0.00    +0.000 A 
ATOM     30  N   UNL     1      38.603  31.786  47.082  0.00  0.00    +0.000 NA
ATOM     31  C   UNL     1      40.774  32.468  45.244  0.00  0.00    +0.000 C 
ATOM     32  O   UNL     1      41.137  31.339  45.695  0.00  0.00    +0.000 OA
ATOM     33  N   UNL     1      39.834  33.394  45.811  0.00  0.00    +0.000 N 
ATOM     34  H   UNL     1      37.836  31.741  50.375  0.00  0.00    +0.000 HD
ATOM     35  H   UNL     1      39.079  33.797  50.226  0.00  0.00    +0.000 HD
ATOM     36  H   UNL     1      41.278  32.690  44.312  0.00  0.00    +0.000 HD
ATOM     37  H   UNL     1      39.669  34.275  45.286  0.00  0.00    +0.000 HD
ENDBRANCH  24  25
ENDBRANCH   3  24
TORSDOF 4
