
 OpenBabel03272509013D

 31 33  0  0  0  0  0  0  0  0999 V2000
   37.3230   31.9040   47.6550 Cl  0  0  0  0  0  0  0  0  0  0  0  0
   36.3290   30.8350   46.7220 C   0  0  0  0  0  0  0  0  0  0  0  0
   36.7190   30.4810   45.4360 C   0  0  0  0  0  0  0  0  0  0  0  0
   35.9620   29.6420   44.6580 C   0  0  0  0  0  0  0  0  0  0  0  0
   34.7830   29.1220   45.1350 C   0  0  0  0  0  0  0  0  0  0  0  0
   34.3600   29.4500   46.4120 C   0  0  0  0  0  0  0  0  0  0  0  0
   32.8760   28.8550   47.1330 Cl  0  0  0  0  0  0  0  0  0  0  0  0
   35.1590   30.3030   47.1620 C   0  0  0  0  0  0  0  0  0  0  0  0
   36.2420   29.3470   43.6460 H   0  0  0  0  0  0  0  0  0  0  0  0
   34.1540   28.4580   44.5580 H   0  0  0  0  0  0  0  0  0  0  0  0
   39.1810   32.6420   43.7930 C   0  0  0  0  0  0  0  0  0  0  0  0
   40.3810   31.9470   43.9570 C   0  0  0  0  0  0  0  0  0  0  0  0
   40.3280   30.7080   44.6490 C   0  0  0  0  0  0  0  0  0  0  0  0
   39.1160   30.2980   45.0960 N   0  0  0  0  0  0  0  0  0  0  0  0
   37.9650   31.0110   44.9140 C   0  0  0  0  0  0  0  0  0  0  0  0
   38.0260   32.1660   44.2670 N   0  0  0  0  0  0  0  0  0  0  0  0
   39.2640   33.5900   43.2550 H   0  0  0  0  0  0  0  0  0  0  0  0
   41.3550   32.2560   43.6080 H   0  0  0  0  0  0  0  0  0  0  0  0
   41.1600   30.0740   44.8460 H   0  0  0  0  0  0  0  0  0  0  0  0
   34.7170   30.6530   48.5460 C   0  0  0  0  0  0  0  0  0  0  0  0
   34.5750   31.7460   48.6480 H   0  0  0  0  0  0  0  0  0  0  0  0
   33.7780   30.0950   48.8010 H   0  0  0  0  0  0  0  0  0  0  0  0
   35.1240   27.9590   49.2100 F   0  0  0  0  0  0  0  0  0  0  0  0
   35.8970   28.9170   49.8140 C   0  0  0  0  0  0  0  0  0  0  0  0
   35.7610   30.2760   49.5420 C   0  0  0  0  0  0  0  0  0  0  0  0
   36.5910   31.1610   50.2050 C   0  0  0  0  0  0  0  0  0  0  0  0
   36.4110   32.2010   49.9290 H   0  0  0  0  0  0  0  0  0  0  0  0
   37.5290   30.7200   51.1090 C   0  0  0  0  0  0  0  0  0  0  0  0
   38.1530   31.4790   51.5980 H   0  0  0  0  0  0  0  0  0  0  0  0
   37.6520   29.3530   51.3710 C   0  0  0  0  0  3  0  0  0  0  0  0
   36.8280   28.4430   50.7160 C   0  0  0  0  0  3  0  0  0  0  0  0
  2  8  1  0  0  0  0
  2  1  1  0  0  0  0
  3  2  2  0  0  0  0
  4  5  2  0  0  0  0
  4  3  1  0  0  0  0
  5  6  1  0  0  0  0
  6  7  1  0  0  0  0
  6  8  2  0  0  0  0
  8 20  1  0  0  0  0
  9  4  1  0  0  0  0
 10  5  1  0  0  0  0
 11 12  2  0  0  0  0
 11 16  1  0  0  0  0
 12 13  1  0  0  0  0
 13 19  1  0  0  0  0
 13 14  2  0  0  0  0
 15 14  1  0  0  0  0
 15  3  1  0  0  0  0
 16 15  2  0  0  0  0
 17 11  1  0  0  0  0
 18 12  1  0  0  0  0
 20 21  1  0  0  0  0
 20 22  1  0  0  0  0
 20 25  1  0  0  0  0
 23 24  1  0  0  0  0
 24 31  1  0  0  0  0
 25 24  2  0  0  0  0
 25 26  1  0  0  0  0
 26 28  2  0  0  0  0
 27 26  1  0  0  0  0
 28 30  1  0  0  0  0
 28 29  1  0  0  0  0
 31 30  2  0  0  0  0
M  END
>  <minimizedAffinity>
-5.27383947

>  <minimizedRMSD>
2.62152481

$$$$
