
 OpenBabel03272507553D

 23 24  0  0  0  0  0  0  0  0999 V2000
   35.0610   28.8540   50.0360 C   0  0  0  0  0  0  0  0  0  0  0  0
   36.2420   29.6360   49.8740 C   0  0  0  0  0  0  0  0  0  0  0  0
   36.3010   30.4800   48.7860 C   0  0  0  0  0  0  0  0  0  0  0  0
   35.2280   30.5280   47.9210 N   0  0  0  0  0  0  0  0  0  0  0  0
   34.1260   29.7630   48.1200 C   0  0  0  0  0  0  0  0  0  0  0  0
   34.0460   28.9290   49.1760 N   0  0  0  0  0  0  0  0  0  0  0  0
   33.1400   29.9630   47.1120 N   0  0  0  0  0  0  0  0  0  0  0  0
   34.9740   28.1620   50.8920 H   0  0  0  0  0  0  0  0  0  0  0  0
   33.4030   29.3160   46.3270 H   0  0  0  0  0  0  0  0  0  0  0  0
   32.3350   30.5900   47.1150 H   0  0  0  0  0  0  0  0  0  0  0  0
   36.7640   32.8160   50.1790 F   0  0  0  0  0  0  0  0  0  0  0  0
   37.6130   32.5790   49.1170 C   0  0  0  0  0  0  0  0  0  0  0  0
   37.3840   31.3590   48.4710 C   0  0  0  0  0  0  0  0  0  0  0  0
   38.2160   31.0410   47.4050 C   0  0  0  0  0  0  0  0  0  0  0  0
   38.1600   30.1350   46.7760 H   0  0  0  0  0  0  0  0  0  0  0  0
   39.2190   31.8650   46.9800 C   0  0  0  0  0  0  0  0  0  0  0  0
   39.9040   31.7080   46.1710 H   0  0  0  0  0  0  0  0  0  0  0  0
   39.4150   33.0750   47.6520 C   0  0  0  0  0  3  0  0  0  0  0  0
   38.6280   33.4450   48.7140 C   0  0  0  0  0  3  0  0  0  0  0  0
   37.3470   29.5340   50.8690 C   0  0  0  0  0  0  0  0  0  0  0  0
   38.5760   29.6850   50.2720 F   0  0  0  0  0  0  0  0  0  0  0  0
   37.1680   30.5050   51.8160 F   0  0  0  0  0  0  0  0  0  0  0  0
   37.3340   28.3100   51.5300 F   0  0  0  0  0  0  0  0  0  0  0  0
  1  8  1  0  0  0  0
  2  1  1  0  0  0  0
  2 20  1  0  0  0  0
  3  2  2  0  0  0  0
  4  5  2  0  0  0  0
  4  3  1  0  0  0  0
  5  6  1  0  0  0  0
  6  1  2  0  0  0  0
  7 10  1  0  0  0  0
  7  5  1  0  0  0  0
  9  7  1  0  0  0  0
 12 11  1  0  0  0  0
 13  3  1  0  0  0  0
 13 12  2  0  0  0  0
 14 13  1  0  0  0  0
 15 14  1  0  0  0  0
 16 14  2  0  0  0  0
 16 18  1  0  0  0  0
 17 16  1  0  0  0  0
 18 19  2  0  0  0  0
 19 12  1  0  0  0  0
 20 23  1  0  0  0  0
 20 22  1  0  0  0  0
 21 20  1  0  0  0  0
M  END
>  <minimizedAffinity>
-6.41056442

>  <minimizedRMSD>
1.55118251

$$$$
