
 OpenBabel03272509463D

 25 26  0  0  0  0  0  0  0  0999 V2000
   33.7970   28.6030   48.7780 C   0  0  0  0  0  0  0  0  0  0  0  0
   34.3620   29.0260   47.9140 H   0  0  0  0  0  0  0  0  0  0  0  0
   33.1640   29.4160   49.1900 H   0  0  0  0  0  0  0  0  0  0  0  0
   33.0020   27.4420   48.2790 C   0  0  0  0  0  0  0  0  0  0  0  0
   33.2440   27.1580   47.2550 H   0  0  0  0  0  0  0  0  0  0  0  0
   33.2140   26.5870   48.9820 H   0  0  0  0  0  0  0  0  0  0  0  0
   31.8370   28.4870   46.0280 F   0  0  0  0  0  0  0  0  0  0  0  0
   31.0850   28.3130   47.1610 C   0  0  0  0  0  0  0  0  0  0  0  0
   31.5580   27.7950   48.3660 C   0  0  0  0  0  0  0  0  0  0  0  0
   30.6880   27.6770   49.4250 C   0  0  0  0  0  0  0  0  0  0  0  0
   31.1680   27.2620   50.3020 H   0  0  0  0  0  0  0  0  0  0  0  0
   29.3800   28.0590   49.3160 C   0  0  0  0  0  0  0  0  0  0  0  0
   28.7490   27.9420   50.1790 H   0  0  0  0  0  0  0  0  0  0  0  0
   28.9070   28.5770   48.1100 C   0  0  0  0  0  3  0  0  0  0  0  0
   29.7720   28.7050   47.0200 C   0  0  0  0  0  3  0  0  0  0  0  0
   34.6770   28.2230   49.8050 O   0  0  0  0  0  0  0  0  0  0  0  0
   37.3000   30.2270   51.2970 C   0  0  0  0  0  0  0  0  0  0  0  0
   37.9660   30.6640   50.1570 C   0  0  0  0  0  0  0  0  0  0  0  0
   37.4840   30.2500   48.9220 C   0  0  0  0  0  0  0  0  0  0  0  0
   36.3870   29.4410   48.9250 N   0  0  0  0  0  0  0  0  0  0  0  0
   35.7640   29.0360   50.0560 C   0  0  0  0  0  0  0  0  0  0  0  0
   36.2320   29.4380   51.2570 N   0  0  0  0  0  0  0  0  0  0  0  0
   37.7220   30.5840   52.2320 H   0  0  0  0  0  0  0  0  0  0  0  0
   38.8260   31.2940   50.1080 H   0  0  0  0  0  0  0  0  0  0  0  0
   37.9310   30.5330   47.9760 H   0  0  0  0  0  0  0  0  0  0  0  0
  1  3  1  0  0  0  0
  1 16  1  0  0  0  0
  2  1  1  0  0  0  0
  4  9  1  0  0  0  0
  4  1  1  0  0  0  0
  4  6  1  0  0  0  0
  5  4  1  0  0  0  0
  7  8  1  0  0  0  0
  8  9  1  0  0  0  0
  9 10  2  0  0  0  0
 10 11  1  0  0  0  0
 12 10  1  0  0  0  0
 12 13  1  0  0  0  0
 14 12  2  0  0  0  0
 15  8  2  0  0  0  0
 15 14  1  0  0  0  0
 16 21  1  0  0  0  0
 17 23  1  0  0  0  0
 18 17  2  0  0  0  0
 19 20  2  0  0  0  0
 19 18  1  0  0  0  0
 20 21  1  0  0  0  0
 21 22  2  0  0  0  0
 22 17  1  0  0  0  0
 24 18  1  0  0  0  0
 25 19  1  0  0  0  0
M  END
>  <minimizedAffinity>
-4.5714016

>  <minimizedRMSD>
2.1843667

$$$$
