
 OpenBabel03272509463D

 25 26  0  0  0  0  0  0  0  0999 V2000
   34.0570   28.5030   48.5830 C   0  0  0  0  0  0  0  0  0  0  0  0
   34.7380   28.9680   47.8320 H   0  0  0  0  0  0  0  0  0  0  0  0
   33.2600   29.2400   48.8080 H   0  0  0  0  0  0  0  0  0  0  0  0
   33.5300   27.2350   47.9960 C   0  0  0  0  0  0  0  0  0  0  0  0
   33.7700   27.1110   46.9410 H   0  0  0  0  0  0  0  0  0  0  0  0
   33.9790   26.3960   48.6000 H   0  0  0  0  0  0  0  0  0  0  0  0
   32.0550   25.9970   46.0430 F   0  0  0  0  0  0  0  0  0  0  0  0
   31.4170   26.5630   47.1170 C   0  0  0  0  0  0  0  0  0  0  0  0
   32.0510   27.2200   48.1720 C   0  0  0  0  0  0  0  0  0  0  0  0
   31.2820   27.7420   49.1860 C   0  0  0  0  0  0  0  0  0  0  0  0
   31.8840   28.2240   49.9470 H   0  0  0  0  0  0  0  0  0  0  0  0
   29.9200   27.6300   49.1750 C   0  0  0  0  0  0  0  0  0  0  0  0
   29.3740   28.0590   49.9970 H   0  0  0  0  0  0  0  0  0  0  0  0
   29.2860   26.9710   48.1210 C   0  0  0  0  0  3  0  0  0  0  0  0
   30.0480   26.4320   47.0800 C   0  0  0  0  0  3  0  0  0  0  0  0
   34.7390   28.2700   49.7890 O   0  0  0  0  0  0  0  0  0  0  0  0
   37.3340   30.2340   51.3780 C   0  0  0  0  0  0  0  0  0  0  0  0
   38.0390   30.6730   50.2620 C   0  0  0  0  0  0  0  0  0  0  0  0
   37.5910   30.2740   49.0100 C   0  0  0  0  0  0  0  0  0  0  0  0
   36.4870   29.4770   48.9730 N   0  0  0  0  0  0  0  0  0  0  0  0
   35.8260   29.0690   50.0810 C   0  0  0  0  0  0  0  0  0  0  0  0
   36.2600   29.4560   51.2980 N   0  0  0  0  0  0  0  0  0  0  0  0
   37.7320   30.5780   52.3280 H   0  0  0  0  0  0  0  0  0  0  0  0
   38.9070   31.2940   50.2460 H   0  0  0  0  0  0  0  0  0  0  0  0
   38.0710   30.5610   48.0800 H   0  0  0  0  0  0  0  0  0  0  0  0
  1  3  1  0  0  0  0
  1 16  1  0  0  0  0
  2  1  1  0  0  0  0
  4  9  1  0  0  0  0
  4  1  1  0  0  0  0
  4  6  1  0  0  0  0
  5  4  1  0  0  0  0
  7  8  1  0  0  0  0
  8  9  1  0  0  0  0
  9 10  2  0  0  0  0
 10 11  1  0  0  0  0
 12 10  1  0  0  0  0
 12 13  1  0  0  0  0
 14 12  2  0  0  0  0
 15  8  2  0  0  0  0
 15 14  1  0  0  0  0
 16 21  1  0  0  0  0
 17 23  1  0  0  0  0
 18 17  2  0  0  0  0
 19 18  1  0  0  0  0
 20 19  2  0  0  0  0
 20 21  1  0  0  0  0
 21 22  2  0  0  0  0
 22 17  1  0  0  0  0
 24 18  1  0  0  0  0
 25 19  1  0  0  0  0
M  END
>  <minimizedAffinity>
-4.42611647

>  <minimizedRMSD>
1.4445399

$$$$
