
 OpenBabel03272509013D

 31 33  0  0  0  0  0  0  0  0999 V2000
   37.5470   32.0750   48.1450 Cl  0  0  0  0  0  0  0  0  0  0  0  0
   36.6760   31.0980   47.0090 C   0  0  0  0  0  0  0  0  0  0  0  0
   37.2020   30.8870   45.7400 C   0  0  0  0  0  0  0  0  0  0  0  0
   36.5470   30.1250   44.8060 C   0  0  0  0  0  0  0  0  0  0  0  0
   35.3380   29.5430   45.1030 C   0  0  0  0  0  0  0  0  0  0  0  0
   34.7810   29.7280   46.3580 C   0  0  0  0  0  0  0  0  0  0  0  0
   33.2470   29.0400   46.8570 Cl  0  0  0  0  0  0  0  0  0  0  0  0
   35.4810   30.5070   47.2690 C   0  0  0  0  0  0  0  0  0  0  0  0
   36.9330   29.9430   43.8020 H   0  0  0  0  0  0  0  0  0  0  0  0
   34.7860   28.9350   44.3990 H   0  0  0  0  0  0  0  0  0  0  0  0
   39.7610   33.2190   44.5390 C   0  0  0  0  0  0  0  0  0  0  0  0
   40.9570   32.5510   44.8070 C   0  0  0  0  0  0  0  0  0  0  0  0
   40.8680   31.2700   45.4140 C   0  0  0  0  0  0  0  0  0  0  0  0
   39.6270   30.7960   45.6850 N   0  0  0  0  0  0  0  0  0  0  0  0
   38.4810   31.4860   45.4060 C   0  0  0  0  0  0  0  0  0  0  0  0
   38.5760   32.6800   44.8390 N   0  0  0  0  0  0  0  0  0  0  0  0
   39.8730   34.2010   44.0710 H   0  0  0  0  0  0  0  0  0  0  0  0
   41.9540   32.9100   44.5980 H   0  0  0  0  0  0  0  0  0  0  0  0
   41.6930   30.6490   45.6740 H   0  0  0  0  0  0  0  0  0  0  0  0
   34.8940   30.7030   48.6300 C   0  0  0  0  0  0  0  0  0  0  0  0
   34.7000   31.7760   48.8230 H   0  0  0  0  0  0  0  0  0  0  0  0
   33.9570   30.0950   48.7340 H   0  0  0  0  0  0  0  0  0  0  0  0
   35.2780   27.9690   49.1230 F   0  0  0  0  0  0  0  0  0  0  0  0
   35.9820   28.8840   49.8640 C   0  0  0  0  0  0  0  0  0  0  0  0
   35.8510   30.2590   49.6840 C   0  0  0  0  0  0  0  0  0  0  0  0
   36.6070   31.0970   50.4830 C   0  0  0  0  0  0  0  0  0  0  0  0
   36.4380   32.1530   50.2700 H   0  0  0  0  0  0  0  0  0  0  0  0
   37.4670   30.5940   51.4320 C   0  0  0  0  0  0  0  0  0  0  0  0
   38.0350   31.3180   52.0300 H   0  0  0  0  0  0  0  0  0  0  0  0
   37.5860   29.2120   51.5990 C   0  0  0  0  0  3  0  0  0  0  0  0
   36.8360   28.3490   50.8060 C   0  0  0  0  0  3  0  0  0  0  0  0
  2  8  1  0  0  0  0
  2  1  1  0  0  0  0
  3  2  2  0  0  0  0
  4  5  2  0  0  0  0
  4  3  1  0  0  0  0
  5  6  1  0  0  0  0
  6  7  1  0  0  0  0
  6  8  2  0  0  0  0
  8 20  1  0  0  0  0
  9  4  1  0  0  0  0
 10  5  1  0  0  0  0
 11 12  2  0  0  0  0
 11 16  1  0  0  0  0
 12 13  1  0  0  0  0
 13 19  1  0  0  0  0
 13 14  2  0  0  0  0
 15 14  1  0  0  0  0
 15  3  1  0  0  0  0
 16 15  2  0  0  0  0
 17 11  1  0  0  0  0
 18 12  1  0  0  0  0
 20 22  1  0  0  0  0
 20 21  1  0  0  0  0
 20 25  1  0  0  0  0
 23 24  1  0  0  0  0
 24 31  1  0  0  0  0
 25 24  2  0  0  0  0
 25 26  1  0  0  0  0
 26 28  2  0  0  0  0
 27 26  1  0  0  0  0
 28 30  1  0  0  0  0
 28 29  1  0  0  0  0
 31 30  2  0  0  0  0
M  END
>  <minimizedAffinity>
-5.50651073

>  <minimizedRMSD>
2.36540437

$$$$
