
     RDKit          3D

 35 37  0  0  0  0  0  0  0  0999 V2000
   37.8225   30.4864   50.1718 C   0  0  0  0  0  0  0  0  0  0  0  0
   37.3296   30.6833   48.8970 C   0  0  0  0  0  0  0  0  0  0  0  0
   36.0097   30.2866   48.5826 C   0  0  0  0  0  0  0  0  0  0  0  0
   35.2668   29.7195   49.5625 N   0  0  0  0  0  0  0  0  0  0  0  0
   35.7956   29.5388   50.8274 C   0  0  0  0  0  0  0  0  0  0  0  0
   37.0664   29.9236   51.1188 N   0  0  0  0  0  0  0  0  0  0  0  0
   34.9629   28.9373   51.8191 N   0  0  0  0  0  0  0  0  0  0  0  0
   38.2199   33.5737   49.2045 Cl  0  0  0  0  0  0  0  0  0  0  0  0
   38.7139   32.5965   47.8631 C   0  0  0  0  0  0  0  0  0  0  0  0
   38.2212   31.3177   47.8971 C   0  0  0  0  0  0  0  0  0  0  0  0
   38.5715   30.4498   46.8592 C   0  0  0  0  0  0  0  0  0  0  0  0
   39.3695   30.8277   45.8354 C   0  0  0  0  0  0  0  0  0  0  0  0
   39.8610   32.1309   45.8164 C   0  0  0  0  0  0  0  0  0  0  0  0
   40.8967   32.6783   44.5323 Cl  0  0  0  0  0  0  0  0  0  0  0  0
   39.5241   32.9872   46.8293 C   0  0  0  0  0  0  0  0  0  0  0  0
   35.5077   30.5017   47.2304 C   0  0  0  0  0  0  0  0  0  0  0  0
   38.8393   30.8016   50.3896 H   0  0  0  0  0  0  0  0  0  0  0  0
   34.7499   29.4973   52.6978 H   0  0  0  0  0  0  0  0  0  0  0  0
   34.5453   27.9839   51.7433 H   0  0  0  0  0  0  0  0  0  0  0  0
   38.2634   29.4167   46.7804 H   0  0  0  0  0  0  0  0  0  0  0  0
   39.6725   30.1890   45.0029 H   0  0  0  0  0  0  0  0  0  0  0  0
   39.8828   34.0056   46.8498 H   0  0  0  0  0  0  0  0  0  0  0  0
   35.7975   31.5233   46.9120 H   0  0  0  0  0  0  0  0  0  0  0  0
   35.9950   29.8174   46.4949 H   0  0  0  0  0  0  0  0  0  0  0  0
   34.2408   28.0493   47.1928 F   0  0  0  0  0  0  0  0  0  0  0  0
   33.4099   29.1122   47.0931 C   0  0  0  0  0  0  0  0  0  0  0  0
   34.0266   30.3463   47.1111 C   0  0  0  0  0  0  0  0  0  0  0  0
   33.2553   31.4868   47.0155 C   0  0  0  0  0  0  0  0  0  0  0  0
   33.6855   32.4937   47.0217 H   0  0  0  0  0  0  0  0  0  0  0  0
   31.8765   31.4478   46.9010 C   0  0  0  0  0  0  0  0  0  0  0  0
   31.2833   32.3456   46.8275 H   0  0  0  0  0  0  0  0  0  0  0  0
   31.2996   30.2014   46.8870 C   0  0  0  0  0  0  0  0  0  0  0  0
   32.0334   29.0275   46.9803 C   0  0  0  0  0  0  0  0  0  0  0  0
   30.2190   30.1127   46.7982 H   0  0  0  0  0  0  0  0  0  0  0  0
   31.5938   28.0392   46.9718 H   0  0  0  0  0  0  0  0  0  0  0  0
  1  6  2  0
  2  1  1  0
  3  2  2  0
  3  4  1  0
  4  5  2  0
  5  6  1  0
  5  7  1  0
  9 10  2  0
  9  8  1  0
 10  2  1  0
 11 10  1  0
 12 11  2  0
 13 12  1  0
 13 15  2  0
 14 13  1  0
 15  9  1  0
 16  3  1  0
  1 17  1  0
  7 18  1  0
  7 19  1  0
 11 20  1  0
 12 21  1  0
 15 22  1  0
 16 23  1  0
 16 24  1  0
 25 26  1  0
 26 27  2  0
 27 28  1  0
 28 29  1  0
 28 30  2  0
 30 31  1  0
 30 32  1  0
 32 33  2  0
 33 26  1  0
 32 34  1  0
 33 35  1  0
 16 27  1  0
M  ISO  8  17  14  20  14  21  14  22  14  23   8  24   8  29  15  31  16
M  END
>  <DihAtoms>  (1) 
2,15,26,25

>  <DihDeg>  (1) 
-76.47281188346652

$$$$
