
 OpenBabel03262521163D

 28 29  0  0  0  0  0  0  0  0999 V2000
   37.3660   27.3550   34.6210 C   0  0  0  0  0  0  0  0  0  0  0  0
   36.3300   26.9490   34.7360 H   0  0  0  0  0  0  0  0  0  0  0  0
   37.1730   28.4710   34.6890 H   0  0  0  0  0  0  0  0  0  0  0  0
   38.1690   26.9300   35.6230 C   0  0  0  0  0  0  0  0  0  0  0  0
   38.2250   27.5890   36.5230 H   0  0  0  0  0  0  0  0  0  0  0  0
   39.2620   26.8120   35.3480 H   0  0  0  0  0  0  0  0  0  0  0  0
   37.5040   25.7770   35.9400 O   0  0  0  0  0  0  0  0  0  0  0  0
   38.1940   24.7950   36.6090 C   0  0  0  0  0  0  0  0  0  0  0  0
   39.2090   24.1940   35.8700 C   0  0  0  0  0  0  0  0  0  0  0  0
   39.9790   23.1920   36.4250 C   0  0  0  0  0  0  0  0  0  0  0  0
   39.6980   22.8270   37.7120 N   0  0  0  0  0  0  0  0  0  0  0  0
   38.7010   23.4250   38.4190 C   0  0  0  0  0  0  0  0  0  0  0  0
   37.9830   24.3770   37.8690 N   0  0  0  0  0  0  0  0  0  0  0  0
   39.4840   24.4410   34.8370 H   0  0  0  0  0  0  0  0  0  0  0  0
   40.7730   22.7100   35.8830 H   0  0  0  0  0  0  0  0  0  0  0  0
   38.4190   23.1910   39.4340 H   0  0  0  0  0  0  0  0  0  0  0  0
   37.7140   27.1420   33.1930 C   0  0  0  0  0  0  0  0  0  0  0  0
   38.8220   26.8900   33.0850 H   0  0  0  0  0  0  0  0  0  0  0  0
   37.6160   28.0590   32.5440 H   0  0  0  0  0  0  0  0  0  0  0  0
   35.5570   27.7190   31.4700 F   0  0  0  0  0  0  0  0  0  0  0  0
   35.9810   26.4300   31.6900 C   0  0  0  0  0  0  0  0  0  0  0  0
   37.0390   26.0130   32.5130 C   0  0  0  0  0  0  0  0  0  0  0  0
   37.2680   24.6580   32.5660 C   0  0  0  0  0  0  0  0  0  0  0  0
   38.0840   24.3720   33.2180 H   0  0  0  0  0  0  0  0  0  0  0  0
   36.5290   23.7320   31.8700 C   0  0  0  0  0  0  0  0  0  0  0  0
   36.7990   22.6990   31.9880 H   0  0  0  0  0  0  0  0  0  0  0  0
   35.4850   24.1770   31.0610 C   0  0  0  0  0  3  0  0  0  0  0  0
   35.2270   25.5450   30.9850 C   0  0  0  0  0  3  0  0  0  0  0  0
  1  3  1  0  0  0  0
  1  2  1  0  0  0  0
  1  4  1  0  0  0  0
  4  7  1  0  0  0  0
  4  5  1  0  0  0  0
  6  4  1  0  0  0  0
  7  8  1  0  0  0  0
  8 13  1  0  0  0  0
  9 10  1  0  0  0  0
  9  8  2  0  0  0  0
 10 11  2  0  0  0  0
 11 12  1  0  0  0  0
 12 16  1  0  0  0  0
 13 12  2  0  0  0  0
 14  9  1  0  0  0  0
 15 10  1  0  0  0  0
 17  1  1  0  0  0  0
 18 17  1  0  0  0  0
 19 17  1  0  0  0  0
 20 21  1  0  0  0  0
 21 22  1  0  0  0  0
 22 23  2  0  0  0  0
 22 17  1  0  0  0  0
 23 24  1  0  0  0  0
 25 26  1  0  0  0  0
 25 23  1  0  0  0  0
 27 25  2  0  0  0  0
 28 27  1  0  0  0  0
 28 21  2  0  0  0  0
M  END
>  <minimizedAffinity>
-4.59144688

$$$$

 OpenBabel03262521163D

 28 29  0  0  0  0  0  0  0  0999 V2000
   38.2450   26.8570   35.8770 C   0  0  0  0  0  0  0  0  0  0  0  0
   39.3230   26.8040   35.5850 H   0  0  0  0  0  0  0  0  0  0  0  0
   38.3290   27.1330   36.9750 H   0  0  0  0  0  0  0  0  0  0  0  0
   37.5980   27.8140   35.1740 C   0  0  0  0  0  0  0  0  0  0  0  0
   38.2130   28.6870   34.8470 H   0  0  0  0  0  0  0  0  0  0  0  0
   36.7430   28.3190   35.7200 H   0  0  0  0  0  0  0  0  0  0  0  0
   37.2520   27.0640   34.0830 O   0  0  0  0  0  0  0  0  0  0  0  0
   36.8860   27.7230   32.9340 C   0  0  0  0  0  0  0  0  0  0  0  0
   36.0730   28.8340   33.1380 C   0  0  0  0  0  0  0  0  0  0  0  0
   35.6330   29.5850   32.0670 C   0  0  0  0  0  0  0  0  0  0  0  0
   36.0300   29.1890   30.8200 N   0  0  0  0  0  0  0  0  0  0  0  0
   36.8240   28.1000   30.6400 C   0  0  0  0  0  0  0  0  0  0  0  0
   37.2300   27.4020   31.6750 N   0  0  0  0  0  0  0  0  0  0  0  0
   35.7200   29.2040   34.1100 H   0  0  0  0  0  0  0  0  0  0  0  0
   35.0070   30.4520   32.1900 H   0  0  0  0  0  0  0  0  0  0  0  0
   37.1770   27.7250   29.6910 H   0  0  0  0  0  0  0  0  0  0  0  0
   37.7750   25.4480   35.9020 C   0  0  0  0  0  0  0  0  0  0  0  0
   37.5030   25.0990   34.8500 H   0  0  0  0  0  0  0  0  0  0  0  0
   36.8100   25.2860   36.4630 H   0  0  0  0  0  0  0  0  0  0  0  0
   37.4890   24.3800   38.4960 F   0  0  0  0  0  0  0  0  0  0  0  0
   38.5100   23.9880   37.6620 C   0  0  0  0  0  0  0  0  0  0  0  0
   38.7570   24.4370   36.3550 C   0  0  0  0  0  0  0  0  0  0  0  0
   39.8480   23.8880   35.7220 C   0  0  0  0  0  0  0  0  0  0  0  0
   40.0150   24.2640   34.7210 H   0  0  0  0  0  0  0  0  0  0  0  0
   40.6750   22.9540   36.2990 C   0  0  0  0  0  0  0  0  0  0  0  0
   41.4980   22.5950   35.7100 H   0  0  0  0  0  0  0  0  0  0  0  0
   40.4030   22.5290   37.5990 C   0  0  0  0  0  3  0  0  0  0  0  0
   39.3040   23.0640   38.2680 C   0  0  0  0  0  3  0  0  0  0  0  0
  1 17  1  0  0  0  0
  1  3  1  0  0  0  0
  2  1  1  0  0  0  0
  4  6  1  0  0  0  0
  4  1  1  0  0  0  0
  5  4  1  0  0  0  0
  7  4  1  0  0  0  0
  8  9  1  0  0  0  0
  8  7  1  0  0  0  0
  9 14  1  0  0  0  0
 10 15  1  0  0  0  0
 10  9  2  0  0  0  0
 11 10  1  0  0  0  0
 12 11  2  0  0  0  0
 12 13  1  0  0  0  0
 13  8  2  0  0  0  0
 16 12  1  0  0  0  0
 17 22  1  0  0  0  0
 17 19  1  0  0  0  0
 18 17  1  0  0  0  0
 21 28  1  0  0  0  0
 21 20  1  0  0  0  0
 22 21  2  0  0  0  0
 23 25  2  0  0  0  0
 23 22  1  0  0  0  0
 24 23  1  0  0  0  0
 25 27  1  0  0  0  0
 26 25  1  0  0  0  0
 27 28  2  0  0  0  0
M  END
>  <minimizedAffinity>
-4.55206347

$$$$

 OpenBabel03262521163D

 28 29  0  0  0  0  0  0  0  0999 V2000
   38.1730   26.7050   35.2460 C   0  0  0  0  0  0  0  0  0  0  0  0
   39.2080   26.4080   34.9450 H   0  0  0  0  0  0  0  0  0  0  0  0
   38.3900   27.4970   36.0290 H   0  0  0  0  0  0  0  0  0  0  0  0
   37.4910   27.2200   34.1980 C   0  0  0  0  0  0  0  0  0  0  0  0
   37.7170   28.2830   33.9360 H   0  0  0  0  0  0  0  0  0  0  0  0
   36.3640   27.2420   34.3190 H   0  0  0  0  0  0  0  0  0  0  0  0
   37.9720   26.3950   33.2180 O   0  0  0  0  0  0  0  0  0  0  0  0
   37.0660   25.6960   32.4580 C   0  0  0  0  0  0  0  0  0  0  0  0
   37.2330   24.3140   32.4840 C   0  0  0  0  0  0  0  0  0  0  0  0
   36.3890   23.4940   31.7630 C   0  0  0  0  0  0  0  0  0  0  0  0
   35.4000   24.0960   31.0370 N   0  0  0  0  0  0  0  0  0  0  0  0
   35.2520   25.4480   31.0230 C   0  0  0  0  0  0  0  0  0  0  0  0
   36.0670   26.2070   31.7180 N   0  0  0  0  0  0  0  0  0  0  0  0
   38.0040   23.7700   33.0440 H   0  0  0  0  0  0  0  0  0  0  0  0
   36.4890   22.4220   31.7640 H   0  0  0  0  0  0  0  0  0  0  0  0
   34.5000   25.9960   30.4750 H   0  0  0  0  0  0  0  0  0  0  0  0
   37.6500   25.5610   36.0360 C   0  0  0  0  0  0  0  0  0  0  0  0
   36.8700   24.9840   35.4340 H   0  0  0  0  0  0  0  0  0  0  0  0
   37.0700   25.8530   36.9570 H   0  0  0  0  0  0  0  0  0  0  0  0
   37.4910   24.4470   38.6210 F   0  0  0  0  0  0  0  0  0  0  0  0
   38.4520   24.0490   37.7210 C   0  0  0  0  0  0  0  0  0  0  0  0
   38.6320   24.5190   36.4110 C   0  0  0  0  0  0  0  0  0  0  0  0
   39.6720   23.9590   35.7040 C   0  0  0  0  0  0  0  0  0  0  0  0
   39.7880   24.3510   34.7020 H   0  0  0  0  0  0  0  0  0  0  0  0
   40.5080   22.9950   36.2140 C   0  0  0  0  0  0  0  0  0  0  0  0
   41.2870   22.6300   35.5700 H   0  0  0  0  0  0  0  0  0  0  0  0
   40.3030   22.5500   37.5180 C   0  0  0  0  0  3  0  0  0  0  0  0
   39.2580   23.0960   38.2610 C   0  0  0  0  0  3  0  0  0  0  0  0
  1  3  1  0  0  0  0
  1 17  1  0  0  0  0
  2  1  1  0  0  0  0
  4  6  1  0  0  0  0
  4  1  1  0  0  0  0
  5  4  1  0  0  0  0
  7  4  1  0  0  0  0
  8  9  1  0  0  0  0
  8  7  1  0  0  0  0
  9 14  1  0  0  0  0
 10 15  1  0  0  0  0
 10  9  2  0  0  0  0
 11 10  1  0  0  0  0
 12 11  2  0  0  0  0
 12 13  1  0  0  0  0
 13  8  2  0  0  0  0
 16 12  1  0  0  0  0
 17 22  1  0  0  0  0
 17 19  1  0  0  0  0
 18 17  1  0  0  0  0
 21 28  1  0  0  0  0
 21 20  1  0  0  0  0
 22 21  2  0  0  0  0
 23 25  2  0  0  0  0
 23 22  1  0  0  0  0
 24 23  1  0  0  0  0
 25 27  1  0  0  0  0
 26 25  1  0  0  0  0
 27 28  2  0  0  0  0
M  END
>  <minimizedAffinity>
-4.50667763

$$$$

 OpenBabel03262521163D

 28 29  0  0  0  0  0  0  0  0999 V2000
   41.2940   25.3030   34.1100 C   0  0  0  0  0  0  0  0  0  0  0  0
   42.2100   25.5060   33.5020 H   0  0  0  0  0  0  0  0  0  0  0  0
   40.5580   24.9970   33.3010 H   0  0  0  0  0  0  0  0  0  0  0  0
   41.5070   24.2970   34.9890 C   0  0  0  0  0  0  0  0  0  0  0  0
   41.6480   24.5970   36.0560 H   0  0  0  0  0  0  0  0  0  0  0  0
   42.4350   23.6750   34.7950 H   0  0  0  0  0  0  0  0  0  0  0  0
   40.3110   23.6490   34.8500 O   0  0  0  0  0  0  0  0  0  0  0  0
   39.4720   23.5970   35.9360 C   0  0  0  0  0  0  0  0  0  0  0  0
   40.0630   23.1160   37.1020 C   0  0  0  0  0  0  0  0  0  0  0  0
   39.3300   23.0130   38.2670 C   0  0  0  0  0  0  0  0  0  0  0  0
   38.0190   23.3990   38.2180 N   0  0  0  0  0  0  0  0  0  0  0  0
   37.4590   23.8650   37.0700 C   0  0  0  0  0  0  0  0  0  0  0  0
   38.1770   23.9550   35.9740 N   0  0  0  0  0  0  0  0  0  0  0  0
   41.1060   22.7920   37.2070 H   0  0  0  0  0  0  0  0  0  0  0  0
   39.7580   22.6500   39.1850 H   0  0  0  0  0  0  0  0  0  0  0  0
   36.4350   24.1860   36.9510 H   0  0  0  0  0  0  0  0  0  0  0  0
   40.8070   26.6360   34.5450 C   0  0  0  0  0  0  0  0  0  0  0  0
   41.4750   27.4620   34.1270 H   0  0  0  0  0  0  0  0  0  0  0  0
   40.8710   26.8200   35.6560 H   0  0  0  0  0  0  0  0  0  0  0  0
   38.8520   27.2270   36.4900 F   0  0  0  0  0  0  0  0  0  0  0  0
   38.5740   27.2870   35.1450 C   0  0  0  0  0  0  0  0  0  0  0  0
   39.4550   27.0240   34.0840 C   0  0  0  0  0  0  0  0  0  0  0  0
   38.9340   27.1550   32.8170 C   0  0  0  0  0  0  0  0  0  0  0  0
   39.6370   26.9350   32.0240 H   0  0  0  0  0  0  0  0  0  0  0  0
   37.6340   27.5180   32.5610 C   0  0  0  0  0  0  0  0  0  0  0  0
   37.3370   27.5890   31.5310 H   0  0  0  0  0  0  0  0  0  0  0  0
   36.7840   27.7720   33.6360 C   0  0  0  0  0  3  0  0  0  0  0  0
   37.2800   27.6500   34.9320 C   0  0  0  0  0  3  0  0  0  0  0  0
  1 17  1  0  0  0  0
  1  4  1  0  0  0  0
  2  1  1  0  0  0  0
  3  1  1  0  0  0  0
  4  5  1  0  0  0  0
  6  4  1  0  0  0  0
  7  4  1  0  0  0  0
  7  8  1  0  0  0  0
  8 13  2  0  0  0  0
  8  9  1  0  0  0  0
  9 14  1  0  0  0  0
  9 10  2  0  0  0  0
 10 15  1  0  0  0  0
 11 10  1  0  0  0  0
 12 11  2  0  0  0  0
 13 12  1  0  0  0  0
 16 12  1  0  0  0  0
 17 19  1  0  0  0  0
 18 17  1  0  0  0  0
 21 20  1  0  0  0  0
 22 17  1  0  0  0  0
 22 21  2  0  0  0  0
 23 22  1  0  0  0  0
 24 23  1  0  0  0  0
 25 23  2  0  0  0  0
 25 27  1  0  0  0  0
 26 25  1  0  0  0  0
 27 28  2  0  0  0  0
 28 21  1  0  0  0  0
M  END
>  <minimizedAffinity>
-4.47324896

$$$$

 OpenBabel03262521163D

 28 29  0  0  0  0  0  0  0  0999 V2000
   41.4970   24.9920   34.2780 C   0  0  0  0  0  0  0  0  0  0  0  0
   42.3340   24.9270   33.5400 H   0  0  0  0  0  0  0  0  0  0  0  0
   40.6220   24.6360   33.6500 H   0  0  0  0  0  0  0  0  0  0  0  0
   41.7140   24.1730   35.3330 C   0  0  0  0  0  0  0  0  0  0  0  0
   41.7440   24.6600   36.3380 H   0  0  0  0  0  0  0  0  0  0  0  0
   42.7000   23.6140   35.3140 H   0  0  0  0  0  0  0  0  0  0  0  0
   40.5880   23.4050   35.2280 O   0  0  0  0  0  0  0  0  0  0  0  0
   39.7050   23.4030   36.2820 C   0  0  0  0  0  0  0  0  0  0  0  0
   38.3960   23.7330   35.9410 C   0  0  0  0  0  0  0  0  0  0  0  0
   37.4100   23.7680   36.9060 C   0  0  0  0  0  0  0  0  0  0  0  0
   37.7780   23.4680   38.1890 N   0  0  0  0  0  0  0  0  0  0  0  0
   39.0620   23.1490   38.5020 C   0  0  0  0  0  0  0  0  0  0  0  0
   39.9830   23.1220   37.5670 N   0  0  0  0  0  0  0  0  0  0  0  0
   38.0370   23.9820   34.9350 H   0  0  0  0  0  0  0  0  0  0  0  0
   36.3880   24.0150   36.6760 H   0  0  0  0  0  0  0  0  0  0  0  0
   39.4300   22.9040   39.4880 H   0  0  0  0  0  0  0  0  0  0  0  0
   41.2390   26.4440   34.4530 C   0  0  0  0  0  0  0  0  0  0  0  0
   41.6310   27.0300   33.5550 H   0  0  0  0  0  0  0  0  0  0  0  0
   41.7970   26.9200   35.3090 H   0  0  0  0  0  0  0  0  0  0  0  0
   39.7640   26.6270   32.0560 F   0  0  0  0  0  0  0  0  0  0  0  0
   39.1980   26.9110   33.2760 C   0  0  0  0  0  0  0  0  0  0  0  0
   39.8180   26.8530   34.5340 C   0  0  0  0  0  0  0  0  0  0  0  0
   39.0330   27.1860   35.6130 C   0  0  0  0  0  0  0  0  0  0  0  0
   39.5450   27.1390   36.5650 H   0  0  0  0  0  0  0  0  0  0  0  0
   37.7140   27.5600   35.5100 C   0  0  0  0  0  0  0  0  0  0  0  0
   37.1980   27.7980   36.4220 H   0  0  0  0  0  0  0  0  0  0  0  0
   37.1270   27.6080   34.2470 C   0  0  0  0  0  3  0  0  0  0  0  0
   37.8950   27.2760   33.1330 C   0  0  0  0  0  3  0  0  0  0  0  0
  1 17  1  0  0  0  0
  1  4  1  0  0  0  0
  2  1  1  0  0  0  0
  3  1  1  0  0  0  0
  4  5  1  0  0  0  0
  6  4  1  0  0  0  0
  7  4  1  0  0  0  0
  7  8  1  0  0  0  0
  8 13  1  0  0  0  0
  9  8  2  0  0  0  0
  9 10  1  0  0  0  0
 10 11  2  0  0  0  0
 11 12  1  0  0  0  0
 12 16  1  0  0  0  0
 13 12  2  0  0  0  0
 14  9  1  0  0  0  0
 15 10  1  0  0  0  0
 17 22  1  0  0  0  0
 17 19  1  0  0  0  0
 18 17  1  0  0  0  0
 20 21  1  0  0  0  0
 21 22  1  0  0  0  0
 22 23  2  0  0  0  0
 23 24  1  0  0  0  0
 25 23  1  0  0  0  0
 25 26  1  0  0  0  0
 27 25  2  0  0  0  0
 28 21  2  0  0  0  0
 28 27  1  0  0  0  0
M  END
>  <minimizedAffinity>
-4.37679815

$$$$

 OpenBabel03262521163D

 28 29  0  0  0  0  0  0  0  0999 V2000
   37.9370   23.3420   33.1070 C   0  0  0  0  0  0  0  0  0  0  0  0
   37.4570   23.0210   32.1490 H   0  0  0  0  0  0  0  0  0  0  0  0
   37.0270   23.6170   33.7270 H   0  0  0  0  0  0  0  0  0  0  0  0
   38.6290   22.3240   33.6680 C   0  0  0  0  0  0  0  0  0  0  0  0
   39.6620   22.5640   34.0190 H   0  0  0  0  0  0  0  0  0  0  0  0
   38.8110   21.4340   32.9900 H   0  0  0  0  0  0  0  0  0  0  0  0
   37.8190   22.0990   34.7460 O   0  0  0  0  0  0  0  0  0  0  0  0
   38.2420   22.5390   35.9770 C   0  0  0  0  0  0  0  0  0  0  0  0
   39.5600   22.2150   36.2860 C   0  0  0  0  0  0  0  0  0  0  0  0
   40.1100   22.5980   37.4930 C   0  0  0  0  0  0  0  0  0  0  0  0
   39.3100   23.2970   38.3520 N   0  0  0  0  0  0  0  0  0  0  0  0
   38.0230   23.6030   38.0340 C   0  0  0  0  0  0  0  0  0  0  0  0
   37.5230   23.2290   36.8790 N   0  0  0  0  0  0  0  0  0  0  0  0
   40.2530   21.6590   35.6420 H   0  0  0  0  0  0  0  0  0  0  0  0
   41.1270   22.3670   37.7600 H   0  0  0  0  0  0  0  0  0  0  0  0
   37.3300   24.1470   38.6580 H   0  0  0  0  0  0  0  0  0  0  0  0
   38.5710   24.6510   32.8100 C   0  0  0  0  0  0  0  0  0  0  0  0
   38.2450   25.0290   31.7830 H   0  0  0  0  0  0  0  0  0  0  0  0
   39.6930   24.6160   32.7040 H   0  0  0  0  0  0  0  0  0  0  0  0
   40.2450   25.1540   35.0230 F   0  0  0  0  0  0  0  0  0  0  0  0
   39.1260   25.9140   34.7770 C   0  0  0  0  0  0  0  0  0  0  0  0
   38.2200   25.7700   33.7140 C   0  0  0  0  0  0  0  0  0  0  0  0
   37.1720   26.6610   33.6860 C   0  0  0  0  0  0  0  0  0  0  0  0
   36.4890   26.5160   32.8590 H   0  0  0  0  0  0  0  0  0  0  0  0
   36.9860   27.6480   34.6240 C   0  0  0  0  0  0  0  0  0  0  0  0
   36.1310   28.2870   34.5010 H   0  0  0  0  0  0  0  0  0  0  0  0
   37.9020   27.7640   35.6670 C   0  0  0  0  0  3  0  0  0  0  0  0
   38.9760   26.8780   35.7240 C   0  0  0  0  0  3  0  0  0  0  0  0
  1  4  1  0  0  0  0
  1  3  1  0  0  0  0
  2  1  1  0  0  0  0
  4  5  1  0  0  0  0
  4  7  1  0  0  0  0
  6  4  1  0  0  0  0
  7  8  1  0  0  0  0
  8  9  2  0  0  0  0
  8 13  1  0  0  0  0
  9 10  1  0  0  0  0
 10 15  1  0  0  0  0
 10 11  2  0  0  0  0
 12 11  1  0  0  0  0
 12 16  1  0  0  0  0
 13 12  2  0  0  0  0
 14  9  1  0  0  0  0
 17  1  1  0  0  0  0
 17 22  1  0  0  0  0
 18 17  1  0  0  0  0
 19 17  1  0  0  0  0
 21 20  1  0  0  0  0
 21 28  1  0  0  0  0
 22 21  2  0  0  0  0
 23 22  1  0  0  0  0
 23 25  2  0  0  0  0
 24 23  1  0  0  0  0
 25 27  1  0  0  0  0
 26 25  1  0  0  0  0
 27 28  2  0  0  0  0
M  END
>  <minimizedAffinity>
-4.33591127

$$$$

 OpenBabel03262521163D

 28 29  0  0  0  0  0  0  0  0999 V2000
   35.6730   29.7880   33.1600 C   0  0  0  0  0  0  0  0  0  0  0  0
   36.4650   30.3310   33.7310 H   0  0  0  0  0  0  0  0  0  0  0  0
   35.2610   30.6220   32.5100 H   0  0  0  0  0  0  0  0  0  0  0  0
   36.2070   28.7950   32.4120 C   0  0  0  0  0  0  0  0  0  0  0  0
   37.2250   28.9870   31.9920 H   0  0  0  0  0  0  0  0  0  0  0  0
   35.6170   28.5200   31.4840 H   0  0  0  0  0  0  0  0  0  0  0  0
   36.2850   27.8320   33.3800 O   0  0  0  0  0  0  0  0  0  0  0  0
   37.5280   27.4850   33.8500 C   0  0  0  0  0  0  0  0  0  0  0  0
   37.6460   27.4930   35.2370 C   0  0  0  0  0  0  0  0  0  0  0  0
   38.8440   27.1640   35.8390 C   0  0  0  0  0  0  0  0  0  0  0  0
   39.8880   26.8360   35.0190 N   0  0  0  0  0  0  0  0  0  0  0  0
   39.7540   26.8340   33.6660 C   0  0  0  0  0  0  0  0  0  0  0  0
   38.6040   27.1510   33.1160 N   0  0  0  0  0  0  0  0  0  0  0  0
   36.8500   27.7460   35.9480 H   0  0  0  0  0  0  0  0  0  0  0  0
   38.9670   27.1570   36.9080 H   0  0  0  0  0  0  0  0  0  0  0  0
   40.5280   26.5900   32.9550 H   0  0  0  0  0  0  0  0  0  0  0  0
   34.5860   29.5340   34.1400 C   0  0  0  0  0  0  0  0  0  0  0  0
   34.7780   28.5620   34.7060 H   0  0  0  0  0  0  0  0  0  0  0  0
   33.5740   29.3440   33.6800 H   0  0  0  0  0  0  0  0  0  0  0  0
   32.0270   29.8880   35.2700 F   0  0  0  0  0  0  0  0  0  0  0  0
   33.1110   30.6190   35.6940 C   0  0  0  0  0  0  0  0  0  0  0  0
   34.4300   30.5340   35.2200 C   0  0  0  0  0  0  0  0  0  0  0  0
   35.3420   31.3780   35.8110 C   0  0  0  0  0  0  0  0  0  0  0  0
   36.3460   31.2930   35.4150 H   0  0  0  0  0  0  0  0  0  0  0  0
   35.0230   32.2670   36.8090 C   0  0  0  0  0  0  0  0  0  0  0  0
   35.8180   32.8770   37.1970 H   0  0  0  0  0  0  0  0  0  0  0  0
   33.7050   32.3280   37.2580 C   0  0  0  0  0  3  0  0  0  0  0  0
   32.7560   31.4860   36.6810 C   0  0  0  0  0  3  0  0  0  0  0  0
  1  2  1  0  0  0  0
  1 17  1  0  0  0  0
  3  1  1  0  0  0  0
  4  1  1  0  0  0  0
  4  7  1  0  0  0  0
  5  4  1  0  0  0  0
  6  4  1  0  0  0  0
  7  8  1  0  0  0  0
  8  9  1  0  0  0  0
  9 10  2  0  0  0  0
  9 14  1  0  0  0  0
 10 15  1  0  0  0  0
 11 10  1  0  0  0  0
 12 11  2  0  0  0  0
 13 12  1  0  0  0  0
 13  8  2  0  0  0  0
 16 12  1  0  0  0  0
 17 18  1  0  0  0  0
 17 22  1  0  0  0  0
 19 17  1  0  0  0  0
 20 21  1  0  0  0  0
 21 28  1  0  0  0  0
 22 21  2  0  0  0  0
 22 23  1  0  0  0  0
 23 25  2  0  0  0  0
 24 23  1  0  0  0  0
 25 26  1  0  0  0  0
 25 27  1  0  0  0  0
 28 27  2  0  0  0  0
M  END
>  <minimizedAffinity>
-4.33277464

$$$$

 OpenBabel03262521163D

 28 29  0  0  0  0  0  0  0  0999 V2000
   35.7460   30.3560   34.3050 C   0  0  0  0  0  0  0  0  0  0  0  0
   36.4090   30.9110   33.5970 H   0  0  0  0  0  0  0  0  0  0  0  0
   34.7520   30.8730   34.1240 H   0  0  0  0  0  0  0  0  0  0  0  0
   35.6860   29.0430   33.9870 C   0  0  0  0  0  0  0  0  0  0  0  0
   36.1160   28.7550   32.9960 H   0  0  0  0  0  0  0  0  0  0  0  0
   34.6410   28.6090   33.9260 H   0  0  0  0  0  0  0  0  0  0  0  0
   36.4790   28.5560   34.9890 O   0  0  0  0  0  0  0  0  0  0  0  0
   37.2880   27.4810   34.7100 C   0  0  0  0  0  0  0  0  0  0  0  0
   38.4650   27.4340   35.4520 C   0  0  0  0  0  0  0  0  0  0  0  0
   39.3670   26.4050   35.2680 C   0  0  0  0  0  0  0  0  0  0  0  0
   39.0510   25.4540   34.3390 N   0  0  0  0  0  0  0  0  0  0  0  0
   37.8970   25.5170   33.6230 C   0  0  0  0  0  0  0  0  0  0  0  0
   37.0540   26.5050   33.8160 N   0  0  0  0  0  0  0  0  0  0  0  0
   38.7770   28.1640   36.2100 H   0  0  0  0  0  0  0  0  0  0  0  0
   40.2840   26.3380   35.8280 H   0  0  0  0  0  0  0  0  0  0  0  0
   37.5790   24.8080   32.8730 H   0  0  0  0  0  0  0  0  0  0  0  0
   36.1430   30.8180   35.6590 C   0  0  0  0  0  0  0  0  0  0  0  0
   37.2230   31.1870   35.6550 H   0  0  0  0  0  0  0  0  0  0  0  0
   36.1730   30.0070   36.4420 H   0  0  0  0  0  0  0  0  0  0  0  0
   37.0260   33.4170   35.0130 F   0  0  0  0  0  0  0  0  0  0  0  0
   35.9320   33.2050   35.8180 C   0  0  0  0  0  0  0  0  0  0  0  0
   35.3910   31.9700   36.2070 C   0  0  0  0  0  0  0  0  0  0  0  0
   34.2840   32.0220   37.0220 C   0  0  0  0  0  0  0  0  0  0  0  0
   33.8990   31.0520   37.3100 H   0  0  0  0  0  0  0  0  0  0  0  0
   33.7090   33.1940   37.4530 C   0  0  0  0  0  0  0  0  0  0  0  0
   32.8460   33.1140   38.0880 H   0  0  0  0  0  0  0  0  0  0  0  0
   34.2700   34.4040   37.0500 C   0  0  0  0  0  3  0  0  0  0  0  0
   35.3920   34.3860   36.2230 C   0  0  0  0  0  3  0  0  0  0  0  0
  1 17  1  0  0  0  0
  2  1  1  0  0  0  0
  3  1  1  0  0  0  0
  4  1  1  0  0  0  0
  4  7  1  0  0  0  0
  5  4  1  0  0  0  0
  6  4  1  0  0  0  0
  8  7  1  0  0  0  0
  8  9  1  0  0  0  0
  9 14  1  0  0  0  0
 10  9  2  0  0  0  0
 10 15  1  0  0  0  0
 11 10  1  0  0  0  0
 12 13  1  0  0  0  0
 12 11  2  0  0  0  0
 13  8  2  0  0  0  0
 16 12  1  0  0  0  0
 17 22  1  0  0  0  0
 17 19  1  0  0  0  0
 18 17  1  0  0  0  0
 20 21  1  0  0  0  0
 21 22  2  0  0  0  0
 21 28  1  0  0  0  0
 22 23  1  0  0  0  0
 23 24  1  0  0  0  0
 23 25  2  0  0  0  0
 25 26  1  0  0  0  0
 27 25  1  0  0  0  0
 28 27  2  0  0  0  0
M  END
>  <minimizedAffinity>
-4.30858469

$$$$

 OpenBabel03262521163D

 28 29  0  0  0  0  0  0  0  0999 V2000
   38.0690   27.5150   35.0220 C   0  0  0  0  0  0  0  0  0  0  0  0
   38.9330   27.4010   34.3220 H   0  0  0  0  0  0  0  0  0  0  0  0
   38.1580   28.6110   35.3050 H   0  0  0  0  0  0  0  0  0  0  0  0
   36.8980   27.2600   34.3940 C   0  0  0  0  0  0  0  0  0  0  0  0
   36.1890   28.1180   34.3040 H   0  0  0  0  0  0  0  0  0  0  0  0
   36.2500   26.4700   34.8850 H   0  0  0  0  0  0  0  0  0  0  0  0
   37.3950   26.9430   33.1600 O   0  0  0  0  0  0  0  0  0  0  0  0
   36.7490   25.9750   32.4310 C   0  0  0  0  0  0  0  0  0  0  0  0
   37.2260   24.6820   32.6340 C   0  0  0  0  0  0  0  0  0  0  0  0
   36.6650   23.6160   31.9620 C   0  0  0  0  0  0  0  0  0  0  0  0
   35.6360   23.8880   31.1030 N   0  0  0  0  0  0  0  0  0  0  0  0
   35.1840   25.1570   30.9170 C   0  0  0  0  0  0  0  0  0  0  0  0
   35.7340   26.1550   31.5680 N   0  0  0  0  0  0  0  0  0  0  0  0
   38.0450   24.3980   33.3070 H   0  0  0  0  0  0  0  0  0  0  0  0
   37.0070   22.6050   32.0990 H   0  0  0  0  0  0  0  0  0  0  0  0
   34.3820   25.4510   30.2570 H   0  0  0  0  0  0  0  0  0  0  0  0
   38.4680   26.7970   36.2590 C   0  0  0  0  0  0  0  0  0  0  0  0
   37.7270   27.0090   37.1010 H   0  0  0  0  0  0  0  0  0  0  0  0
   39.4420   27.1440   36.7090 H   0  0  0  0  0  0  0  0  0  0  0  0
   40.5680   25.5610   34.8390 F   0  0  0  0  0  0  0  0  0  0  0  0
   39.5760   24.8270   35.4470 C   0  0  0  0  0  0  0  0  0  0  0  0
   38.4870   25.3190   36.1840 C   0  0  0  0  0  0  0  0  0  0  0  0
   37.6260   24.3760   36.6960 C   0  0  0  0  0  0  0  0  0  0  0  0
   36.7940   24.7900   37.2500 H   0  0  0  0  0  0  0  0  0  0  0  0
   37.7870   23.0220   36.5210 C   0  0  0  0  0  0  0  0  0  0  0  0
   37.0510   22.3780   36.9670 H   0  0  0  0  0  0  0  0  0  0  0  0
   38.8780   22.5660   35.7840 C   0  0  0  0  0  3  0  0  0  0  0  0
   39.7690   23.4950   35.2520 C   0  0  0  0  0  3  0  0  0  0  0  0
  1  3  1  0  0  0  0
  1 17  1  0  0  0  0
  2  1  1  0  0  0  0
  4  6  1  0  0  0  0
  4  1  1  0  0  0  0
  5  4  1  0  0  0  0
  7  4  1  0  0  0  0
  8  9  1  0  0  0  0
  8  7  1  0  0  0  0
  9 14  1  0  0  0  0
 10 15  1  0  0  0  0
 10  9  2  0  0  0  0
 11 10  1  0  0  0  0
 12 11  2  0  0  0  0
 12 13  1  0  0  0  0
 13  8  2  0  0  0  0
 16 12  1  0  0  0  0
 17 19  1  0  0  0  0
 17 18  1  0  0  0  0
 20 21  1  0  0  0  0
 21 22  1  0  0  0  0
 22 17  1  0  0  0  0
 22 23  2  0  0  0  0
 23 24  1  0  0  0  0
 25 23  1  0  0  0  0
 25 26  1  0  0  0  0
 27 25  2  0  0  0  0
 28 21  2  0  0  0  0
 28 27  1  0  0  0  0
M  END
>  <minimizedAffinity>
-4.3006978

$$$$
