
 OpenBabel03272510303D

 28 30  0  0  0  0  0  0  0  0999 V2000
   37.2900   31.3660   49.2770 C   0  0  0  0  0  0  0  0  0  0  0  0
   37.5680   32.6680   49.7040 C   0  0  0  0  0  0  0  0  0  0  0  0
   38.4570   33.3690   48.9360 C   0  0  0  0  0  0  0  0  0  0  0  0
   39.0210   32.7940   47.8210 N   0  0  0  0  0  0  0  0  0  0  0  0
   38.7180   31.5270   47.4480 C   0  0  0  0  0  0  0  0  0  0  0  0
   37.8310   30.7840   48.1870 N   0  0  0  0  0  0  0  0  0  0  0  0
   37.0970   33.0500   50.5750 H   0  0  0  0  0  0  0  0  0  0  0  0
   38.7300   34.3900   49.2000 H   0  0  0  0  0  0  0  0  0  0  0  0
   36.2950   30.5600   50.0710 C   0  0  0  0  0  0  0  0  0  0  0  0
   36.2040   29.1240   49.9990 C   0  0  0  0  0  0  0  0  0  0  0  0
   36.9640   29.7210   51.1700 C   0  0  0  0  0  0  0  0  0  0  0  0
   35.4480   31.1940   50.4140 H   0  0  0  0  0  0  0  0  0  0  0  0
   35.2190   28.6520   50.1970 H   0  0  0  0  0  0  0  0  0  0  0  0
   36.8410   28.5280   49.3210 H   0  0  0  0  0  0  0  0  0  0  0  0
   38.0590   29.6490   51.1920 H   0  0  0  0  0  0  0  0  0  0  0  0
   36.4060   29.7110   52.1100 H   0  0  0  0  0  0  0  0  0  0  0  0
   39.2890   30.9050   46.2600 C   0  0  0  0  0  0  0  0  0  0  0  0
   38.8880   29.8580   46.1330 H   0  0  0  0  0  0  0  0  0  0  0  0
   40.3910   30.7520   46.3220 H   0  0  0  0  0  0  0  0  0  0  0  0
   41.1420   32.4140   44.6840 F   0  0  0  0  0  0  0  0  0  0  0  0
   39.8610   32.3650   44.2490 C   0  0  0  0  0  0  0  0  0  0  0  0
   38.9710   31.6400   45.0070 C   0  0  0  0  0  0  0  0  0  0  0  0
   37.6500   31.5940   44.5490 C   0  0  0  0  0  0  0  0  0  0  0  0
   36.9080   31.0250   45.1270 H   0  0  0  0  0  0  0  0  0  0  0  0
   37.2060   32.2170   43.4150 C   0  0  0  0  0  0  0  0  0  0  0  0
   36.1700   32.1420   43.1180 H   0  0  0  0  0  0  0  0  0  0  0  0
   38.1120   32.9510   42.6510 C   0  0  0  0  0  3  0  0  0  0  0  0
   39.4060   32.9920   43.1040 C   0  0  0  0  0  3  0  0  0  0  0  0
  1  2  1  0  0  0  0
  1  9  1  0  0  0  0
  2  7  1  0  0  0  0
  3  8  1  0  0  0  0
  3  2  2  0  0  0  0
  4  3  1  0  0  0  0
  5  4  2  0  0  0  0
  5  6  1  0  0  0  0
  6  1  2  0  0  0  0
  9 12  1  0  0  0  0
  9 11  1  0  0  0  0
 10  9  1  0  0  0  0
 10 13  1  0  0  0  0
 10 11  1  0  0  0  0
 11 15  1  0  0  0  0
 11 16  1  0  0  0  0
 14 10  1  0  0  0  0
 17 19  1  0  0  0  0
 17  5  1  0  0  0  0
 18 17  1  0  0  0  0
 21 20  1  0  0  0  0
 21 22  1  0  0  0  0
 22 17  1  0  0  0  0
 23 22  2  0  0  0  0
 23 24  1  0  0  0  0
 25 23  1  0  0  0  0
 26 25  1  0  0  0  0
 27 28  1  0  0  0  0
 27 25  2  0  0  0  0
 28 21  2  0  0  0  0
M  END
>  <minimizedAffinity>
-5.7651906

>  <minimizedRMSD>
1.34207141

$$$$
