
 OpenBabel03272510303D

 28 30  0  0  0  0  0  0  0  0999 V2000
   37.3410   31.4000   49.3010 C   0  0  0  0  0  0  0  0  0  0  0  0
   37.6120   32.7030   49.7310 C   0  0  0  0  0  0  0  0  0  0  0  0
   38.4940   33.4110   48.9610 C   0  0  0  0  0  0  0  0  0  0  0  0
   39.0560   32.8430   47.8410 N   0  0  0  0  0  0  0  0  0  0  0  0
   38.7590   31.5760   47.4650 C   0  0  0  0  0  0  0  0  0  0  0  0
   37.8810   30.8250   48.2070 N   0  0  0  0  0  0  0  0  0  0  0  0
   37.1430   33.0790   50.6050 H   0  0  0  0  0  0  0  0  0  0  0  0
   38.7620   34.4340   49.2260 H   0  0  0  0  0  0  0  0  0  0  0  0
   36.3540   30.5860   50.0970 C   0  0  0  0  0  0  0  0  0  0  0  0
   36.2900   29.1480   50.0420 C   0  0  0  0  0  0  0  0  0  0  0  0
   37.0300   29.7720   51.2110 C   0  0  0  0  0  0  0  0  0  0  0  0
   35.4930   31.2080   50.4260 H   0  0  0  0  0  0  0  0  0  0  0  0
   35.3130   28.6600   50.2390 H   0  0  0  0  0  0  0  0  0  0  0  0
   36.9430   28.5550   49.3760 H   0  0  0  0  0  0  0  0  0  0  0  0
   38.1270   29.7210   51.2420 H   0  0  0  0  0  0  0  0  0  0  0  0
   36.4650   29.7630   52.1470 H   0  0  0  0  0  0  0  0  0  0  0  0
   39.3280   30.9600   46.2730 C   0  0  0  0  0  0  0  0  0  0  0  0
   39.0330   29.8740   46.2130 H   0  0  0  0  0  0  0  0  0  0  0  0
   40.4420   30.9250   46.2770 H   0  0  0  0  0  0  0  0  0  0  0  0
   36.6880   30.8070   45.1800 F   0  0  0  0  0  0  0  0  0  0  0  0
   37.6000   31.5270   44.4850 C   0  0  0  0  0  0  0  0  0  0  0  0
   38.8690   31.5990   45.0120 C   0  0  0  0  0  0  0  0  0  0  0  0
   39.8060   32.3440   44.2870 C   0  0  0  0  0  0  0  0  0  0  0  0
   40.8320   32.4270   44.6740 H   0  0  0  0  0  0  0  0  0  0  0  0
   39.5340   32.9910   43.1110 C   0  0  0  0  0  0  0  0  0  0  0  0
   40.3050   33.5500   42.6020 H   0  0  0  0  0  0  0  0  0  0  0  0
   38.2460   32.9130   42.5830 C   0  0  0  0  0  3  0  0  0  0  0  0
   37.3320   32.1810   43.2970 C   0  0  0  0  0  3  0  0  0  0  0  0
  1  2  1  0  0  0  0
  1  9  1  0  0  0  0
  2  7  1  0  0  0  0
  3  8  1  0  0  0  0
  3  2  2  0  0  0  0
  4  3  1  0  0  0  0
  5  4  2  0  0  0  0
  5  6  1  0  0  0  0
  6  1  2  0  0  0  0
  9 12  1  0  0  0  0
  9 11  1  0  0  0  0
 10  9  1  0  0  0  0
 10 13  1  0  0  0  0
 10 11  1  0  0  0  0
 11 15  1  0  0  0  0
 11 16  1  0  0  0  0
 14 10  1  0  0  0  0
 17 19  1  0  0  0  0
 17  5  1  0  0  0  0
 18 17  1  0  0  0  0
 21 22  1  0  0  0  0
 21 20  1  0  0  0  0
 22 17  1  0  0  0  0
 23 24  1  0  0  0  0
 23 22  2  0  0  0  0
 25 23  1  0  0  0  0
 26 25  1  0  0  0  0
 27 25  2  0  0  0  0
 27 28  1  0  0  0  0
 28 21  2  0  0  0  0
M  END
>  <minimizedAffinity>
-5.53952169

>  <minimizedRMSD>
0.975612938

$$$$
