
 OpenBabel03272510053D

 37 39  0  0  0  0  0  0  0  0999 V2000
   39.0770   26.6660   33.8430 C   0  0  0  0  0  0  0  0  0  0  0  0
   38.9520   26.1900   32.5740 C   0  0  0  0  0  0  0  0  0  0  0  0
   40.0360   26.2490   31.7070 C   0  0  0  0  0  0  0  0  0  0  0  0
   41.2540   26.7790   32.0710 C   0  0  0  0  0  0  0  0  0  0  0  0
   41.4160   27.2730   33.3420 C   0  0  0  0  0  0  0  0  0  0  0  0
   40.3280   27.1990   34.1770 C   0  0  0  0  0  0  0  0  0  0  0  0
   39.9010   25.8530   30.6870 H   0  0  0  0  0  0  0  0  0  0  0  0
   42.0170   26.7740   31.3310 H   0  0  0  0  0  0  0  0  0  0  0  0
   42.3800   27.6810   33.5910 H   0  0  0  0  0  0  0  0  0  0  0  0
   40.5800   27.6260   35.1560 H   0  0  0  0  0  0  0  0  0  0  0  0
   35.6320   26.0220   31.0000 C   0  0  0  0  0  0  0  0  0  0  0  0
   36.8500   26.4950   31.4680 C   0  0  0  0  0  0  0  0  0  0  0  0
   37.7180   25.6630   32.0970 C   0  0  0  0  0  0  0  0  0  0  0  0
   37.3400   24.3610   32.2350 N   0  0  0  0  0  0  0  0  0  0  0  0
   36.1700   23.8950   31.7830 C   0  0  0  0  0  0  0  0  0  0  0  0
   35.3240   24.7310   31.1710 N   0  0  0  0  0  0  0  0  0  0  0  0
   34.8390   26.5410   30.4900 H   0  0  0  0  0  0  0  0  0  0  0  0
   36.8580   27.5170   31.1760 H   0  0  0  0  0  0  0  0  0  0  0  0
   35.9170   22.4390   31.9430 C   0  0  0  0  0  0  0  0  0  0  0  0
   36.2760   21.7250   30.8180 F   0  0  0  0  0  0  0  0  0  0  0  0
   36.8330   21.9240   32.9390 F   0  0  0  0  0  0  0  0  0  0  0  0
   34.7390   22.0770   32.3960 F   0  0  0  0  0  0  0  0  0  0  0  0
   37.8320   26.6060   35.0220 S   0  0  0  0  0  0  0  0  0  0  0  0
   36.9160   27.7700   34.8970 O   0  0  0  0  0  0  0  0  0  0  0  0
   38.6140   27.1360   36.2030 O   0  0  0  0  0  0  0  0  0  0  0  0
   37.3760   25.3150   36.0150 C   0  0  0  0  0  0  0  0  0  0  0  0
   36.4130   24.8530   35.7290 H   0  0  0  0  0  0  0  0  0  0  0  0
   37.0390   25.8160   37.0080 H   0  0  0  0  0  0  0  0  0  0  0  0
   37.6480   24.4930   38.7700 F   0  0  0  0  0  0  0  0  0  0  0  0
   38.4610   23.9980   37.8050 C   0  0  0  0  0  0  0  0  0  0  0  0
   38.3740   24.3730   36.4690 C   0  0  0  0  0  0  0  0  0  0  0  0
   39.3200   23.7410   35.6470 C   0  0  0  0  0  0  0  0  0  0  0  0
   39.2830   24.0110   34.5880 H   0  0  0  0  0  0  0  0  0  0  0  0
   40.2440   22.8430   36.1010 C   0  0  0  0  0  0  0  0  0  0  0  0
   40.9380   22.4090   35.3640 H   0  0  0  0  0  0  0  0  0  0  0  0
   40.2800   22.5120   37.4350 C   0  0  0  0  0  3  0  0  0  0  0  0
   39.3760   23.1030   38.2760 C   0  0  0  0  0  3  0  0  0  0  0  0
  1  6  1  0  0  0  0
  1 23  1  0  0  0  0
  2  1  2  0  0  0  0
  3  4  2  0  0  0  0
  3  2  1  0  0  0  0
  4  5  1  0  0  0  0
  5  9  1  0  0  0  0
  5  6  2  0  0  0  0
  6 10  1  0  0  0  0
  7  3  1  0  0  0  0
  8  4  1  0  0  0  0
 11 16  2  0  0  0  0
 11 12  1  0  0  0  0
 12 13  2  0  0  0  0
 13 14  1  0  0  0  0
 13  2  1  0  0  0  0
 15 19  1  0  0  0  0
 15 14  2  0  0  0  0
 16 15  1  0  0  0  0
 17 11  1  0  0  0  0
 18 12  1  0  0  0  0
 19 22  1  0  0  0  0
 19 21  1  0  0  0  0
 20 19  1  0  0  0  0
 23 26  1  0  0  0  0
 23 25  2  0  0  0  0
 24 23  2  0  0  0  0
 26 31  1  0  0  0  0
 26 28  1  0  0  0  0
 27 26  1  0  0  0  0
 30 37  1  0  0  0  0
 30 29  1  0  0  0  0
 31 30  2  0  0  0  0
 32 34  2  0  0  0  0
 32 31  1  0  0  0  0
 33 32  1  0  0  0  0
 34 36  1  0  0  0  0
 35 34  1  0  0  0  0
 36 37  2  0  0  0  0
M  END
>  <minimizedAffinity>
-6.43160772

$$$$

 OpenBabel03272510053D

 37 39  0  0  0  0  0  0  0  0999 V2000
   37.8750   25.0650   34.0450 C   0  0  0  0  0  0  0  0  0  0  0  0
   38.1330   25.4390   35.3280 C   0  0  0  0  0  0  0  0  0  0  0  0
   37.9380   26.7600   35.7120 C   0  0  0  0  0  0  0  0  0  0  0  0
   37.4900   27.7300   34.8440 C   0  0  0  0  0  0  0  0  0  0  0  0
   37.2230   27.3910   33.5400 C   0  0  0  0  0  0  0  0  0  0  0  0
   37.4240   26.0780   33.1910 C   0  0  0  0  0  0  0  0  0  0  0  0
   38.1550   27.0290   36.7600 H   0  0  0  0  0  0  0  0  0  0  0  0
   37.3720   28.7100   35.2410 H   0  0  0  0  0  0  0  0  0  0  0  0
   36.8770   28.1750   32.8890 H   0  0  0  0  0  0  0  0  0  0  0  0
   37.1820   25.9330   32.1290 H   0  0  0  0  0  0  0  0  0  0  0  0
   38.3930   23.4040   38.3810 C   0  0  0  0  0  0  0  0  0  0  0  0
   37.9280   24.2900   37.4190 C   0  0  0  0  0  0  0  0  0  0  0  0
   38.6390   24.5130   36.2850 C   0  0  0  0  0  0  0  0  0  0  0  0
   39.8090   23.8300   36.1410 N   0  0  0  0  0  0  0  0  0  0  0  0
   40.2630   22.9710   37.0610 C   0  0  0  0  0  0  0  0  0  0  0  0
   39.5520   22.7670   38.1750 N   0  0  0  0  0  0  0  0  0  0  0  0
   37.9610   23.1190   39.3240 H   0  0  0  0  0  0  0  0  0  0  0  0
   36.9940   24.6200   37.8040 H   0  0  0  0  0  0  0  0  0  0  0  0
   41.5200   22.2440   36.7420 C   0  0  0  0  0  0  0  0  0  0  0  0
   42.6320   23.0470   36.8830 F   0  0  0  0  0  0  0  0  0  0  0  0
   41.7350   21.2380   37.7620 F   0  0  0  0  0  0  0  0  0  0  0  0
   41.5530   21.5560   35.6240 F   0  0  0  0  0  0  0  0  0  0  0  0
   38.0290   23.4590   33.4600 S   0  0  0  0  0  0  0  0  0  0  0  0
   39.1450   23.3480   32.4850 O   0  0  0  0  0  0  0  0  0  0  0  0
   36.9170   23.4840   32.4370 O   0  0  0  0  0  0  0  0  0  0  0  0
   37.3270   22.0420   34.0600 C   0  0  0  0  0  0  0  0  0  0  0  0
   36.7370   22.1950   34.9810 H   0  0  0  0  0  0  0  0  0  0  0  0
   38.2150   21.4500   34.5200 H   0  0  0  0  0  0  0  0  0  0  0  0
   38.9170   20.2510   32.4470 F   0  0  0  0  0  0  0  0  0  0  0  0
   37.5630   20.2310   32.3930 C   0  0  0  0  0  0  0  0  0  0  0  0
   36.7580   21.0810   33.1420 C   0  0  0  0  0  0  0  0  0  0  0  0
   35.3850   20.8900   32.9230 C   0  0  0  0  0  0  0  0  0  0  0  0
   34.7180   21.5420   33.4950 H   0  0  0  0  0  0  0  0  0  0  0  0
   34.8730   19.9640   32.0600 C   0  0  0  0  0  0  0  0  0  0  0  0
   33.7770   19.9030   31.9680 H   0  0  0  0  0  0  0  0  0  0  0  0
   35.7220   19.1510   31.3460 C   0  0  0  0  0  3  0  0  0  0  0  0
   37.0700   19.2990   31.5270 C   0  0  0  0  0  3  0  0  0  0  0  0
  1  2  1  0  0  0  0
  2  3  2  0  0  0  0
  2 13  1  0  0  0  0
  3  7  1  0  0  0  0
  4  8  1  0  0  0  0
  4  3  1  0  0  0  0
  5  4  2  0  0  0  0
  6  5  1  0  0  0  0
  6  1  2  0  0  0  0
  9  5  1  0  0  0  0
 10  6  1  0  0  0  0
 11 17  1  0  0  0  0
 12 18  1  0  0  0  0
 12 11  2  0  0  0  0
 13 12  1  0  0  0  0
 14 13  2  0  0  0  0
 14 15  1  0  0  0  0
 15 16  2  0  0  0  0
 16 11  1  0  0  0  0
 19 20  1  0  0  0  0
 19 15  1  0  0  0  0
 19 21  1  0  0  0  0
 22 19  1  0  0  0  0
 23  1  1  0  0  0  0
 23 26  1  0  0  0  0
 24 23  2  0  0  0  0
 25 23  2  0  0  0  0
 26 28  1  0  0  0  0
 26 27  1  0  0  0  0
 30 29  1  0  0  0  0
 30 31  1  0  0  0  0
 31 26  1  0  0  0  0
 32 31  2  0  0  0  0
 32 33  1  0  0  0  0
 34 32  1  0  0  0  0
 35 34  1  0  0  0  0
 36 37  1  0  0  0  0
 36 34  2  0  0  0  0
 37 30  2  0  0  0  0
M  END
>  <minimizedAffinity>
-6.34666681

$$$$

 OpenBabel03272510053D

 37 39  0  0  0  0  0  0  0  0999 V2000
   36.8130   25.7610   32.3910 C   0  0  0  0  0  0  0  0  0  0  0  0
   37.3660   26.2180   33.5480 C   0  0  0  0  0  0  0  0  0  0  0  0
   37.1190   27.5220   33.9600 C   0  0  0  0  0  0  0  0  0  0  0  0
   36.3320   28.3940   33.2410 C   0  0  0  0  0  0  0  0  0  0  0  0
   35.7600   27.9690   32.0670 C   0  0  0  0  0  0  0  0  0  0  0  0
   36.0200   26.6750   31.6880 C   0  0  0  0  0  0  0  0  0  0  0  0
   37.5810   27.8600   34.9020 H   0  0  0  0  0  0  0  0  0  0  0  0
   36.2060   29.3690   33.6470 H   0  0  0  0  0  0  0  0  0  0  0  0
   35.1530   28.6770   31.5320 H   0  0  0  0  0  0  0  0  0  0  0  0
   35.5150   26.4560   30.7370 H   0  0  0  0  0  0  0  0  0  0  0  0
   40.3540   24.3610   34.6220 C   0  0  0  0  0  0  0  0  0  0  0  0
   39.4880   25.1630   33.8910 C   0  0  0  0  0  0  0  0  0  0  0  0
   38.2280   25.4000   34.3340 C   0  0  0  0  0  0  0  0  0  0  0  0
   37.8660   24.8260   35.5150 N   0  0  0  0  0  0  0  0  0  0  0  0
   38.6950   24.0560   36.2290 C   0  0  0  0  0  0  0  0  0  0  0  0
   39.9320   23.8270   35.7750 N   0  0  0  0  0  0  0  0  0  0  0  0
   41.3690   24.0730   34.4140 H   0  0  0  0  0  0  0  0  0  0  0  0
   40.0710   25.4800   33.0610 H   0  0  0  0  0  0  0  0  0  0  0  0
   38.1910   23.5490   37.5330 C   0  0  0  0  0  0  0  0  0  0  0  0
   39.1990   23.0050   38.3010 F   0  0  0  0  0  0  0  0  0  0  0  0
   37.7740   24.6840   38.3310 F   0  0  0  0  0  0  0  0  0  0  0  0
   37.1250   22.7830   37.5110 F   0  0  0  0  0  0  0  0  0  0  0  0
   37.0000   24.1600   31.8010 S   0  0  0  0  0  0  0  0  0  0  0  0
   37.5770   24.1570   30.4310 O   0  0  0  0  0  0  0  0  0  0  0  0
   35.5700   23.9060   31.3790 O   0  0  0  0  0  0  0  0  0  0  0  0
   36.9160   22.7010   32.6520 C   0  0  0  0  0  0  0  0  0  0  0  0
   36.3260   22.7640   33.5840 H   0  0  0  0  0  0  0  0  0  0  0  0
   37.9710   22.5770   33.1230 H   0  0  0  0  0  0  0  0  0  0  0  0
   34.7790   20.8300   33.1720 F   0  0  0  0  0  0  0  0  0  0  0  0
   35.7020   20.5920   32.2080 C   0  0  0  0  0  0  0  0  0  0  0  0
   36.7530   21.4590   31.9300 C   0  0  0  0  0  0  0  0  0  0  0  0
   37.5920   21.0090   30.8990 C   0  0  0  0  0  0  0  0  0  0  0  0
   38.4320   21.6650   30.6510 H   0  0  0  0  0  0  0  0  0  0  0  0
   37.4070   19.8370   30.2230 C   0  0  0  0  0  0  0  0  0  0  0  0
   38.1290   19.5850   29.4310 H   0  0  0  0  0  0  0  0  0  0  0  0
   36.3470   19.0210   30.5440 C   0  0  0  0  0  3  0  0  0  0  0  0
   35.5020   19.4180   31.5440 C   0  0  0  0  0  3  0  0  0  0  0  0
  1  2  1  0  0  0  0
  2  3  2  0  0  0  0
  2 13  1  0  0  0  0
  3  7  1  0  0  0  0
  4  8  1  0  0  0  0
  4  3  1  0  0  0  0
  5  4  2  0  0  0  0
  6  5  1  0  0  0  0
  6  1  2  0  0  0  0
  9  5  1  0  0  0  0
 10  6  1  0  0  0  0
 11 16  1  0  0  0  0
 12 13  1  0  0  0  0
 12 11  2  0  0  0  0
 13 14  2  0  0  0  0
 14 15  1  0  0  0  0
 15 19  1  0  0  0  0
 16 15  2  0  0  0  0
 17 11  1  0  0  0  0
 18 12  1  0  0  0  0
 19 20  1  0  0  0  0
 19 21  1  0  0  0  0
 22 19  1  0  0  0  0
 23  1  1  0  0  0  0
 23 26  1  0  0  0  0
 24 23  2  0  0  0  0
 25 23  2  0  0  0  0
 26 28  1  0  0  0  0
 26 27  1  0  0  0  0
 30 29  1  0  0  0  0
 31 30  1  0  0  0  0
 31 26  1  0  0  0  0
 32 31  2  0  0  0  0
 33 32  1  0  0  0  0
 34 36  2  0  0  0  0
 34 32  1  0  0  0  0
 35 34  1  0  0  0  0
 36 37  1  0  0  0  0
 37 30  2  0  0  0  0
M  END
>  <minimizedAffinity>
-6.33621931

$$$$

 OpenBabel03272510053D

 37 39  0  0  0  0  0  0  0  0999 V2000
   36.9710   27.4760   33.9950 C   0  0  0  0  0  0  0  0  0  0  0  0
   36.6010   27.2310   32.7080 C   0  0  0  0  0  0  0  0  0  0  0  0
   35.7500   28.1140   32.0570 C   0  0  0  0  0  0  0  0  0  0  0  0
   35.2480   29.2470   32.6590 C   0  0  0  0  0  0  0  0  0  0  0  0
   35.5960   29.5250   33.9580 C   0  0  0  0  0  0  0  0  0  0  0  0
   36.4400   28.6340   34.5750 C   0  0  0  0  0  0  0  0  0  0  0  0
   35.4720   27.8870   31.0140 H   0  0  0  0  0  0  0  0  0  0  0  0
   34.6060   29.8570   32.0700 H   0  0  0  0  0  0  0  0  0  0  0  0
   35.1840   30.4160   34.3970 H   0  0  0  0  0  0  0  0  0  0  0  0
   36.6400   28.9610   35.6040 H   0  0  0  0  0  0  0  0  0  0  0  0
   38.5310   25.0490   30.4610 C   0  0  0  0  0  0  0  0  0  0  0  0
   38.0840   26.1620   31.1600 C   0  0  0  0  0  0  0  0  0  0  0  0
   37.0380   26.0630   32.0190 C   0  0  0  0  0  0  0  0  0  0  0  0
   36.4640   24.8350   32.1590 N   0  0  0  0  0  0  0  0  0  0  0  0
   36.8910   23.7570   31.4930 C   0  0  0  0  0  0  0  0  0  0  0  0
   37.9200   23.8730   30.6470 N   0  0  0  0  0  0  0  0  0  0  0  0
   39.3330   24.9580   29.7500 H   0  0  0  0  0  0  0  0  0  0  0  0
   38.7490   26.9360   30.8650 H   0  0  0  0  0  0  0  0  0  0  0  0
   36.2160   22.4660   31.7940 C   0  0  0  0  0  0  0  0  0  0  0  0
   36.5040   21.5000   30.8530 F   0  0  0  0  0  0  0  0  0  0  0  0
   36.8070   21.9130   32.9950 F   0  0  0  0  0  0  0  0  0  0  0  0
   34.9340   22.5080   32.0760 F   0  0  0  0  0  0  0  0  0  0  0  0
   38.0530   26.4910   34.8910 S   0  0  0  0  0  0  0  0  0  0  0  0
   38.3390   27.0810   36.2250 O   0  0  0  0  0  0  0  0  0  0  0  0
   39.3460   26.9230   34.2380 O   0  0  0  0  0  0  0  0  0  0  0  0
   38.5340   24.8980   34.5870 C   0  0  0  0  0  0  0  0  0  0  0  0
   38.9420   24.7440   33.5710 H   0  0  0  0  0  0  0  0  0  0  0  0
   37.5380   24.3120   34.4640 H   0  0  0  0  0  0  0  0  0  0  0  0
   37.2640   24.0800   37.0470 F   0  0  0  0  0  0  0  0  0  0  0  0
   38.5550   23.7630   36.7840 C   0  0  0  0  0  0  0  0  0  0  0  0
   39.2100   24.1440   35.6190 C   0  0  0  0  0  0  0  0  0  0  0  0
   40.5450   23.7140   35.5600 C   0  0  0  0  0  0  0  0  0  0  0  0
   41.0950   23.9950   34.6570 H   0  0  0  0  0  0  0  0  0  0  0  0
   41.1550   22.9900   36.5440 C   0  0  0  0  0  0  0  0  0  0  0  0
   42.2080   22.7060   36.3900 H   0  0  0  0  0  0  0  0  0  0  0  0
   40.4530   22.6420   37.6740 C   0  0  0  0  0  3  0  0  0  0  0  0
   39.1480   23.0400   37.7770 C   0  0  0  0  0  3  0  0  0  0  0  0
  1  6  1  0  0  0  0
  1 23  1  0  0  0  0
  2  1  2  0  0  0  0
  3  4  2  0  0  0  0
  3  2  1  0  0  0  0
  4  5  1  0  0  0  0
  5  9  1  0  0  0  0
  5  6  2  0  0  0  0
  6 10  1  0  0  0  0
  7  3  1  0  0  0  0
  8  4  1  0  0  0  0
 11 16  2  0  0  0  0
 11 12  1  0  0  0  0
 12 13  2  0  0  0  0
 13 14  1  0  0  0  0
 13  2  1  0  0  0  0
 15 19  1  0  0  0  0
 15 14  2  0  0  0  0
 16 15  1  0  0  0  0
 17 11  1  0  0  0  0
 18 12  1  0  0  0  0
 19 22  1  0  0  0  0
 19 21  1  0  0  0  0
 20 19  1  0  0  0  0
 23 24  2  0  0  0  0
 25 23  2  0  0  0  0
 26 23  1  0  0  0  0
 26 31  1  0  0  0  0
 27 26  1  0  0  0  0
 28 26  1  0  0  0  0
 30 29  1  0  0  0  0
 30 37  1  0  0  0  0
 31 30  2  0  0  0  0
 32 31  1  0  0  0  0
 32 34  2  0  0  0  0
 33 32  1  0  0  0  0
 34 36  1  0  0  0  0
 35 34  1  0  0  0  0
 36 37  2  0  0  0  0
M  END
>  <minimizedAffinity>
-6.30178976

$$$$

 OpenBabel03272510053D

 37 39  0  0  0  0  0  0  0  0999 V2000
   38.3410   24.8740   35.8340 C   0  0  0  0  0  0  0  0  0  0  0  0
   38.3050   24.6690   34.4880 C   0  0  0  0  0  0  0  0  0  0  0  0
   38.2240   25.7580   33.6290 C   0  0  0  0  0  0  0  0  0  0  0  0
   38.1740   27.0590   34.0780 C   0  0  0  0  0  0  0  0  0  0  0  0
   38.2040   27.3040   35.4280 C   0  0  0  0  0  0  0  0  0  0  0  0
   38.2870   26.2080   36.2520 C   0  0  0  0  0  0  0  0  0  0  0  0
   38.1980   25.5570   32.5450 H   0  0  0  0  0  0  0  0  0  0  0  0
   38.1150   27.8180   33.3350 H   0  0  0  0  0  0  0  0  0  0  0  0
   38.1620   28.3320   35.7420 H   0  0  0  0  0  0  0  0  0  0  0  0
   38.2990   26.5310   37.3020 H   0  0  0  0  0  0  0  0  0  0  0  0
   39.5230   21.5710   32.9240 C   0  0  0  0  0  0  0  0  0  0  0  0
   39.4800   22.8420   33.4800 C   0  0  0  0  0  0  0  0  0  0  0  0
   38.3090   23.3560   33.9360 C   0  0  0  0  0  0  0  0  0  0  0  0
   37.2020   22.5710   33.8250 N   0  0  0  0  0  0  0  0  0  0  0  0
   37.2340   21.3440   33.2940 C   0  0  0  0  0  0  0  0  0  0  0  0
   38.3950   20.8540   32.8450 N   0  0  0  0  0  0  0  0  0  0  0  0
   40.3550   21.0240   32.5180 H   0  0  0  0  0  0  0  0  0  0  0  0
   40.4910   23.1680   33.4560 H   0  0  0  0  0  0  0  0  0  0  0  0
   35.9630   20.5720   33.2980 C   0  0  0  0  0  0  0  0  0  0  0  0
   36.1480   19.2700   32.8840 F   0  0  0  0  0  0  0  0  0  0  0  0
   35.5400   20.4010   34.6730 F   0  0  0  0  0  0  0  0  0  0  0  0
   34.9200   21.1250   32.7240 F   0  0  0  0  0  0  0  0  0  0  0  0
   38.4900   23.6190   36.9960 S   0  0  0  0  0  0  0  0  0  0  0  0
   37.3070   22.7210   36.9710 O   0  0  0  0  0  0  0  0  0  0  0  0
   38.0820   24.3990   38.2240 O   0  0  0  0  0  0  0  0  0  0  0  0
   39.8590   23.1380   37.8640 C   0  0  0  0  0  0  0  0  0  0  0  0
   39.6260   22.6750   38.8400 H   0  0  0  0  0  0  0  0  0  0  0  0
   40.3240   24.1300   38.2500 H   0  0  0  0  0  0  0  0  0  0  0  0
   41.3930   24.4900   35.8250 F   0  0  0  0  0  0  0  0  0  0  0  0
   41.6870   23.2210   36.2010 C   0  0  0  0  0  0  0  0  0  0  0  0
   40.9710   22.5280   37.1690 C   0  0  0  0  0  0  0  0  0  0  0  0
   41.4450   21.2260   37.3930 C   0  0  0  0  0  0  0  0  0  0  0  0
   40.9060   20.6480   38.1490 H   0  0  0  0  0  0  0  0  0  0  0  0
   42.5070   20.6790   36.7310 C   0  0  0  0  0  0  0  0  0  0  0  0
   42.7930   19.6470   36.9890 H   0  0  0  0  0  0  0  0  0  0  0  0
   43.1780   21.4160   35.7830 C   0  0  0  0  0  3  0  0  0  0  0  0
   42.7510   22.6910   35.5300 C   0  0  0  0  0  3  0  0  0  0  0  0
  1  6  1  0  0  0  0
  1 23  1  0  0  0  0
  2  1  2  0  0  0  0
  3  4  2  0  0  0  0
  3  2  1  0  0  0  0
  4  5  1  0  0  0  0
  5  9  1  0  0  0  0
  5  6  2  0  0  0  0
  6 10  1  0  0  0  0
  7  3  1  0  0  0  0
  8  4  1  0  0  0  0
 11 12  1  0  0  0  0
 12 13  2  0  0  0  0
 13  2  1  0  0  0  0
 14 13  1  0  0  0  0
 15 19  1  0  0  0  0
 15 14  2  0  0  0  0
 16 11  2  0  0  0  0
 16 15  1  0  0  0  0
 17 11  1  0  0  0  0
 18 12  1  0  0  0  0
 19 21  1  0  0  0  0
 20 19  1  0  0  0  0
 22 19  1  0  0  0  0
 23 26  1  0  0  0  0
 23 25  2  0  0  0  0
 24 23  2  0  0  0  0
 26 28  1  0  0  0  0
 26 27  1  0  0  0  0
 29 30  1  0  0  0  0
 30 31  1  0  0  0  0
 31 32  2  0  0  0  0
 31 26  1  0  0  0  0
 32 33  1  0  0  0  0
 34 35  1  0  0  0  0
 34 32  1  0  0  0  0
 36 34  2  0  0  0  0
 37 36  1  0  0  0  0
 37 30  2  0  0  0  0
M  END
>  <minimizedAffinity>
-6.1499362

$$$$

 OpenBabel03272510053D

 37 39  0  0  0  0  0  0  0  0999 V2000
   37.0620   21.8970   32.9270 C   0  0  0  0  0  0  0  0  0  0  0  0
   36.6100   22.5960   31.8500 C   0  0  0  0  0  0  0  0  0  0  0  0
   35.4770   22.1630   31.1740 C   0  0  0  0  0  0  0  0  0  0  0  0
   34.7730   21.0380   31.5430 C   0  0  0  0  0  0  0  0  0  0  0  0
   35.2010   20.3040   32.6220 C   0  0  0  0  0  0  0  0  0  0  0  0
   36.3230   20.7590   33.2710 C   0  0  0  0  0  0  0  0  0  0  0  0
   35.1370   22.7540   30.3070 H   0  0  0  0  0  0  0  0  0  0  0  0
   33.9180   20.7960   30.9590 H   0  0  0  0  0  0  0  0  0  0  0  0
   34.6290   19.4310   32.8810 H   0  0  0  0  0  0  0  0  0  0  0  0
   36.5660   20.0900   34.1080 H   0  0  0  0  0  0  0  0  0  0  0  0
   38.8990   24.6990   29.8830 C   0  0  0  0  0  0  0  0  0  0  0  0
   38.2010   23.6020   30.3690 C   0  0  0  0  0  0  0  0  0  0  0  0
   37.2980   23.7480   31.3710 C   0  0  0  0  0  0  0  0  0  0  0  0
   37.1130   25.0050   31.8610 N   0  0  0  0  0  0  0  0  0  0  0  0
   37.7790   26.0690   31.3970 C   0  0  0  0  0  0  0  0  0  0  0  0
   38.6690   25.9060   30.4120 N   0  0  0  0  0  0  0  0  0  0  0  0
   39.6420   24.7550   29.1070 H   0  0  0  0  0  0  0  0  0  0  0  0
   38.5370   22.7950   29.7640 H   0  0  0  0  0  0  0  0  0  0  0  0
   37.4280   27.3920   31.9780 C   0  0  0  0  0  0  0  0  0  0  0  0
   36.1120   27.4450   32.3860 F   0  0  0  0  0  0  0  0  0  0  0  0
   38.1440   27.5430   33.2290 F   0  0  0  0  0  0  0  0  0  0  0  0
   37.7730   28.4600   31.2980 F   0  0  0  0  0  0  0  0  0  0  0  0
   38.4180   22.3540   33.8740 S   0  0  0  0  0  0  0  0  0  0  0  0
   39.5910   21.4880   33.5850 O   0  0  0  0  0  0  0  0  0  0  0  0
   38.0270   21.6790   35.1690 O   0  0  0  0  0  0  0  0  0  0  0  0
   38.6500   23.7630   34.7800 C   0  0  0  0  0  0  0  0  0  0  0  0
   38.1000   24.6380   34.3880 H   0  0  0  0  0  0  0  0  0  0  0  0
   39.7290   24.1050   34.5160 H   0  0  0  0  0  0  0  0  0  0  0  0
   40.8210   22.5440   36.2400 F   0  0  0  0  0  0  0  0  0  0  0  0
   39.7670   23.1000   36.8840 C   0  0  0  0  0  0  0  0  0  0  0  0
   38.6950   23.6880   36.2230 C   0  0  0  0  0  0  0  0  0  0  0  0
   37.7120   24.1930   37.0880 C   0  0  0  0  0  0  0  0  0  0  0  0
   36.8510   24.6640   36.6040 H   0  0  0  0  0  0  0  0  0  0  0  0
   37.7860   24.1210   38.4490 C   0  0  0  0  0  0  0  0  0  0  0  0
   36.9550   24.5520   39.0300 H   0  0  0  0  0  0  0  0  0  0  0  0
   38.8740   23.5270   39.0450 C   0  0  0  0  0  3  0  0  0  0  0  0
   39.8580   23.0190   38.2420 C   0  0  0  0  0  3  0  0  0  0  0  0
  1  6  1  0  0  0  0
  1 23  1  0  0  0  0
  2  1  2  0  0  0  0
  3  4  2  0  0  0  0
  3  2  1  0  0  0  0
  4  5  1  0  0  0  0
  5  9  1  0  0  0  0
  5  6  2  0  0  0  0
  6 10  1  0  0  0  0
  7  3  1  0  0  0  0
  8  4  1  0  0  0  0
 11 12  2  0  0  0  0
 11 16  1  0  0  0  0
 12 13  1  0  0  0  0
 13  2  1  0  0  0  0
 13 14  2  0  0  0  0
 15 14  1  0  0  0  0
 15 19  1  0  0  0  0
 16 15  2  0  0  0  0
 17 11  1  0  0  0  0
 18 12  1  0  0  0  0
 19 20  1  0  0  0  0
 19 21  1  0  0  0  0
 22 19  1  0  0  0  0
 23 26  1  0  0  0  0
 23 25  2  0  0  0  0
 24 23  2  0  0  0  0
 26 31  1  0  0  0  0
 27 26  1  0  0  0  0
 28 26  1  0  0  0  0
 29 30  1  0  0  0  0
 30 37  1  0  0  0  0
 31 30  2  0  0  0  0
 31 32  1  0  0  0  0
 32 34  2  0  0  0  0
 33 32  1  0  0  0  0
 34 35  1  0  0  0  0
 34 36  1  0  0  0  0
 37 36  2  0  0  0  0
M  END
>  <minimizedAffinity>
-5.96547079

$$$$

 OpenBabel03272510053D

 37 39  0  0  0  0  0  0  0  0999 V2000
   37.0120   24.7330   32.6670 C   0  0  0  0  0  0  0  0  0  0  0  0
   37.4880   23.5290   33.0860 C   0  0  0  0  0  0  0  0  0  0  0  0
   37.0250   22.3620   32.4920 C   0  0  0  0  0  0  0  0  0  0  0  0
   36.0880   22.3600   31.4820 C   0  0  0  0  0  0  0  0  0  0  0  0
   35.5820   23.5560   31.0360 C   0  0  0  0  0  0  0  0  0  0  0  0
   36.0600   24.6930   31.6420 C   0  0  0  0  0  0  0  0  0  0  0  0
   37.4320   21.4030   32.8540 H   0  0  0  0  0  0  0  0  0  0  0  0
   35.8040   21.4110   31.0950 H   0  0  0  0  0  0  0  0  0  0  0  0
   34.8510   23.5180   30.2480 H   0  0  0  0  0  0  0  0  0  0  0  0
   35.5800   25.5790   31.2050 H   0  0  0  0  0  0  0  0  0  0  0  0
   40.6670   23.0460   34.8710 C   0  0  0  0  0  0  0  0  0  0  0  0
   39.7240   23.1610   33.8590 C   0  0  0  0  0  0  0  0  0  0  0  0
   38.4270   23.4310   34.1520 C   0  0  0  0  0  0  0  0  0  0  0  0
   38.1080   23.5850   35.4670 N   0  0  0  0  0  0  0  0  0  0  0  0
   39.0100   23.4800   36.4490 C   0  0  0  0  0  0  0  0  0  0  0  0
   40.2830   23.2090   36.1430 N   0  0  0  0  0  0  0  0  0  0  0  0
   41.7210   22.8360   34.8120 H   0  0  0  0  0  0  0  0  0  0  0  0
   40.2870   23.0290   32.9670 H   0  0  0  0  0  0  0  0  0  0  0  0
   38.5350   23.7390   37.8340 C   0  0  0  0  0  0  0  0  0  0  0  0
   38.0770   25.0300   37.9900 F   0  0  0  0  0  0  0  0  0  0  0  0
   37.3360   22.9580   38.0570 F   0  0  0  0  0  0  0  0  0  0  0  0
   39.3230   23.3770   38.8200 F   0  0  0  0  0  0  0  0  0  0  0  0
   37.5390   26.2450   33.2850 S   0  0  0  0  0  0  0  0  0  0  0  0
   36.8990   26.5440   34.5930 O   0  0  0  0  0  0  0  0  0  0  0  0
   36.6540   27.1480   32.4570 O   0  0  0  0  0  0  0  0  0  0  0  0
   38.8390   27.2010   32.7780 C   0  0  0  0  0  0  0  0  0  0  0  0
   38.6660   28.2860   32.9000 H   0  0  0  0  0  0  0  0  0  0  0  0
   38.8030   27.1500   31.6180 H   0  0  0  0  0  0  0  0  0  0  0  0
   39.9540   27.1330   35.4410 F   0  0  0  0  0  0  0  0  0  0  0  0
   40.6830   26.7540   34.3630 C   0  0  0  0  0  0  0  0  0  0  0  0
   40.1920   26.7800   33.0630 C   0  0  0  0  0  0  0  0  0  0  0  0
   41.1220   26.3510   32.1040 C   0  0  0  0  0  0  0  0  0  0  0  0
   40.7730   26.3580   31.0680 H   0  0  0  0  0  0  0  0  0  0  0  0
   42.3920   25.9450   32.4030 C   0  0  0  0  0  0  0  0  0  0  0  0
   43.0370   25.6280   31.5680 H   0  0  0  0  0  0  0  0  0  0  0  0
   42.8200   25.9410   33.7100 C   0  0  0  0  0  3  0  0  0  0  0  0
   41.9470   26.3500   34.6810 C   0  0  0  0  0  3  0  0  0  0  0  0
  1  2  1  0  0  0  0
  1 23  1  0  0  0  0
  2 13  1  0  0  0  0
  3  7  1  0  0  0  0
  3  2  2  0  0  0  0
  4  3  1  0  0  0  0
  5  4  2  0  0  0  0
  5  6  1  0  0  0  0
  6  1  2  0  0  0  0
  8  4  1  0  0  0  0
  9  5  1  0  0  0  0
 10  6  1  0  0  0  0
 11 16  1  0  0  0  0
 12 13  1  0  0  0  0
 12 11  2  0  0  0  0
 13 14  2  0  0  0  0
 14 15  1  0  0  0  0
 15 19  1  0  0  0  0
 16 15  2  0  0  0  0
 17 11  1  0  0  0  0
 18 12  1  0  0  0  0
 19 20  1  0  0  0  0
 19 21  1  0  0  0  0
 19 22  1  0  0  0  0
 23 24  2  0  0  0  0
 25 23  2  0  0  0  0
 26 27  1  0  0  0  0
 26 31  1  0  0  0  0
 26 23  1  0  0  0  0
 28 26  1  0  0  0  0
 30 37  1  0  0  0  0
 30 29  1  0  0  0  0
 31 30  2  0  0  0  0
 32 34  2  0  0  0  0
 32 31  1  0  0  0  0
 33 32  1  0  0  0  0
 34 36  1  0  0  0  0
 35 34  1  0  0  0  0
 36 37  2  0  0  0  0
M  END
>  <minimizedAffinity>
-5.93194008

$$$$

 OpenBabel03272510053D

 37 39  0  0  0  0  0  0  0  0999 V2000
   37.3110   25.5080   33.0390 C   0  0  0  0  0  0  0  0  0  0  0  0
   36.7430   24.8870   31.9690 C   0  0  0  0  0  0  0  0  0  0  0  0
   35.9620   25.6200   31.0840 C   0  0  0  0  0  0  0  0  0  0  0  0
   35.7260   26.9680   31.2380 C   0  0  0  0  0  0  0  0  0  0  0  0
   36.2780   27.6270   32.3080 C   0  0  0  0  0  0  0  0  0  0  0  0
   37.0470   26.8770   33.1650 C   0  0  0  0  0  0  0  0  0  0  0  0
   35.5190   25.0870   30.2270 H   0  0  0  0  0  0  0  0  0  0  0  0
   35.1150   27.4330   30.5020 H   0  0  0  0  0  0  0  0  0  0  0  0
   36.0710   28.6790   32.3980 H   0  0  0  0  0  0  0  0  0  0  0  0
   37.4270   27.5110   33.9770 H   0  0  0  0  0  0  0  0  0  0  0  0
   38.0990   21.7020   30.7280 C   0  0  0  0  0  0  0  0  0  0  0  0
   37.9210   23.0570   30.9720 C   0  0  0  0  0  0  0  0  0  0  0  0
   36.8990   23.4880   31.7530 C   0  0  0  0  0  0  0  0  0  0  0  0
   36.0760   22.5390   32.2780 N   0  0  0  0  0  0  0  0  0  0  0  0
   36.2420   21.2310   32.0510 C   0  0  0  0  0  0  0  0  0  0  0  0
   37.2520   20.8230   31.2750 N   0  0  0  0  0  0  0  0  0  0  0  0
   38.8460   21.1990   30.1380 H   0  0  0  0  0  0  0  0  0  0  0  0
   38.7330   23.5180   30.4630 H   0  0  0  0  0  0  0  0  0  0  0  0
   35.3090   20.3020   32.7430 C   0  0  0  0  0  0  0  0  0  0  0  0
   35.8580   19.0480   32.9120 F   0  0  0  0  0  0  0  0  0  0  0  0
   35.1480   20.7540   34.1100 F   0  0  0  0  0  0  0  0  0  0  0  0
   34.0770   20.2400   32.2950 F   0  0  0  0  0  0  0  0  0  0  0  0
   38.3340   24.7280   34.1750 S   0  0  0  0  0  0  0  0  0  0  0  0
   38.7170   25.6500   35.2760 O   0  0  0  0  0  0  0  0  0  0  0  0
   39.6360   24.8290   33.4130 O   0  0  0  0  0  0  0  0  0  0  0  0
   38.6620   23.0780   34.3450 C   0  0  0  0  0  0  0  0  0  0  0  0
   38.6510   22.5220   33.3900 H   0  0  0  0  0  0  0  0  0  0  0  0
   37.6960   22.6350   34.8140 H   0  0  0  0  0  0  0  0  0  0  0  0
   38.3270   23.1260   37.2120 F   0  0  0  0  0  0  0  0  0  0  0  0
   39.4720   22.6730   36.6460 C   0  0  0  0  0  0  0  0  0  0  0  0
   39.6820   22.6420   35.2730 C   0  0  0  0  0  0  0  0  0  0  0  0
   40.9420   22.1420   34.9100 C   0  0  0  0  0  0  0  0  0  0  0  0
   41.1450   22.1020   33.8360 H   0  0  0  0  0  0  0  0  0  0  0  0
   41.8830   21.7230   35.8080 C   0  0  0  0  0  0  0  0  0  0  0  0
   42.8380   21.3490   35.4090 H   0  0  0  0  0  0  0  0  0  0  0  0
   41.6150   21.7790   37.1560 C   0  0  0  0  0  3  0  0  0  0  0  0
   40.3990   22.2590   37.5580 C   0  0  0  0  0  3  0  0  0  0  0  0
  1  6  1  0  0  0  0
  1 23  1  0  0  0  0
  2  1  2  0  0  0  0
  3  4  2  0  0  0  0
  3  2  1  0  0  0  0
  4  5  1  0  0  0  0
  5  9  1  0  0  0  0
  5  6  2  0  0  0  0
  6 10  1  0  0  0  0
  7  3  1  0  0  0  0
  8  4  1  0  0  0  0
 11 12  2  0  0  0  0
 11 16  1  0  0  0  0
 12 13  1  0  0  0  0
 13  2  1  0  0  0  0
 13 14  2  0  0  0  0
 15 14  1  0  0  0  0
 15 19  1  0  0  0  0
 16 15  2  0  0  0  0
 17 11  1  0  0  0  0
 18 12  1  0  0  0  0
 19 20  1  0  0  0  0
 19 21  1  0  0  0  0
 22 19  1  0  0  0  0
 23 26  1  0  0  0  0
 23 24  2  0  0  0  0
 25 23  2  0  0  0  0
 26 28  1  0  0  0  0
 26 31  1  0  0  0  0
 27 26  1  0  0  0  0
 30 29  1  0  0  0  0
 30 37  1  0  0  0  0
 31 30  2  0  0  0  0
 32 31  1  0  0  0  0
 32 34  2  0  0  0  0
 33 32  1  0  0  0  0
 34 36  1  0  0  0  0
 35 34  1  0  0  0  0
 36 37  2  0  0  0  0
M  END
>  <minimizedAffinity>
-5.91813421

$$$$

 OpenBabel03272510053D

 37 39  0  0  0  0  0  0  0  0999 V2000
   39.8330   24.2300   35.1310 C   0  0  0  0  0  0  0  0  0  0  0  0
   39.8720   25.1350   34.1150 C   0  0  0  0  0  0  0  0  0  0  0  0
   41.0980   25.5440   33.6050 C   0  0  0  0  0  0  0  0  0  0  0  0
   42.3000   25.0750   34.0870 C   0  0  0  0  0  0  0  0  0  0  0  0
   42.3000   24.1640   35.1150 C   0  0  0  0  0  0  0  0  0  0  0  0
   41.0730   23.7780   35.5960 C   0  0  0  0  0  0  0  0  0  0  0  0
   41.0930   26.2760   32.7800 H   0  0  0  0  0  0  0  0  0  0  0  0
   43.1800   25.4510   33.6230 H   0  0  0  0  0  0  0  0  0  0  0  0
   43.2570   23.8210   35.4670 H   0  0  0  0  0  0  0  0  0  0  0  0
   41.2040   23.0560   36.4140 H   0  0  0  0  0  0  0  0  0  0  0  0
   37.1580   27.5370   33.4900 C   0  0  0  0  0  0  0  0  0  0  0  0
   38.3180   26.9510   33.9780 C   0  0  0  0  0  0  0  0  0  0  0  0
   38.6810   25.7050   33.5820 C   0  0  0  0  0  0  0  0  0  0  0  0
   37.8640   25.0740   32.6930 N   0  0  0  0  0  0  0  0  0  0  0  0
   36.7460   25.6320   32.2150 C   0  0  0  0  0  0  0  0  0  0  0  0
   36.4010   26.8590   32.6190 N   0  0  0  0  0  0  0  0  0  0  0  0
   36.7300   28.5010   33.7010 H   0  0  0  0  0  0  0  0  0  0  0  0
   38.7400   27.6990   34.6050 H   0  0  0  0  0  0  0  0  0  0  0  0
   35.9850   24.8560   31.2000 C   0  0  0  0  0  0  0  0  0  0  0  0
   36.8170   24.1220   30.3800 F   0  0  0  0  0  0  0  0  0  0  0  0
   35.2360   23.8220   31.8840 F   0  0  0  0  0  0  0  0  0  0  0  0
   35.0660   25.4960   30.5160 F   0  0  0  0  0  0  0  0  0  0  0  0
   38.3860   23.6090   35.8140 S   0  0  0  0  0  0  0  0  0  0  0  0
   37.5490   24.6980   36.3810 O   0  0  0  0  0  0  0  0  0  0  0  0
   38.9470   23.1270   37.1320 O   0  0  0  0  0  0  0  0  0  0  0  0
   37.7090   22.0690   35.6390 C   0  0  0  0  0  0  0  0  0  0  0  0
   37.0280   21.7880   36.4620 H   0  0  0  0  0  0  0  0  0  0  0  0
   38.5800   21.3390   35.8780 H   0  0  0  0  0  0  0  0  0  0  0  0
   35.1950   20.7300   35.1680 F   0  0  0  0  0  0  0  0  0  0  0  0
   36.0550   20.9880   34.1530 C   0  0  0  0  0  0  0  0  0  0  0  0
   37.2790   21.6200   34.3340 C   0  0  0  0  0  0  0  0  0  0  0  0
   38.0100   21.7770   33.1460 C   0  0  0  0  0  0  0  0  0  0  0  0
   38.9810   22.2700   33.2470 H   0  0  0  0  0  0  0  0  0  0  0  0
   37.5740   21.3550   31.9220 C   0  0  0  0  0  0  0  0  0  0  0  0
   38.2310   21.5310   31.0570 H   0  0  0  0  0  0  0  0  0  0  0  0
   36.3510   20.7350   31.8070 C   0  0  0  0  0  3  0  0  0  0  0  0
   35.6020   20.5600   32.9390 C   0  0  0  0  0  3  0  0  0  0  0  0
  1  6  1  0  0  0  0
  1 23  1  0  0  0  0
  2  1  2  0  0  0  0
  3  4  2  0  0  0  0
  3  2  1  0  0  0  0
  4  5  1  0  0  0  0
  5  9  1  0  0  0  0
  5  6  2  0  0  0  0
  6 10  1  0  0  0  0
  7  3  1  0  0  0  0
  8  4  1  0  0  0  0
 11 17  1  0  0  0  0
 11 12  1  0  0  0  0
 12 18  1  0  0  0  0
 13 12  2  0  0  0  0
 13  2  1  0  0  0  0
 14 13  1  0  0  0  0
 15 16  1  0  0  0  0
 15 14  2  0  0  0  0
 16 11  2  0  0  0  0
 19 21  1  0  0  0  0
 19 15  1  0  0  0  0
 20 19  1  0  0  0  0
 22 19  1  0  0  0  0
 23 24  2  0  0  0  0
 23 25  2  0  0  0  0
 26 23  1  0  0  0  0
 26 28  1  0  0  0  0
 26 27  1  0  0  0  0
 30 31  1  0  0  0  0
 30 29  1  0  0  0  0
 31 26  1  0  0  0  0
 32 33  1  0  0  0  0
 32 31  2  0  0  0  0
 34 32  1  0  0  0  0
 35 34  1  0  0  0  0
 36 34  2  0  0  0  0
 36 37  1  0  0  0  0
 37 30  2  0  0  0  0
M  END
>  <minimizedAffinity>
-5.88309622

$$$$
