
 OpenBabel03272509253D

 24 25  0  0  0  0  0  0  0  0999 V2000
   38.0460   30.5420   47.6490 C   0  0  0  0  0  0  0  0  0  0  0  0
   39.0480   30.0650   47.6630 H   0  0  0  0  0  0  0  0  0  0  0  0
   37.3870   30.1810   46.8590 H   0  0  0  0  0  0  0  0  0  0  0  0
   37.3610   30.2380   51.3770 C   0  0  0  0  0  0  0  0  0  0  0  0
   37.9980   30.6060   50.1720 C   0  0  0  0  0  0  0  0  0  0  0  0
   37.4440   30.1960   48.9750 C   0  0  0  0  0  0  0  0  0  0  0  0
   36.2940   29.4450   49.0010 N   0  0  0  0  0  0  0  0  0  0  0  0
   35.7160   29.1140   50.1650 C   0  0  0  0  0  0  0  0  0  0  0  0
   36.2370   29.5030   51.3540 N   0  0  0  0  0  0  0  0  0  0  0  0
   37.7980   30.5610   52.3180 H   0  0  0  0  0  0  0  0  0  0  0  0
   38.8990   31.1950   50.2000 H   0  0  0  0  0  0  0  0  0  0  0  0
   34.8080   28.5210   50.1150 H   0  0  0  0  0  0  0  0  0  0  0  0
   38.2760   32.0450   47.5690 C   0  0  0  0  0  0  0  0  0  0  0  0
   37.3260   32.5460   47.8380 H   0  0  0  0  0  0  0  0  0  0  0  0
   39.1390   32.3500   48.2000 H   0  0  0  0  0  0  0  0  0  0  0  0
   40.3780   33.7240   47.0150 F   0  0  0  0  0  0  0  0  0  0  0  0
   39.6760   33.2070   45.9550 C   0  0  0  0  0  0  0  0  0  0  0  0
   38.5880   32.3430   46.1260 C   0  0  0  0  0  0  0  0  0  0  0  0
   37.9590   31.8860   44.9810 C   0  0  0  0  0  0  0  0  0  0  0  0
   37.1380   31.2310   45.2030 H   0  0  0  0  0  0  0  0  0  0  0  0
   38.4190   32.2900   43.7690 C   0  0  0  0  0  0  0  0  0  0  0  0
   37.8900   31.9050   42.8890 H   0  0  0  0  0  0  0  0  0  0  0  0
   39.4950   33.1460   43.6030 C   0  0  0  0  0  0  0  0  0  0  0  0
   40.1310   33.6080   44.7380 C   0  0  0  0  0  0  0  0  0  0  0  0
  1  2  1  0  0  0  0
  1  6  1  0  0  0  0
  3  1  1  0  0  0  0
  4 10  1  0  0  0  0
  5 11  1  0  0  0  0
  5  4  2  0  0  0  0
  6  7  2  0  0  0  0
  6  5  1  0  0  0  0
  7  8  1  0  0  0  0
  8  9  2  0  0  0  0
  9  4  1  0  0  0  0
 12  8  1  0  0  0  0
 13  1  1  0  0  0  0
 13 14  1  0  0  0  0
 13 15  1  0  0  0  0
 17 18  1  0  0  0  0
 17 16  1  0  0  0  0
 18 13  1  0  0  0  0
 19 20  1  0  0  0  0
 19 18  2  0  0  0  0
 21 19  1  0  0  0  0
 22 21  1  0  0  0  0
 23 21  2  0  0  0  0
 23 24  1  0  0  0  0
 24 17  2  0  0  0  0
M  END
>  <minimizedAffinity>
-5.36749506

>  <minimizedRMSD>
1.42171645

$$$$
