
 OpenBabel03272510303D

 28 30  0  0  0  0  0  0  0  0999 V2000
   37.3410   31.4000   49.3010 C   0  0  0  0  0  0  0  0  0  0  0  0
   37.6130   32.7030   49.7310 C   0  0  0  0  0  0  0  0  0  0  0  0
   38.4940   33.4110   48.9600 C   0  0  0  0  0  0  0  0  0  0  0  0
   39.0560   32.8430   47.8400 N   0  0  0  0  0  0  0  0  0  0  0  0
   38.7590   31.5760   47.4650 C   0  0  0  0  0  0  0  0  0  0  0  0
   37.8810   30.8250   48.2070 N   0  0  0  0  0  0  0  0  0  0  0  0
   37.1440   33.0790   50.6050 H   0  0  0  0  0  0  0  0  0  0  0  0
   38.7620   34.4340   49.2260 H   0  0  0  0  0  0  0  0  0  0  0  0
   36.3550   30.5860   50.0980 C   0  0  0  0  0  0  0  0  0  0  0  0
   36.2910   29.1480   50.0430 C   0  0  0  0  0  0  0  0  0  0  0  0
   37.0310   29.7730   51.2120 C   0  0  0  0  0  0  0  0  0  0  0  0
   35.4940   31.2090   50.4270 H   0  0  0  0  0  0  0  0  0  0  0  0
   35.3140   28.6600   50.2400 H   0  0  0  0  0  0  0  0  0  0  0  0
   36.9440   28.5550   49.3770 H   0  0  0  0  0  0  0  0  0  0  0  0
   38.1270   29.7220   51.2430 H   0  0  0  0  0  0  0  0  0  0  0  0
   36.4660   29.7640   52.1480 H   0  0  0  0  0  0  0  0  0  0  0  0
   39.3280   30.9600   46.2730 C   0  0  0  0  0  0  0  0  0  0  0  0
   39.0320   29.8730   46.2120 H   0  0  0  0  0  0  0  0  0  0  0  0
   40.4420   30.9240   46.2770 H   0  0  0  0  0  0  0  0  0  0  0  0
   36.6870   30.8070   45.1790 F   0  0  0  0  0  0  0  0  0  0  0  0
   37.6000   31.5270   44.4850 C   0  0  0  0  0  0  0  0  0  0  0  0
   38.8690   31.5990   45.0120 C   0  0  0  0  0  0  0  0  0  0  0  0
   39.8050   32.3450   44.2880 C   0  0  0  0  0  0  0  0  0  0  0  0
   40.8310   32.4260   44.6740 H   0  0  0  0  0  0  0  0  0  0  0  0
   39.5340   32.9890   43.1110 C   0  0  0  0  0  0  0  0  0  0  0  0
   40.3050   33.5490   42.6020 H   0  0  0  0  0  0  0  0  0  0  0  0
   38.2450   32.9130   42.5830 C   0  0  0  0  0  3  0  0  0  0  0  0
   37.3320   32.1820   43.2970 C   0  0  0  0  0  3  0  0  0  0  0  0
  1  2  1  0  0  0  0
  1  9  1  0  0  0  0
  2  7  1  0  0  0  0
  3  8  1  0  0  0  0
  3  2  2  0  0  0  0
  4  3  1  0  0  0  0
  5  4  2  0  0  0  0
  5  6  1  0  0  0  0
  6  1  2  0  0  0  0
  9 12  1  0  0  0  0
  9 11  1  0  0  0  0
 10  9  1  0  0  0  0
 10 13  1  0  0  0  0
 10 11  1  0  0  0  0
 11 15  1  0  0  0  0
 11 16  1  0  0  0  0
 14 10  1  0  0  0  0
 17 19  1  0  0  0  0
 17  5  1  0  0  0  0
 18 17  1  0  0  0  0
 21 22  1  0  0  0  0
 21 20  1  0  0  0  0
 22 17  1  0  0  0  0
 23 24  1  0  0  0  0
 23 22  2  0  0  0  0
 25 23  1  0  0  0  0
 26 25  1  0  0  0  0
 27 25  2  0  0  0  0
 27 28  1  0  0  0  0
 28 21  2  0  0  0  0
M  END
>  <minimizedAffinity>
-5.53943253

>  <minimizedRMSD>
0.88817656

$$$$
