
 OpenBabel03272510303D

 28 30  0  0  0  0  0  0  0  0999 V2000
   37.3540   31.4000   49.3180 C   0  0  0  0  0  0  0  0  0  0  0  0
   37.6350   32.7020   49.7430 C   0  0  0  0  0  0  0  0  0  0  0  0
   38.5110   33.4060   48.9620 C   0  0  0  0  0  0  0  0  0  0  0  0
   39.0590   32.8330   47.8380 N   0  0  0  0  0  0  0  0  0  0  0  0
   38.7540   31.5660   47.4680 C   0  0  0  0  0  0  0  0  0  0  0  0
   37.8800   30.8200   48.2200 N   0  0  0  0  0  0  0  0  0  0  0  0
   37.1760   33.0820   50.6210 H   0  0  0  0  0  0  0  0  0  0  0  0
   38.7850   34.4270   49.2230 H   0  0  0  0  0  0  0  0  0  0  0  0
   36.3730   30.5900   50.1260 C   0  0  0  0  0  0  0  0  0  0  0  0
   36.2960   29.1530   50.0670 C   0  0  0  0  0  0  0  0  0  0  0  0
   37.0580   29.7680   51.2280 C   0  0  0  0  0  0  0  0  0  0  0  0
   35.5210   31.2190   50.4700 H   0  0  0  0  0  0  0  0  0  0  0  0
   35.3180   28.6730   50.2770 H   0  0  0  0  0  0  0  0  0  0  0  0
   36.9350   28.5570   49.3900 H   0  0  0  0  0  0  0  0  0  0  0  0
   38.1540   29.7080   51.2430 H   0  0  0  0  0  0  0  0  0  0  0  0
   36.5070   29.7600   52.1720 H   0  0  0  0  0  0  0  0  0  0  0  0
   39.3080   30.9460   46.2710 C   0  0  0  0  0  0  0  0  0  0  0  0
   38.9970   29.8640   46.2080 H   0  0  0  0  0  0  0  0  0  0  0  0
   40.4220   30.8940   46.2700 H   0  0  0  0  0  0  0  0  0  0  0  0
   36.6300   30.9570   45.2610 F   0  0  0  0  0  0  0  0  0  0  0  0
   37.5670   31.6020   44.5270 C   0  0  0  0  0  0  0  0  0  0  0  0
   38.8540   31.5960   45.0140 C   0  0  0  0  0  0  0  0  0  0  0  0
   39.8150   32.2650   44.2490 C   0  0  0  0  0  0  0  0  0  0  0  0
   40.8560   32.2840   44.6030 H   0  0  0  0  0  0  0  0  0  0  0  0
   39.5500   32.9110   43.0710 C   0  0  0  0  0  0  0  0  0  0  0  0
   40.3410   33.4090   42.5290 H   0  0  0  0  0  0  0  0  0  0  0  0
   38.2440   32.9130   42.5830 C   0  0  0  0  0  3  0  0  0  0  0  0
   37.3060   32.2560   43.3370 C   0  0  0  0  0  3  0  0  0  0  0  0
  1  2  1  0  0  0  0
  1  9  1  0  0  0  0
  2  7  1  0  0  0  0
  3  8  1  0  0  0  0
  3  2  2  0  0  0  0
  4  3  1  0  0  0  0
  5  4  2  0  0  0  0
  5  6  1  0  0  0  0
  6  1  2  0  0  0  0
  9 12  1  0  0  0  0
  9 11  1  0  0  0  0
 10  9  1  0  0  0  0
 10 13  1  0  0  0  0
 10 11  1  0  0  0  0
 11 15  1  0  0  0  0
 11 16  1  0  0  0  0
 14 10  1  0  0  0  0
 17  5  1  0  0  0  0
 18 17  1  0  0  0  0
 19 17  1  0  0  0  0
 21 22  1  0  0  0  0
 21 20  1  0  0  0  0
 22 17  1  0  0  0  0
 23 24  1  0  0  0  0
 23 22  2  0  0  0  0
 25 23  1  0  0  0  0
 26 25  1  0  0  0  0
 27 25  2  0  0  0  0
 27 28  1  0  0  0  0
 28 21  2  0  0  0  0
M  END
>  <minimizedAffinity>
-5.56388283

>  <minimizedRMSD>
0.894138217

$$$$
