
 OpenBabel03272509253D

 24 25  0  0  0  0  0  0  0  0999 V2000
   37.6490   25.6160   35.6640 C   0  0  0  0  0  0  0  0  0  0  0  0
   37.7930   25.2460   34.6280 H   0  0  0  0  0  0  0  0  0  0  0  0
   36.6070   25.6730   35.9800 H   0  0  0  0  0  0  0  0  0  0  0  0
   38.7420   23.4390   38.5830 C   0  0  0  0  0  0  0  0  0  0  0  0
   38.0230   24.4040   37.8460 C   0  0  0  0  0  0  0  0  0  0  0  0
   38.3590   24.6170   36.5240 C   0  0  0  0  0  0  0  0  0  0  0  0
   39.3800   23.8810   35.9740 N   0  0  0  0  0  0  0  0  0  0  0  0
   40.0420   22.9720   36.7040 C   0  0  0  0  0  0  0  0  0  0  0  0
   39.7330   22.7430   38.0040 N   0  0  0  0  0  0  0  0  0  0  0  0
   38.4780   23.2730   39.6240 H   0  0  0  0  0  0  0  0  0  0  0  0
   37.2300   24.9590   38.3200 H   0  0  0  0  0  0  0  0  0  0  0  0
   40.8370   22.4230   36.2090 H   0  0  0  0  0  0  0  0  0  0  0  0
   38.3570   26.9610   35.7520 C   0  0  0  0  0  0  0  0  0  0  0  0
   37.5920   27.7520   35.6270 H   0  0  0  0  0  0  0  0  0  0  0  0
   38.9390   27.0440   36.6960 H   0  0  0  0  0  0  0  0  0  0  0  0
   37.2970   27.3290   33.2460 F   0  0  0  0  0  0  0  0  0  0  0  0
   38.6600   27.2050   33.3520 C   0  0  0  0  0  0  0  0  0  0  0  0
   39.3020   27.0130   34.5800 C   0  0  0  0  0  0  0  0  0  0  0  0
   40.6810   26.9010   34.5610 C   0  0  0  0  0  0  0  0  0  0  0  0
   41.0900   26.7560   35.5420 H   0  0  0  0  0  0  0  0  0  0  0  0
   41.3330   26.9810   33.3730 C   0  0  0  0  0  0  0  0  0  0  0  0
   42.4260   26.8860   33.4040 H   0  0  0  0  0  0  0  0  0  0  0  0
   40.6950   27.1700   32.1580 C   0  0  0  0  0  3  0  0  0  0  0  0
   39.3190   27.2840   32.1640 C   0  0  0  0  0  3  0  0  0  0  0  0
  1 13  1  0  0  0  0
  1  3  1  0  0  0  0
  1  6  1  0  0  0  0
  2  1  1  0  0  0  0
  4 10  1  0  0  0  0
  5 11  1  0  0  0  0
  5  4  2  0  0  0  0
  6  5  1  0  0  0  0
  7  6  2  0  0  0  0
  7  8  1  0  0  0  0
  8  9  2  0  0  0  0
  9  4  1  0  0  0  0
 12  8  1  0  0  0  0
 13 15  1  0  0  0  0
 14 13  1  0  0  0  0
 16 17  1  0  0  0  0
 17 18  1  0  0  0  0
 18 13  1  0  0  0  0
 19 18  2  0  0  0  0
 19 20  1  0  0  0  0
 21 22  1  0  0  0  0
 21 19  1  0  0  0  0
 23 24  1  0  0  0  0
 23 21  2  0  0  0  0
 24 17  2  0  0  0  0
M  END
>  <minimizedAffinity>
-4.58612299

$$$$

 OpenBabel03272509253D

 24 25  0  0  0  0  0  0  0  0999 V2000
   37.6440   25.6540   35.7460 C   0  0  0  0  0  0  0  0  0  0  0  0
   37.5590   25.2520   34.7150 H   0  0  0  0  0  0  0  0  0  0  0  0
   36.6880   25.8070   36.2490 H   0  0  0  0  0  0  0  0  0  0  0  0
   40.1580   22.9700   36.7090 C   0  0  0  0  0  0  0  0  0  0  0  0
   39.4770   23.9290   35.9290 C   0  0  0  0  0  0  0  0  0  0  0  0
   38.4210   24.6170   36.4940 C   0  0  0  0  0  0  0  0  0  0  0  0
   38.0740   24.3440   37.7950 N   0  0  0  0  0  0  0  0  0  0  0  0
   38.7440   23.4260   38.5070 C   0  0  0  0  0  0  0  0  0  0  0  0
   39.7830   22.7360   37.9770 N   0  0  0  0  0  0  0  0  0  0  0  0
   40.9880   22.4290   36.2630 H   0  0  0  0  0  0  0  0  0  0  0  0
   39.7840   24.1090   34.9120 H   0  0  0  0  0  0  0  0  0  0  0  0
   38.4200   23.2590   39.5290 H   0  0  0  0  0  0  0  0  0  0  0  0
   38.4600   26.9360   35.6520 C   0  0  0  0  0  0  0  0  0  0  0  0
   37.7980   27.7780   35.9330 H   0  0  0  0  0  0  0  0  0  0  0  0
   39.3840   26.8660   36.2660 H   0  0  0  0  0  0  0  0  0  0  0  0
   41.1240   26.8520   34.9920 F   0  0  0  0  0  0  0  0  0  0  0  0
   40.2190   27.0260   33.9750 C   0  0  0  0  0  0  0  0  0  0  0  0
   38.8390   27.0830   34.2010 C   0  0  0  0  0  0  0  0  0  0  0  0
   38.0250   27.2610   33.0960 C   0  0  0  0  0  0  0  0  0  0  0  0
   36.9850   27.2940   33.3590 H   0  0  0  0  0  0  0  0  0  0  0  0
   38.5940   27.3690   31.8680 C   0  0  0  0  0  0  0  0  0  0  0  0
   37.9110   27.5100   31.0200 H   0  0  0  0  0  0  0  0  0  0  0  0
   39.9600   27.3120   31.6470 C   0  0  0  0  0  3  0  0  0  0  0  0
   40.7830   27.1350   32.7410 C   0  0  0  0  0  3  0  0  0  0  0  0
  1  3  1  0  0  0  0
  1  6  1  0  0  0  0
  2  1  1  0  0  0  0
  4  9  1  0  0  0  0
  5  6  1  0  0  0  0
  5  4  2  0  0  0  0
  6  7  2  0  0  0  0
  7  8  1  0  0  0  0
  8 12  1  0  0  0  0
  9  8  2  0  0  0  0
 10  4  1  0  0  0  0
 11  5  1  0  0  0  0
 13  1  1  0  0  0  0
 13 14  1  0  0  0  0
 13 15  1  0  0  0  0
 17 18  1  0  0  0  0
 17 16  1  0  0  0  0
 18 13  1  0  0  0  0
 19 20  1  0  0  0  0
 19 18  2  0  0  0  0
 21 19  1  0  0  0  0
 22 21  1  0  0  0  0
 23 21  2  0  0  0  0
 23 24  1  0  0  0  0
 24 17  2  0  0  0  0
M  END
>  <minimizedAffinity>
-4.53430843

$$$$

 OpenBabel03272509253D

 24 25  0  0  0  0  0  0  0  0999 V2000
   40.6980   25.0190   34.3080 C   0  0  0  0  0  0  0  0  0  0  0  0
   41.7430   24.9170   33.9500 H   0  0  0  0  0  0  0  0  0  0  0  0
   39.9420   24.7500   33.5690 H   0  0  0  0  0  0  0  0  0  0  0  0
   39.4120   22.9310   37.2140 C   0  0  0  0  0  0  0  0  0  0  0  0
   39.4150   23.8440   36.1360 C   0  0  0  0  0  0  0  0  0  0  0  0
   40.6000   24.0740   35.4640 C   0  0  0  0  0  0  0  0  0  0  0  0
   41.7300   23.4060   35.8680 N   0  0  0  0  0  0  0  0  0  0  0  0
   41.6900   22.5460   36.8960 C   0  0  0  0  0  0  0  0  0  0  0  0
   40.5420   22.3010   37.5730 N   0  0  0  0  0  0  0  0  0  0  0  0
   38.4800   22.7520   37.7420 H   0  0  0  0  0  0  0  0  0  0  0  0
   38.5040   24.3450   35.8560 H   0  0  0  0  0  0  0  0  0  0  0  0
   42.6180   22.0500   37.1630 H   0  0  0  0  0  0  0  0  0  0  0  0
   40.5410   26.4500   34.8030 C   0  0  0  0  0  0  0  0  0  0  0  0
   40.4510   26.4170   35.9060 H   0  0  0  0  0  0  0  0  0  0  0  0
   41.3730   27.0920   34.4380 H   0  0  0  0  0  0  0  0  0  0  0  0
   38.5480   27.1830   36.5440 F   0  0  0  0  0  0  0  0  0  0  0  0
   38.2960   27.2970   35.1990 C   0  0  0  0  0  0  0  0  0  0  0  0
   39.2410   26.9500   34.2280 C   0  0  0  0  0  0  0  0  0  0  0  0
   38.8720   27.1080   32.9030 C   0  0  0  0  0  0  0  0  0  0  0  0
   39.6540   26.8190   32.2270 H   0  0  0  0  0  0  0  0  0  0  0  0
   37.6340   27.5840   32.6150 C   0  0  0  0  0  0  0  0  0  0  0  0
   37.3830   27.6920   31.5530 H   0  0  0  0  0  0  0  0  0  0  0  0
   36.7000   27.9260   33.5790 C   0  0  0  0  0  3  0  0  0  0  0  0
   37.0560   27.7730   34.9040 C   0  0  0  0  0  3  0  0  0  0  0  0
  1 13  1  0  0  0  0
  1  6  1  0  0  0  0
  2  1  1  0  0  0  0
  3  1  1  0  0  0  0
  4  9  1  0  0  0  0
  4 10  1  0  0  0  0
  5  4  2  0  0  0  0
  6  7  2  0  0  0  0
  6  5  1  0  0  0  0
  7  8  1  0  0  0  0
  8 12  1  0  0  0  0
  8  9  2  0  0  0  0
 11  5  1  0  0  0  0
 13 14  1  0  0  0  0
 15 13  1  0  0  0  0
 17 16  1  0  0  0  0
 18 13  1  0  0  0  0
 18 17  2  0  0  0  0
 19 18  1  0  0  0  0
 20 19  1  0  0  0  0
 21 19  2  0  0  0  0
 21 23  1  0  0  0  0
 22 21  1  0  0  0  0
 23 24  2  0  0  0  0
 24 17  1  0  0  0  0
M  END
>  <minimizedAffinity>
-4.45841312

$$$$

 OpenBabel03272509253D

 24 25  0  0  0  0  0  0  0  0999 V2000
   38.6930   24.7810   34.6530 C   0  0  0  0  0  0  0  0  0  0  0  0
   39.3850   24.1350   34.0740 H   0  0  0  0  0  0  0  0  0  0  0  0
   37.6560   24.7450   34.3170 H   0  0  0  0  0  0  0  0  0  0  0  0
   38.0030   24.0710   38.3250 C   0  0  0  0  0  0  0  0  0  0  0  0
   37.8640   24.6210   37.0320 C   0  0  0  0  0  0  0  0  0  0  0  0
   38.7650   24.2530   36.0520 C   0  0  0  0  0  0  0  0  0  0  0  0
   39.7630   23.3640   36.3710 N   0  0  0  0  0  0  0  0  0  0  0  0
   39.8650   22.8610   37.6100 C   0  0  0  0  0  0  0  0  0  0  0  0
   38.9940   23.2050   38.5900 N   0  0  0  0  0  0  0  0  0  0  0  0
   37.2950   24.3620   39.0950 H   0  0  0  0  0  0  0  0  0  0  0  0
   37.0660   25.3160   36.8280 H   0  0  0  0  0  0  0  0  0  0  0  0
   40.6750   22.1630   37.7950 H   0  0  0  0  0  0  0  0  0  0  0  0
   39.2670   26.1900   34.6090 C   0  0  0  0  0  0  0  0  0  0  0  0
   39.5520   26.4710   35.6420 H   0  0  0  0  0  0  0  0  0  0  0  0
   40.1020   26.2580   33.8780 H   0  0  0  0  0  0  0  0  0  0  0  0
   39.0630   26.7750   31.9340 F   0  0  0  0  0  0  0  0  0  0  0  0
   38.1280   27.3180   32.7800 C   0  0  0  0  0  0  0  0  0  0  0  0
   38.1410   27.0850   34.1600 C   0  0  0  0  0  0  0  0  0  0  0  0
   37.1470   27.6870   34.9110 C   0  0  0  0  0  0  0  0  0  0  0  0
   37.2320   27.4570   35.9560 H   0  0  0  0  0  0  0  0  0  0  0  0
   36.2240   28.4610   34.2850 C   0  0  0  0  0  0  0  0  0  0  0  0
   35.4550   28.9200   34.9180 H   0  0  0  0  0  0  0  0  0  0  0  0
   36.2140   28.6900   32.9190 C   0  0  0  0  0  3  0  0  0  0  0  0
   37.2000   28.0950   32.1580 C   0  0  0  0  0  3  0  0  0  0  0  0
  1  6  1  0  0  0  0
  2  1  1  0  0  0  0
  3  1  1  0  0  0  0
  4  9  1  0  0  0  0
  4 10  1  0  0  0  0
  5  4  2  0  0  0  0
  6  7  2  0  0  0  0
  6  5  1  0  0  0  0
  7  8  1  0  0  0  0
  8 12  1  0  0  0  0
  8  9  2  0  0  0  0
 11  5  1  0  0  0  0
 13  1  1  0  0  0  0
 13 14  1  0  0  0  0
 15 13  1  0  0  0  0
 16 17  1  0  0  0  0
 17 18  1  0  0  0  0
 18 13  1  0  0  0  0
 18 19  2  0  0  0  0
 19 20  1  0  0  0  0
 21 19  1  0  0  0  0
 21 22  1  0  0  0  0
 23 21  2  0  0  0  0
 24 17  2  0  0  0  0
 24 23  1  0  0  0  0
M  END
>  <minimizedAffinity>
-4.42282248

$$$$

 OpenBabel03272509253D

 24 25  0  0  0  0  0  0  0  0999 V2000
   38.3750   25.9580   34.3870 C   0  0  0  0  0  0  0  0  0  0  0  0
   39.2840   26.4850   34.0310 H   0  0  0  0  0  0  0  0  0  0  0  0
   37.9480   26.3670   35.3040 H   0  0  0  0  0  0  0  0  0  0  0  0
   35.9330   27.4210   31.8650 C   0  0  0  0  0  0  0  0  0  0  0  0
   36.8620   27.3540   32.9270 C   0  0  0  0  0  0  0  0  0  0  0  0
   37.3820   26.1250   33.2790 C   0  0  0  0  0  0  0  0  0  0  0  0
   36.9780   25.0110   32.5830 N   0  0  0  0  0  0  0  0  0  0  0  0
   36.0950   25.1120   31.5800 C   0  0  0  0  0  0  0  0  0  0  0  0
   35.5680   26.3050   31.2130 N   0  0  0  0  0  0  0  0  0  0  0  0
   35.5240   28.3880   31.5900 H   0  0  0  0  0  0  0  0  0  0  0  0
   37.1480   28.2540   33.4450 H   0  0  0  0  0  0  0  0  0  0  0  0
   35.8190   24.1940   31.0690 H   0  0  0  0  0  0  0  0  0  0  0  0
   38.7450   24.4880   34.5260 C   0  0  0  0  0  0  0  0  0  0  0  0
   37.9670   23.8950   34.0050 H   0  0  0  0  0  0  0  0  0  0  0  0
   39.7760   24.3000   34.1560 H   0  0  0  0  0  0  0  0  0  0  0  0
   40.5880   22.7380   35.5640 F   0  0  0  0  0  0  0  0  0  0  0  0
   39.6650   23.2780   36.4240 C   0  0  0  0  0  0  0  0  0  0  0  0
   38.6820   24.1790   35.9990 C   0  0  0  0  0  0  0  0  0  0  0  0
   37.8060   24.6570   36.9580 C   0  0  0  0  0  0  0  0  0  0  0  0
   37.0870   25.3400   36.5470 H   0  0  0  0  0  0  0  0  0  0  0  0
   37.9400   24.2370   38.2420 C   0  0  0  0  0  0  0  0  0  0  0  0
   37.2240   24.6400   38.9690 H   0  0  0  0  0  0  0  0  0  0  0  0
   38.9130   23.3450   38.6600 C   0  0  0  0  0  3  0  0  0  0  0  0
   39.7930   22.8610   37.7130 C   0  0  0  0  0  3  0  0  0  0  0  0
  1 13  1  0  0  0  0
  1  3  1  0  0  0  0
  2  1  1  0  0  0  0
  4  5  1  0  0  0  0
  5  6  2  0  0  0  0
  5 11  1  0  0  0  0
  6  1  1  0  0  0  0
  7  6  1  0  0  0  0
  8  7  2  0  0  0  0
  9  8  1  0  0  0  0
  9  4  2  0  0  0  0
 10  4  1  0  0  0  0
 12  8  1  0  0  0  0
 13 18  1  0  0  0  0
 14 13  1  0  0  0  0
 15 13  1  0  0  0  0
 16 17  1  0  0  0  0
 17 24  1  0  0  0  0
 18 17  2  0  0  0  0
 18 19  1  0  0  0  0
 19 21  2  0  0  0  0
 20 19  1  0  0  0  0
 21 23  1  0  0  0  0
 21 22  1  0  0  0  0
 24 23  2  0  0  0  0
M  END
>  <minimizedAffinity>
-4.41568851

$$$$

 OpenBabel03272509253D

 24 25  0  0  0  0  0  0  0  0999 V2000
   38.8450   24.4770   34.5890 C   0  0  0  0  0  0  0  0  0  0  0  0
   39.5830   23.8150   34.0910 H   0  0  0  0  0  0  0  0  0  0  0  0
   37.8320   24.3980   34.1940 H   0  0  0  0  0  0  0  0  0  0  0  0
   37.8880   23.8770   38.2190 C   0  0  0  0  0  0  0  0  0  0  0  0
   37.8120   24.3400   36.8870 C   0  0  0  0  0  0  0  0  0  0  0  0
   38.8410   24.0340   36.0180 C   0  0  0  0  0  0  0  0  0  0  0  0
   39.9000   23.2910   36.4810 N   0  0  0  0  0  0  0  0  0  0  0  0
   39.9380   22.8680   37.7530 C   0  0  0  0  0  0  0  0  0  0  0  0
   38.9420   23.1530   38.6270 N   0  0  0  0  0  0  0  0  0  0  0  0
   37.0790   24.1190   38.9020 H   0  0  0  0  0  0  0  0  0  0  0  0
   36.9630   24.9210   36.5690 H   0  0  0  0  0  0  0  0  0  0  0  0
   40.8020   22.2840   38.0550 H   0  0  0  0  0  0  0  0  0  0  0  0
   39.3940   25.8940   34.4940 C   0  0  0  0  0  0  0  0  0  0  0  0
   39.6100   26.2410   35.5240 H   0  0  0  0  0  0  0  0  0  0  0  0
   40.2710   25.9380   33.8110 H   0  0  0  0  0  0  0  0  0  0  0  0
   37.9660   27.4910   36.2120 F   0  0  0  0  0  0  0  0  0  0  0  0
   37.6190   27.5110   34.8840 C   0  0  0  0  0  0  0  0  0  0  0  0
   38.2810   26.7350   33.9250 C   0  0  0  0  0  0  0  0  0  0  0  0
   37.8420   26.8400   32.6170 C   0  0  0  0  0  0  0  0  0  0  0  0
   38.4030   26.2130   31.9500 H   0  0  0  0  0  0  0  0  0  0  0  0
   36.8100   27.6740   32.3320 C   0  0  0  0  0  0  0  0  0  0  0  0
   36.4940   27.7250   31.2820 H   0  0  0  0  0  0  0  0  0  0  0  0
   36.1560   28.4400   33.2830 C   0  0  0  0  0  3  0  0  0  0  0  0
   36.5850   28.3450   34.5910 C   0  0  0  0  0  3  0  0  0  0  0  0
  1  6  1  0  0  0  0
  2  1  1  0  0  0  0
  3  1  1  0  0  0  0
  4  9  1  0  0  0  0
  4 10  1  0  0  0  0
  5  4  2  0  0  0  0
  6  7  2  0  0  0  0
  6  5  1  0  0  0  0
  7  8  1  0  0  0  0
  8 12  1  0  0  0  0
  8  9  2  0  0  0  0
 11  5  1  0  0  0  0
 13  1  1  0  0  0  0
 13 14  1  0  0  0  0
 15 13  1  0  0  0  0
 17 16  1  0  0  0  0
 18 13  1  0  0  0  0
 18 17  2  0  0  0  0
 19 18  1  0  0  0  0
 20 19  1  0  0  0  0
 21 19  2  0  0  0  0
 21 23  1  0  0  0  0
 22 21  1  0  0  0  0
 23 24  2  0  0  0  0
 24 17  1  0  0  0  0
M  END
>  <minimizedAffinity>
-4.39540815

$$$$

 OpenBabel03272509253D

 24 25  0  0  0  0  0  0  0  0999 V2000
   38.6290   26.7490   35.5280 C   0  0  0  0  0  0  0  0  0  0  0  0
   39.6890   26.4230   35.5330 H   0  0  0  0  0  0  0  0  0  0  0  0
   38.4220   27.6150   36.1580 H   0  0  0  0  0  0  0  0  0  0  0  0
   38.9440   27.3280   31.7830 C   0  0  0  0  0  0  0  0  0  0  0  0
   39.2920   26.9630   33.1020 C   0  0  0  0  0  0  0  0  0  0  0  0
   38.3520   27.1140   34.1030 C   0  0  0  0  0  0  0  0  0  0  0  0
   37.1140   27.6130   33.7780 N   0  0  0  0  0  0  0  0  0  0  0  0
   36.8180   27.9490   32.5140 C   0  0  0  0  0  0  0  0  0  0  0  0
   37.7210   27.8110   31.5130 N   0  0  0  0  0  0  0  0  0  0  0  0
   39.6840   27.2100   30.9970 H   0  0  0  0  0  0  0  0  0  0  0  0
   40.2760   26.5770   33.3100 H   0  0  0  0  0  0  0  0  0  0  0  0
   35.8220   28.3350   32.3250 H   0  0  0  0  0  0  0  0  0  0  0  0
   37.7940   25.5370   35.9170 C   0  0  0  0  0  0  0  0  0  0  0  0
   37.1770   25.8200   36.7920 H   0  0  0  0  0  0  0  0  0  0  0  0
   37.2030   25.1660   35.0510 H   0  0  0  0  0  0  0  0  0  0  0  0
   37.4970   24.4150   38.4050 F   0  0  0  0  0  0  0  0  0  0  0  0
   38.5330   23.9690   37.6220 C   0  0  0  0  0  0  0  0  0  0  0  0
   38.7740   24.4740   36.3400 C   0  0  0  0  0  0  0  0  0  0  0  0
   39.8490   23.9460   35.6460 C   0  0  0  0  0  0  0  0  0  0  0  0
   39.9610   24.3890   34.6740 H   0  0  0  0  0  0  0  0  0  0  0  0
   40.6030   22.9820   36.2310 C   0  0  0  0  0  0  0  0  0  0  0  0
   41.4460   22.5920   35.6460 H   0  0  0  0  0  0  0  0  0  0  0  0
   40.3630   22.4840   37.5010 C   0  0  0  0  0  3  0  0  0  0  0  0
   39.2940   23.0020   38.2040 C   0  0  0  0  0  3  0  0  0  0  0  0
  1  2  1  0  0  0  0
  1 13  1  0  0  0  0
  1  3  1  0  0  0  0
  4  5  1  0  0  0  0
  5 11  1  0  0  0  0
  5  6  2  0  0  0  0
  6  1  1  0  0  0  0
  7  6  1  0  0  0  0
  8  7  2  0  0  0  0
  9  4  2  0  0  0  0
  9  8  1  0  0  0  0
 10  4  1  0  0  0  0
 12  8  1  0  0  0  0
 13 18  1  0  0  0  0
 13 14  1  0  0  0  0
 15 13  1  0  0  0  0
 17 24  1  0  0  0  0
 17 16  1  0  0  0  0
 18 17  2  0  0  0  0
 19 21  2  0  0  0  0
 19 18  1  0  0  0  0
 20 19  1  0  0  0  0
 21 23  1  0  0  0  0
 22 21  1  0  0  0  0
 23 24  2  0  0  0  0
M  END
>  <minimizedAffinity>
-4.38552475

$$$$

 OpenBabel03272509253D

 24 25  0  0  0  0  0  0  0  0999 V2000
   38.6780   21.9230   34.2910 C   0  0  0  0  0  0  0  0  0  0  0  0
   39.5500   22.3590   33.7600 H   0  0  0  0  0  0  0  0  0  0  0  0
   38.6430   20.8330   34.2770 H   0  0  0  0  0  0  0  0  0  0  0  0
   38.0390   23.4100   37.7320 C   0  0  0  0  0  0  0  0  0  0  0  0
   37.8120   23.0140   36.3960 C   0  0  0  0  0  0  0  0  0  0  0  0
   38.8290   22.3820   35.7070 C   0  0  0  0  0  0  0  0  0  0  0  0
   40.0240   22.1620   36.3480 N   0  0  0  0  0  0  0  0  0  0  0  0
   40.2050   22.5520   37.6180 C   0  0  0  0  0  0  0  0  0  0  0  0
   39.2240   23.1730   38.3170 N   0  0  0  0  0  0  0  0  0  0  0  0
   37.2390   23.9070   38.2720 H   0  0  0  0  0  0  0  0  0  0  0  0
   36.8590   23.2090   35.9340 H   0  0  0  0  0  0  0  0  0  0  0  0
   41.1720   22.3460   38.0660 H   0  0  0  0  0  0  0  0  0  0  0  0
   37.4330   22.5510   33.6800 C   0  0  0  0  0  0  0  0  0  0  0  0
   36.7470   22.8130   34.5090 H   0  0  0  0  0  0  0  0  0  0  0  0
   37.6990   23.4110   33.0280 H   0  0  0  0  0  0  0  0  0  0  0  0
   35.6770   20.8310   34.9040 F   0  0  0  0  0  0  0  0  0  0  0  0
   35.9140   20.6560   33.5630 C   0  0  0  0  0  0  0  0  0  0  0  0
   36.7910   21.4750   32.8440 C   0  0  0  0  0  0  0  0  0  0  0  0
   36.9480   21.2010   31.4960 C   0  0  0  0  0  0  0  0  0  0  0  0
   37.6360   21.8760   31.0230 H   0  0  0  0  0  0  0  0  0  0  0  0
   36.2580   20.1690   30.9480 C   0  0  0  0  0  0  0  0  0  0  0  0
   36.4140   19.9870   29.8770 H   0  0  0  0  0  0  0  0  0  0  0  0
   35.3910   19.3590   31.6620 C   0  0  0  0  0  3  0  0  0  0  0  0
   35.2250   19.6230   33.0070 C   0  0  0  0  0  3  0  0  0  0  0  0
  1  6  1  0  0  0  0
  2  1  1  0  0  0  0
  3  1  1  0  0  0  0
  4 10  1  0  0  0  0
  4  9  1  0  0  0  0
  5  4  2  0  0  0  0
  6  7  2  0  0  0  0
  6  5  1  0  0  0  0
  7  8  1  0  0  0  0
  8 12  1  0  0  0  0
  8  9  2  0  0  0  0
 11  5  1  0  0  0  0
 13  1  1  0  0  0  0
 13 14  1  0  0  0  0
 15 13  1  0  0  0  0
 17 16  1  0  0  0  0
 18 17  2  0  0  0  0
 18 13  1  0  0  0  0
 19 18  1  0  0  0  0
 20 19  1  0  0  0  0
 21 19  2  0  0  0  0
 21 23  1  0  0  0  0
 22 21  1  0  0  0  0
 23 24  2  0  0  0  0
 24 17  1  0  0  0  0
M  END
>  <minimizedAffinity>
-4.37253571

$$$$

 OpenBabel03272509253D

 24 25  0  0  0  0  0  0  0  0999 V2000
   38.8770   22.0330   34.3040 C   0  0  0  0  0  0  0  0  0  0  0  0
   39.8560   22.3350   33.8780 H   0  0  0  0  0  0  0  0  0  0  0  0
   38.6820   20.9600   34.2670 H   0  0  0  0  0  0  0  0  0  0  0  0
   38.0120   23.4220   37.7370 C   0  0  0  0  0  0  0  0  0  0  0  0
   37.8690   23.0510   36.3820 C   0  0  0  0  0  0  0  0  0  0  0  0
   38.9380   22.4620   35.7370 C   0  0  0  0  0  0  0  0  0  0  0  0
   40.1020   22.2570   36.4370 N   0  0  0  0  0  0  0  0  0  0  0  0
   40.2030   22.6210   37.7240 C   0  0  0  0  0  0  0  0  0  0  0  0
   39.1690   23.2010   38.3810 N   0  0  0  0  0  0  0  0  0  0  0  0
   37.1710   23.8860   38.2430 H   0  0  0  0  0  0  0  0  0  0  0  0
   36.9370   23.2330   35.8720 H   0  0  0  0  0  0  0  0  0  0  0  0
   41.1490   22.4300   38.2200 H   0  0  0  0  0  0  0  0  0  0  0  0
   37.8130   22.8400   33.5740 C   0  0  0  0  0  0  0  0  0  0  0  0
   37.3390   23.5180   34.3110 H   0  0  0  0  0  0  0  0  0  0  0  0
   38.2440   23.3660   32.6940 H   0  0  0  0  0  0  0  0  0  0  0  0
   37.0320   22.9310   30.9430 F   0  0  0  0  0  0  0  0  0  0  0  0
   36.4590   21.9770   31.7470 C   0  0  0  0  0  0  0  0  0  0  0  0
   36.7850   21.8450   33.1020 C   0  0  0  0  0  0  0  0  0  0  0  0
   36.1420   20.8460   33.8110 C   0  0  0  0  0  0  0  0  0  0  0  0
   36.4500   20.8160   34.8390 H   0  0  0  0  0  0  0  0  0  0  0  0
   35.2420   20.0570   33.1710 C   0  0  0  0  0  0  0  0  0  0  0  0
   34.7550   19.2780   33.7720 H   0  0  0  0  0  0  0  0  0  0  0  0
   34.9200   20.1900   31.8300 C   0  0  0  0  0  3  0  0  0  0  0  0
   35.5560   21.1830   31.1120 C   0  0  0  0  0  3  0  0  0  0  0  0
  1  6  1  0  0  0  0
  2  1  1  0  0  0  0
  3  1  1  0  0  0  0
  4 10  1  0  0  0  0
  4  9  1  0  0  0  0
  5  4  2  0  0  0  0
  6  5  1  0  0  0  0
  6  7  2  0  0  0  0
  7  8  1  0  0  0  0
  8 12  1  0  0  0  0
  8  9  2  0  0  0  0
 11  5  1  0  0  0  0
 13  1  1  0  0  0  0
 13 14  1  0  0  0  0
 15 13  1  0  0  0  0
 16 17  1  0  0  0  0
 17 18  1  0  0  0  0
 18 13  1  0  0  0  0
 18 19  2  0  0  0  0
 19 20  1  0  0  0  0
 21 22  1  0  0  0  0
 21 19  1  0  0  0  0
 23 21  2  0  0  0  0
 24 17  2  0  0  0  0
 24 23  1  0  0  0  0
M  END
>  <minimizedAffinity>
-4.36283255

$$$$
