
 OpenBabel03272507593D

 32 34  0  0  0  0  0  0  0  0999 V2000
   39.8890   24.7260   34.8330 C   0  0  0  0  0  0  0  0  0  0  0  0
   40.5690   25.9220   34.9270 C   0  0  0  0  0  0  0  0  0  0  0  0
   40.1220   27.0030   34.1740 C   0  0  0  0  0  0  0  0  0  0  0  0
   39.0120   26.8570   33.3520 C   0  0  0  0  0  0  0  0  0  0  0  0
   38.3640   25.6480   33.2880 C   0  0  0  0  0  0  0  0  0  0  0  0
   38.8260   24.6360   34.0260 N   0  0  0  0  0  0  0  0  0  0  0  0
   41.4380   26.1330   35.5360 H   0  0  0  0  0  0  0  0  0  0  0  0
   40.6220   27.9830   34.2070 H   0  0  0  0  0  0  0  0  0  0  0  0
   38.7020   27.7030   32.7930 H   0  0  0  0  0  0  0  0  0  0  0  0
   40.3830   22.2330   37.6050 C   0  0  0  0  0  0  0  0  0  0  0  0
   39.7810   23.2420   36.8080 C   0  0  0  0  0  0  0  0  0  0  0  0
   40.4760   23.6870   35.6810 C   0  0  0  0  0  0  0  0  0  0  0  0
   41.6970   23.1280   35.4060 N   0  0  0  0  0  0  0  0  0  0  0  0
   42.2270   22.1610   36.2080 C   0  0  0  0  0  0  0  0  0  0  0  0
   41.5780   21.7190   37.2930 N   0  0  0  0  0  0  0  0  0  0  0  0
   43.4960   21.7410   35.7180 N   0  0  0  0  0  0  0  0  0  0  0  0
   39.8530   21.8800   38.4830 H   0  0  0  0  0  0  0  0  0  0  0  0
   44.4040   22.2670   35.7530 H   0  0  0  0  0  0  0  0  0  0  0  0
   43.4110   20.7990   35.2970 H   0  0  0  0  0  0  0  0  0  0  0  0
   38.4530   23.7740   37.2040 C   0  0  0  0  0  0  0  0  0  0  0  0
   37.4450   23.2890   36.3680 F   0  0  0  0  0  0  0  0  0  0  0  0
   38.1760   23.3760   38.4750 F   0  0  0  0  0  0  0  0  0  0  0  0
   38.3880   25.1530   37.1570 F   0  0  0  0  0  0  0  0  0  0  0  0
   36.8170   27.7680   32.4330 F   0  0  0  0  0  0  0  0  0  0  0  0
   36.4420   26.5250   32.0280 C   0  0  0  0  0  0  0  0  0  0  0  0
   37.1960   25.4470   32.4390 C   0  0  0  0  0  0  0  0  0  0  0  0
   36.7560   24.2230   31.9900 C   0  0  0  0  0  0  0  0  0  0  0  0
   37.2950   23.3420   32.2720 H   0  0  0  0  0  0  0  0  0  0  0  0
   35.6390   24.0810   31.1840 C   0  0  0  0  0  0  0  0  0  0  0  0
   35.3420   23.0770   30.8610 H   0  0  0  0  0  0  0  0  0  0  0  0
   34.9190   25.1870   30.8000 C   0  0  0  0  0  3  0  0  0  0  0  0
   35.3450   26.4000   31.2380 C   0  0  0  0  0  3  0  0  0  0  0  0
  1  2  1  0  0  0  0
  1 12  1  0  0  0  0
  2  7  1  0  0  0  0
  3  8  1  0  0  0  0
  3  2  2  0  0  0  0
  4  3  1  0  0  0  0
  5  4  2  0  0  0  0
  5  6  1  0  0  0  0
  6  1  2  0  0  0  0
  9  4  1  0  0  0  0
 10 17  1  0  0  0  0
 11 20  1  0  0  0  0
 11 10  2  0  0  0  0
 12 11  1  0  0  0  0
 13 12  2  0  0  0  0
 13 14  1  0  0  0  0
 14 15  2  0  0  0  0
 15 10  1  0  0  0  0
 16 18  1  0  0  0  0
 16 14  1  0  0  0  0
 19 16  1  0  0  0  0
 20 22  1  0  0  0  0
 21 20  1  0  0  0  0
 23 20  1  0  0  0  0
 25 24  1  0  0  0  0
 25 26  1  0  0  0  0
 26  5  1  0  0  0  0
 27 28  1  0  0  0  0
 27 26  2  0  0  0  0
 29 27  1  0  0  0  0
 30 29  1  0  0  0  0
 31 29  2  0  0  0  0
 31 32  1  0  0  0  0
 32 25  2  0  0  0  0
M  END
>  <minimizedAffinity>
-6.20192051

$$$$

 OpenBabel03272507593D

 32 34  0  0  0  0  0  0  0  0999 V2000
   36.7360   27.5190   32.7460 C   0  0  0  0  0  0  0  0  0  0  0  0
   36.9990   28.0750   31.5110 C   0  0  0  0  0  0  0  0  0  0  0  0
   36.6550   29.4040   31.2920 C   0  0  0  0  0  0  0  0  0  0  0  0
   36.0610   30.1390   32.3110 C   0  0  0  0  0  0  0  0  0  0  0  0
   35.8170   29.5460   33.5250 C   0  0  0  0  0  0  0  0  0  0  0  0
   36.1610   28.2680   33.6930 N   0  0  0  0  0  0  0  0  0  0  0  0
   37.4560   27.5880   30.6600 H   0  0  0  0  0  0  0  0  0  0  0  0
   36.8400   29.9030   30.3290 H   0  0  0  0  0  0  0  0  0  0  0  0
   35.8140   31.1490   32.1060 H   0  0  0  0  0  0  0  0  0  0  0  0
   38.6770   24.4090   33.5860 C   0  0  0  0  0  0  0  0  0  0  0  0
   38.3060   25.7790   33.5330 C   0  0  0  0  0  0  0  0  0  0  0  0
   37.1520   26.1180   32.8230 C   0  0  0  0  0  0  0  0  0  0  0  0
   36.4430   25.1140   32.2170 N   0  0  0  0  0  0  0  0  0  0  0  0
   36.8460   23.8150   32.3000 C   0  0  0  0  0  0  0  0  0  0  0  0
   37.9490   23.4670   32.9760 N   0  0  0  0  0  0  0  0  0  0  0  0
   35.9500   22.9630   31.5940 N   0  0  0  0  0  0  0  0  0  0  0  0
   39.5710   24.1350   34.1340 H   0  0  0  0  0  0  0  0  0  0  0  0
   35.8460   22.8630   30.5530 H   0  0  0  0  0  0  0  0  0  0  0  0
   35.3800   22.4220   32.2680 H   0  0  0  0  0  0  0  0  0  0  0  0
   39.1540   26.7800   34.2290 C   0  0  0  0  0  0  0  0  0  0  0  0
   40.1930   26.1620   34.9290 F   0  0  0  0  0  0  0  0  0  0  0  0
   39.7020   27.6160   33.3080 F   0  0  0  0  0  0  0  0  0  0  0  0
   38.4490   27.5410   35.1420 F   0  0  0  0  0  0  0  0  0  0  0  0
   33.1220   29.3110   34.0750 F   0  0  0  0  0  0  0  0  0  0  0  0
   33.8470   30.1390   34.8750 C   0  0  0  0  0  0  0  0  0  0  0  0
   35.1960   30.2760   34.6230 C   0  0  0  0  0  0  0  0  0  0  0  0
   35.8620   31.1300   35.4720 C   0  0  0  0  0  0  0  0  0  0  0  0
   36.9120   31.2840   35.3350 H   0  0  0  0  0  0  0  0  0  0  0  0
   35.2280   31.8030   36.5030 C   0  0  0  0  0  0  0  0  0  0  0  0
   35.8180   32.4690   37.1440 H   0  0  0  0  0  0  0  0  0  0  0  0
   33.8810   31.6340   36.7150 C   0  0  0  0  0  3  0  0  0  0  0  0
   33.2130   30.7930   35.8820 C   0  0  0  0  0  3  0  0  0  0  0  0
  1 12  1  0  0  0  0
  1  6  1  0  0  0  0
  2  1  2  0  0  0  0
  3  2  1  0  0  0  0
  3  4  2  0  0  0  0
  4  5  1  0  0  0  0
  5  6  2  0  0  0  0
  5 26  1  0  0  0  0
  7  2  1  0  0  0  0
  8  3  1  0  0  0  0
  9  4  1  0  0  0  0
 10 17  1  0  0  0  0
 11 10  1  0  0  0  0
 11 20  1  0  0  0  0
 12 11  2  0  0  0  0
 13 14  2  0  0  0  0
 13 12  1  0  0  0  0
 14 15  1  0  0  0  0
 15 10  2  0  0  0  0
 16 19  1  0  0  0  0
 16 14  1  0  0  0  0
 18 16  1  0  0  0  0
 20 21  1  0  0  0  0
 20 23  1  0  0  0  0
 22 20  1  0  0  0  0
 24 25  1  0  0  0  0
 25 32  1  0  0  0  0
 26 25  2  0  0  0  0
 26 27  1  0  0  0  0
 27 29  2  0  0  0  0
 28 27  1  0  0  0  0
 29 31  1  0  0  0  0
 29 30  1  0  0  0  0
 32 31  2  0  0  0  0
M  END
>  <minimizedAffinity>
-6.01392269

$$$$

 OpenBabel03272507593D

 32 34  0  0  0  0  0  0  0  0999 V2000
   37.3110   25.1460   32.5260 C   0  0  0  0  0  0  0  0  0  0  0  0
   36.4730   26.0260   31.8750 C   0  0  0  0  0  0  0  0  0  0  0  0
   35.4250   25.5110   31.1180 C   0  0  0  0  0  0  0  0  0  0  0  0
   35.2460   24.1350   31.0360 C   0  0  0  0  0  0  0  0  0  0  0  0
   36.1060   23.2950   31.7000 C   0  0  0  0  0  0  0  0  0  0  0  0
   37.0980   23.8310   32.4140 N   0  0  0  0  0  0  0  0  0  0  0  0
   36.5290   27.1060   31.8790 H   0  0  0  0  0  0  0  0  0  0  0  0
   34.7220   26.1620   30.5760 H   0  0  0  0  0  0  0  0  0  0  0  0
   34.4380   23.7810   30.4500 H   0  0  0  0  0  0  0  0  0  0  0  0
   40.6510   26.5620   33.5210 C   0  0  0  0  0  0  0  0  0  0  0  0
   39.6590   25.8830   32.7630 C   0  0  0  0  0  0  0  0  0  0  0  0
   38.3610   25.8350   33.2780 C   0  0  0  0  0  0  0  0  0  0  0  0
   38.1160   26.4410   34.4820 N   0  0  0  0  0  0  0  0  0  0  0  0
   39.1070   27.0790   35.1670 C   0  0  0  0  0  0  0  0  0  0  0  0
   40.3580   27.1390   34.6930 N   0  0  0  0  0  0  0  0  0  0  0  0
   38.6070   27.6260   36.3820 N   0  0  0  0  0  0  0  0  0  0  0  0
   41.6610   26.6060   33.1320 H   0  0  0  0  0  0  0  0  0  0  0  0
   38.3370   27.1100   37.2560 H   0  0  0  0  0  0  0  0  0  0  0  0
   38.5380   28.6560   36.2970 H   0  0  0  0  0  0  0  0  0  0  0  0
   40.0430   25.2630   31.4710 C   0  0  0  0  0  0  0  0  0  0  0  0
   39.2690   25.7620   30.4210 F   0  0  0  0  0  0  0  0  0  0  0  0
   41.3470   25.5510   31.2090 F   0  0  0  0  0  0  0  0  0  0  0  0
   39.8920   23.8900   31.4660 F   0  0  0  0  0  0  0  0  0  0  0  0
   37.8740   21.7180   30.2840 F   0  0  0  0  0  0  0  0  0  0  0  0
   36.8570   21.0840   30.9270 C   0  0  0  0  0  0  0  0  0  0  0  0
   35.9590   21.8460   31.6420 C   0  0  0  0  0  0  0  0  0  0  0  0
   34.9590   21.1350   32.2650 C   0  0  0  0  0  0  0  0  0  0  0  0
   34.2250   21.6640   32.8390 H   0  0  0  0  0  0  0  0  0  0  0  0
   34.8590   19.7560   32.1820 C   0  0  0  0  0  0  0  0  0  0  0  0
   34.0380   19.2510   32.7030 H   0  0  0  0  0  0  0  0  0  0  0  0
   35.7800   19.0390   31.4560 C   0  0  0  0  0  3  0  0  0  0  0  0
   36.7710   19.7310   30.8370 C   0  0  0  0  0  3  0  0  0  0  0  0
  1 12  1  0  0  0  0
  2  7  1  0  0  0  0
  2  1  2  0  0  0  0
  3  2  1  0  0  0  0
  4  3  2  0  0  0  0
  4  5  1  0  0  0  0
  5  6  2  0  0  0  0
  6  1  1  0  0  0  0
  8  3  1  0  0  0  0
  9  4  1  0  0  0  0
 10 15  1  0  0  0  0
 11 12  1  0  0  0  0
 11 10  2  0  0  0  0
 12 13  2  0  0  0  0
 13 14  1  0  0  0  0
 14 16  1  0  0  0  0
 15 14  2  0  0  0  0
 16 18  1  0  0  0  0
 17 10  1  0  0  0  0
 19 16  1  0  0  0  0
 20 11  1  0  0  0  0
 21 20  1  0  0  0  0
 22 20  1  0  0  0  0
 23 20  1  0  0  0  0
 24 25  1  0  0  0  0
 25 26  1  0  0  0  0
 26  5  1  0  0  0  0
 26 27  2  0  0  0  0
 27 28  1  0  0  0  0
 29 27  1  0  0  0  0
 29 30  1  0  0  0  0
 31 29  2  0  0  0  0
 32 25  2  0  0  0  0
 32 31  1  0  0  0  0
M  END
>  <minimizedAffinity>
-5.95527124

$$$$

 OpenBabel03272507593D

 32 34  0  0  0  0  0  0  0  0999 V2000
   37.7120   25.4070   32.3750 C   0  0  0  0  0  0  0  0  0  0  0  0
   36.8240   26.3360   31.8750 C   0  0  0  0  0  0  0  0  0  0  0  0
   35.6450   25.8840   31.2920 C   0  0  0  0  0  0  0  0  0  0  0  0
   35.3880   24.5190   31.2270 C   0  0  0  0  0  0  0  0  0  0  0  0
   36.3010   23.6290   31.7370 C   0  0  0  0  0  0  0  0  0  0  0  0
   37.4200   24.1060   32.2870 N   0  0  0  0  0  0  0  0  0  0  0  0
   36.9320   27.4120   31.8790 H   0  0  0  0  0  0  0  0  0  0  0  0
   34.8970   26.5750   30.8760 H   0  0  0  0  0  0  0  0  0  0  0  0
   34.4800   24.2130   30.7760 H   0  0  0  0  0  0  0  0  0  0  0  0
   40.1650   26.8010   34.8630 C   0  0  0  0  0  0  0  0  0  0  0  0
   38.9950   26.1890   34.3390 C   0  0  0  0  0  0  0  0  0  0  0  0
   38.9010   26.0340   32.9540 C   0  0  0  0  0  0  0  0  0  0  0  0
   39.9390   26.4820   32.1780 N   0  0  0  0  0  0  0  0  0  0  0  0
   41.0380   27.0630   32.7360 C   0  0  0  0  0  0  0  0  0  0  0  0
   41.1500   27.2210   34.0610 N   0  0  0  0  0  0  0  0  0  0  0  0
   41.9730   27.4410   31.7300 N   0  0  0  0  0  0  0  0  0  0  0  0
   40.2480   26.9260   35.9370 H   0  0  0  0  0  0  0  0  0  0  0  0
   41.8970   28.2390   31.0500 H   0  0  0  0  0  0  0  0  0  0  0  0
   42.7840   26.7980   31.7500 H   0  0  0  0  0  0  0  0  0  0  0  0
   37.9350   25.7440   35.2780 C   0  0  0  0  0  0  0  0  0  0  0  0
   37.7490   24.3610   35.2110 F   0  0  0  0  0  0  0  0  0  0  0  0
   38.3050   26.0600   36.5480 F   0  0  0  0  0  0  0  0  0  0  0  0
   36.7090   26.3280   35.0240 F   0  0  0  0  0  0  0  0  0  0  0  0
   37.9210   21.9600   30.2500 F   0  0  0  0  0  0  0  0  0  0  0  0
   36.9020   21.3810   30.9400 C   0  0  0  0  0  0  0  0  0  0  0  0
   36.0760   22.1900   31.6910 C   0  0  0  0  0  0  0  0  0  0  0  0
   35.0690   21.5330   32.3600 C   0  0  0  0  0  0  0  0  0  0  0  0
   34.3900   22.1000   32.9630 H   0  0  0  0  0  0  0  0  0  0  0  0
   34.8940   20.1610   32.2860 C   0  0  0  0  0  0  0  0  0  0  0  0
   34.0710   19.7000   32.8440 H   0  0  0  0  0  0  0  0  0  0  0  0
   35.7430   19.3960   31.5230 C   0  0  0  0  0  3  0  0  0  0  0  0
   36.7410   20.0340   30.8580 C   0  0  0  0  0  3  0  0  0  0  0  0
  1 12  1  0  0  0  0
  2  7  1  0  0  0  0
  2  1  2  0  0  0  0
  3  2  1  0  0  0  0
  4  3  2  0  0  0  0
  4  5  1  0  0  0  0
  5  6  2  0  0  0  0
  6  1  1  0  0  0  0
  8  3  1  0  0  0  0
  9  4  1  0  0  0  0
 10 17  1  0  0  0  0
 11 10  1  0  0  0  0
 11 20  1  0  0  0  0
 12 11  2  0  0  0  0
 13 14  2  0  0  0  0
 13 12  1  0  0  0  0
 14 15  1  0  0  0  0
 15 10  2  0  0  0  0
 16 19  1  0  0  0  0
 16 14  1  0  0  0  0
 18 16  1  0  0  0  0
 20 22  1  0  0  0  0
 21 20  1  0  0  0  0
 23 20  1  0  0  0  0
 24 25  1  0  0  0  0
 25 26  1  0  0  0  0
 26  5  1  0  0  0  0
 26 27  2  0  0  0  0
 27 28  1  0  0  0  0
 29 27  1  0  0  0  0
 29 30  1  0  0  0  0
 31 29  2  0  0  0  0
 32 25  2  0  0  0  0
 32 31  1  0  0  0  0
M  END
>  <minimizedAffinity>
-5.90856075

$$$$

 OpenBabel03272507593D

 32 34  0  0  0  0  0  0  0  0999 V2000
   37.8260   21.8420   32.6710 C   0  0  0  0  0  0  0  0  0  0  0  0
   37.8740   22.9250   31.8180 C   0  0  0  0  0  0  0  0  0  0  0  0
   38.1260   24.1840   32.3530 C   0  0  0  0  0  0  0  0  0  0  0  0
   38.3230   24.3230   33.7210 C   0  0  0  0  0  0  0  0  0  0  0  0
   38.2670   23.2180   34.5350 C   0  0  0  0  0  0  0  0  0  0  0  0
   38.0210   22.0290   33.9800 N   0  0  0  0  0  0  0  0  0  0  0  0
   37.7350   22.9180   30.7450 H   0  0  0  0  0  0  0  0  0  0  0  0
   38.1760   25.0860   31.7240 H   0  0  0  0  0  0  0  0  0  0  0  0
   38.5120   25.2980   34.0920 H   0  0  0  0  0  0  0  0  0  0  0  0
   36.0170   18.8940   31.1950 C   0  0  0  0  0  0  0  0  0  0  0  0
   36.2430   20.1100   31.8910 C   0  0  0  0  0  0  0  0  0  0  0  0
   37.5520   20.5910   31.9620 C   0  0  0  0  0  0  0  0  0  0  0  0
   38.5450   19.8640   31.3590 N   0  0  0  0  0  0  0  0  0  0  0  0
   38.2710   18.7010   30.7030 C   0  0  0  0  0  0  0  0  0  0  0  0
   37.0220   18.2220   30.6220 N   0  0  0  0  0  0  0  0  0  0  0  0
   39.4600   18.1350   30.1630 N   0  0  0  0  0  0  0  0  0  0  0  0
   35.0040   18.5110   31.1340 H   0  0  0  0  0  0  0  0  0  0  0  0
   40.2370   17.6560   30.6820 H   0  0  0  0  0  0  0  0  0  0  0  0
   39.4670   18.2570   29.1350 H   0  0  0  0  0  0  0  0  0  0  0  0
   35.0870   20.8110   32.5060 C   0  0  0  0  0  0  0  0  0  0  0  0
   33.8780   20.2340   32.1100 F   0  0  0  0  0  0  0  0  0  0  0  0
   35.1790   20.7150   33.8600 F   0  0  0  0  0  0  0  0  0  0  0  0
   35.0260   22.1490   32.1680 F   0  0  0  0  0  0  0  0  0  0  0  0
   40.5050   22.1610   35.7570 F   0  0  0  0  0  0  0  0  0  0  0  0
   39.5940   22.7780   36.5580 C   0  0  0  0  0  0  0  0  0  0  0  0
   38.4670   23.3150   35.9750 C   0  0  0  0  0  0  0  0  0  0  0  0
   37.5920   23.9210   36.8480 C   0  0  0  0  0  0  0  0  0  0  0  0
   36.6950   24.3600   36.4630 H   0  0  0  0  0  0  0  0  0  0  0  0
   37.8240   23.9890   38.2110 C   0  0  0  0  0  0  0  0  0  0  0  0
   37.0880   24.4870   38.8510 H   0  0  0  0  0  0  0  0  0  0  0  0
   38.9640   23.4380   38.7460 C   0  0  0  0  0  3  0  0  0  0  0  0
   39.8340   22.8370   37.8940 C   0  0  0  0  0  3  0  0  0  0  0  0
  1  6  1  0  0  0  0
  2  3  1  0  0  0  0
  2  1  2  0  0  0  0
  3  4  2  0  0  0  0
  4  9  1  0  0  0  0
  4  5  1  0  0  0  0
  5 26  1  0  0  0  0
  6  5  2  0  0  0  0
  7  2  1  0  0  0  0
  8  3  1  0  0  0  0
 10 11  1  0  0  0  0
 11 12  2  0  0  0  0
 11 20  1  0  0  0  0
 12  1  1  0  0  0  0
 13 12  1  0  0  0  0
 14 13  2  0  0  0  0
 15 14  1  0  0  0  0
 15 10  2  0  0  0  0
 16 18  1  0  0  0  0
 16 14  1  0  0  0  0
 17 10  1  0  0  0  0
 19 16  1  0  0  0  0
 20 22  1  0  0  0  0
 21 20  1  0  0  0  0
 23 20  1  0  0  0  0
 24 25  1  0  0  0  0
 25 32  1  0  0  0  0
 26 25  2  0  0  0  0
 26 27  1  0  0  0  0
 27 29  2  0  0  0  0
 28 27  1  0  0  0  0
 29 31  1  0  0  0  0
 29 30  1  0  0  0  0
 32 31  2  0  0  0  0
M  END
>  <minimizedAffinity>
-5.8975296

$$$$

 OpenBabel03272507593D

 32 34  0  0  0  0  0  0  0  0999 V2000
   35.1760   29.2650   33.7050 C   0  0  0  0  0  0  0  0  0  0  0  0
   35.2460   29.7850   32.4290 C   0  0  0  0  0  0  0  0  0  0  0  0
   36.2360   29.3150   31.5720 C   0  0  0  0  0  0  0  0  0  0  0  0
   37.1240   28.3430   32.0140 C   0  0  0  0  0  0  0  0  0  0  0  0
   37.0190   27.8540   33.2930 C   0  0  0  0  0  0  0  0  0  0  0  0
   36.0550   28.3320   34.0830 N   0  0  0  0  0  0  0  0  0  0  0  0
   34.6030   30.5380   31.9940 H   0  0  0  0  0  0  0  0  0  0  0  0
   36.3420   29.6900   30.5430 H   0  0  0  0  0  0  0  0  0  0  0  0
   37.8650   28.0110   31.3330 H   0  0  0  0  0  0  0  0  0  0  0  0
   33.2800   31.4380   36.1190 C   0  0  0  0  0  0  0  0  0  0  0  0
   34.3630   30.8900   35.3820 C   0  0  0  0  0  0  0  0  0  0  0  0
   34.0870   29.8560   34.4840 C   0  0  0  0  0  0  0  0  0  0  0  0
   32.7910   29.4270   34.3650 N   0  0  0  0  0  0  0  0  0  0  0  0
   31.7900   29.9900   35.1000 C   0  0  0  0  0  0  0  0  0  0  0  0
   32.0310   30.9830   35.9660 N   0  0  0  0  0  0  0  0  0  0  0  0
   30.5400   29.3780   34.8010 N   0  0  0  0  0  0  0  0  0  0  0  0
   33.4830   32.2420   36.8190 H   0  0  0  0  0  0  0  0  0  0  0  0
   30.2090   28.4220   35.0840 H   0  0  0  0  0  0  0  0  0  0  0  0
   29.9620   30.0250   34.2370 H   0  0  0  0  0  0  0  0  0  0  0  0
   35.7270   31.4370   35.5950 C   0  0  0  0  0  0  0  0  0  0  0  0
   36.2020   32.0720   34.4450 F   0  0  0  0  0  0  0  0  0  0  0  0
   35.6860   32.3540   36.5990 F   0  0  0  0  0  0  0  0  0  0  0  0
   36.6500   30.4660   35.9310 F   0  0  0  0  0  0  0  0  0  0  0  0
   36.6190   25.1720   32.7760 F   0  0  0  0  0  0  0  0  0  0  0  0
   37.7040   25.5030   33.5270 C   0  0  0  0  0  0  0  0  0  0  0  0
   37.9290   26.8350   33.8010 C   0  0  0  0  0  0  0  0  0  0  0  0
   39.0440   27.0910   34.5660 C   0  0  0  0  0  0  0  0  0  0  0  0
   39.2790   28.1050   34.8170 H   0  0  0  0  0  0  0  0  0  0  0  0
   39.8800   26.0890   35.0280 C   0  0  0  0  0  0  0  0  0  0  0  0
   40.7520   26.3610   35.6320 H   0  0  0  0  0  0  0  0  0  0  0  0
   39.6140   24.7740   34.7270 C   0  0  0  0  0  3  0  0  0  0  0  0
   38.5160   24.5100   33.9730 C   0  0  0  0  0  3  0  0  0  0  0  0
  1  6  1  0  0  0  0
  1 12  1  0  0  0  0
  2  1  2  0  0  0  0
  3  4  2  0  0  0  0
  3  2  1  0  0  0  0
  4  5  1  0  0  0  0
  5 26  1  0  0  0  0
  5  6  2  0  0  0  0
  7  2  1  0  0  0  0
  8  3  1  0  0  0  0
  9  4  1  0  0  0  0
 10 17  1  0  0  0  0
 11 20  1  0  0  0  0
 11 10  2  0  0  0  0
 12 11  1  0  0  0  0
 13 12  2  0  0  0  0
 13 14  1  0  0  0  0
 14 15  2  0  0  0  0
 15 10  1  0  0  0  0
 16 18  1  0  0  0  0
 16 14  1  0  0  0  0
 19 16  1  0  0  0  0
 20 23  1  0  0  0  0
 20 22  1  0  0  0  0
 21 20  1  0  0  0  0
 24 25  1  0  0  0  0
 25 26  2  0  0  0  0
 25 32  1  0  0  0  0
 26 27  1  0  0  0  0
 27 28  1  0  0  0  0
 27 29  2  0  0  0  0
 29 30  1  0  0  0  0
 31 29  1  0  0  0  0
 32 31  2  0  0  0  0
M  END
>  <minimizedAffinity>
-5.81635189

$$$$

 OpenBabel03272507593D

 32 34  0  0  0  0  0  0  0  0999 V2000
   37.4210   25.2320   32.6630 C   0  0  0  0  0  0  0  0  0  0  0  0
   36.6540   24.3030   31.9910 C   0  0  0  0  0  0  0  0  0  0  0  0
   36.7380   22.9680   32.3720 C   0  0  0  0  0  0  0  0  0  0  0  0
   37.5850   22.6010   33.4110 C   0  0  0  0  0  0  0  0  0  0  0  0
   38.3320   23.5590   34.0530 C   0  0  0  0  0  0  0  0  0  0  0  0
   38.2210   24.8280   33.6550 N   0  0  0  0  0  0  0  0  0  0  0  0
   35.9680   24.4900   31.1750 H   0  0  0  0  0  0  0  0  0  0  0  0
   36.1510   22.1810   31.8750 H   0  0  0  0  0  0  0  0  0  0  0  0
   37.6230   21.5750   33.6720 H   0  0  0  0  0  0  0  0  0  0  0  0
   36.9060   28.9540   32.5080 C   0  0  0  0  0  0  0  0  0  0  0  0
   37.0950   27.6530   33.0450 C   0  0  0  0  0  0  0  0  0  0  0  0
   37.2240   26.5880   32.1500 C   0  0  0  0  0  0  0  0  0  0  0  0
   37.1600   26.8560   30.8070 N   0  0  0  0  0  0  0  0  0  0  0  0
   36.9760   28.1260   30.3480 C   0  0  0  0  0  0  0  0  0  0  0  0
   36.8510   29.1620   31.1880 N   0  0  0  0  0  0  0  0  0  0  0  0
   36.9450   28.1480   28.9250 N   0  0  0  0  0  0  0  0  0  0  0  0
   36.8040   29.7880   33.1940 H   0  0  0  0  0  0  0  0  0  0  0  0
   36.1760   27.8100   28.2940 H   0  0  0  0  0  0  0  0  0  0  0  0
   37.8230   28.5610   28.5640 H   0  0  0  0  0  0  0  0  0  0  0  0
   37.1470   27.4840   34.5190 C   0  0  0  0  0  0  0  0  0  0  0  0
   38.4570   27.2720   34.9560 F   0  0  0  0  0  0  0  0  0  0  0  0
   36.6800   28.6150   35.1130 F   0  0  0  0  0  0  0  0  0  0  0  0
   36.3940   26.4160   34.9660 F   0  0  0  0  0  0  0  0  0  0  0  0
   37.5000   23.6250   36.6840 F   0  0  0  0  0  0  0  0  0  0  0  0
   38.7910   23.2640   36.4510 C   0  0  0  0  0  0  0  0  0  0  0  0
   39.2340   23.2220   35.1470 C   0  0  0  0  0  0  0  0  0  0  0  0
   40.5490   22.8480   34.9910 C   0  0  0  0  0  0  0  0  0  0  0  0
   40.9600   22.7940   34.0030 H   0  0  0  0  0  0  0  0  0  0  0  0
   41.3700   22.5370   36.0620 C   0  0  0  0  0  0  0  0  0  0  0  0
   42.4080   22.2460   35.8680 H   0  0  0  0  0  0  0  0  0  0  0  0
   40.8820   22.5930   37.3450 C   0  0  0  0  0  3  0  0  0  0  0  0
   39.5850   22.9610   37.5110 C   0  0  0  0  0  3  0  0  0  0  0  0
  1  6  1  0  0  0  0
  2  3  1  0  0  0  0
  2  1  2  0  0  0  0
  3  4  2  0  0  0  0
  4  9  1  0  0  0  0
  4  5  1  0  0  0  0
  5 26  1  0  0  0  0
  6  5  2  0  0  0  0
  7  2  1  0  0  0  0
  8  3  1  0  0  0  0
 10 11  1  0  0  0  0
 10 17  1  0  0  0  0
 11 20  1  0  0  0  0
 12  1  1  0  0  0  0
 12 11  2  0  0  0  0
 13 12  1  0  0  0  0
 14 13  2  0  0  0  0
 14 15  1  0  0  0  0
 15 10  2  0  0  0  0
 16 14  1  0  0  0  0
 18 16  1  0  0  0  0
 19 16  1  0  0  0  0
 20 21  1  0  0  0  0
 20 23  1  0  0  0  0
 20 22  1  0  0  0  0
 25 24  1  0  0  0  0
 25 32  1  0  0  0  0
 26 25  2  0  0  0  0
 27 26  1  0  0  0  0
 27 29  2  0  0  0  0
 28 27  1  0  0  0  0
 29 31  1  0  0  0  0
 30 29  1  0  0  0  0
 31 32  2  0  0  0  0
M  END
>  <minimizedAffinity>
-5.74397659

$$$$

 OpenBabel03272507593D

 32 34  0  0  0  0  0  0  0  0999 V2000
   37.6770   25.3100   32.8360 C   0  0  0  0  0  0  0  0  0  0  0  0
   38.8120   25.5060   32.0770 C   0  0  0  0  0  0  0  0  0  0  0  0
   39.0690   26.7800   31.5810 C   0  0  0  0  0  0  0  0  0  0  0  0
   38.1880   27.8180   31.8580 C   0  0  0  0  0  0  0  0  0  0  0  0
   37.0690   27.5780   32.6180 C   0  0  0  0  0  0  0  0  0  0  0  0
   36.8590   26.3410   33.0730 N   0  0  0  0  0  0  0  0  0  0  0  0
   39.5540   24.7670   31.8090 H   0  0  0  0  0  0  0  0  0  0  0  0
   39.9580   26.9990   30.9700 H   0  0  0  0  0  0  0  0  0  0  0  0
   38.4170   28.7740   31.4630 H   0  0  0  0  0  0  0  0  0  0  0  0
   36.6670   21.6910   33.0050 C   0  0  0  0  0  0  0  0  0  0  0  0
   36.7720   23.0280   32.5380 C   0  0  0  0  0  0  0  0  0  0  0  0
   37.5430   23.9230   33.2840 C   0  0  0  0  0  0  0  0  0  0  0  0
   38.1540   23.4630   34.4210 N   0  0  0  0  0  0  0  0  0  0  0  0
   38.0180   22.1680   34.8220 C   0  0  0  0  0  0  0  0  0  0  0  0
   37.2840   21.2920   34.1230 N   0  0  0  0  0  0  0  0  0  0  0  0
   38.7440   21.9340   36.0250 N   0  0  0  0  0  0  0  0  0  0  0  0
   36.0700   20.9880   32.4340 H   0  0  0  0  0  0  0  0  0  0  0  0
   38.5010   22.2580   36.9940 H   0  0  0  0  0  0  0  0  0  0  0  0
   39.5880   21.3730   35.8180 H   0  0  0  0  0  0  0  0  0  0  0  0
   36.0640   23.4120   31.2910 C   0  0  0  0  0  0  0  0  0  0  0  0
   35.4130   22.3140   30.7220 F   0  0  0  0  0  0  0  0  0  0  0  0
   35.1280   24.3540   31.5820 F   0  0  0  0  0  0  0  0  0  0  0  0
   36.9100   23.9240   30.3270 F   0  0  0  0  0  0  0  0  0  0  0  0
   36.8730   28.6350   35.1600 F   0  0  0  0  0  0  0  0  0  0  0  0
   36.0400   29.1430   34.2130 C   0  0  0  0  0  0  0  0  0  0  0  0
   36.1160   28.6340   32.9340 C   0  0  0  0  0  0  0  0  0  0  0  0
   35.2430   29.1970   32.0310 C   0  0  0  0  0  0  0  0  0  0  0  0
   35.2480   28.8490   31.0180 H   0  0  0  0  0  0  0  0  0  0  0  0
   34.3530   30.2000   32.3780 C   0  0  0  0  0  0  0  0  0  0  0  0
   33.6850   30.6050   31.6100 H   0  0  0  0  0  0  0  0  0  0  0  0
   34.3150   30.6750   33.6670 C   0  0  0  0  0  3  0  0  0  0  0  0
   35.1730   30.1260   34.5660 C   0  0  0  0  0  3  0  0  0  0  0  0
  1  6  1  0  0  0  0
  1 12  1  0  0  0  0
  2  1  2  0  0  0  0
  3  4  2  0  0  0  0
  3  2  1  0  0  0  0
  4  5  1  0  0  0  0
  5 26  1  0  0  0  0
  5  6  2  0  0  0  0
  7  2  1  0  0  0  0
  8  3  1  0  0  0  0
  9  4  1  0  0  0  0
 10 15  1  0  0  0  0
 11 10  2  0  0  0  0
 11 12  1  0  0  0  0
 12 13  2  0  0  0  0
 13 14  1  0  0  0  0
 14 16  1  0  0  0  0
 15 14  2  0  0  0  0
 16 18  1  0  0  0  0
 17 10  1  0  0  0  0
 19 16  1  0  0  0  0
 20 22  1  0  0  0  0
 20 11  1  0  0  0  0
 21 20  1  0  0  0  0
 23 20  1  0  0  0  0
 25 32  1  0  0  0  0
 25 24  1  0  0  0  0
 26 25  2  0  0  0  0
 27 29  2  0  0  0  0
 27 26  1  0  0  0  0
 28 27  1  0  0  0  0
 29 31  1  0  0  0  0
 30 29  1  0  0  0  0
 31 32  2  0  0  0  0
M  END
>  <minimizedAffinity>
-5.74369383

$$$$

 OpenBabel03272507593D

 32 34  0  0  0  0  0  0  0  0999 V2000
   35.0980   29.8250   33.1190 C   0  0  0  0  0  0  0  0  0  0  0  0
   35.7080   30.7170   32.2620 C   0  0  0  0  0  0  0  0  0  0  0  0
   36.4890   30.2160   31.2250 C   0  0  0  0  0  0  0  0  0  0  0  0
   36.6350   28.8430   31.0750 C   0  0  0  0  0  0  0  0  0  0  0  0
   36.0100   27.9900   31.9520 C   0  0  0  0  0  0  0  0  0  0  0  0
   35.2710   28.5120   32.9330 N   0  0  0  0  0  0  0  0  0  0  0  0
   35.6540   31.7960   32.2960 H   0  0  0  0  0  0  0  0  0  0  0  0
   37.0000   30.8770   30.5090 H   0  0  0  0  0  0  0  0  0  0  0  0
   37.2380   28.4990   30.2740 H   0  0  0  0  0  0  0  0  0  0  0  0
   32.2040   31.2700   35.0380 C   0  0  0  0  0  0  0  0  0  0  0  0
   32.9290   30.6080   34.0120 C   0  0  0  0  0  0  0  0  0  0  0  0
   34.3150   30.5000   34.1550 C   0  0  0  0  0  0  0  0  0  0  0  0
   34.8970   31.0370   35.2730 N   0  0  0  0  0  0  0  0  0  0  0  0
   34.1510   31.6620   36.2270 C   0  0  0  0  0  0  0  0  0  0  0  0
   32.8210   31.7770   36.1120 N   0  0  0  0  0  0  0  0  0  0  0  0
   34.9780   32.1330   37.2860 N   0  0  0  0  0  0  0  0  0  0  0  0
   31.1280   31.3590   34.9380 H   0  0  0  0  0  0  0  0  0  0  0  0
   35.6390   32.9490   37.2710 H   0  0  0  0  0  0  0  0  0  0  0  0
   34.8420   31.5390   38.1230 H   0  0  0  0  0  0  0  0  0  0  0  0
   32.1900   30.0660   32.8450 C   0  0  0  0  0  0  0  0  0  0  0  0
   30.8150   30.2770   32.9750 F   0  0  0  0  0  0  0  0  0  0  0  0
   32.6100   30.7000   31.7180 F   0  0  0  0  0  0  0  0  0  0  0  0
   32.3750   28.7070   32.6730 F   0  0  0  0  0  0  0  0  0  0  0  0
   37.9690   26.5950   33.3060 F   0  0  0  0  0  0  0  0  0  0  0  0
   37.1230   25.8720   32.5230 C   0  0  0  0  0  0  0  0  0  0  0  0
   36.1350   26.5430   31.8350 C   0  0  0  0  0  0  0  0  0  0  0  0
   35.3190   25.7460   31.0640 C   0  0  0  0  0  0  0  0  0  0  0  0
   34.5290   26.2010   30.5030 H   0  0  0  0  0  0  0  0  0  0  0  0
   35.4760   24.3730   30.9840 C   0  0  0  0  0  0  0  0  0  0  0  0
   34.7920   23.7960   30.3520 H   0  0  0  0  0  0  0  0  0  0  0  0
   36.4770   23.7490   31.6890 C   0  0  0  0  0  3  0  0  0  0  0  0
   37.2890   24.5260   32.4530 C   0  0  0  0  0  3  0  0  0  0  0  0
  1 12  1  0  0  0  0
  2  7  1  0  0  0  0
  2  1  2  0  0  0  0
  3  2  1  0  0  0  0
  4  3  2  0  0  0  0
  4  5  1  0  0  0  0
  5  6  2  0  0  0  0
  6  1  1  0  0  0  0
  8  3  1  0  0  0  0
  9  4  1  0  0  0  0
 10 15  1  0  0  0  0
 11 12  1  0  0  0  0
 11 10  2  0  0  0  0
 12 13  2  0  0  0  0
 13 14  1  0  0  0  0
 14 16  1  0  0  0  0
 15 14  2  0  0  0  0
 16 19  1  0  0  0  0
 17 10  1  0  0  0  0
 18 16  1  0  0  0  0
 20 21  1  0  0  0  0
 20 11  1  0  0  0  0
 22 20  1  0  0  0  0
 23 20  1  0  0  0  0
 25 24  1  0  0  0  0
 26  5  1  0  0  0  0
 26 25  2  0  0  0  0
 27 26  1  0  0  0  0
 28 27  1  0  0  0  0
 29 27  2  0  0  0  0
 29 31  1  0  0  0  0
 30 29  1  0  0  0  0
 31 32  2  0  0  0  0
 32 25  1  0  0  0  0
M  END
>  <minimizedAffinity>
-5.70898247

$$$$
