
 OpenBabel03272510013D

 21 22  0  0  0  0  0  0  0  0999 V2000
   38.2170   31.4730   50.2500 C   0  0  0  0  0  0  0  0  0  0  0  0
   38.5310   31.4700   48.8700 C   0  0  0  0  0  0  0  0  0  0  0  0
   37.7130   30.7470   48.0160 C   0  0  0  0  0  0  0  0  0  0  0  0
   36.6650   30.0930   48.5770 N   0  0  0  0  0  0  0  0  0  0  0  0
   36.3830   30.1070   49.8810 C   0  0  0  0  0  0  0  0  0  0  0  0
   37.1650   30.7990   50.7030 N   0  0  0  0  0  0  0  0  0  0  0  0
   38.8370   32.0280   50.9380 H   0  0  0  0  0  0  0  0  0  0  0  0
   39.3700   32.0030   48.4780 H   0  0  0  0  0  0  0  0  0  0  0  0
   35.5730   30.5280   46.2020 F   0  0  0  0  0  0  0  0  0  0  0  0
   36.8590   30.5570   45.7310 C   0  0  0  0  0  0  0  0  0  0  0  0
   37.9250   30.6620   46.5780 C   0  0  0  0  0  0  0  0  0  0  0  0
   39.1700   30.6800   45.9860 C   0  0  0  0  0  0  0  0  0  0  0  0
   40.0560   30.7610   46.5980 H   0  0  0  0  0  0  0  0  0  0  0  0
   39.3800   30.6010   44.6300 C   0  0  0  0  0  0  0  0  0  0  0  0
   40.3800   30.6200   44.2220 H   0  0  0  0  0  0  0  0  0  0  0  0
   38.3010   30.4950   43.7790 C   0  0  0  0  0  3  0  0  0  0  0  0
   37.0400   30.4760   44.3640 C   0  0  0  0  0  3  0  0  0  0  0  0
   35.2130   29.3370   50.3450 C   0  0  0  0  0  0  0  0  0  0  0  0
   35.2620   29.0630   51.7090 F   0  0  0  0  0  0  0  0  0  0  0  0
   34.0310   30.0200   50.1260 F   0  0  0  0  0  0  0  0  0  0  0  0
   35.0750   28.1120   49.7170 F   0  0  0  0  0  0  0  0  0  0  0  0
  1  6  1  0  0  0  0
  1  7  1  0  0  0  0
  2  1  2  0  0  0  0
  3  4  2  0  0  0  0
  3  2  1  0  0  0  0
  4  5  1  0  0  0  0
  5 18  1  0  0  0  0
  5  6  2  0  0  0  0
  8  2  1  0  0  0  0
 10  9  1  0  0  0  0
 10 11  1  0  0  0  0
 11  3  1  0  0  0  0
 12 11  2  0  0  0  0
 12 13  1  0  0  0  0
 14 12  1  0  0  0  0
 15 14  1  0  0  0  0
 16 17  1  0  0  0  0
 16 14  2  0  0  0  0
 17 10  2  0  0  0  0
 18 19  1  0  0  0  0
 20 18  1  0  0  0  0
 21 18  1  0  0  0  0
M  END
>  <minimizedAffinity>
-5.5829649

>  <minimizedRMSD>
1.22699356

$$$$
