
 OpenBabel03272510023D

 21 22  0  0  0  0  0  0  0  0999 V2000
   38.2170   31.4740   50.2490 C   0  0  0  0  0  0  0  0  0  0  0  0
   38.5310   31.4700   48.8690 C   0  0  0  0  0  0  0  0  0  0  0  0
   37.7130   30.7470   48.0160 C   0  0  0  0  0  0  0  0  0  0  0  0
   36.6650   30.0930   48.5770 N   0  0  0  0  0  0  0  0  0  0  0  0
   36.3840   30.1070   49.8810 C   0  0  0  0  0  0  0  0  0  0  0  0
   37.1650   30.7990   50.7030 N   0  0  0  0  0  0  0  0  0  0  0  0
   38.8370   32.0290   50.9380 H   0  0  0  0  0  0  0  0  0  0  0  0
   39.3700   32.0040   48.4780 H   0  0  0  0  0  0  0  0  0  0  0  0
   35.5730   30.5290   46.2010 F   0  0  0  0  0  0  0  0  0  0  0  0
   36.8590   30.5570   45.7310 C   0  0  0  0  0  0  0  0  0  0  0  0
   37.9250   30.6620   46.5770 C   0  0  0  0  0  0  0  0  0  0  0  0
   39.1700   30.6800   45.9850 C   0  0  0  0  0  0  0  0  0  0  0  0
   40.0560   30.7610   46.5970 H   0  0  0  0  0  0  0  0  0  0  0  0
   39.3800   30.6010   44.6310 C   0  0  0  0  0  0  0  0  0  0  0  0
   40.3810   30.6190   44.2220 H   0  0  0  0  0  0  0  0  0  0  0  0
   38.3020   30.4950   43.7790 C   0  0  0  0  0  3  0  0  0  0  0  0
   37.0410   30.4760   44.3640 C   0  0  0  0  0  3  0  0  0  0  0  0
   35.2140   29.3370   50.3450 C   0  0  0  0  0  0  0  0  0  0  0  0
   35.2620   29.0640   51.7090 F   0  0  0  0  0  0  0  0  0  0  0  0
   34.0310   30.0200   50.1260 F   0  0  0  0  0  0  0  0  0  0  0  0
   35.0750   28.1120   49.7180 F   0  0  0  0  0  0  0  0  0  0  0  0
  1  6  1  0  0  0  0
  1  7  1  0  0  0  0
  2  1  2  0  0  0  0
  3  4  2  0  0  0  0
  3  2  1  0  0  0  0
  4  5  1  0  0  0  0
  5 18  1  0  0  0  0
  5  6  2  0  0  0  0
  8  2  1  0  0  0  0
 10  9  1  0  0  0  0
 10 11  1  0  0  0  0
 11  3  1  0  0  0  0
 12 11  2  0  0  0  0
 12 13  1  0  0  0  0
 14 12  1  0  0  0  0
 15 14  1  0  0  0  0
 16 17  1  0  0  0  0
 16 14  2  0  0  0  0
 17 10  2  0  0  0  0
 18 19  1  0  0  0  0
 20 18  1  0  0  0  0
 21 18  1  0  0  0  0
M  END
>  <minimizedAffinity>
-5.58284998

>  <minimizedRMSD>
1.13804781

$$$$
