
 OpenBabel03262520233D

 32 34  0  0  0  0  0  0  0  0999 V2000
   34.2230   29.4270   47.1160 C   0  0  0  0  0  0  0  0  0  0  0  0
   34.2070   28.4420   48.1230 C   0  0  0  0  0  0  0  0  0  0  0  0
   35.0900   28.3410   49.1500 C   0  0  0  0  0  0  0  0  0  0  0  0
   36.0940   29.2310   49.2740 C   0  0  0  0  0  0  0  0  0  0  0  0
   36.1160   30.1770   48.3110 C   0  0  0  0  0  0  0  0  0  0  0  0
   35.2330   30.2250   47.3390 N   0  0  0  0  0  0  0  0  0  0  0  0
   33.3830   27.6570   48.0780 H   0  0  0  0  0  0  0  0  0  0  0  0
   34.9430   27.4910   49.8810 H   0  0  0  0  0  0  0  0  0  0  0  0
   36.7830   29.1500   50.0760 H   0  0  0  0  0  0  0  0  0  0  0  0
   31.8960   29.3490   46.6910 C   0  0  0  0  0  0  0  0  0  0  0  0
   33.1900   29.4230   46.0930 C   0  0  0  0  0  0  0  0  0  0  0  0
   33.2370   29.4960   44.7250 C   0  0  0  0  0  0  0  0  0  0  0  0
   32.0410   29.4910   44.0520 N   0  0  0  0  0  0  0  0  0  0  0  0
   30.8410   29.4210   44.6270 C   0  0  0  0  0  0  0  0  0  0  0  0
   30.7900   29.3490   45.9600 N   0  0  0  0  0  0  0  0  0  0  0  0
   29.7300   29.4370   43.7600 N   0  0  0  0  0  0  0  0  0  0  0  0
   31.7110   29.2870   47.7540 H   0  0  0  0  0  0  0  0  0  0  0  0
   29.2290   28.5260   43.6800 H   0  0  0  0  0  0  0  0  0  0  0  0
   29.5120   30.3400   43.2820 H   0  0  0  0  0  0  0  0  0  0  0  0
   34.5330   29.5750   44.0500 C   0  0  0  0  0  0  0  0  0  0  0  0
   35.3040   28.5980   44.4780 F   0  0  0  0  0  0  0  0  0  0  0  0
   34.4540   29.5440   42.6710 F   0  0  0  0  0  0  0  0  0  0  0  0
   35.1870   30.8050   44.3560 F   0  0  0  0  0  0  0  0  0  0  0  0
   36.3330   32.0440   50.3430 F   0  0  0  0  0  0  0  0  0  0  0  0
   37.2600   32.1480   49.3340 C   0  0  0  0  0  0  0  0  0  0  0  0
   37.1710   31.2310   48.3150 C   0  0  0  0  0  0  0  0  0  0  0  0
   38.1150   31.3700   47.3290 C   0  0  0  0  0  0  0  0  0  0  0  0
   38.1090   30.6870   46.4950 H   0  0  0  0  0  0  0  0  0  0  0  0
   39.0760   32.3570   47.3650 C   0  0  0  0  0  0  0  0  0  0  0  0
   39.7890   32.4040   46.5490 H   0  0  0  0  0  0  0  0  0  0  0  0
   39.1150   33.2480   48.4130 C   0  0  0  0  0  0  0  0  0  0  0  0
   38.1960   33.1550   49.4260 C   0  0  0  0  0  0  0  0  0  0  0  0
  1  6  2  0  0  0  0
  1  2  1  0  0  0  0
  2  3  2  0  0  0  0
  3  4  1  0  0  0  0
  3  8  1  0  0  0  0
  4  9  1  0  0  0  0
  5 26  1  0  0  0  0
  5  4  2  0  0  0  0
  6  5  1  0  0  0  0
  7  2  1  0  0  0  0
 10 17  1  0  0  0  0
 11 10  1  0  0  0  0
 11  1  1  0  0  0  0
 12 11  2  0  0  0  0
 13 14  2  0  0  0  0
 13 12  1  0  0  0  0
 14 15  1  0  0  0  0
 15 10  2  0  0  0  0
 16 14  1  0  0  0  0
 18 16  1  0  0  0  0
 19 16  1  0  0  0  0
 20 23  1  0  0  0  0
 20 21  1  0  0  0  0
 20 12  1  0  0  0  0
 22 20  1  0  0  0  0
 25 32  1  0  0  0  0
 25 24  1  0  0  0  0
 26 25  2  0  0  0  0
 27 29  2  0  0  0  0
 27 26  1  0  0  0  0
 28 27  1  0  0  0  0
 29 31  1  0  0  0  0
 30 29  1  0  0  0  0
 31 32  2  0  0  0  0
M  END
>  <minimizedAffinity>
-6.01135588

>  <minimizedRMSD>
3.59541631

$$$$
