
     RDKit          3D

 42 46  0  0  0  0  0  0  0  0999 V2000
   35.8481   29.1381   49.8157 C   0  0  0  0  0  0  0  0  0  0  0  0
   34.8224   29.6245   50.5465 C   0  0  0  0  0  0  0  0  0  0  0  0
   33.6532   29.0390   50.0508 C   0  0  0  0  0  0  0  0  0  0  0  0
   34.0615   28.1997   49.0074 C   0  0  0  0  0  0  0  0  0  0  0  0
   35.3580   28.3096   48.9283 O   0  0  0  0  0  0  0  0  0  0  0  0
   33.5308   26.4310   47.3440 C   0  0  0  0  0  0  0  0  0  0  0  0
   33.1225   27.4016   48.2274 C   0  0  0  0  0  0  0  0  0  0  0  0
   31.7940   27.6744   48.4294 C   0  0  0  0  0  0  0  0  0  0  0  0
   30.8455   26.9467   47.7195 C   0  0  0  0  0  0  0  0  0  0  0  0
   29.5122   26.9880   47.7085 N   0  0  0  0  0  0  0  0  0  0  0  0
   29.0881   26.0676   46.8408 N   0  0  0  0  0  0  0  0  0  0  0  0
   30.1601   25.4413   46.3007 C   0  0  0  0  0  0  0  0  0  0  0  0
   31.3067   25.9771   46.8391 C   0  0  0  0  0  0  0  0  0  0  0  0
   32.6389   25.6937   46.6272 C   0  0  0  0  0  0  0  0  0  0  0  0
   37.2268   29.5298   50.0522 C   0  0  0  0  0  0  0  0  0  0  0  0
   37.8790   28.9540   50.9646 O   0  0  0  0  0  0  0  0  0  0  0  0
   37.7798   30.5684   49.2201 C   0  0  0  0  0  0  0  0  0  0  0  0
   38.1325   31.7583   49.8319 C   0  0  0  0  0  0  0  0  0  0  0  0
   38.6691   32.7782   49.0505 C   0  0  0  0  0  0  0  0  0  0  0  0
   38.8161   32.5439   47.7239 N   0  0  0  0  0  0  0  0  0  0  0  0
   38.4688   31.3840   47.1470 C   0  0  0  0  0  0  0  0  0  0  0  0
   37.9551   30.4088   47.8974 N   0  0  0  0  0  0  0  0  0  0  0  0
   34.8589   30.3438   51.3791 H   0  0  0  0  0  0  0  0  0  0  0  0
   32.6845   29.2565   50.4590 H   0  0  0  0  0  0  0  0  0  0  0  0
   34.5953   26.2858   47.2499 H   0  0  0  0  0  0  0  0  0  0  0  0
   31.3818   28.4322   49.1150 H   0  0  0  0  0  0  0  0  0  0  0  0
   28.8856   27.6226   48.2727 H   0  0  0  0  0  0  0  0  0  0  0  0
   30.1694   24.6361   45.5557 H   0  0  0  0  0  0  0  0  0  0  0  0
   32.9604   24.9266   45.9289 H   0  0  0  0  0  0  0  0  0  0  0  0
   38.0324   31.9868   50.8848 H   0  0  0  0  0  0  0  0  0  0  0  0
   38.9641   33.7288   49.4652 H   0  0  0  0  0  0  0  0  0  0  0  0
   36.3417   31.4447   45.4352 F   0  0  0  0  0  0  0  0  0  0  0  0
   37.5595   31.2258   44.8689 C   0  0  0  0  0  0  0  0  0  0  0  0
   38.6511   31.1904   45.7117 C   0  0  0  0  0  0  0  0  0  0  0  0
   39.9031   30.9712   45.1787 C   0  0  0  0  0  0  0  0  0  0  0  0
   40.7921   30.9337   45.7918 H   0  0  0  0  0  0  0  0  0  0  0  0
   40.0570   30.7902   43.8192 C   0  0  0  0  0  0  0  0  0  0  0  0
   40.9754   30.6140   43.2988 H   0  0  0  0  0  0  0  0  0  0  0  0
   38.9198   30.8351   43.0087 C   0  0  0  0  0  0  0  0  0  0  0  0
   37.6297   31.0535   43.4956 C   0  0  0  0  0  0  0  0  0  0  0  0
   38.9866   30.6984   41.9301 H   0  0  0  0  0  0  0  0  0  0  0  0
   36.7842   31.0803   42.8375 H   0  0  0  0  0  0  0  0  0  0  0  0
  1 15  1  0
  1  2  2  0
  3  2  1  0
  4  3  2  0
  5  4  1  0
  5  1  1  0
  6  7  2  0
  7  8  1  0
  7  4  1  0
  9  8  2  0
 10  9  1  0
 11 10  1  0
 12 13  1  0
 12 11  2  0
 13  9  1  0
 14 13  2  0
 14  6  1  0
 15 16  2  0
 17 18  2  0
 17 15  1  0
 19 18  1  0
 20 19  2  0
 21 20  1  0
 21 22  2  0
 22 17  1  0
  2 23  1  0
  3 24  1  0
  6 25  1  0
  8 26  1  0
 10 27  1  0
 12 28  1  0
 14 29  1  0
 18 30  1  0
 19 31  1  0
 32 33  1  0
 33 34  2  0
 34 35  1  0
 35 36  1  0
 35 37  2  0
 37 38  1  0
 37 39  1  0
 39 40  2  0
 40 33  1  0
 39 41  1  0
 40 42  1  0
 21 34  1  0
M  ISO  8  23  14  24  14  25  14  26  14  27   9  28  14  29  14  30  14
M  ISO  3  31  14  36  15  38  16
M  END
>  <DihAtoms>  (1) 
19,20,33,32

>  <DihDeg>  (1) 
-179.99763401549276

$$$$
