
     RDKit          3D

 23 24  0  0  0  0  0  0  0  0999 V2000
   38.3060   31.2304   50.1238 C   0  0  0  0  0  0  0  0  0  0  0  0
   38.2888   31.6038   48.7588 C   0  0  0  0  0  0  0  0  0  0  0  0
   37.1987   31.2235   47.9915 C   0  0  0  0  0  0  0  0  0  0  0  0
   36.2248   30.5156   48.6167 N   0  0  0  0  0  0  0  0  0  0  0  0
   36.2572   30.1715   49.9053 C   0  0  0  0  0  0  0  0  0  0  0  0
   37.2996   30.5344   50.6446 N   0  0  0  0  0  0  0  0  0  0  0  0
   35.1256   29.3903   50.4422 C   0  0  0  0  0  0  0  0  0  0  0  0
   35.2608   29.1210   51.8012 F   0  0  0  0  0  0  0  0  0  0  0  0
   33.9248   30.0600   50.2936 F   0  0  0  0  0  0  0  0  0  0  0  0
   34.9628   28.1615   49.8262 F   0  0  0  0  0  0  0  0  0  0  0  0
   39.1422   31.5127   50.7464 H   0  0  0  0  0  0  0  0  0  0  0  0
   39.0840   32.1627   48.3151 H   0  0  0  0  0  0  0  0  0  0  0  0
   37.1432   33.8787   47.0630 F   0  0  0  0  0  0  0  0  0  0  0  0
   37.0365   32.8466   46.1688 C   0  0  0  0  0  0  0  0  0  0  0  0
   37.0590   31.5444   46.5775 C   0  0  0  0  0  0  0  0  0  0  0  0
   36.9436   30.5950   45.5858 C   0  0  0  0  0  0  0  0  0  0  0  0
   36.9541   29.5453   45.8406 H   0  0  0  0  0  0  0  0  0  0  0  0
   36.8114   30.8872   44.2501 C   0  0  0  0  0  0  0  0  0  0  0  0
   36.7246   30.1006   43.5152 H   0  0  0  0  0  0  0  0  0  0  0  0
   36.7890   32.2036   43.8401 C   0  0  0  0  0  0  0  0  0  0  0  0
   36.9047   33.1710   44.8318 C   0  0  0  0  0  0  0  0  0  0  0  0
   36.6859   32.4582   42.7941 H   0  0  0  0  0  0  0  0  0  0  0  0
   36.8804   34.1938   44.4456 H   0  0  0  0  0  0  0  0  0  0  0  0
  1  6  2  0
  2  1  1  0
  3  4  1  0
  3  2  2  0
  4  5  2  0
  5  7  1  0
  5  6  1  0
  7  8  1  0
  9  7  1  0
 10  7  1  0
  1 11  1  0
  2 12  1  0
 13 14  1  0
 14 15  2  0
 15 16  1  0
 16 17  1  0
 16 18  2  0
 18 19  1  0
 18 20  1  0
 20 21  2  0
 21 14  1  0
 20 22  1  0
 21 23  1  0
  3 15  1  0
M  ISO  4  11  14  12  14  17  15  19  16
M  END
>  <DihAtoms>  (1) 
3,2,14,13

>  <DihDeg>  (1) 
0.0006040380934027728

$$$$
