
 OpenBabel03272503023D

 28 30  0  0  0  0  0  0  0  0999 V2000
   37.8080   30.6150   47.1700 F   0  0  0  0  0  0  0  0  0  0  0  0
   38.3490   31.7290   47.7130 C   0  0  0  0  0  0  0  0  0  0  0  0
   38.1330   32.0130   49.0300 C   0  0  0  0  0  0  0  0  0  0  0  0
   38.7100   33.1580   49.5190 C   0  0  0  0  0  0  0  0  0  0  0  0
   39.4770   34.0020   48.7450 C   0  0  0  0  0  0  0  0  0  0  0  0
   39.6770   33.6840   47.4060 C   0  0  0  0  0  0  0  0  0  0  0  0
   39.1040   32.5310   46.8920 C   0  0  0  0  0  0  0  0  0  0  0  0
   38.5590   33.4120   50.5600 H   0  0  0  0  0  0  0  0  0  0  0  0
   39.9280   34.9040   49.1410 H   0  0  0  0  0  0  0  0  0  0  0  0
   40.2870   34.3670   46.8170 H   0  0  0  0  0  0  0  0  0  0  0  0
   36.9680   29.5670   51.6680 C   0  0  0  0  0  0  0  0  0  0  0  0
   37.7990   30.4410   50.9510 C   0  0  0  0  0  0  0  0  0  0  0  0
   37.3220   31.1000   49.8090 C   0  0  0  0  0  0  0  0  0  0  0  0
   36.0310   30.8290   49.4680 N   0  0  0  0  0  0  0  0  0  0  0  0
   35.2550   29.9860   50.1720 C   0  0  0  0  0  0  0  0  0  0  0  0
   35.7180   29.3590   51.2640 N   0  0  0  0  0  0  0  0  0  0  0  0
   37.4380   29.1040   52.5420 H   0  0  0  0  0  0  0  0  0  0  0  0
   38.8210   30.6450   51.2350 H   0  0  0  0  0  0  0  0  0  0  0  0
   34.2290   29.7630   49.9120 H   0  0  0  0  0  0  0  0  0  0  0  0
   41.1220   30.7240   46.1240 F   0  0  0  0  0  0  0  0  0  0  0  0
   40.3860   31.3750   45.1980 C   0  0  0  0  0  0  0  0  0  0  0  0
   39.3690   32.2850   45.4920 C   0  0  0  0  0  0  0  0  0  0  0  0
   38.7110   32.8660   44.4090 C   0  0  0  0  0  0  0  0  0  0  0  0
   37.9240   33.5710   44.6620 H   0  0  0  0  0  0  0  0  0  0  0  0
   39.0470   32.5570   43.1090 C   0  0  0  0  0  0  0  0  0  0  0  0
   38.4960   33.0440   42.3020 H   0  0  0  0  0  0  0  0  0  0  0  0
   40.0640   31.6460   42.8250 C   0  0  0  0  0  0  0  0  0  0  0  0
   40.7120   31.0750   43.8890 C   0  0  0  0  0  0  0  0  0  0  0  0
  1  2  1  0  0  0  0
  2  3  1  0  0  0  0
  3  4  2  0  0  0  0
  3 13  1  0  0  0  0
  4  8  1  0  0  0  0
  5  9  1  0  0  0  0
  5  4  1  0  0  0  0
  6  5  2  0  0  0  0
  7  6  1  0  0  0  0
  7  2  2  0  0  0  0
 10  6  1  0  0  0  0
 11 17  1  0  0  0  0
 12 18  1  0  0  0  0
 12 11  2  0  0  0  0
 13 12  1  0  0  0  0
 14 13  2  0  0  0  0
 14 15  1  0  0  0  0
 15 16  2  0  0  0  0
 16 11  1  0  0  0  0
 19 15  1  0  0  0  0
 21 22  1  0  0  0  0
 21 20  1  0  0  0  0
 22  7  1  0  0  0  0
 23 24  1  0  0  0  0
 23 22  2  0  0  0  0
 25 23  1  0  0  0  0
 26 25  1  0  0  0  0
 27 25  2  0  0  0  0
 27 28  1  0  0  0  0
 28 21  2  0  0  0  0
M  END
>  <minimizedAffinity>
-6.95275354

>  <minimizedRMSD>
1.02964878

$$$$
