
 OpenBabel03272510273D

 45 49  0  0  1  0  0  0  0  0999 V2000
   39.4930   33.5830   43.4930 O   0  0  0  0  0  0  0  0  0  0  0  0
   36.1400   30.2030   47.0040 C   0  0  0  0  0  0  0  0  0  0  0  0
   37.0030   30.6860   47.9570 C   0  0  0  0  0  0  0  0  0  0  0  0
   38.0380   31.5680   47.6060 C   0  0  0  0  0  0  0  0  0  0  0  0
   38.1450   31.9210   46.2800 C   0  0  0  0  0  0  0  0  0  0  0  0
   39.0560   32.7660   45.7070 N   0  0  0  0  0  0  0  0  0  0  0  0
   38.7530   32.8010   44.3950 C   0  0  0  0  0  0  0  0  0  0  0  0
   37.7170   32.0310   44.1350 N   0  0  0  0  0  0  0  0  0  0  0  0
   37.2970   31.4550   45.2950 C   0  0  0  0  0  0  0  0  0  0  0  0
   36.2760   30.5790   45.6730 C   0  0  0  0  0  0  0  0  0  0  0  0
   35.3250   29.5220   47.2140 H   0  0  0  0  0  0  0  0  0  0  0  0
   38.7350   31.9660   48.3340 H   0  0  0  0  0  0  0  0  0  0  0  0
   39.8300   33.2790   46.1930 H   0  0  0  0  0  0  0  0  0  0  0  0
   35.6130   30.2150   44.9010 H   0  0  0  0  0  0  0  0  0  0  0  0
   37.3870   30.0630   51.6500 C   0  0  0  0  0  0  0  0  0  0  0  0
   37.7110   30.5000   50.3770 C   0  0  0  0  0  0  0  0  0  0  0  0
   36.8360   30.2920   49.3440 C   0  0  0  0  0  0  0  0  0  0  0  0
   35.6560   29.6430   49.6460 N   0  0  0  0  0  0  0  0  0  0  0  0
   35.3390   29.2190   50.8780 C   0  0  0  0  0  0  0  0  0  0  0  0
   36.1930   29.4270   51.8650 N   0  0  0  0  0  0  0  0  0  0  0  0
   38.0980   30.2410   52.4460 H   0  0  0  0  0  0  0  0  0  0  0  0
   38.6280   31.0100   50.1160 H   0  0  0  0  0  0  0  0  0  0  0  0
   34.4030   28.7260   51.0170 H   0  0  0  0  0  0  0  0  0  0  0  0
   39.7670   31.6990   42.2400 N   0  0  0  0  0  0  0  0  0  0  0  0
   39.4810   33.1480   42.1370 C   0  0  1  0  0  0  0  0  0  0  0  0
   38.1860   33.3300   41.5070 C   0  0  0  0  0  0  0  0  0  0  0  0
   38.2660   32.8560   40.1840 O   0  0  0  0  0  0  0  0  0  0  0  0
   38.6800   31.5660   40.0500 C   0  0  0  0  0  0  0  0  0  0  0  0
   39.9000   31.2340   40.8790 C   0  0  2  0  0  0  0  0  0  0  0  0
   40.7310   31.7310   42.6670 H   0  0  0  0  0  0  0  0  0  0  0  0
   40.2650   33.6460   41.5420 H   0  0  0  0  0  0  0  0  0  0  0  0
   38.0440   34.4450   41.3590 H   0  0  0  0  0  0  0  0  0  0  0  0
   37.2640   32.9590   41.8600 H   0  0  0  0  0  0  0  0  0  0  0  0
   37.8690   30.8860   40.4030 H   0  0  0  0  0  0  0  0  0  0  0  0
   38.9250   31.4260   38.9820 H   0  0  0  0  0  0  0  0  0  0  0  0
   40.7850   31.7080   40.3750 H   0  0  0  0  0  0  0  0  0  0  0  0
   41.3830   29.9790   38.8160 F   0  0  0  0  0  0  0  0  0  0  0  0
   40.7830   29.2170   39.7520 C   0  0  0  0  0  0  0  0  0  0  0  0
   40.0350   29.7560   40.7990 C   0  0  0  0  0  0  0  0  0  0  0  0
   39.4580   28.8850   41.7090 C   0  0  0  0  0  0  0  0  0  0  0  0
   38.8690   29.3030   42.5330 H   0  0  0  0  0  0  0  0  0  0  0  0
   39.5880   27.5120   41.6280 C   0  0  0  0  0  0  0  0  0  0  0  0
   39.1370   26.8370   42.3390 H   0  0  0  0  0  0  0  0  0  0  0  0
   40.3420   27.0050   40.5690 C   0  0  0  0  0  3  0  0  0  0  0  0
   40.9230   27.8430   39.6550 C   0  0  0  0  0  3  0  0  0  0  0  0
  1  7  1  0  0  0  0
  2 11  1  0  0  0  0
  2  3  1  0  0  0  0
  3 17  1  0  0  0  0
  4  3  2  0  0  0  0
  4 12  1  0  0  0  0
  5  4  1  0  0  0  0
  6 13  1  0  0  0  0
  6  5  1  0  0  0  0
  7  6  1  0  0  0  0
  8  7  2  0  0  0  0
  8  9  1  0  0  0  0
  9 10  1  0  0  0  0
  9  5  2  0  0  0  0
 10  2  2  0  0  0  0
 14 10  1  0  0  0  0
 15 20  1  0  0  0  0
 15 21  1  0  0  0  0
 16 15  2  0  0  0  0
 17 18  2  0  0  0  0
 17 16  1  0  0  0  0
 18 19  1  0  0  0  0
 19 23  1  0  0  0  0
 19 20  2  0  0  0  0
 22 16  1  0  0  0  0
 24 30  1  0  0  0  0
 25 31  1  6  0  0  0
 25 24  1  0  0  0  0
 25  1  1  0  0  0  0
 26 33  1  0  0  0  0
 26 25  1  0  0  0  0
 27 26  1  0  0  0  0
 28 27  1  0  0  0  0
 28 34  1  0  0  0  0
 28 29  1  0  0  0  0
 29 36  1  6  0  0  0
 29 24  1  0  0  0  0
 32 26  1  0  0  0  0
 35 28  1  0  0  0  0
 37 38  1  0  0  0  0
 38 39  1  0  0  0  0
 39 29  1  0  0  0  0
 39 40  2  0  0  0  0
 40 41  1  0  0  0  0
 42 40  1  0  0  0  0
 42 43  1  0  0  0  0
 44 42  2  0  0  0  0
 45 38  2  0  0  0  0
 45 44  1  0  0  0  0
M  END
>  <minimizedAffinity>
-6.09305906

>  <minimizedRMSD>
0.741101205

$$$$
