REMARK  Name = 
REMARK  4 active torsions:
REMARK  status: ('A' for Active; 'I' for Inactive)
REMARK    1  A    between atoms: C_2  and  C_12
REMARK    2  A    between atoms: C_6  and  O_16
REMARK    3  A    between atoms: O_16  and  C_18
REMARK    4  A    between atoms: C_22  and  C_39
REMARK                            x       y       z     vdW  Elec       q    Type
REMARK                         _______ _______ _______ _____ _____    ______ ____
ROOT
ATOM      1  O   UNL     1      39.452  33.565  43.242  0.00  0.00    +0.000 OA
ENDROOT
BRANCH   1   7
ATOM      2  C   UNL     1      36.240  30.156  46.855  0.00  0.00    +0.000 A 
ATOM      3  C   UNL     1      37.076  30.710  47.794  0.00  0.00    +0.000 A 
ATOM      4  C   UNL     1      38.072  31.626  47.416  0.00  0.00    +0.000 A 
ATOM      5  C   UNL     1      38.169  31.939  46.080  0.00  0.00    +0.000 A 
ATOM      6  N   UNL     1      39.043  32.804  45.481  0.00  0.00    +0.000 N 
ATOM      7  C   UNL     1      38.744  32.781  44.168  0.00  0.00    +0.000 A 
ATOM      8  N   UNL     1      37.745  31.957  43.931  0.00  0.00    +0.000 NA
ATOM      9  C   UNL     1      37.347  31.402  45.108  0.00  0.00    +0.000 A 
ATOM     10  C   UNL     1      36.365  30.493  45.513  0.00  0.00    +0.000 A 
ATOM     11  H   UNL     1      35.456  29.447  47.086  0.00  0.00    +0.000 HD
ATOM     12  H   UNL     1      38.747  32.079  48.133  0.00  0.00    +0.000 HD
ATOM     13  H   UNL     1      39.791  33.368  45.951  0.00  0.00    +0.000 HD
ATOM     14  H   UNL     1      35.723  30.074  44.752  0.00  0.00    +0.000 HD
BRANCH   3  17
ATOM     15  C   UNL     1      37.486  30.205  51.502  0.00  0.00    +0.000 A 
ATOM     16  C   UNL     1      37.798  30.608  50.215  0.00  0.00    +0.000 A 
ATOM     17  C   UNL     1      36.921  30.356  49.193  0.00  0.00    +0.000 A 
ATOM     18  N   UNL     1      35.752  29.699  49.520  0.00  0.00    +0.000 NA
ATOM     19  C   UNL     1      35.447  29.308  50.766  0.00  0.00    +0.000 A 
ATOM     20  N   UNL     1      36.302  29.558  51.742  0.00  0.00    +0.000 NA
ATOM     21  H   UNL     1      38.197  30.417  52.289  0.00  0.00    +0.000 HD
ATOM     22  H   UNL     1      38.706  31.123  49.934  0.00  0.00    +0.000 HD
ATOM     23  H   UNL     1      34.519  28.806  50.924  0.00  0.00    +0.000 HD
ENDBRANCH   3  17
ENDBRANCH   1   7
BRANCH   1  25
ATOM     24  N   UNL     1      39.561  31.869  41.723  0.00  0.00    +0.000 NA
ATOM     25  C   UNL     1      39.190  33.295  41.868  0.00  0.00    +0.000 C 
ATOM     26  C   UNL     1      37.787  33.455  41.529  0.00  0.00    +0.000 C 
ATOM     27  O   UNL     1      37.623  33.149  40.165  0.00  0.00    +0.000 OA
ATOM     28  C   UNL     1      38.064  31.918  39.786  0.00  0.00    +0.000 C 
ATOM     29  C   UNL     1      39.440  31.581  40.313  0.00  0.00    +0.000 C 
ATOM     30  H   UNL     1      40.588  31.921  41.957  0.00  0.00    +0.000 HD
ATOM     31  H   UNL     1      39.813  33.917  41.204  0.00  0.00    +0.000 HD
ATOM     32  H   UNL     1      37.564  34.566  41.559  0.00  0.00    +0.000 HD
ATOM     33  H   UNL     1      36.974  32.978  42.002  0.00  0.00    +0.000 HD
ATOM     34  H   UNL     1      37.375  31.143  40.196  0.00  0.00    +0.000 HD
ATOM     35  H   UNL     1      38.097  31.925  38.681  0.00  0.00    +0.000 HD
ATOM     36  H   UNL     1      40.182  32.175  39.715  0.00  0.00    +0.000 HD
BRANCH  29  39
ATOM     37  F   UNL     1      37.255  29.780  40.215  0.00  0.00    +0.000 F 
ATOM     38  C   UNL     1      38.500  29.317  39.986  0.00  0.00    +0.000 A 
ATOM     39  C   UNL     1      39.628  30.137  40.015  0.00  0.00    +0.000 A 
ATOM     40  C   UNL     1      40.864  29.562  39.765  0.00  0.00    +0.000 A 
ATOM     41  H   UNL     1      41.753  30.201  39.787  0.00  0.00    +0.000 HD
ATOM     42  C   UNL     1      41.030  28.219  39.489  0.00  0.00    +0.000 A 
ATOM     43  H   UNL     1      41.995  27.774  39.295  0.00  0.00    +0.000 HD
ATOM     44  C   UNL     1      39.882  27.426  39.468  0.00  0.00    +0.000 A 
ATOM     45  C   UNL     1      38.649  27.968  39.711  0.00  0.00    +0.000 A 
ENDBRANCH  29  39
ENDBRANCH   1  25
TORSDOF 4
