
 OpenBabel03272508073D

 35 38  0  0  0  0  0  0  0  0999 V2000
   37.3870   26.3840   34.3030 C   0  0  0  0  0  0  0  0  0  0  0  0
   37.3040   26.6860   32.9720 C   0  0  0  0  0  0  0  0  0  0  0  0
   36.6870   27.9040   32.7740 C   0  0  0  0  0  0  0  0  0  0  0  0
   36.4030   28.3200   34.0190 N   0  0  0  0  0  0  0  0  0  0  0  0
   36.8090   27.4380   34.9190 N   0  0  0  0  0  0  0  0  0  0  0  0
   37.6770   26.0510   32.1760 H   0  0  0  0  0  0  0  0  0  0  0  0
   36.4570   28.4440   31.8790 H   0  0  0  0  0  0  0  0  0  0  0  0
   37.9610   25.2010   34.9370 C   0  0  0  0  0  0  0  0  0  0  0  0
   37.8440   25.1060   36.3550 C   0  0  0  0  0  0  0  0  0  0  0  0
   38.3950   23.9760   36.9590 C   0  0  0  0  0  0  0  0  0  0  0  0
   39.0020   23.0450   36.1720 N   0  0  0  0  0  0  0  0  0  0  0  0
   39.0910   23.1710   34.8330 C   0  0  0  0  0  0  0  0  0  0  0  0
   38.5670   24.2550   34.2320 N   0  0  0  0  0  0  0  0  0  0  0  0
   37.3450   25.8960   36.9000 H   0  0  0  0  0  0  0  0  0  0  0  0
   39.5890   22.3910   34.2730 H   0  0  0  0  0  0  0  0  0  0  0  0
   38.2880   23.8500   38.4440 C   0  0  0  0  0  0  0  0  0  0  0  0
   37.2980   22.9470   38.6710 F   0  0  0  0  0  0  0  0  0  0  0  0
   39.4650   23.3840   39.0160 F   0  0  0  0  0  0  0  0  0  0  0  0
   37.9610   25.0690   39.0430 F   0  0  0  0  0  0  0  0  0  0  0  0
   35.7450   29.5520   34.4510 C   0  0  0  0  0  0  0  0  0  0  0  0
   34.5420   29.9870   33.8840 C   0  0  0  0  0  0  0  0  0  0  0  0
   33.9610   31.1140   34.2900 C   0  0  0  0  0  0  0  0  0  0  0  0
   34.5820   31.8800   35.3190 C   0  0  0  0  0  0  0  0  0  0  0  0
   36.0870   30.8520   35.6700 S   0  0  0  0  0  0  0  0  0  0  0  0
   34.0260   29.4280   33.0850 H   0  0  0  0  0  0  0  0  0  0  0  0
   33.0770   31.6160   34.0080 H   0  0  0  0  0  0  0  0  0  0  0  0
   33.3040   31.8450   37.8630 F   0  0  0  0  0  0  0  0  0  0  0  0
   33.7030   32.9880   37.2610 C   0  0  0  0  0  0  0  0  0  0  0  0
   34.3250   33.1080   36.0420 C   0  0  0  0  0  0  0  0  0  0  0  0
   34.7250   34.2510   35.4370 C   0  0  0  0  0  0  0  0  0  0  0  0
   35.2090   34.2580   34.4720 H   0  0  0  0  0  0  0  0  0  0  0  0
   34.4990   35.4450   36.0930 C   0  0  0  0  0  0  0  0  0  0  0  0
   34.7730   36.4040   35.7080 H   0  0  0  0  0  0  0  0  0  0  0  0
   33.8710   35.4150   37.3420 C   0  0  0  0  0  3  0  0  0  0  0  0
   33.4770   34.2020   37.9200 C   0  0  0  0  0  3  0  0  0  0  0  0
  1  5  2  0  0  0  0
  1  8  1  0  0  0  0
  2  1  1  0  0  0  0
  3  2  2  0  0  0  0
  3  4  1  0  0  0  0
  4 20  1  0  0  0  0
  4  5  1  0  0  0  0
  6  2  1  0  0  0  0
  7  3  1  0  0  0  0
  8  9  1  0  0  0  0
  9 14  1  0  0  0  0
  9 10  2  0  0  0  0
 10 16  1  0  0  0  0
 11 10  1  0  0  0  0
 12 11  2  0  0  0  0
 13 12  1  0  0  0  0
 13  8  2  0  0  0  0
 15 12  1  0  0  0  0
 16 17  1  0  0  0  0
 16 18  1  0  0  0  0
 16 19  1  0  0  0  0
 20 24  1  0  0  0  0
 21 22  1  0  0  0  0
 21 20  2  0  0  0  0
 22 23  2  0  0  0  0
 23 24  1  0  0  0  0
 23 29  1  0  0  0  0
 25 21  1  0  0  0  0
 26 22  1  0  0  0  0
 28 27  1  0  0  0  0
 28 35  1  0  0  0  0
 29 28  2  0  0  0  0
 30 29  1  0  0  0  0
 30 32  2  0  0  0  0
 31 30  1  0  0  0  0
 32 34  1  0  0  0  0
 33 32  1  0  0  0  0
 34 35  2  0  0  0  0
M  END
>  <minimizedAffinity>
-6.59781551

$$$$

 OpenBabel03272508073D

 35 38  0  0  0  0  0  0  0  0999 V2000
   37.4390   26.4230   34.3230 C   0  0  0  0  0  0  0  0  0  0  0  0
   37.4820   26.8240   33.0160 C   0  0  0  0  0  0  0  0  0  0  0  0
   36.7980   28.0090   32.8340 C   0  0  0  0  0  0  0  0  0  0  0  0
   36.3460   28.3030   34.0640 N   0  0  0  0  0  0  0  0  0  0  0  0
   36.7160   27.3820   34.9410 N   0  0  0  0  0  0  0  0  0  0  0  0
   37.9890   26.2810   32.2260 H   0  0  0  0  0  0  0  0  0  0  0  0
   36.6280   28.6010   31.9590 H   0  0  0  0  0  0  0  0  0  0  0  0
   38.0290   25.2350   34.9330 C   0  0  0  0  0  0  0  0  0  0  0  0
   37.8840   25.0950   36.3450 C   0  0  0  0  0  0  0  0  0  0  0  0
   38.4510   23.9610   36.9270 C   0  0  0  0  0  0  0  0  0  0  0  0
   39.0980   23.0690   36.1270 N   0  0  0  0  0  0  0  0  0  0  0  0
   39.2120   23.2390   34.7940 C   0  0  0  0  0  0  0  0  0  0  0  0
   38.6730   24.3260   34.2140 N   0  0  0  0  0  0  0  0  0  0  0  0
   37.3530   25.8550   36.9030 H   0  0  0  0  0  0  0  0  0  0  0  0
   39.7410   22.4880   34.2220 H   0  0  0  0  0  0  0  0  0  0  0  0
   38.3150   23.7870   38.4050 C   0  0  0  0  0  0  0  0  0  0  0  0
   39.5270   23.3560   38.8430 F   0  0  0  0  0  0  0  0  0  0  0  0
   38.0020   24.9810   39.0460 F   0  0  0  0  0  0  0  0  0  0  0  0
   37.3340   22.8460   38.7260 F   0  0  0  0  0  0  0  0  0  0  0  0
   35.5500   29.4480   34.5030 C   0  0  0  0  0  0  0  0  0  0  0  0
   36.1090   30.5030   35.2340 C   0  0  0  0  0  0  0  0  0  0  0  0
   35.3650   31.5340   35.6260 C   0  0  0  0  0  0  0  0  0  0  0  0
   33.9800   31.5560   35.2890 C   0  0  0  0  0  0  0  0  0  0  0  0
   33.8160   29.9620   34.3540 S   0  0  0  0  0  0  0  0  0  0  0  0
   37.1750   30.5290   35.5170 H   0  0  0  0  0  0  0  0  0  0  0  0
   35.5750   32.4130   36.1720 H   0  0  0  0  0  0  0  0  0  0  0  0
   32.2860   31.2540   37.5570 F   0  0  0  0  0  0  0  0  0  0  0  0
   32.0860   32.2040   36.6160 C   0  0  0  0  0  0  0  0  0  0  0  0
   32.8430   32.4290   35.4920 C   0  0  0  0  0  0  0  0  0  0  0  0
   32.6440   33.3800   34.5490 C   0  0  0  0  0  0  0  0  0  0  0  0
   33.2900   33.4900   33.6900 H   0  0  0  0  0  0  0  0  0  0  0  0
   31.5700   34.2340   34.7060 C   0  0  0  0  0  0  0  0  0  0  0  0
   31.3210   35.0180   34.0230 H   0  0  0  0  0  0  0  0  0  0  0  0
   30.7460   34.0750   35.8240 C   0  0  0  0  0  3  0  0  0  0  0  0
   31.0000   33.0730   36.7690 C   0  0  0  0  0  3  0  0  0  0  0  0
  1  8  1  0  0  0  0
  1  5  2  0  0  0  0
  2  1  1  0  0  0  0
  3  2  2  0  0  0  0
  3  4  1  0  0  0  0
  4 20  1  0  0  0  0
  4  5  1  0  0  0  0
  6  2  1  0  0  0  0
  7  3  1  0  0  0  0
  8  9  1  0  0  0  0
  9 14  1  0  0  0  0
  9 10  2  0  0  0  0
 10 16  1  0  0  0  0
 11 10  1  0  0  0  0
 12 11  2  0  0  0  0
 13 12  1  0  0  0  0
 13  8  2  0  0  0  0
 15 12  1  0  0  0  0
 16 19  1  0  0  0  0
 16 17  1  0  0  0  0
 16 18  1  0  0  0  0
 20 21  2  0  0  0  0
 21 25  1  0  0  0  0
 21 22  1  0  0  0  0
 22 26  1  0  0  0  0
 23 29  1  0  0  0  0
 23 22  2  0  0  0  0
 24 20  1  0  0  0  0
 24 23  1  0  0  0  0
 28 35  1  0  0  0  0
 28 27  1  0  0  0  0
 29 28  2  0  0  0  0
 30 32  2  0  0  0  0
 30 29  1  0  0  0  0
 31 30  1  0  0  0  0
 32 34  1  0  0  0  0
 33 32  1  0  0  0  0
 34 35  2  0  0  0  0
M  END
>  <minimizedAffinity>
-6.45173597

$$$$

 OpenBabel03272508073D

 35 38  0  0  0  0  0  0  0  0999 V2000
   37.6380   24.3100   31.3440 C   0  0  0  0  0  0  0  0  0  0  0  0
   38.4830   25.1100   30.6240 C   0  0  0  0  0  0  0  0  0  0  0  0
   38.2730   26.4440   30.9130 C   0  0  0  0  0  0  0  0  0  0  0  0
   37.2830   26.4180   31.8200 N   0  0  0  0  0  0  0  0  0  0  0  0
   36.9050   25.1750   32.0780 N   0  0  0  0  0  0  0  0  0  0  0  0
   39.2210   24.7440   29.9210 H   0  0  0  0  0  0  0  0  0  0  0  0
   38.7440   27.3300   30.5430 H   0  0  0  0  0  0  0  0  0  0  0  0
   37.5320   22.8540   31.3350 C   0  0  0  0  0  0  0  0  0  0  0  0
   36.5250   22.2750   32.1620 C   0  0  0  0  0  0  0  0  0  0  0  0
   36.4260   20.8830   32.1550 C   0  0  0  0  0  0  0  0  0  0  0  0
   37.2830   20.1710   31.3710 N   0  0  0  0  0  0  0  0  0  0  0  0
   38.2220   20.7580   30.6020 C   0  0  0  0  0  0  0  0  0  0  0  0
   38.3340   22.0990   30.5960 N   0  0  0  0  0  0  0  0  0  0  0  0
   35.8870   22.9190   32.7530 H   0  0  0  0  0  0  0  0  0  0  0  0
   38.8690   20.1280   30.0060 H   0  0  0  0  0  0  0  0  0  0  0  0
   35.3800   20.2480   33.0110 C   0  0  0  0  0  0  0  0  0  0  0  0
   34.2090   20.3860   32.3340 F   0  0  0  0  0  0  0  0  0  0  0  0
   35.6230   18.8960   33.2200 F   0  0  0  0  0  0  0  0  0  0  0  0
   35.2810   20.8740   34.2560 F   0  0  0  0  0  0  0  0  0  0  0  0
   36.6300   27.5340   32.5020 C   0  0  0  0  0  0  0  0  0  0  0  0
   35.9850   28.5570   31.7970 C   0  0  0  0  0  0  0  0  0  0  0  0
   35.3990   29.5660   32.4380 C   0  0  0  0  0  0  0  0  0  0  0  0
   35.4340   29.5940   33.8620 C   0  0  0  0  0  0  0  0  0  0  0  0
   36.3860   28.0430   34.2260 S   0  0  0  0  0  0  0  0  0  0  0  0
   35.9320   28.5770   30.6960 H   0  0  0  0  0  0  0  0  0  0  0  0
   34.8700   30.4210   32.1150 H   0  0  0  0  0  0  0  0  0  0  0  0
   32.7200   29.4930   34.7190 F   0  0  0  0  0  0  0  0  0  0  0  0
   33.6300   30.3280   35.2690 C   0  0  0  0  0  0  0  0  0  0  0  0
   34.9550   30.4510   34.9280 C   0  0  0  0  0  0  0  0  0  0  0  0
   35.8680   31.2860   35.4770 C   0  0  0  0  0  0  0  0  0  0  0  0
   36.8960   31.3210   35.1480 H   0  0  0  0  0  0  0  0  0  0  0  0
   35.4520   32.1200   36.4970 C   0  0  0  0  0  0  0  0  0  0  0  0
   36.0870   32.8170   37.0000 H   0  0  0  0  0  0  0  0  0  0  0  0
   34.1170   32.0600   36.9090 C   0  0  0  0  0  3  0  0  0  0  0  0
   33.2160   31.1760   36.3030 C   0  0  0  0  0  3  0  0  0  0  0  0
  1  5  2  0  0  0  0
  2  3  2  0  0  0  0
  2  1  1  0  0  0  0
  3  4  1  0  0  0  0
  4  5  1  0  0  0  0
  4 20  1  0  0  0  0
  6  2  1  0  0  0  0
  7  3  1  0  0  0  0
  8  1  1  0  0  0  0
  8  9  1  0  0  0  0
  9 14  1  0  0  0  0
 10  9  2  0  0  0  0
 10 16  1  0  0  0  0
 11 10  1  0  0  0  0
 12 11  2  0  0  0  0
 13 12  1  0  0  0  0
 13  8  2  0  0  0  0
 15 12  1  0  0  0  0
 16 18  1  0  0  0  0
 16 19  1  0  0  0  0
 17 16  1  0  0  0  0
 20 24  1  0  0  0  0
 21 22  1  0  0  0  0
 21 20  2  0  0  0  0
 22 23  2  0  0  0  0
 23 24  1  0  0  0  0
 23 29  1  0  0  0  0
 25 21  1  0  0  0  0
 26 22  1  0  0  0  0
 27 28  1  0  0  0  0
 28 35  1  0  0  0  0
 29 28  2  0  0  0  0
 29 30  1  0  0  0  0
 30 32  2  0  0  0  0
 31 30  1  0  0  0  0
 32 34  1  0  0  0  0
 32 33  1  0  0  0  0
 35 34  2  0  0  0  0
M  END
>  <minimizedAffinity>
-6.41707802

$$$$

 OpenBabel03272508073D

 35 38  0  0  0  0  0  0  0  0999 V2000
   35.6720   28.9030   32.0080 C   0  0  0  0  0  0  0  0  0  0  0  0
   36.3880   28.8770   30.8420 C   0  0  0  0  0  0  0  0  0  0  0  0
   36.7930   27.5940   30.5340 C   0  0  0  0  0  0  0  0  0  0  0  0
   36.3010   26.8570   31.5450 N   0  0  0  0  0  0  0  0  0  0  0  0
   35.6450   27.6150   32.4110 N   0  0  0  0  0  0  0  0  0  0  0  0
   36.6070   29.7500   30.2390 H   0  0  0  0  0  0  0  0  0  0  0  0
   37.3590   27.2080   29.7130 H   0  0  0  0  0  0  0  0  0  0  0  0
   35.0690   30.0490   32.6820 C   0  0  0  0  0  0  0  0  0  0  0  0
   35.5870   30.3890   33.9660 C   0  0  0  0  0  0  0  0  0  0  0  0
   35.0080   31.4820   34.6110 C   0  0  0  0  0  0  0  0  0  0  0  0
   33.9990   32.1510   33.9860 N   0  0  0  0  0  0  0  0  0  0  0  0
   33.5390   31.7980   32.7690 C   0  0  0  0  0  0  0  0  0  0  0  0
   34.0830   30.7450   32.1310 N   0  0  0  0  0  0  0  0  0  0  0  0
   36.3910   29.8000   34.3870 H   0  0  0  0  0  0  0  0  0  0  0  0
   32.7330   32.3760   32.3340 H   0  0  0  0  0  0  0  0  0  0  0  0
   35.5300   31.8610   35.9580 C   0  0  0  0  0  0  0  0  0  0  0  0
   36.6670   31.1370   36.1350 F   0  0  0  0  0  0  0  0  0  0  0  0
   35.8400   33.2140   36.0380 F   0  0  0  0  0  0  0  0  0  0  0  0
   34.6170   31.5600   36.9700 F   0  0  0  0  0  0  0  0  0  0  0  0
   36.4060   25.4170   31.7700 C   0  0  0  0  0  0  0  0  0  0  0  0
   37.3690   24.8690   32.6250 C   0  0  0  0  0  0  0  0  0  0  0  0
   37.4490   23.5540   32.8140 C   0  0  0  0  0  0  0  0  0  0  0  0
   36.5350   22.7000   32.1300 C   0  0  0  0  0  0  0  0  0  0  0  0
   35.5340   23.9400   31.1780 S   0  0  0  0  0  0  0  0  0  0  0  0
   38.0960   25.4900   33.1750 H   0  0  0  0  0  0  0  0  0  0  0  0
   38.0800   22.9420   33.3980 H   0  0  0  0  0  0  0  0  0  0  0  0
   35.5850   21.2340   34.3780 F   0  0  0  0  0  0  0  0  0  0  0  0
   35.8090   20.6620   33.1740 C   0  0  0  0  0  0  0  0  0  0  0  0
   36.2630   21.2810   32.0340 C   0  0  0  0  0  0  0  0  0  0  0  0
   36.4870   20.7110   30.8270 C   0  0  0  0  0  0  0  0  0  0  0  0
   36.8470   21.2720   29.9780 H   0  0  0  0  0  0  0  0  0  0  0  0
   36.2400   19.3580   30.6940 C   0  0  0  0  0  0  0  0  0  0  0  0
   36.3820   18.8080   29.7880 H   0  0  0  0  0  0  0  0  0  0  0  0
   35.7740   18.6500   31.8050 C   0  0  0  0  0  3  0  0  0  0  0  0
   35.5600   19.2930   33.0310 C   0  0  0  0  0  3  0  0  0  0  0  0
  1  5  2  0  0  0  0
  1  8  1  0  0  0  0
  2  1  1  0  0  0  0
  3  2  2  0  0  0  0
  3  4  1  0  0  0  0
  4 20  1  0  0  0  0
  4  5  1  0  0  0  0
  6  2  1  0  0  0  0
  7  3  1  0  0  0  0
  8  9  1  0  0  0  0
  9 14  1  0  0  0  0
  9 10  2  0  0  0  0
 10 16  1  0  0  0  0
 11 10  1  0  0  0  0
 12 11  2  0  0  0  0
 13  8  2  0  0  0  0
 13 12  1  0  0  0  0
 15 12  1  0  0  0  0
 16 18  1  0  0  0  0
 16 17  1  0  0  0  0
 16 19  1  0  0  0  0
 20 21  2  0  0  0  0
 21 22  1  0  0  0  0
 21 25  1  0  0  0  0
 22 26  1  0  0  0  0
 23 22  2  0  0  0  0
 24 20  1  0  0  0  0
 24 23  1  0  0  0  0
 28 27  1  0  0  0  0
 29 23  1  0  0  0  0
 29 28  2  0  0  0  0
 30 29  1  0  0  0  0
 31 30  1  0  0  0  0
 32 30  2  0  0  0  0
 32 34  1  0  0  0  0
 33 32  1  0  0  0  0
 34 35  2  0  0  0  0
 35 28  1  0  0  0  0
M  END
>  <minimizedAffinity>
-6.32796097

$$$$

 OpenBabel03272508073D

 35 38  0  0  0  0  0  0  0  0999 V2000
   35.3150   29.5870   33.3040 C   0  0  0  0  0  0  0  0  0  0  0  0
   35.7810   29.4060   32.0300 C   0  0  0  0  0  0  0  0  0  0  0  0
   36.6320   28.3210   31.9600 C   0  0  0  0  0  0  0  0  0  0  0  0
   36.6620   27.8620   33.2230 N   0  0  0  0  0  0  0  0  0  0  0  0
   35.8960   28.5970   34.0140 N   0  0  0  0  0  0  0  0  0  0  0  0
   35.5150   30.0310   31.1860 H   0  0  0  0  0  0  0  0  0  0  0  0
   37.1690   27.8950   31.1390 H   0  0  0  0  0  0  0  0  0  0  0  0
   34.4030   30.6110   33.8040 C   0  0  0  0  0  0  0  0  0  0  0  0
   34.4210   30.8620   35.2070 C   0  0  0  0  0  0  0  0  0  0  0  0
   33.5470   31.8390   35.6840 C   0  0  0  0  0  0  0  0  0  0  0  0
   32.7410   32.4860   34.7960 N   0  0  0  0  0  0  0  0  0  0  0  0
   32.7560   32.2190   33.4750 C   0  0  0  0  0  0  0  0  0  0  0  0
   33.5910   31.2800   32.9950 N   0  0  0  0  0  0  0  0  0  0  0  0
   35.0950   30.2990   35.8390 H   0  0  0  0  0  0  0  0  0  0  0  0
   32.0870   32.7730   32.8290 H   0  0  0  0  0  0  0  0  0  0  0  0
   33.5430   32.1230   37.1510 C   0  0  0  0  0  0  0  0  0  0  0  0
   34.8490   32.1480   37.5290 F   0  0  0  0  0  0  0  0  0  0  0  0
   32.9650   33.3530   37.4450 F   0  0  0  0  0  0  0  0  0  0  0  0
   32.8630   31.1360   37.8670 F   0  0  0  0  0  0  0  0  0  0  0  0
   37.3960   26.7230   33.7710 C   0  0  0  0  0  0  0  0  0  0  0  0
   37.5190   25.5160   33.0740 C   0  0  0  0  0  0  0  0  0  0  0  0
   38.1890   24.4900   33.5930 C   0  0  0  0  0  0  0  0  0  0  0  0
   38.7880   24.6340   34.8780 C   0  0  0  0  0  0  0  0  0  0  0  0
   38.3120   26.3780   35.2990 S   0  0  0  0  0  0  0  0  0  0  0  0
   37.0720   25.3580   32.0770 H   0  0  0  0  0  0  0  0  0  0  0  0
   38.4000   23.5140   33.2500 H   0  0  0  0  0  0  0  0  0  0  0  0
   37.7360   23.8250   37.3970 F   0  0  0  0  0  0  0  0  0  0  0  0
   38.9780   23.4890   36.9810 C   0  0  0  0  0  0  0  0  0  0  0  0
   39.5730   23.8280   35.7900 C   0  0  0  0  0  0  0  0  0  0  0  0
   40.8160   23.4920   35.3720 C   0  0  0  0  0  0  0  0  0  0  0  0
   41.2100   23.8020   34.4150 H   0  0  0  0  0  0  0  0  0  0  0  0
   41.5970   22.7240   36.2120 C   0  0  0  0  0  0  0  0  0  0  0  0
   42.5900   22.4020   35.9830 H   0  0  0  0  0  0  0  0  0  0  0  0
   41.0680   22.3320   37.4460 C   0  0  0  0  0  3  0  0  0  0  0  0
   39.7750   22.7100   37.8270 C   0  0  0  0  0  3  0  0  0  0  0  0
  1  8  1  0  0  0  0
  1  5  2  0  0  0  0
  2  1  1  0  0  0  0
  3  2  2  0  0  0  0
  3  4  1  0  0  0  0
  4 20  1  0  0  0  0
  4  5  1  0  0  0  0
  6  2  1  0  0  0  0
  7  3  1  0  0  0  0
  8  9  1  0  0  0  0
  9 10  2  0  0  0  0
  9 14  1  0  0  0  0
 10 16  1  0  0  0  0
 11 10  1  0  0  0  0
 12 11  2  0  0  0  0
 13 12  1  0  0  0  0
 13  8  2  0  0  0  0
 15 12  1  0  0  0  0
 16 18  1  0  0  0  0
 16 17  1  0  0  0  0
 16 19  1  0  0  0  0
 20 24  1  0  0  0  0
 21 22  1  0  0  0  0
 21 20  2  0  0  0  0
 22 23  2  0  0  0  0
 23 24  1  0  0  0  0
 23 29  1  0  0  0  0
 25 21  1  0  0  0  0
 26 22  1  0  0  0  0
 28 27  1  0  0  0  0
 28 35  1  0  0  0  0
 29 28  2  0  0  0  0
 30 29  1  0  0  0  0
 30 32  2  0  0  0  0
 31 30  1  0  0  0  0
 32 34  1  0  0  0  0
 33 32  1  0  0  0  0
 34 35  2  0  0  0  0
M  END
>  <minimizedAffinity>
-6.27000427

$$$$

 OpenBabel03272508073D

 35 38  0  0  0  0  0  0  0  0999 V2000
   37.8060   24.6910   31.6920 C   0  0  0  0  0  0  0  0  0  0  0  0
   38.8340   25.4890   31.2720 C   0  0  0  0  0  0  0  0  0  0  0  0
   38.6350   26.8010   31.6510 C   0  0  0  0  0  0  0  0  0  0  0  0
   37.4620   26.7640   32.3070 N   0  0  0  0  0  0  0  0  0  0  0  0
   36.9710   25.5350   32.3340 N   0  0  0  0  0  0  0  0  0  0  0  0
   39.6950   25.1360   30.7140 H   0  0  0  0  0  0  0  0  0  0  0  0
   39.2240   27.6800   31.4970 H   0  0  0  0  0  0  0  0  0  0  0  0
   37.6290   23.2550   31.4980 C   0  0  0  0  0  0  0  0  0  0  0  0
   36.6600   22.6070   32.3200 C   0  0  0  0  0  0  0  0  0  0  0  0
   36.4930   21.2340   32.1370 C   0  0  0  0  0  0  0  0  0  0  0  0
   37.2520   20.6030   31.1980 N   0  0  0  0  0  0  0  0  0  0  0  0
   38.1580   21.2530   30.4400 C   0  0  0  0  0  0  0  0  0  0  0  0
   38.3340   22.5770   30.6030 N   0  0  0  0  0  0  0  0  0  0  0  0
   36.1010   23.1890   33.0420 H   0  0  0  0  0  0  0  0  0  0  0  0
   38.7260   20.6850   29.7140 H   0  0  0  0  0  0  0  0  0  0  0  0
   35.4850   20.5290   32.9840 C   0  0  0  0  0  0  0  0  0  0  0  0
   34.2850   20.7220   32.3750 F   0  0  0  0  0  0  0  0  0  0  0  0
   35.7340   19.1650   33.0690 F   0  0  0  0  0  0  0  0  0  0  0  0
   35.4450   21.0500   34.2800 F   0  0  0  0  0  0  0  0  0  0  0  0
   36.7300   27.8570   32.9440 C   0  0  0  0  0  0  0  0  0  0  0  0
   36.2960   28.9770   32.2250 C   0  0  0  0  0  0  0  0  0  0  0  0
   35.6330   29.9620   32.8270 C   0  0  0  0  0  0  0  0  0  0  0  0
   35.3640   29.8640   34.2230 C   0  0  0  0  0  0  0  0  0  0  0  0
   36.1470   28.2290   34.6210 S   0  0  0  0  0  0  0  0  0  0  0  0
   36.4810   29.0960   31.1440 H   0  0  0  0  0  0  0  0  0  0  0  0
   35.2240   30.8740   32.4860 H   0  0  0  0  0  0  0  0  0  0  0  0
   36.8440   31.6600   35.8620 F   0  0  0  0  0  0  0  0  0  0  0  0
   35.5080   31.4900   35.9840 C   0  0  0  0  0  0  0  0  0  0  0  0
   34.7090   30.6530   35.2440 C   0  0  0  0  0  0  0  0  0  0  0  0
   33.3710   30.4810   35.3640 C   0  0  0  0  0  0  0  0  0  0  0  0
   32.8150   29.7980   34.7400 H   0  0  0  0  0  0  0  0  0  0  0  0
   32.7070   31.2160   36.3270 C   0  0  0  0  0  0  0  0  0  0  0  0
   31.6550   31.1590   36.5080 H   0  0  0  0  0  0  0  0  0  0  0  0
   33.4450   32.0950   37.1260 C   0  0  0  0  0  3  0  0  0  0  0  0
   34.8290   32.2310   36.9580 C   0  0  0  0  0  3  0  0  0  0  0  0
  1  5  2  0  0  0  0
  2  3  2  0  0  0  0
  2  1  1  0  0  0  0
  3  4  1  0  0  0  0
  4  5  1  0  0  0  0
  4 20  1  0  0  0  0
  6  2  1  0  0  0  0
  7  3  1  0  0  0  0
  8  1  1  0  0  0  0
  8  9  1  0  0  0  0
  9 14  1  0  0  0  0
 10  9  2  0  0  0  0
 10 16  1  0  0  0  0
 11 10  1  0  0  0  0
 12 13  1  0  0  0  0
 12 11  2  0  0  0  0
 13  8  2  0  0  0  0
 15 12  1  0  0  0  0
 16 18  1  0  0  0  0
 16 19  1  0  0  0  0
 17 16  1  0  0  0  0
 20 24  1  0  0  0  0
 21 22  1  0  0  0  0
 21 20  2  0  0  0  0
 22 23  2  0  0  0  0
 23 24  1  0  0  0  0
 23 29  1  0  0  0  0
 25 21  1  0  0  0  0
 26 22  1  0  0  0  0
 27 28  1  0  0  0  0
 28 35  1  0  0  0  0
 29 30  1  0  0  0  0
 29 28  2  0  0  0  0
 30 32  2  0  0  0  0
 31 30  1  0  0  0  0
 32 33  1  0  0  0  0
 32 34  1  0  0  0  0
 35 34  2  0  0  0  0
M  END
>  <minimizedAffinity>
-6.16829777

$$$$

 OpenBabel03272508073D

 35 38  0  0  0  0  0  0  0  0999 V2000
   35.9470   28.6350   33.9030 C   0  0  0  0  0  0  0  0  0  0  0  0
   36.1340   28.2570   32.6020 C   0  0  0  0  0  0  0  0  0  0  0  0
   37.1200   27.2960   32.4980 C   0  0  0  0  0  0  0  0  0  0  0  0
   37.5160   27.1120   33.7690 N   0  0  0  0  0  0  0  0  0  0  0  0
   36.8360   27.8910   34.5960 N   0  0  0  0  0  0  0  0  0  0  0  0
   35.5790   28.6590   31.7620 H   0  0  0  0  0  0  0  0  0  0  0  0
   37.5210   26.7820   31.6500 H   0  0  0  0  0  0  0  0  0  0  0  0
   35.0110   29.6170   34.4420 C   0  0  0  0  0  0  0  0  0  0  0  0
   35.5720   30.7900   35.0280 C   0  0  0  0  0  0  0  0  0  0  0  0
   34.6770   31.7260   35.5450 C   0  0  0  0  0  0  0  0  0  0  0  0
   33.3420   31.4700   35.4610 N   0  0  0  0  0  0  0  0  0  0  0  0
   32.8520   30.3480   34.8980 C   0  0  0  0  0  0  0  0  0  0  0  0
   33.6990   29.4320   34.3940 N   0  0  0  0  0  0  0  0  0  0  0  0
   36.6480   30.9100   35.0510 H   0  0  0  0  0  0  0  0  0  0  0  0
   31.7780   30.2120   34.8670 H   0  0  0  0  0  0  0  0  0  0  0  0
   35.2370   32.9660   36.1650 C   0  0  0  0  0  0  0  0  0  0  0  0
   34.9970   32.8570   37.4980 F   0  0  0  0  0  0  0  0  0  0  0  0
   36.6060   33.0800   35.9600 F   0  0  0  0  0  0  0  0  0  0  0  0
   34.6200   34.1150   35.6660 F   0  0  0  0  0  0  0  0  0  0  0  0
   38.5390   26.2100   34.2930 C   0  0  0  0  0  0  0  0  0  0  0  0
   39.8660   26.6180   34.4720 C   0  0  0  0  0  0  0  0  0  0  0  0
   40.7830   25.7790   34.9480 C   0  0  0  0  0  0  0  0  0  0  0  0
   40.3970   24.4480   35.2770 C   0  0  0  0  0  0  0  0  0  0  0  0
   38.5920   24.4830   34.8470 S   0  0  0  0  0  0  0  0  0  0  0  0
   40.2100   27.6390   34.2310 H   0  0  0  0  0  0  0  0  0  0  0  0
   41.8130   25.8740   35.1560 H   0  0  0  0  0  0  0  0  0  0  0  0
   39.5910   23.3380   37.7720 F   0  0  0  0  0  0  0  0  0  0  0  0
   40.5650   22.7930   37.0100 C   0  0  0  0  0  0  0  0  0  0  0  0
   41.0230   23.2500   35.7980 C   0  0  0  0  0  0  0  0  0  0  0  0
   41.9990   22.7060   35.0340 C   0  0  0  0  0  0  0  0  0  0  0  0
   42.3010   23.1310   34.0880 H   0  0  0  0  0  0  0  0  0  0  0  0
   42.6210   21.5620   35.4950 C   0  0  0  0  0  0  0  0  0  0  0  0
   43.4020   21.0510   34.9740 H   0  0  0  0  0  0  0  0  0  0  0  0
   42.2160   21.0270   36.7220 C   0  0  0  0  0  3  0  0  0  0  0  0
   41.2000   21.6340   37.4710 C   0  0  0  0  0  3  0  0  0  0  0  0
  1  8  1  0  0  0  0
  1  5  2  0  0  0  0
  2  1  1  0  0  0  0
  3  2  2  0  0  0  0
  3  4  1  0  0  0  0
  4 20  1  0  0  0  0
  4  5  1  0  0  0  0
  6  2  1  0  0  0  0
  7  3  1  0  0  0  0
  8  9  1  0  0  0  0
  9 14  1  0  0  0  0
  9 10  2  0  0  0  0
 10 16  1  0  0  0  0
 11 10  1  0  0  0  0
 12 11  2  0  0  0  0
 13  8  2  0  0  0  0
 13 12  1  0  0  0  0
 15 12  1  0  0  0  0
 16 17  1  0  0  0  0
 18 16  1  0  0  0  0
 19 16  1  0  0  0  0
 20 21  2  0  0  0  0
 20 24  1  0  0  0  0
 21 22  1  0  0  0  0
 22 26  1  0  0  0  0
 22 23  2  0  0  0  0
 23 29  1  0  0  0  0
 24 23  1  0  0  0  0
 25 21  1  0  0  0  0
 28 35  1  0  0  0  0
 28 27  1  0  0  0  0
 29 28  2  0  0  0  0
 30 32  2  0  0  0  0
 30 29  1  0  0  0  0
 31 30  1  0  0  0  0
 32 34  1  0  0  0  0
 33 32  1  0  0  0  0
 34 35  2  0  0  0  0
M  END
>  <minimizedAffinity>
-6.14473677

$$$$

 OpenBabel03272508073D

 35 38  0  0  0  0  0  0  0  0999 V2000
   35.4480   29.6430   32.0770 C   0  0  0  0  0  0  0  0  0  0  0  0
   36.3150   29.6940   31.0200 C   0  0  0  0  0  0  0  0  0  0  0  0
   36.6260   28.4280   30.5680 C   0  0  0  0  0  0  0  0  0  0  0  0
   35.9240   27.6220   31.3810 N   0  0  0  0  0  0  0  0  0  0  0  0
   35.2330   28.3230   32.2660 N   0  0  0  0  0  0  0  0  0  0  0  0
   36.7060   30.6110   30.5940 H   0  0  0  0  0  0  0  0  0  0  0  0
   37.2610   28.0960   29.7730 H   0  0  0  0  0  0  0  0  0  0  0  0
   34.8760   30.7470   32.8420 C   0  0  0  0  0  0  0  0  0  0  0  0
   35.4910   31.0530   34.0920 C   0  0  0  0  0  0  0  0  0  0  0  0
   34.9410   32.1060   34.8230 C   0  0  0  0  0  0  0  0  0  0  0  0
   33.8690   32.7700   34.3090 N   0  0  0  0  0  0  0  0  0  0  0  0
   33.3170   32.4490   33.1220 C   0  0  0  0  0  0  0  0  0  0  0  0
   33.8310   31.4360   32.4020 N   0  0  0  0  0  0  0  0  0  0  0  0
   36.3410   30.4710   34.4220 H   0  0  0  0  0  0  0  0  0  0  0  0
   32.4650   33.0210   32.7780 H   0  0  0  0  0  0  0  0  0  0  0  0
   35.5650   32.4500   36.1370 C   0  0  0  0  0  0  0  0  0  0  0  0
   36.7310   31.7530   36.1900 F   0  0  0  0  0  0  0  0  0  0  0  0
   35.8450   33.8070   36.2440 F   0  0  0  0  0  0  0  0  0  0  0  0
   34.7470   32.0830   37.2080 F   0  0  0  0  0  0  0  0  0  0  0  0
   35.8480   26.1620   31.3890 C   0  0  0  0  0  0  0  0  0  0  0  0
   34.8020   25.4710   30.7670 C   0  0  0  0  0  0  0  0  0  0  0  0
   34.7520   24.1410   30.7890 C   0  0  0  0  0  0  0  0  0  0  0  0
   35.7830   23.4200   31.4570 C   0  0  0  0  0  0  0  0  0  0  0  0
   36.8520   24.8100   32.0660 S   0  0  0  0  0  0  0  0  0  0  0  0
   33.9830   25.9860   30.2370 H   0  0  0  0  0  0  0  0  0  0  0  0
   34.0730   23.4350   30.3950 H   0  0  0  0  0  0  0  0  0  0  0  0
   38.0300   22.1960   30.2080 F   0  0  0  0  0  0  0  0  0  0  0  0
   37.2250   21.5380   31.0720 C   0  0  0  0  0  0  0  0  0  0  0  0
   36.1240   22.0380   31.7230 C   0  0  0  0  0  0  0  0  0  0  0  0
   35.3160   21.3810   32.5880 C   0  0  0  0  0  0  0  0  0  0  0  0
   34.4650   21.8500   33.0600 H   0  0  0  0  0  0  0  0  0  0  0  0
   35.6060   20.0600   32.8700 C   0  0  0  0  0  0  0  0  0  0  0  0
   35.0370   19.4480   33.5360 H   0  0  0  0  0  0  0  0  0  0  0  0
   36.7120   19.4700   32.2500 C   0  0  0  0  0  3  0  0  0  0  0  0
   37.5130   20.1990   31.3620 C   0  0  0  0  0  3  0  0  0  0  0  0
  1  5  2  0  0  0  0
  1  8  1  0  0  0  0
  2  1  1  0  0  0  0
  3  2  2  0  0  0  0
  3  4  1  0  0  0  0
  4 20  1  0  0  0  0
  4  5  1  0  0  0  0
  6  2  1  0  0  0  0
  7  3  1  0  0  0  0
  8  9  1  0  0  0  0
  9 14  1  0  0  0  0
  9 10  2  0  0  0  0
 10 16  1  0  0  0  0
 11 10  1  0  0  0  0
 12 11  2  0  0  0  0
 13  8  2  0  0  0  0
 13 12  1  0  0  0  0
 15 12  1  0  0  0  0
 16 17  1  0  0  0  0
 16 18  1  0  0  0  0
 16 19  1  0  0  0  0
 20 24  1  0  0  0  0
 21 22  1  0  0  0  0
 21 20  2  0  0  0  0
 22 23  2  0  0  0  0
 23 29  1  0  0  0  0
 23 24  1  0  0  0  0
 25 21  1  0  0  0  0
 26 22  1  0  0  0  0
 27 28  1  0  0  0  0
 28 35  2  0  0  0  0
 28 29  1  0  0  0  0
 29 30  2  0  0  0  0
 30 32  1  0  0  0  0
 30 31  1  0  0  0  0
 32 33  1  0  0  0  0
 34 32  2  0  0  0  0
 35 34  1  0  0  0  0
M  END
>  <minimizedAffinity>
-6.12718105

$$$$

 OpenBabel03272508073D

 35 38  0  0  0  0  0  0  0  0999 V2000
   37.6750   25.1440   33.7980 C   0  0  0  0  0  0  0  0  0  0  0  0
   37.3280   24.9270   32.4930 C   0  0  0  0  0  0  0  0  0  0  0  0
   36.7850   26.0630   31.9260 C   0  0  0  0  0  0  0  0  0  0  0  0
   36.8170   26.9600   32.9260 N   0  0  0  0  0  0  0  0  0  0  0  0
   37.3350   26.4310   34.0240 N   0  0  0  0  0  0  0  0  0  0  0  0
   37.4630   23.9860   31.9720 H   0  0  0  0  0  0  0  0  0  0  0  0
   36.4100   26.2530   30.9420 H   0  0  0  0  0  0  0  0  0  0  0  0
   38.2740   24.2130   34.7500 C   0  0  0  0  0  0  0  0  0  0  0  0
   38.0070   24.4400   36.1320 C   0  0  0  0  0  0  0  0  0  0  0  0
   38.5820   23.5510   37.0400 C   0  0  0  0  0  0  0  0  0  0  0  0
   39.3520   22.5340   36.5620 N   0  0  0  0  0  0  0  0  0  0  0  0
   39.5800   22.3540   35.2450 C   0  0  0  0  0  0  0  0  0  0  0  0
   39.0350   23.2010   34.3530 N   0  0  0  0  0  0  0  0  0  0  0  0
   37.3820   25.2750   36.4220 H   0  0  0  0  0  0  0  0  0  0  0  0
   40.2030   21.5240   34.9390 H   0  0  0  0  0  0  0  0  0  0  0  0
   38.3180   23.7640   38.4950 C   0  0  0  0  0  0  0  0  0  0  0  0
   37.3530   22.8690   38.8350 F   0  0  0  0  0  0  0  0  0  0  0  0
   39.4460   23.5280   39.2720 F   0  0  0  0  0  0  0  0  0  0  0  0
   37.8710   25.0620   38.7540 F   0  0  0  0  0  0  0  0  0  0  0  0
   36.3730   28.3520   32.9270 C   0  0  0  0  0  0  0  0  0  0  0  0
   36.5220   29.1790   31.8070 C   0  0  0  0  0  0  0  0  0  0  0  0
   36.1140   30.4450   31.8310 C   0  0  0  0  0  0  0  0  0  0  0  0
   35.5160   30.9570   33.0180 C   0  0  0  0  0  0  0  0  0  0  0  0
   35.5830   29.4660   34.1220 S   0  0  0  0  0  0  0  0  0  0  0  0
   36.9790   28.8260   30.8660 H   0  0  0  0  0  0  0  0  0  0  0  0
   36.1290   31.2250   31.1190 H   0  0  0  0  0  0  0  0  0  0  0  0
   37.1600   33.2460   33.4240 F   0  0  0  0  0  0  0  0  0  0  0  0
   35.8260   33.2550   33.6450 C   0  0  0  0  0  0  0  0  0  0  0  0
   34.9520   32.2090   33.4790 C   0  0  0  0  0  0  0  0  0  0  0  0
   33.6160   32.2160   33.7000 C   0  0  0  0  0  0  0  0  0  0  0  0
   32.9970   31.3450   33.5440 H   0  0  0  0  0  0  0  0  0  0  0  0
   33.0380   33.3910   34.1390 C   0  0  0  0  0  0  0  0  0  0  0  0
   31.9960   33.5080   34.3440 H   0  0  0  0  0  0  0  0  0  0  0  0
   33.8560   34.5080   34.3340 C   0  0  0  0  0  3  0  0  0  0  0  0
   35.2340   34.4420   34.0900 C   0  0  0  0  0  3  0  0  0  0  0  0
  1  5  2  0  0  0  0
  1  8  1  0  0  0  0
  2  1  1  0  0  0  0
  3  2  2  0  0  0  0
  3  4  1  0  0  0  0
  4 20  1  0  0  0  0
  4  5  1  0  0  0  0
  6  2  1  0  0  0  0
  7  3  1  0  0  0  0
  8  9  1  0  0  0  0
  9 14  1  0  0  0  0
  9 10  2  0  0  0  0
 10 16  1  0  0  0  0
 11 10  1  0  0  0  0
 12 11  2  0  0  0  0
 13  8  2  0  0  0  0
 13 12  1  0  0  0  0
 15 12  1  0  0  0  0
 16 19  1  0  0  0  0
 16 17  1  0  0  0  0
 16 18  1  0  0  0  0
 20 24  1  0  0  0  0
 21 22  1  0  0  0  0
 21 20  2  0  0  0  0
 22 23  2  0  0  0  0
 23 29  1  0  0  0  0
 23 24  1  0  0  0  0
 25 21  1  0  0  0  0
 26 22  1  0  0  0  0
 27 28  1  0  0  0  0
 28 35  1  0  0  0  0
 29 28  2  0  0  0  0
 29 30  1  0  0  0  0
 30 32  2  0  0  0  0
 31 30  1  0  0  0  0
 32 34  1  0  0  0  0
 32 33  1  0  0  0  0
 35 34  2  0  0  0  0
M  END
>  <minimizedAffinity>
-6.07232952

$$$$
