
 OpenBabel03272510263D

 45 49  0  0  1  0  0  0  0  0999 V2000
   39.4860   33.6410   43.5360 O   0  0  0  0  0  0  0  0  0  0  0  0
   36.1300   30.2430   47.0260 C   0  0  0  0  0  0  0  0  0  0  0  0
   37.0030   30.7080   47.9800 C   0  0  0  0  0  0  0  0  0  0  0  0
   38.0430   31.5870   47.6330 C   0  0  0  0  0  0  0  0  0  0  0  0
   38.1440   31.9560   46.3110 C   0  0  0  0  0  0  0  0  0  0  0  0
   39.0570   32.8000   45.7420 N   0  0  0  0  0  0  0  0  0  0  0  0
   38.7460   32.8540   44.4330 C   0  0  0  0  0  0  0  0  0  0  0  0
   37.7020   32.0950   44.1700 N   0  0  0  0  0  0  0  0  0  0  0  0
   37.2860   31.5080   45.3250 C   0  0  0  0  0  0  0  0  0  0  0  0
   36.2610   30.6340   45.6990 C   0  0  0  0  0  0  0  0  0  0  0  0
   35.3120   29.5660   47.2330 H   0  0  0  0  0  0  0  0  0  0  0  0
   38.7470   31.9700   48.3620 H   0  0  0  0  0  0  0  0  0  0  0  0
   39.8380   33.3020   46.2290 H   0  0  0  0  0  0  0  0  0  0  0  0
   35.5910   30.2850   44.9270 H   0  0  0  0  0  0  0  0  0  0  0  0
   37.4020   30.0460   51.6640 C   0  0  0  0  0  0  0  0  0  0  0  0
   37.7200   30.4980   50.3950 C   0  0  0  0  0  0  0  0  0  0  0  0
   36.8420   30.2980   49.3630 C   0  0  0  0  0  0  0  0  0  0  0  0
   35.6650   29.6410   49.6610 N   0  0  0  0  0  0  0  0  0  0  0  0
   35.3540   29.2030   50.8900 C   0  0  0  0  0  0  0  0  0  0  0  0
   36.2100   29.4030   51.8760 N   0  0  0  0  0  0  0  0  0  0  0  0
   38.1140   30.2170   52.4600 H   0  0  0  0  0  0  0  0  0  0  0  0
   38.6340   31.0140   50.1360 H   0  0  0  0  0  0  0  0  0  0  0  0
   34.4200   28.7050   51.0260 H   0  0  0  0  0  0  0  0  0  0  0  0
   39.6930   31.6580   42.4320 N   0  0  0  0  0  0  0  0  0  0  0  0
   39.6230   33.1210   42.2170 C   0  0  1  0  0  0  0  0  0  0  0  0
   38.4740   33.4220   41.3800 C   0  0  0  0  0  0  0  0  0  0  0  0
   38.6900   32.8540   40.1110 O   0  0  0  0  0  0  0  0  0  0  0  0
   38.9420   31.5160   40.1050 C   0  0  0  0  0  0  0  0  0  0  0  0
   39.9670   31.0910   41.1320 C   0  0  2  0  0  0  0  0  0  0  0  0
   40.5760   31.5980   43.0050 H   0  0  0  0  0  0  0  0  0  0  0  0
   40.5470   33.4770   41.7320 H   0  0  0  0  0  0  0  0  0  0  0  0
   38.5070   34.5330   41.1600 H   0  0  0  0  0  0  0  0  0  0  0  0
   37.4680   33.1940   41.6000 H   0  0  0  0  0  0  0  0  0  0  0  0
   38.0040   30.9680   40.3560 H   0  0  0  0  0  0  0  0  0  0  0  0
   39.3270   31.2750   39.0970 H   0  0  0  0  0  0  0  0  0  0  0  0
   40.9730   31.4150   40.7550 H   0  0  0  0  0  0  0  0  0  0  0  0
   41.5030   29.5270   39.3370 F   0  0  0  0  0  0  0  0  0  0  0  0
   40.7010   28.9090   40.2270 C   0  0  0  0  0  0  0  0  0  0  0  0
   39.9130   29.6050   41.1440 C   0  0  0  0  0  0  0  0  0  0  0  0
   39.1220   28.8750   42.0160 C   0  0  0  0  0  0  0  0  0  0  0  0
   38.5010   29.4160   42.7390 H   0  0  0  0  0  0  0  0  0  0  0  0
   39.0770   27.4940   42.0210 C   0  0  0  0  0  0  0  0  0  0  0  0
   38.4590   26.9290   42.7020 H   0  0  0  0  0  0  0  0  0  0  0  0
   39.8770   26.8290   41.0900 C   0  0  0  0  0  3  0  0  0  0  0  0
   40.6680   27.5250   40.2170 C   0  0  0  0  0  3  0  0  0  0  0  0
  1  7  1  0  0  0  0
  2 11  1  0  0  0  0
  2  3  1  0  0  0  0
  3 17  1  0  0  0  0
  4  3  2  0  0  0  0
  4 12  1  0  0  0  0
  5  4  1  0  0  0  0
  6 13  1  0  0  0  0
  6  5  1  0  0  0  0
  7  6  1  0  0  0  0
  8  7  2  0  0  0  0
  8  9  1  0  0  0  0
  9 10  1  0  0  0  0
  9  5  2  0  0  0  0
 10  2  2  0  0  0  0
 14 10  1  0  0  0  0
 15 20  1  0  0  0  0
 15 21  1  0  0  0  0
 16 15  2  0  0  0  0
 17 18  2  0  0  0  0
 17 16  1  0  0  0  0
 18 19  1  0  0  0  0
 19 23  1  0  0  0  0
 19 20  2  0  0  0  0
 22 16  1  0  0  0  0
 24 30  1  0  0  0  0
 25 31  1  6  0  0  0
 25 24  1  0  0  0  0
 25  1  1  0  0  0  0
 26 33  1  0  0  0  0
 26 25  1  0  0  0  0
 27 26  1  0  0  0  0
 28 27  1  0  0  0  0
 28 34  1  0  0  0  0
 28 29  1  0  0  0  0
 29 36  1  6  0  0  0
 29 39  1  0  0  0  0
 29 24  1  0  0  0  0
 32 26  1  0  0  0  0
 35 28  1  0  0  0  0
 37 38  1  0  0  0  0
 38 39  1  0  0  0  0
 39 40  2  0  0  0  0
 40 42  1  0  0  0  0
 40 41  1  0  0  0  0
 42 43  1  0  0  0  0
 44 42  2  0  0  0  0
 45 38  2  0  0  0  0
 45 44  1  0  0  0  0
M  END
>  <minimizedAffinity>
-6.05188417

>  <minimizedRMSD>
1.27774501

$$$$
