
 OpenBabel03272503333D

 41 44  0  0  1  0  0  0  0  0999 V2000
   35.3870   29.5200   47.7320 C   0  0  0  0  0  0  0  0  0  0  0  0
   35.3330   30.1610   46.4960 C   0  0  0  0  0  0  0  0  0  0  0  0
   34.2780   29.8140   45.6410 C   0  0  0  0  0  0  0  0  0  0  0  0
   33.3800   28.8670   46.0950 N   0  0  0  0  0  0  0  0  0  0  0  0
   33.4780   28.2840   47.2870 C   0  0  0  0  0  0  0  0  0  0  0  0
   34.4830   28.6080   48.1110 N   0  0  0  0  0  0  0  0  0  0  0  0
   36.0550   30.9010   46.1710 H   0  0  0  0  0  0  0  0  0  0  0  0
   34.1420   30.2490   44.6660 H   0  0  0  0  0  0  0  0  0  0  0  0
   36.4750   29.8830   48.6020 N   0  0  0  0  0  0  0  0  0  0  0  0
   37.6620   30.6010   48.2510 C   0  0  0  0  0  0  0  0  0  0  0  0
   38.0320   31.2860   49.5610 C   0  0  2  0  0  0  0  0  0  0  0  0
   36.9090   30.9650   50.5450 C   0  0  0  0  0  0  0  0  0  0  0  0
   36.5700   29.5800   50.0280 C   0  0  0  0  0  0  0  0  0  0  0  0
   38.4710   29.9730   47.8580 H   0  0  0  0  0  0  0  0  0  0  0  0
   37.4600   31.4360   47.5310 H   0  0  0  0  0  0  0  0  0  0  0  0
   38.9680   30.8040   49.9150 H   0  0  0  0  0  0  0  0  0  0  0  0
   36.0580   31.6430   50.4450 H   0  0  0  0  0  0  0  0  0  0  0  0
   37.3620   30.9290   51.5600 H   0  0  0  0  0  0  0  0  0  0  0  0
   35.5960   29.2410   50.4250 H   0  0  0  0  0  0  0  0  0  0  0  0
   37.3970   28.8830   50.2250 H   0  0  0  0  0  0  0  0  0  0  0  0
   38.2320   32.7650   49.4110 C   0  0  0  0  0  0  0  0  0  0  0  0
   37.0950   33.3740   49.8970 F   0  0  0  0  0  0  0  0  0  0  0  0
   38.2740   33.0180   48.0580 F   0  0  0  0  0  0  0  0  0  0  0  0
   39.3650   33.2260   50.0240 F   0  0  0  0  0  0  0  0  0  0  0  0
   32.2900   27.0680   47.8170 S   0  0  0  0  0  0  0  0  0  0  0  0
   30.9090   27.6140   48.6200 C   0  0  0  0  0  0  0  0  0  0  0  0
   30.3470   27.6570   49.8640 C   0  0  0  0  0  0  0  0  0  0  0  0
   29.1500   28.2040   50.1710 C   0  0  0  0  0  0  0  0  0  0  0  0
   28.4630   28.7820   48.9880 C   0  0  0  0  0  0  0  0  0  0  0  0
   29.5900   28.4800   47.6070 S   0  0  0  0  0  0  0  0  0  0  0  0
   30.9990   27.1860   50.5840 H   0  0  0  0  0  0  0  0  0  0  0  0
   28.7160   28.2370   51.1350 H   0  0  0  0  0  0  0  0  0  0  0  0
   26.1810   27.2340   48.9010 F   0  0  0  0  0  0  0  0  0  0  0  0
   26.1050   28.5860   48.9260 C   0  0  0  0  0  0  0  0  0  0  0  0
   27.1940   29.4290   48.9700 C   0  0  0  0  0  0  0  0  0  0  0  0
   27.1630   30.7760   48.9960 C   0  0  0  0  0  0  0  0  0  0  0  0
   28.0530   31.3890   49.0310 H   0  0  0  0  0  0  0  0  0  0  0  0
   25.8940   31.3750   48.9780 C   0  0  0  0  0  0  0  0  0  0  0  0
   25.8360   32.4540   48.9970 H   0  0  0  0  0  0  0  0  0  0  0  0
   24.7440   30.5780   48.9330 C   0  0  0  0  0  0  0  0  0  0  0  0
   24.8360   29.1820   48.9070 C   0  0  0  0  0  0  0  0  0  0  0  0
  1  6  1  0  0  0  0
  1  9  1  0  0  0  0
  2  1  2  0  0  0  0
  3  4  2  0  0  0  0
  3  2  1  0  0  0  0
  4  5  1  0  0  0  0
  5 25  1  0  0  0  0
  5  6  2  0  0  0  0
  7  2  1  0  0  0  0
  8  3  1  0  0  0  0
  9 13  1  0  0  0  0
 10  9  1  0  0  0  0
 10 11  1  0  0  0  0
 11 16  1  1  0  0  0
 11 12  1  0  0  0  0
 12 18  1  0  0  0  0
 13 20  1  0  0  0  0
 13 19  1  0  0  0  0
 13 12  1  0  0  0  0
 14 10  1  0  0  0  0
 15 10  1  0  0  0  0
 17 12  1  0  0  0  0
 21 11  1  0  0  0  0
 21 22  1  0  0  0  0
 21 24  1  0  0  0  0
 23 21  1  0  0  0  0
 25 26  1  0  0  0  0
 26 27  2  0  0  0  0
 27 28  1  0  0  0  0
 27 31  1  0  0  0  0
 28 32  1  0  0  0  0
 29 28  2  0  0  0  0
 30 26  1  0  0  0  0
 30 29  1  0  0  0  0
 33 34  1  0  0  0  0
 34 35  1  0  0  0  0
 35 29  1  0  0  0  0
 35 36  2  0  0  0  0
 36 37  1  0  0  0  0
 38 36  1  0  0  0  0
 38 39  1  0  0  0  0
 40 38  2  0  0  0  0
 41 34  2  0  0  0  0
 41 40  1  0  0  0  0
M  END
>  <minimizedAffinity>
-7.87481737

>  <minimizedRMSD>
0.858349323

$$$$
