
 OpenBabel03272510283D

 45 49  0  0  1  0  0  0  0  0999 V2000
   38.6110   25.6770   31.7790 O   0  0  0  0  0  0  0  0  0  0  0  0
   34.3700   29.5680   33.1470 C   0  0  0  0  0  0  0  0  0  0  0  0
   35.1180   29.6760   34.2950 C   0  0  0  0  0  0  0  0  0  0  0  0
   36.2830   28.9100   34.4660 C   0  0  0  0  0  0  0  0  0  0  0  0
   36.6360   28.0590   33.4440 C   0  0  0  0  0  0  0  0  0  0  0  0
   37.7230   27.2310   33.3780 N   0  0  0  0  0  0  0  0  0  0  0  0
   37.6420   26.6100   32.1850 C   0  0  0  0  0  0  0  0  0  0  0  0
   36.5760   27.0080   31.5230 N   0  0  0  0  0  0  0  0  0  0  0  0
   35.9100   27.9240   32.2770 C   0  0  0  0  0  0  0  0  0  0  0  0
   34.7540   28.6990   32.1340 C   0  0  0  0  0  0  0  0  0  0  0  0
   33.4660   30.1320   32.9590 H   0  0  0  0  0  0  0  0  0  0  0  0
   36.8930   28.9720   35.3600 H   0  0  0  0  0  0  0  0  0  0  0  0
   38.4640   27.1070   34.1080 H   0  0  0  0  0  0  0  0  0  0  0  0
   34.1870   28.5920   31.2210 H   0  0  0  0  0  0  0  0  0  0  0  0
   34.9300   32.3360   36.9520 C   0  0  0  0  0  0  0  0  0  0  0  0
   35.4890   31.5220   35.9820 C   0  0  0  0  0  0  0  0  0  0  0  0
   34.7080   30.6000   35.3360 C   0  0  0  0  0  0  0  0  0  0  0  0
   33.3790   30.5400   35.7020 N   0  0  0  0  0  0  0  0  0  0  0  0
   32.8340   31.3280   36.6410 C   0  0  0  0  0  0  0  0  0  0  0  0
   33.5990   32.2120   37.2560 N   0  0  0  0  0  0  0  0  0  0  0  0
   35.5700   33.0540   37.4460 H   0  0  0  0  0  0  0  0  0  0  0  0
   36.5260   31.5490   35.6780 H   0  0  0  0  0  0  0  0  0  0  0  0
   31.7960   31.2100   36.8580 H   0  0  0  0  0  0  0  0  0  0  0  0
   38.7030   24.6180   33.7940 N   0  0  0  0  0  0  0  0  0  0  0  0
   38.5000   24.3760   32.3480 C   0  0  1  0  0  0  0  0  0  0  0  0
   37.1860   23.7920   32.1460 C   0  0  0  0  0  0  0  0  0  0  0  0
   37.1660   22.5240   32.7570 O   0  0  0  0  0  0  0  0  0  0  0  0
   37.4930   22.5080   34.0780 C   0  0  0  0  0  0  0  0  0  0  0  0
   38.7340   23.3080   34.4030 C   0  0  2  0  0  0  0  0  0  0  0  0
   39.6880   24.9930   33.7820 H   0  0  0  0  0  0  0  0  0  0  0  0
   39.2790   23.6960   31.9650 H   0  0  0  0  0  0  0  0  0  0  0  0
   37.1040   23.5350   31.0450 H   0  0  0  0  0  0  0  0  0  0  0  0
   36.2640   24.2260   32.4170 H   0  0  0  0  0  0  0  0  0  0  0  0
   36.6630   22.9680   34.6640 H   0  0  0  0  0  0  0  0  0  0  0  0
   37.6730   21.4490   34.3420 H   0  0  0  0  0  0  0  0  0  0  0  0
   39.6170   22.7170   34.0420 H   0  0  0  0  0  0  0  0  0  0  0  0
   40.7560   22.0100   35.9040 F   0  0  0  0  0  0  0  0  0  0  0  0
   39.8050   22.7100   36.5510 C   0  0  0  0  0  0  0  0  0  0  0  0
   38.7740   23.3780   35.8870 C   0  0  0  0  0  0  0  0  0  0  0  0
   37.8450   24.0700   36.6460 C   0  0  0  0  0  0  0  0  0  0  0  0
   37.0350   24.5960   36.1300 H   0  0  0  0  0  0  0  0  0  0  0  0
   37.8900   24.1300   38.0250 C   0  0  0  0  0  0  0  0  0  0  0  0
   37.1640   24.6710   38.6140 H   0  0  0  0  0  0  0  0  0  0  0  0
   38.9320   23.4520   38.6590 C   0  0  0  0  0  3  0  0  0  0  0  0
   39.8640   22.7600   37.9330 C   0  0  0  0  0  3  0  0  0  0  0  0
  1  7  1  0  0  0  0
  1 25  1  0  0  0  0
  2  3  1  0  0  0  0
  3  4  2  0  0  0  0
  3 17  1  0  0  0  0
  4 12  1  0  0  0  0
  5  4  1  0  0  0  0
  6  5  1  0  0  0  0
  6 13  1  0  0  0  0
  7  6  1  0  0  0  0
  8  7  2  0  0  0  0
  8  9  1  0  0  0  0
  9  5  2  0  0  0  0
 10  9  1  0  0  0  0
 10  2  2  0  0  0  0
 11  2  1  0  0  0  0
 14 10  1  0  0  0  0
 15 20  1  0  0  0  0
 15 21  1  0  0  0  0
 16 15  2  0  0  0  0
 17 18  2  0  0  0  0
 17 16  1  0  0  0  0
 18 19  1  0  0  0  0
 19 23  1  0  0  0  0
 19 20  2  0  0  0  0
 22 16  1  0  0  0  0
 24 29  1  0  0  0  0
 25 31  1  6  0  0  0
 25 24  1  0  0  0  0
 26 25  1  0  0  0  0
 26 33  1  0  0  0  0
 26 27  1  0  0  0  0
 27 28  1  0  0  0  0
 28 35  1  0  0  0  0
 28 29  1  0  0  0  0
 28 34  1  0  0  0  0
 29 36  1  6  0  0  0
 29 39  1  0  0  0  0
 30 24  1  0  0  0  0
 32 26  1  0  0  0  0
 37 38  1  0  0  0  0
 38 45  1  0  0  0  0
 39 38  2  0  0  0  0
 39 40  1  0  0  0  0
 40 42  2  0  0  0  0
 41 40  1  0  0  0  0
 42 43  1  0  0  0  0
 42 44  1  0  0  0  0
 45 44  2  0  0  0  0
M  END
>  <minimizedAffinity>
-6.73923683

$$$$

 OpenBabel03272510283D

 45 49  0  0  1  0  0  0  0  0999 V2000
   38.9970   26.2420   31.9550 O   0  0  0  0  0  0  0  0  0  0  0  0
   34.4600   29.9050   32.9510 C   0  0  0  0  0  0  0  0  0  0  0  0
   34.9140   29.7940   34.2430 C   0  0  0  0  0  0  0  0  0  0  0  0
   36.0250   28.9890   34.5460 C   0  0  0  0  0  0  0  0  0  0  0  0
   36.6290   28.3270   33.5030 C   0  0  0  0  0  0  0  0  0  0  0  0
   37.7210   27.5040   33.5490 N   0  0  0  0  0  0  0  0  0  0  0  0
   37.9370   27.1060   32.2810 C   0  0  0  0  0  0  0  0  0  0  0  0
   37.0470   27.6340   31.4670 N   0  0  0  0  0  0  0  0  0  0  0  0
   36.2000   28.4140   32.1920 C   0  0  0  0  0  0  0  0  0  0  0  0
   35.0920   29.2220   31.9200 C   0  0  0  0  0  0  0  0  0  0  0  0
   33.6110   30.5090   32.6580 H   0  0  0  0  0  0  0  0  0  0  0  0
   36.4060   28.8810   35.5550 H   0  0  0  0  0  0  0  0  0  0  0  0
   38.2730   27.2390   34.4000 H   0  0  0  0  0  0  0  0  0  0  0  0
   34.7580   29.2890   30.8950 H   0  0  0  0  0  0  0  0  0  0  0  0
   32.4650   31.2010   36.7320 C   0  0  0  0  0  0  0  0  0  0  0  0
   32.9360   30.4290   35.6840 C   0  0  0  0  0  0  0  0  0  0  0  0
   34.2490   30.5270   35.3050 C   0  0  0  0  0  0  0  0  0  0  0  0
   35.0390   31.4120   36.0100 N   0  0  0  0  0  0  0  0  0  0  0  0
   34.5850   32.1610   37.0260 C   0  0  0  0  0  0  0  0  0  0  0  0
   33.3170   32.0560   37.3810 N   0  0  0  0  0  0  0  0  0  0  0  0
   31.4240   31.1040   37.0090 H   0  0  0  0  0  0  0  0  0  0  0  0
   32.3380   29.7300   35.1170 H   0  0  0  0  0  0  0  0  0  0  0  0
   35.2700   32.8180   37.5130 H   0  0  0  0  0  0  0  0  0  0  0  0
   39.0190   25.0000   33.8670 N   0  0  0  0  0  0  0  0  0  0  0  0
   38.8610   24.8950   32.3980 C   0  0  1  0  0  0  0  0  0  0  0  0
   37.5510   24.3430   32.1020 C   0  0  0  0  0  0  0  0  0  0  0  0
   37.5050   23.0250   32.5920 O   0  0  0  0  0  0  0  0  0  0  0  0
   37.7890   22.8840   33.9160 C   0  0  0  0  0  0  0  0  0  0  0  0
   39.0230   23.6400   34.3520 C   0  0  2  0  0  0  0  0  0  0  0  0
   40.0060   25.3670   33.9200 H   0  0  0  0  0  0  0  0  0  0  0  0
   39.6490   24.2470   31.9790 H   0  0  0  0  0  0  0  0  0  0  0  0
   37.5030   24.1890   30.9800 H   0  0  0  0  0  0  0  0  0  0  0  0
   36.6230   24.7580   32.3830 H   0  0  0  0  0  0  0  0  0  0  0  0
   36.9440   23.2940   34.5150 H   0  0  0  0  0  0  0  0  0  0  0  0
   37.9540   21.8040   34.0860 H   0  0  0  0  0  0  0  0  0  0  0  0
   39.9150   23.0770   33.9660 H   0  0  0  0  0  0  0  0  0  0  0  0
   37.1910   25.1410   35.9080 F   0  0  0  0  0  0  0  0  0  0  0  0
   38.0810   24.3430   36.5290 C   0  0  0  0  0  0  0  0  0  0  0  0
   39.0170   23.5720   35.8370 C   0  0  0  0  0  0  0  0  0  0  0  0
   39.8890   22.7840   36.5700 C   0  0  0  0  0  0  0  0  0  0  0  0
   40.6250   22.1780   36.0320 H   0  0  0  0  0  0  0  0  0  0  0  0
   39.8770   22.7260   37.9500 C   0  0  0  0  0  0  0  0  0  0  0  0
   40.5580   22.1110   38.5180 H   0  0  0  0  0  0  0  0  0  0  0  0
   38.9290   23.5080   38.6120 C   0  0  0  0  0  3  0  0  0  0  0  0
   38.0550   24.2960   37.9120 C   0  0  0  0  0  3  0  0  0  0  0  0
  1  7  1  0  0  0  0
  1 25  1  0  0  0  0
  2  3  1  0  0  0  0
  3  4  2  0  0  0  0
  3 17  1  0  0  0  0
  4 12  1  0  0  0  0
  5  6  1  0  0  0  0
  5  4  1  0  0  0  0
  6 13  1  0  0  0  0
  7  6  1  0  0  0  0
  8  9  1  0  0  0  0
  8  7  2  0  0  0  0
  9  5  2  0  0  0  0
 10  9  1  0  0  0  0
 10  2  2  0  0  0  0
 11  2  1  0  0  0  0
 14 10  1  0  0  0  0
 15 21  1  0  0  0  0
 15 20  1  0  0  0  0
 16 15  2  0  0  0  0
 17 16  1  0  0  0  0
 17 18  2  0  0  0  0
 18 19  1  0  0  0  0
 19 20  2  0  0  0  0
 19 23  1  0  0  0  0
 22 16  1  0  0  0  0
 24 30  1  0  0  0  0
 24 29  1  0  0  0  0
 25 31  1  6  0  0  0
 25 24  1  0  0  0  0
 26 33  1  0  0  0  0
 26 25  1  0  0  0  0
 26 27  1  0  0  0  0
 27 28  1  0  0  0  0
 28 35  1  0  0  0  0
 28 29  1  0  0  0  0
 28 34  1  0  0  0  0
 29 36  1  6  0  0  0
 29 39  1  0  0  0  0
 32 26  1  0  0  0  0
 37 38  1  0  0  0  0
 38 45  1  0  0  0  0
 39 38  2  0  0  0  0
 39 40  1  0  0  0  0
 40 42  2  0  0  0  0
 41 40  1  0  0  0  0
 42 43  1  0  0  0  0
 42 44  1  0  0  0  0
 45 44  2  0  0  0  0
M  END
>  <minimizedAffinity>
-6.57193565

$$$$

 OpenBabel03272510283D

 45 49  0  0  1  0  0  0  0  0999 V2000
   35.7340   29.6820   32.2660 O   0  0  0  0  0  0  0  0  0  0  0  0
   38.0400   24.4700   33.8510 C   0  0  0  0  0  0  0  0  0  0  0  0
   38.0440   25.0740   35.0850 C   0  0  0  0  0  0  0  0  0  0  0  0
   37.5760   26.3890   35.2410 C   0  0  0  0  0  0  0  0  0  0  0  0
   37.1190   27.0360   34.1160 C   0  0  0  0  0  0  0  0  0  0  0  0
   36.6100   28.3020   34.0230 N   0  0  0  0  0  0  0  0  0  0  0  0
   36.2930   28.4780   32.7260 C   0  0  0  0  0  0  0  0  0  0  0  0
   36.5770   27.4000   32.0250 N   0  0  0  0  0  0  0  0  0  0  0  0
   37.1000   26.4610   32.8600 C   0  0  0  0  0  0  0  0  0  0  0  0
   37.5720   25.1510   32.7340 C   0  0  0  0  0  0  0  0  0  0  0  0
   38.3870   23.4610   33.6690 H   0  0  0  0  0  0  0  0  0  0  0  0
   37.5680   26.8930   36.2010 H   0  0  0  0  0  0  0  0  0  0  0  0
   36.4920   28.9910   34.8040 H   0  0  0  0  0  0  0  0  0  0  0  0
   37.5570   24.7030   31.7510 H   0  0  0  0  0  0  0  0  0  0  0  0
   38.5680   23.5620   38.4920 C   0  0  0  0  0  0  0  0  0  0  0  0
   37.9820   24.3290   37.5000 C   0  0  0  0  0  0  0  0  0  0  0  0
   38.5240   24.3410   36.2420 C   0  0  0  0  0  0  0  0  0  0  0  0
   39.6500   23.5680   36.0390 N   0  0  0  0  0  0  0  0  0  0  0  0
   40.2190   22.8230   36.9980 C   0  0  0  0  0  0  0  0  0  0  0  0
   39.6850   22.8210   38.2070 N   0  0  0  0  0  0  0  0  0  0  0  0
   38.1180   23.5710   39.4760 H   0  0  0  0  0  0  0  0  0  0  0  0
   37.1020   24.9430   37.6350 H   0  0  0  0  0  0  0  0  0  0  0  0
   41.0870   22.2570   36.7480 H   0  0  0  0  0  0  0  0  0  0  0  0
   33.9230   29.3570   33.6110 N   0  0  0  0  0  0  0  0  0  0  0  0
   34.3110   29.7360   32.2330 C   0  0  1  0  0  0  0  0  0  0  0  0
   33.8130   31.0710   31.9530 C   0  0  0  0  0  0  0  0  0  0  0  0
   32.4070   31.0310   31.9620 O   0  0  0  0  0  0  0  0  0  0  0  0
   31.8440   30.5460   33.1030 C   0  0  0  0  0  0  0  0  0  0  0  0
   32.4820   29.2670   33.5940 C   0  0  2  0  0  0  0  0  0  0  0  0
   34.3100   28.3770   33.6480 H   0  0  0  0  0  0  0  0  0  0  0  0
   33.8920   29.0170   31.5110 H   0  0  0  0  0  0  0  0  0  0  0  0
   34.0450   31.2890   30.8650 H   0  0  0  0  0  0  0  0  0  0  0  0
   34.0510   31.9490   32.4870 H   0  0  0  0  0  0  0  0  0  0  0  0
   31.9760   31.2940   33.9190 H   0  0  0  0  0  0  0  0  0  0  0  0
   30.7820   30.3470   32.8670 H   0  0  0  0  0  0  0  0  0  0  0  0
   32.1380   28.4390   32.9170 H   0  0  0  0  0  0  0  0  0  0  0  0
   30.6720   27.1530   34.1300 F   0  0  0  0  0  0  0  0  0  0  0  0
   31.0310   27.9810   35.1310 C   0  0  0  0  0  0  0  0  0  0  0  0
   31.9160   29.0450   34.9500 C   0  0  0  0  0  0  0  0  0  0  0  0
   32.2190   29.8380   36.0450 C   0  0  0  0  0  0  0  0  0  0  0  0
   32.9130   30.6750   35.9090 H   0  0  0  0  0  0  0  0  0  0  0  0
   31.6890   29.6260   37.3030 C   0  0  0  0  0  0  0  0  0  0  0  0
   31.9290   30.2460   38.1530 H   0  0  0  0  0  0  0  0  0  0  0  0
   30.8080   28.5540   37.4500 C   0  0  0  0  0  3  0  0  0  0  0  0
   30.4900   27.7540   36.3850 C   0  0  0  0  0  3  0  0  0  0  0  0
  1  7  1  0  0  0  0
  2  3  1  0  0  0  0
  3  4  2  0  0  0  0
  3 17  1  0  0  0  0
  4 12  1  0  0  0  0
  5  4  1  0  0  0  0
  6  5  1  0  0  0  0
  6 13  1  0  0  0  0
  7  6  1  0  0  0  0
  8  7  2  0  0  0  0
  8  9  1  0  0  0  0
  9  5  2  0  0  0  0
 10  9  1  0  0  0  0
 10  2  2  0  0  0  0
 11  2  1  0  0  0  0
 14 10  1  0  0  0  0
 15 21  1  0  0  0  0
 16 22  1  0  0  0  0
 16 15  2  0  0  0  0
 17 16  1  0  0  0  0
 18 17  2  0  0  0  0
 18 19  1  0  0  0  0
 19 20  2  0  0  0  0
 20 15  1  0  0  0  0
 23 19  1  0  0  0  0
 24 30  1  0  0  0  0
 25 31  1  6  0  0  0
 25  1  1  0  0  0  0
 25 24  1  0  0  0  0
 26 27  1  0  0  0  0
 26 25  1  0  0  0  0
 26 33  1  0  0  0  0
 27 28  1  0  0  0  0
 28 29  1  0  0  0  0
 28 34  1  0  0  0  0
 29 36  1  6  0  0  0
 29 24  1  0  0  0  0
 29 39  1  0  0  0  0
 32 26  1  0  0  0  0
 35 28  1  0  0  0  0
 37 38  1  0  0  0  0
 38 45  1  0  0  0  0
 39 38  2  0  0  0  0
 39 40  1  0  0  0  0
 40 42  2  0  0  0  0
 41 40  1  0  0  0  0
 42 44  1  0  0  0  0
 42 43  1  0  0  0  0
 45 44  2  0  0  0  0
M  END
>  <minimizedAffinity>
-6.56287909

$$$$

 OpenBabel03272510283D

 45 49  0  0  1  0  0  0  0  0999 V2000
   37.2900   28.0680   32.8890 O   0  0  0  0  0  0  0  0  0  0  0  0
   38.6850   23.8650   36.8110 C   0  0  0  0  0  0  0  0  0  0  0  0
   39.7040   23.6490   35.9160 C   0  0  0  0  0  0  0  0  0  0  0  0
   39.8120   24.4270   34.7510 C   0  0  0  0  0  0  0  0  0  0  0  0
   38.8640   25.4030   34.5520 C   0  0  0  0  0  0  0  0  0  0  0  0
   38.7690   26.2830   33.5090 N   0  0  0  0  0  0  0  0  0  0  0  0
   37.6870   27.0430   33.7640 C   0  0  0  0  0  0  0  0  0  0  0  0
   37.1180   26.6810   34.8950 N   0  0  0  0  0  0  0  0  0  0  0  0
   37.8250   25.6490   35.4300 C   0  0  0  0  0  0  0  0  0  0  0  0
   37.7420   24.8600   36.5800 C   0  0  0  0  0  0  0  0  0  0  0  0
   38.5510   23.3000   37.7240 H   0  0  0  0  0  0  0  0  0  0  0  0
   40.6040   24.2790   34.0250 H   0  0  0  0  0  0  0  0  0  0  0  0
   39.4100   26.3500   32.6830 H   0  0  0  0  0  0  0  0  0  0  0  0
   36.9300   25.0530   37.2660 H   0  0  0  0  0  0  0  0  0  0  0  0
   41.9410   21.0450   37.4600 C   0  0  0  0  0  0  0  0  0  0  0  0
   40.9720   22.0300   37.3870 C   0  0  0  0  0  0  0  0  0  0  0  0
   40.6870   22.6140   36.1810 C   0  0  0  0  0  0  0  0  0  0  0  0
   41.4040   22.1730   35.0870 N   0  0  0  0  0  0  0  0  0  0  0  0
   42.3440   21.2180   35.1550 C   0  0  0  0  0  0  0  0  0  0  0  0
   42.6070   20.6630   36.3250 N   0  0  0  0  0  0  0  0  0  0  0  0
   42.1450   20.6010   38.4250 H   0  0  0  0  0  0  0  0  0  0  0  0
   40.3980   22.3920   38.2280 H   0  0  0  0  0  0  0  0  0  0  0  0
   42.8470   20.9410   34.2560 H   0  0  0  0  0  0  0  0  0  0  0  0
   35.8810   29.3420   34.1490 N   0  0  0  0  0  0  0  0  0  0  0  0
   35.9210   28.4550   32.9640 C   0  0  1  0  0  0  0  0  0  0  0  0
   35.4920   29.2060   31.7980 C   0  0  0  0  0  0  0  0  0  0  0  0
   34.1410   29.5600   31.9710 O   0  0  0  0  0  0  0  0  0  0  0  0
   33.8600   30.2530   33.1080 C   0  0  0  0  0  0  0  0  0  0  0  0
   34.4850   29.6560   34.3480 C   0  0  2  0  0  0  0  0  0  0  0  0
   36.1710   28.6610   34.9000 H   0  0  0  0  0  0  0  0  0  0  0  0
   35.2590   27.5870   33.1200 H   0  0  0  0  0  0  0  0  0  0  0  0
   35.4440   28.4740   30.9330 H   0  0  0  0  0  0  0  0  0  0  0  0
   35.9440   30.0800   31.4190 H   0  0  0  0  0  0  0  0  0  0  0  0
   34.2740   31.2840   33.0170 H   0  0  0  0  0  0  0  0  0  0  0  0
   32.7610   30.2370   33.2200 H   0  0  0  0  0  0  0  0  0  0  0  0
   33.8980   28.7350   34.6090 H   0  0  0  0  0  0  0  0  0  0  0  0
   32.0620   29.8300   35.8060 F   0  0  0  0  0  0  0  0  0  0  0  0
   33.0600   30.6910   36.0850 C   0  0  0  0  0  0  0  0  0  0  0  0
   34.2830   30.6730   35.4140 C   0  0  0  0  0  0  0  0  0  0  0  0
   35.2440   31.6020   35.7770 C   0  0  0  0  0  0  0  0  0  0  0  0
   36.2060   31.5910   35.2540 H   0  0  0  0  0  0  0  0  0  0  0  0
   35.0490   32.5430   36.7690 C   0  0  0  0  0  0  0  0  0  0  0  0
   35.8010   33.2660   37.0490 H   0  0  0  0  0  0  0  0  0  0  0  0
   33.8150   32.5350   37.4200 C   0  0  0  0  0  3  0  0  0  0  0  0
   32.8470   31.6280   37.0820 C   0  0  0  0  0  3  0  0  0  0  0  0
  1 25  1  0  0  0  0
  1  7  1  0  0  0  0
  2 11  1  0  0  0  0
  3 17  1  0  0  0  0
  3  2  2  0  0  0  0
  4  3  1  0  0  0  0
  5  4  2  0  0  0  0
  5  9  1  0  0  0  0
  6  7  1  0  0  0  0
  6  5  1  0  0  0  0
  7  8  2  0  0  0  0
  8  9  1  0  0  0  0
  9 10  2  0  0  0  0
 10  2  1  0  0  0  0
 10 14  1  0  0  0  0
 12  4  1  0  0  0  0
 13  6  1  0  0  0  0
 15 21  1  0  0  0  0
 16 15  1  0  0  0  0
 16 22  1  0  0  0  0
 17 16  2  0  0  0  0
 18 19  2  0  0  0  0
 18 17  1  0  0  0  0
 19 20  1  0  0  0  0
 20 15  2  0  0  0  0
 23 19  1  0  0  0  0
 24 29  1  0  0  0  0
 24 30  1  0  0  0  0
 25 31  1  1  0  0  0
 25 24  1  0  0  0  0
 26 27  1  0  0  0  0
 26 25  1  0  0  0  0
 27 28  1  0  0  0  0
 28 35  1  0  0  0  0
 28 29  1  0  0  0  0
 29 36  1  1  0  0  0
 29 39  1  0  0  0  0
 32 26  1  0  0  0  0
 33 26  1  0  0  0  0
 34 28  1  0  0  0  0
 37 38  1  0  0  0  0
 38 45  1  0  0  0  0
 39 40  1  0  0  0  0
 39 38  2  0  0  0  0
 40 42  2  0  0  0  0
 41 40  1  0  0  0  0
 42 43  1  0  0  0  0
 42 44  1  0  0  0  0
 45 44  2  0  0  0  0
M  END
>  <minimizedAffinity>
-6.49436426

$$$$

 OpenBabel03272510283D

 45 49  0  0  1  0  0  0  0  0999 V2000
   36.3340   28.2010   30.5630 O   0  0  0  0  0  0  0  0  0  0  0  0
   40.0190   26.1420   34.7070 C   0  0  0  0  0  0  0  0  0  0  0  0
   38.8770   25.4970   35.1170 C   0  0  0  0  0  0  0  0  0  0  0  0
   37.6660   25.6750   34.4260 C   0  0  0  0  0  0  0  0  0  0  0  0
   37.6780   26.5120   33.3350 C   0  0  0  0  0  0  0  0  0  0  0  0
   36.6350   26.8280   32.5080 N   0  0  0  0  0  0  0  0  0  0  0  0
   37.1380   27.6710   31.5860 C   0  0  0  0  0  0  0  0  0  0  0  0
   38.4190   27.8880   31.8000 N   0  0  0  0  0  0  0  0  0  0  0  0
   38.8060   27.1770   32.8940 C   0  0  0  0  0  0  0  0  0  0  0  0
   39.9960   26.9810   33.6000 C   0  0  0  0  0  0  0  0  0  0  0  0
   40.9780   26.0440   35.1970 H   0  0  0  0  0  0  0  0  0  0  0  0
   36.7490   25.1810   34.7260 H   0  0  0  0  0  0  0  0  0  0  0  0
   35.6480   26.4820   32.5790 H   0  0  0  0  0  0  0  0  0  0  0  0
   40.8770   27.5020   33.2540 H   0  0  0  0  0  0  0  0  0  0  0  0
   39.6570   22.7930   37.6170 C   0  0  0  0  0  0  0  0  0  0  0  0
   39.7390   23.5260   36.4460 C   0  0  0  0  0  0  0  0  0  0  0  0
   38.9240   24.6130   36.2670 C   0  0  0  0  0  0  0  0  0  0  0  0
   38.0500   24.9150   37.2920 N   0  0  0  0  0  0  0  0  0  0  0  0
   37.9690   24.2070   38.4280 C   0  0  0  0  0  0  0  0  0  0  0  0
   38.7620   23.1620   38.5870 N   0  0  0  0  0  0  0  0  0  0  0  0
   40.3120   21.9400   37.7310 H   0  0  0  0  0  0  0  0  0  0  0  0
   40.4130   23.3100   35.6290 H   0  0  0  0  0  0  0  0  0  0  0  0
   37.2640   24.5160   39.1660 H   0  0  0  0  0  0  0  0  0  0  0  0
   35.7440   29.6410   32.2280 N   0  0  0  0  0  0  0  0  0  0  0  0
   35.8780   29.5370   30.7580 C   0  0  1  0  0  0  0  0  0  0  0  0
   36.8400   30.5240   30.2990 C   0  0  0  0  0  0  0  0  0  0  0  0
   36.3140   31.8050   30.5500 O   0  0  0  0  0  0  0  0  0  0  0  0
   35.9640   32.0490   31.8430 C   0  0  0  0  0  0  0  0  0  0  0  0
   35.1550   30.9370   32.4710 C   0  0  2  0  0  0  0  0  0  0  0  0
   35.0030   28.9100   32.3980 H   0  0  0  0  0  0  0  0  0  0  0  0
   34.9010   29.7090   30.2760 H   0  0  0  0  0  0  0  0  0  0  0  0
   36.8450   30.4790   29.1670 H   0  0  0  0  0  0  0  0  0  0  0  0
   37.8490   30.5940   30.5970 H   0  0  0  0  0  0  0  0  0  0  0  0
   36.8900   32.1460   32.4580 H   0  0  0  0  0  0  0  0  0  0  0  0
   35.3550   32.9720   31.8330 H   0  0  0  0  0  0  0  0  0  0  0  0
   34.1190   30.9950   32.0420 H   0  0  0  0  0  0  0  0  0  0  0  0
   32.9160   30.2570   34.0680 F   0  0  0  0  0  0  0  0  0  0  0  0
   33.9570   30.8970   34.6340 C   0  0  0  0  0  0  0  0  0  0  0  0
   35.0970   31.2680   33.9190 C   0  0  0  0  0  0  0  0  0  0  0  0
   36.1120   31.9220   34.5960 C   0  0  0  0  0  0  0  0  0  0  0  0
   37.0090   32.2150   34.0380 H   0  0  0  0  0  0  0  0  0  0  0  0
   36.0510   32.2260   35.9420 C   0  0  0  0  0  0  0  0  0  0  0  0
   36.8440   32.7360   36.4660 H   0  0  0  0  0  0  0  0  0  0  0  0
   34.8980   31.8420   36.6290 C   0  0  0  0  0  3  0  0  0  0  0  0
   33.8790   31.1930   35.9840 C   0  0  0  0  0  3  0  0  0  0  0  0
  1 25  1  0  0  0  0
  1  7  1  0  0  0  0
  2  3  1  0  0  0  0
  2 11  1  0  0  0  0
  3 17  1  0  0  0  0
  4 12  1  0  0  0  0
  4  3  2  0  0  0  0
  5  4  1  0  0  0  0
  6 13  1  0  0  0  0
  6  5  1  0  0  0  0
  7  8  2  0  0  0  0
  7  6  1  0  0  0  0
  8  9  1  0  0  0  0
  9  5  2  0  0  0  0
  9 10  1  0  0  0  0
 10  2  2  0  0  0  0
 14 10  1  0  0  0  0
 15 21  1  0  0  0  0
 15 20  1  0  0  0  0
 16 15  2  0  0  0  0
 17 16  1  0  0  0  0
 17 18  2  0  0  0  0
 18 19  1  0  0  0  0
 19 20  2  0  0  0  0
 19 23  1  0  0  0  0
 22 16  1  0  0  0  0
 24 30  1  0  0  0  0
 24 29  1  0  0  0  0
 25 31  1  6  0  0  0
 25 24  1  0  0  0  0
 26 27  1  0  0  0  0
 26 33  1  0  0  0  0
 26 25  1  0  0  0  0
 27 28  1  0  0  0  0
 28 34  1  0  0  0  0
 28 29  1  0  0  0  0
 29 36  1  6  0  0  0
 29 39  1  0  0  0  0
 32 26  1  0  0  0  0
 35 28  1  0  0  0  0
 37 38  1  0  0  0  0
 38 45  1  0  0  0  0
 39 40  1  0  0  0  0
 39 38  2  0  0  0  0
 40 42  2  0  0  0  0
 41 40  1  0  0  0  0
 42 43  1  0  0  0  0
 42 44  1  0  0  0  0
 45 44  2  0  0  0  0
M  END
>  <minimizedAffinity>
-6.46662617

$$$$

 OpenBabel03272510283D

 45 49  0  0  1  0  0  0  0  0999 V2000
   36.2870   25.6410   30.9650 O   0  0  0  0  0  0  0  0  0  0  0  0
   35.9820   31.4070   32.2500 C   0  0  0  0  0  0  0  0  0  0  0  0
   35.6960   30.9090   33.4980 C   0  0  0  0  0  0  0  0  0  0  0  0
   35.6400   29.5230   33.7210 C   0  0  0  0  0  0  0  0  0  0  0  0
   35.8820   28.6990   32.6470 C   0  0  0  0  0  0  0  0  0  0  0  0
   35.8950   27.3320   32.6230 N   0  0  0  0  0  0  0  0  0  0  0  0
   36.1880   26.9880   31.3540 C   0  0  0  0  0  0  0  0  0  0  0  0
   36.3530   28.0580   30.6060 N   0  0  0  0  0  0  0  0  0  0  0  0
   36.1720   29.1640   31.3780 C   0  0  0  0  0  0  0  0  0  0  0  0
   36.2210   30.5480   31.1850 C   0  0  0  0  0  0  0  0  0  0  0  0
   36.0390   32.4630   32.0180 H   0  0  0  0  0  0  0  0  0  0  0  0
   35.4170   29.1000   34.6940 H   0  0  0  0  0  0  0  0  0  0  0  0
   35.7130   26.6870   33.4290 H   0  0  0  0  0  0  0  0  0  0  0  0
   36.4470   30.9090   30.1930 H   0  0  0  0  0  0  0  0  0  0  0  0
   34.9960   32.5060   36.8350 C   0  0  0  0  0  0  0  0  0  0  0  0
   35.1830   31.5000   35.9020 C   0  0  0  0  0  0  0  0  0  0  0  0
   35.4630   31.8240   34.6010 C   0  0  0  0  0  0  0  0  0  0  0  0
   35.5420   33.1670   34.2940 N   0  0  0  0  0  0  0  0  0  0  0  0
   35.3610   34.1430   35.1950 C   0  0  0  0  0  0  0  0  0  0  0  0
   35.0920   33.8160   36.4470 N   0  0  0  0  0  0  0  0  0  0  0  0
   34.7760   32.2210   37.8550 H   0  0  0  0  0  0  0  0  0  0  0  0
   35.1270   30.4420   36.1180 H   0  0  0  0  0  0  0  0  0  0  0  0
   35.4410   35.1550   34.8660 H   0  0  0  0  0  0  0  0  0  0  0  0
   36.2760   23.4350   31.5390 N   0  0  0  0  0  0  0  0  0  0  0  0
   36.8290   24.7510   31.9360 C   0  0  1  0  0  0  0  0  0  0  0  0
   38.2790   24.6890   31.8830 C   0  0  0  0  0  0  0  0  0  0  0  0
   38.7190   23.7740   32.8580 O   0  0  0  0  0  0  0  0  0  0  0  0
   38.1890   22.5240   32.7670 C   0  0  0  0  0  0  0  0  0  0  0  0
   36.6900   22.5160   32.5740 C   0  0  2  0  0  0  0  0  0  0  0  0
   35.2460   23.6230   31.6640 H   0  0  0  0  0  0  0  0  0  0  0  0
   36.4980   25.0080   32.9560 H   0  0  0  0  0  0  0  0  0  0  0  0
   38.6660   25.6770   32.2820 H   0  0  0  0  0  0  0  0  0  0  0  0
   38.8620   24.4640   31.0340 H   0  0  0  0  0  0  0  0  0  0  0  0
   38.6200   22.0100   31.8760 H   0  0  0  0  0  0  0  0  0  0  0  0
   38.4290   22.0130   33.7180 H   0  0  0  0  0  0  0  0  0  0  0  0
   36.2240   22.7840   33.5600 H   0  0  0  0  0  0  0  0  0  0  0  0
   35.4930   20.7890   34.4750 F   0  0  0  0  0  0  0  0  0  0  0  0
   35.7580   20.3240   33.2390 C   0  0  0  0  0  0  0  0  0  0  0  0
   36.3460   21.1080   32.2460 C   0  0  0  0  0  0  0  0  0  0  0  0
   36.5780   20.5320   31.0070 C   0  0  0  0  0  0  0  0  0  0  0  0
   37.0390   21.1440   30.2240 H   0  0  0  0  0  0  0  0  0  0  0  0
   36.2560   19.2230   30.7100 C   0  0  0  0  0  0  0  0  0  0  0  0
   36.4380   18.7780   29.7430 H   0  0  0  0  0  0  0  0  0  0  0  0
   35.6690   18.4650   31.7250 C   0  0  0  0  0  3  0  0  0  0  0  0
   35.4300   19.0090   32.9580 C   0  0  0  0  0  3  0  0  0  0  0  0
  1  7  1  0  0  0  0
  1 25  1  0  0  0  0
  2  3  1  0  0  0  0
  3  4  2  0  0  0  0
  3 17  1  0  0  0  0
  4 12  1  0  0  0  0
  5  4  1  0  0  0  0
  6  5  1  0  0  0  0
  6 13  1  0  0  0  0
  7  6  1  0  0  0  0
  8  7  2  0  0  0  0
  8  9  1  0  0  0  0
  9  5  2  0  0  0  0
 10  9  1  0  0  0  0
 10  2  2  0  0  0  0
 11  2  1  0  0  0  0
 14 10  1  0  0  0  0
 15 21  1  0  0  0  0
 16 22  1  0  0  0  0
 16 15  2  0  0  0  0
 17 16  1  0  0  0  0
 18 17  2  0  0  0  0
 18 19  1  0  0  0  0
 19 20  2  0  0  0  0
 20 15  1  0  0  0  0
 23 19  1  0  0  0  0
 24 30  1  0  0  0  0
 24 25  1  0  0  0  0
 24 29  1  0  0  0  0
 25 31  1  1  0  0  0
 26 25  1  0  0  0  0
 26 32  1  0  0  0  0
 26 27  1  0  0  0  0
 28 27  1  0  0  0  0
 28 35  1  0  0  0  0
 29 28  1  0  0  0  0
 29 36  1  1  0  0  0
 33 26  1  0  0  0  0
 34 28  1  0  0  0  0
 38 37  1  0  0  0  0
 39 29  1  0  0  0  0
 39 38  2  0  0  0  0
 40 39  1  0  0  0  0
 41 40  1  0  0  0  0
 42 40  2  0  0  0  0
 42 44  1  0  0  0  0
 43 42  1  0  0  0  0
 44 45  2  0  0  0  0
 45 38  1  0  0  0  0
M  END
>  <minimizedAffinity>
-6.3669157

$$$$

 OpenBabel03272510283D

 45 49  0  0  1  0  0  0  0  0999 V2000
   36.8200   29.0560   31.6900 O   0  0  0  0  0  0  0  0  0  0  0  0
   38.1230   23.3960   30.5680 C   0  0  0  0  0  0  0  0  0  0  0  0
   36.8910   23.2070   31.1470 C   0  0  0  0  0  0  0  0  0  0  0  0
   36.1420   24.3000   31.6120 C   0  0  0  0  0  0  0  0  0  0  0  0
   36.6910   25.5520   31.4620 C   0  0  0  0  0  0  0  0  0  0  0  0
   36.1500   26.7560   31.8230 N   0  0  0  0  0  0  0  0  0  0  0  0
   37.0530   27.6890   31.4660 C   0  0  0  0  0  0  0  0  0  0  0  0
   38.1080   27.1290   30.9120 N   0  0  0  0  0  0  0  0  0  0  0  0
   37.9250   25.7810   30.8860 C   0  0  0  0  0  0  0  0  0  0  0  0
   38.6490   24.6740   30.4320 C   0  0  0  0  0  0  0  0  0  0  0  0
   38.7440   22.5940   30.1920 H   0  0  0  0  0  0  0  0  0  0  0  0
   35.1680   24.1830   32.0740 H   0  0  0  0  0  0  0  0  0  0  0  0
   35.2220   26.9150   32.2830 H   0  0  0  0  0  0  0  0  0  0  0  0
   39.6140   24.8550   29.9820 H   0  0  0  0  0  0  0  0  0  0  0  0
   36.1730   19.5200   30.8840 C   0  0  0  0  0  0  0  0  0  0  0  0
   36.8050   20.7290   30.6480 C   0  0  0  0  0  0  0  0  0  0  0  0
   36.3520   21.8640   31.2680 C   0  0  0  0  0  0  0  0  0  0  0  0
   35.2670   21.7270   32.1090 N   0  0  0  0  0  0  0  0  0  0  0  0
   34.6530   20.5570   32.3400 C   0  0  0  0  0  0  0  0  0  0  0  0
   35.1010   19.4700   31.7360 N   0  0  0  0  0  0  0  0  0  0  0  0
   36.5520   18.6410   30.3810 H   0  0  0  0  0  0  0  0  0  0  0  0
   37.6550   20.8630   29.9940 H   0  0  0  0  0  0  0  0  0  0  0  0
   33.8210   20.5470   33.0070 H   0  0  0  0  0  0  0  0  0  0  0  0
   35.2530   29.6770   33.2240 N   0  0  0  0  0  0  0  0  0  0  0  0
   35.4540   29.4500   31.7750 C   0  0  1  0  0  0  0  0  0  0  0  0
   35.1880   30.6860   31.0610 C   0  0  0  0  0  0  0  0  0  0  0  0
   33.8260   31.0040   31.2180 O   0  0  0  0  0  0  0  0  0  0  0  0
   33.3930   31.0980   32.5050 C   0  0  0  0  0  0  0  0  0  0  0  0
   33.8440   29.9500   33.3790 C   0  0  2  0  0  0  0  0  0  0  0  0
   35.4390   28.7060   33.5900 H   0  0  0  0  0  0  0  0  0  0  0  0
   34.7770   28.6550   31.4200 H   0  0  0  0  0  0  0  0  0  0  0  0
   35.2580   30.4510   29.9540 H   0  0  0  0  0  0  0  0  0  0  0  0
   35.6870   31.6050   31.2000 H   0  0  0  0  0  0  0  0  0  0  0  0
   33.8150   32.0230   32.9640 H   0  0  0  0  0  0  0  0  0  0  0  0
   32.2880   31.1030   32.4640 H   0  0  0  0  0  0  0  0  0  0  0  0
   33.2260   29.0540   33.0990 H   0  0  0  0  0  0  0  0  0  0  0  0
   31.6600   28.8020   34.7740 F   0  0  0  0  0  0  0  0  0  0  0  0
   32.4080   29.7430   35.3830 C   0  0  0  0  0  0  0  0  0  0  0  0
   33.4980   30.3580   34.7660 C   0  0  0  0  0  0  0  0  0  0  0  0
   34.2010   31.3140   35.4800 C   0  0  0  0  0  0  0  0  0  0  0  0
   35.0590   31.8000   35.0010 H   0  0  0  0  0  0  0  0  0  0  0  0
   33.8750   31.6880   36.7690 C   0  0  0  0  0  0  0  0  0  0  0  0
   34.4250   32.4340   37.3220 H   0  0  0  0  0  0  0  0  0  0  0  0
   32.7790   31.0540   37.3570 C   0  0  0  0  0  3  0  0  0  0  0  0
   32.0660   30.1060   36.6740 C   0  0  0  0  0  3  0  0  0  0  0  0
  1 25  1  0  0  0  0
  2  3  1  0  0  0  0
  3 17  1  0  0  0  0
  3  4  2  0  0  0  0
  4 12  1  0  0  0  0
  5  4  1  0  0  0  0
  5  6  1  0  0  0  0
  6 13  1  0  0  0  0
  7  1  1  0  0  0  0
  7  6  1  0  0  0  0
  8  7  2  0  0  0  0
  9  8  1  0  0  0  0
  9  5  2  0  0  0  0
 10  2  2  0  0  0  0
 10  9  1  0  0  0  0
 11  2  1  0  0  0  0
 14 10  1  0  0  0  0
 15 20  1  0  0  0  0
 16 15  2  0  0  0  0
 16 17  1  0  0  0  0
 17 18  2  0  0  0  0
 18 19  1  0  0  0  0
 19 23  1  0  0  0  0
 20 19  2  0  0  0  0
 21 15  1  0  0  0  0
 22 16  1  0  0  0  0
 24 29  1  0  0  0  0
 24 30  1  0  0  0  0
 25 31  1  6  0  0  0
 25 24  1  0  0  0  0
 26 33  1  0  0  0  0
 26 27  1  0  0  0  0
 26 25  1  0  0  0  0
 27 28  1  0  0  0  0
 28 34  1  0  0  0  0
 28 29  1  0  0  0  0
 29 36  1  6  0  0  0
 29 39  1  0  0  0  0
 32 26  1  0  0  0  0
 35 28  1  0  0  0  0
 37 38  1  0  0  0  0
 38 45  1  0  0  0  0
 39 38  2  0  0  0  0
 39 40  1  0  0  0  0
 40 42  2  0  0  0  0
 41 40  1  0  0  0  0
 42 43  1  0  0  0  0
 42 44  1  0  0  0  0
 45 44  2  0  0  0  0
M  END
>  <minimizedAffinity>
-6.35622978

$$$$

 OpenBabel03272510283D

 45 49  0  0  1  0  0  0  0  0999 V2000
   35.3940   29.6330   32.4730 O   0  0  0  0  0  0  0  0  0  0  0  0
   38.1250   24.5610   33.8190 C   0  0  0  0  0  0  0  0  0  0  0  0
   38.0510   25.0900   35.0850 C   0  0  0  0  0  0  0  0  0  0  0  0
   37.4640   26.3480   35.3030 C   0  0  0  0  0  0  0  0  0  0  0  0
   36.9730   27.0160   34.2060 C   0  0  0  0  0  0  0  0  0  0  0  0
   36.3550   28.2360   34.1710 N   0  0  0  0  0  0  0  0  0  0  0  0
   36.0490   28.4580   32.8790 C   0  0  0  0  0  0  0  0  0  0  0  0
   36.4420   27.4520   32.1260 N   0  0  0  0  0  0  0  0  0  0  0  0
   37.0300   26.5160   32.9190 C   0  0  0  0  0  0  0  0  0  0  0  0
   37.6200   25.2620   32.7310 C   0  0  0  0  0  0  0  0  0  0  0  0
   38.5640   23.5990   33.5900 H   0  0  0  0  0  0  0  0  0  0  0  0
   37.3920   26.7920   36.2900 H   0  0  0  0  0  0  0  0  0  0  0  0
   36.1610   28.8650   34.9860 H   0  0  0  0  0  0  0  0  0  0  0  0
   37.6640   24.8730   31.7250 H   0  0  0  0  0  0  0  0  0  0  0  0
   38.6780   23.4920   38.4350 C   0  0  0  0  0  0  0  0  0  0  0  0
   38.0530   24.2720   37.4780 C   0  0  0  0  0  0  0  0  0  0  0  0
   38.5720   24.3370   36.2110 C   0  0  0  0  0  0  0  0  0  0  0  0
   39.7140   23.6020   35.9640 N   0  0  0  0  0  0  0  0  0  0  0  0
   40.3200   22.8440   36.8900 C   0  0  0  0  0  0  0  0  0  0  0  0
   39.8090   22.7910   38.1080 N   0  0  0  0  0  0  0  0  0  0  0  0
   38.2460   23.4590   39.4270 H   0  0  0  0  0  0  0  0  0  0  0  0
   37.1600   24.8570   37.6460 H   0  0  0  0  0  0  0  0  0  0  0  0
   41.1990   22.3100   36.6080 H   0  0  0  0  0  0  0  0  0  0  0  0
   34.8160   31.1670   34.0560 N   0  0  0  0  0  0  0  0  0  0  0  0
   34.2820   30.0330   33.2690 C   0  0  1  0  0  0  0  0  0  0  0  0
   33.1650   30.4990   32.4670 C   0  0  0  0  0  0  0  0  0  0  0  0
   32.1280   30.8890   33.3350 O   0  0  0  0  0  0  0  0  0  0  0  0
   32.4660   31.8250   34.2640 C   0  0  0  0  0  0  0  0  0  0  0  0
   33.7640   31.5250   34.9790 C   0  0  2  0  0  0  0  0  0  0  0  0
   35.5720   30.6740   34.6010 H   0  0  0  0  0  0  0  0  0  0  0  0
   33.9520   29.2260   33.9440 H   0  0  0  0  0  0  0  0  0  0  0  0
   32.7240   29.5890   31.9530 H   0  0  0  0  0  0  0  0  0  0  0  0
   33.1960   31.2620   31.7400 H   0  0  0  0  0  0  0  0  0  0  0  0
   32.6110   32.8060   33.7550 H   0  0  0  0  0  0  0  0  0  0  0  0
   31.6460   31.8400   35.0050 H   0  0  0  0  0  0  0  0  0  0  0  0
   33.5610   30.6900   35.7030 H   0  0  0  0  0  0  0  0  0  0  0  0
   33.1880   31.7560   37.7440 F   0  0  0  0  0  0  0  0  0  0  0  0
   33.7650   32.7910   37.1040 C   0  0  0  0  0  0  0  0  0  0  0  0
   34.0810   32.7580   35.7450 C   0  0  0  0  0  0  0  0  0  0  0  0
   34.6730   33.8770   35.1820 C   0  0  0  0  0  0  0  0  0  0  0  0
   34.9220   33.8560   34.1160 H   0  0  0  0  0  0  0  0  0  0  0  0
   34.9650   35.0200   35.9000 C   0  0  0  0  0  0  0  0  0  0  0  0
   35.4270   35.8900   35.4580 H   0  0  0  0  0  0  0  0  0  0  0  0
   34.6370   35.0210   37.2570 C   0  0  0  0  0  3  0  0  0  0  0  0
   34.0510   33.9290   37.8390 C   0  0  0  0  0  3  0  0  0  0  0  0
  1  7  1  0  0  0  0
  1 25  1  0  0  0  0
  2  3  1  0  0  0  0
  3  4  2  0  0  0  0
  3 17  1  0  0  0  0
  4 12  1  0  0  0  0
  5  4  1  0  0  0  0
  6  5  1  0  0  0  0
  6 13  1  0  0  0  0
  7  6  1  0  0  0  0
  8  7  2  0  0  0  0
  8  9  1  0  0  0  0
  9  5  2  0  0  0  0
 10  9  1  0  0  0  0
 10  2  2  0  0  0  0
 11  2  1  0  0  0  0
 14 10  1  0  0  0  0
 15 21  1  0  0  0  0
 16 22  1  0  0  0  0
 16 15  2  0  0  0  0
 17 16  1  0  0  0  0
 18 17  2  0  0  0  0
 18 19  1  0  0  0  0
 19 20  2  0  0  0  0
 20 15  1  0  0  0  0
 23 19  1  0  0  0  0
 24 30  1  0  0  0  0
 24 29  1  0  0  0  0
 25 31  1  1  0  0  0
 25 24  1  0  0  0  0
 26 25  1  0  0  0  0
 26 27  1  0  0  0  0
 27 28  1  0  0  0  0
 28 29  1  0  0  0  0
 28 35  1  0  0  0  0
 29 36  1  1  0  0  0
 29 39  1  0  0  0  0
 32 26  1  0  0  0  0
 33 26  1  0  0  0  0
 34 28  1  0  0  0  0
 38 37  1  0  0  0  0
 38 45  1  0  0  0  0
 39 38  2  0  0  0  0
 40 39  1  0  0  0  0
 40 42  2  0  0  0  0
 41 40  1  0  0  0  0
 42 44  1  0  0  0  0
 43 42  1  0  0  0  0
 44 45  2  0  0  0  0
M  END
>  <minimizedAffinity>
-6.33599997

$$$$

 OpenBabel03272510283D

 45 49  0  0  1  0  0  0  0  0999 V2000
   35.5500   28.9130   31.4650 O   0  0  0  0  0  0  0  0  0  0  0  0
   38.1170   24.0380   33.6210 C   0  0  0  0  0  0  0  0  0  0  0  0
   38.0250   24.7500   34.7920 C   0  0  0  0  0  0  0  0  0  0  0  0
   37.4660   26.0390   34.8060 C   0  0  0  0  0  0  0  0  0  0  0  0
   37.0190   26.5470   33.6080 C   0  0  0  0  0  0  0  0  0  0  0  0
   36.4330   27.7620   33.3770 N   0  0  0  0  0  0  0  0  0  0  0  0
   36.1640   27.7970   32.0580 C   0  0  0  0  0  0  0  0  0  0  0  0
   36.5500   26.6820   31.4730 N   0  0  0  0  0  0  0  0  0  0  0  0
   37.0950   25.8610   32.4110 C   0  0  0  0  0  0  0  0  0  0  0  0
   37.6560   24.5810   32.4270 C   0  0  0  0  0  0  0  0  0  0  0  0
   38.5370   23.0440   33.5480 H   0  0  0  0  0  0  0  0  0  0  0  0
   37.3810   26.6260   35.7130 H   0  0  0  0  0  0  0  0  0  0  0  0
   36.2350   28.5090   34.0850 H   0  0  0  0  0  0  0  0  0  0  0  0
   37.7150   24.0460   31.4910 H   0  0  0  0  0  0  0  0  0  0  0  0
   39.8950   22.8640   37.4590 C   0  0  0  0  0  0  0  0  0  0  0  0
   39.5770   23.3310   36.1960 C   0  0  0  0  0  0  0  0  0  0  0  0
   38.4990   24.1610   36.0310 C   0  0  0  0  0  0  0  0  0  0  0  0
   37.7810   24.4860   37.1630 N   0  0  0  0  0  0  0  0  0  0  0  0
   38.0870   24.0340   38.3890 C   0  0  0  0  0  0  0  0  0  0  0  0
   39.1290   23.2350   38.5330 N   0  0  0  0  0  0  0  0  0  0  0  0
   40.7510   22.2100   37.5600 H   0  0  0  0  0  0  0  0  0  0  0  0
   40.1240   23.0920   35.2950 H   0  0  0  0  0  0  0  0  0  0  0  0
   37.4730   24.3390   39.2060 H   0  0  0  0  0  0  0  0  0  0  0  0
   36.0310   30.8330   32.5950 N   0  0  0  0  0  0  0  0  0  0  0  0
   34.9530   29.8450   32.3620 C   0  0  1  0  0  0  0  0  0  0  0  0
   33.8090   30.5220   31.7790 C   0  0  0  0  0  0  0  0  0  0  0  0
   33.3020   31.4320   32.7250 O   0  0  0  0  0  0  0  0  0  0  0  0
   34.1980   32.3400   33.2000 C   0  0  0  0  0  0  0  0  0  0  0  0
   35.5190   31.7290   33.6060 C   0  0  2  0  0  0  0  0  0  0  0  0
   36.7550   30.2130   33.0470 H   0  0  0  0  0  0  0  0  0  0  0  0
   34.6650   29.3680   33.3140 H   0  0  0  0  0  0  0  0  0  0  0  0
   32.9750   29.7570   31.7030 H   0  0  0  0  0  0  0  0  0  0  0  0
   33.8000   31.0590   30.8710 H   0  0  0  0  0  0  0  0  0  0  0  0
   34.4290   33.0770   32.3950 H   0  0  0  0  0  0  0  0  0  0  0  0
   33.7310   32.8040   34.0880 H   0  0  0  0  0  0  0  0  0  0  0  0
   35.3540   31.1900   34.5770 H   0  0  0  0  0  0  0  0  0  0  0  0
   36.2100   32.5690   36.2230 F   0  0  0  0  0  0  0  0  0  0  0  0
   36.7150   33.2320   35.1650 C   0  0  0  0  0  0  0  0  0  0  0  0
   36.4250   32.8840   33.8450 C   0  0  0  0  0  0  0  0  0  0  0  0
   36.9960   33.6310   32.8280 C   0  0  0  0  0  0  0  0  0  0  0  0
   36.7710   33.3620   31.7910 H   0  0  0  0  0  0  0  0  0  0  0  0
   37.8370   34.7030   33.0580 C   0  0  0  0  0  0  0  0  0  0  0  0
   38.2800   35.2830   32.2630 H   0  0  0  0  0  0  0  0  0  0  0  0
   38.1070   35.0250   34.3890 C   0  0  0  0  0  3  0  0  0  0  0  0
   37.5560   34.3030   35.4130 C   0  0  0  0  0  3  0  0  0  0  0  0
  1  7  1  0  0  0  0
  1 25  1  0  0  0  0
  2  3  1  0  0  0  0
  3  4  2  0  0  0  0
  3 17  1  0  0  0  0
  4 12  1  0  0  0  0
  5  4  1  0  0  0  0
  6  5  1  0  0  0  0
  6 13  1  0  0  0  0
  7  6  1  0  0  0  0
  8  7  2  0  0  0  0
  8  9  1  0  0  0  0
  9 10  1  0  0  0  0
  9  5  2  0  0  0  0
 10  2  2  0  0  0  0
 11  2  1  0  0  0  0
 14 10  1  0  0  0  0
 15 21  1  0  0  0  0
 15 20  1  0  0  0  0
 16 15  2  0  0  0  0
 17 16  1  0  0  0  0
 17 18  2  0  0  0  0
 18 19  1  0  0  0  0
 19 20  2  0  0  0  0
 19 23  1  0  0  0  0
 22 16  1  0  0  0  0
 24 30  1  0  0  0  0
 24 29  1  0  0  0  0
 25 24  1  0  0  0  0
 25 31  1  1  0  0  0
 26 25  1  0  0  0  0
 26 27  1  0  0  0  0
 27 28  1  0  0  0  0
 28 29  1  0  0  0  0
 28 35  1  0  0  0  0
 29 39  1  0  0  0  0
 29 36  1  1  0  0  0
 32 26  1  0  0  0  0
 33 26  1  0  0  0  0
 34 28  1  0  0  0  0
 38 45  1  0  0  0  0
 38 37  1  0  0  0  0
 39 38  2  0  0  0  0
 40 42  2  0  0  0  0
 40 39  1  0  0  0  0
 41 40  1  0  0  0  0
 42 44  1  0  0  0  0
 43 42  1  0  0  0  0
 44 45  2  0  0  0  0
M  END
>  <minimizedAffinity>
-6.30838203

$$$$
