
 OpenBabel03272500093D

 39 42  0  0  0  0  0  0  0  0999 V2000
   35.8040   28.2600   34.2850 O   0  0  0  0  0  0  0  0  0  0  0  0
   35.9450   29.2430   33.3070 C   0  0  0  0  0  0  0  0  0  0  0  0
   36.4410   28.7790   32.1070 C   0  0  0  0  0  0  0  0  0  0  0  0
   36.6340   29.6440   31.0470 C   0  0  0  0  0  0  0  0  0  0  0  0
   36.3220   30.9870   31.2040 C   0  0  0  0  0  0  0  0  0  0  0  0
   35.8230   31.4400   32.4160 C   0  0  0  0  0  0  0  0  0  0  0  0
   35.6440   30.5720   33.4430 C   0  0  0  0  0  0  0  0  0  0  0  0
   36.7030   27.7410   31.9250 H   0  0  0  0  0  0  0  0  0  0  0  0
   37.0270   29.2690   30.1010 H   0  0  0  0  0  0  0  0  0  0  0  0
   36.4610   31.6910   30.3920 H   0  0  0  0  0  0  0  0  0  0  0  0
   35.5770   32.4900   32.5430 H   0  0  0  0  0  0  0  0  0  0  0  0
   32.9390   30.4290   33.7350 F   0  0  0  0  0  0  0  0  0  0  0  0
   33.7330   30.9130   34.7380 C   0  0  0  0  0  0  0  0  0  0  0  0
   35.1280   31.0390   34.7100 C   0  0  0  0  0  0  0  0  0  0  0  0
   35.7320   31.5560   35.8390 C   0  0  0  0  0  0  0  0  0  0  0  0
   36.8190   31.5990   35.6890 H   0  0  0  0  0  0  0  0  0  0  0  0
   34.9940   31.9240   36.9270 C   0  0  0  0  0  0  0  0  0  0  0  0
   35.6220   32.3090   37.7260 H   0  0  0  0  0  0  0  0  0  0  0  0
   33.6380   31.8020   36.9550 C   0  0  0  0  0  3  0  0  0  0  0  0
   32.9950   31.2940   35.8570 C   0  0  0  0  0  3  0  0  0  0  0  0
   38.9070   27.0250   35.6230 C   0  0  0  0  0  0  0  0  0  0  0  0
   39.1180   25.8430   34.9140 C   0  0  0  0  0  0  0  0  0  0  0  0
   38.1470   25.4880   33.9560 C   0  0  0  0  0  0  0  0  0  0  0  0
   37.0800   26.3140   33.7880 N   0  0  0  0  0  0  0  0  0  0  0  0
   36.9100   27.4380   34.4830 C   0  0  0  0  0  0  0  0  0  0  0  0
   37.8320   27.8040   35.4150 N   0  0  0  0  0  0  0  0  0  0  0  0
   39.6380   27.3230   36.3670 H   0  0  0  0  0  0  0  0  0  0  0  0
   38.3050   24.5700   33.4010 H   0  0  0  0  0  0  0  0  0  0  0  0
   40.2700   25.0750   35.1870 N   0  0  0  0  0  0  0  0  0  0  0  0
   41.4780   25.4270   34.7560 C   0  0  0  0  0  0  0  0  0  0  0  0
   42.5750   24.6180   35.0580 C   0  0  0  0  0  0  0  0  0  0  0  0
   42.3030   23.5070   35.7900 C   0  0  0  0  0  0  0  0  0  0  0  0
   43.2890   22.7670   36.0680 O   0  0  0  0  0  0  0  0  0  0  0  0
   41.1210   23.1260   36.2350 N   0  0  0  0  0  0  0  0  0  0  0  0
   40.0620   23.9350   35.9260 C   0  0  0  0  0  0  0  0  0  0  0  0
   38.9150   23.5860   36.3450 O   0  0  0  0  0  0  0  0  0  0  0  0
   41.6110   26.3380   34.1710 H   0  0  0  0  0  0  0  0  0  0  0  0
   43.5680   24.8740   34.7240 H   0  0  0  0  0  0  0  0  0  0  0  0
   40.9310   22.2630   36.8000 H   0  0  0  0  0  0  0  0  0  0  0  0
  1 25  1  0  0  0  0
  2  7  1  0  0  0  0
  2  1  1  0  0  0  0
  3  2  2  0  0  0  0
  4  5  2  0  0  0  0
  4  3  1  0  0  0  0
  5  6  1  0  0  0  0
  6 11  1  0  0  0  0
  6  7  2  0  0  0  0
  7 14  1  0  0  0  0
  8  3  1  0  0  0  0
  9  4  1  0  0  0  0
 10  5  1  0  0  0  0
 12 13  1  0  0  0  0
 13 20  1  0  0  0  0
 14 13  2  0  0  0  0
 14 15  1  0  0  0  0
 15 17  2  0  0  0  0
 16 15  1  0  0  0  0
 17 19  1  0  0  0  0
 17 18  1  0  0  0  0
 20 19  2  0  0  0  0
 21 27  1  0  0  0  0
 22 29  1  0  0  0  0
 22 21  2  0  0  0  0
 23 22  1  0  0  0  0
 24 23  2  0  0  0  0
 24 25  1  0  0  0  0
 25 26  2  0  0  0  0
 26 21  1  0  0  0  0
 28 23  1  0  0  0  0
 29 35  1  0  0  0  0
 30 31  2  0  0  0  0
 30 29  1  0  0  0  0
 31 32  1  0  0  0  0
 32 33  2  0  0  0  0
 32 34  1  0  0  0  0
 34 39  1  0  0  0  0
 35 34  1  0  0  0  0
 35 36  2  0  0  0  0
 37 30  1  0  0  0  0
 38 31  1  0  0  0  0
M  END
>  <minimizedAffinity>
-6.40335751

$$$$

 OpenBabel03272500093D

 39 42  0  0  0  0  0  0  0  0999 V2000
   35.6230   28.3410   34.3240 O   0  0  0  0  0  0  0  0  0  0  0  0
   35.7470   29.4000   33.4250 C   0  0  0  0  0  0  0  0  0  0  0  0
   36.4630   29.0940   32.2870 C   0  0  0  0  0  0  0  0  0  0  0  0
   36.6660   30.0480   31.3100 C   0  0  0  0  0  0  0  0  0  0  0  0
   36.1390   31.3190   31.4850 C   0  0  0  0  0  0  0  0  0  0  0  0
   35.4200   31.6140   32.6340 C   0  0  0  0  0  0  0  0  0  0  0  0
   35.2350   30.6600   33.5820 C   0  0  0  0  0  0  0  0  0  0  0  0
   36.8980   28.1170   32.0950 H   0  0  0  0  0  0  0  0  0  0  0  0
   37.2330   29.7980   30.4120 H   0  0  0  0  0  0  0  0  0  0  0  0
   36.2790   32.0900   30.7360 H   0  0  0  0  0  0  0  0  0  0  0  0
   35.0060   32.6080   32.7760 H   0  0  0  0  0  0  0  0  0  0  0  0
   36.6500   31.8850   35.5610 F   0  0  0  0  0  0  0  0  0  0  0  0
   35.3240   31.5890   35.7210 C   0  0  0  0  0  0  0  0  0  0  0  0
   34.4910   30.9620   34.7830 C   0  0  0  0  0  0  0  0  0  0  0  0
   33.1770   30.7590   35.1520 C   0  0  0  0  0  0  0  0  0  0  0  0
   32.6360   30.2650   34.3340 H   0  0  0  0  0  0  0  0  0  0  0  0
   32.7200   31.1540   36.3770 C   0  0  0  0  0  0  0  0  0  0  0  0
   31.6660   30.9200   36.5060 H   0  0  0  0  0  0  0  0  0  0  0  0
   33.5280   31.7620   37.2880 C   0  0  0  0  0  3  0  0  0  0  0  0
   34.8400   31.9860   36.9660 C   0  0  0  0  0  3  0  0  0  0  0  0
   38.1070   25.7580   33.9970 C   0  0  0  0  0  0  0  0  0  0  0  0
   39.0560   26.0980   34.9610 C   0  0  0  0  0  0  0  0  0  0  0  0
   38.8050   27.2530   35.7290 C   0  0  0  0  0  0  0  0  0  0  0  0
   37.6660   27.9520   35.4810 N   0  0  0  0  0  0  0  0  0  0  0  0
   36.7800   27.5990   34.5510 C   0  0  0  0  0  0  0  0  0  0  0  0
   36.9970   26.4880   33.7950 N   0  0  0  0  0  0  0  0  0  0  0  0
   38.2740   24.8740   33.3910 H   0  0  0  0  0  0  0  0  0  0  0  0
   39.5390   27.5220   36.4810 H   0  0  0  0  0  0  0  0  0  0  0  0
   40.1980   25.2830   35.1160 N   0  0  0  0  0  0  0  0  0  0  0  0
   40.1340   24.0570   35.6270 C   0  0  0  0  0  0  0  0  0  0  0  0
   41.3040   23.3080   35.7570 C   0  0  0  0  0  0  0  0  0  0  0  0
   42.4420   23.9170   35.3360 C   0  0  0  0  0  0  0  0  0  0  0  0
   43.5080   23.2470   35.4500 O   0  0  0  0  0  0  0  0  0  0  0  0
   42.5460   25.1280   34.8260 N   0  0  0  0  0  0  0  0  0  0  0  0
   41.3850   25.8430   34.7080 C   0  0  0  0  0  0  0  0  0  0  0  0
   41.4630   27.0120   34.2180 O   0  0  0  0  0  0  0  0  0  0  0  0
   39.1760   23.6400   35.9410 H   0  0  0  0  0  0  0  0  0  0  0  0
   41.2870   22.3100   36.1670 H   0  0  0  0  0  0  0  0  0  0  0  0
   43.4360   25.5810   34.5050 H   0  0  0  0  0  0  0  0  0  0  0  0
  1 25  1  0  0  0  0
  2  7  1  0  0  0  0
  2  1  1  0  0  0  0
  3  2  2  0  0  0  0
  4  5  2  0  0  0  0
  4  3  1  0  0  0  0
  5  6  1  0  0  0  0
  6 11  1  0  0  0  0
  6  7  2  0  0  0  0
  7 14  1  0  0  0  0
  8  3  1  0  0  0  0
  9  4  1  0  0  0  0
 10  5  1  0  0  0  0
 12 13  1  0  0  0  0
 13 20  1  0  0  0  0
 14 15  1  0  0  0  0
 14 13  2  0  0  0  0
 15 17  2  0  0  0  0
 16 15  1  0  0  0  0
 17 18  1  0  0  0  0
 17 19  1  0  0  0  0
 20 19  2  0  0  0  0
 21 22  1  0  0  0  0
 22 29  1  0  0  0  0
 22 23  2  0  0  0  0
 23 28  1  0  0  0  0
 24 23  1  0  0  0  0
 25 24  2  0  0  0  0
 26 21  2  0  0  0  0
 26 25  1  0  0  0  0
 27 21  1  0  0  0  0
 29 30  1  0  0  0  0
 30 31  2  0  0  0  0
 30 37  1  0  0  0  0
 31 38  1  0  0  0  0
 32 33  2  0  0  0  0
 32 31  1  0  0  0  0
 34 32  1  0  0  0  0
 35 34  1  0  0  0  0
 35 29  1  0  0  0  0
 36 35  2  0  0  0  0
 39 34  1  0  0  0  0
M  END
>  <minimizedAffinity>
-6.33022928

$$$$

 OpenBabel03272500093D

 39 42  0  0  0  0  0  0  0  0999 V2000
   35.3530   28.8510   33.3520 O   0  0  0  0  0  0  0  0  0  0  0  0
   35.8100   29.9790   32.6720 C   0  0  0  0  0  0  0  0  0  0  0  0
   36.3220   29.7150   31.4190 C   0  0  0  0  0  0  0  0  0  0  0  0
   36.8130   30.7390   30.6330 C   0  0  0  0  0  0  0  0  0  0  0  0
   36.7840   32.0380   31.1180 C   0  0  0  0  0  0  0  0  0  0  0  0
   36.2650   32.2900   32.3790 C   0  0  0  0  0  0  0  0  0  0  0  0
   35.7900   31.2680   33.1350 C   0  0  0  0  0  0  0  0  0  0  0  0
   36.3710   28.7190   30.9870 H   0  0  0  0  0  0  0  0  0  0  0  0
   37.2170   30.5210   29.6430 H   0  0  0  0  0  0  0  0  0  0  0  0
   37.1600   32.8640   30.5250 H   0  0  0  0  0  0  0  0  0  0  0  0
   36.2400   33.3060   32.7630 H   0  0  0  0  0  0  0  0  0  0  0  0
   33.0910   31.6130   33.2530 F   0  0  0  0  0  0  0  0  0  0  0  0
   33.8620   31.6800   34.3820 C   0  0  0  0  0  0  0  0  0  0  0  0
   35.2530   31.5240   34.4510 C   0  0  0  0  0  0  0  0  0  0  0  0
   35.8320   31.6310   35.7000 C   0  0  0  0  0  0  0  0  0  0  0  0
   36.9170   31.4860   35.6170 H   0  0  0  0  0  0  0  0  0  0  0  0
   35.0750   31.8790   36.8090 C   0  0  0  0  0  0  0  0  0  0  0  0
   35.6840   31.9330   37.7070 H   0  0  0  0  0  0  0  0  0  0  0  0
   33.7230   32.0320   36.7410 C   0  0  0  0  0  3  0  0  0  0  0  0
   33.1040   31.9340   35.5230 C   0  0  0  0  0  3  0  0  0  0  0  0
   37.5380   26.0010   33.5720 C   0  0  0  0  0  0  0  0  0  0  0  0
   38.2770   26.2490   34.7280 C   0  0  0  0  0  0  0  0  0  0  0  0
   37.9920   27.4380   35.4290 C   0  0  0  0  0  0  0  0  0  0  0  0
   37.0250   28.2560   34.9370 N   0  0  0  0  0  0  0  0  0  0  0  0
   36.3370   27.9880   33.8270 C   0  0  0  0  0  0  0  0  0  0  0  0
   36.5920   26.8470   33.1300 N   0  0  0  0  0  0  0  0  0  0  0  0
   37.7360   25.0940   33.0120 H   0  0  0  0  0  0  0  0  0  0  0  0
   38.5630   27.6360   36.3300 H   0  0  0  0  0  0  0  0  0  0  0  0
   39.2550   25.3140   35.1300 N   0  0  0  0  0  0  0  0  0  0  0  0
   40.4990   25.3380   34.6610 C   0  0  0  0  0  0  0  0  0  0  0  0
   41.4140   24.3800   35.0990 C   0  0  0  0  0  0  0  0  0  0  0  0
   40.9380   23.4770   35.9940 C   0  0  0  0  0  0  0  0  0  0  0  0
   41.7590   22.6030   36.3950 O   0  0  0  0  0  0  0  0  0  0  0  0
   39.7140   23.4200   36.4820 N   0  0  0  0  0  0  0  0  0  0  0  0
   38.8350   24.3710   36.0390 C   0  0  0  0  0  0  0  0  0  0  0  0
   37.6510   24.3330   36.4960 O   0  0  0  0  0  0  0  0  0  0  0  0
   40.8020   26.1010   33.9420 H   0  0  0  0  0  0  0  0  0  0  0  0
   42.4310   24.3710   34.7380 H   0  0  0  0  0  0  0  0  0  0  0  0
   39.3660   22.7140   37.1740 H   0  0  0  0  0  0  0  0  0  0  0  0
  1 25  1  0  0  0  0
  2  7  1  0  0  0  0
  2  1  1  0  0  0  0
  3  2  2  0  0  0  0
  4  5  2  0  0  0  0
  4  3  1  0  0  0  0
  5  6  1  0  0  0  0
  6 11  1  0  0  0  0
  6  7  2  0  0  0  0
  7 14  1  0  0  0  0
  8  3  1  0  0  0  0
  9  4  1  0  0  0  0
 10  5  1  0  0  0  0
 12 13  1  0  0  0  0
 13 14  2  0  0  0  0
 13 20  1  0  0  0  0
 14 15  1  0  0  0  0
 15 17  2  0  0  0  0
 16 15  1  0  0  0  0
 17 18  1  0  0  0  0
 19 17  1  0  0  0  0
 20 19  2  0  0  0  0
 21 22  1  0  0  0  0
 22 29  1  0  0  0  0
 22 23  2  0  0  0  0
 23 28  1  0  0  0  0
 24 23  1  0  0  0  0
 25 24  2  0  0  0  0
 26 21  2  0  0  0  0
 26 25  1  0  0  0  0
 27 21  1  0  0  0  0
 29 35  1  0  0  0  0
 30 31  2  0  0  0  0
 30 29  1  0  0  0  0
 31 32  1  0  0  0  0
 32 33  2  0  0  0  0
 32 34  1  0  0  0  0
 34 39  1  0  0  0  0
 35 34  1  0  0  0  0
 35 36  2  0  0  0  0
 37 30  1  0  0  0  0
 38 31  1  0  0  0  0
M  END
>  <minimizedAffinity>
-6.0888195

$$$$

 OpenBabel03272500093D

 39 42  0  0  0  0  0  0  0  0999 V2000
   38.2870   23.6060   33.3550 O   0  0  0  0  0  0  0  0  0  0  0  0
   37.4070   22.5530   33.6010 C   0  0  0  0  0  0  0  0  0  0  0  0
   36.7460   22.0960   32.4810 C   0  0  0  0  0  0  0  0  0  0  0  0
   35.8430   21.0550   32.5760 C   0  0  0  0  0  0  0  0  0  0  0  0
   35.6090   20.4730   33.8140 C   0  0  0  0  0  0  0  0  0  0  0  0
   36.2820   20.9420   34.9320 C   0  0  0  0  0  0  0  0  0  0  0  0
   37.1630   21.9670   34.8140 C   0  0  0  0  0  0  0  0  0  0  0  0
   36.8880   22.5110   31.4870 H   0  0  0  0  0  0  0  0  0  0  0  0
   35.3240   20.6990   31.6850 H   0  0  0  0  0  0  0  0  0  0  0  0
   34.9070   19.6550   33.9220 H   0  0  0  0  0  0  0  0  0  0  0  0
   36.1020   20.4900   35.9030 H   0  0  0  0  0  0  0  0  0  0  0  0
   39.8260   21.4030   34.9080 F   0  0  0  0  0  0  0  0  0  0  0  0
   39.2190   22.1120   35.9080 C   0  0  0  0  0  0  0  0  0  0  0  0
   37.8640   22.4630   35.9770 C   0  0  0  0  0  0  0  0  0  0  0  0
   37.4600   23.1850   37.0820 C   0  0  0  0  0  0  0  0  0  0  0  0
   36.3850   23.3960   37.0130 H   0  0  0  0  0  0  0  0  0  0  0  0
   38.3490   23.5360   38.0570 C   0  0  0  0  0  0  0  0  0  0  0  0
   37.8700   24.1000   38.8530 H   0  0  0  0  0  0  0  0  0  0  0  0
   39.6660   23.1950   37.9910 C   0  0  0  0  0  3  0  0  0  0  0  0
   40.1130   22.4780   36.9130 C   0  0  0  0  0  3  0  0  0  0  0  0
   36.6340   26.2420   31.5470 C   0  0  0  0  0  0  0  0  0  0  0  0
   36.5190   27.2600   32.4930 C   0  0  0  0  0  0  0  0  0  0  0  0
   37.0340   27.0020   33.7790 C   0  0  0  0  0  0  0  0  0  0  0  0
   37.6030   25.7890   34.0100 N   0  0  0  0  0  0  0  0  0  0  0  0
   37.6970   24.8380   33.0820 C   0  0  0  0  0  0  0  0  0  0  0  0
   37.2080   25.0600   31.8310 N   0  0  0  0  0  0  0  0  0  0  0  0
   36.2460   26.4130   30.5490 H   0  0  0  0  0  0  0  0  0  0  0  0
   36.9480   27.7910   34.5190 H   0  0  0  0  0  0  0  0  0  0  0  0
   35.9040   28.4750   32.1210 N   0  0  0  0  0  0  0  0  0  0  0  0
   34.7220   28.8510   32.6010 C   0  0  0  0  0  0  0  0  0  0  0  0
   34.1700   30.0630   32.1860 C   0  0  0  0  0  0  0  0  0  0  0  0
   34.9120   30.7760   31.3010 C   0  0  0  0  0  0  0  0  0  0  0  0
   34.4200   31.8760   30.9180 O   0  0  0  0  0  0  0  0  0  0  0  0
   36.0850   30.4380   30.8030 N   0  0  0  0  0  0  0  0  0  0  0  0
   36.6070   29.2450   31.2250 C   0  0  0  0  0  0  0  0  0  0  0  0
   37.7360   28.9010   30.7580 O   0  0  0  0  0  0  0  0  0  0  0  0
   34.1900   28.2170   33.3120 H   0  0  0  0  0  0  0  0  0  0  0  0
   33.2130   30.3980   32.5560 H   0  0  0  0  0  0  0  0  0  0  0  0
   36.6440   31.0040   30.1200 H   0  0  0  0  0  0  0  0  0  0  0  0
  1  2  1  0  0  0  0
  2  7  1  0  0  0  0
  3  4  1  0  0  0  0
  3  2  2  0  0  0  0
  4  5  2  0  0  0  0
  5 10  1  0  0  0  0
  5  6  1  0  0  0  0
  6 11  1  0  0  0  0
  7  6  2  0  0  0  0
  7 14  1  0  0  0  0
  8  3  1  0  0  0  0
  9  4  1  0  0  0  0
 12 13  1  0  0  0  0
 13 14  2  0  0  0  0
 13 20  1  0  0  0  0
 14 15  1  0  0  0  0
 15 17  2  0  0  0  0
 16 15  1  0  0  0  0
 17 18  1  0  0  0  0
 19 17  1  0  0  0  0
 20 19  2  0  0  0  0
 21 26  2  0  0  0  0
 21 22  1  0  0  0  0
 22 23  2  0  0  0  0
 23 24  1  0  0  0  0
 23 28  1  0  0  0  0
 25  1  1  0  0  0  0
 25 24  2  0  0  0  0
 26 25  1  0  0  0  0
 27 21  1  0  0  0  0
 29 22  1  0  0  0  0
 29 30  1  0  0  0  0
 30 37  1  0  0  0  0
 31 38  1  0  0  0  0
 31 30  2  0  0  0  0
 32 31  1  0  0  0  0
 33 32  2  0  0  0  0
 34 35  1  0  0  0  0
 34 32  1  0  0  0  0
 35 29  1  0  0  0  0
 36 35  2  0  0  0  0
 39 34  1  0  0  0  0
M  END
>  <minimizedAffinity>
-6.07110548

$$$$

 OpenBabel03272500093D

 39 42  0  0  0  0  0  0  0  0999 V2000
   35.7810   26.6890   31.9790 O   0  0  0  0  0  0  0  0  0  0  0  0
   36.2480   27.9130   31.5000 C   0  0  0  0  0  0  0  0  0  0  0  0
   37.3500   27.8140   30.6770 C   0  0  0  0  0  0  0  0  0  0  0  0
   37.9190   28.9480   30.1310 C   0  0  0  0  0  0  0  0  0  0  0  0
   37.3690   30.1880   30.4180 C   0  0  0  0  0  0  0  0  0  0  0  0
   36.2590   30.2730   31.2460 C   0  0  0  0  0  0  0  0  0  0  0  0
   35.7180   29.1460   31.7730 C   0  0  0  0  0  0  0  0  0  0  0  0
   37.8240   26.8720   30.4170 H   0  0  0  0  0  0  0  0  0  0  0  0
   38.7910   28.8610   29.4800 H   0  0  0  0  0  0  0  0  0  0  0  0
   37.7910   31.0960   30.0040 H   0  0  0  0  0  0  0  0  0  0  0  0
   35.8250   31.2420   31.4740 H   0  0  0  0  0  0  0  0  0  0  0  0
   36.2560   29.6500   34.3960 F   0  0  0  0  0  0  0  0  0  0  0  0
   34.9700   29.4920   33.9560 C   0  0  0  0  0  0  0  0  0  0  0  0
   34.5650   29.2280   32.6410 C   0  0  0  0  0  0  0  0  0  0  0  0
   33.2080   29.1050   32.4170 C   0  0  0  0  0  0  0  0  0  0  0  0
   33.0260   28.9030   31.3530 H   0  0  0  0  0  0  0  0  0  0  0  0
   32.3120   29.2360   33.4390 C   0  0  0  0  0  0  0  0  0  0  0  0
   31.2880   29.1110   33.0930 H   0  0  0  0  0  0  0  0  0  0  0  0
   32.7050   29.4910   34.7170 C   0  0  0  0  0  3  0  0  0  0  0  0
   34.0410   29.6210   34.9870 C   0  0  0  0  0  3  0  0  0  0  0  0
   37.8840   24.0820   33.2920 C   0  0  0  0  0  0  0  0  0  0  0  0
   38.3430   24.6120   34.4980 C   0  0  0  0  0  0  0  0  0  0  0  0
   37.8980   25.9050   34.8390 C   0  0  0  0  0  0  0  0  0  0  0  0
   37.0600   26.5430   33.9800 N   0  0  0  0  0  0  0  0  0  0  0  0
   36.6400   26.0060   32.8350 C   0  0  0  0  0  0  0  0  0  0  0  0
   37.0540   24.7580   32.4800 N   0  0  0  0  0  0  0  0  0  0  0  0
   38.2100   23.0880   33.0030 H   0  0  0  0  0  0  0  0  0  0  0  0
   38.2510   26.3230   35.7760 H   0  0  0  0  0  0  0  0  0  0  0  0
   39.2130   23.8420   35.2990 N   0  0  0  0  0  0  0  0  0  0  0  0
   40.5350   23.9000   35.1730 C   0  0  0  0  0  0  0  0  0  0  0  0
   41.3360   23.1070   35.9950 C   0  0  0  0  0  0  0  0  0  0  0  0
   40.6730   22.3190   36.8800 C   0  0  0  0  0  0  0  0  0  0  0  0
   41.3900   21.5960   37.6290 O   0  0  0  0  0  0  0  0  0  0  0  0
   39.3670   22.2340   37.0350 N   0  0  0  0  0  0  0  0  0  0  0  0
   38.6020   23.0220   36.2180 C   0  0  0  0  0  0  0  0  0  0  0  0
   37.3410   22.9540   36.3500 O   0  0  0  0  0  0  0  0  0  0  0  0
   40.9900   24.5620   34.4340 H   0  0  0  0  0  0  0  0  0  0  0  0
   42.4120   23.1300   35.9190 H   0  0  0  0  0  0  0  0  0  0  0  0
   38.8720   21.6190   37.7260 H   0  0  0  0  0  0  0  0  0  0  0  0
  1 25  1  0  0  0  0
  2  7  1  0  0  0  0
  2  1  1  0  0  0  0
  3  2  2  0  0  0  0
  4  5  2  0  0  0  0
  4  3  1  0  0  0  0
  5  6  1  0  0  0  0
  6 11  1  0  0  0  0
  6  7  2  0  0  0  0
  7 14  1  0  0  0  0
  8  3  1  0  0  0  0
  9  4  1  0  0  0  0
 10  5  1  0  0  0  0
 13 12  1  0  0  0  0
 13 20  1  0  0  0  0
 14 13  2  0  0  0  0
 15 14  1  0  0  0  0
 15 17  2  0  0  0  0
 16 15  1  0  0  0  0
 17 19  1  0  0  0  0
 18 17  1  0  0  0  0
 19 20  2  0  0  0  0
 21 22  1  0  0  0  0
 22 23  2  0  0  0  0
 22 29  1  0  0  0  0
 23 28  1  0  0  0  0
 24 23  1  0  0  0  0
 25 24  2  0  0  0  0
 26 25  1  0  0  0  0
 26 21  2  0  0  0  0
 27 21  1  0  0  0  0
 29 35  1  0  0  0  0
 30 29  1  0  0  0  0
 30 31  2  0  0  0  0
 31 32  1  0  0  0  0
 32 34  1  0  0  0  0
 32 33  2  0  0  0  0
 34 39  1  0  0  0  0
 35 36  2  0  0  0  0
 35 34  1  0  0  0  0
 37 30  1  0  0  0  0
 38 31  1  0  0  0  0
M  END
>  <minimizedAffinity>
-5.97592306

$$$$

 OpenBabel03272500093D

 39 42  0  0  0  0  0  0  0  0999 V2000
   38.0940   25.6670   33.0750 O   0  0  0  0  0  0  0  0  0  0  0  0
   39.3740   26.1050   33.4120 C   0  0  0  0  0  0  0  0  0  0  0  0
   40.0050   26.8230   32.4190 C   0  0  0  0  0  0  0  0  0  0  0  0
   41.2800   27.3170   32.6140 C   0  0  0  0  0  0  0  0  0  0  0  0
   41.9180   27.0850   33.8240 C   0  0  0  0  0  0  0  0  0  0  0  0
   41.2710   26.3620   34.8150 C   0  0  0  0  0  0  0  0  0  0  0  0
   40.0190   25.8840   34.5990 C   0  0  0  0  0  0  0  0  0  0  0  0
   39.5570   27.0360   31.4530 H   0  0  0  0  0  0  0  0  0  0  0  0
   41.7730   27.8850   31.8230 H   0  0  0  0  0  0  0  0  0  0  0  0
   42.9180   27.4600   34.0100 H   0  0  0  0  0  0  0  0  0  0  0  0
   41.7670   26.1770   35.7640 H   0  0  0  0  0  0  0  0  0  0  0  0
   40.7770   23.2770   34.8270 F   0  0  0  0  0  0  0  0  0  0  0  0
   39.8180   23.8080   35.6450 C   0  0  0  0  0  0  0  0  0  0  0  0
   39.3420   25.1260   35.6260 C   0  0  0  0  0  0  0  0  0  0  0  0
   38.3650   25.4510   36.5470 C   0  0  0  0  0  0  0  0  0  0  0  0
   38.0830   26.5060   36.4290 H   0  0  0  0  0  0  0  0  0  0  0  0
   37.8920   24.5230   37.4290 C   0  0  0  0  0  0  0  0  0  0  0  0
   37.1290   24.9420   38.0810 H   0  0  0  0  0  0  0  0  0  0  0  0
   38.3530   23.2420   37.4470 C   0  0  0  0  0  3  0  0  0  0  0  0
   39.3230   22.8740   36.5530 C   0  0  0  0  0  3  0  0  0  0  0  0
   35.4500   27.5820   31.5610 C   0  0  0  0  0  0  0  0  0  0  0  0
   35.2410   28.6200   32.4690 C   0  0  0  0  0  0  0  0  0  0  0  0
   36.0480   28.6330   33.6240 C   0  0  0  0  0  0  0  0  0  0  0  0
   36.9680   27.6430   33.7760 N   0  0  0  0  0  0  0  0  0  0  0  0
   37.1410   26.6650   32.8870 C   0  0  0  0  0  0  0  0  0  0  0  0
   36.3750   26.6280   31.7620 N   0  0  0  0  0  0  0  0  0  0  0  0
   34.8430   27.5470   30.6630 H   0  0  0  0  0  0  0  0  0  0  0  0
   35.8900   29.4370   34.3350 H   0  0  0  0  0  0  0  0  0  0  0  0
   34.2510   29.5860   32.1910 N   0  0  0  0  0  0  0  0  0  0  0  0
   33.0500   29.5600   32.7620 C   0  0  0  0  0  0  0  0  0  0  0  0
   32.1160   30.5440   32.4360 C   0  0  0  0  0  0  0  0  0  0  0  0
   32.5290   31.4730   31.5350 C   0  0  0  0  0  0  0  0  0  0  0  0
   31.6900   32.3680   31.2330 O   0  0  0  0  0  0  0  0  0  0  0  0
   33.7080   31.5320   30.9490 N   0  0  0  0  0  0  0  0  0  0  0  0
   34.6080   30.5560   31.2840 C   0  0  0  0  0  0  0  0  0  0  0  0
   35.7490   30.5950   30.7300 O   0  0  0  0  0  0  0  0  0  0  0  0
   32.7980   28.7770   33.4780 H   0  0  0  0  0  0  0  0  0  0  0  0
   31.1330   30.5530   32.8810 H   0  0  0  0  0  0  0  0  0  0  0  0
   34.0090   32.2590   30.2550 H   0  0  0  0  0  0  0  0  0  0  0  0
  1  2  1  0  0  0  0
  2  7  1  0  0  0  0
  3  4  1  0  0  0  0
  3  2  2  0  0  0  0
  4  5  2  0  0  0  0
  5 10  1  0  0  0  0
  5  6  1  0  0  0  0
  6 11  1  0  0  0  0
  7  6  2  0  0  0  0
  7 14  1  0  0  0  0
  8  3  1  0  0  0  0
  9  4  1  0  0  0  0
 12 13  1  0  0  0  0
 13 20  1  0  0  0  0
 14 13  2  0  0  0  0
 14 15  1  0  0  0  0
 15 17  2  0  0  0  0
 16 15  1  0  0  0  0
 17 19  1  0  0  0  0
 17 18  1  0  0  0  0
 20 19  2  0  0  0  0
 21 26  2  0  0  0  0
 21 22  1  0  0  0  0
 22 23  2  0  0  0  0
 23 24  1  0  0  0  0
 23 28  1  0  0  0  0
 25  1  1  0  0  0  0
 25 24  2  0  0  0  0
 26 25  1  0  0  0  0
 27 21  1  0  0  0  0
 29 22  1  0  0  0  0
 29 30  1  0  0  0  0
 30 37  1  0  0  0  0
 31 30  2  0  0  0  0
 31 38  1  0  0  0  0
 32 31  1  0  0  0  0
 33 32  2  0  0  0  0
 34 35  1  0  0  0  0
 34 32  1  0  0  0  0
 35 29  1  0  0  0  0
 36 35  2  0  0  0  0
 39 34  1  0  0  0  0
M  END
>  <minimizedAffinity>
-5.91836977

$$$$

 OpenBabel03272500093D

 39 42  0  0  0  0  0  0  0  0999 V2000
   37.5690   26.7130   31.6030 O   0  0  0  0  0  0  0  0  0  0  0  0
   37.0440   25.4230   31.6690 C   0  0  0  0  0  0  0  0  0  0  0  0
   35.7770   25.3010   31.1410 C   0  0  0  0  0  0  0  0  0  0  0  0
   35.1330   24.0790   31.1400 C   0  0  0  0  0  0  0  0  0  0  0  0
   35.7770   22.9740   31.6760 C   0  0  0  0  0  0  0  0  0  0  0  0
   37.0530   23.1100   32.2030 C   0  0  0  0  0  0  0  0  0  0  0  0
   37.6650   24.3220   32.1950 C   0  0  0  0  0  0  0  0  0  0  0  0
   35.2230   26.1290   30.7080 H   0  0  0  0  0  0  0  0  0  0  0  0
   34.1300   23.9910   30.7190 H   0  0  0  0  0  0  0  0  0  0  0  0
   35.3000   22.0010   31.6900 H   0  0  0  0  0  0  0  0  0  0  0  0
   37.5620   22.2480   32.6250 H   0  0  0  0  0  0  0  0  0  0  0  0
   37.7890   24.5430   34.9070 F   0  0  0  0  0  0  0  0  0  0  0  0
   38.9240   24.5720   34.1440 C   0  0  0  0  0  0  0  0  0  0  0  0
   38.9920   24.4710   32.7470 C   0  0  0  0  0  0  0  0  0  0  0  0
   40.2480   24.5240   32.1780 C   0  0  0  0  0  0  0  0  0  0  0  0
   40.1630   24.4320   31.0870 H   0  0  0  0  0  0  0  0  0  0  0  0
   41.3660   24.6700   32.9480 C   0  0  0  0  0  0  0  0  0  0  0  0
   42.2690   24.6940   32.3450 H   0  0  0  0  0  0  0  0  0  0  0  0
   41.3000   24.7700   34.3050 C   0  0  0  0  0  3  0  0  0  0  0  0
   40.0750   24.7210   34.9150 C   0  0  0  0  0  3  0  0  0  0  0  0
   36.3360   28.3280   34.5730 C   0  0  0  0  0  0  0  0  0  0  0  0
   35.7620   29.5020   34.0880 C   0  0  0  0  0  0  0  0  0  0  0  0
   35.8170   29.7160   32.6960 C   0  0  0  0  0  0  0  0  0  0  0  0
   36.4200   28.7720   31.9260 N   0  0  0  0  0  0  0  0  0  0  0  0
   36.9590   27.6590   32.4230 C   0  0  0  0  0  0  0  0  0  0  0  0
   36.9200   27.4270   33.7640 N   0  0  0  0  0  0  0  0  0  0  0  0
   36.3080   28.1370   35.6400 H   0  0  0  0  0  0  0  0  0  0  0  0
   35.3730   30.6280   32.3130 H   0  0  0  0  0  0  0  0  0  0  0  0
   35.1670   30.4010   34.9990 N   0  0  0  0  0  0  0  0  0  0  0  0
   35.8750   31.2950   35.6830 C   0  0  0  0  0  0  0  0  0  0  0  0
   35.2210   32.1510   36.5710 C   0  0  0  0  0  0  0  0  0  0  0  0
   33.8760   31.9900   36.6620 C   0  0  0  0  0  0  0  0  0  0  0  0
   33.2750   32.7590   37.4650 O   0  0  0  0  0  0  0  0  0  0  0  0
   33.1410   31.1170   36.0020 N   0  0  0  0  0  0  0  0  0  0  0  0
   33.8030   30.2890   35.1360 C   0  0  0  0  0  0  0  0  0  0  0  0
   33.1130   29.4410   34.4910 O   0  0  0  0  0  0  0  0  0  0  0  0
   36.9560   31.3600   35.5510 H   0  0  0  0  0  0  0  0  0  0  0  0
   35.7650   32.8870   37.1420 H   0  0  0  0  0  0  0  0  0  0  0  0
   32.1010   31.0080   36.0850 H   0  0  0  0  0  0  0  0  0  0  0  0
  1  2  1  0  0  0  0
  1 25  1  0  0  0  0
  2  7  1  0  0  0  0
  3  2  2  0  0  0  0
  4  3  1  0  0  0  0
  4  5  2  0  0  0  0
  5 10  1  0  0  0  0
  5  6  1  0  0  0  0
  6 11  1  0  0  0  0
  7  6  2  0  0  0  0
  7 14  1  0  0  0  0
  8  3  1  0  0  0  0
  9  4  1  0  0  0  0
 13 12  1  0  0  0  0
 13 20  1  0  0  0  0
 14 13  2  0  0  0  0
 15 14  1  0  0  0  0
 15 17  2  0  0  0  0
 16 15  1  0  0  0  0
 17 19  1  0  0  0  0
 18 17  1  0  0  0  0
 19 20  2  0  0  0  0
 21 27  1  0  0  0  0
 22 21  1  0  0  0  0
 22 29  1  0  0  0  0
 23 22  2  0  0  0  0
 24 25  2  0  0  0  0
 24 23  1  0  0  0  0
 25 26  1  0  0  0  0
 26 21  2  0  0  0  0
 28 23  1  0  0  0  0
 29 35  1  0  0  0  0
 29 30  1  0  0  0  0
 30 31  2  0  0  0  0
 31 32  1  0  0  0  0
 31 38  1  0  0  0  0
 32 33  2  0  0  0  0
 34 39  1  0  0  0  0
 34 32  1  0  0  0  0
 35 34  1  0  0  0  0
 36 35  2  0  0  0  0
 37 30  1  0  0  0  0
M  END
>  <minimizedAffinity>
-5.88004303

$$$$

 OpenBabel03272500093D

 39 42  0  0  0  0  0  0  0  0999 V2000
   35.0040   29.6110   32.8980 O   0  0  0  0  0  0  0  0  0  0  0  0
   35.5730   30.8560   32.6330 C   0  0  0  0  0  0  0  0  0  0  0  0
   36.3730   30.8840   31.5100 C   0  0  0  0  0  0  0  0  0  0  0  0
   37.0030   32.0520   31.1280 C   0  0  0  0  0  0  0  0  0  0  0  0
   36.8210   33.1990   31.8870 C   0  0  0  0  0  0  0  0  0  0  0  0
   36.0130   33.1570   33.0140 C   0  0  0  0  0  0  0  0  0  0  0  0
   35.4060   31.9970   33.3710 C   0  0  0  0  0  0  0  0  0  0  0  0
   36.5520   30.0190   30.8770 H   0  0  0  0  0  0  0  0  0  0  0  0
   37.6330   32.0660   30.2380 H   0  0  0  0  0  0  0  0  0  0  0  0
   37.3000   34.1310   31.6140 H   0  0  0  0  0  0  0  0  0  0  0  0
   35.8690   34.0520   33.6120 H   0  0  0  0  0  0  0  0  0  0  0  0
   36.7260   31.9860   35.7540 F   0  0  0  0  0  0  0  0  0  0  0  0
   35.3590   31.9480   35.7040 C   0  0  0  0  0  0  0  0  0  0  0  0
   34.5680   31.9460   34.5470 C   0  0  0  0  0  0  0  0  0  0  0  0
   33.1990   31.9030   34.7260 C   0  0  0  0  0  0  0  0  0  0  0  0
   32.6990   31.9090   33.7490 H   0  0  0  0  0  0  0  0  0  0  0  0
   32.6540   31.8630   35.9770 C   0  0  0  0  0  0  0  0  0  0  0  0
   31.5670   31.8330   35.9400 H   0  0  0  0  0  0  0  0  0  0  0  0
   33.4220   31.8640   37.1010 C   0  0  0  0  0  3  0  0  0  0  0  0
   34.7850   31.9060   36.9730 C   0  0  0  0  0  3  0  0  0  0  0  0
   37.2440   27.7110   34.9740 C   0  0  0  0  0  0  0  0  0  0  0  0
   37.6380   26.6590   34.1470 C   0  0  0  0  0  0  0  0  0  0  0  0
   37.1000   26.6310   32.8450 C   0  0  0  0  0  0  0  0  0  0  0  0
   36.2410   27.6210   32.4850 N   0  0  0  0  0  0  0  0  0  0  0  0
   35.8870   28.6130   33.3010 C   0  0  0  0  0  0  0  0  0  0  0  0
   36.3910   28.6640   34.5650 N   0  0  0  0  0  0  0  0  0  0  0  0
   37.6430   27.7580   35.9820 H   0  0  0  0  0  0  0  0  0  0  0  0
   37.4030   25.8150   32.1970 H   0  0  0  0  0  0  0  0  0  0  0  0
   38.5390   25.6940   34.6470 N   0  0  0  0  0  0  0  0  0  0  0  0
   38.1280   24.5830   35.2530 C   0  0  0  0  0  0  0  0  0  0  0  0
   39.0740   23.6730   35.7280 C   0  0  0  0  0  0  0  0  0  0  0  0
   40.3730   24.0130   35.5230 C   0  0  0  0  0  0  0  0  0  0  0  0
   41.2370   23.1970   35.9510 O   0  0  0  0  0  0  0  0  0  0  0  0
   40.8180   25.1030   34.9290 N   0  0  0  0  0  0  0  0  0  0  0  0
   39.8720   25.9800   34.4710 C   0  0  0  0  0  0  0  0  0  0  0  0
   40.2800   27.0350   33.8950 O   0  0  0  0  0  0  0  0  0  0  0  0
   37.0630   24.3850   35.3770 H   0  0  0  0  0  0  0  0  0  0  0  0
   38.7750   22.7630   36.2230 H   0  0  0  0  0  0  0  0  0  0  0  0
   41.8270   25.3470   34.7790 H   0  0  0  0  0  0  0  0  0  0  0  0
  1 25  1  0  0  0  0
  2  1  1  0  0  0  0
  2  7  1  0  0  0  0
  3  2  2  0  0  0  0
  4  3  1  0  0  0  0
  4  5  2  0  0  0  0
  5  6  1  0  0  0  0
  6  7  2  0  0  0  0
  6 11  1  0  0  0  0
  7 14  1  0  0  0  0
  8  3  1  0  0  0  0
  9  4  1  0  0  0  0
 10  5  1  0  0  0  0
 13 12  1  0  0  0  0
 13 20  1  0  0  0  0
 14 15  1  0  0  0  0
 14 13  2  0  0  0  0
 15 17  2  0  0  0  0
 16 15  1  0  0  0  0
 17 19  1  0  0  0  0
 18 17  1  0  0  0  0
 20 19  2  0  0  0  0
 21 27  1  0  0  0  0
 22 29  1  0  0  0  0
 22 21  2  0  0  0  0
 23 22  1  0  0  0  0
 24 23  2  0  0  0  0
 24 25  1  0  0  0  0
 25 26  2  0  0  0  0
 26 21  1  0  0  0  0
 28 23  1  0  0  0  0
 29 30  1  0  0  0  0
 30 37  1  0  0  0  0
 30 31  2  0  0  0  0
 31 38  1  0  0  0  0
 32 31  1  0  0  0  0
 32 33  2  0  0  0  0
 34 32  1  0  0  0  0
 35 29  1  0  0  0  0
 35 34  1  0  0  0  0
 36 35  2  0  0  0  0
 39 34  1  0  0  0  0
M  END
>  <minimizedAffinity>
-5.87269878

$$$$

 OpenBabel03272500093D

 39 42  0  0  0  0  0  0  0  0999 V2000
   37.9860   24.5420   33.3430 O   0  0  0  0  0  0  0  0  0  0  0  0
   39.3620   24.7300   33.4590 C   0  0  0  0  0  0  0  0  0  0  0  0
   40.0000   24.9870   32.2630 C   0  0  0  0  0  0  0  0  0  0  0  0
   41.3650   25.1930   32.2280 C   0  0  0  0  0  0  0  0  0  0  0  0
   42.0890   25.1400   33.4100 C   0  0  0  0  0  0  0  0  0  0  0  0
   41.4350   24.8810   34.6060 C   0  0  0  0  0  0  0  0  0  0  0  0
   40.0930   24.6800   34.6160 C   0  0  0  0  0  0  0  0  0  0  0  0
   39.4870   25.0410   31.3070 H   0  0  0  0  0  0  0  0  0  0  0  0
   41.8620   25.3960   31.2780 H   0  0  0  0  0  0  0  0  0  0  0  0
   43.1610   25.2980   33.4160 H   0  0  0  0  0  0  0  0  0  0  0  0
   41.9970   24.8380   35.5340 H   0  0  0  0  0  0  0  0  0  0  0  0
   40.9100   22.4440   35.9390 F   0  0  0  0  0  0  0  0  0  0  0  0
   39.9150   23.2370   36.4410 C   0  0  0  0  0  0  0  0  0  0  0  0
   39.4070   24.4060   35.8580 C   0  0  0  0  0  0  0  0  0  0  0  0
   38.3970   25.0560   36.5390 C   0  0  0  0  0  0  0  0  0  0  0  0
   38.0920   25.9510   35.9810 H   0  0  0  0  0  0  0  0  0  0  0  0
   37.9240   24.5740   37.7250 C   0  0  0  0  0  0  0  0  0  0  0  0
   37.1330   25.2030   38.1270 H   0  0  0  0  0  0  0  0  0  0  0  0
   38.4170   23.4380   38.2920 C   0  0  0  0  0  3  0  0  0  0  0  0
   39.4200   22.7590   37.6520 C   0  0  0  0  0  3  0  0  0  0  0  0
   36.6510   27.8830   33.3950 C   0  0  0  0  0  0  0  0  0  0  0  0
   35.8100   27.9130   32.2830 C   0  0  0  0  0  0  0  0  0  0  0  0
   35.7230   26.7350   31.5140 C   0  0  0  0  0  0  0  0  0  0  0  0
   36.4550   25.6590   31.9030 N   0  0  0  0  0  0  0  0  0  0  0  0
   37.2490   25.6640   32.9740 C   0  0  0  0  0  0  0  0  0  0  0  0
   37.3530   26.7880   33.7340 N   0  0  0  0  0  0  0  0  0  0  0  0
   36.7380   28.7750   34.0060 H   0  0  0  0  0  0  0  0  0  0  0  0
   35.0700   26.7530   30.6470 H   0  0  0  0  0  0  0  0  0  0  0  0
   35.1040   29.0990   31.9880 N   0  0  0  0  0  0  0  0  0  0  0  0
   33.9720   29.4250   32.6040 C   0  0  0  0  0  0  0  0  0  0  0  0
   33.3220   30.6120   32.2600 C   0  0  0  0  0  0  0  0  0  0  0  0
   33.9240   31.3530   31.2950 C   0  0  0  0  0  0  0  0  0  0  0  0
   33.3440   32.4290   30.9750 O   0  0  0  0  0  0  0  0  0  0  0  0
   35.0450   31.0640   30.6630 N   0  0  0  0  0  0  0  0  0  0  0  0
   35.6630   29.8960   31.0170 C   0  0  0  0  0  0  0  0  0  0  0  0
   36.7440   29.6000   30.4200 O   0  0  0  0  0  0  0  0  0  0  0  0
   33.5540   28.7710   33.3710 H   0  0  0  0  0  0  0  0  0  0  0  0
   32.4020   30.9060   32.7400 H   0  0  0  0  0  0  0  0  0  0  0  0
   35.4950   31.6520   29.9190 H   0  0  0  0  0  0  0  0  0  0  0  0
  1  2  1  0  0  0  0
  2  7  1  0  0  0  0
  3  2  2  0  0  0  0
  4  3  1  0  0  0  0
  4  5  2  0  0  0  0
  5 10  1  0  0  0  0
  5  6  1  0  0  0  0
  6  7  2  0  0  0  0
  6 11  1  0  0  0  0
  7 14  1  0  0  0  0
  8  3  1  0  0  0  0
  9  4  1  0  0  0  0
 12 13  1  0  0  0  0
 13 20  1  0  0  0  0
 14 13  2  0  0  0  0
 14 15  1  0  0  0  0
 15 17  2  0  0  0  0
 16 15  1  0  0  0  0
 17 18  1  0  0  0  0
 17 19  1  0  0  0  0
 20 19  2  0  0  0  0
 21 26  1  0  0  0  0
 21 27  1  0  0  0  0
 22 21  2  0  0  0  0
 23 24  2  0  0  0  0
 23 22  1  0  0  0  0
 24 25  1  0  0  0  0
 25  1  1  0  0  0  0
 25 26  2  0  0  0  0
 28 23  1  0  0  0  0
 29 22  1  0  0  0  0
 29 30  1  0  0  0  0
 30 37  1  0  0  0  0
 31 30  2  0  0  0  0
 31 38  1  0  0  0  0
 32 31  1  0  0  0  0
 33 32  2  0  0  0  0
 34 35  1  0  0  0  0
 34 32  1  0  0  0  0
 35 29  1  0  0  0  0
 36 35  2  0  0  0  0
 39 34  1  0  0  0  0
M  END
>  <minimizedAffinity>
-5.87266302

$$$$
