
 OpenBabel03272504123D

 21 22  0  0  0  0  0  0  0  0999 V2000
   36.6370   29.8470   49.6560 C   0  0  0  0  0  0  0  0  0  0  0  0
   37.7270   30.3720   48.9560 C   0  0  0  0  0  0  0  0  0  0  0  0
   37.5570   30.7080   47.6180 C   0  0  0  0  0  0  0  0  0  0  0  0
   36.3280   30.5060   47.0640 N   0  0  0  0  0  0  0  0  0  0  0  0
   35.3000   30.0020   47.7570 C   0  0  0  0  0  0  0  0  0  0  0  0
   35.4660   29.6760   49.0540 N   0  0  0  0  0  0  0  0  0  0  0  0
   38.6730   30.5060   49.4590 H   0  0  0  0  0  0  0  0  0  0  0  0
   34.3380   29.8630   47.2550 H   0  0  0  0  0  0  0  0  0  0  0  0
   38.5350   33.2850   48.0860 F   0  0  0  0  0  0  0  0  0  0  0  0
   39.0890   32.5340   47.0970 C   0  0  0  0  0  0  0  0  0  0  0  0
   38.6460   31.2580   46.8240 C   0  0  0  0  0  0  0  0  0  0  0  0
   39.2870   30.6020   45.7990 C   0  0  0  0  0  0  0  0  0  0  0  0
   38.9830   29.6160   45.5500 H   0  0  0  0  0  0  0  0  0  0  0  0
   40.3160   31.1600   45.0700 C   0  0  0  0  0  0  0  0  0  0  0  0
   40.7930   30.6030   44.2690 H   0  0  0  0  0  0  0  0  0  0  0  0
   40.7540   32.4460   45.3540 C   0  0  0  0  0  0  0  0  0  0  0  0
   40.1160   33.1130   46.3810 C   0  0  0  0  0  0  0  0  0  0  0  0
   36.8280   29.4820   51.1010 C   0  0  0  0  0  0  0  0  0  0  0  0
   35.6300   29.1060   51.6530 F   0  0  0  0  0  0  0  0  0  0  0  0
   37.7770   28.4810   51.1390 F   0  0  0  0  0  0  0  0  0  0  0  0
   37.2910   30.6070   51.7550 F   0  0  0  0  0  0  0  0  0  0  0  0
  1 18  1  0  0  0  0
  2  7  1  0  0  0  0
  2  1  2  0  0  0  0
  3  2  1  0  0  0  0
  4  3  2  0  0  0  0
  4  5  1  0  0  0  0
  5  6  2  0  0  0  0
  6  1  1  0  0  0  0
  8  5  1  0  0  0  0
 10  9  1  0  0  0  0
 11 10  1  0  0  0  0
 11  3  1  0  0  0  0
 12 11  2  0  0  0  0
 13 12  1  0  0  0  0
 14 16  2  0  0  0  0
 14 12  1  0  0  0  0
 15 14  1  0  0  0  0
 16 17  1  0  0  0  0
 17 10  2  0  0  0  0
 18 20  1  0  0  0  0
 18 19  1  0  0  0  0
 18 21  1  0  0  0  0
M  END
>  <minimizedAffinity>
-6.57737207

>  <minimizedRMSD>
2.58183336

$$$$
