
 OpenBabel03272508443D

 27 29  0  0  0  0  0  0  0  0999 V2000
   35.7780   30.1140   49.9590 C   0  0  0  0  0  0  0  0  0  0  0  0
   36.6450   29.7930   50.9930 C   0  0  0  0  0  0  0  0  0  0  0  0
   37.7630   30.5880   50.7030 C   0  0  0  0  0  0  0  0  0  0  0  0
   37.5240   31.3120   49.5650 C   0  0  0  0  0  0  0  0  0  0  0  0
   36.3330   31.0020   49.1530 O   0  0  0  0  0  0  0  0  0  0  0  0
   36.4300   29.0910   51.7840 H   0  0  0  0  0  0  0  0  0  0  0  0
   38.6410   30.5780   51.3260 H   0  0  0  0  0  0  0  0  0  0  0  0
   38.5900   31.0000   46.9250 F   0  0  0  0  0  0  0  0  0  0  0  0
   38.9060   32.1040   47.6270 C   0  0  0  0  0  0  0  0  0  0  0  0
   38.3990   32.2650   48.8970 C   0  0  0  0  0  0  0  0  0  0  0  0
   38.7960   33.4340   49.5120 C   0  0  0  0  0  0  0  0  0  0  0  0
   38.4240   33.6200   50.5300 H   0  0  0  0  0  0  0  0  0  0  0  0
   39.6210   34.3920   48.9580 C   0  0  0  0  0  0  0  0  0  0  0  0
   39.8740   35.2710   49.5180 H   0  0  0  0  0  0  0  0  0  0  0  0
   40.0970   34.1700   47.6780 C   0  0  0  0  0  0  0  0  0  0  0  0
   39.7340   33.0170   47.0120 C   0  0  0  0  0  0  0  0  0  0  0  0
   34.4400   29.5380   49.8010 C   0  0  0  0  0  0  0  0  0  0  0  0
   33.6290   29.6840   50.7490 O   0  0  0  0  0  0  0  0  0  0  0  0
   33.7940   26.7800   47.5190 C   0  0  0  0  0  0  0  0  0  0  0  0
   33.4460   27.4330   46.3320 C   0  0  0  0  0  0  0  0  0  0  0  0
   33.4280   28.8180   46.3010 C   0  0  0  0  0  0  0  0  0  0  0  0
   33.7560   29.4630   47.4430 N   0  0  0  0  0  0  0  0  0  0  0  0
   34.0890   28.8250   48.5750 C   0  0  0  0  0  0  0  0  0  0  0  0
   34.1090   27.4780   48.6170 N   0  0  0  0  0  0  0  0  0  0  0  0
   33.7910   25.6950   47.4860 H   0  0  0  0  0  0  0  0  0  0  0  0
   33.1770   26.9540   45.3970 H   0  0  0  0  0  0  0  0  0  0  0  0
   33.1650   29.3640   45.4040 H   0  0  0  0  0  0  0  0  0  0  0  0
  1  2  2  0  0  0  0
  2  6  1  0  0  0  0
  3  2  1  0  0  0  0
  3  7  1  0  0  0  0
  4  3  2  0  0  0  0
  5  4  1  0  0  0  0
  5  1  1  0  0  0  0
  8  9  1  0  0  0  0
  9 10  1  0  0  0  0
 10 11  2  0  0  0  0
 10  4  1  0  0  0  0
 11 12  1  0  0  0  0
 13 11  1  0  0  0  0
 13 14  1  0  0  0  0
 15 13  2  0  0  0  0
 16  9  2  0  0  0  0
 16 15  1  0  0  0  0
 17  1  1  0  0  0  0
 17 18  2  0  0  0  0
 19 24  1  0  0  0  0
 20 19  2  0  0  0  0
 21 20  1  0  0  0  0
 21 22  2  0  0  0  0
 22 23  1  0  0  0  0
 23 24  2  0  0  0  0
 23 17  1  0  0  0  0
 25 19  1  0  0  0  0
 26 20  1  0  0  0  0
 27 21  1  0  0  0  0
M  END
>  <minimizedAffinity>
-6.24560308

>  <minimizedRMSD>
2.21011329

$$$$
