
 OpenBabel03272503033D

 28 30  0  0  0  0  0  0  0  0999 V2000
   35.8890   28.1040   34.9400 F   0  0  0  0  0  0  0  0  0  0  0  0
   35.9830   28.8780   33.8350 C   0  0  0  0  0  0  0  0  0  0  0  0
   36.6600   28.4180   32.7440 C   0  0  0  0  0  0  0  0  0  0  0  0
   36.7180   29.2530   31.6550 C   0  0  0  0  0  0  0  0  0  0  0  0
   36.1320   30.4990   31.6320 C   0  0  0  0  0  0  0  0  0  0  0  0
   35.4500   30.9390   32.7620 C   0  0  0  0  0  0  0  0  0  0  0  0
   35.3780   30.1110   33.8720 C   0  0  0  0  0  0  0  0  0  0  0  0
   37.2480   28.9180   30.7730 H   0  0  0  0  0  0  0  0  0  0  0  0
   36.1850   31.1500   30.7680 H   0  0  0  0  0  0  0  0  0  0  0  0
   34.9960   31.9270   32.7180 H   0  0  0  0  0  0  0  0  0  0  0  0
   39.0830   25.5800   33.3470 C   0  0  0  0  0  0  0  0  0  0  0  0
   38.5510   26.8760   33.3090 C   0  0  0  0  0  0  0  0  0  0  0  0
   37.2610   27.1020   32.8080 C   0  0  0  0  0  0  0  0  0  0  0  0
   36.5940   25.9950   32.3770 N   0  0  0  0  0  0  0  0  0  0  0  0
   37.1260   24.7610   32.4240 C   0  0  0  0  0  0  0  0  0  0  0  0
   38.3610   24.5530   32.9050 N   0  0  0  0  0  0  0  0  0  0  0  0
   40.0970   25.5130   33.7560 H   0  0  0  0  0  0  0  0  0  0  0  0
   39.0930   27.7440   33.6550 H   0  0  0  0  0  0  0  0  0  0  0  0
   36.6080   23.8750   32.0860 H   0  0  0  0  0  0  0  0  0  0  0  0
   36.6760   31.7710   35.7400 F   0  0  0  0  0  0  0  0  0  0  0  0
   35.3670   31.4680   35.8740 C   0  0  0  0  0  0  0  0  0  0  0  0
   34.6480   30.6540   34.9960 C   0  0  0  0  0  0  0  0  0  0  0  0
   33.3010   30.4470   35.2890 C   0  0  0  0  0  0  0  0  0  0  0  0
   32.7630   29.8100   34.5910 H   0  0  0  0  0  0  0  0  0  0  0  0
   32.7050   31.0170   36.3920 C   0  0  0  0  0  0  0  0  0  0  0  0
   31.6460   30.8180   36.5700 H   0  0  0  0  0  0  0  0  0  0  0  0
   33.4300   31.8280   37.2640 C   0  0  0  0  0  3  0  0  0  0  0  0
   34.7550   32.0330   36.9780 C   0  0  0  0  0  3  0  0  0  0  0  0
  2  7  1  0  0  0  0
  2  1  1  0  0  0  0
  3 13  1  0  0  0  0
  3  2  2  0  0  0  0
  4  3  1  0  0  0  0
  5  4  2  0  0  0  0
  5  6  1  0  0  0  0
  6  7  2  0  0  0  0
  7 22  1  0  0  0  0
  8  4  1  0  0  0  0
  9  5  1  0  0  0  0
 10  6  1  0  0  0  0
 11 17  1  0  0  0  0
 12 11  1  0  0  0  0
 12 18  1  0  0  0  0
 13 12  2  0  0  0  0
 14 15  2  0  0  0  0
 14 13  1  0  0  0  0
 15 16  1  0  0  0  0
 16 11  2  0  0  0  0
 19 15  1  0  0  0  0
 20 21  1  0  0  0  0
 21 28  1  0  0  0  0
 22 23  1  0  0  0  0
 22 21  2  0  0  0  0
 23 25  2  0  0  0  0
 24 23  1  0  0  0  0
 25 26  1  0  0  0  0
 25 27  1  0  0  0  0
 28 27  2  0  0  0  0
M  END
>  <minimizedAffinity>
-5.57684183

$$$$

 OpenBabel03272503033D

 28 30  0  0  0  0  0  0  0  0999 V2000
   36.3630   28.0880   34.9200 F   0  0  0  0  0  0  0  0  0  0  0  0
   36.2040   28.6970   33.7240 C   0  0  0  0  0  0  0  0  0  0  0  0
   36.7130   28.1190   32.5980 C   0  0  0  0  0  0  0  0  0  0  0  0
   36.5180   28.7890   31.4150 C   0  0  0  0  0  0  0  0  0  0  0  0
   35.8440   29.9880   31.3350 C   0  0  0  0  0  0  0  0  0  0  0  0
   35.3370   30.5510   32.5020 C   0  0  0  0  0  0  0  0  0  0  0  0
   35.5240   29.8910   33.7060 C   0  0  0  0  0  0  0  0  0  0  0  0
   36.9090   28.3570   30.5040 H   0  0  0  0  0  0  0  0  0  0  0  0
   35.6950   30.5090   30.3970 H   0  0  0  0  0  0  0  0  0  0  0  0
   34.8090   31.4990   32.4100 H   0  0  0  0  0  0  0  0  0  0  0  0
   39.4090   25.5240   33.1390 C   0  0  0  0  0  0  0  0  0  0  0  0
   38.7820   26.7730   33.0270 C   0  0  0  0  0  0  0  0  0  0  0  0
   37.4150   26.8580   32.7260 C   0  0  0  0  0  0  0  0  0  0  0  0
   36.7730   25.6690   32.5580 N   0  0  0  0  0  0  0  0  0  0  0  0
   37.3980   24.4830   32.6700 C   0  0  0  0  0  0  0  0  0  0  0  0
   38.7060   24.4090   32.9590 N   0  0  0  0  0  0  0  0  0  0  0  0
   40.4780   25.5690   33.3760 H   0  0  0  0  0  0  0  0  0  0  0  0
   39.3050   27.7080   33.1640 H   0  0  0  0  0  0  0  0  0  0  0  0
   36.9000   23.5320   32.5390 H   0  0  0  0  0  0  0  0  0  0  0  0
   32.8360   29.4570   34.4240 F   0  0  0  0  0  0  0  0  0  0  0  0
   33.6220   30.2830   35.1480 C   0  0  0  0  0  0  0  0  0  0  0  0
   34.9610   30.5530   34.8620 C   0  0  0  0  0  0  0  0  0  0  0  0
   35.6220   31.4330   35.7180 C   0  0  0  0  0  0  0  0  0  0  0  0
   36.6640   31.6280   35.4750 H   0  0  0  0  0  0  0  0  0  0  0  0
   34.9860   32.0090   36.7950 C   0  0  0  0  0  0  0  0  0  0  0  0
   35.5570   32.6910   37.4290 H   0  0  0  0  0  0  0  0  0  0  0  0
   33.6480   31.7330   37.0730 C   0  0  0  0  0  3  0  0  0  0  0  0
   32.9960   30.8680   36.2330 C   0  0  0  0  0  3  0  0  0  0  0  0
  2  1  1  0  0  0  0
  3 13  1  0  0  0  0
  3  2  2  0  0  0  0
  4  3  1  0  0  0  0
  5  4  2  0  0  0  0
  5  6  1  0  0  0  0
  6  7  2  0  0  0  0
  7  2  1  0  0  0  0
  7 22  1  0  0  0  0
  8  4  1  0  0  0  0
  9  5  1  0  0  0  0
 10  6  1  0  0  0  0
 11 17  1  0  0  0  0
 12 11  1  0  0  0  0
 12 18  1  0  0  0  0
 13 12  2  0  0  0  0
 14 15  2  0  0  0  0
 14 13  1  0  0  0  0
 15 16  1  0  0  0  0
 16 11  2  0  0  0  0
 19 15  1  0  0  0  0
 20 21  1  0  0  0  0
 21 28  1  0  0  0  0
 22 21  2  0  0  0  0
 22 23  1  0  0  0  0
 23 25  2  0  0  0  0
 24 23  1  0  0  0  0
 25 27  1  0  0  0  0
 25 26  1  0  0  0  0
 28 27  2  0  0  0  0
M  END
>  <minimizedAffinity>
-5.53578329

$$$$

 OpenBabel03272503033D

 28 30  0  0  0  0  0  0  0  0999 V2000
   37.9430   23.0940   32.9250 F   0  0  0  0  0  0  0  0  0  0  0  0
   37.0680   23.9240   32.3130 C   0  0  0  0  0  0  0  0  0  0  0  0
   36.0170   23.4050   31.6160 C   0  0  0  0  0  0  0  0  0  0  0  0
   35.1670   24.3020   31.0190 C   0  0  0  0  0  0  0  0  0  0  0  0
   35.3370   25.6670   31.1000 C   0  0  0  0  0  0  0  0  0  0  0  0
   36.4200   26.1640   31.8180 C   0  0  0  0  0  0  0  0  0  0  0  0
   37.2910   25.2750   32.4300 C   0  0  0  0  0  0  0  0  0  0  0  0
   34.3230   23.9220   30.4590 H   0  0  0  0  0  0  0  0  0  0  0  0
   34.6600   26.3660   30.6250 H   0  0  0  0  0  0  0  0  0  0  0  0
   36.5310   27.2460   31.8670 H   0  0  0  0  0  0  0  0  0  0  0  0
   34.8640   19.8600   32.2490 C   0  0  0  0  0  0  0  0  0  0  0  0
   34.9610   21.2550   32.3490 C   0  0  0  0  0  0  0  0  0  0  0  0
   35.8730   21.9640   31.5550 C   0  0  0  0  0  0  0  0  0  0  0  0
   36.6300   21.2100   30.7100 N   0  0  0  0  0  0  0  0  0  0  0  0
   36.5180   19.8730   30.6320 C   0  0  0  0  0  0  0  0  0  0  0  0
   35.6420   19.2000   31.3950 N   0  0  0  0  0  0  0  0  0  0  0  0
   34.1210   19.4040   32.9120 H   0  0  0  0  0  0  0  0  0  0  0  0
   34.3530   21.8390   33.0250 H   0  0  0  0  0  0  0  0  0  0  0  0
   37.1130   19.2630   29.9660 H   0  0  0  0  0  0  0  0  0  0  0  0
   36.9470   26.0870   35.1040 F   0  0  0  0  0  0  0  0  0  0  0  0
   38.1280   26.2590   34.4740 C   0  0  0  0  0  0  0  0  0  0  0  0
   38.3840   25.8870   33.1530 C   0  0  0  0  0  0  0  0  0  0  0  0
   39.6640   26.1400   32.6630 C   0  0  0  0  0  0  0  0  0  0  0  0
   39.8380   25.8410   31.6320 H   0  0  0  0  0  0  0  0  0  0  0  0
   40.6330   26.7300   33.4430 C   0  0  0  0  0  0  0  0  0  0  0  0
   41.6180   26.9040   33.0040 H   0  0  0  0  0  0  0  0  0  0  0  0
   40.3700   27.0990   34.7620 C   0  0  0  0  0  3  0  0  0  0  0  0
   39.1120   26.8510   35.2460 C   0  0  0  0  0  3  0  0  0  0  0  0
  2  7  1  0  0  0  0
  2  1  1  0  0  0  0
  3  2  2  0  0  0  0
  4  5  2  0  0  0  0
  4  3  1  0  0  0  0
  5  6  1  0  0  0  0
  6 10  1  0  0  0  0
  6  7  2  0  0  0  0
  7 22  1  0  0  0  0
  8  4  1  0  0  0  0
  9  5  1  0  0  0  0
 11 12  1  0  0  0  0
 11 17  1  0  0  0  0
 12 18  1  0  0  0  0
 13  3  1  0  0  0  0
 13 12  2  0  0  0  0
 14 13  1  0  0  0  0
 15 14  2  0  0  0  0
 15 16  1  0  0  0  0
 16 11  2  0  0  0  0
 19 15  1  0  0  0  0
 21 20  1  0  0  0  0
 21 28  1  0  0  0  0
 22 21  2  0  0  0  0
 23 22  1  0  0  0  0
 23 25  2  0  0  0  0
 24 23  1  0  0  0  0
 25 27  1  0  0  0  0
 26 25  1  0  0  0  0
 27 28  2  0  0  0  0
M  END
>  <minimizedAffinity>
-5.49852228

$$$$

 OpenBabel03272503033D

 28 30  0  0  0  0  0  0  0  0999 V2000
   37.6800   23.2720   33.4220 F   0  0  0  0  0  0  0  0  0  0  0  0
   36.9060   24.0150   32.6000 C   0  0  0  0  0  0  0  0  0  0  0  0
   36.9790   25.3760   32.6500 C   0  0  0  0  0  0  0  0  0  0  0  0
   36.1670   26.0720   31.7890 C   0  0  0  0  0  0  0  0  0  0  0  0
   35.3090   25.4560   30.9040 C   0  0  0  0  0  0  0  0  0  0  0  0
   35.2580   24.0660   30.8790 C   0  0  0  0  0  0  0  0  0  0  0  0
   36.0700   23.3450   31.7400 C   0  0  0  0  0  0  0  0  0  0  0  0
   36.2010   27.1530   31.8040 H   0  0  0  0  0  0  0  0  0  0  0  0
   34.6720   26.0150   30.2290 H   0  0  0  0  0  0  0  0  0  0  0  0
   34.5710   23.6050   30.1710 H   0  0  0  0  0  0  0  0  0  0  0  0
   38.4220   27.0350   35.7260 C   0  0  0  0  0  0  0  0  0  0  0  0
   37.4920   26.4550   34.8520 C   0  0  0  0  0  0  0  0  0  0  0  0
   37.8950   25.9840   33.5940 C   0  0  0  0  0  0  0  0  0  0  0  0
   39.2170   26.1340   33.3040 N   0  0  0  0  0  0  0  0  0  0  0  0
   40.0900   26.6950   34.1600 C   0  0  0  0  0  0  0  0  0  0  0  0
   39.6970   27.1420   35.3630 N   0  0  0  0  0  0  0  0  0  0  0  0
   38.0040   27.3690   36.6820 H   0  0  0  0  0  0  0  0  0  0  0  0
   36.4460   26.3420   35.0970 H   0  0  0  0  0  0  0  0  0  0  0  0
   41.1420   26.8200   33.9420 H   0  0  0  0  0  0  0  0  0  0  0  0
   37.9610   21.8560   30.2780 F   0  0  0  0  0  0  0  0  0  0  0  0
   36.9270   21.2470   30.8960 C   0  0  0  0  0  0  0  0  0  0  0  0
   35.9470   21.9070   31.6390 C   0  0  0  0  0  0  0  0  0  0  0  0
   34.9500   21.1180   32.2100 C   0  0  0  0  0  0  0  0  0  0  0  0
   34.1990   21.6550   32.7830 H   0  0  0  0  0  0  0  0  0  0  0  0
   34.9290   19.7500   32.0490 C   0  0  0  0  0  0  0  0  0  0  0  0
   34.1220   19.1850   32.5200 H   0  0  0  0  0  0  0  0  0  0  0  0
   35.9120   19.0980   31.3050 C   0  0  0  0  0  3  0  0  0  0  0  0
   36.8940   19.8720   30.7430 C   0  0  0  0  0  3  0  0  0  0  0  0
  2  3  1  0  0  0  0
  2  1  1  0  0  0  0
  3 13  1  0  0  0  0
  4  8  1  0  0  0  0
  4  3  2  0  0  0  0
  5  4  1  0  0  0  0
  6  5  2  0  0  0  0
  6  7  1  0  0  0  0
  7  2  2  0  0  0  0
  9  5  1  0  0  0  0
 10  6  1  0  0  0  0
 11 17  1  0  0  0  0
 12 18  1  0  0  0  0
 12 11  2  0  0  0  0
 13 12  1  0  0  0  0
 14 13  2  0  0  0  0
 14 15  1  0  0  0  0
 15 16  2  0  0  0  0
 16 11  1  0  0  0  0
 19 15  1  0  0  0  0
 20 21  1  0  0  0  0
 21 22  1  0  0  0  0
 22  7  1  0  0  0  0
 22 23  2  0  0  0  0
 23 24  1  0  0  0  0
 25 23  1  0  0  0  0
 25 26  1  0  0  0  0
 27 25  2  0  0  0  0
 28 21  2  0  0  0  0
 28 27  1  0  0  0  0
M  END
>  <minimizedAffinity>
-5.48723936

$$$$

 OpenBabel03272503033D

 28 30  0  0  0  0  0  0  0  0999 V2000
   36.0890   27.9020   34.9350 F   0  0  0  0  0  0  0  0  0  0  0  0
   36.2100   28.5300   33.7440 C   0  0  0  0  0  0  0  0  0  0  0  0
   35.7160   29.7920   33.5920 C   0  0  0  0  0  0  0  0  0  0  0  0
   35.8720   30.3740   32.3570 C   0  0  0  0  0  0  0  0  0  0  0  0
   36.4930   29.7400   31.3030 C   0  0  0  0  0  0  0  0  0  0  0  0
   36.9840   28.4530   31.4910 C   0  0  0  0  0  0  0  0  0  0  0  0
   36.8380   27.8480   32.7300 C   0  0  0  0  0  0  0  0  0  0  0  0
   35.4910   31.3740   32.2040 H   0  0  0  0  0  0  0  0  0  0  0  0
   36.6100   30.2070   30.3330 H   0  0  0  0  0  0  0  0  0  0  0  0
   37.4700   27.9750   30.6410 H   0  0  0  0  0  0  0  0  0  0  0  0
   35.0720   31.8610   36.6900 C   0  0  0  0  0  0  0  0  0  0  0  0
   35.7470   31.2780   35.6080 C   0  0  0  0  0  0  0  0  0  0  0  0
   35.0710   30.4230   34.7250 C   0  0  0  0  0  0  0  0  0  0  0  0
   33.7530   30.2160   34.9980 N   0  0  0  0  0  0  0  0  0  0  0  0
   33.1280   30.7870   36.0430 C   0  0  0  0  0  0  0  0  0  0  0  0
   33.7810   31.6040   36.8840 N   0  0  0  0  0  0  0  0  0  0  0  0
   35.6900   32.5120   37.3170 H   0  0  0  0  0  0  0  0  0  0  0  0
   36.7930   31.4530   35.4050 H   0  0  0  0  0  0  0  0  0  0  0  0
   32.0830   30.6300   36.2710 H   0  0  0  0  0  0  0  0  0  0  0  0
   39.3990   27.4330   33.8250 F   0  0  0  0  0  0  0  0  0  0  0  0
   38.6570   26.3950   33.3830 C   0  0  0  0  0  0  0  0  0  0  0  0
   37.3810   26.5120   32.8280 C   0  0  0  0  0  0  0  0  0  0  0  0
   36.7590   25.3310   32.4250 C   0  0  0  0  0  0  0  0  0  0  0  0
   35.7670   25.4480   31.9960 H   0  0  0  0  0  0  0  0  0  0  0  0
   37.3720   24.1060   32.5670 C   0  0  0  0  0  0  0  0  0  0  0  0
   36.8350   23.2160   32.2320 H   0  0  0  0  0  0  0  0  0  0  0  0
   38.6470   23.9980   33.1230 C   0  0  0  0  0  3  0  0  0  0  0  0
   39.2600   25.1580   33.5190 C   0  0  0  0  0  3  0  0  0  0  0  0
  2  1  1  0  0  0  0
  3  2  1  0  0  0  0
  3 13  1  0  0  0  0
  4  3  2  0  0  0  0
  5  6  2  0  0  0  0
  5  4  1  0  0  0  0
  6  7  1  0  0  0  0
  7 22  1  0  0  0  0
  7  2  2  0  0  0  0
  8  4  1  0  0  0  0
  9  5  1  0  0  0  0
 10  6  1  0  0  0  0
 11 16  1  0  0  0  0
 11 17  1  0  0  0  0
 12 11  2  0  0  0  0
 13 14  2  0  0  0  0
 13 12  1  0  0  0  0
 14 15  1  0  0  0  0
 15 19  1  0  0  0  0
 15 16  2  0  0  0  0
 18 12  1  0  0  0  0
 21 28  1  0  0  0  0
 21 20  1  0  0  0  0
 22 21  2  0  0  0  0
 23 25  2  0  0  0  0
 23 22  1  0  0  0  0
 24 23  1  0  0  0  0
 25 27  1  0  0  0  0
 26 25  1  0  0  0  0
 27 28  2  0  0  0  0
M  END
>  <minimizedAffinity>
-5.1459651

$$$$

 OpenBabel03272503033D

 28 30  0  0  0  0  0  0  0  0999 V2000
   35.5700   28.2740   34.4370 F   0  0  0  0  0  0  0  0  0  0  0  0
   35.8140   29.1040   33.3980 C   0  0  0  0  0  0  0  0  0  0  0  0
   35.5240   30.4320   33.5110 C   0  0  0  0  0  0  0  0  0  0  0  0
   35.7950   31.2200   32.4200 C   0  0  0  0  0  0  0  0  0  0  0  0
   36.3350   30.7250   31.2520 C   0  0  0  0  0  0  0  0  0  0  0  0
   36.6180   29.3660   31.1690 C   0  0  0  0  0  0  0  0  0  0  0  0
   36.3520   28.5530   32.2600 C   0  0  0  0  0  0  0  0  0  0  0  0
   35.5770   32.2780   32.4770 H   0  0  0  0  0  0  0  0  0  0  0  0
   36.5450   31.3560   30.3970 H   0  0  0  0  0  0  0  0  0  0  0  0
   37.0440   29.0010   30.2360 H   0  0  0  0  0  0  0  0  0  0  0  0
   35.0980   32.0840   36.8850 C   0  0  0  0  0  0  0  0  0  0  0  0
   35.6970   31.6450   35.6950 C   0  0  0  0  0  0  0  0  0  0  0  0
   34.9590   30.9120   34.7550 C   0  0  0  0  0  0  0  0  0  0  0  0
   33.6580   30.6720   35.0830 N   0  0  0  0  0  0  0  0  0  0  0  0
   33.1070   31.1040   36.2310 C   0  0  0  0  0  0  0  0  0  0  0  0
   33.8190   31.8060   37.1260 N   0  0  0  0  0  0  0  0  0  0  0  0
   35.7610   32.6480   37.5490 H   0  0  0  0  0  0  0  0  0  0  0  0
   36.7300   31.8440   35.4500 H   0  0  0  0  0  0  0  0  0  0  0  0
   32.0760   30.9210   36.5030 H   0  0  0  0  0  0  0  0  0  0  0  0
   38.7600   27.5150   33.2860 F   0  0  0  0  0  0  0  0  0  0  0  0
   37.8940   26.7240   32.6190 C   0  0  0  0  0  0  0  0  0  0  0  0
   36.6810   27.1560   32.0780 C   0  0  0  0  0  0  0  0  0  0  0  0
   35.9090   26.2010   31.4200 C   0  0  0  0  0  0  0  0  0  0  0  0
   34.9690   26.5610   31.0080 H   0  0  0  0  0  0  0  0  0  0  0  0
   36.3200   24.8910   31.3050 C   0  0  0  0  0  0  0  0  0  0  0  0
   35.6720   24.1890   30.7770 H   0  0  0  0  0  0  0  0  0  0  0  0
   37.5330   24.4680   31.8480 C   0  0  0  0  0  3  0  0  0  0  0  0
   38.2940   25.4060   32.4960 C   0  0  0  0  0  3  0  0  0  0  0  0
  2  3  1  0  0  0  0
  2  1  1  0  0  0  0
  3 13  1  0  0  0  0
  4  8  1  0  0  0  0
  4  3  2  0  0  0  0
  5  4  1  0  0  0  0
  6  5  2  0  0  0  0
  6  7  1  0  0  0  0
  7  2  2  0  0  0  0
  9  5  1  0  0  0  0
 10  6  1  0  0  0  0
 11 16  1  0  0  0  0
 11 17  1  0  0  0  0
 12 11  2  0  0  0  0
 13 14  2  0  0  0  0
 13 12  1  0  0  0  0
 14 15  1  0  0  0  0
 15 19  1  0  0  0  0
 15 16  2  0  0  0  0
 18 12  1  0  0  0  0
 21 20  1  0  0  0  0
 22  7  1  0  0  0  0
 22 21  2  0  0  0  0
 23 22  1  0  0  0  0
 24 23  1  0  0  0  0
 25 23  2  0  0  0  0
 25 27  1  0  0  0  0
 26 25  1  0  0  0  0
 27 28  2  0  0  0  0
 28 21  1  0  0  0  0
M  END
>  <minimizedAffinity>
-5.14547634

$$$$

 OpenBabel03272503033D

 28 30  0  0  0  0  0  0  0  0999 V2000
   39.5450   24.2860   35.0520 F   0  0  0  0  0  0  0  0  0  0  0  0
   40.6240   25.0490   34.7650 C   0  0  0  0  0  0  0  0  0  0  0  0
   41.8770   24.5520   34.9700 C   0  0  0  0  0  0  0  0  0  0  0  0
   42.9290   25.3770   34.6590 C   0  0  0  0  0  0  0  0  0  0  0  0
   42.7620   26.6510   34.1610 C   0  0  0  0  0  0  0  0  0  0  0  0
   41.4700   27.1280   33.9640 C   0  0  0  0  0  0  0  0  0  0  0  0
   40.3940   26.3100   34.2720 C   0  0  0  0  0  0  0  0  0  0  0  0
   43.9370   25.0130   34.8100 H   0  0  0  0  0  0  0  0  0  0  0  0
   43.5990   27.2940   33.9190 H   0  0  0  0  0  0  0  0  0  0  0  0
   41.3660   28.1380   33.5700 H   0  0  0  0  0  0  0  0  0  0  0  0
   41.8140   21.5470   37.2640 C   0  0  0  0  0  0  0  0  0  0  0  0
   41.6650   22.8650   36.8100 C   0  0  0  0  0  0  0  0  0  0  0  0
   42.0100   23.2080   35.4950 C   0  0  0  0  0  0  0  0  0  0  0  0
   42.4850   22.1890   34.7250 N   0  0  0  0  0  0  0  0  0  0  0  0
   42.6190   20.9330   35.1850 C   0  0  0  0  0  0  0  0  0  0  0  0
   42.2860   20.6120   36.4440 N   0  0  0  0  0  0  0  0  0  0  0  0
   41.5160   21.3860   38.3060 H   0  0  0  0  0  0  0  0  0  0  0  0
   41.2860   23.6620   37.4330 H   0  0  0  0  0  0  0  0  0  0  0  0
   42.9950   20.1150   34.5840 H   0  0  0  0  0  0  0  0  0  0  0  0
   38.8580   27.2840   36.4210 F   0  0  0  0  0  0  0  0  0  0  0  0
   38.3970   27.3520   35.1540 C   0  0  0  0  0  0  0  0  0  0  0  0
   39.0920   26.8940   34.0330 C   0  0  0  0  0  0  0  0  0  0  0  0
   38.4640   27.0440   32.7980 C   0  0  0  0  0  0  0  0  0  0  0  0
   39.0250   26.6800   31.9400 H   0  0  0  0  0  0  0  0  0  0  0  0
   37.2170   27.6170   32.6850 C   0  0  0  0  0  0  0  0  0  0  0  0
   36.7760   27.7080   31.6900 H   0  0  0  0  0  0  0  0  0  0  0  0
   36.5300   28.0730   33.8100 C   0  0  0  0  0  3  0  0  0  0  0  0
   37.1450   27.9260   35.0260 C   0  0  0  0  0  3  0  0  0  0  0  0
  2  3  1  0  0  0  0
  2  1  1  0  0  0  0
  3 13  1  0  0  0  0
  4  8  1  0  0  0  0
  4  3  2  0  0  0  0
  5  4  1  0  0  0  0
  6  5  2  0  0  0  0
  6  7  1  0  0  0  0
  7  2  2  0  0  0  0
  9  5  1  0  0  0  0
 10  6  1  0  0  0  0
 11 17  1  0  0  0  0
 12 11  1  0  0  0  0
 12 18  1  0  0  0  0
 13 12  2  0  0  0  0
 14 15  2  0  0  0  0
 14 13  1  0  0  0  0
 15 16  1  0  0  0  0
 16 11  2  0  0  0  0
 19 15  1  0  0  0  0
 21 20  1  0  0  0  0
 22  7  1  0  0  0  0
 22 21  2  0  0  0  0
 23 22  1  0  0  0  0
 24 23  1  0  0  0  0
 25 23  2  0  0  0  0
 25 27  1  0  0  0  0
 26 25  1  0  0  0  0
 27 28  2  0  0  0  0
 28 21  1  0  0  0  0
M  END
>  <minimizedAffinity>
-5.11789656

$$$$

 OpenBabel03272503033D

 28 30  0  0  0  0  0  0  0  0999 V2000
   37.5770   25.9220   33.4070 F   0  0  0  0  0  0  0  0  0  0  0  0
   38.8740   26.2740   33.5510 C   0  0  0  0  0  0  0  0  0  0  0  0
   39.4430   27.1360   32.6600 C   0  0  0  0  0  0  0  0  0  0  0  0
   40.7630   27.4530   32.8630 C   0  0  0  0  0  0  0  0  0  0  0  0
   41.5060   26.9440   33.9060 C   0  0  0  0  0  0  0  0  0  0  0  0
   40.8960   26.0660   34.7960 C   0  0  0  0  0  0  0  0  0  0  0  0
   39.5630   25.7330   34.6090 C   0  0  0  0  0  0  0  0  0  0  0  0
   41.2450   28.1350   32.1740 H   0  0  0  0  0  0  0  0  0  0  0  0
   42.5470   27.2000   34.0560 H   0  0  0  0  0  0  0  0  0  0  0  0
   41.5050   25.6780   35.6110 H   0  0  0  0  0  0  0  0  0  0  0  0
   36.6500   28.7680   30.7030 C   0  0  0  0  0  0  0  0  0  0  0  0
   37.3980   28.2900   31.7880 C   0  0  0  0  0  0  0  0  0  0  0  0
   38.6280   27.6500   31.5780 C   0  0  0  0  0  0  0  0  0  0  0  0
   39.0190   27.5350   30.2790 N   0  0  0  0  0  0  0  0  0  0  0  0
   38.2820   28.0020   29.2550 C   0  0  0  0  0  0  0  0  0  0  0  0
   37.1070   28.6140   29.4630 N   0  0  0  0  0  0  0  0  0  0  0  0
   35.7060   29.2530   30.9760 H   0  0  0  0  0  0  0  0  0  0  0  0
   37.0740   28.3900   32.8140 H   0  0  0  0  0  0  0  0  0  0  0  0
   38.5810   27.9170   28.2190 H   0  0  0  0  0  0  0  0  0  0  0  0
   38.2260   26.7120   36.8860 F   0  0  0  0  0  0  0  0  0  0  0  0
   38.3700   25.3850   36.6840 C   0  0  0  0  0  0  0  0  0  0  0  0
   39.0170   24.8160   35.5850 C   0  0  0  0  0  0  0  0  0  0  0  0
   39.0730   23.4250   35.5380 C   0  0  0  0  0  0  0  0  0  0  0  0
   39.5820   23.0060   34.6740 H   0  0  0  0  0  0  0  0  0  0  0  0
   38.5160   22.6440   36.5280 C   0  0  0  0  0  0  0  0  0  0  0  0
   38.5920   21.5590   36.4360 H   0  0  0  0  0  0  0  0  0  0  0  0
   37.8710   23.2200   37.6210 C   0  0  0  0  0  3  0  0  0  0  0  0
   37.8160   24.5890   37.6700 C   0  0  0  0  0  3  0  0  0  0  0  0
  1  2  1  0  0  0  0
  2  7  1  0  0  0  0
  3  4  1  0  0  0  0
  3  2  2  0  0  0  0
  4  5  2  0  0  0  0
  5  9  1  0  0  0  0
  5  6  1  0  0  0  0
  6 10  1  0  0  0  0
  7  6  2  0  0  0  0
  7 22  1  0  0  0  0
  8  4  1  0  0  0  0
 11 17  1  0  0  0  0
 11 12  1  0  0  0  0
 12 18  1  0  0  0  0
 13 12  2  0  0  0  0
 13  3  1  0  0  0  0
 14 13  1  0  0  0  0
 15 16  1  0  0  0  0
 15 14  2  0  0  0  0
 16 11  2  0  0  0  0
 19 15  1  0  0  0  0
 21 20  1  0  0  0  0
 21 28  1  0  0  0  0
 22 21  2  0  0  0  0
 23 22  1  0  0  0  0
 23 25  2  0  0  0  0
 24 23  1  0  0  0  0
 25 27  1  0  0  0  0
 26 25  1  0  0  0  0
 27 28  2  0  0  0  0
M  END
>  <minimizedAffinity>
-5.11363745

$$$$

 OpenBabel03272503033D

 28 30  0  0  0  0  0  0  0  0999 V2000
   37.1510   28.1510   35.4140 F   0  0  0  0  0  0  0  0  0  0  0  0
   36.9840   28.1470   34.0730 C   0  0  0  0  0  0  0  0  0  0  0  0
   35.9860   28.8900   33.5130 C   0  0  0  0  0  0  0  0  0  0  0  0
   35.8710   28.8430   32.1460 C   0  0  0  0  0  0  0  0  0  0  0  0
   36.7060   28.0910   31.3480 C   0  0  0  0  0  0  0  0  0  0  0  0
   37.7130   27.3430   31.9500 C   0  0  0  0  0  0  0  0  0  0  0  0
   37.8470   27.3780   33.3300 C   0  0  0  0  0  0  0  0  0  0  0  0
   35.0900   29.4210   31.6710 H   0  0  0  0  0  0  0  0  0  0  0  0
   36.6060   28.0600   30.2700 H   0  0  0  0  0  0  0  0  0  0  0  0
   38.3580   26.7590   31.2970 H   0  0  0  0  0  0  0  0  0  0  0  0
   34.7080   31.5090   35.9220 C   0  0  0  0  0  0  0  0  0  0  0  0
   35.5800   30.7950   35.0890 C   0  0  0  0  0  0  0  0  0  0  0  0
   35.1310   29.6670   34.3870 C   0  0  0  0  0  0  0  0  0  0  0  0
   33.8230   29.3380   34.5770 N   0  0  0  0  0  0  0  0  0  0  0  0
   33.0060   30.0390   35.3810 C   0  0  0  0  0  0  0  0  0  0  0  0
   33.4420   31.1180   36.0500 N   0  0  0  0  0  0  0  0  0  0  0  0
   35.1580   32.3730   36.4230 H   0  0  0  0  0  0  0  0  0  0  0  0
   36.6160   31.0700   34.9490 H   0  0  0  0  0  0  0  0  0  0  0  0
   31.9660   29.7880   35.5400 H   0  0  0  0  0  0  0  0  0  0  0  0
   37.4650   24.6240   33.7760 F   0  0  0  0  0  0  0  0  0  0  0  0
   38.6480   25.2140   34.0530 C   0  0  0  0  0  0  0  0  0  0  0  0
   38.9210   26.5700   33.8620 C   0  0  0  0  0  0  0  0  0  0  0  0
   40.1990   27.0090   34.2020 C   0  0  0  0  0  0  0  0  0  0  0  0
   40.3880   28.0670   34.0450 H   0  0  0  0  0  0  0  0  0  0  0  0
   41.1500   26.1470   34.7040 C   0  0  0  0  0  0  0  0  0  0  0  0
   42.1350   26.5500   34.9520 H   0  0  0  0  0  0  0  0  0  0  0  0
   40.8690   24.7940   34.8910 C   0  0  0  0  0  3  0  0  0  0  0  0
   39.6120   24.3610   34.5570 C   0  0  0  0  0  3  0  0  0  0  0  0
  2  1  1  0  0  0  0
  3  2  1  0  0  0  0
  3 13  1  0  0  0  0
  4  3  2  0  0  0  0
  5  6  2  0  0  0  0
  5  4  1  0  0  0  0
  6  7  1  0  0  0  0
  7 22  1  0  0  0  0
  7  2  2  0  0  0  0
  8  4  1  0  0  0  0
  9  5  1  0  0  0  0
 10  6  1  0  0  0  0
 11 16  1  0  0  0  0
 11 17  1  0  0  0  0
 12 11  2  0  0  0  0
 13 14  2  0  0  0  0
 13 12  1  0  0  0  0
 14 15  1  0  0  0  0
 15 19  1  0  0  0  0
 15 16  2  0  0  0  0
 18 12  1  0  0  0  0
 20 21  1  0  0  0  0
 21 28  1  0  0  0  0
 22 21  2  0  0  0  0
 22 23  1  0  0  0  0
 23 25  2  0  0  0  0
 24 23  1  0  0  0  0
 25 27  1  0  0  0  0
 25 26  1  0  0  0  0
 28 27  2  0  0  0  0
M  END
>  <minimizedAffinity>
-5.08909035

$$$$
