
 OpenBabel03272502573D

 42 45  0  0  0  0  0  0  0  0999 V2000
   37.2130   26.8080   33.7940 C   0  0  0  0  0  0  0  0  0  0  0  0
   37.9260   26.7430   34.9960 C   0  0  0  0  0  0  0  0  0  0  0  0
   38.4610   25.5550   35.4480 C   0  0  0  0  0  0  0  0  0  0  0  0
   38.2420   24.4520   34.6350 C   0  0  0  0  0  0  0  0  0  0  0  0
   37.5430   24.4990   33.4510 C   0  0  0  0  0  0  0  0  0  0  0  0
   37.0420   25.7010   33.0610 N   0  0  0  0  0  0  0  0  0  0  0  0
   37.3800   23.3160   32.7020 N   0  0  0  0  0  0  0  0  0  0  0  0
   37.6530   22.0570   33.3560 C   0  0  0  0  0  0  0  0  0  0  0  0
   37.5230   20.9720   32.2970 C   0  0  0  0  0  0  0  0  0  0  0  0
   36.1380   20.9980   31.6990 C   0  0  0  0  0  0  0  0  0  0  0  0
   35.7540   22.3610   31.2210 C   0  0  0  0  0  0  0  0  0  0  0  0
   36.9550   23.2850   31.3210 C   0  0  0  0  0  0  0  0  0  0  0  0
   38.0530   27.6310   35.5640 H   0  0  0  0  0  0  0  0  0  0  0  0
   39.0030   25.5150   36.3680 H   0  0  0  0  0  0  0  0  0  0  0  0
   38.6670   23.5190   35.0000 H   0  0  0  0  0  0  0  0  0  0  0  0
   36.9240   21.8270   34.1440 H   0  0  0  0  0  0  0  0  0  0  0  0
   38.7240   21.9570   33.6890 H   0  0  0  0  0  0  0  0  0  0  0  0
   37.6140   20.0040   32.8410 H   0  0  0  0  0  0  0  0  0  0  0  0
   38.2980   21.0270   31.5350 H   0  0  0  0  0  0  0  0  0  0  0  0
   36.1820   20.3310   30.8040 H   0  0  0  0  0  0  0  0  0  0  0  0
   35.3810   20.5320   32.3700 H   0  0  0  0  0  0  0  0  0  0  0  0
   34.9440   22.7310   31.9060 H   0  0  0  0  0  0  0  0  0  0  0  0
   35.3150   22.3720   30.2010 H   0  0  0  0  0  0  0  0  0  0  0  0
   37.7710   22.8300   30.7360 H   0  0  0  0  0  0  0  0  0  0  0  0
   36.6880   24.2970   30.9520 H   0  0  0  0  0  0  0  0  0  0  0  0
   36.2930   29.7320   31.7820 C   0  0  0  0  0  0  0  0  0  0  0  0
   35.6110   30.5310   32.7260 C   0  0  0  0  0  0  0  0  0  0  0  0
   35.4760   30.0720   34.0110 C   0  0  0  0  0  0  0  0  0  0  0  0
   36.0270   28.8550   34.2670 N   0  0  0  0  0  0  0  0  0  0  0  0
   36.6730   28.0960   33.3740 C   0  0  0  0  0  0  0  0  0  0  0  0
   36.8000   28.5430   32.1400 N   0  0  0  0  0  0  0  0  0  0  0  0
   36.4020   30.0940   30.7580 H   0  0  0  0  0  0  0  0  0  0  0  0
   35.2080   31.4670   32.4600 H   0  0  0  0  0  0  0  0  0  0  0  0
   36.6810   31.8790   35.9140 F   0  0  0  0  0  0  0  0  0  0  0  0
   35.3730   31.5760   36.0200 C   0  0  0  0  0  0  0  0  0  0  0  0
   34.8280   30.7210   35.1100 C   0  0  0  0  0  0  0  0  0  0  0  0
   33.4820   30.4980   35.3340 C   0  0  0  0  0  0  0  0  0  0  0  0
   32.8910   29.8340   34.6930 H   0  0  0  0  0  0  0  0  0  0  0  0
   32.7680   31.0750   36.3630 C   0  0  0  0  0  0  0  0  0  0  0  0
   31.7180   30.8720   36.5020 H   0  0  0  0  0  0  0  0  0  0  0  0
   33.3830   31.9310   37.2490 C   0  0  0  0  0  3  0  0  0  0  0  0
   34.7260   32.1890   37.0700 C   0  0  0  0  0  3  0  0  0  0  0  0
  1  2  1  0  0  0  0
  2  3  2  0  0  0  0
  2 13  1  0  0  0  0
  3 14  1  0  0  0  0
  4 15  1  0  0  0  0
  4  3  1  0  0  0  0
  5  4  2  0  0  0  0
  6  5  1  0  0  0  0
  6  1  2  0  0  0  0
  7  8  1  0  0  0  0
  7  5  1  0  0  0  0
  8 17  1  0  0  0  0
  8 16  1  0  0  0  0
  9 18  1  0  0  0  0
  9  8  1  0  0  0  0
 10  9  1  0  0  0  0
 10 21  1  0  0  0  0
 11 12  1  0  0  0  0
 11 10  1  0  0  0  0
 11 22  1  0  0  0  0
 12  7  1  0  0  0  0
 19  9  1  0  0  0  0
 20 10  1  0  0  0  0
 23 11  1  0  0  0  0
 24 12  1  0  0  0  0
 25 12  1  0  0  0  0
 26 31  2  0  0  0  0
 26 27  1  0  0  0  0
 27 28  2  0  0  0  0
 28 29  1  0  0  0  0
 28 36  1  0  0  0  0
 30  1  1  0  0  0  0
 30 29  2  0  0  0  0
 31 30  1  0  0  0  0
 32 26  1  0  0  0  0
 33 27  1  0  0  0  0
 34 35  1  0  0  0  0
 35 42  1  0  0  0  0
 36 37  1  0  0  0  0
 36 35  2  0  0  0  0
 37 39  2  0  0  0  0
 38 37  1  0  0  0  0
 39 40  1  0  0  0  0
 39 41  1  0  0  0  0
 42 41  2  0  0  0  0
M  END
>  <minimizedAffinity>
-6.85250998

$$$$

 OpenBabel03272502573D

 42 45  0  0  0  0  0  0  0  0999 V2000
   37.3030   26.6660   33.6600 C   0  0  0  0  0  0  0  0  0  0  0  0
   38.0540   26.6130   34.8380 C   0  0  0  0  0  0  0  0  0  0  0  0
   38.5860   25.4260   35.2960 C   0  0  0  0  0  0  0  0  0  0  0  0
   38.3240   24.3110   34.5130 C   0  0  0  0  0  0  0  0  0  0  0  0
   37.5870   24.3460   33.3520 C   0  0  0  0  0  0  0  0  0  0  0  0
   37.0910   25.5480   32.9550 N   0  0  0  0  0  0  0  0  0  0  0  0
   37.3810   23.1510   32.6330 N   0  0  0  0  0  0  0  0  0  0  0  0
   37.6580   21.9010   33.3020 C   0  0  0  0  0  0  0  0  0  0  0  0
   37.4770   20.7980   32.2710 C   0  0  0  0  0  0  0  0  0  0  0  0
   36.0730   20.8330   31.7180 C   0  0  0  0  0  0  0  0  0  0  0  0
   35.6930   22.1920   31.2250 C   0  0  0  0  0  0  0  0  0  0  0  0
   36.9110   23.0990   31.2670 C   0  0  0  0  0  0  0  0  0  0  0  0
   38.2120   27.5100   35.3840 H   0  0  0  0  0  0  0  0  0  0  0  0
   39.1580   25.3960   36.1990 H   0  0  0  0  0  0  0  0  0  0  0  0
   38.7480   23.3790   34.8820 H   0  0  0  0  0  0  0  0  0  0  0  0
   36.9520   21.6980   34.1180 H   0  0  0  0  0  0  0  0  0  0  0  0
   38.7380   21.7920   33.6020 H   0  0  0  0  0  0  0  0  0  0  0  0
   37.5720   19.8390   32.8300 H   0  0  0  0  0  0  0  0  0  0  0  0
   38.2270   20.8260   31.4820 H   0  0  0  0  0  0  0  0  0  0  0  0
   36.0780   20.1490   30.8360 H   0  0  0  0  0  0  0  0  0  0  0  0
   35.3320   20.3920   32.4220 H   0  0  0  0  0  0  0  0  0  0  0  0
   34.9120   22.5880   31.9290 H   0  0  0  0  0  0  0  0  0  0  0  0
   35.2210   22.1900   30.2210 H   0  0  0  0  0  0  0  0  0  0  0  0
   37.7000   22.6210   30.6650 H   0  0  0  0  0  0  0  0  0  0  0  0
   36.6460   24.1090   30.8870 H   0  0  0  0  0  0  0  0  0  0  0  0
   36.4150   29.5920   31.6360 C   0  0  0  0  0  0  0  0  0  0  0  0
   35.7130   30.3870   32.5680 C   0  0  0  0  0  0  0  0  0  0  0  0
   35.5540   29.9250   33.8490 C   0  0  0  0  0  0  0  0  0  0  0  0
   36.1020   28.7090   34.1130 N   0  0  0  0  0  0  0  0  0  0  0  0
   36.7680   27.9540   33.2320 C   0  0  0  0  0  0  0  0  0  0  0  0
   36.9180   28.4040   32.0010 N   0  0  0  0  0  0  0  0  0  0  0  0
   36.5440   29.9570   30.6150 H   0  0  0  0  0  0  0  0  0  0  0  0
   35.3130   31.3230   32.2960 H   0  0  0  0  0  0  0  0  0  0  0  0
   32.7620   29.6880   34.5470 F   0  0  0  0  0  0  0  0  0  0  0  0
   33.5690   30.4750   35.2850 C   0  0  0  0  0  0  0  0  0  0  0  0
   34.8820   30.5700   34.9360 C   0  0  0  0  0  0  0  0  0  0  0  0
   35.5930   31.4070   35.7760 C   0  0  0  0  0  0  0  0  0  0  0  0
   36.6630   31.5940   35.6350 H   0  0  0  0  0  0  0  0  0  0  0  0
   35.0370   32.0720   36.8490 C   0  0  0  0  0  0  0  0  0  0  0  0
   35.6300   32.7160   37.4790 H   0  0  0  0  0  0  0  0  0  0  0  0
   33.7000   31.9300   37.1450 C   0  0  0  0  0  3  0  0  0  0  0  0
   32.9440   31.1060   36.3390 C   0  0  0  0  0  3  0  0  0  0  0  0
  1  2  1  0  0  0  0
  2  3  2  0  0  0  0
  2 13  1  0  0  0  0
  3 14  1  0  0  0  0
  4 15  1  0  0  0  0
  4  3  1  0  0  0  0
  5  4  2  0  0  0  0
  6  5  1  0  0  0  0
  6  1  2  0  0  0  0
  7  8  1  0  0  0  0
  7  5  1  0  0  0  0
  8 17  1  0  0  0  0
  8 16  1  0  0  0  0
  9 18  1  0  0  0  0
  9  8  1  0  0  0  0
 10  9  1  0  0  0  0
 10 21  1  0  0  0  0
 11 12  1  0  0  0  0
 11 10  1  0  0  0  0
 11 22  1  0  0  0  0
 12  7  1  0  0  0  0
 19  9  1  0  0  0  0
 20 10  1  0  0  0  0
 23 11  1  0  0  0  0
 24 12  1  0  0  0  0
 25 12  1  0  0  0  0
 26 31  2  0  0  0  0
 26 27  1  0  0  0  0
 27 28  2  0  0  0  0
 28 29  1  0  0  0  0
 28 36  1  0  0  0  0
 30  1  1  0  0  0  0
 30 29  2  0  0  0  0
 31 30  1  0  0  0  0
 32 26  1  0  0  0  0
 33 27  1  0  0  0  0
 34 35  1  0  0  0  0
 35 42  1  0  0  0  0
 36 35  2  0  0  0  0
 36 37  1  0  0  0  0
 37 39  2  0  0  0  0
 38 37  1  0  0  0  0
 39 41  1  0  0  0  0
 39 40  1  0  0  0  0
 42 41  2  0  0  0  0
M  END
>  <minimizedAffinity>
-6.68405294

$$$$

 OpenBabel03272502573D

 42 45  0  0  0  0  0  0  0  0999 V2000
   38.3220   26.8430   33.3210 C   0  0  0  0  0  0  0  0  0  0  0  0
   39.5590   26.9180   32.6720 C   0  0  0  0  0  0  0  0  0  0  0  0
   40.6220   26.1310   33.0620 C   0  0  0  0  0  0  0  0  0  0  0  0
   40.3740   25.2750   34.1260 C   0  0  0  0  0  0  0  0  0  0  0  0
   39.1640   25.1890   34.7750 C   0  0  0  0  0  0  0  0  0  0  0  0
   38.1570   25.9920   34.3410 N   0  0  0  0  0  0  0  0  0  0  0  0
   39.0220   24.2840   35.8460 N   0  0  0  0  0  0  0  0  0  0  0  0
   40.2220   23.7340   36.4320 C   0  0  0  0  0  0  0  0  0  0  0  0
   39.7800   22.7060   37.4630 C   0  0  0  0  0  0  0  0  0  0  0  0
   38.9040   23.3620   38.5030 C   0  0  0  0  0  0  0  0  0  0  0  0
   37.7780   24.1300   37.8890 C   0  0  0  0  0  0  0  0  0  0  0  0
   37.7500   23.8710   36.3930 C   0  0  0  0  0  0  0  0  0  0  0  0
   39.6720   27.5990   31.8640 H   0  0  0  0  0  0  0  0  0  0  0  0
   41.5640   26.1970   32.5610 H   0  0  0  0  0  0  0  0  0  0  0  0
   41.2190   24.6580   34.4260 H   0  0  0  0  0  0  0  0  0  0  0  0
   40.8130   24.4910   36.9650 H   0  0  0  0  0  0  0  0  0  0  0  0
   40.8260   23.1190   35.7060 H   0  0  0  0  0  0  0  0  0  0  0  0
   40.7080   22.3840   37.9890 H   0  0  0  0  0  0  0  0  0  0  0  0
   39.3030   21.8350   37.0170 H   0  0  0  0  0  0  0  0  0  0  0  0
   38.4550   22.5260   39.0910 H   0  0  0  0  0  0  0  0  0  0  0  0
   39.4950   23.9500   39.2400 H   0  0  0  0  0  0  0  0  0  0  0  0
   37.9870   25.2180   38.0730 H   0  0  0  0  0  0  0  0  0  0  0  0
   36.7910   23.9290   38.3570 H   0  0  0  0  0  0  0  0  0  0  0  0
   37.6660   22.7820   36.2480 H   0  0  0  0  0  0  0  0  0  0  0  0
   36.9060   24.4230   35.9280 H   0  0  0  0  0  0  0  0  0  0  0  0
   35.8580   28.5390   31.2010 C   0  0  0  0  0  0  0  0  0  0  0  0
   35.1960   29.3690   32.1330 C   0  0  0  0  0  0  0  0  0  0  0  0
   35.5900   29.3400   33.4460 C   0  0  0  0  0  0  0  0  0  0  0  0
   36.6110   28.4910   33.7400 N   0  0  0  0  0  0  0  0  0  0  0  0
   37.2400   27.7040   32.8590 C   0  0  0  0  0  0  0  0  0  0  0  0
   36.8560   27.7360   31.5980 N   0  0  0  0  0  0  0  0  0  0  0  0
   35.5460   28.5590   30.1550 H   0  0  0  0  0  0  0  0  0  0  0  0
   34.4090   30.0050   31.8370 H   0  0  0  0  0  0  0  0  0  0  0  0
   32.8660   29.3140   34.4020 F   0  0  0  0  0  0  0  0  0  0  0  0
   33.7770   30.1000   35.0080 C   0  0  0  0  0  0  0  0  0  0  0  0
   35.0560   30.0950   34.5380 C   0  0  0  0  0  0  0  0  0  0  0  0
   35.8840   30.9440   35.2490 C   0  0  0  0  0  0  0  0  0  0  0  0
   36.9450   31.0580   35.0010 H   0  0  0  0  0  0  0  0  0  0  0  0
   35.4650   31.7110   36.3150 C   0  0  0  0  0  0  0  0  0  0  0  0
   36.1460   32.3610   36.8420 H   0  0  0  0  0  0  0  0  0  0  0  0
   34.1550   31.6680   36.7380 C   0  0  0  0  0  3  0  0  0  0  0  0
   33.2860   30.8370   36.0630 C   0  0  0  0  0  3  0  0  0  0  0  0
  1  6  1  0  0  0  0
  2  3  1  0  0  0  0
  2  1  2  0  0  0  0
  3  4  2  0  0  0  0
  4 15  1  0  0  0  0
  4  5  1  0  0  0  0
  5  7  1  0  0  0  0
  6  5  2  0  0  0  0
  7 12  1  0  0  0  0
  7  8  1  0  0  0  0
  8 16  1  0  0  0  0
  8  9  1  0  0  0  0
  9 18  1  0  0  0  0
  9 10  1  0  0  0  0
 10 20  1  0  0  0  0
 10 21  1  0  0  0  0
 11 22  1  0  0  0  0
 11 23  1  0  0  0  0
 11 10  1  0  0  0  0
 12 11  1  0  0  0  0
 13  2  1  0  0  0  0
 14  3  1  0  0  0  0
 17  8  1  0  0  0  0
 19  9  1  0  0  0  0
 24 12  1  0  0  0  0
 25 12  1  0  0  0  0
 26 31  2  0  0  0  0
 26 27  1  0  0  0  0
 27 28  2  0  0  0  0
 28 29  1  0  0  0  0
 28 36  1  0  0  0  0
 30  1  1  0  0  0  0
 30 29  2  0  0  0  0
 31 30  1  0  0  0  0
 32 26  1  0  0  0  0
 33 27  1  0  0  0  0
 34 35  1  0  0  0  0
 35 42  1  0  0  0  0
 36 35  2  0  0  0  0
 36 37  1  0  0  0  0
 37 39  2  0  0  0  0
 38 37  1  0  0  0  0
 39 41  1  0  0  0  0
 39 40  1  0  0  0  0
 42 41  2  0  0  0  0
M  END
>  <minimizedAffinity>
-6.56009769

$$$$

 OpenBabel03272502573D

 42 45  0  0  0  0  0  0  0  0999 V2000
   36.3070   27.2060   32.1900 C   0  0  0  0  0  0  0  0  0  0  0  0
   35.6390   26.5240   31.1680 C   0  0  0  0  0  0  0  0  0  0  0  0
   35.7220   25.1530   31.0480 C   0  0  0  0  0  0  0  0  0  0  0  0
   36.5050   24.5150   32.0010 C   0  0  0  0  0  0  0  0  0  0  0  0
   37.1680   25.1710   33.0120 C   0  0  0  0  0  0  0  0  0  0  0  0
   37.0440   26.5230   33.0740 N   0  0  0  0  0  0  0  0  0  0  0  0
   37.9360   24.4230   33.9260 N   0  0  0  0  0  0  0  0  0  0  0  0
   38.2690   23.0610   33.5790 C   0  0  0  0  0  0  0  0  0  0  0  0
   38.9810   22.4600   34.7800 C   0  0  0  0  0  0  0  0  0  0  0  0
   40.2140   23.2660   35.1080 C   0  0  0  0  0  0  0  0  0  0  0  0
   39.9150   24.7240   35.2470 C   0  0  0  0  0  0  0  0  0  0  0  0
   38.4120   24.9360   35.1920 C   0  0  0  0  0  0  0  0  0  0  0  0
   35.0580   27.0820   30.4760 H   0  0  0  0  0  0  0  0  0  0  0  0
   35.2090   24.6410   30.2620 H   0  0  0  0  0  0  0  0  0  0  0  0
   36.5640   23.4340   31.8980 H   0  0  0  0  0  0  0  0  0  0  0  0
   38.9640   23.0030   32.7300 H   0  0  0  0  0  0  0  0  0  0  0  0
   37.3630   22.4020   33.4650 H   0  0  0  0  0  0  0  0  0  0  0  0
   39.3370   21.4560   34.4520 H   0  0  0  0  0  0  0  0  0  0  0  0
   38.3290   22.3400   35.6450 H   0  0  0  0  0  0  0  0  0  0  0  0
   40.5590   22.9000   36.1050 H   0  0  0  0  0  0  0  0  0  0  0  0
   41.0550   23.0480   34.4120 H   0  0  0  0  0  0  0  0  0  0  0  0
   40.3940   25.2400   34.3720 H   0  0  0  0  0  0  0  0  0  0  0  0
   40.3600   25.1880   36.1520 H   0  0  0  0  0  0  0  0  0  0  0  0
   37.9620   24.3200   35.9860 H   0  0  0  0  0  0  0  0  0  0  0  0
   38.1760   26.0140   35.3110 H   0  0  0  0  0  0  0  0  0  0  0  0
   36.4560   30.7790   31.3790 C   0  0  0  0  0  0  0  0  0  0  0  0
   35.8710   31.3610   32.5250 C   0  0  0  0  0  0  0  0  0  0  0  0
   35.4410   30.5450   33.5400 C   0  0  0  0  0  0  0  0  0  0  0  0
   35.6230   29.2110   33.3450 N   0  0  0  0  0  0  0  0  0  0  0  0
   36.1770   28.6570   32.2600 C   0  0  0  0  0  0  0  0  0  0  0  0
   36.5880   29.4470   31.2880 N   0  0  0  0  0  0  0  0  0  0  0  0
   36.7990   31.4260   30.5700 H   0  0  0  0  0  0  0  0  0  0  0  0
   35.7610   32.4060   32.6120 H   0  0  0  0  0  0  0  0  0  0  0  0
   36.6710   32.0050   35.7060 F   0  0  0  0  0  0  0  0  0  0  0  0
   35.3850   31.6180   35.8090 C   0  0  0  0  0  0  0  0  0  0  0  0
   34.8280   30.9300   34.7740 C   0  0  0  0  0  0  0  0  0  0  0  0
   33.5070   30.5950   35.0120 C   0  0  0  0  0  0  0  0  0  0  0  0
   32.9110   30.0400   34.2790 H   0  0  0  0  0  0  0  0  0  0  0  0
   32.8280   30.9200   36.1670 C   0  0  0  0  0  0  0  0  0  0  0  0
   31.7960   30.6380   36.3100 H   0  0  0  0  0  0  0  0  0  0  0  0
   33.4540   31.6180   37.1750 C   0  0  0  0  0  3  0  0  0  0  0  0
   34.7720   31.9770   36.9890 C   0  0  0  0  0  3  0  0  0  0  0  0
  1 30  1  0  0  0  0
  1  6  1  0  0  0  0
  2  1  2  0  0  0  0
  3  2  1  0  0  0  0
  3  4  2  0  0  0  0
  4  5  1  0  0  0  0
  5  6  2  0  0  0  0
  5  7  1  0  0  0  0
  7 12  1  0  0  0  0
  8  7  1  0  0  0  0
  8  9  1  0  0  0  0
  9 10  1  0  0  0  0
  9 19  1  0  0  0  0
 10 11  1  0  0  0  0
 10 20  1  0  0  0  0
 11 23  1  0  0  0  0
 12 11  1  0  0  0  0
 12 25  1  0  0  0  0
 12 24  1  0  0  0  0
 13  2  1  0  0  0  0
 14  3  1  0  0  0  0
 15  4  1  0  0  0  0
 16  8  1  0  0  0  0
 17  8  1  0  0  0  0
 18  9  1  0  0  0  0
 21 10  1  0  0  0  0
 22 11  1  0  0  0  0
 26 27  1  0  0  0  0
 27 33  1  0  0  0  0
 27 28  2  0  0  0  0
 28 36  1  0  0  0  0
 29 28  1  0  0  0  0
 30 29  2  0  0  0  0
 31 26  2  0  0  0  0
 31 30  1  0  0  0  0
 32 26  1  0  0  0  0
 34 35  1  0  0  0  0
 35 42  1  0  0  0  0
 36 37  1  0  0  0  0
 36 35  2  0  0  0  0
 37 39  2  0  0  0  0
 38 37  1  0  0  0  0
 39 40  1  0  0  0  0
 39 41  1  0  0  0  0
 42 41  2  0  0  0  0
M  END
>  <minimizedAffinity>
-6.46437073

$$$$

 OpenBabel03272502573D

 42 45  0  0  0  0  0  0  0  0999 V2000
   37.6260   25.8280   32.1100 C   0  0  0  0  0  0  0  0  0  0  0  0
   38.3010   26.0500   30.9060 C   0  0  0  0  0  0  0  0  0  0  0  0
   38.3130   27.2920   30.3090 C   0  0  0  0  0  0  0  0  0  0  0  0
   37.6180   28.2870   30.9830 C   0  0  0  0  0  0  0  0  0  0  0  0
   36.9490   28.0860   32.1680 C   0  0  0  0  0  0  0  0  0  0  0  0
   36.9760   26.8370   32.7040 N   0  0  0  0  0  0  0  0  0  0  0  0
   36.2740   29.1680   32.7680 N   0  0  0  0  0  0  0  0  0  0  0  0
   36.0290   30.3430   31.9640 C   0  0  0  0  0  0  0  0  0  0  0  0
   35.4120   31.3860   32.8830 C   0  0  0  0  0  0  0  0  0  0  0  0
   34.1360   30.8520   33.4880 C   0  0  0  0  0  0  0  0  0  0  0  0
   34.3330   29.5160   34.1310 C   0  0  0  0  0  0  0  0  0  0  0  0
   35.8130   29.1750   34.1380 C   0  0  0  0  0  0  0  0  0  0  0  0
   38.8110   25.2380   30.4490 H   0  0  0  0  0  0  0  0  0  0  0  0
   38.8320   27.4510   29.3880 H   0  0  0  0  0  0  0  0  0  0  0  0
   37.6340   29.2640   30.5050 H   0  0  0  0  0  0  0  0  0  0  0  0
   35.3070   30.1570   31.1580 H   0  0  0  0  0  0  0  0  0  0  0  0
   36.9760   30.8440   31.6150 H   0  0  0  0  0  0  0  0  0  0  0  0
   35.1170   32.2360   32.2250 H   0  0  0  0  0  0  0  0  0  0  0  0
   36.1030   31.7480   33.6420 H   0  0  0  0  0  0  0  0  0  0  0  0
   33.8580   31.5720   34.2950 H   0  0  0  0  0  0  0  0  0  0  0  0
   33.2860   30.8790   32.7700 H   0  0  0  0  0  0  0  0  0  0  0  0
   33.7820   28.7670   33.5010 H   0  0  0  0  0  0  0  0  0  0  0  0
   33.8910   29.4380   35.1470 H   0  0  0  0  0  0  0  0  0  0  0  0
   36.3380   29.9920   34.6580 H   0  0  0  0  0  0  0  0  0  0  0  0
   35.9740   28.1920   34.6280 H   0  0  0  0  0  0  0  0  0  0  0  0
   37.3860   22.1950   32.5410 C   0  0  0  0  0  0  0  0  0  0  0  0
   37.7400   22.0400   33.8990 C   0  0  0  0  0  0  0  0  0  0  0  0
   38.0500   23.1530   34.6370 C   0  0  0  0  0  0  0  0  0  0  0  0
   37.9860   24.3390   33.9740 N   0  0  0  0  0  0  0  0  0  0  0  0
   37.6510   24.4890   32.6870 C   0  0  0  0  0  0  0  0  0  0  0  0
   37.3540   23.4140   31.9830 N   0  0  0  0  0  0  0  0  0  0  0  0
   37.1380   21.3100   31.9510 H   0  0  0  0  0  0  0  0  0  0  0  0
   37.7690   21.0880   34.3510 H   0  0  0  0  0  0  0  0  0  0  0  0
   40.4110   22.0030   35.8360 F   0  0  0  0  0  0  0  0  0  0  0  0
   39.5360   22.6800   36.6040 C   0  0  0  0  0  0  0  0  0  0  0  0
   38.4300   23.2140   36.0150 C   0  0  0  0  0  0  0  0  0  0  0  0
   37.6210   23.8810   36.9160 C   0  0  0  0  0  0  0  0  0  0  0  0
   36.6890   24.3680   36.6070 H   0  0  0  0  0  0  0  0  0  0  0  0
   37.9000   23.9950   38.2620 C   0  0  0  0  0  0  0  0  0  0  0  0
   37.2390   24.5250   38.9300 H   0  0  0  0  0  0  0  0  0  0  0  0
   39.0380   23.4300   38.7920 C   0  0  0  0  0  3  0  0  0  0  0  0
   39.8810   22.7530   37.9360 C   0  0  0  0  0  3  0  0  0  0  0  0
  1 30  1  0  0  0  0
  1  6  1  0  0  0  0
  2  1  2  0  0  0  0
  3  2  1  0  0  0  0
  3  4  2  0  0  0  0
  4  5  1  0  0  0  0
  5  6  2  0  0  0  0
  5  7  1  0  0  0  0
  7 12  1  0  0  0  0
  8  7  1  0  0  0  0
  8  9  1  0  0  0  0
  9 10  1  0  0  0  0
  9 19  1  0  0  0  0
 10 11  1  0  0  0  0
 10 20  1  0  0  0  0
 11 12  1  0  0  0  0
 11 23  1  0  0  0  0
 12 25  1  0  0  0  0
 12 24  1  0  0  0  0
 13  2  1  0  0  0  0
 14  3  1  0  0  0  0
 15  4  1  0  0  0  0
 16  8  1  0  0  0  0
 17  8  1  0  0  0  0
 18  9  1  0  0  0  0
 21 10  1  0  0  0  0
 22 11  1  0  0  0  0
 26 27  1  0  0  0  0
 27 33  1  0  0  0  0
 27 28  2  0  0  0  0
 28 36  1  0  0  0  0
 29 28  1  0  0  0  0
 30 29  2  0  0  0  0
 31 26  2  0  0  0  0
 31 30  1  0  0  0  0
 32 26  1  0  0  0  0
 34 35  1  0  0  0  0
 35 42  1  0  0  0  0
 36 35  2  0  0  0  0
 36 37  1  0  0  0  0
 37 39  2  0  0  0  0
 38 37  1  0  0  0  0
 39 41  1  0  0  0  0
 39 40  1  0  0  0  0
 42 41  2  0  0  0  0
M  END
>  <minimizedAffinity>
-6.29496527

$$$$

 OpenBabel03272502573D

 42 45  0  0  0  0  0  0  0  0999 V2000
   37.0510   26.9850   32.7730 C   0  0  0  0  0  0  0  0  0  0  0  0
   36.4230   27.6780   33.8130 C   0  0  0  0  0  0  0  0  0  0  0  0
   36.0150   28.9860   33.6600 C   0  0  0  0  0  0  0  0  0  0  0  0
   36.2710   29.5510   32.4180 C   0  0  0  0  0  0  0  0  0  0  0  0
   36.8880   28.8840   31.3850 C   0  0  0  0  0  0  0  0  0  0  0  0
   37.2650   27.5960   31.6010 N   0  0  0  0  0  0  0  0  0  0  0  0
   37.0980   29.5560   30.1640 N   0  0  0  0  0  0  0  0  0  0  0  0
   36.9680   30.9940   30.1500 C   0  0  0  0  0  0  0  0  0  0  0  0
   37.1180   31.4370   28.7020 C   0  0  0  0  0  0  0  0  0  0  0  0
   38.4560   30.9960   28.1620 C   0  0  0  0  0  0  0  0  0  0  0  0
   38.6980   29.5360   28.3780 C   0  0  0  0  0  0  0  0  0  0  0  0
   37.4350   28.8930   28.9240 C   0  0  0  0  0  0  0  0  0  0  0  0
   36.2620   27.1770   34.7360 H   0  0  0  0  0  0  0  0  0  0  0  0
   35.5370   29.5070   34.4620 H   0  0  0  0  0  0  0  0  0  0  0  0
   35.9450   30.5830   32.3070 H   0  0  0  0  0  0  0  0  0  0  0  0
   37.7620   31.4920   30.7230 H   0  0  0  0  0  0  0  0  0  0  0  0
   35.9310   31.3460   30.4150 H   0  0  0  0  0  0  0  0  0  0  0  0
   37.1390   32.5510   28.7250 H   0  0  0  0  0  0  0  0  0  0  0  0
   36.2940   31.1110   28.0700 H   0  0  0  0  0  0  0  0  0  0  0  0
   38.4090   31.1660   27.0600 H   0  0  0  0  0  0  0  0  0  0  0  0
   39.2880   31.6430   28.5200 H   0  0  0  0  0  0  0  0  0  0  0  0
   39.5170   29.4510   29.1430 H   0  0  0  0  0  0  0  0  0  0  0  0
   39.0700   29.0050   27.4770 H   0  0  0  0  0  0  0  0  0  0  0  0
   36.6230   29.1000   28.2090 H   0  0  0  0  0  0  0  0  0  0  0  0
   37.5970   27.8050   29.0730 H   0  0  0  0  0  0  0  0  0  0  0  0
   37.8900   23.4520   32.2680 C   0  0  0  0  0  0  0  0  0  0  0  0
   38.2400   23.0470   33.5750 C   0  0  0  0  0  0  0  0  0  0  0  0
   38.1860   23.9660   34.5910 C   0  0  0  0  0  0  0  0  0  0  0  0
   37.7900   25.2180   34.2390 N   0  0  0  0  0  0  0  0  0  0  0  0
   37.4590   25.6040   33.0010 C   0  0  0  0  0  0  0  0  0  0  0  0
   37.5120   24.7160   32.0280 N   0  0  0  0  0  0  0  0  0  0  0  0
   37.9310   22.7240   31.4560 H   0  0  0  0  0  0  0  0  0  0  0  0
   38.5390   22.0580   33.7790 H   0  0  0  0  0  0  0  0  0  0  0  0
   40.3880   22.4380   35.6670 F   0  0  0  0  0  0  0  0  0  0  0  0
   39.5270   23.0470   36.5060 C   0  0  0  0  0  0  0  0  0  0  0  0
   38.4970   23.7620   35.9740 C   0  0  0  0  0  0  0  0  0  0  0  0
   37.6930   24.3320   36.9440 C   0  0  0  0  0  0  0  0  0  0  0  0
   36.8190   24.9410   36.6860 H   0  0  0  0  0  0  0  0  0  0  0  0
   37.9080   24.1950   38.2990 C   0  0  0  0  0  0  0  0  0  0  0  0
   37.2550   24.6580   39.0210 H   0  0  0  0  0  0  0  0  0  0  0  0
   38.9710   23.4570   38.7680 C   0  0  0  0  0  3  0  0  0  0  0  0
   39.8050   22.8650   37.8430 C   0  0  0  0  0  3  0  0  0  0  0  0
  1 30  1  0  0  0  0
  1  2  1  0  0  0  0
  2 13  1  0  0  0  0
  3  2  2  0  0  0  0
  3 14  1  0  0  0  0
  4  3  1  0  0  0  0
  5  6  1  0  0  0  0
  5  4  2  0  0  0  0
  6  1  2  0  0  0  0
  7  5  1  0  0  0  0
  8  7  1  0  0  0  0
  8 17  1  0  0  0  0
  8 16  1  0  0  0  0
  9 18  1  0  0  0  0
  9  8  1  0  0  0  0
 10 11  1  0  0  0  0
 10 21  1  0  0  0  0
 10  9  1  0  0  0  0
 11 12  1  0  0  0  0
 11 22  1  0  0  0  0
 12 25  1  0  0  0  0
 12  7  1  0  0  0  0
 15  4  1  0  0  0  0
 19  9  1  0  0  0  0
 20 10  1  0  0  0  0
 23 11  1  0  0  0  0
 24 12  1  0  0  0  0
 26 27  1  0  0  0  0
 27 33  1  0  0  0  0
 27 28  2  0  0  0  0
 28 36  1  0  0  0  0
 29 28  1  0  0  0  0
 30 29  2  0  0  0  0
 31 26  2  0  0  0  0
 31 30  1  0  0  0  0
 32 26  1  0  0  0  0
 34 35  1  0  0  0  0
 35 42  1  0  0  0  0
 36 35  2  0  0  0  0
 36 37  1  0  0  0  0
 37 39  2  0  0  0  0
 38 37  1  0  0  0  0
 39 41  1  0  0  0  0
 39 40  1  0  0  0  0
 42 41  2  0  0  0  0
M  END
>  <minimizedAffinity>
-6.26911497

$$$$

 OpenBabel03272502573D

 42 45  0  0  0  0  0  0  0  0999 V2000
   37.8160   27.0560   34.3420 C   0  0  0  0  0  0  0  0  0  0  0  0
   37.2890   26.0900   35.2050 C   0  0  0  0  0  0  0  0  0  0  0  0
   38.0930   25.1340   35.7880 C   0  0  0  0  0  0  0  0  0  0  0  0
   39.4390   25.2020   35.4590 C   0  0  0  0  0  0  0  0  0  0  0  0
   39.9740   26.1450   34.6120 C   0  0  0  0  0  0  0  0  0  0  0  0
   39.1270   27.0610   34.0710 N   0  0  0  0  0  0  0  0  0  0  0  0
   41.3580   26.1230   34.3470 N   0  0  0  0  0  0  0  0  0  0  0  0
   42.0960   24.9310   34.6960 C   0  0  0  0  0  0  0  0  0  0  0  0
   43.5640   25.2250   34.4240 C   0  0  0  0  0  0  0  0  0  0  0  0
   43.7570   25.5910   32.9720 C   0  0  0  0  0  0  0  0  0  0  0  0
   42.8290   26.6800   32.5370 C   0  0  0  0  0  0  0  0  0  0  0  0
   42.0850   27.2190   33.7460 C   0  0  0  0  0  0  0  0  0  0  0  0
   36.2460   26.1020   35.4100 H   0  0  0  0  0  0  0  0  0  0  0  0
   37.6790   24.3990   36.4450 H   0  0  0  0  0  0  0  0  0  0  0  0
   40.0660   24.4430   35.9240 H   0  0  0  0  0  0  0  0  0  0  0  0
   41.8200   24.0690   34.0740 H   0  0  0  0  0  0  0  0  0  0  0  0
   42.0830   24.7130   35.8010 H   0  0  0  0  0  0  0  0  0  0  0  0
   44.1010   24.2610   34.5800 H   0  0  0  0  0  0  0  0  0  0  0  0
   43.9790   25.9760   35.0940 H   0  0  0  0  0  0  0  0  0  0  0  0
   44.7970   25.9900   32.8960 H   0  0  0  0  0  0  0  0  0  0  0  0
   43.7400   24.6990   32.3070 H   0  0  0  0  0  0  0  0  0  0  0  0
   42.0940   26.2160   31.8250 H   0  0  0  0  0  0  0  0  0  0  0  0
   43.3280   27.4930   31.9680 H   0  0  0  0  0  0  0  0  0  0  0  0
   42.8380   27.5530   34.4760 H   0  0  0  0  0  0  0  0  0  0  0  0
   41.4040   28.0400   33.4380 H   0  0  0  0  0  0  0  0  0  0  0  0
   35.8910   29.0580   31.9480 C   0  0  0  0  0  0  0  0  0  0  0  0
   35.1810   29.9280   32.8030 C   0  0  0  0  0  0  0  0  0  0  0  0
   35.3630   29.8240   34.1590 C   0  0  0  0  0  0  0  0  0  0  0  0
   36.2360   28.8650   34.5670 N   0  0  0  0  0  0  0  0  0  0  0  0
   36.9100   28.0390   33.7590 C   0  0  0  0  0  0  0  0  0  0  0  0
   36.7310   28.1440   32.4570 N   0  0  0  0  0  0  0  0  0  0  0  0
   35.7490   29.1380   30.8690 H   0  0  0  0  0  0  0  0  0  0  0  0
   34.5180   30.6520   32.4190 H   0  0  0  0  0  0  0  0  0  0  0  0
   36.6570   31.7200   35.9100 F   0  0  0  0  0  0  0  0  0  0  0  0
   35.3330   31.5030   36.0260 C   0  0  0  0  0  0  0  0  0  0  0  0
   34.7460   30.6030   35.1880 C   0  0  0  0  0  0  0  0  0  0  0  0
   33.3870   30.4780   35.4160 C   0  0  0  0  0  0  0  0  0  0  0  0
   32.7630   29.7950   34.8280 H   0  0  0  0  0  0  0  0  0  0  0  0
   32.7010   31.1830   36.3810 C   0  0  0  0  0  0  0  0  0  0  0  0
   31.6400   31.0540   36.5240 H   0  0  0  0  0  0  0  0  0  0  0  0
   33.3590   32.0780   37.1950 C   0  0  0  0  0  3  0  0  0  0  0  0
   34.7150   32.2420   37.0110 C   0  0  0  0  0  3  0  0  0  0  0  0
  1  2  1  0  0  0  0
  2 13  1  0  0  0  0
  2  3  2  0  0  0  0
  3 14  1  0  0  0  0
  4  3  1  0  0  0  0
  4 15  1  0  0  0  0
  5  4  2  0  0  0  0
  6  1  2  0  0  0  0
  6  5  1  0  0  0  0
  7  5  1  0  0  0  0
  7  8  1  0  0  0  0
  8 17  1  0  0  0  0
  9 18  1  0  0  0  0
  9  8  1  0  0  0  0
  9 19  1  0  0  0  0
 10  9  1  0  0  0  0
 11 10  1  0  0  0  0
 11 12  1  0  0  0  0
 12  7  1  0  0  0  0
 12 24  1  0  0  0  0
 16  8  1  0  0  0  0
 20 10  1  0  0  0  0
 21 10  1  0  0  0  0
 22 11  1  0  0  0  0
 23 11  1  0  0  0  0
 25 12  1  0  0  0  0
 26 31  2  0  0  0  0
 26 27  1  0  0  0  0
 27 28  2  0  0  0  0
 28 29  1  0  0  0  0
 28 36  1  0  0  0  0
 30  1  1  0  0  0  0
 30 29  2  0  0  0  0
 31 30  1  0  0  0  0
 32 26  1  0  0  0  0
 33 27  1  0  0  0  0
 34 35  1  0  0  0  0
 35 42  1  0  0  0  0
 36 37  1  0  0  0  0
 36 35  2  0  0  0  0
 37 39  2  0  0  0  0
 38 37  1  0  0  0  0
 39 40  1  0  0  0  0
 39 41  1  0  0  0  0
 42 41  2  0  0  0  0
M  END
>  <minimizedAffinity>
-6.16245556

$$$$

 OpenBabel03272502573D

 42 45  0  0  0  0  0  0  0  0999 V2000
   38.7240   24.0490   34.7260 C   0  0  0  0  0  0  0  0  0  0  0  0
   38.7120   23.8090   36.1040 C   0  0  0  0  0  0  0  0  0  0  0  0
   38.0450   22.7280   36.6380 C   0  0  0  0  0  0  0  0  0  0  0  0
   37.3980   21.9110   35.7210 C   0  0  0  0  0  0  0  0  0  0  0  0
   37.3990   22.1330   34.3630 C   0  0  0  0  0  0  0  0  0  0  0  0
   38.0760   23.2170   33.9010 N   0  0  0  0  0  0  0  0  0  0  0  0
   36.7080   21.2380   33.5210 N   0  0  0  0  0  0  0  0  0  0  0  0
   35.7610   20.3310   34.1270 C   0  0  0  0  0  0  0  0  0  0  0  0
   35.2640   19.4090   33.0240 C   0  0  0  0  0  0  0  0  0  0  0  0
   34.6290   20.2180   31.9200 C   0  0  0  0  0  0  0  0  0  0  0  0
   35.5240   21.3140   31.4370 C   0  0  0  0  0  0  0  0  0  0  0  0
   36.8880   21.1720   32.0880 C   0  0  0  0  0  0  0  0  0  0  0  0
   39.2310   24.4800   36.7430 H   0  0  0  0  0  0  0  0  0  0  0  0
   38.0410   22.5540   37.6930 H   0  0  0  0  0  0  0  0  0  0  0  0
   36.8740   21.0600   36.1520 H   0  0  0  0  0  0  0  0  0  0  0  0
   34.8820   20.8510   34.5320 H   0  0  0  0  0  0  0  0  0  0  0  0
   36.2380   19.6180   34.8570 H   0  0  0  0  0  0  0  0  0  0  0  0
   34.4490   18.8010   33.4800 H   0  0  0  0  0  0  0  0  0  0  0  0
   36.0380   18.7410   32.6480 H   0  0  0  0  0  0  0  0  0  0  0  0
   34.4830   19.5090   31.0700 H   0  0  0  0  0  0  0  0  0  0  0  0
   33.6060   20.5640   32.1880 H   0  0  0  0  0  0  0  0  0  0  0  0
   35.0570   22.2830   31.7630 H   0  0  0  0  0  0  0  0  0  0  0  0
   35.6030   21.3740   30.3320 H   0  0  0  0  0  0  0  0  0  0  0  0
   37.2650   20.1650   31.8500 H   0  0  0  0  0  0  0  0  0  0  0  0
   37.5680   21.9710   31.7250 H   0  0  0  0  0  0  0  0  0  0  0  0
   41.2050   26.7160   34.3100 C   0  0  0  0  0  0  0  0  0  0  0  0
   40.7030   27.4070   33.1850 C   0  0  0  0  0  0  0  0  0  0  0  0
   39.5480   26.9630   32.5940 C   0  0  0  0  0  0  0  0  0  0  0  0
   38.9740   25.8680   33.1610 N   0  0  0  0  0  0  0  0  0  0  0  0
   39.4480   25.2120   34.2270 C   0  0  0  0  0  0  0  0  0  0  0  0
   40.5590   25.6430   34.7910 N   0  0  0  0  0  0  0  0  0  0  0  0
   42.1240   27.0670   34.7830 H   0  0  0  0  0  0  0  0  0  0  0  0
   41.1980   28.2510   32.7960 H   0  0  0  0  0  0  0  0  0  0  0  0
   40.6150   27.2590   29.9280 F   0  0  0  0  0  0  0  0  0  0  0  0
   39.3580   27.6650   30.1910 C   0  0  0  0  0  0  0  0  0  0  0  0
   38.8770   27.5150   31.4570 C   0  0  0  0  0  0  0  0  0  0  0  0
   37.5790   27.9720   31.5860 C   0  0  0  0  0  0  0  0  0  0  0  0
   37.0420   27.9250   32.5400 H   0  0  0  0  0  0  0  0  0  0  0  0
   36.8490   28.5190   30.5520 C   0  0  0  0  0  0  0  0  0  0  0  0
   35.8370   28.8630   30.6980 H   0  0  0  0  0  0  0  0  0  0  0  0
   37.3980   28.6410   29.2950 C   0  0  0  0  0  3  0  0  0  0  0  0
   38.6920   28.2000   29.1100 C   0  0  0  0  0  3  0  0  0  0  0  0
  1  2  1  0  0  0  0
  2  3  2  0  0  0  0
  2 13  1  0  0  0  0
  3 14  1  0  0  0  0
  4 15  1  0  0  0  0
  4  3  1  0  0  0  0
  5  4  2  0  0  0  0
  6  5  1  0  0  0  0
  6  1  2  0  0  0  0
  7  8  1  0  0  0  0
  7  5  1  0  0  0  0
  8 16  1  0  0  0  0
  8 17  1  0  0  0  0
  9 18  1  0  0  0  0
  9  8  1  0  0  0  0
 10 21  1  0  0  0  0
 10  9  1  0  0  0  0
 11 22  1  0  0  0  0
 11 10  1  0  0  0  0
 11 12  1  0  0  0  0
 12  7  1  0  0  0  0
 19  9  1  0  0  0  0
 20 10  1  0  0  0  0
 23 11  1  0  0  0  0
 24 12  1  0  0  0  0
 25 12  1  0  0  0  0
 26 32  1  0  0  0  0
 26 31  1  0  0  0  0
 27 26  2  0  0  0  0
 28 29  2  0  0  0  0
 28 27  1  0  0  0  0
 29 30  1  0  0  0  0
 30  1  1  0  0  0  0
 30 31  2  0  0  0  0
 33 27  1  0  0  0  0
 34 35  1  0  0  0  0
 35 36  1  0  0  0  0
 36 37  2  0  0  0  0
 36 28  1  0  0  0  0
 37 38  1  0  0  0  0
 39 40  1  0  0  0  0
 39 37  1  0  0  0  0
 41 39  2  0  0  0  0
 42 41  1  0  0  0  0
 42 35  2  0  0  0  0
M  END
>  <minimizedAffinity>
-6.11696434

$$$$

 OpenBabel03272502573D

 42 45  0  0  0  0  0  0  0  0999 V2000
   37.7830   25.8390   32.8360 C   0  0  0  0  0  0  0  0  0  0  0  0
   38.4420   25.9400   31.6070 C   0  0  0  0  0  0  0  0  0  0  0  0
   38.3600   27.0840   30.8410 C   0  0  0  0  0  0  0  0  0  0  0  0
   37.5880   28.1070   31.3750 C   0  0  0  0  0  0  0  0  0  0  0  0
   36.9330   28.0230   32.5820 C   0  0  0  0  0  0  0  0  0  0  0  0
   37.0550   26.8680   33.2870 N   0  0  0  0  0  0  0  0  0  0  0  0
   36.1740   29.1240   33.0280 N   0  0  0  0  0  0  0  0  0  0  0  0
   35.8410   30.1520   32.0700 C   0  0  0  0  0  0  0  0  0  0  0  0
   35.1420   31.2630   32.8380 C   0  0  0  0  0  0  0  0  0  0  0  0
   33.9100   30.7220   33.5230 C   0  0  0  0  0  0  0  0  0  0  0  0
   34.2080   29.5100   34.3450 C   0  0  0  0  0  0  0  0  0  0  0  0
   35.7100   29.2880   34.3870 C   0  0  0  0  0  0  0  0  0  0  0  0
   39.0150   25.1140   31.2650 H   0  0  0  0  0  0  0  0  0  0  0  0
   38.8660   27.1510   29.9020 H   0  0  0  0  0  0  0  0  0  0  0  0
   37.5290   29.0050   30.7630 H   0  0  0  0  0  0  0  0  0  0  0  0
   35.1380   29.7980   31.3040 H   0  0  0  0  0  0  0  0  0  0  0  0
   36.7470   30.6700   31.6460 H   0  0  0  0  0  0  0  0  0  0  0  0
   34.7840   31.9860   32.0700 H   0  0  0  0  0  0  0  0  0  0  0  0
   35.8010   31.7800   33.5330 H   0  0  0  0  0  0  0  0  0  0  0  0
   33.5750   31.5250   34.2220 H   0  0  0  0  0  0  0  0  0  0  0  0
   33.0630   30.5820   32.8150 H   0  0  0  0  0  0  0  0  0  0  0  0
   33.7190   28.6380   33.8310 H   0  0  0  0  0  0  0  0  0  0  0  0
   33.7710   29.5410   35.3650 H   0  0  0  0  0  0  0  0  0  0  0  0
   36.1690   30.2080   34.7830 H   0  0  0  0  0  0  0  0  0  0  0  0
   35.9450   28.3990   35.0100 H   0  0  0  0  0  0  0  0  0  0  0  0
   38.6300   23.3960   35.4360 C   0  0  0  0  0  0  0  0  0  0  0  0
   38.0770   22.2090   34.9090 C   0  0  0  0  0  0  0  0  0  0  0  0
   37.4340   22.2540   33.6990 C   0  0  0  0  0  0  0  0  0  0  0  0
   37.3870   23.4730   33.0980 N   0  0  0  0  0  0  0  0  0  0  0  0
   37.9110   24.6000   33.5950 C   0  0  0  0  0  0  0  0  0  0  0  0
   38.5280   24.5500   34.7600 N   0  0  0  0  0  0  0  0  0  0  0  0
   39.1430   23.3640   36.3990 H   0  0  0  0  0  0  0  0  0  0  0  0
   38.1500   21.2940   35.4290 H   0  0  0  0  0  0  0  0  0  0  0  0
   35.3330   20.5330   34.6780 F   0  0  0  0  0  0  0  0  0  0  0  0
   35.8200   20.3490   33.4350 C   0  0  0  0  0  0  0  0  0  0  0  0
   36.8110   21.1750   32.9960 C   0  0  0  0  0  0  0  0  0  0  0  0
   37.2150   20.8760   31.7080 C   0  0  0  0  0  0  0  0  0  0  0  0
   38.0040   21.4450   31.2030 H   0  0  0  0  0  0  0  0  0  0  0  0
   36.6770   19.8580   30.9500 C   0  0  0  0  0  0  0  0  0  0  0  0
   37.0230   19.6600   29.9470 H   0  0  0  0  0  0  0  0  0  0  0  0
   35.6760   19.0610   31.4570 C   0  0  0  0  0  3  0  0  0  0  0  0
   35.2350   19.3150   32.7380 C   0  0  0  0  0  3  0  0  0  0  0  0
  1  6  1  0  0  0  0
  1 30  1  0  0  0  0
  2  1  2  0  0  0  0
  3  4  2  0  0  0  0
  3  2  1  0  0  0  0
  4  5  1  0  0  0  0
  5  7  1  0  0  0  0
  5  6  2  0  0  0  0
  7 12  1  0  0  0  0
  8  9  1  0  0  0  0
  8  7  1  0  0  0  0
  9 10  1  0  0  0  0
  9 19  1  0  0  0  0
 10 20  1  0  0  0  0
 10 11  1  0  0  0  0
 11 12  1  0  0  0  0
 11 23  1  0  0  0  0
 12 24  1  0  0  0  0
 12 25  1  0  0  0  0
 13  2  1  0  0  0  0
 14  3  1  0  0  0  0
 15  4  1  0  0  0  0
 16  8  1  0  0  0  0
 17  8  1  0  0  0  0
 18  9  1  0  0  0  0
 21 10  1  0  0  0  0
 22 11  1  0  0  0  0
 26 32  1  0  0  0  0
 27 33  1  0  0  0  0
 27 26  1  0  0  0  0
 28 27  2  0  0  0  0
 29 30  2  0  0  0  0
 29 28  1  0  0  0  0
 30 31  1  0  0  0  0
 31 26  2  0  0  0  0
 35 34  1  0  0  0  0
 36 35  1  0  0  0  0
 36 28  1  0  0  0  0
 37 36  2  0  0  0  0
 38 37  1  0  0  0  0
 39 41  2  0  0  0  0
 39 37  1  0  0  0  0
 40 39  1  0  0  0  0
 41 42  1  0  0  0  0
 42 35  2  0  0  0  0
M  END
>  <minimizedAffinity>
-6.05936718

$$$$
