
 OpenBabel03272510273D

 45 49  0  0  1  0  0  0  0  0999 V2000
   39.4440   33.6210   43.4170 O   0  0  0  0  0  0  0  0  0  0  0  0
   36.1900   30.1650   46.9470 C   0  0  0  0  0  0  0  0  0  0  0  0
   37.0280   30.6910   47.9000 C   0  0  0  0  0  0  0  0  0  0  0  0
   38.0340   31.6060   47.5440 C   0  0  0  0  0  0  0  0  0  0  0  0
   38.1380   31.9460   46.2160 C   0  0  0  0  0  0  0  0  0  0  0  0
   39.0220   32.8160   45.6380 N   0  0  0  0  0  0  0  0  0  0  0  0
   38.7260   32.8240   44.3240 C   0  0  0  0  0  0  0  0  0  0  0  0
   37.7200   32.0150   44.0670 N   0  0  0  0  0  0  0  0  0  0  0  0
   37.3130   31.4380   45.2300 C   0  0  0  0  0  0  0  0  0  0  0  0
   36.3220   30.5300   45.6130 C   0  0  0  0  0  0  0  0  0  0  0  0
   35.3990   29.4590   47.1610 H   0  0  0  0  0  0  0  0  0  0  0  0
   38.7110   32.0360   48.2730 H   0  0  0  0  0  0  0  0  0  0  0  0
   39.7740   33.3620   46.1220 H   0  0  0  0  0  0  0  0  0  0  0  0
   35.6780   30.1340   44.8420 H   0  0  0  0  0  0  0  0  0  0  0  0
   37.4200   30.1090   51.5990 C   0  0  0  0  0  0  0  0  0  0  0  0
   37.7390   30.5380   50.3220 C   0  0  0  0  0  0  0  0  0  0  0  0
   36.8660   30.3080   49.2910 C   0  0  0  0  0  0  0  0  0  0  0  0
   35.6950   29.6470   49.5990 N   0  0  0  0  0  0  0  0  0  0  0  0
   35.3830   29.2310   50.8350 C   0  0  0  0  0  0  0  0  0  0  0  0
   36.2340   29.4590   51.8200 N   0  0  0  0  0  0  0  0  0  0  0  0
   38.1280   30.3030   52.3930 H   0  0  0  0  0  0  0  0  0  0  0  0
   38.6490   31.0570   50.0560 H   0  0  0  0  0  0  0  0  0  0  0  0
   34.4540   28.7270   50.9780 H   0  0  0  0  0  0  0  0  0  0  0  0
   39.7610   31.8380   42.0320 N   0  0  0  0  0  0  0  0  0  0  0  0
   39.3340   33.2560   42.0440 C   0  0  1  0  0  0  0  0  0  0  0  0
   37.9690   33.3420   41.5550 C   0  0  0  0  0  0  0  0  0  0  0  0
   37.9570   32.9450   40.2040 O   0  0  0  0  0  0  0  0  0  0  0  0
   38.4720   31.7100   39.9540 C   0  0  0  0  0  0  0  0  0  0  0  0
   39.7960   31.4580   40.6390 C   0  0  2  0  0  0  0  0  0  0  0  0
   40.7570   31.9430   42.3650 H   0  0  0  0  0  0  0  0  0  0  0  0
   40.0030   33.8580   41.4070 H   0  0  0  0  0  0  0  0  0  0  0  0
   37.7110   34.4440   41.4880 H   0  0  0  0  0  0  0  0  0  0  0  0
   37.1270   32.8660   41.9730 H   0  0  0  0  0  0  0  0  0  0  0  0
   37.7690   30.9370   40.3430 H   0  0  0  0  0  0  0  0  0  0  0  0
   38.6190   31.6490   38.8600 H   0  0  0  0  0  0  0  0  0  0  0  0
   40.5770   32.0410   40.0820 H   0  0  0  0  0  0  0  0  0  0  0  0
   42.3490   30.4830   39.8890 F   0  0  0  0  0  0  0  0  0  0  0  0
   41.3440   29.6090   40.0880 C   0  0  0  0  0  0  0  0  0  0  0  0
   40.0580   30.0060   40.4580 C   0  0  0  0  0  0  0  0  0  0  0  0
   39.0950   29.0270   40.6380 C   0  0  0  0  0  0  0  0  0  0  0  0
   38.0850   29.3320   40.9290 H   0  0  0  0  0  0  0  0  0  0  0  0
   39.3460   27.6790   40.4680 C   0  0  0  0  0  0  0  0  0  0  0  0
   38.5930   26.9190   40.6090 H   0  0  0  0  0  0  0  0  0  0  0  0
   40.6410   27.3150   40.0970 C   0  0  0  0  0  3  0  0  0  0  0  0
   41.6120   28.2620   39.9130 C   0  0  0  0  0  3  0  0  0  0  0  0
  1  7  1  0  0  0  0
  2 11  1  0  0  0  0
  2  3  1  0  0  0  0
  3 17  1  0  0  0  0
  4  3  2  0  0  0  0
  4 12  1  0  0  0  0
  5  4  1  0  0  0  0
  6 13  1  0  0  0  0
  6  5  1  0  0  0  0
  7  6  1  0  0  0  0
  8  7  2  0  0  0  0
  8  9  1  0  0  0  0
  9 10  1  0  0  0  0
  9  5  2  0  0  0  0
 10  2  2  0  0  0  0
 14 10  1  0  0  0  0
 15 20  1  0  0  0  0
 15 21  1  0  0  0  0
 16 15  2  0  0  0  0
 17 18  2  0  0  0  0
 17 16  1  0  0  0  0
 18 19  1  0  0  0  0
 19 23  1  0  0  0  0
 19 20  2  0  0  0  0
 22 16  1  0  0  0  0
 24 25  1  0  0  0  0
 24 30  1  0  0  0  0
 25 31  1  6  0  0  0
 25  1  1  0  0  0  0
 26 33  1  0  0  0  0
 26 25  1  0  0  0  0
 27 26  1  0  0  0  0
 28 27  1  0  0  0  0
 28 34  1  0  0  0  0
 28 29  1  0  0  0  0
 29 36  1  6  0  0  0
 29 24  1  0  0  0  0
 32 26  1  0  0  0  0
 35 28  1  0  0  0  0
 37 38  1  0  0  0  0
 38 39  1  0  0  0  0
 39 40  2  0  0  0  0
 39 29  1  0  0  0  0
 40 41  1  0  0  0  0
 42 43  1  0  0  0  0
 42 40  1  0  0  0  0
 44 42  2  0  0  0  0
 45 38  2  0  0  0  0
 45 44  1  0  0  0  0
M  END
>  <minimizedAffinity>
-6.19195652

>  <minimizedRMSD>
0.411264151

$$$$
