
 OpenBabel03272510273D

 45 49  0  0  1  0  0  0  0  0999 V2000
   39.4680   33.5810   43.4480 O   0  0  0  0  0  0  0  0  0  0  0  0
   36.1490   30.1870   46.9780 C   0  0  0  0  0  0  0  0  0  0  0  0
   37.0080   30.6840   47.9280 C   0  0  0  0  0  0  0  0  0  0  0  0
   38.0350   31.5740   47.5720 C   0  0  0  0  0  0  0  0  0  0  0  0
   38.1380   31.9210   46.2450 C   0  0  0  0  0  0  0  0  0  0  0  0
   39.0410   32.7710   45.6660 N   0  0  0  0  0  0  0  0  0  0  0  0
   38.7360   32.7960   44.3550 C   0  0  0  0  0  0  0  0  0  0  0  0
   37.7060   32.0160   44.0990 N   0  0  0  0  0  0  0  0  0  0  0  0
   37.2930   31.4420   45.2620 C   0  0  0  0  0  0  0  0  0  0  0  0
   36.2810   30.5580   45.6460 C   0  0  0  0  0  0  0  0  0  0  0  0
   35.3410   29.5010   47.1930 H   0  0  0  0  0  0  0  0  0  0  0  0
   38.7290   31.9810   48.2980 H   0  0  0  0  0  0  0  0  0  0  0  0
   39.8100   33.2940   46.1480 H   0  0  0  0  0  0  0  0  0  0  0  0
   35.6210   30.1850   44.8760 H   0  0  0  0  0  0  0  0  0  0  0  0
   37.4030   30.0800   51.6230 C   0  0  0  0  0  0  0  0  0  0  0  0
   37.7230   30.5130   50.3480 C   0  0  0  0  0  0  0  0  0  0  0  0
   36.8460   30.2950   49.3170 C   0  0  0  0  0  0  0  0  0  0  0  0
   35.6710   29.6410   49.6240 N   0  0  0  0  0  0  0  0  0  0  0  0
   35.3590   29.2210   50.8590 C   0  0  0  0  0  0  0  0  0  0  0  0
   36.2130   29.4380   51.8430 N   0  0  0  0  0  0  0  0  0  0  0  0
   38.1140   30.2660   52.4170 H   0  0  0  0  0  0  0  0  0  0  0  0
   38.6360   31.0270   50.0820 H   0  0  0  0  0  0  0  0  0  0  0  0
   34.4260   28.7230   51.0020 H   0  0  0  0  0  0  0  0  0  0  0  0
   39.7620   31.7350   42.1430 N   0  0  0  0  0  0  0  0  0  0  0  0
   39.4110   33.1720   42.0840 C   0  0  1  0  0  0  0  0  0  0  0  0
   38.0810   33.3120   41.5180 C   0  0  0  0  0  0  0  0  0  0  0  0
   38.1190   32.8680   40.1830 O   0  0  0  0  0  0  0  0  0  0  0  0
   38.5800   31.5990   40.0030 C   0  0  0  0  0  0  0  0  0  0  0  0
   39.8490   31.3040   40.7670 C   0  0  2  0  0  0  0  0  0  0  0  0
   40.7420   31.8000   42.5260 H   0  0  0  0  0  0  0  0  0  0  0  0
   40.1450   33.7150   41.4650 H   0  0  0  0  0  0  0  0  0  0  0  0
   37.8860   34.4220   41.4010 H   0  0  0  0  0  0  0  0  0  0  0  0
   37.1930   32.8960   41.9050 H   0  0  0  0  0  0  0  0  0  0  0  0
   37.8150   30.8790   40.3770 H   0  0  0  0  0  0  0  0  0  0  0  0
   38.7810   31.4910   38.9210 H   0  0  0  0  0  0  0  0  0  0  0  0
   40.6900   31.8240   40.2340 H   0  0  0  0  0  0  0  0  0  0  0  0
   38.2020   29.4650   42.1580 F   0  0  0  0  0  0  0  0  0  0  0  0
   39.1880   28.9970   41.3670 C   0  0  0  0  0  0  0  0  0  0  0  0
   40.0420   29.8350   40.6490 C   0  0  0  0  0  0  0  0  0  0  0  0
   41.0240   29.2520   39.8640 C   0  0  0  0  0  0  0  0  0  0  0  0
   41.6970   29.9040   39.2980 H   0  0  0  0  0  0  0  0  0  0  0  0
   41.1970   27.8850   39.7590 C   0  0  0  0  0  0  0  0  0  0  0  0
   41.9630   27.4360   39.1470 H   0  0  0  0  0  0  0  0  0  0  0  0
   40.3260   27.0760   40.4900 C   0  0  0  0  0  3  0  0  0  0  0  0
   39.3470   27.6250   41.2740 C   0  0  0  0  0  3  0  0  0  0  0  0
  1  7  1  0  0  0  0
  2 11  1  0  0  0  0
  2  3  1  0  0  0  0
  3 17  1  0  0  0  0
  4  3  2  0  0  0  0
  4 12  1  0  0  0  0
  5  4  1  0  0  0  0
  6 13  1  0  0  0  0
  6  5  1  0  0  0  0
  7  6  1  0  0  0  0
  8  7  2  0  0  0  0
  8  9  1  0  0  0  0
  9 10  1  0  0  0  0
  9  5  2  0  0  0  0
 10  2  2  0  0  0  0
 14 10  1  0  0  0  0
 15 20  1  0  0  0  0
 15 21  1  0  0  0  0
 16 15  2  0  0  0  0
 17 18  2  0  0  0  0
 17 16  1  0  0  0  0
 18 19  1  0  0  0  0
 19 23  1  0  0  0  0
 19 20  2  0  0  0  0
 22 16  1  0  0  0  0
 24 30  1  0  0  0  0
 25 31  1  6  0  0  0
 25 24  1  0  0  0  0
 25  1  1  0  0  0  0
 26 33  1  0  0  0  0
 26 25  1  0  0  0  0
 27 26  1  0  0  0  0
 28 27  1  0  0  0  0
 28 34  1  0  0  0  0
 28 29  1  0  0  0  0
 29 36  1  6  0  0  0
 29 24  1  0  0  0  0
 32 26  1  0  0  0  0
 35 28  1  0  0  0  0
 38 37  1  0  0  0  0
 39 29  1  0  0  0  0
 39 38  2  0  0  0  0
 40 39  1  0  0  0  0
 41 40  1  0  0  0  0
 42 40  2  0  0  0  0
 42 44  1  0  0  0  0
 43 42  1  0  0  0  0
 44 45  2  0  0  0  0
 45 38  1  0  0  0  0
M  END
>  <minimizedAffinity>
-6.12744093

>  <minimizedRMSD>
0.824925423

$$$$
