
     RDKit          3D

 42 46  0  0  0  0  0  0  0  0999 V2000
   35.5490   29.6976   49.8081 C   0  0  0  0  0  0  0  0  0  0  0  0
   36.5387   29.5314   50.7565 C   0  0  0  0  0  0  0  0  0  0  0  0
   37.6667   30.0723   50.1437 C   0  0  0  0  0  0  0  0  0  0  0  0
   37.3250   30.5266   48.8958 C   0  0  0  0  0  0  0  0  0  0  0  0
   36.0456   30.2853   48.7277 O   0  0  0  0  0  0  0  0  0  0  0  0
   38.6277   32.4598   48.1376 C   0  0  0  0  0  0  0  0  0  0  0  0
   38.2002   31.1626   47.9185 C   0  0  0  0  0  0  0  0  0  0  0  0
   38.5835   30.4501   46.7910 C   0  0  0  0  0  0  0  0  0  0  0  0
   39.4172   31.0344   45.8448 C   0  0  0  0  0  0  0  0  0  0  0  0
   39.9513   30.6200   44.6820 N   0  0  0  0  0  0  0  0  0  0  0  0
   40.6750   31.6236   44.2111 N   0  0  0  0  0  0  0  0  0  0  0  0
   40.6183   32.6853   45.0530 C   0  0  0  0  0  0  0  0  0  0  0  0
   39.8068   32.3310   46.1253 C   0  0  0  0  0  0  0  0  0  0  0  0
   39.4686   33.0875   47.2104 C   0  0  0  0  0  0  0  0  0  0  0  0
   34.1692   29.2833   49.9839 C   0  0  0  0  0  0  0  0  0  0  0  0
   33.5020   29.8300   50.8927 O   0  0  0  0  0  0  0  0  0  0  0  0
   31.6933   27.1515   48.3566 C   0  0  0  0  0  0  0  0  0  0  0  0
   32.4770   26.3574   47.5223 C   0  0  0  0  0  0  0  0  0  0  0  0
   33.8355   26.5347   47.5033 C   0  0  0  0  0  0  0  0  0  0  0  0
   34.3470   27.4859   48.3086 N   0  0  0  0  0  0  0  0  0  0  0  0
   33.5880   28.2559   49.1175 C   0  0  0  0  0  0  0  0  0  0  0  0
   32.2573   28.0818   49.1357 N   0  0  0  0  0  0  0  0  0  0  0  0
   36.4211   29.0869   51.7206 H   0  0  0  0  0  0  0  0  0  0  0  0
   38.6451   30.1163   50.5982 H   0  0  0  0  0  0  0  0  0  0  0  0
   38.3138   32.9970   49.0283 H   0  0  0  0  0  0  0  0  0  0  0  0
   38.2591   29.4379   46.6051 H   0  0  0  0  0  0  0  0  0  0  0  0
   39.7922   29.6669   44.2685 H   0  0  0  0  0  0  0  0  0  0  0  0
   41.1482   33.6119   44.8434 H   0  0  0  0  0  0  0  0  0  0  0  0
   39.8234   34.0801   47.3327 H   0  0  0  0  0  0  0  0  0  0  0  0
   30.6161   27.0655   48.4217 H   0  0  0  0  0  0  0  0  0  0  0  0
   32.0023   25.6139   46.9028 H   0  0  0  0  0  0  0  0  0  0  0  0
   35.8349   24.9807   48.5861 F   0  0  0  0  0  0  0  0  0  0  0  0
   35.7130   24.9808   47.2259 C   0  0  0  0  0  0  0  0  0  0  0  0
   34.7244   25.7470   46.6607 C   0  0  0  0  0  0  0  0  0  0  0  0
   34.6601   25.6994   45.2925 C   0  0  0  0  0  0  0  0  0  0  0  0
   33.9069   26.2770   44.7792 H   0  0  0  0  0  0  0  0  0  0  0  0
   35.5352   24.9305   44.5547 C   0  0  0  0  0  0  0  0  0  0  0  0
   35.4485   24.9218   43.4671 H   0  0  0  0  0  0  0  0  0  0  0  0
   36.5212   24.1684   45.1460 C   0  0  0  0  0  0  0  0  0  0  0  0
   36.6021   24.2031   46.5213 C   0  0  0  0  0  0  0  0  0  0  0  0
   37.1972   23.5732   44.5564 H   0  0  0  0  0  0  0  0  0  0  0  0
   37.3613   23.6223   47.0592 H   0  0  0  0  0  0  0  0  0  0  0  0
  1 15  1  0
  1  2  2  0
  3  2  1  0
  4  3  2  0
  5  4  1  0
  5  1  1  0
  7  6  2  0
  7  4  1  0
  8  7  1  0
  9 13  1  0
  9  8  2  0
 10  9  1  0
 11 10  1  0
 11 12  2  0
 12 13  1  0
 13 14  2  0
 14  6  1  0
 15 16  2  0
 17 22  2  0
 18 17  1  0
 19 18  2  0
 19 20  1  0
 20 21  2  0
 21 22  1  0
 21 15  1  0
  2 23  1  0
  3 24  1  0
  6 25  1  0
  8 26  1  0
 10 27  1  0
 12 28  1  0
 14 29  1  0
 17 30  1  0
 18 31  1  0
 32 33  1  0
 33 34  2  0
 34 35  1  0
 35 36  1  0
 35 37  2  0
 37 38  1  0
 37 39  1  0
 39 40  2  0
 40 33  1  0
 39 41  1  0
 40 42  1  0
 19 34  1  0
M  ISO  8  23  14  24  14  25  14  26  14  27   9  28  14  29  14  30  14
M  ISO  3  31  14  36  15  38  16
M  END
>  <DihAtoms>  (1) 
17,18,33,32

>  <DihDeg>  (1) 
179.99832360185957

$$$$
