
     RDKit          3D

 36 38  0  0  0  0  0  0  0  0999 V2000
   37.0320   31.0432   49.6105 C   0  0  0  0  0  0  0  0  0  0  0  0
   36.4715   29.8661   49.1170 C   0  0  0  0  0  0  0  0  0  0  0  0
   36.3468   28.7550   49.9223 C   0  0  0  0  0  0  0  0  0  0  0  0
   36.7985   28.8663   51.2188 N   0  0  0  0  0  0  0  0  0  0  0  0
   37.3384   30.0122   51.6791 C   0  0  0  0  0  0  0  0  0  0  0  0
   37.4451   31.0598   50.8883 N   0  0  0  0  0  0  0  0  0  0  0  0
   34.6252   29.3844   47.5865 C   0  0  0  0  0  0  0  0  0  0  0  0
   33.6099   29.1332   48.3507 O   0  0  0  0  0  0  0  0  0  0  0  0
   36.0107   29.6475   47.8168 N   0  0  0  0  0  0  0  0  0  0  0  0
   37.0670   32.0228   48.6678 O   0  0  0  0  0  0  0  0  0  0  0  0
   38.9207   32.5474   47.1486 C   0  0  0  0  0  0  0  0  0  0  0  0
   38.1980   32.7196   48.3007 C   0  0  0  0  0  0  0  0  0  0  0  0
   38.5829   33.6689   49.2342 C   0  0  0  0  0  0  0  0  0  0  0  0
   39.7075   34.4491   48.9993 C   0  0  0  0  0  0  0  0  0  0  0  0
   40.4346   34.2671   47.8273 C   0  0  0  0  0  0  0  0  0  0  0  0
   40.0253   33.3141   46.9184 C   0  0  0  0  0  0  0  0  0  0  0  0
   38.0806   30.7510   45.4991 N   0  0  0  0  0  0  0  0  0  0  0  0
   38.4481   31.5434   46.2397 C   0  0  0  0  0  0  0  0  0  0  0  0
   35.9260   27.8043   49.6264 H   0  0  0  0  0  0  0  0  0  0  0  0
   37.6440   29.9550   52.6939 H   0  0  0  0  0  0  0  0  0  0  0  0
   33.7164   29.2381   47.0169 H   0  0  0  0  0  0  0  0  0  0  0  0
   36.2347   29.5670   46.8198 H   0  0  0  0  0  0  0  0  0  0  0  0
   38.0601   33.8574   50.1624 H   0  0  0  0  0  0  0  0  0  0  0  0
   40.0323   35.2006   49.7134 H   0  0  0  0  0  0  0  0  0  0  0  0
   41.3187   34.8392   47.5814 H   0  0  0  0  0  0  0  0  0  0  0  0
   41.5955   31.0331   46.5715 F   0  0  0  0  0  0  0  0  0  0  0  0
   41.4786   31.8835   45.5180 C   0  0  0  0  0  0  0  0  0  0  0  0
   40.7076   33.0286   45.6483 C   0  0  0  0  0  0  0  0  0  0  0  0
   40.6226   33.8570   44.5491 C   0  0  0  0  0  0  0  0  0  0  0  0
   40.0200   34.7448   44.6621 H   0  0  0  0  0  0  0  0  0  0  0  0
   41.2444   33.6181   43.3576 C   0  0  0  0  0  0  0  0  0  0  0  0
   41.1744   34.2737   42.4943 H   0  0  0  0  0  0  0  0  0  0  0  0
   41.9987   32.4596   43.2908 C   0  0  0  0  0  0  0  0  0  0  0  0
   42.1438   31.5622   44.3477 C   0  0  0  0  0  0  0  0  0  0  0  0
   42.5123   32.2223   42.3701 H   0  0  0  0  0  0  0  0  0  0  0  0
   42.7509   30.6766   44.2197 H   0  0  0  0  0  0  0  0  0  0  0  0
  1  6  1  0
  2  1  2  0
  2  3  1  0
  3  4  2  0
  4  5  1  0
  6  5  2  0
  7  9  1  0
  7  8  2  0
  9  2  1  0
 10  1  1  0
 11 12  2  0
 12 10  1  0
 12 13  1  0
 14 13  2  0
 15 14  1  0
 16 11  1  0
 16 15  2  0
 17 18  3  0
 18 11  1  0
  3 19  1  0
  5 20  1  0
  7 21  1  0
  9 22  1  0
 13 23  1  0
 14 24  1  0
 15 25  1  0
 26 27  1  0
 27 28  2  0
 28 29  1  0
 29 30  1  0
 29 31  2  0
 31 32  1  0
 31 33  1  0
 33 34  2  0
 34 27  1  0
 33 35  1  0
 34 36  1  0
 16 28  1  0
M  ISO  8  19  14  20  14  21   6  23  14  24  14  25  14  30  15  32  16
M  END
>  <DihAtoms>  (1) 
10,15,27,26

>  <DihDeg>  (1) 
-89.99927559776776

$$$$
