
 OpenBabel03262522513D

 33 36  0  0  0  0  0  0  0  0999 V2000
   32.8190   27.7180   48.4110 C   0  0  0  0  0  0  0  0  0  0  0  0
   32.8520   26.7740   47.4520 C   0  0  0  0  0  0  0  0  0  0  0  0
   31.6820   26.0800   47.2120 C   0  0  0  0  0  0  0  0  0  0  0  0
   30.5440   26.3270   47.9000 N   0  0  0  0  0  0  0  0  0  0  0  0
   30.6130   27.3080   48.8570 C   0  0  0  0  0  0  0  0  0  0  0  0
   31.7160   28.0250   49.1460 N   0  0  0  0  0  0  0  0  0  0  0  0
   33.7310   26.5330   46.8700 H   0  0  0  0  0  0  0  0  0  0  0  0
   31.5690   25.2990   46.4730 H   0  0  0  0  0  0  0  0  0  0  0  0
   28.8780   29.3350   48.1410 F   0  0  0  0  0  0  0  0  0  0  0  0
   28.5480   28.6090   49.2560 C   0  0  0  0  0  0  0  0  0  0  0  0
   29.4040   27.6010   49.6190 C   0  0  0  0  0  0  0  0  0  0  0  0
   29.0480   26.8850   50.7470 C   0  0  0  0  0  0  0  0  0  0  0  0
   29.6800   26.0760   51.0860 H   0  0  0  0  0  0  0  0  0  0  0  0
   27.8930   27.2080   51.4260 C   0  0  0  0  0  0  0  0  0  0  0  0
   27.5890   26.6560   52.3220 H   0  0  0  0  0  0  0  0  0  0  0  0
   27.0700   28.2320   51.0150 C   0  0  0  0  0  0  0  0  0  0  0  0
   27.3820   28.9880   49.8820 C   0  0  0  0  0  0  0  0  0  0  0  0
   36.0530   30.1590   48.8420 C   0  0  0  0  0  0  0  0  0  0  0  0
   35.9570   29.2260   49.7880 C   0  0  0  0  0  0  0  0  0  0  0  0
   34.9030   28.3390   49.7480 C   0  0  0  0  0  0  0  0  0  0  0  0
   34.0230   28.4930   48.7190 C   0  0  0  0  0  0  0  0  0  0  0  0
   34.7070   29.9110   47.8060 S   0  0  0  0  0  0  0  0  0  0  0  0
   36.7140   29.1670   50.5910 H   0  0  0  0  0  0  0  0  0  0  0  0
   34.7300   27.5400   50.4700 H   0  0  0  0  0  0  0  0  0  0  0  0
   38.0550   33.1500   49.4150 C   0  0  0  0  0  0  0  0  0  0  0  0
   38.9990   33.1230   48.3950 C   0  0  0  0  0  0  0  0  0  0  0  0
   38.9460   32.0560   47.4900 C   0  0  0  0  0  0  0  0  0  0  0  0
   37.9770   31.1030   47.6540 N   0  0  0  0  0  0  0  0  0  0  0  0
   37.0830   31.1980   48.6830 C   0  0  0  0  0  0  0  0  0  0  0  0
   37.1030   32.1920   49.5570 N   0  0  0  0  0  0  0  0  0  0  0  0
   38.0520   33.9440   50.1320 H   0  0  0  0  0  0  0  0  0  0  0  0
   39.7440   33.9030   48.3110 H   0  0  0  0  0  0  0  0  0  0  0  0
   39.6590   31.9870   46.6760 H   0  0  0  0  0  0  0  0  0  0  0  0
  1 21  1  0  0  0  0
  1  6  1  0  0  0  0
  2  1  2  0  0  0  0
  3  2  1  0  0  0  0
  3  4  2  0  0  0  0
  4  5  1  0  0  0  0
  5  6  2  0  0  0  0
  5 11  1  0  0  0  0
  7  2  1  0  0  0  0
  8  3  1  0  0  0  0
  9 10  1  0  0  0  0
 10 11  2  0  0  0  0
 10 17  1  0  0  0  0
 11 12  1  0  0  0  0
 12 13  1  0  0  0  0
 12 14  2  0  0  0  0
 14 15  1  0  0  0  0
 16 14  1  0  0  0  0
 17 16  2  0  0  0  0
 18 19  2  0  0  0  0
 19 23  1  0  0  0  0
 20 19  1  0  0  0  0
 20 24  1  0  0  0  0
 21 20  2  0  0  0  0
 22 21  1  0  0  0  0
 22 18  1  0  0  0  0
 25 30  1  0  0  0  0
 25 31  1  0  0  0  0
 26 25  2  0  0  0  0
 27 28  2  0  0  0  0
 27 26  1  0  0  0  0
 28 29  1  0  0  0  0
 29 18  1  0  0  0  0
 29 30  2  0  0  0  0
 32 26  1  0  0  0  0
 33 27  1  0  0  0  0
M  END
>  <minimizedAffinity>
-7.61467886

>  <minimizedRMSD>
1.14944375

$$$$
