
     RDKit          3D

 27 29  0  0  0  0  0  0  0  0999 V2000
   37.0461   31.1331   49.2615 C   0  0  0  0  0  0  0  0  0  0  0  0
   37.2978   32.4526   49.7149 C   0  0  0  0  0  0  0  0  0  0  0  0
   38.2620   33.1448   48.9890 C   0  0  0  0  0  0  0  0  0  0  0  0
   38.8835   32.5504   47.9313 N   0  0  0  0  0  0  0  0  0  0  0  0
   38.6032   31.2744   47.5343 C   0  0  0  0  0  0  0  0  0  0  0  0
   37.6769   30.5587   48.2055 N   0  0  0  0  0  0  0  0  0  0  0  0
   35.9338   30.4261   50.0135 C   0  0  0  0  0  0  0  0  0  0  0  0
   35.7140   29.0137   49.8307 C   0  0  0  0  0  0  0  0  0  0  0  0
   36.5178   29.4354   51.0392 C   0  0  0  0  0  0  0  0  0  0  0  0
   38.5082   34.1580   49.2779 H   0  0  0  0  0  0  0  0  0  0  0  0
   39.1089   30.8265   46.6929 H   0  0  0  0  0  0  0  0  0  0  0  0
   35.2391   31.1212   50.5507 H   0  0  0  0  0  0  0  0  0  0  0  0
   36.2598   28.4701   49.0172 H   0  0  0  0  0  0  0  0  0  0  0  0
   34.7234   28.5455   50.0214 H   0  0  0  0  0  0  0  0  0  0  0  0
   37.6050   29.2985   51.0444 H   0  0  0  0  0  0  0  0  0  0  0  0
   36.0135   29.3935   52.0107 H   0  0  0  0  0  0  0  0  0  0  0  0
   37.9017   31.6965   52.3456 F   0  0  0  0  0  0  0  0  0  0  0  0
   36.9292   32.6048   52.1163 C   0  0  0  0  0  0  0  0  0  0  0  0
   36.5973   33.0073   50.8395 C   0  0  0  0  0  0  0  0  0  0  0  0
   35.5883   33.9427   50.6936 C   0  0  0  0  0  0  0  0  0  0  0  0
   35.2987   34.2841   49.7054 H   0  0  0  0  0  0  0  0  0  0  0  0
   34.9286   34.4611   51.8045 C   0  0  0  0  0  0  0  0  0  0  0  0
   34.1515   35.1843   51.6557 H   0  0  0  0  0  0  0  0  0  0  0  0
   35.2759   34.0437   53.0912 C   0  0  0  0  0  0  0  0  0  0  0  0
   36.2913   33.1028   53.2322 C   0  0  0  0  0  0  0  0  0  0  0  0
   34.7851   34.4264   53.9565 H   0  0  0  0  0  0  0  0  0  0  0  0
   36.5648   32.7751   54.2327 H   0  0  0  0  0  0  0  0  0  0  0  0
  1  2  1  0
  1  7  1  0
  3  2  2  0
  4  3  1  0
  5  4  2  0
  5  6  1  0
  6  1  2  0
  7  9  1  0
  8  7  1  0
  8  9  1  0
  3 10  1  0
  5 11  1  0
  7 12  1  0
  8 13  1  0
  8 14  1  0
  9 15  1  0
  9 16  1  0
 17 18  1  0
 18 19  2  0
 19 20  1  0
 20 21  1  0
 20 22  2  0
 22 23  1  0
 22 24  1  0
 24 25  2  0
 25 18  1  0
 24 26  1  0
 25 27  1  0
  2 19  1  0
M  ISO  8  10  14  11  14  12  13  13  13  14  13  15  13  16  13  21  15
M  ISO  1  23  16
M  END
>  <DihAtoms>  (1) 
0,1,18,17

>  <DihDeg>  (1) 
89.99749071391862

$$$$
