
 OpenBabel03272508503D

 40 44  0  0  0  0  0  0  0  0999 V2000
   37.5870   26.5360   34.1130 C   0  0  0  0  0  0  0  0  0  0  0  0
   37.5790   27.0910   35.3780 C   0  0  0  0  0  0  0  0  0  0  0  0
   38.5200   26.3300   36.0690 C   0  0  0  0  0  0  0  0  0  0  0  0
   39.0370   25.3810   35.2250 C   0  0  0  0  0  0  0  0  0  0  0  0
   38.4540   25.5340   34.0600 O   0  0  0  0  0  0  0  0  0  0  0  0
   36.9780   27.9110   35.7040 H   0  0  0  0  0  0  0  0  0  0  0  0
   38.7830   26.4810   37.1050 H   0  0  0  0  0  0  0  0  0  0  0  0
   41.2210   24.3490   34.8080 C   0  0  0  0  0  0  0  0  0  0  0  0
   40.0470   24.3780   35.5390 C   0  0  0  0  0  0  0  0  0  0  0  0
   39.8060   23.4760   36.5670 C   0  0  0  0  0  0  0  0  0  0  0  0
   40.7530   22.5100   36.8850 C   0  0  0  0  0  0  0  0  0  0  0  0
   40.8160   21.5230   37.7970 N   0  0  0  0  0  0  0  0  0  0  0  0
   41.9810   20.9160   37.6280 N   0  0  0  0  0  0  0  0  0  0  0  0
   42.6760   21.4970   36.6190 C   0  0  0  0  0  0  0  0  0  0  0  0
   41.9020   22.5360   36.1160 C   0  0  0  0  0  0  0  0  0  0  0  0
   42.2030   23.3920   35.0960 C   0  0  0  0  0  0  0  0  0  0  0  0
   41.3860   25.0650   34.0090 H   0  0  0  0  0  0  0  0  0  0  0  0
   38.8960   23.4850   37.1460 H   0  0  0  0  0  0  0  0  0  0  0  0
   40.0550   21.3150   38.4910 H   0  0  0  0  0  0  0  0  0  0  0  0
   43.6610   21.1410   36.3230 H   0  0  0  0  0  0  0  0  0  0  0  0
   43.1190   23.3290   34.5630 H   0  0  0  0  0  0  0  0  0  0  0  0
   36.7570   26.9940   33.0140 C   0  0  0  0  0  0  0  0  0  0  0  0
   36.4020   26.1540   32.1550 O   0  0  0  0  0  0  0  0  0  0  0  0
   36.3210   30.3730   31.7040 C   0  0  0  0  0  0  0  0  0  0  0  0
   35.6250   31.0100   32.7300 C   0  0  0  0  0  0  0  0  0  0  0  0
   35.3010   30.3080   33.8620 C   0  0  0  0  0  0  0  0  0  0  0  0
   35.6820   29.0170   33.9190 N   0  0  0  0  0  0  0  0  0  0  0  0
   36.3550   28.3990   32.9260 C   0  0  0  0  0  0  0  0  0  0  0  0
   36.6730   29.0870   31.8170 N   0  0  0  0  0  0  0  0  0  0  0  0
   36.6090   30.8650   30.7840 H   0  0  0  0  0  0  0  0  0  0  0  0
   35.3520   32.0460   32.6180 H   0  0  0  0  0  0  0  0  0  0  0  0
   36.6250   31.5420   35.9380 F   0  0  0  0  0  0  0  0  0  0  0  0
   35.2610   31.5080   36.0010 C   0  0  0  0  0  0  0  0  0  0  0  0
   34.5780   30.8990   34.9780 C   0  0  0  0  0  0  0  0  0  0  0  0
   33.2130   30.9030   35.1050 C   0  0  0  0  0  0  0  0  0  0  0  0
   32.6100   30.4410   34.3380 H   0  0  0  0  0  0  0  0  0  0  0  0
   32.5900   31.4820   36.1900 C   0  0  0  0  0  0  0  0  0  0  0  0
   31.5000   31.4630   36.2520 H   0  0  0  0  0  0  0  0  0  0  0  0
   33.2990   32.0890   37.2060 C   0  0  0  0  0  3  0  0  0  0  0  0
   34.6730   32.0950   37.0970 C   0  0  0  0  0  3  0  0  0  0  0  0
  1  2  2  0  0  0  0
  2  6  1  0  0  0  0
  2  3  1  0  0  0  0
  3  7  1  0  0  0  0
  4  9  1  0  0  0  0
  4  3  2  0  0  0  0
  5  1  1  0  0  0  0
  5  4  1  0  0  0  0
  8 16  2  0  0  0  0
  8  9  1  0  0  0  0
  9 10  2  0  0  0  0
 10 11  1  0  0  0  0
 10 18  1  0  0  0  0
 11 12  1  0  0  0  0
 12 19  1  0  0  0  0
 13 12  1  0  0  0  0
 14 13  2  0  0  0  0
 15 14  1  0  0  0  0
 15 11  2  0  0  0  0
 16 15  1  0  0  0  0
 17  8  1  0  0  0  0
 20 14  1  0  0  0  0
 21 16  1  0  0  0  0
 22  1  1  0  0  0  0
 23 22  2  0  0  0  0
 24 29  2  0  0  0  0
 24 25  1  0  0  0  0
 25 26  2  0  0  0  0
 26 27  1  0  0  0  0
 26 34  1  0  0  0  0
 28 22  1  0  0  0  0
 28 27  2  0  0  0  0
 29 28  1  0  0  0  0
 30 24  1  0  0  0  0
 31 25  1  0  0  0  0
 32 33  1  0  0  0  0
 33 40  1  0  0  0  0
 34 35  1  0  0  0  0
 34 33  2  0  0  0  0
 35 37  2  0  0  0  0
 36 35  1  0  0  0  0
 37 38  1  0  0  0  0
 37 39  1  0  0  0  0
 40 39  2  0  0  0  0
M  END
>  <minimizedAffinity>
-7.41783762

$$$$

 OpenBabel03272508503D

 40 44  0  0  0  0  0  0  0  0999 V2000
   36.5840   25.9250   32.2580 C   0  0  0  0  0  0  0  0  0  0  0  0
   35.5100   26.0270   31.3960 C   0  0  0  0  0  0  0  0  0  0  0  0
   35.2630   24.7050   31.0300 C   0  0  0  0  0  0  0  0  0  0  0  0
   36.1650   23.8890   31.6640 C   0  0  0  0  0  0  0  0  0  0  0  0
   36.9430   24.6550   32.3910 O   0  0  0  0  0  0  0  0  0  0  0  0
   35.0160   26.9280   31.1070 H   0  0  0  0  0  0  0  0  0  0  0  0
   34.4810   24.3960   30.3550 H   0  0  0  0  0  0  0  0  0  0  0  0
   37.3680   21.8760   30.9480 C   0  0  0  0  0  0  0  0  0  0  0  0
   36.2640   22.4380   31.5630 C   0  0  0  0  0  0  0  0  0  0  0  0
   35.2450   21.6540   32.0890 C   0  0  0  0  0  0  0  0  0  0  0  0
   35.3150   20.2690   32.0050 C   0  0  0  0  0  0  0  0  0  0  0  0
   34.5160   19.2630   32.4050 N   0  0  0  0  0  0  0  0  0  0  0  0
   35.1090   18.1340   32.0470 N   0  0  0  0  0  0  0  0  0  0  0  0
   36.2830   18.3940   31.4200 C   0  0  0  0  0  0  0  0  0  0  0  0
   36.4440   19.7740   31.3780 C   0  0  0  0  0  0  0  0  0  0  0  0
   37.4790   20.4840   30.8420 C   0  0  0  0  0  0  0  0  0  0  0  0
   38.1510   22.5110   30.5440 H   0  0  0  0  0  0  0  0  0  0  0  0
   34.3780   22.0760   32.5720 H   0  0  0  0  0  0  0  0  0  0  0  0
   33.6020   19.4020   32.9040 H   0  0  0  0  0  0  0  0  0  0  0  0
   36.9220   17.5950   31.0480 H   0  0  0  0  0  0  0  0  0  0  0  0
   38.3060   20.0060   30.3780 H   0  0  0  0  0  0  0  0  0  0  0  0
   37.2170   27.0550   32.9130 C   0  0  0  0  0  0  0  0  0  0  0  0
   38.2840   26.8500   33.5390 O   0  0  0  0  0  0  0  0  0  0  0  0
   36.2310   30.3130   31.5970 C   0  0  0  0  0  0  0  0  0  0  0  0
   35.5170   30.8660   32.6580 C   0  0  0  0  0  0  0  0  0  0  0  0
   35.3650   30.1480   33.8160 C   0  0  0  0  0  0  0  0  0  0  0  0
   35.9260   28.9240   33.8630 N   0  0  0  0  0  0  0  0  0  0  0  0
   36.6170   28.3880   32.8350 C   0  0  0  0  0  0  0  0  0  0  0  0
   36.7660   29.0910   31.7020 N   0  0  0  0  0  0  0  0  0  0  0  0
   36.3900   30.8220   30.6550 H   0  0  0  0  0  0  0  0  0  0  0  0
   35.0940   31.8520   32.5520 H   0  0  0  0  0  0  0  0  0  0  0  0
   36.5770   31.7690   35.6840 F   0  0  0  0  0  0  0  0  0  0  0  0
   35.2620   31.4600   35.8860 C   0  0  0  0  0  0  0  0  0  0  0  0
   34.6350   30.6540   34.9690 C   0  0  0  0  0  0  0  0  0  0  0  0
   33.3170   30.3870   35.2340 C   0  0  0  0  0  0  0  0  0  0  0  0
   32.7580   29.7590   34.5550 H   0  0  0  0  0  0  0  0  0  0  0  0
   32.6840   30.9000   36.3470 C   0  0  0  0  0  0  0  0  0  0  0  0
   31.6340   30.6620   36.5200 H   0  0  0  0  0  0  0  0  0  0  0  0
   33.3370   31.7080   37.2540 C   0  0  0  0  0  3  0  0  0  0  0  0
   34.6630   31.9890   37.0060 C   0  0  0  0  0  3  0  0  0  0  0  0
  1  5  1  0  0  0  0
  1 22  1  0  0  0  0
  2  1  2  0  0  0  0
  3  2  1  0  0  0  0
  3  4  2  0  0  0  0
  4  5  1  0  0  0  0
  6  2  1  0  0  0  0
  7  3  1  0  0  0  0
  8  9  1  0  0  0  0
  9  4  1  0  0  0  0
  9 10  2  0  0  0  0
 10 18  1  0  0  0  0
 11 10  1  0  0  0  0
 11 12  1  0  0  0  0
 12 19  1  0  0  0  0
 13 12  1  0  0  0  0
 14 13  2  0  0  0  0
 15 14  1  0  0  0  0
 15 11  2  0  0  0  0
 16  8  2  0  0  0  0
 16 15  1  0  0  0  0
 17  8  1  0  0  0  0
 20 14  1  0  0  0  0
 21 16  1  0  0  0  0
 22 23  2  0  0  0  0
 24 29  2  0  0  0  0
 24 25  1  0  0  0  0
 25 26  2  0  0  0  0
 26 27  1  0  0  0  0
 26 34  1  0  0  0  0
 28 22  1  0  0  0  0
 28 27  2  0  0  0  0
 29 28  1  0  0  0  0
 30 24  1  0  0  0  0
 31 25  1  0  0  0  0
 32 33  1  0  0  0  0
 33 40  1  0  0  0  0
 34 35  1  0  0  0  0
 34 33  2  0  0  0  0
 35 37  2  0  0  0  0
 36 35  1  0  0  0  0
 37 38  1  0  0  0  0
 37 39  1  0  0  0  0
 40 39  2  0  0  0  0
M  END
>  <minimizedAffinity>
-7.25845671

$$$$

 OpenBabel03272508503D

 40 44  0  0  0  0  0  0  0  0999 V2000
   36.5230   25.9720   31.9490 C   0  0  0  0  0  0  0  0  0  0  0  0
   35.3770   25.9490   31.1790 C   0  0  0  0  0  0  0  0  0  0  0  0
   35.1350   24.5880   31.0010 C   0  0  0  0  0  0  0  0  0  0  0  0
   36.1100   23.8710   31.6470 C   0  0  0  0  0  0  0  0  0  0  0  0
   36.9270   24.7350   32.2040 O   0  0  0  0  0  0  0  0  0  0  0  0
   34.8360   26.7990   30.8270 H   0  0  0  0  0  0  0  0  0  0  0  0
   34.3070   24.1850   30.4400 H   0  0  0  0  0  0  0  0  0  0  0  0
   37.4910   21.8470   31.6010 C   0  0  0  0  0  0  0  0  0  0  0  0
   36.2380   22.4210   31.7160 C   0  0  0  0  0  0  0  0  0  0  0  0
   35.0980   21.6500   31.8980 C   0  0  0  0  0  0  0  0  0  0  0  0
   35.1940   20.2660   31.9670 C   0  0  0  0  0  0  0  0  0  0  0  0
   34.3030   19.2710   32.1300 N   0  0  0  0  0  0  0  0  0  0  0  0
   34.9860   18.1360   32.1150 N   0  0  0  0  0  0  0  0  0  0  0  0
   36.3090   18.3810   31.9430 C   0  0  0  0  0  0  0  0  0  0  0  0
   36.4740   19.7580   31.8440 C   0  0  0  0  0  0  0  0  0  0  0  0
   37.6340   20.4550   31.6650 C   0  0  0  0  0  0  0  0  0  0  0  0
   38.3690   22.4710   31.4600 H   0  0  0  0  0  0  0  0  0  0  0  0
   34.1130   22.0820   31.9890 H   0  0  0  0  0  0  0  0  0  0  0  0
   33.2700   19.4200   32.2450 H   0  0  0  0  0  0  0  0  0  0  0  0
   37.0400   17.5760   31.9030 H   0  0  0  0  0  0  0  0  0  0  0  0
   38.5730   19.9680   31.5810 H   0  0  0  0  0  0  0  0  0  0  0  0
   37.1800   27.1840   32.4030 C   0  0  0  0  0  0  0  0  0  0  0  0
   38.3580   27.0950   32.8190 O   0  0  0  0  0  0  0  0  0  0  0  0
   35.6610   30.2430   31.1130 C   0  0  0  0  0  0  0  0  0  0  0  0
   35.1680   30.8480   32.2680 C   0  0  0  0  0  0  0  0  0  0  0  0
   35.3440   30.2320   33.4800 C   0  0  0  0  0  0  0  0  0  0  0  0
   35.9970   29.0540   33.4860 N   0  0  0  0  0  0  0  0  0  0  0  0
   36.4730   28.4660   32.3680 C   0  0  0  0  0  0  0  0  0  0  0  0
   36.3010   29.0690   31.1810 N   0  0  0  0  0  0  0  0  0  0  0  0
   35.5570   30.6710   30.1240 H   0  0  0  0  0  0  0  0  0  0  0  0
   34.6560   31.7930   32.1900 H   0  0  0  0  0  0  0  0  0  0  0  0
   32.7800   29.7660   34.3710 F   0  0  0  0  0  0  0  0  0  0  0  0
   33.5790   30.5510   35.1530 C   0  0  0  0  0  0  0  0  0  0  0  0
   34.8610   30.7980   34.7310 C   0  0  0  0  0  0  0  0  0  0  0  0
   35.6060   31.5930   35.5630 C   0  0  0  0  0  0  0  0  0  0  0  0
   36.6250   31.8300   35.2960 H   0  0  0  0  0  0  0  0  0  0  0  0
   35.0860   32.0970   36.7370 C   0  0  0  0  0  0  0  0  0  0  0  0
   35.7130   32.7250   37.3710 H   0  0  0  0  0  0  0  0  0  0  0  0
   33.7930   31.8340   37.1400 C   0  0  0  0  0  3  0  0  0  0  0  0
   33.0280   31.0370   36.3150 C   0  0  0  0  0  3  0  0  0  0  0  0
  1  5  1  0  0  0  0
  1 22  1  0  0  0  0
  2  1  2  0  0  0  0
  3  2  1  0  0  0  0
  3  4  2  0  0  0  0
  4  9  1  0  0  0  0
  4  5  1  0  0  0  0
  6  2  1  0  0  0  0
  7  3  1  0  0  0  0
  8 16  2  0  0  0  0
  8  9  1  0  0  0  0
  9 10  2  0  0  0  0
 10 11  1  0  0  0  0
 10 18  1  0  0  0  0
 11 12  1  0  0  0  0
 12 19  1  0  0  0  0
 13 12  1  0  0  0  0
 14 13  2  0  0  0  0
 15 14  1  0  0  0  0
 15 11  2  0  0  0  0
 16 15  1  0  0  0  0
 17  8  1  0  0  0  0
 20 14  1  0  0  0  0
 21 16  1  0  0  0  0
 22 23  2  0  0  0  0
 24 29  2  0  0  0  0
 24 25  1  0  0  0  0
 25 26  2  0  0  0  0
 26 27  1  0  0  0  0
 26 34  1  0  0  0  0
 28 22  1  0  0  0  0
 28 27  2  0  0  0  0
 29 28  1  0  0  0  0
 30 24  1  0  0  0  0
 31 25  1  0  0  0  0
 32 33  1  0  0  0  0
 33 40  1  0  0  0  0
 34 33  2  0  0  0  0
 34 35  1  0  0  0  0
 35 37  2  0  0  0  0
 36 35  1  0  0  0  0
 37 39  1  0  0  0  0
 37 38  1  0  0  0  0
 40 39  2  0  0  0  0
M  END
>  <minimizedAffinity>
-7.19346333

$$$$

 OpenBabel03272508503D

 40 44  0  0  0  0  0  0  0  0999 V2000
   37.3360   27.8600   32.3170 C   0  0  0  0  0  0  0  0  0  0  0  0
   36.7790   28.5370   31.2490 C   0  0  0  0  0  0  0  0  0  0  0  0
   35.8430   29.3740   31.8520 C   0  0  0  0  0  0  0  0  0  0  0  0
   35.8710   29.1760   33.2090 C   0  0  0  0  0  0  0  0  0  0  0  0
   36.7790   28.2590   33.4520 O   0  0  0  0  0  0  0  0  0  0  0  0
   37.0380   28.4160   30.2200 H   0  0  0  0  0  0  0  0  0  0  0  0
   35.2070   30.0620   31.3170 H   0  0  0  0  0  0  0  0  0  0  0  0
   33.7130   29.5270   34.3170 C   0  0  0  0  0  0  0  0  0  0  0  0
   35.0560   29.8440   34.2150 C   0  0  0  0  0  0  0  0  0  0  0  0
   35.6470   30.7850   35.0480 C   0  0  0  0  0  0  0  0  0  0  0  0
   34.8910   31.4360   36.0150 C   0  0  0  0  0  0  0  0  0  0  0  0
   35.1610   32.3680   36.9460 N   0  0  0  0  0  0  0  0  0  0  0  0
   34.0290   32.6090   37.5900 N   0  0  0  0  0  0  0  0  0  0  0  0
   33.0270   31.8460   37.0880 C   0  0  0  0  0  0  0  0  0  0  0  0
   33.5580   31.0720   36.0630 C   0  0  0  0  0  0  0  0  0  0  0  0
   32.9140   30.1590   35.2780 C   0  0  0  0  0  0  0  0  0  0  0  0
   33.2740   28.7880   33.6540 H   0  0  0  0  0  0  0  0  0  0  0  0
   36.6920   31.0440   34.9820 H   0  0  0  0  0  0  0  0  0  0  0  0
   36.1100   32.7930   37.0940 H   0  0  0  0  0  0  0  0  0  0  0  0
   32.0140   31.8970   37.4840 H   0  0  0  0  0  0  0  0  0  0  0  0
   31.8800   29.9500   35.3950 H   0  0  0  0  0  0  0  0  0  0  0  0
   38.3790   26.8570   32.1950 C   0  0  0  0  0  0  0  0  0  0  0  0
   39.4390   27.1790   31.6090 O   0  0  0  0  0  0  0  0  0  0  0  0
   37.6040   23.2950   32.3880 C   0  0  0  0  0  0  0  0  0  0  0  0
   37.8100   23.0120   33.7370 C   0  0  0  0  0  0  0  0  0  0  0  0
   38.2080   24.0140   34.5840 C   0  0  0  0  0  0  0  0  0  0  0  0
   38.3810   25.2400   34.0530 N   0  0  0  0  0  0  0  0  0  0  0  0
   38.1840   25.5150   32.7460 C   0  0  0  0  0  0  0  0  0  0  0  0
   37.7930   24.5340   31.9170 N   0  0  0  0  0  0  0  0  0  0  0  0
   37.2910   22.5540   31.6640 H   0  0  0  0  0  0  0  0  0  0  0  0
   37.6520   22.0080   34.0950 H   0  0  0  0  0  0  0  0  0  0  0  0
   40.4190   22.6380   35.4830 F   0  0  0  0  0  0  0  0  0  0  0  0
   39.5530   23.1120   36.4270 C   0  0  0  0  0  0  0  0  0  0  0  0
   38.4430   23.8010   36.0040 C   0  0  0  0  0  0  0  0  0  0  0  0
   37.6190   24.2460   37.0040 C   0  0  0  0  0  0  0  0  0  0  0  0
   36.7260   24.7970   36.7470 H   0  0  0  0  0  0  0  0  0  0  0  0
   37.9010   24.0100   38.3330 C   0  0  0  0  0  0  0  0  0  0  0  0
   37.2170   24.3830   39.0980 H   0  0  0  0  0  0  0  0  0  0  0  0
   39.0230   23.3150   38.7330 C   0  0  0  0  0  3  0  0  0  0  0  0
   39.8650   22.8570   37.7420 C   0  0  0  0  0  3  0  0  0  0  0  0
  1  5  1  0  0  0  0
  2  3  1  0  0  0  0
  2  1  2  0  0  0  0
  3  4  2  0  0  0  0
  4  5  1  0  0  0  0
  4  9  1  0  0  0  0
  6  2  1  0  0  0  0
  7  3  1  0  0  0  0
  8 16  1  0  0  0  0
  9  8  2  0  0  0  0
  9 10  1  0  0  0  0
 10 11  2  0  0  0  0
 11 15  1  0  0  0  0
 11 12  1  0  0  0  0
 12 19  1  0  0  0  0
 12 13  1  0  0  0  0
 14 20  1  0  0  0  0
 14 13  2  0  0  0  0
 15 14  1  0  0  0  0
 16 21  1  0  0  0  0
 16 15  2  0  0  0  0
 17  8  1  0  0  0  0
 18 10  1  0  0  0  0
 22  1  1  0  0  0  0
 22 28  1  0  0  0  0
 23 22  2  0  0  0  0
 24 25  1  0  0  0  0
 25 31  1  0  0  0  0
 25 26  2  0  0  0  0
 26 34  1  0  0  0  0
 27 26  1  0  0  0  0
 28 27  2  0  0  0  0
 29 24  2  0  0  0  0
 29 28  1  0  0  0  0
 30 24  1  0  0  0  0
 32 33  1  0  0  0  0
 33 40  1  0  0  0  0
 34 33  2  0  0  0  0
 34 35  1  0  0  0  0
 35 37  2  0  0  0  0
 36 35  1  0  0  0  0
 37 39  1  0  0  0  0
 37 38  1  0  0  0  0
 40 39  2  0  0  0  0
M  END
>  <minimizedAffinity>
-7.18147516

$$$$

 OpenBabel03272508503D

 40 44  0  0  0  0  0  0  0  0999 V2000
   37.1720   28.0890   31.8670 C   0  0  0  0  0  0  0  0  0  0  0  0
   36.5970   28.8540   30.8700 C   0  0  0  0  0  0  0  0  0  0  0  0
   35.6890   29.6530   31.5610 C   0  0  0  0  0  0  0  0  0  0  0  0
   35.7510   29.3510   32.8970 C   0  0  0  0  0  0  0  0  0  0  0  0
   36.6510   28.4070   33.0440 O   0  0  0  0  0  0  0  0  0  0  0  0
   36.8270   28.8090   29.8280 H   0  0  0  0  0  0  0  0  0  0  0  0
   35.0500   30.3890   31.0980 H   0  0  0  0  0  0  0  0  0  0  0  0
   33.6250   29.6520   34.0810 C   0  0  0  0  0  0  0  0  0  0  0  0
   34.9720   29.9500   33.9740 C   0  0  0  0  0  0  0  0  0  0  0  0
   35.6020   30.8050   34.8680 C   0  0  0  0  0  0  0  0  0  0  0  0
   34.8810   31.3890   35.9020 C   0  0  0  0  0  0  0  0  0  0  0  0
   35.1910   32.2350   36.9010 N   0  0  0  0  0  0  0  0  0  0  0  0
   34.0790   32.4450   37.5880 N   0  0  0  0  0  0  0  0  0  0  0  0
   33.0500   31.7460   37.0490 C   0  0  0  0  0  0  0  0  0  0  0  0
   33.5410   31.0500   35.9510 C   0  0  0  0  0  0  0  0  0  0  0  0
   32.8610   30.2180   35.1090 C   0  0  0  0  0  0  0  0  0  0  0  0
   33.1550   28.9800   33.3690 H   0  0  0  0  0  0  0  0  0  0  0  0
   36.6510   31.0480   34.7990 H   0  0  0  0  0  0  0  0  0  0  0  0
   36.1530   32.6270   37.0620 H   0  0  0  0  0  0  0  0  0  0  0  0
   32.0470   31.7850   37.4710 H   0  0  0  0  0  0  0  0  0  0  0  0
   31.8250   30.0220   35.2320 H   0  0  0  0  0  0  0  0  0  0  0  0
   38.1970   27.0860   31.6400 C   0  0  0  0  0  0  0  0  0  0  0  0
   38.2010   26.4890   30.5380 O   0  0  0  0  0  0  0  0  0  0  0  0
   41.3300   27.1160   33.5120 C   0  0  0  0  0  0  0  0  0  0  0  0
   41.0530   26.2670   34.5820 C   0  0  0  0  0  0  0  0  0  0  0  0
   39.8170   25.6840   34.6780 C   0  0  0  0  0  0  0  0  0  0  0  0
   38.9210   25.9700   33.7120 N   0  0  0  0  0  0  0  0  0  0  0  0
   39.1880   26.7920   32.6760 C   0  0  0  0  0  0  0  0  0  0  0  0
   40.3990   27.3640   32.5820 N   0  0  0  0  0  0  0  0  0  0  0  0
   42.2830   27.6110   33.3740 H   0  0  0  0  0  0  0  0  0  0  0  0
   41.8170   26.0820   35.3190 H   0  0  0  0  0  0  0  0  0  0  0  0
   37.7810   26.3030   36.4270 F   0  0  0  0  0  0  0  0  0  0  0  0
   38.4310   25.1180   36.6210 C   0  0  0  0  0  0  0  0  0  0  0  0
   39.4490   24.7860   35.7620 C   0  0  0  0  0  0  0  0  0  0  0  0
   40.0560   23.5830   36.0160 C   0  0  0  0  0  0  0  0  0  0  0  0
   40.8660   23.2560   35.3810 H   0  0  0  0  0  0  0  0  0  0  0  0
   39.6580   22.7790   37.0620 C   0  0  0  0  0  0  0  0  0  0  0  0
   40.1680   21.8290   37.2290 H   0  0  0  0  0  0  0  0  0  0  0  0
   38.6300   23.1340   37.9120 C   0  0  0  0  0  3  0  0  0  0  0  0
   38.0070   24.3410   37.6740 C   0  0  0  0  0  3  0  0  0  0  0  0
  1  5  1  0  0  0  0
  2  3  1  0  0  0  0
  2  1  2  0  0  0  0
  3  4  2  0  0  0  0
  4  5  1  0  0  0  0
  4  9  1  0  0  0  0
  6  2  1  0  0  0  0
  7  3  1  0  0  0  0
  8 16  1  0  0  0  0
  9  8  2  0  0  0  0
  9 10  1  0  0  0  0
 10 11  2  0  0  0  0
 11 15  1  0  0  0  0
 11 12  1  0  0  0  0
 12 19  1  0  0  0  0
 12 13  1  0  0  0  0
 14 20  1  0  0  0  0
 14 13  2  0  0  0  0
 15 14  1  0  0  0  0
 16 21  1  0  0  0  0
 16 15  2  0  0  0  0
 17  8  1  0  0  0  0
 18 10  1  0  0  0  0
 22  1  1  0  0  0  0
 22 28  1  0  0  0  0
 23 22  2  0  0  0  0
 24 25  1  0  0  0  0
 25 26  2  0  0  0  0
 25 31  1  0  0  0  0
 26 34  1  0  0  0  0
 27 26  1  0  0  0  0
 28 27  2  0  0  0  0
 29 28  1  0  0  0  0
 29 24  2  0  0  0  0
 30 24  1  0  0  0  0
 32 33  1  0  0  0  0
 33 40  1  0  0  0  0
 34 35  1  0  0  0  0
 34 33  2  0  0  0  0
 35 37  2  0  0  0  0
 36 35  1  0  0  0  0
 37 38  1  0  0  0  0
 37 39  1  0  0  0  0
 40 39  2  0  0  0  0
M  END
>  <minimizedAffinity>
-6.93505669

$$$$

 OpenBabel03272508503D

 40 44  0  0  0  0  0  0  0  0999 V2000
   36.6250   27.7110   32.5160 C   0  0  0  0  0  0  0  0  0  0  0  0
   37.3930   27.3820   33.6160 C   0  0  0  0  0  0  0  0  0  0  0  0
   36.8400   28.1530   34.6370 C   0  0  0  0  0  0  0  0  0  0  0  0
   35.7990   28.8880   34.1300 C   0  0  0  0  0  0  0  0  0  0  0  0
   35.6990   28.5980   32.8540 O   0  0  0  0  0  0  0  0  0  0  0  0
   38.2090   26.6930   33.6340 H   0  0  0  0  0  0  0  0  0  0  0  0
   37.1900   28.1550   35.6570 H   0  0  0  0  0  0  0  0  0  0  0  0
   33.5770   29.7770   34.6630 C   0  0  0  0  0  0  0  0  0  0  0  0
   34.9470   29.8240   34.8520 C   0  0  0  0  0  0  0  0  0  0  0  0
   35.5310   30.7420   35.7150 C   0  0  0  0  0  0  0  0  0  0  0  0
   34.7410   31.6460   36.4150 C   0  0  0  0  0  0  0  0  0  0  0  0
   34.9960   32.6280   37.2970 N   0  0  0  0  0  0  0  0  0  0  0  0
   33.8300   33.1580   37.6320 N   0  0  0  0  0  0  0  0  0  0  0  0
   32.8200   32.5330   36.9780 C   0  0  0  0  0  0  0  0  0  0  0  0
   33.3820   31.5440   36.1790 C   0  0  0  0  0  0  0  0  0  0  0  0
   32.7430   30.6690   35.3490 C   0  0  0  0  0  0  0  0  0  0  0  0
   33.1440   29.0490   33.9840 H   0  0  0  0  0  0  0  0  0  0  0  0
   36.5970   30.7930   35.8730 H   0  0  0  0  0  0  0  0  0  0  0  0
   35.9600   32.8870   37.6260 H   0  0  0  0  0  0  0  0  0  0  0  0
   31.7800   32.8230   37.1180 H   0  0  0  0  0  0  0  0  0  0  0  0
   31.6880   30.6720   35.2370 H   0  0  0  0  0  0  0  0  0  0  0  0
   36.8190   27.1570   31.1880 C   0  0  0  0  0  0  0  0  0  0  0  0
   36.4850   27.8570   30.2040 O   0  0  0  0  0  0  0  0  0  0  0  0
   39.1050   24.4910   30.1930 C   0  0  0  0  0  0  0  0  0  0  0  0
   38.4760   23.3500   30.6880 C   0  0  0  0  0  0  0  0  0  0  0  0
   37.2860   23.4730   31.3570 C   0  0  0  0  0  0  0  0  0  0  0  0
   36.7810   24.7140   31.4990 N   0  0  0  0  0  0  0  0  0  0  0  0
   37.3900   25.8190   31.0200 C   0  0  0  0  0  0  0  0  0  0  0  0
   38.5560   25.7000   30.3660 N   0  0  0  0  0  0  0  0  0  0  0  0
   40.0450   24.4690   29.6570 H   0  0  0  0  0  0  0  0  0  0  0  0
   38.9370   22.3880   30.5380 H   0  0  0  0  0  0  0  0  0  0  0  0
   37.6540   22.6570   33.9620 F   0  0  0  0  0  0  0  0  0  0  0  0
   36.7680   21.9460   33.2050 C   0  0  0  0  0  0  0  0  0  0  0  0
   36.5660   22.3320   31.9030 C   0  0  0  0  0  0  0  0  0  0  0  0
   35.6640   21.5740   31.2040 C   0  0  0  0  0  0  0  0  0  0  0  0
   35.4540   21.8200   30.1730 H   0  0  0  0  0  0  0  0  0  0  0  0
   35.0150   20.5040   31.7830 C   0  0  0  0  0  0  0  0  0  0  0  0
   34.3030   19.9270   31.1900 H   0  0  0  0  0  0  0  0  0  0  0  0
   35.2340   20.1360   33.0940 C   0  0  0  0  0  3  0  0  0  0  0  0
   36.1390   20.8850   33.8150 C   0  0  0  0  0  3  0  0  0  0  0  0
  1  5  1  0  0  0  0
  1  2  2  0  0  0  0
  2  6  1  0  0  0  0
  2  3  1  0  0  0  0
  3  7  1  0  0  0  0
  4  3  2  0  0  0  0
  4  9  1  0  0  0  0
  5  4  1  0  0  0  0
  8  9  2  0  0  0  0
  8 16  1  0  0  0  0
  9 10  1  0  0  0  0
 10 18  1  0  0  0  0
 10 11  2  0  0  0  0
 11 12  1  0  0  0  0
 12 19  1  0  0  0  0
 12 13  1  0  0  0  0
 14 20  1  0  0  0  0
 14 13  2  0  0  0  0
 15 11  1  0  0  0  0
 15 14  1  0  0  0  0
 16 15  2  0  0  0  0
 17  8  1  0  0  0  0
 21 16  1  0  0  0  0
 22  1  1  0  0  0  0
 23 22  2  0  0  0  0
 24 29  2  0  0  0  0
 24 25  1  0  0  0  0
 25 26  2  0  0  0  0
 26 27  1  0  0  0  0
 26 34  1  0  0  0  0
 28 22  1  0  0  0  0
 28 27  2  0  0  0  0
 29 28  1  0  0  0  0
 30 24  1  0  0  0  0
 31 25  1  0  0  0  0
 33 40  1  0  0  0  0
 33 32  1  0  0  0  0
 34 33  2  0  0  0  0
 35 37  2  0  0  0  0
 35 34  1  0  0  0  0
 36 35  1  0  0  0  0
 37 39  1  0  0  0  0
 38 37  1  0  0  0  0
 39 40  2  0  0  0  0
M  END
>  <minimizedAffinity>
-6.86884356

$$$$

 OpenBabel03272508503D

 40 44  0  0  0  0  0  0  0  0999 V2000
   38.7750   26.3340   33.4170 C   0  0  0  0  0  0  0  0  0  0  0  0
   38.9150   27.1530   34.5210 C   0  0  0  0  0  0  0  0  0  0  0  0
   39.7460   26.4180   35.3640 C   0  0  0  0  0  0  0  0  0  0  0  0
   40.0630   25.2290   34.7570 C   0  0  0  0  0  0  0  0  0  0  0  0
   39.4620   25.2130   33.5910 O   0  0  0  0  0  0  0  0  0  0  0  0
   38.4720   28.1150   34.6530 H   0  0  0  0  0  0  0  0  0  0  0  0
   40.0760   26.7510   36.3360 H   0  0  0  0  0  0  0  0  0  0  0  0
   42.1850   24.0030   34.7880 C   0  0  0  0  0  0  0  0  0  0  0  0
   40.9060   24.1650   35.2880 C   0  0  0  0  0  0  0  0  0  0  0  0
   40.4040   23.3400   36.2860 C   0  0  0  0  0  0  0  0  0  0  0  0
   41.1880   22.3190   36.8080 C   0  0  0  0  0  0  0  0  0  0  0  0
   40.9970   21.3780   37.7510 N   0  0  0  0  0  0  0  0  0  0  0  0
   42.1150   20.6710   37.8220 N   0  0  0  0  0  0  0  0  0  0  0  0
   43.0290   21.1400   36.9370 C   0  0  0  0  0  0  0  0  0  0  0  0
   42.4540   22.2120   36.2630 C   0  0  0  0  0  0  0  0  0  0  0  0
   43.0090   22.9860   35.2860 C   0  0  0  0  0  0  0  0  0  0  0  0
   42.5550   24.6610   34.0070 H   0  0  0  0  0  0  0  0  0  0  0  0
   39.4090   23.4530   36.6870 H   0  0  0  0  0  0  0  0  0  0  0  0
   40.1080   21.2690   38.3000 H   0  0  0  0  0  0  0  0  0  0  0  0
   44.0160   20.6910   36.8410 H   0  0  0  0  0  0  0  0  0  0  0  0
   43.9970   22.8210   34.9340 H   0  0  0  0  0  0  0  0  0  0  0  0
   37.9860   26.6680   32.2460 C   0  0  0  0  0  0  0  0  0  0  0  0
   38.2640   27.7240   31.6310 O   0  0  0  0  0  0  0  0  0  0  0  0
   34.8210   25.5620   30.8020 C   0  0  0  0  0  0  0  0  0  0  0  0
   34.8690   24.1810   30.9840 C   0  0  0  0  0  0  0  0  0  0  0  0
   35.9620   23.6190   31.5910 C   0  0  0  0  0  0  0  0  0  0  0  0
   36.9470   24.4500   31.9850 N   0  0  0  0  0  0  0  0  0  0  0  0
   36.9010   25.7870   31.8080 C   0  0  0  0  0  0  0  0  0  0  0  0
   35.8310   26.3380   31.2140 N   0  0  0  0  0  0  0  0  0  0  0  0
   33.9910   26.0730   30.3310 H   0  0  0  0  0  0  0  0  0  0  0  0
   34.0450   23.5760   30.6450 H   0  0  0  0  0  0  0  0  0  0  0  0
   37.8850   22.1260   30.3020 F   0  0  0  0  0  0  0  0  0  0  0  0
   37.0570   21.4650   31.1640 C   0  0  0  0  0  0  0  0  0  0  0  0
   36.0900   22.1870   31.8190 C   0  0  0  0  0  0  0  0  0  0  0  0
   35.2950   21.4610   32.6670 C   0  0  0  0  0  0  0  0  0  0  0  0
   34.5130   21.9620   33.2170 H   0  0  0  0  0  0  0  0  0  0  0  0
   35.4700   20.1040   32.8380 C   0  0  0  0  0  0  0  0  0  0  0  0
   34.8150   19.5640   33.5230 H   0  0  0  0  0  0  0  0  0  0  0  0
   36.4500   19.4000   32.1680 C   0  0  0  0  0  3  0  0  0  0  0  0
   37.2590   20.1130   31.3090 C   0  0  0  0  0  3  0  0  0  0  0  0
  1  5  1  0  0  0  0
  1  2  2  0  0  0  0
  2  6  1  0  0  0  0
  2  3  1  0  0  0  0
  3  7  1  0  0  0  0
  4  9  1  0  0  0  0
  4  3  2  0  0  0  0
  5  4  1  0  0  0  0
  8 16  2  0  0  0  0
  8  9  1  0  0  0  0
  9 10  2  0  0  0  0
 10 18  1  0  0  0  0
 10 11  1  0  0  0  0
 11 12  1  0  0  0  0
 12 13  1  0  0  0  0
 12 19  1  0  0  0  0
 14 13  2  0  0  0  0
 15 11  2  0  0  0  0
 15 14  1  0  0  0  0
 16 15  1  0  0  0  0
 17  8  1  0  0  0  0
 20 14  1  0  0  0  0
 21 16  1  0  0  0  0
 22  1  1  0  0  0  0
 23 22  2  0  0  0  0
 24 25  2  0  0  0  0
 24 29  1  0  0  0  0
 25 26  1  0  0  0  0
 26 34  1  0  0  0  0
 26 27  2  0  0  0  0
 28 27  1  0  0  0  0
 28 22  1  0  0  0  0
 29 28  2  0  0  0  0
 30 24  1  0  0  0  0
 31 25  1  0  0  0  0
 32 33  1  0  0  0  0
 33 40  2  0  0  0  0
 33 34  1  0  0  0  0
 34 35  2  0  0  0  0
 35 37  1  0  0  0  0
 35 36  1  0  0  0  0
 37 38  1  0  0  0  0
 39 37  2  0  0  0  0
 40 39  1  0  0  0  0
M  END
>  <minimizedAffinity>
-6.73988056

$$$$

 OpenBabel03272508503D

 40 44  0  0  0  0  0  0  0  0999 V2000
   38.2450   26.8560   33.9300 C   0  0  0  0  0  0  0  0  0  0  0  0
   38.2850   26.9990   32.5570 C   0  0  0  0  0  0  0  0  0  0  0  0
   37.2360   27.8780   32.2940 C   0  0  0  0  0  0  0  0  0  0  0  0
   36.6280   28.2170   33.4760 C   0  0  0  0  0  0  0  0  0  0  0  0
   37.2600   27.5850   34.4370 O   0  0  0  0  0  0  0  0  0  0  0  0
   38.9760   26.5280   31.8930 H   0  0  0  0  0  0  0  0  0  0  0  0
   36.9630   28.2230   31.3090 H   0  0  0  0  0  0  0  0  0  0  0  0
   35.5160   30.0360   34.6850 C   0  0  0  0  0  0  0  0  0  0  0  0
   35.4910   29.1100   33.6580 C   0  0  0  0  0  0  0  0  0  0  0  0
   34.4080   29.0100   32.7950 C   0  0  0  0  0  0  0  0  0  0  0  0
   33.3120   29.8490   32.9470 C   0  0  0  0  0  0  0  0  0  0  0  0
   32.1440   29.9960   32.2950 N   0  0  0  0  0  0  0  0  0  0  0  0
   31.4850   30.9720   32.9000 N   0  0  0  0  0  0  0  0  0  0  0  0
   32.2080   31.4610   33.9370 C   0  0  0  0  0  0  0  0  0  0  0  0
   33.4020   30.7500   33.9920 C   0  0  0  0  0  0  0  0  0  0  0  0
   34.4320   30.9030   34.8750 C   0  0  0  0  0  0  0  0  0  0  0  0
   36.3740   30.0960   35.3480 H   0  0  0  0  0  0  0  0  0  0  0  0
   34.3720   28.2930   31.9890 H   0  0  0  0  0  0  0  0  0  0  0  0
   31.8580   29.4180   31.4660 H   0  0  0  0  0  0  0  0  0  0  0  0
   31.8380   32.2710   34.5630 H   0  0  0  0  0  0  0  0  0  0  0  0
   34.4040   31.6290   35.6480 H   0  0  0  0  0  0  0  0  0  0  0  0
   39.1580   26.0230   34.6920 C   0  0  0  0  0  0  0  0  0  0  0  0
   40.2290   26.5370   35.0920 O   0  0  0  0  0  0  0  0  0  0  0  0
   38.9690   22.8140   36.4220 C   0  0  0  0  0  0  0  0  0  0  0  0
   38.2210   22.0370   35.5400 C   0  0  0  0  0  0  0  0  0  0  0  0
   37.7790   22.5870   34.3640 C   0  0  0  0  0  0  0  0  0  0  0  0
   38.0990   23.8730   34.1240 N   0  0  0  0  0  0  0  0  0  0  0  0
   38.8230   24.6270   34.9780 C   0  0  0  0  0  0  0  0  0  0  0  0
   39.2560   24.0890   36.1290 N   0  0  0  0  0  0  0  0  0  0  0  0
   39.3490   22.4460   37.3660 H   0  0  0  0  0  0  0  0  0  0  0  0
   38.0010   21.0140   35.7950 H   0  0  0  0  0  0  0  0  0  0  0  0
   35.7360   20.9130   35.1450 F   0  0  0  0  0  0  0  0  0  0  0  0
   35.9810   21.0150   33.8050 C   0  0  0  0  0  0  0  0  0  0  0  0
   36.9940   21.8430   33.3900 C   0  0  0  0  0  0  0  0  0  0  0  0
   37.1830   21.8970   32.0340 C   0  0  0  0  0  0  0  0  0  0  0  0
   37.9630   22.5290   31.6350 H   0  0  0  0  0  0  0  0  0  0  0  0
   36.4020   21.1650   31.1650 C   0  0  0  0  0  0  0  0  0  0  0  0
   36.5870   21.2380   30.0920 H   0  0  0  0  0  0  0  0  0  0  0  0
   35.3890   20.3400   31.6070 C   0  0  0  0  0  3  0  0  0  0  0  0
   35.1830   20.2710   32.9680 C   0  0  0  0  0  3  0  0  0  0  0  0
  1  5  1  0  0  0  0
  1 22  1  0  0  0  0
  2  1  2  0  0  0  0
  3  2  1  0  0  0  0
  3  4  2  0  0  0  0
  4  9  1  0  0  0  0
  4  5  1  0  0  0  0
  6  2  1  0  0  0  0
  7  3  1  0  0  0  0
  8 16  1  0  0  0  0
  8 17  1  0  0  0  0
  9  8  2  0  0  0  0
 10 11  2  0  0  0  0
 10  9  1  0  0  0  0
 11 15  1  0  0  0  0
 12 13  1  0  0  0  0
 12 11  1  0  0  0  0
 13 14  2  0  0  0  0
 14 15  1  0  0  0  0
 14 20  1  0  0  0  0
 15 16  2  0  0  0  0
 16 21  1  0  0  0  0
 18 10  1  0  0  0  0
 19 12  1  0  0  0  0
 22 28  1  0  0  0  0
 22 23  2  0  0  0  0
 24 30  1  0  0  0  0
 25 31  1  0  0  0  0
 25 24  2  0  0  0  0
 26 25  1  0  0  0  0
 27 26  2  0  0  0  0
 27 28  1  0  0  0  0
 28 29  2  0  0  0  0
 29 24  1  0  0  0  0
 33 32  1  0  0  0  0
 34 33  1  0  0  0  0
 34 26  1  0  0  0  0
 35 34  2  0  0  0  0
 36 35  1  0  0  0  0
 37 39  2  0  0  0  0
 37 35  1  0  0  0  0
 38 37  1  0  0  0  0
 39 40  1  0  0  0  0
 40 33  2  0  0  0  0
M  END
>  <minimizedAffinity>
-6.73327255

$$$$

 OpenBabel03272508503D

 40 44  0  0  0  0  0  0  0  0999 V2000
   36.5910   27.7990   32.7060 C   0  0  0  0  0  0  0  0  0  0  0  0
   37.2980   27.3550   33.8070 C   0  0  0  0  0  0  0  0  0  0  0  0
   36.8660   28.1970   34.8290 C   0  0  0  0  0  0  0  0  0  0  0  0
   35.9490   29.0830   34.3220 C   0  0  0  0  0  0  0  0  0  0  0  0
   35.8090   28.8150   33.0450 O   0  0  0  0  0  0  0  0  0  0  0  0
   38.0000   26.5500   33.8230 H   0  0  0  0  0  0  0  0  0  0  0  0
   37.2110   28.1430   35.8500 H   0  0  0  0  0  0  0  0  0  0  0  0
   35.9790   31.1110   35.6990 C   0  0  0  0  0  0  0  0  0  0  0  0
   35.2470   30.1360   35.0460 C   0  0  0  0  0  0  0  0  0  0  0  0
   33.8580   30.1340   35.0630 C   0  0  0  0  0  0  0  0  0  0  0  0
   33.1660   31.1260   35.7460 C   0  0  0  0  0  0  0  0  0  0  0  0
   31.8630   31.3930   35.9450 N   0  0  0  0  0  0  0  0  0  0  0  0
   31.8030   32.4870   36.6880 N   0  0  0  0  0  0  0  0  0  0  0  0
   33.0500   32.9340   36.9750 C   0  0  0  0  0  0  0  0  0  0  0  0
   33.9580   32.0690   36.3750 C   0  0  0  0  0  0  0  0  0  0  0  0
   35.3210   32.1300   36.3990 C   0  0  0  0  0  0  0  0  0  0  0  0
   37.0640   31.0910   35.6710 H   0  0  0  0  0  0  0  0  0  0  0  0
   33.2720   29.3800   34.5590 H   0  0  0  0  0  0  0  0  0  0  0  0
   31.0780   30.8100   35.5590 H   0  0  0  0  0  0  0  0  0  0  0  0
   33.2150   33.8250   37.5780 H   0  0  0  0  0  0  0  0  0  0  0  0
   35.8380   32.9000   36.9160 H   0  0  0  0  0  0  0  0  0  0  0  0
   36.7020   27.2260   31.3770 C   0  0  0  0  0  0  0  0  0  0  0  0
   36.2880   27.9040   30.4080 O   0  0  0  0  0  0  0  0  0  0  0  0
   38.9240   24.5720   30.2190 C   0  0  0  0  0  0  0  0  0  0  0  0
   38.3830   23.4380   30.8210 C   0  0  0  0  0  0  0  0  0  0  0  0
   37.2740   23.5610   31.6170 C   0  0  0  0  0  0  0  0  0  0  0  0
   36.7580   24.7950   31.7730 N   0  0  0  0  0  0  0  0  0  0  0  0
   37.2820   25.8940   31.1910 C   0  0  0  0  0  0  0  0  0  0  0  0
   38.3690   25.7740   30.4110 N   0  0  0  0  0  0  0  0  0  0  0  0
   39.7980   24.5490   29.5800 H   0  0  0  0  0  0  0  0  0  0  0  0
   38.8470   22.4800   30.6530 H   0  0  0  0  0  0  0  0  0  0  0  0
   35.1640   22.2100   30.4710 F   0  0  0  0  0  0  0  0  0  0  0  0
   35.5980   21.7700   31.6880 C   0  0  0  0  0  0  0  0  0  0  0  0
   36.6490   22.4260   32.2810 C   0  0  0  0  0  0  0  0  0  0  0  0
   37.0310   21.9310   33.5010 C   0  0  0  0  0  0  0  0  0  0  0  0
   37.8510   22.3970   34.0260 H   0  0  0  0  0  0  0  0  0  0  0  0
   36.3950   20.8510   34.0740 C   0  0  0  0  0  0  0  0  0  0  0  0
   36.7320   20.4890   35.0470 H   0  0  0  0  0  0  0  0  0  0  0  0
   35.3410   20.2080   33.4580 C   0  0  0  0  0  3  0  0  0  0  0  0
   34.9410   20.6910   32.2310 C   0  0  0  0  0  3  0  0  0  0  0  0
  1  5  1  0  0  0  0
  1  2  2  0  0  0  0
  2  6  1  0  0  0  0
  2  3  1  0  0  0  0
  3  7  1  0  0  0  0
  4  3  2  0  0  0  0
  4  9  1  0  0  0  0
  5  4  1  0  0  0  0
  8 16  1  0  0  0  0
  9 10  1  0  0  0  0
  9  8  2  0  0  0  0
 10 11  2  0  0  0  0
 11 12  1  0  0  0  0
 11 15  1  0  0  0  0
 12 13  1  0  0  0  0
 13 14  2  0  0  0  0
 14 20  1  0  0  0  0
 15 16  2  0  0  0  0
 15 14  1  0  0  0  0
 16 21  1  0  0  0  0
 17  8  1  0  0  0  0
 18 10  1  0  0  0  0
 19 12  1  0  0  0  0
 22  1  1  0  0  0  0
 23 22  2  0  0  0  0
 24 29  2  0  0  0  0
 24 25  1  0  0  0  0
 25 26  2  0  0  0  0
 26 27  1  0  0  0  0
 26 34  1  0  0  0  0
 28 22  1  0  0  0  0
 28 27  2  0  0  0  0
 29 28  1  0  0  0  0
 30 24  1  0  0  0  0
 31 25  1  0  0  0  0
 32 33  1  0  0  0  0
 33 40  2  0  0  0  0
 33 34  1  0  0  0  0
 34 35  2  0  0  0  0
 35 36  1  0  0  0  0
 35 37  1  0  0  0  0
 37 38  1  0  0  0  0
 39 37  2  0  0  0  0
 40 39  1  0  0  0  0
M  END
>  <minimizedAffinity>
-6.71261406

$$$$
