
 OpenBabel03272507403D

 34 36  0  0  0  0  0  0  0  0999 V2000
   38.4230   25.0140   33.8750 C   0  0  0  0  0  0  0  0  0  0  0  0
   37.7690   25.4770   32.7630 C   0  0  0  0  0  0  0  0  0  0  0  0
   37.0210   24.6130   31.9790 C   0  0  0  0  0  0  0  0  0  0  0  0
   36.9340   23.2710   32.3250 C   0  0  0  0  0  0  0  0  0  0  0  0
   37.6000   22.8100   33.4560 C   0  0  0  0  0  0  0  0  0  0  0  0
   38.3360   23.6960   34.2150 C   0  0  0  0  0  0  0  0  0  0  0  0
   36.4820   24.9110   31.0900 H   0  0  0  0  0  0  0  0  0  0  0  0
   36.3540   22.5710   31.7300 H   0  0  0  0  0  0  0  0  0  0  0  0
   37.5750   21.7790   33.7830 H   0  0  0  0  0  0  0  0  0  0  0  0
   37.2490   24.0200   36.7650 F   0  0  0  0  0  0  0  0  0  0  0  0
   38.5040   23.5070   36.6760 C   0  0  0  0  0  0  0  0  0  0  0  0
   39.0820   23.3300   35.4280 C   0  0  0  0  0  0  0  0  0  0  0  0
   40.3570   22.8070   35.3940 C   0  0  0  0  0  0  0  0  0  0  0  0
   40.7960   22.6730   34.4180 H   0  0  0  0  0  0  0  0  0  0  0  0
   41.0730   22.4580   36.5030 C   0  0  0  0  0  0  0  0  0  0  0  0
   42.0780   22.0460   36.4710 H   0  0  0  0  0  0  0  0  0  0  0  0
   40.4420   22.6580   37.7180 C   0  0  0  0  0  3  0  0  0  0  0  0
   39.1560   23.1810   37.8520 C   0  0  0  0  0  3  0  0  0  0  0  0
   39.7700   26.7630   35.2100 N   0  0  0  0  0  0  0  0  0  0  0  0
   39.1720   25.9790   34.6270 C   0  0  0  0  0  0  0  0  0  0  0  0
   37.7650   26.7750   32.2990 O   0  0  0  0  0  0  0  0  0  0  0  0
   36.8400   27.7140   32.6320 C   0  0  0  0  0  0  0  0  0  0  0  0
   36.2210   28.2570   31.5070 C   0  0  0  0  0  0  0  0  0  0  0  0
   35.2510   29.2270   31.6370 C   0  0  0  0  0  0  0  0  0  0  0  0
   34.9320   29.6270   32.9160 N   0  0  0  0  0  0  0  0  0  0  0  0
   35.5420   29.0920   33.9930 C   0  0  0  0  0  0  0  0  0  0  0  0
   36.4650   28.1650   33.8400 N   0  0  0  0  0  0  0  0  0  0  0  0
   34.7200   29.7030   30.8250 H   0  0  0  0  0  0  0  0  0  0  0  0
   35.1970   29.4910   34.9140 H   0  0  0  0  0  0  0  0  0  0  0  0
   37.3470   28.6800   29.3780 C   0  0  0  0  0  0  0  0  0  0  0  0
   37.9450   29.8190   29.5330 O   0  0  0  0  0  0  0  0  0  0  0  0
   36.4560   27.9000   30.1780 N   0  0  0  0  0  0  0  0  0  0  0  0
   37.9570   28.9370   28.5210 H   0  0  0  0  0  0  0  0  0  0  0  0
   36.2510   27.2620   29.4020 H   0  0  0  0  0  0  0  0  0  0  0  0
  1  6  1  0  0  0  0
  1 20  1  0  0  0  0
  2  1  2  0  0  0  0
  3  4  2  0  0  0  0
  3  2  1  0  0  0  0
  4  5  1  0  0  0  0
  5  9  1  0  0  0  0
  5  6  2  0  0  0  0
  6 12  1  0  0  0  0
  7  3  1  0  0  0  0
  8  4  1  0  0  0  0
 11 10  1  0  0  0  0
 11 18  1  0  0  0  0
 12 11  2  0  0  0  0
 13 12  1  0  0  0  0
 13 15  2  0  0  0  0
 14 13  1  0  0  0  0
 15 17  1  0  0  0  0
 16 15  1  0  0  0  0
 17 18  2  0  0  0  0
 20 19  3  0  0  0  0
 21 22  1  0  0  0  0
 21  2  1  0  0  0  0
 22 27  1  0  0  0  0
 23 24  1  0  0  0  0
 23 22  2  0  0  0  0
 24 25  2  0  0  0  0
 25 26  1  0  0  0  0
 26 29  1  0  0  0  0
 27 26  2  0  0  0  0
 28 24  1  0  0  0  0
 30 31  2  0  0  0  0
 30 32  1  0  0  0  0
 32 23  1  0  0  0  0
 33 30  1  0  0  0  0
 34 32  1  0  0  0  0
M  END
>  <minimizedAffinity>
-5.4783144

$$$$

 OpenBabel03272507403D

 34 36  0  0  0  0  0  0  0  0999 V2000
   38.4960   25.1530   34.0980 C   0  0  0  0  0  0  0  0  0  0  0  0
   38.2980   25.4460   32.7740 C   0  0  0  0  0  0  0  0  0  0  0  0
   37.8070   24.4820   31.9080 C   0  0  0  0  0  0  0  0  0  0  0  0
   37.5150   23.2120   32.3870 C   0  0  0  0  0  0  0  0  0  0  0  0
   37.7180   22.9230   33.7330 C   0  0  0  0  0  0  0  0  0  0  0  0
   38.2080   23.9050   34.5680 C   0  0  0  0  0  0  0  0  0  0  0  0
   37.6280   24.6450   30.8540 H   0  0  0  0  0  0  0  0  0  0  0  0
   37.1280   22.4370   31.7310 H   0  0  0  0  0  0  0  0  0  0  0  0
   37.5120   21.9570   34.1710 H   0  0  0  0  0  0  0  0  0  0  0  0
   40.4590   22.5440   35.4990 F   0  0  0  0  0  0  0  0  0  0  0  0
   39.5960   23.0400   36.4240 C   0  0  0  0  0  0  0  0  0  0  0  0
   38.4650   23.7230   36.0040 C   0  0  0  0  0  0  0  0  0  0  0  0
   37.6220   24.2050   36.9830 C   0  0  0  0  0  0  0  0  0  0  0  0
   36.7450   24.7350   36.6440 H   0  0  0  0  0  0  0  0  0  0  0  0
   37.8350   24.0520   38.3220 C   0  0  0  0  0  0  0  0  0  0  0  0
   37.1680   24.4340   39.0910 H   0  0  0  0  0  0  0  0  0  0  0  0
   38.9810   23.3620   38.6780 C   0  0  0  0  0  3  0  0  0  0  0  0
   39.8910   22.8390   37.7610 C   0  0  0  0  0  3  0  0  0  0  0  0
   39.4290   27.0600   35.5630 N   0  0  0  0  0  0  0  0  0  0  0  0
   39.0060   26.2120   34.9200 C   0  0  0  0  0  0  0  0  0  0  0  0
   38.5430   26.6560   32.1590 O   0  0  0  0  0  0  0  0  0  0  0  0
   37.6000   27.6060   31.9160 C   0  0  0  0  0  0  0  0  0  0  0  0
   37.5720   27.9770   30.5720 C   0  0  0  0  0  0  0  0  0  0  0  0
   36.6820   28.9300   30.1250 C   0  0  0  0  0  0  0  0  0  0  0  0
   35.8370   29.4870   31.0590 N   0  0  0  0  0  0  0  0  0  0  0  0
   35.8790   29.1160   32.3540 C   0  0  0  0  0  0  0  0  0  0  0  0
   36.7390   28.2020   32.7550 N   0  0  0  0  0  0  0  0  0  0  0  0
   36.5900   29.2790   29.1060 H   0  0  0  0  0  0  0  0  0  0  0  0
   35.1720   29.6240   32.9610 H   0  0  0  0  0  0  0  0  0  0  0  0
   39.5550   28.1400   29.1500 C   0  0  0  0  0  0  0  0  0  0  0  0
   40.0660   29.3000   29.4150 O   0  0  0  0  0  0  0  0  0  0  0  0
   38.3660   27.4540   29.5500 N   0  0  0  0  0  0  0  0  0  0  0  0
   40.4960   28.2930   28.6380 H   0  0  0  0  0  0  0  0  0  0  0  0
   38.5060   26.7160   28.8520 H   0  0  0  0  0  0  0  0  0  0  0  0
  1  6  1  0  0  0  0
  1 20  1  0  0  0  0
  2  1  2  0  0  0  0
  3  4  2  0  0  0  0
  3  2  1  0  0  0  0
  4  5  1  0  0  0  0
  5  9  1  0  0  0  0
  5  6  2  0  0  0  0
  6 12  1  0  0  0  0
  7  3  1  0  0  0  0
  8  4  1  0  0  0  0
 10 11  1  0  0  0  0
 11 18  1  0  0  0  0
 12 11  2  0  0  0  0
 12 13  1  0  0  0  0
 13 15  2  0  0  0  0
 14 13  1  0  0  0  0
 15 17  1  0  0  0  0
 15 16  1  0  0  0  0
 18 17  2  0  0  0  0
 20 19  3  0  0  0  0
 21  2  1  0  0  0  0
 22 21  1  0  0  0  0
 22 27  1  0  0  0  0
 23 22  2  0  0  0  0
 24 23  1  0  0  0  0
 24 25  2  0  0  0  0
 25 26  1  0  0  0  0
 26 27  2  0  0  0  0
 26 29  1  0  0  0  0
 28 24  1  0  0  0  0
 30 31  2  0  0  0  0
 30 32  1  0  0  0  0
 32 23  1  0  0  0  0
 33 30  1  0  0  0  0
 34 32  1  0  0  0  0
M  END
>  <minimizedAffinity>
-5.46732473

$$$$

 OpenBabel03272507403D

 34 36  0  0  0  0  0  0  0  0999 V2000
   38.3480   25.7580   33.5070 C   0  0  0  0  0  0  0  0  0  0  0  0
   38.4510   25.2000   34.7550 C   0  0  0  0  0  0  0  0  0  0  0  0
   38.3000   25.9840   35.8880 C   0  0  0  0  0  0  0  0  0  0  0  0
   38.0420   27.3420   35.7560 C   0  0  0  0  0  0  0  0  0  0  0  0
   37.9380   27.8990   34.4850 C   0  0  0  0  0  0  0  0  0  0  0  0
   38.0930   27.0920   33.3780 C   0  0  0  0  0  0  0  0  0  0  0  0
   38.3690   25.6100   36.9000 H   0  0  0  0  0  0  0  0  0  0  0  0
   37.9180   27.9800   36.6260 H   0  0  0  0  0  0  0  0  0  0  0  0
   37.7380   28.9480   34.3100 H   0  0  0  0  0  0  0  0  0  0  0  0
   35.6400   27.6020   32.1480 F   0  0  0  0  0  0  0  0  0  0  0  0
   36.7670   27.8040   31.4150 C   0  0  0  0  0  0  0  0  0  0  0  0
   38.0060   27.5620   31.9880 C   0  0  0  0  0  0  0  0  0  0  0  0
   39.1160   27.7820   31.2010 C   0  0  0  0  0  0  0  0  0  0  0  0
   40.0750   27.5910   31.6580 H   0  0  0  0  0  0  0  0  0  0  0  0
   39.0660   28.2190   29.9090 C   0  0  0  0  0  0  0  0  0  0  0  0
   39.9440   28.3920   29.2920 H   0  0  0  0  0  0  0  0  0  0  0  0
   37.8010   28.4430   29.3940 C   0  0  0  0  0  3  0  0  0  0  0  0
   36.6220   28.2480   30.1120 C   0  0  0  0  0  3  0  0  0  0  0  0
   38.6730   24.1670   31.5030 N   0  0  0  0  0  0  0  0  0  0  0  0
   38.5170   24.8710   32.3920 C   0  0  0  0  0  0  0  0  0  0  0  0
   38.7030   23.8750   35.0400 O   0  0  0  0  0  0  0  0  0  0  0  0
   39.8550   23.4060   35.5920 C   0  0  0  0  0  0  0  0  0  0  0  0
   39.6180   22.7170   36.7810 C   0  0  0  0  0  0  0  0  0  0  0  0
   40.6600   22.1650   37.4920 C   0  0  0  0  0  0  0  0  0  0  0  0
   41.9270   22.3270   36.9770 N   0  0  0  0  0  0  0  0  0  0  0  0
   42.1370   22.9970   35.8260 C   0  0  0  0  0  0  0  0  0  0  0  0
   41.1220   23.5150   35.1650 N   0  0  0  0  0  0  0  0  0  0  0  0
   40.5710   21.6160   38.4200 H   0  0  0  0  0  0  0  0  0  0  0  0
   43.1600   23.0430   35.5470 H   0  0  0  0  0  0  0  0  0  0  0  0
   37.8650   23.3810   38.3520 C   0  0  0  0  0  0  0  0  0  0  0  0
   38.3600   24.3830   39.0060 O   0  0  0  0  0  0  0  0  0  0  0  0
   38.3740   22.4780   37.3670 N   0  0  0  0  0  0  0  0  0  0  0  0
   37.1410   23.8220   39.0260 H   0  0  0  0  0  0  0  0  0  0  0  0
   37.5510   21.8700   37.4390 H   0  0  0  0  0  0  0  0  0  0  0  0
  1  2  1  0  0  0  0
  2 21  1  0  0  0  0
  2  3  2  0  0  0  0
  3  7  1  0  0  0  0
  4  3  1  0  0  0  0
  4  8  1  0  0  0  0
  5  4  2  0  0  0  0
  6  1  2  0  0  0  0
  6  5  1  0  0  0  0
  9  5  1  0  0  0  0
 11 12  1  0  0  0  0
 11 10  1  0  0  0  0
 12  6  1  0  0  0  0
 13 14  1  0  0  0  0
 13 12  2  0  0  0  0
 15 13  1  0  0  0  0
 16 15  1  0  0  0  0
 17 15  2  0  0  0  0
 17 18  1  0  0  0  0
 18 11  2  0  0  0  0
 19 20  3  0  0  0  0
 20  1  1  0  0  0  0
 21 22  1  0  0  0  0
 22 23  1  0  0  0  0
 23 32  1  0  0  0  0
 23 24  2  0  0  0  0
 24 28  1  0  0  0  0
 25 24  1  0  0  0  0
 26 25  2  0  0  0  0
 27 22  2  0  0  0  0
 27 26  1  0  0  0  0
 29 26  1  0  0  0  0
 30 31  2  0  0  0  0
 30 33  1  0  0  0  0
 32 34  1  0  0  0  0
 32 30  1  0  0  0  0
M  END
>  <minimizedAffinity>
-5.42673731

$$$$

 OpenBabel03272507403D

 34 36  0  0  0  0  0  0  0  0999 V2000
   37.4610   25.9630   33.5180 C   0  0  0  0  0  0  0  0  0  0  0  0
   37.8260   24.7210   33.9700 C   0  0  0  0  0  0  0  0  0  0  0  0
   37.7840   23.6270   33.1210 C   0  0  0  0  0  0  0  0  0  0  0  0
   37.3690   23.7910   31.8060 C   0  0  0  0  0  0  0  0  0  0  0  0
   37.0010   25.0550   31.3560 C   0  0  0  0  0  0  0  0  0  0  0  0
   37.0550   26.1240   32.2260 C   0  0  0  0  0  0  0  0  0  0  0  0
   38.0570   22.6210   33.4110 H   0  0  0  0  0  0  0  0  0  0  0  0
   37.3270   22.9510   31.1180 H   0  0  0  0  0  0  0  0  0  0  0  0
   36.6690   25.2540   30.3470 H   0  0  0  0  0  0  0  0  0  0  0  0
   38.7880   27.7800   30.7980 F   0  0  0  0  0  0  0  0  0  0  0  0
   37.5830   28.2930   31.1600 C   0  0  0  0  0  0  0  0  0  0  0  0
   36.6920   27.5040   31.8710 C   0  0  0  0  0  0  0  0  0  0  0  0
   35.4840   28.0730   32.2130 C   0  0  0  0  0  0  0  0  0  0  0  0
   34.7980   27.4490   32.7660 H   0  0  0  0  0  0  0  0  0  0  0  0
   35.1200   29.3490   31.8960 C   0  0  0  0  0  0  0  0  0  0  0  0
   34.1660   29.7930   32.1680 H   0  0  0  0  0  0  0  0  0  0  0  0
   36.0520   30.0860   31.1860 C   0  0  0  0  0  3  0  0  0  0  0  0
   37.2970   29.5970   30.7960 C   0  0  0  0  0  3  0  0  0  0  0  0
   37.5980   27.8810   35.2380 N   0  0  0  0  0  0  0  0  0  0  0  0
   37.5380   27.0370   34.4660 C   0  0  0  0  0  0  0  0  0  0  0  0
   38.2560   24.4080   35.2410 O   0  0  0  0  0  0  0  0  0  0  0  0
   39.5250   24.0370   35.5620 C   0  0  0  0  0  0  0  0  0  0  0  0
   39.5520   23.1580   36.6430 C   0  0  0  0  0  0  0  0  0  0  0  0
   40.7480   22.6670   37.1200 C   0  0  0  0  0  0  0  0  0  0  0  0
   41.8960   23.0850   36.4830 N   0  0  0  0  0  0  0  0  0  0  0  0
   41.8500   23.9350   35.4380 C   0  0  0  0  0  0  0  0  0  0  0  0
   40.6930   24.3890   35.0020 N   0  0  0  0  0  0  0  0  0  0  0  0
   40.8650   21.9850   37.9500 H   0  0  0  0  0  0  0  0  0  0  0  0
   42.8080   24.1690   35.0440 H   0  0  0  0  0  0  0  0  0  0  0  0
   37.8040   23.4650   38.3250 C   0  0  0  0  0  0  0  0  0  0  0  0
   38.0850   24.5890   38.9040 O   0  0  0  0  0  0  0  0  0  0  0  0
   38.4470   22.6590   37.3350 N   0  0  0  0  0  0  0  0  0  0  0  0
   37.0430   23.7530   39.0400 H   0  0  0  0  0  0  0  0  0  0  0  0
   37.8040   21.8770   37.4930 H   0  0  0  0  0  0  0  0  0  0  0  0
  1  2  1  0  0  0  0
  1 20  1  0  0  0  0
  2 21  1  0  0  0  0
  3  7  1  0  0  0  0
  3  2  2  0  0  0  0
  4  3  1  0  0  0  0
  5  4  2  0  0  0  0
  5  6  1  0  0  0  0
  6  1  2  0  0  0  0
  8  4  1  0  0  0  0
  9  5  1  0  0  0  0
 10 11  1  0  0  0  0
 11 12  1  0  0  0  0
 12 13  2  0  0  0  0
 12  6  1  0  0  0  0
 13 14  1  0  0  0  0
 15 16  1  0  0  0  0
 15 13  1  0  0  0  0
 17 15  2  0  0  0  0
 18 11  2  0  0  0  0
 18 17  1  0  0  0  0
 20 19  3  0  0  0  0
 21 22  1  0  0  0  0
 22 23  1  0  0  0  0
 23 24  2  0  0  0  0
 23 32  1  0  0  0  0
 24 28  1  0  0  0  0
 25 24  1  0  0  0  0
 26 25  2  0  0  0  0
 27 26  1  0  0  0  0
 27 22  2  0  0  0  0
 29 26  1  0  0  0  0
 30 31  2  0  0  0  0
 30 33  1  0  0  0  0
 32 34  1  0  0  0  0
 32 30  1  0  0  0  0
M  END
>  <minimizedAffinity>
-5.42386103

$$$$

 OpenBabel03272507403D

 34 36  0  0  0  0  0  0  0  0999 V2000
   37.9680   25.5850   34.0930 C   0  0  0  0  0  0  0  0  0  0  0  0
   37.2040   26.6400   33.6650 C   0  0  0  0  0  0  0  0  0  0  0  0
   37.0990   27.7870   34.4360 C   0  0  0  0  0  0  0  0  0  0  0  0
   37.7720   27.8660   35.6480 C   0  0  0  0  0  0  0  0  0  0  0  0
   38.5460   26.7910   36.0740 C   0  0  0  0  0  0  0  0  0  0  0  0
   38.6300   25.6640   35.2830 C   0  0  0  0  0  0  0  0  0  0  0  0
   36.5150   28.6540   34.1590 H   0  0  0  0  0  0  0  0  0  0  0  0
   37.7080   28.7530   36.2720 H   0  0  0  0  0  0  0  0  0  0  0  0
   39.0950   26.7860   37.0050 H   0  0  0  0  0  0  0  0  0  0  0  0
   37.5550   23.5870   36.8050 F   0  0  0  0  0  0  0  0  0  0  0  0
   38.8400   23.4580   36.3820 C   0  0  0  0  0  0  0  0  0  0  0  0
   39.4130   24.4670   35.6230 C   0  0  0  0  0  0  0  0  0  0  0  0
   40.7180   24.2850   35.2190 C   0  0  0  0  0  0  0  0  0  0  0  0
   41.1530   25.0770   34.6290 H   0  0  0  0  0  0  0  0  0  0  0  0
   41.4680   23.1860   35.5190 C   0  0  0  0  0  0  0  0  0  0  0  0
   42.4980   23.0470   35.1980 H   0  0  0  0  0  0  0  0  0  0  0  0
   40.8400   22.2140   36.2790 C   0  0  0  0  0  3  0  0  0  0  0  0
   39.5260   22.3080   36.7320 C   0  0  0  0  0  3  0  0  0  0  0  0
   38.0760   23.5370   32.5290 N   0  0  0  0  0  0  0  0  0  0  0  0
   38.0210   24.4400   33.2300 C   0  0  0  0  0  0  0  0  0  0  0  0
   36.4840   26.7040   32.4920 O   0  0  0  0  0  0  0  0  0  0  0  0
   36.4240   27.7920   31.6770 C   0  0  0  0  0  0  0  0  0  0  0  0
   37.2260   27.6390   30.5460 C   0  0  0  0  0  0  0  0  0  0  0  0
   37.3000   28.6360   29.5980 C   0  0  0  0  0  0  0  0  0  0  0  0
   36.5540   29.7720   29.8220 N   0  0  0  0  0  0  0  0  0  0  0  0
   35.7840   29.9020   30.9200 C   0  0  0  0  0  0  0  0  0  0  0  0
   35.7310   28.9340   31.8120 N   0  0  0  0  0  0  0  0  0  0  0  0
   37.8930   28.6050   28.6940 H   0  0  0  0  0  0  0  0  0  0  0  0
   35.2640   30.8260   30.9620 H   0  0  0  0  0  0  0  0  0  0  0  0
   39.3840   26.4900   30.5530 C   0  0  0  0  0  0  0  0  0  0  0  0
   40.2310   27.3630   30.9970 O   0  0  0  0  0  0  0  0  0  0  0  0
   37.9940   26.5210   30.2190 N   0  0  0  0  0  0  0  0  0  0  0  0
   40.3720   26.0660   30.6830 H   0  0  0  0  0  0  0  0  0  0  0  0
   38.0350   25.5940   29.7840 H   0  0  0  0  0  0  0  0  0  0  0  0
  1  6  1  0  0  0  0
  2  1  2  0  0  0  0
  2  3  1  0  0  0  0
  3  4  2  0  0  0  0
  4  5  1  0  0  0  0
  4  8  1  0  0  0  0
  5  9  1  0  0  0  0
  6 12  1  0  0  0  0
  6  5  2  0  0  0  0
  7  3  1  0  0  0  0
 11 18  1  0  0  0  0
 11 10  1  0  0  0  0
 12 11  2  0  0  0  0
 13 15  2  0  0  0  0
 13 12  1  0  0  0  0
 14 13  1  0  0  0  0
 15 17  1  0  0  0  0
 16 15  1  0  0  0  0
 17 18  2  0  0  0  0
 19 20  3  0  0  0  0
 20  1  1  0  0  0  0
 21  2  1  0  0  0  0
 22 27  1  0  0  0  0
 22 21  1  0  0  0  0
 23 22  2  0  0  0  0
 24 25  2  0  0  0  0
 24 23  1  0  0  0  0
 25 26  1  0  0  0  0
 26 29  1  0  0  0  0
 26 27  2  0  0  0  0
 28 24  1  0  0  0  0
 30 33  1  0  0  0  0
 30 31  2  0  0  0  0
 32 23  1  0  0  0  0
 32 30  1  0  0  0  0
 34 32  1  0  0  0  0
M  END
>  <minimizedAffinity>
-5.35203552

$$$$

 OpenBabel03272507403D

 34 36  0  0  0  0  0  0  0  0999 V2000
   39.2090   25.3340   33.3820 C   0  0  0  0  0  0  0  0  0  0  0  0
   39.5180   26.0480   32.2530 C   0  0  0  0  0  0  0  0  0  0  0  0
   40.4540   27.0680   32.3040 C   0  0  0  0  0  0  0  0  0  0  0  0
   41.0820   27.3670   33.5060 C   0  0  0  0  0  0  0  0  0  0  0  0
   40.7620   26.6370   34.6460 C   0  0  0  0  0  0  0  0  0  0  0  0
   39.8260   25.6270   34.5620 C   0  0  0  0  0  0  0  0  0  0  0  0
   40.7440   27.6700   31.4540 H   0  0  0  0  0  0  0  0  0  0  0  0
   41.8200   28.1610   33.5750 H   0  0  0  0  0  0  0  0  0  0  0  0
   41.2120   26.8170   35.6130 H   0  0  0  0  0  0  0  0  0  0  0  0
   41.1860   23.2880   35.2460 F   0  0  0  0  0  0  0  0  0  0  0  0
   40.1100   23.6340   35.9990 C   0  0  0  0  0  0  0  0  0  0  0  0
   39.4050   24.7880   35.6930 C   0  0  0  0  0  0  0  0  0  0  0  0
   38.3210   25.0920   36.4890 C   0  0  0  0  0  0  0  0  0  0  0  0
   37.7810   25.9930   36.2420 H   0  0  0  0  0  0  0  0  0  0  0  0
   37.9080   24.3330   37.5450 C   0  0  0  0  0  0  0  0  0  0  0  0
   37.0530   24.5780   38.1700 H   0  0  0  0  0  0  0  0  0  0  0  0
   38.6520   23.1940   37.8000 C   0  0  0  0  0  3  0  0  0  0  0  0
   39.7620   22.8060   37.0520 C   0  0  0  0  0  3  0  0  0  0  0  0
   37.4640   23.4520   33.1210 N   0  0  0  0  0  0  0  0  0  0  0  0
   38.2300   24.2950   33.2350 C   0  0  0  0  0  0  0  0  0  0  0  0
   38.9790   25.8650   30.9980 O   0  0  0  0  0  0  0  0  0  0  0  0
   38.6560   26.8700   30.1390 C   0  0  0  0  0  0  0  0  0  0  0  0
   37.4550   27.4860   30.4890 C   0  0  0  0  0  0  0  0  0  0  0  0
   36.9570   28.5290   29.7390 C   0  0  0  0  0  0  0  0  0  0  0  0
   37.6940   28.9250   28.6450 N   0  0  0  0  0  0  0  0  0  0  0  0
   38.8530   28.3170   28.3220 C   0  0  0  0  0  0  0  0  0  0  0  0
   39.3080   27.3220   29.0560 N   0  0  0  0  0  0  0  0  0  0  0  0
   36.0380   29.0650   29.9340 H   0  0  0  0  0  0  0  0  0  0  0  0
   39.3150   28.7240   27.4580 H   0  0  0  0  0  0  0  0  0  0  0  0
   35.6190   26.1980   31.4630 C   0  0  0  0  0  0  0  0  0  0  0  0
   35.0890   25.5610   30.4680 O   0  0  0  0  0  0  0  0  0  0  0  0
   36.6530   27.1770   31.5880 N   0  0  0  0  0  0  0  0  0  0  0  0
   34.8400   25.5190   31.7860 H   0  0  0  0  0  0  0  0  0  0  0  0
   36.4220   27.3560   32.5710 H   0  0  0  0  0  0  0  0  0  0  0  0
  1  6  1  0  0  0  0
  2  3  1  0  0  0  0
  2  1  2  0  0  0  0
  3  4  2  0  0  0  0
  4  8  1  0  0  0  0
  4  5  1  0  0  0  0
  5  9  1  0  0  0  0
  6  5  2  0  0  0  0
  6 12  1  0  0  0  0
  7  3  1  0  0  0  0
 10 11  1  0  0  0  0
 11 18  1  0  0  0  0
 12 11  2  0  0  0  0
 12 13  1  0  0  0  0
 13 15  2  0  0  0  0
 14 13  1  0  0  0  0
 15 17  1  0  0  0  0
 15 16  1  0  0  0  0
 18 17  2  0  0  0  0
 19 20  3  0  0  0  0
 20  1  1  0  0  0  0
 21  2  1  0  0  0  0
 22 23  1  0  0  0  0
 22 21  1  0  0  0  0
 23 32  1  0  0  0  0
 24 28  1  0  0  0  0
 24 23  2  0  0  0  0
 25 24  1  0  0  0  0
 26 25  2  0  0  0  0
 26 27  1  0  0  0  0
 27 22  2  0  0  0  0
 29 26  1  0  0  0  0
 30 32  1  0  0  0  0
 30 33  1  0  0  0  0
 31 30  2  0  0  0  0
 32 34  1  0  0  0  0
M  END
>  <minimizedAffinity>
-5.3516326

$$$$

 OpenBabel03272507403D

 34 36  0  0  0  0  0  0  0  0999 V2000
   36.2340   29.2550   32.8500 C   0  0  0  0  0  0  0  0  0  0  0  0
   36.7370   28.7730   31.6690 C   0  0  0  0  0  0  0  0  0  0  0  0
   36.6490   29.5270   30.5110 C   0  0  0  0  0  0  0  0  0  0  0  0
   36.0480   30.7790   30.5470 C   0  0  0  0  0  0  0  0  0  0  0  0
   35.5410   31.2600   31.7500 C   0  0  0  0  0  0  0  0  0  0  0  0
   35.6450   30.4850   32.8860 C   0  0  0  0  0  0  0  0  0  0  0  0
   37.0230   29.2080   29.5470 H   0  0  0  0  0  0  0  0  0  0  0  0
   35.9660   31.3920   29.6540 H   0  0  0  0  0  0  0  0  0  0  0  0
   35.0620   32.2250   31.8500 H   0  0  0  0  0  0  0  0  0  0  0  0
   33.0580   29.8730   33.7350 F   0  0  0  0  0  0  0  0  0  0  0  0
   33.8570   30.5580   34.5940 C   0  0  0  0  0  0  0  0  0  0  0  0
   35.1500   30.8830   34.2120 C   0  0  0  0  0  0  0  0  0  0  0  0
   35.9180   31.5790   35.1210 C   0  0  0  0  0  0  0  0  0  0  0  0
   36.9220   31.8250   34.8130 H   0  0  0  0  0  0  0  0  0  0  0  0
   35.4860   31.9600   36.3580 C   0  0  0  0  0  0  0  0  0  0  0  0
   36.0950   32.5080   37.0720 H   0  0  0  0  0  0  0  0  0  0  0  0
   34.1870   31.6060   36.6810 C   0  0  0  0  0  3  0  0  0  0  0  0
   33.3360   30.9040   35.8290 C   0  0  0  0  0  3  0  0  0  0  0  0
   36.4810   27.7130   34.9030 N   0  0  0  0  0  0  0  0  0  0  0  0
   36.3710   28.4070   33.9990 C   0  0  0  0  0  0  0  0  0  0  0  0
   37.3560   27.5560   31.4810 O   0  0  0  0  0  0  0  0  0  0  0  0
   36.7060   26.3690   31.3420 C   0  0  0  0  0  0  0  0  0  0  0  0
   37.5220   25.2880   31.6730 C   0  0  0  0  0  0  0  0  0  0  0  0
   37.0440   23.9980   31.5960 C   0  0  0  0  0  0  0  0  0  0  0  0
   35.7400   23.8350   31.1820 N   0  0  0  0  0  0  0  0  0  0  0  0
   34.9660   24.8920   30.8670 C   0  0  0  0  0  0  0  0  0  0  0  0
   35.4480   26.1160   30.9490 N   0  0  0  0  0  0  0  0  0  0  0  0
   37.6030   23.1020   31.8310 H   0  0  0  0  0  0  0  0  0  0  0  0
   33.9850   24.6200   30.5660 H   0  0  0  0  0  0  0  0  0  0  0  0
   39.1350   25.1010   33.5020 C   0  0  0  0  0  0  0  0  0  0  0  0
   38.4180   24.9520   34.5700 O   0  0  0  0  0  0  0  0  0  0  0  0
   38.8410   25.3520   32.1250 N   0  0  0  0  0  0  0  0  0  0  0  0
   39.7460   24.9200   34.3770 H   0  0  0  0  0  0  0  0  0  0  0  0
   39.8260   25.5290   31.9040 H   0  0  0  0  0  0  0  0  0  0  0  0
  1  6  1  0  0  0  0
  1 20  1  0  0  0  0
  2  1  2  0  0  0  0
  3  4  2  0  0  0  0
  3  2  1  0  0  0  0
  4  5  1  0  0  0  0
  5  9  1  0  0  0  0
  5  6  2  0  0  0  0
  6 12  1  0  0  0  0
  7  3  1  0  0  0  0
  8  4  1  0  0  0  0
 10 11  1  0  0  0  0
 11 18  1  0  0  0  0
 12 11  2  0  0  0  0
 12 13  1  0  0  0  0
 13 15  2  0  0  0  0
 14 13  1  0  0  0  0
 15 17  1  0  0  0  0
 15 16  1  0  0  0  0
 18 17  2  0  0  0  0
 20 19  3  0  0  0  0
 21  2  1  0  0  0  0
 22 21  1  0  0  0  0
 22 23  1  0  0  0  0
 23 32  1  0  0  0  0
 24 23  2  0  0  0  0
 24 28  1  0  0  0  0
 25 24  1  0  0  0  0
 26 27  1  0  0  0  0
 26 25  2  0  0  0  0
 27 22  2  0  0  0  0
 29 26  1  0  0  0  0
 30 33  1  0  0  0  0
 30 31  2  0  0  0  0
 32 30  1  0  0  0  0
 34 32  1  0  0  0  0
M  END
>  <minimizedAffinity>
-5.27143002

$$$$

 OpenBabel03272507403D

 34 36  0  0  0  0  0  0  0  0999 V2000
   37.3050   26.1190   31.7880 C   0  0  0  0  0  0  0  0  0  0  0  0
   37.2090   24.7900   32.1120 C   0  0  0  0  0  0  0  0  0  0  0  0
   36.0850   24.0620   31.7600 C   0  0  0  0  0  0  0  0  0  0  0  0
   35.0490   24.6830   31.0730 C   0  0  0  0  0  0  0  0  0  0  0  0
   35.1550   26.0320   30.7480 C   0  0  0  0  0  0  0  0  0  0  0  0
   36.2880   26.7290   31.1130 C   0  0  0  0  0  0  0  0  0  0  0  0
   35.9440   23.0130   31.9840 H   0  0  0  0  0  0  0  0  0  0  0  0
   34.1560   24.1360   30.7840 H   0  0  0  0  0  0  0  0  0  0  0  0
   34.3880   26.5770   30.2150 H   0  0  0  0  0  0  0  0  0  0  0  0
   35.5430   28.7290   32.9110 F   0  0  0  0  0  0  0  0  0  0  0  0
   36.1310   29.1140   31.7480 C   0  0  0  0  0  0  0  0  0  0  0  0
   36.5160   28.1520   30.8270 C   0  0  0  0  0  0  0  0  0  0  0  0
   37.1080   28.5970   29.6640 C   0  0  0  0  0  0  0  0  0  0  0  0
   37.4050   27.8400   28.9550 H   0  0  0  0  0  0  0  0  0  0  0  0
   37.3330   29.9110   29.3720 C   0  0  0  0  0  0  0  0  0  0  0  0
   37.8010   30.2570   28.4540 H   0  0  0  0  0  0  0  0  0  0  0  0
   36.9270   30.8230   30.3310 C   0  0  0  0  0  3  0  0  0  0  0  0
   36.3210   30.4680   31.5350 C   0  0  0  0  0  3  0  0  0  0  0  0
   39.4630   27.3200   32.5320 N   0  0  0  0  0  0  0  0  0  0  0  0
   38.5050   26.7930   32.1920 C   0  0  0  0  0  0  0  0  0  0  0  0
   38.1510   24.0450   32.7880 O   0  0  0  0  0  0  0  0  0  0  0  0
   38.1430   23.8170   34.1290 C   0  0  0  0  0  0  0  0  0  0  0  0
   38.0540   22.4570   34.4240 C   0  0  0  0  0  0  0  0  0  0  0  0
   38.0320   22.0220   35.7310 C   0  0  0  0  0  0  0  0  0  0  0  0
   38.1010   22.9840   36.7150 N   0  0  0  0  0  0  0  0  0  0  0  0
   38.1880   24.2940   36.4100 C   0  0  0  0  0  0  0  0  0  0  0  0
   38.2070   24.6840   35.1520 N   0  0  0  0  0  0  0  0  0  0  0  0
   37.9640   20.9920   36.0530 H   0  0  0  0  0  0  0  0  0  0  0  0
   38.2360   24.9230   37.2650 H   0  0  0  0  0  0  0  0  0  0  0  0
   36.7470   20.8350   33.1430 C   0  0  0  0  0  0  0  0  0  0  0  0
   35.5370   20.9470   33.5910 O   0  0  0  0  0  0  0  0  0  0  0  0
   38.0050   21.4090   33.5030 N   0  0  0  0  0  0  0  0  0  0  0  0
   36.0510   20.2200   32.5860 H   0  0  0  0  0  0  0  0  0  0  0  0
   38.5200   20.7670   32.8920 H   0  0  0  0  0  0  0  0  0  0  0  0
  1  2  1  0  0  0  0
  1 20  1  0  0  0  0
  2 21  1  0  0  0  0
  3  7  1  0  0  0  0
  3  2  2  0  0  0  0
  4  3  1  0  0  0  0
  5  4  2  0  0  0  0
  5  6  1  0  0  0  0
  6  1  2  0  0  0  0
  8  4  1  0  0  0  0
  9  5  1  0  0  0  0
 11 10  1  0  0  0  0
 12  6  1  0  0  0  0
 12 11  2  0  0  0  0
 13 12  1  0  0  0  0
 14 13  1  0  0  0  0
 15 13  2  0  0  0  0
 15 17  1  0  0  0  0
 16 15  1  0  0  0  0
 17 18  2  0  0  0  0
 18 11  1  0  0  0  0
 20 19  3  0  0  0  0
 21 22  1  0  0  0  0
 22 23  2  0  0  0  0
 22 27  1  0  0  0  0
 23 24  1  0  0  0  0
 24 28  1  0  0  0  0
 24 25  2  0  0  0  0
 26 25  1  0  0  0  0
 26 29  1  0  0  0  0
 27 26  2  0  0  0  0
 30 32  1  0  0  0  0
 30 31  2  0  0  0  0
 32 23  1  0  0  0  0
 33 30  1  0  0  0  0
 34 32  1  0  0  0  0
M  END
>  <minimizedAffinity>
-5.26485348

$$$$

 OpenBabel03272507403D

 34 36  0  0  0  0  0  0  0  0999 V2000
   38.1660   25.5710   33.9080 C   0  0  0  0  0  0  0  0  0  0  0  0
   37.4400   26.5800   33.3300 C   0  0  0  0  0  0  0  0  0  0  0  0
   37.1630   27.7380   34.0380 C   0  0  0  0  0  0  0  0  0  0  0  0
   37.6240   27.8750   35.3410 C   0  0  0  0  0  0  0  0  0  0  0  0
   38.3600   26.8460   35.9190 C   0  0  0  0  0  0  0  0  0  0  0  0
   38.6200   25.7070   35.1870 C   0  0  0  0  0  0  0  0  0  0  0  0
   36.5970   28.5710   33.6450 H   0  0  0  0  0  0  0  0  0  0  0  0
   37.4220   28.7730   35.9200 H   0  0  0  0  0  0  0  0  0  0  0  0
   38.7490   26.8870   36.9280 H   0  0  0  0  0  0  0  0  0  0  0  0
   37.4670   23.7850   36.8500 F   0  0  0  0  0  0  0  0  0  0  0  0
   38.7720   23.6220   36.5110 C   0  0  0  0  0  0  0  0  0  0  0  0
   39.3840   24.5540   35.6860 C   0  0  0  0  0  0  0  0  0  0  0  0
   40.7100   24.3420   35.3720 C   0  0  0  0  0  0  0  0  0  0  0  0
   41.1750   25.0730   34.7300 H   0  0  0  0  0  0  0  0  0  0  0  0
   41.4440   23.2820   35.8200 C   0  0  0  0  0  0  0  0  0  0  0  0
   42.4890   23.1180   35.5700 H   0  0  0  0  0  0  0  0  0  0  0  0
   40.7770   22.3870   36.6380 C   0  0  0  0  0  3  0  0  0  0  0  0
   39.4400   22.5170   37.0100 C   0  0  0  0  0  3  0  0  0  0  0  0
   38.5840   23.4910   32.4410 N   0  0  0  0  0  0  0  0  0  0  0  0
   38.4070   24.4100   33.1000 C   0  0  0  0  0  0  0  0  0  0  0  0
   36.9200   26.5850   32.0540 O   0  0  0  0  0  0  0  0  0  0  0  0
   37.5600   27.0750   30.9580 C   0  0  0  0  0  0  0  0  0  0  0  0
   36.8470   28.1130   30.3600 C   0  0  0  0  0  0  0  0  0  0  0  0
   37.3310   28.7420   29.2340 C   0  0  0  0  0  0  0  0  0  0  0  0
   38.5370   28.2980   28.7370 N   0  0  0  0  0  0  0  0  0  0  0  0
   39.2130   27.2930   29.3280 C   0  0  0  0  0  0  0  0  0  0  0  0
   38.7270   26.7090   30.4040 N   0  0  0  0  0  0  0  0  0  0  0  0
   36.8480   29.5520   28.7060 H   0  0  0  0  0  0  0  0  0  0  0  0
   40.1260   27.0570   28.8410 H   0  0  0  0  0  0  0  0  0  0  0  0
   35.6030   29.9560   31.3800 C   0  0  0  0  0  0  0  0  0  0  0  0
   36.5070   30.8000   31.7660 O   0  0  0  0  0  0  0  0  0  0  0  0
   35.6350   28.6490   30.8020 N   0  0  0  0  0  0  0  0  0  0  0  0
   35.1660   30.8640   31.7750 H   0  0  0  0  0  0  0  0  0  0  0  0
   34.6270   28.5210   30.9330 H   0  0  0  0  0  0  0  0  0  0  0  0
  1  6  1  0  0  0  0
  2  1  2  0  0  0  0
  2  3  1  0  0  0  0
  3  4  2  0  0  0  0
  4  5  1  0  0  0  0
  4  8  1  0  0  0  0
  5  9  1  0  0  0  0
  6 12  1  0  0  0  0
  6  5  2  0  0  0  0
  7  3  1  0  0  0  0
 11 10  1  0  0  0  0
 11 18  1  0  0  0  0
 12 11  2  0  0  0  0
 13 12  1  0  0  0  0
 13 15  2  0  0  0  0
 14 13  1  0  0  0  0
 15 17  1  0  0  0  0
 16 15  1  0  0  0  0
 17 18  2  0  0  0  0
 19 20  3  0  0  0  0
 20  1  1  0  0  0  0
 21  2  1  0  0  0  0
 22 21  1  0  0  0  0
 23 32  1  0  0  0  0
 23 22  2  0  0  0  0
 24 23  1  0  0  0  0
 25 24  2  0  0  0  0
 25 26  1  0  0  0  0
 26 27  2  0  0  0  0
 27 22  1  0  0  0  0
 28 24  1  0  0  0  0
 29 26  1  0  0  0  0
 30 31  2  0  0  0  0
 30 33  1  0  0  0  0
 32 34  1  0  0  0  0
 32 30  1  0  0  0  0
M  END
>  <minimizedAffinity>
-5.23223066

$$$$
