
 OpenBabel03272510333D

 28 30  0  0  0  0  0  0  0  0999 V2000
   36.0080   30.1570   46.9540 C   0  0  0  0  0  0  0  0  0  0  0  0
   35.4030   30.1650   45.7070 C   0  0  0  0  0  0  0  0  0  0  0  0
   34.2700   29.4010   45.4790 C   0  0  0  0  0  0  0  0  0  0  0  0
   33.7640   28.6350   46.5220 C   0  0  0  0  0  0  0  0  0  0  0  0
   34.3560   28.6180   47.7660 C   0  0  0  0  0  0  0  0  0  0  0  0
   35.4870   29.3850   47.9860 C   0  0  0  0  0  0  0  0  0  0  0  0
   35.8120   30.7620   44.9240 H   0  0  0  0  0  0  0  0  0  0  0  0
   33.8120   29.4160   44.5110 H   0  0  0  0  0  0  0  0  0  0  0  0
   32.8780   28.0230   46.3850 H   0  0  0  0  0  0  0  0  0  0  0  0
   33.9910   28.0360   48.6000 H   0  0  0  0  0  0  0  0  0  0  0  0
   38.2110   32.7230   48.2970 C   0  0  0  0  0  0  0  0  0  0  0  0
   39.3740   32.6210   47.5220 C   0  0  0  0  0  0  0  0  0  0  0  0
   39.3800   31.6380   46.5190 C   0  0  0  0  0  0  0  0  0  0  0  0
   38.2870   30.8650   46.3630 N   0  0  0  0  0  0  0  0  0  0  0  0
   37.1880   30.9840   47.1170 C   0  0  0  0  0  0  0  0  0  0  0  0
   37.1610   31.9210   48.0870 N   0  0  0  0  0  0  0  0  0  0  0  0
   38.1150   33.4470   49.0900 H   0  0  0  0  0  0  0  0  0  0  0  0
   40.1600   33.2940   47.7560 H   0  0  0  0  0  0  0  0  0  0  0  0
   40.2810   31.5660   45.9250 H   0  0  0  0  0  0  0  0  0  0  0  0
   33.8900   29.8410   50.2250 F   0  0  0  0  0  0  0  0  0  0  0  0
   35.2320   29.6200   50.3390 C   0  0  0  0  0  0  0  0  0  0  0  0
   36.1330   29.3800   49.2970 C   0  0  0  0  0  0  0  0  0  0  0  0
   37.4720   29.1780   49.6270 C   0  0  0  0  0  0  0  0  0  0  0  0
   38.0760   29.0040   48.7640 H   0  0  0  0  0  0  0  0  0  0  0  0
   37.8570   29.2180   50.9290 C   0  0  0  0  0  0  0  0  0  0  0  0
   38.9150   29.0490   51.0780 H   0  0  0  0  0  0  0  0  0  0  0  0
   36.9800   29.4520   51.9680 C   0  0  0  0  0  3  0  0  0  0  0  0
   35.6410   29.6570   51.6550 C   0  0  0  0  0  3  0  0  0  0  0  0
  1 15  1  0  0  0  0
  1  6  1  0  0  0  0
  2  1  2  0  0  0  0
  3  2  1  0  0  0  0
  3  4  2  0  0  0  0
  4  5  1  0  0  0  0
  5  6  2  0  0  0  0
  5 10  1  0  0  0  0
  6 22  1  0  0  0  0
  7  2  1  0  0  0  0
  8  3  1  0  0  0  0
  9  4  1  0  0  0  0
 11 17  1  0  0  0  0
 12 18  1  0  0  0  0
 12 11  2  0  0  0  0
 13 12  1  0  0  0  0
 14 13  2  0  0  0  0
 14 15  1  0  0  0  0
 15 16  2  0  0  0  0
 16 11  1  0  0  0  0
 19 13  1  0  0  0  0
 20 21  1  0  0  0  0
 21 28  1  0  0  0  0
 22 23  1  0  0  0  0
 22 21  2  0  0  0  0
 23 25  2  0  0  0  0
 24 23  1  0  0  0  0
 25 26  1  0  0  0  0
 25 27  1  0  0  0  0
 28 27  2  0  0  0  0
M  END
>  <minimizedAffinity>
-5.0485673

>  <minimizedRMSD>
1.76085293

$$$$
