REMARK  Name = 
REMARK  5 active torsions:
REMARK  status: ('A' for Active; 'I' for Inactive)
REMARK    1  A    between atoms: C_1  and  O_10
REMARK    2  A    between atoms: C_2  and  N_9
REMARK    3  A    between atoms: O_10  and  C_12
REMARK    4  A    between atoms: C_11  and  C_18
REMARK    5  A    between atoms: C_16  and  C_28
REMARK                            x       y       z     vdW  Elec       q    Type
REMARK                         _______ _______ _______ _____ _____    ______ ____
ROOT
ATOM      1  C   UNL     1      38.921  32.547  47.149  0.00  0.00    +0.000 A 
ATOM      2  C   UNL     1      38.198  32.720  48.301  0.00  0.00    +0.000 A 
ATOM      3  C   UNL     1      38.583  33.669  49.234  0.00  0.00    +0.000 A 
ATOM      4  C   UNL     1      39.708  34.449  48.999  0.00  0.00    +0.000 A 
ATOM      5  C   UNL     1      40.435  34.267  47.827  0.00  0.00    +0.000 A 
ATOM      6  C   UNL     1      40.025  33.314  46.918  0.00  0.00    +0.000 A 
ATOM      7  H   UNL     1      38.060  33.857  50.162  0.00  0.00    +0.000 HD
ATOM      8  H   UNL     1      40.032  35.201  49.713  0.00  0.00    +0.000 HD
ATOM      9  H   UNL     1      41.319  34.839  47.581  0.00  0.00    +0.000 HD
ENDROOT
BRANCH   6  12
ATOM     10  F   UNL     1      41.596  31.033  46.572  0.00  0.00    +0.000 F 
ATOM     11  C   UNL     1      41.479  31.884  45.518  0.00  0.00    +0.000 A 
ATOM     12  C   UNL     1      40.708  33.029  45.648  0.00  0.00    +0.000 A 
ATOM     13  C   UNL     1      40.623  33.857  44.549  0.00  0.00    +0.000 A 
ATOM     14  H   UNL     1      40.020  34.745  44.662  0.00  0.00    +0.000 HD
ATOM     15  C   UNL     1      41.244  33.618  43.358  0.00  0.00    +0.000 A 
ATOM     16  H   UNL     1      41.174  34.274  42.494  0.00  0.00    +0.000 HD
ATOM     17  C   UNL     1      41.999  32.460  43.291  0.00  0.00    +0.000 A 
ATOM     18  C   UNL     1      42.144  31.562  44.348  0.00  0.00    +0.000 A 
ENDBRANCH   6  12
BRANCH   1  20
ATOM     19  N   UNL     1      38.081  30.751  45.499  0.00  0.00    +0.000 NA
ATOM     20  C   UNL     1      38.448  31.543  46.240  0.00  0.00    +0.000 C 
ENDBRANCH   1  20
BRANCH   2  21
ATOM     21  O   UNL     1      37.067  32.023  48.668  0.00  0.00    +0.000 OA
BRANCH  21  22
ATOM     22  C   UNL     1      37.032  31.043  49.611  0.00  0.00    +0.000 A 
ATOM     23  C   UNL     1      36.471  29.866  49.117  0.00  0.00    +0.000 A 
ATOM     24  C   UNL     1      36.347  28.755  49.922  0.00  0.00    +0.000 A 
ATOM     25  N   UNL     1      36.798  28.866  51.219  0.00  0.00    +0.000 NA
ATOM     26  C   UNL     1      37.338  30.012  51.679  0.00  0.00    +0.000 A 
ATOM     27  N   UNL     1      37.445  31.060  50.888  0.00  0.00    +0.000 NA
ATOM     28  H   UNL     1      35.926  27.804  49.626  0.00  0.00    +0.000 HD
ATOM     29  H   UNL     1      37.644  29.955  52.694  0.00  0.00    +0.000 HD
BRANCH  23  32
ATOM     30  C   UNL     1      34.625  29.384  47.587  0.00  0.00    +0.000 C 
ATOM     31  O   UNL     1      33.610  29.133  48.351  0.00  0.00    +0.000 OA
ATOM     32  N   UNL     1      36.011  29.648  47.817  0.00  0.00    +0.000 N 
ATOM     33  H   UNL     1      33.716  29.238  47.017  0.00  0.00    +0.000 HD
ATOM     34  H   UNL     1      36.235  29.567  46.820  0.00  0.00    +0.000 HD
ENDBRANCH  23  32
ENDBRANCH  21  22
ENDBRANCH   2  21
TORSDOF 5
