
 OpenBabel03272508483D

 40 44  0  0  0  0  0  0  0  0999 V2000
   35.4550   29.4890   49.6210 C   0  0  0  0  0  0  0  0  0  0  0  0
   36.5010   28.9830   50.3680 C   0  0  0  0  0  0  0  0  0  0  0  0
   37.6270   29.5300   49.7590 C   0  0  0  0  0  0  0  0  0  0  0  0
   37.2310   30.3160   48.7070 C   0  0  0  0  0  0  0  0  0  0  0  0
   35.9210   30.2670   48.6530 O   0  0  0  0  0  0  0  0  0  0  0  0
   36.4170   28.3290   51.2090 H   0  0  0  0  0  0  0  0  0  0  0  0
   38.6420   29.3510   50.0800 H   0  0  0  0  0  0  0  0  0  0  0  0
   38.5370   32.3240   48.1840 C   0  0  0  0  0  0  0  0  0  0  0  0
   38.0860   31.0740   47.8010 C   0  0  0  0  0  0  0  0  0  0  0  0
   38.4280   30.5210   46.5740 C   0  0  0  0  0  0  0  0  0  0  0  0
   39.2410   31.2230   45.6940 C   0  0  0  0  0  0  0  0  0  0  0  0
   39.7360   30.9690   44.4690 N   0  0  0  0  0  0  0  0  0  0  0  0
   40.4600   32.0220   44.1200 N   0  0  0  0  0  0  0  0  0  0  0  0
   40.4400   32.9570   45.1020 C   0  0  0  0  0  0  0  0  0  0  0  0
   39.6560   32.4650   46.1380 C   0  0  0  0  0  0  0  0  0  0  0  0
   39.3590   33.0660   47.3270 C   0  0  0  0  0  0  0  0  0  0  0  0
   38.2550   32.7350   49.1490 H   0  0  0  0  0  0  0  0  0  0  0  0
   38.0850   29.5470   46.2600 H   0  0  0  0  0  0  0  0  0  0  0  0
   39.5530   30.0840   43.9330 H   0  0  0  0  0  0  0  0  0  0  0  0
   40.9760   33.8990   45.0060 H   0  0  0  0  0  0  0  0  0  0  0  0
   39.7290   34.0290   47.5760 H   0  0  0  0  0  0  0  0  0  0  0  0
   34.0550   29.2000   49.8710 C   0  0  0  0  0  0  0  0  0  0  0  0
   33.4920   29.7950   50.8200 O   0  0  0  0  0  0  0  0  0  0  0  0
   31.3280   27.2130   48.4790 C   0  0  0  0  0  0  0  0  0  0  0  0
   31.9690   26.4650   47.4930 C   0  0  0  0  0  0  0  0  0  0  0  0
   33.3160   26.6250   47.2940 C   0  0  0  0  0  0  0  0  0  0  0  0
   33.9560   27.5140   48.0790 N   0  0  0  0  0  0  0  0  0  0  0  0
   33.3350   28.2400   49.0320 C   0  0  0  0  0  0  0  0  0  0  0  0
   32.0160   28.0830   49.2270 N   0  0  0  0  0  0  0  0  0  0  0  0
   30.2690   27.1390   48.6890 H   0  0  0  0  0  0  0  0  0  0  0  0
   31.3960   25.7700   46.9020 H   0  0  0  0  0  0  0  0  0  0  0  0
   34.3830   24.1450   47.8390 F   0  0  0  0  0  0  0  0  0  0  0  0
   34.5820   24.6470   46.5850 C   0  0  0  0  0  0  0  0  0  0  0  0
   34.0590   25.8810   46.2880 C   0  0  0  0  0  0  0  0  0  0  0  0
   34.2970   26.3220   45.0120 C   0  0  0  0  0  0  0  0  0  0  0  0
   33.9160   27.2850   44.7070 H   0  0  0  0  0  0  0  0  0  0  0  0
   35.0110   25.5660   44.1070 C   0  0  0  0  0  0  0  0  0  0  0  0
   35.1760   25.9550   43.1020 H   0  0  0  0  0  0  0  0  0  0  0  0
   35.5260   24.3270   44.4300 C   0  0  0  0  0  3  0  0  0  0  0  0
   35.2980   23.8660   45.7090 C   0  0  0  0  0  3  0  0  0  0  0  0
  1 22  1  0  0  0  0
  1  2  2  0  0  0  0
  2  6  1  0  0  0  0
  3  7  1  0  0  0  0
  3  2  1  0  0  0  0
  4  3  2  0  0  0  0
  5  4  1  0  0  0  0
  5  1  1  0  0  0  0
  8 17  1  0  0  0  0
  9  8  1  0  0  0  0
  9  4  1  0  0  0  0
 10  9  2  0  0  0  0
 11 15  2  0  0  0  0
 11 10  1  0  0  0  0
 12 11  1  0  0  0  0
 13 12  1  0  0  0  0
 13 14  2  0  0  0  0
 14 15  1  0  0  0  0
 15 16  1  0  0  0  0
 16 21  1  0  0  0  0
 16  8  2  0  0  0  0
 18 10  1  0  0  0  0
 19 12  1  0  0  0  0
 20 14  1  0  0  0  0
 22 23  2  0  0  0  0
 24 30  1  0  0  0  0
 24 29  1  0  0  0  0
 25 24  2  0  0  0  0
 26 25  1  0  0  0  0
 26 27  2  0  0  0  0
 27 28  1  0  0  0  0
 28 29  2  0  0  0  0
 28 22  1  0  0  0  0
 31 25  1  0  0  0  0
 33 32  1  0  0  0  0
 34 33  1  0  0  0  0
 34 26  1  0  0  0  0
 35 34  2  0  0  0  0
 36 35  1  0  0  0  0
 37 39  2  0  0  0  0
 37 35  1  0  0  0  0
 38 37  1  0  0  0  0
 39 40  1  0  0  0  0
 40 33  2  0  0  0  0
M  END
>  <minimizedAffinity>
-6.84114075

>  <minimizedRMSD>
0.577438772

$$$$
