
 OpenBabel03272509503D

 33 35  0  0  0  0  0  0  0  0999 V2000
   37.2350   30.1340   51.4570 C   0  0  0  0  0  0  0  0  0  0  0  0
   37.8320   30.7890   50.3470 C   0  0  0  0  0  0  0  0  0  0  0  0
   37.2730   30.5570   49.1040 C   0  0  0  0  0  0  0  0  0  0  0  0
   36.1910   29.7150   49.0540 N   0  0  0  0  0  0  0  0  0  0  0  0
   35.6550   29.1140   50.1140 C   0  0  0  0  0  0  0  0  0  0  0  0
   36.1900   29.3330   51.3300 N   0  0  0  0  0  0  0  0  0  0  0  0
   37.6720   30.3150   52.4340 H   0  0  0  0  0  0  0  0  0  0  0  0
   38.6780   31.4360   50.4560 H   0  0  0  0  0  0  0  0  0  0  0  0
   36.1710   30.1800   46.4520 F   0  0  0  0  0  0  0  0  0  0  0  0
   37.2300   30.9630   46.6100 C   0  0  0  0  0  0  0  0  0  0  0  0
   37.7300   31.1260   47.8600 C   0  0  0  0  0  0  0  0  0  0  0  0
   38.8410   31.9690   47.9010 C   0  0  0  0  0  0  0  0  0  0  0  0
   39.3680   32.2090   48.8380 H   0  0  0  0  0  0  0  0  0  0  0  0
   39.3700   32.5710   46.7820 C   0  0  0  0  0  0  0  0  0  0  0  0
   40.2290   33.2180   46.8480 H   0  0  0  0  0  0  0  0  0  0  0  0
   38.8260   32.3730   45.5430 C   0  0  0  0  0  3  0  0  0  0  0  0
   37.7310   31.5480   45.4670 C   0  0  0  0  0  3  0  0  0  0  0  0
   34.5880   28.3260   49.7970 O   0  0  0  0  0  0  0  0  0  0  0  0
   33.9190   28.5440   48.5610 C   0  0  0  0  0  0  0  0  0  0  0  0
   33.3290   29.4830   48.5620 H   0  0  0  0  0  0  0  0  0  0  0  0
   34.6880   28.6520   47.7670 H   0  0  0  0  0  0  0  0  0  0  0  0
   32.9840   27.4070   48.2720 C   0  0  0  0  0  0  0  0  0  0  0  0
   33.3140   26.9200   47.3380 H   0  0  0  0  0  0  0  0  0  0  0  0
   33.0550   26.6600   49.0980 H   0  0  0  0  0  0  0  0  0  0  0  0
   31.5720   27.8490   48.1450 C   0  0  0  0  0  0  0  0  0  0  0  0
   30.7330   27.6370   49.2340 C   0  0  0  0  0  0  0  0  0  0  0  0
   29.4130   28.0090   49.2180 C   0  0  0  0  0  0  0  0  0  0  0  0
   28.9180   28.5870   48.1340 N   0  0  0  0  0  0  0  0  0  0  0  0
   29.7400   28.7960   47.0630 C   0  0  0  0  0  0  0  0  0  0  0  0
   31.0460   28.4430   47.0450 N   0  0  0  0  0  0  0  0  0  0  0  0
   31.0810   27.1690   50.1480 H   0  0  0  0  0  0  0  0  0  0  0  0
   28.7570   27.8540   50.0420 H   0  0  0  0  0  0  0  0  0  0  0  0
   29.4440   29.2590   46.1290 H   0  0  0  0  0  0  0  0  0  0  0  0
  1  7  1  0  0  0  0
  2  8  1  0  0  0  0
  2  1  2  0  0  0  0
  3  2  1  0  0  0  0
  4  3  2  0  0  0  0
  4  5  1  0  0  0  0
  5  6  2  0  0  0  0
  6  1  1  0  0  0  0
  9 10  1  0  0  0  0
 10 11  1  0  0  0  0
 11 12  2  0  0  0  0
 11  3  1  0  0  0  0
 12 13  1  0  0  0  0
 14 15  1  0  0  0  0
 14 12  1  0  0  0  0
 16 14  2  0  0  0  0
 17 16  1  0  0  0  0
 17 10  2  0  0  0  0
 18  5  1  0  0  0  0
 19 20  1  0  0  0  0
 19 18  1  0  0  0  0
 21 19  1  0  0  0  0
 22 19  1  0  0  0  0
 22 24  1  0  0  0  0
 23 22  1  0  0  0  0
 25 22  1  0  0  0  0
 25 26  1  0  0  0  0
 26 31  1  0  0  0  0
 27 26  2  0  0  0  0
 27 32  1  0  0  0  0
 28 27  1  0  0  0  0
 29 28  2  0  0  0  0
 30 29  1  0  0  0  0
 30 25  2  0  0  0  0
 33 29  1  0  0  0  0
M  END
>  <minimizedAffinity>
-6.1123414

>  <minimizedRMSD>
0.824892521

$$$$
