
 OpenBabel03272510073D

 30 32  0  0  0  0  0  0  0  0999 V2000
   36.6920   30.9270   47.6650 C   0  0  0  0  0  0  0  0  0  0  0  0
   37.0340   31.0580   46.2920 C   0  0  0  0  0  0  0  0  0  0  0  0
   36.2610   30.3820   45.3470 C   0  0  0  0  0  0  0  0  0  0  0  0
   35.2150   29.6270   45.7890 N   0  0  0  0  0  0  0  0  0  0  0  0
   34.9160   29.5210   47.0920 C   0  0  0  0  0  0  0  0  0  0  0  0
   35.6330   30.1570   48.0470 N   0  0  0  0  0  0  0  0  0  0  0  0
   33.7910   28.7040   47.4820 N   0  0  0  0  0  0  0  0  0  0  0  0
   32.4320   28.9890   47.0150 C   0  0  0  0  0  0  0  0  0  0  0  0
   31.6300   27.8150   47.4520 C   0  0  0  0  0  0  0  0  0  0  0  0
   32.6300   26.7750   47.9040 C   0  0  0  0  0  0  0  0  0  0  0  0
   33.8320   27.5490   48.3430 C   0  0  0  0  0  0  0  0  0  0  0  0
   37.2770   31.4400   48.4030 H   0  0  0  0  0  0  0  0  0  0  0  0
   36.5000   30.4650   44.2980 H   0  0  0  0  0  0  0  0  0  0  0  0
   32.1090   29.9620   47.4650 H   0  0  0  0  0  0  0  0  0  0  0  0
   32.4180   29.1560   45.9170 H   0  0  0  0  0  0  0  0  0  0  0  0
   30.9080   28.0670   48.2560 H   0  0  0  0  0  0  0  0  0  0  0  0
   31.0300   27.4810   46.5780 H   0  0  0  0  0  0  0  0  0  0  0  0
   32.9320   26.0960   47.0700 H   0  0  0  0  0  0  0  0  0  0  0  0
   32.1680   26.2400   48.7580 H   0  0  0  0  0  0  0  0  0  0  0  0
   33.7630   27.8260   49.4070 H   0  0  0  0  0  0  0  0  0  0  0  0
   34.7520   26.9400   48.1940 H   0  0  0  0  0  0  0  0  0  0  0  0
   39.1220   31.8400   48.0280 F   0  0  0  0  0  0  0  0  0  0  0  0
   39.1720   32.2530   46.7390 C   0  0  0  0  0  0  0  0  0  0  0  0
   38.1670   31.8820   45.8820 C   0  0  0  0  0  0  0  0  0  0  0  0
   38.1710   32.2790   44.5500 C   0  0  0  0  0  0  0  0  0  0  0  0
   37.3860   31.9990   43.8510 H   0  0  0  0  0  0  0  0  0  0  0  0
   39.1970   33.0670   44.0370 C   0  0  0  0  0  0  0  0  0  0  0  0
   39.2290   33.3940   43.0010 H   0  0  0  0  0  0  0  0  0  0  0  0
   40.2090   33.4370   44.9080 C   0  0  0  0  0  3  0  0  0  0  0  0
   40.2080   33.0450   46.2310 C   0  0  0  0  0  3  0  0  0  0  0  0
  1  6  1  0  0  0  0
  1 12  1  0  0  0  0
  2  1  2  0  0  0  0
  3  4  2  0  0  0  0
  3  2  1  0  0  0  0
  4  5  1  0  0  0  0
  5  7  1  0  0  0  0
  5  6  2  0  0  0  0
  7 11  1  0  0  0  0
  8  9  1  0  0  0  0
  8 14  1  0  0  0  0
  8  7  1  0  0  0  0
  9 10  1  0  0  0  0
  9 16  1  0  0  0  0
 10 11  1  0  0  0  0
 10 19  1  0  0  0  0
 11 20  1  0  0  0  0
 13  3  1  0  0  0  0
 15  8  1  0  0  0  0
 17  9  1  0  0  0  0
 18 10  1  0  0  0  0
 21 11  1  0  0  0  0
 23 22  1  0  0  0  0
 24  2  1  0  0  0  0
 24 23  2  0  0  0  0
 25 24  1  0  0  0  0
 26 25  1  0  0  0  0
 27 25  2  0  0  0  0
 27 29  1  0  0  0  0
 28 27  1  0  0  0  0
 29 30  2  0  0  0  0
 30 23  1  0  0  0  0
M  END
>  <minimizedAffinity>
-5.12929201

>  <minimizedRMSD>
3.53945446

$$$$
