
     RDKit          3D

 32 34  0  0  0  0  0  0  0  0999 V2000
   38.0852   33.1538   49.4927 C   0  0  0  0  0  0  0  0  0  0  0  0
   38.9357   33.0699   48.3594 C   0  0  0  0  0  0  0  0  0  0  0  0
   38.7118   32.0495   47.4333 C   0  0  0  0  0  0  0  0  0  0  0  0
   37.6855   31.1830   47.6643 N   0  0  0  0  0  0  0  0  0  0  0  0
   36.8969   31.2863   48.7450 C   0  0  0  0  0  0  0  0  0  0  0  0
   37.0732   32.2574   49.6713 N   0  0  0  0  0  0  0  0  0  0  0  0
   35.8287   30.3315   48.9188 N   0  0  0  0  0  0  0  0  0  0  0  0
   34.7539   30.1878   47.9338 C   0  0  0  0  0  0  0  0  0  0  0  0
   34.0041   28.9780   48.3680 C   0  0  0  0  0  0  0  0  0  0  0  0
   34.8602   28.3184   49.4255 C   0  0  0  0  0  0  0  0  0  0  0  0
   35.6658   29.4244   50.0269 C   0  0  0  0  0  0  0  0  0  0  0  0
   38.2450   33.9325   50.2129 H   0  0  0  0  0  0  0  0  0  0  0  0
   39.3454   31.9644   46.5627 H   0  0  0  0  0  0  0  0  0  0  0  0
   34.1513   31.1308   47.9411 H   0  0  0  0  0  0  0  0  0  0  0  0
   35.1671   30.1125   46.9062 H   0  0  0  0  0  0  0  0  0  0  0  0
   32.9908   29.2189   48.7506 H   0  0  0  0  0  0  0  0  0  0  0  0
   33.8617   28.3377   47.4698 H   0  0  0  0  0  0  0  0  0  0  0  0
   35.5619   27.5681   48.9848 H   0  0  0  0  0  0  0  0  0  0  0  0
   34.1643   27.8810   50.1695 H   0  0  0  0  0  0  0  0  0  0  0  0
   35.1343   29.8938   50.8687 H   0  0  0  0  0  0  0  0  0  0  0  0
   36.6370   29.0279   50.3993 H   0  0  0  0  0  0  0  0  0  0  0  0
   38.5451   35.8581   48.1161 F   0  0  0  0  0  0  0  0  0  0  0  0
   39.8117   35.3802   48.0515 C   0  0  0  0  0  0  0  0  0  0  0  0
   40.0185   34.0288   48.1679 C   0  0  0  0  0  0  0  0  0  0  0  0
   41.2980   33.4884   48.1084 C   0  0  0  0  0  0  0  0  0  0  0  0
   41.4902   32.4220   48.1978 H   0  0  0  0  0  0  0  0  0  0  0  0
   42.4149   34.3000   47.9287 C   0  0  0  0  0  0  0  0  0  0  0  0
   43.4277   33.9080   47.8781 H   0  0  0  0  0  0  0  0  0  0  0  0
   42.1973   35.6628   47.8121 C   0  0  0  0  0  0  0  0  0  0  0  0
   40.9284   36.2028   47.8707 C   0  0  0  0  0  0  0  0  0  0  0  0
   43.0083   36.3543   47.6713 H   0  0  0  0  0  0  0  0  0  0  0  0
   40.7440   37.2810   47.7795 H   0  0  0  0  0  0  0  0  0  0  0  0
  1  6  2  0
  2  1  1  0
  3  4  1  0
  3  2  2  0
  4  5  2  0
  5  7  1  0
  5  6  1  0
  7 11  1  0
  8  9  1  0
  8  7  1  0
  9 10  1  0
 10 11  1  0
  1 12  1  0
  3 13  1  0
  8 14  1  0
  8 15  1  0
  9 16  1  0
  9 17  1  0
 10 18  1  0
 10 19  1  0
 11 20  1  0
 11 21  1  0
 22 23  1  0
 23 24  2  0
 24 25  1  0
 25 26  1  0
 25 27  2  0
 27 28  1  0
 27 29  1  0
 29 30  2  0
 30 23  1  0
 29 31  1  0
 30 32  1  0
  2 24  1  0
M  ISO  8  12  14  13  14  14  13  15  13  16  13  17  13  18  13  19  13
M  ISO  4  20  13  21  13  26  15  28  16
M  END
>  <DihAtoms>  (1) 
0,1,23,22

>  <DihDeg>  (1) 
134.9949536021357

$$$$
