REMARK  Name = 
REMARK  1 active torsions:
REMARK  status: ('A' for Active; 'I' for Inactive)
REMARK    1  A    between atoms: C_2  and  C_24
REMARK                            x       y       z     vdW  Elec       q    Type
REMARK                         _______ _______ _______ _____ _____    ______ ____
ROOT
ATOM      1  C   UNL     1      38.085  33.154  49.493  0.00  0.00    +0.000 A 
ATOM      2  C   UNL     1      38.936  33.070  48.359  0.00  0.00    +0.000 A 
ATOM      3  C   UNL     1      38.712  32.050  47.433  0.00  0.00    +0.000 A 
ATOM      4  N   UNL     1      37.685  31.183  47.664  0.00  0.00    +0.000 NA
ATOM      5  C   UNL     1      36.897  31.286  48.745  0.00  0.00    +0.000 A 
ATOM      6  N   UNL     1      37.073  32.257  49.671  0.00  0.00    +0.000 NA
ATOM      7  N   UNL     1      35.829  30.331  48.919  0.00  0.00    +0.000 N 
ATOM      8  C   UNL     1      34.754  30.188  47.934  0.00  0.00    +0.000 C 
ATOM      9  C   UNL     1      34.004  28.978  48.368  0.00  0.00    +0.000 C 
ATOM     10  C   UNL     1      34.860  28.318  49.425  0.00  0.00    +0.000 C 
ATOM     11  C   UNL     1      35.666  29.424  50.027  0.00  0.00    +0.000 C 
ATOM     12  H   UNL     1      38.245  33.932  50.213  0.00  0.00    +0.000 HD
ATOM     13  H   UNL     1      39.345  31.964  46.563  0.00  0.00    +0.000 HD
ATOM     14  H   UNL     1      34.151  31.131  47.941  0.00  0.00    +0.000 HD
ATOM     15  H   UNL     1      35.167  30.113  46.906  0.00  0.00    +0.000 HD
ATOM     16  H   UNL     1      32.991  29.219  48.751  0.00  0.00    +0.000 HD
ATOM     17  H   UNL     1      33.862  28.338  47.470  0.00  0.00    +0.000 HD
ATOM     18  H   UNL     1      35.562  27.568  48.985  0.00  0.00    +0.000 HD
ATOM     19  H   UNL     1      34.164  27.881  50.169  0.00  0.00    +0.000 HD
ATOM     20  H   UNL     1      35.134  29.894  50.869  0.00  0.00    +0.000 HD
ATOM     21  H   UNL     1      36.637  29.028  50.399  0.00  0.00    +0.000 HD
ENDROOT
BRANCH   2  24
ATOM     22  F   UNL     1      40.707  33.875  50.409  0.00  0.00    +0.000 F 
ATOM     23  C   UNL     1      40.870  34.409  49.174  0.00  0.00    +0.000 A 
ATOM     24  C   UNL     1      40.019  34.029  48.168  0.00  0.00    +0.000 A 
ATOM     25  C   UNL     1      40.144  34.547  46.884  0.00  0.00    +0.000 A 
ATOM     26  H   UNL     1      39.483  34.263  46.069  0.00  0.00    +0.000 HD
ATOM     27  C   UNL     1      41.138  35.471  46.574  0.00  0.00    +0.000 A 
ATOM     28  H   UNL     1      41.262  35.895  45.581  0.00  0.00    +0.000 HD
ATOM     29  C   UNL     1      41.993  35.850  47.596  0.00  0.00    +0.000 A 
ATOM     30  C   UNL     1      41.872  35.337  48.872  0.00  0.00    +0.000 A 
ENDBRANCH   2  24
TORSDOF 1
