
 OpenBabel03272502033D

 42 46  0  0  0  0  0  0  0  0999 V2000
   37.4480   26.0570   35.3280 C   0  0  0  0  0  0  0  0  0  0  0  0
   36.3860   25.7420   35.2850 H   0  0  0  0  0  0  0  0  0  0  0  0
   37.5990   26.9570   35.9220 H   0  0  0  0  0  0  0  0  0  0  0  0
   38.1710   24.9300   36.0240 C   0  0  0  0  0  0  0  0  0  0  0  0
   37.8300   24.3260   37.2110 C   0  0  0  0  0  0  0  0  0  0  0  0
   38.7590   23.3390   37.4910 C   0  0  0  0  0  0  0  0  0  0  0  0
   39.6420   23.3730   36.4610 N   0  0  0  0  0  0  0  0  0  0  0  0
   39.2920   24.3100   35.6030 N   0  0  0  0  0  0  0  0  0  0  0  0
   40.9960   21.4720   37.3530 N   0  0  0  0  0  0  0  0  0  0  0  0
   40.7230   22.4540   36.4860 C   0  0  0  0  0  0  0  0  0  0  0  0
   41.7120   22.4380   35.5600 N   0  0  0  0  0  0  0  0  0  0  0  0
   42.5960   21.4640   35.8350 C   0  0  0  0  0  0  0  0  0  0  0  0
   43.7430   21.0710   35.1930 C   0  0  0  0  0  0  0  0  0  0  0  0
   44.4560   20.0450   35.6920 N   0  0  0  0  0  0  0  0  0  0  0  0
   44.0150   19.4390   36.8090 C   0  0  0  0  0  0  0  0  0  0  0  0
   42.8880   19.8030   37.4660 N   0  0  0  0  0  0  0  0  0  0  0  0
   42.1470   20.8340   36.9880 C   0  0  0  0  0  0  0  0  0  0  0  0
   36.9640   24.5840   37.8290 H   0  0  0  0  0  0  0  0  0  0  0  0
   38.6900   22.7290   38.3810 H   0  0  0  0  0  0  0  0  0  0  0  0
   40.4360   21.2220   38.1750 H   0  0  0  0  0  0  0  0  0  0  0  0
   44.0350   21.6070   34.2990 H   0  0  0  0  0  0  0  0  0  0  0  0
   44.6010   18.6170   37.1940 H   0  0  0  0  0  0  0  0  0  0  0  0
   38.0800   26.1750   33.9720 C   0  0  0  0  0  0  0  0  0  0  0  0
   39.0030   25.5330   33.9160 H   0  0  0  0  0  0  0  0  0  0  0  0
   38.3130   27.2250   33.6890 H   0  0  0  0  0  0  0  0  0  0  0  0
   35.6430   25.9950   31.1970 C   0  0  0  0  0  0  0  0  0  0  0  0
   35.5040   24.6070   31.0330 C   0  0  0  0  0  0  0  0  0  0  0  0
   36.2410   23.7540   31.8680 C   0  0  0  0  0  0  0  0  0  0  0  0
   37.0530   24.2960   32.7960 N   0  0  0  0  0  0  0  0  0  0  0  0
   37.1670   25.6530   32.9310 C   0  0  0  0  0  0  0  0  0  0  0  0
   36.4660   26.4600   32.1370 N   0  0  0  0  0  0  0  0  0  0  0  0
   35.1050   26.7090   30.5880 H   0  0  0  0  0  0  0  0  0  0  0  0
   34.8270   24.3300   30.2620 H   0  0  0  0  0  0  0  0  0  0  0  0
   38.0580   22.1300   30.3770 F   0  0  0  0  0  0  0  0  0  0  0  0
   36.9830   21.5700   30.9570 C   0  0  0  0  0  0  0  0  0  0  0  0
   36.0870   22.3230   31.6830 C   0  0  0  0  0  0  0  0  0  0  0  0
   35.0510   21.5860   32.2020 C   0  0  0  0  0  0  0  0  0  0  0  0
   34.2800   22.0470   32.7890 H   0  0  0  0  0  0  0  0  0  0  0  0
   34.8920   20.2280   32.0330 C   0  0  0  0  0  0  0  0  0  0  0  0
   34.0760   19.6810   32.4480 H   0  0  0  0  0  0  0  0  0  0  0  0
   35.8190   19.5230   31.2970 C   0  0  0  0  0  3  0  0  0  0  0  0
   36.8900   20.2110   30.7460 C   0  0  0  0  0  3  0  0  0  0  0  0
  1  3  1  0  0  0  0
  1  4  1  0  0  0  0
  2  1  1  0  0  0  0
  4  5  1  0  0  0  0
  5  6  2  0  0  0  0
  5 18  1  0  0  0  0
  6 19  1  0  0  0  0
  7 10  1  0  0  0  0
  7  6  1  0  0  0  0
  8  4  2  0  0  0  0
  8  7  1  0  0  0  0
  9 20  1  0  0  0  0
 10  9  1  0  0  0  0
 11 12  1  0  0  0  0
 11 10  2  0  0  0  0
 12 17  1  0  0  0  0
 13 14  1  0  0  0  0
 13 12  2  0  0  0  0
 14 15  2  0  0  0  0
 15 22  1  0  0  0  0
 15 16  1  0  0  0  0
 17  9  1  0  0  0  0
 17 16  2  0  0  0  0
 21 13  1  0  0  0  0
 23  1  1  0  0  0  0
 24 23  1  0  0  0  0
 25 23  1  0  0  0  0
 26 31  1  0  0  0  0
 27 26  2  0  0  0  0
 27 28  1  0  0  0  0
 28 29  2  0  0  0  0
 29 30  1  0  0  0  0
 30 23  1  0  0  0  0
 31 30  2  0  0  0  0
 32 26  1  0  0  0  0
 33 27  1  0  0  0  0
 34 35  1  0  0  0  0
 35 36  1  0  0  0  0
 36 28  1  0  0  0  0
 36 37  2  0  0  0  0
 37 38  1  0  0  0  0
 39 37  1  0  0  0  0
 39 40  1  0  0  0  0
 41 39  2  0  0  0  0
 42 35  2  0  0  0  0
 42 41  1  0  0  0  0
M  END
>  <minimizedAffinity>
-6.89897919

$$$$

 OpenBabel03272502033D

 42 46  0  0  0  0  0  0  0  0999 V2000
   37.4260   25.9600   35.9310 C   0  0  0  0  0  0  0  0  0  0  0  0
   36.3600   25.6980   36.0900 H   0  0  0  0  0  0  0  0  0  0  0  0
   37.7230   26.8640   36.4590 H   0  0  0  0  0  0  0  0  0  0  0  0
   38.2110   24.8130   36.5210 C   0  0  0  0  0  0  0  0  0  0  0  0
   37.9870   24.1770   37.7190 C   0  0  0  0  0  0  0  0  0  0  0  0
   38.9360   23.1820   37.8780 C   0  0  0  0  0  0  0  0  0  0  0  0
   39.7120   23.2440   36.7670 N   0  0  0  0  0  0  0  0  0  0  0  0
   39.2820   24.2040   35.9740 N   0  0  0  0  0  0  0  0  0  0  0  0
   41.1410   21.3180   37.4680 N   0  0  0  0  0  0  0  0  0  0  0  0
   40.7870   22.3230   36.6590 C   0  0  0  0  0  0  0  0  0  0  0  0
   41.6780   22.3320   35.6390 N   0  0  0  0  0  0  0  0  0  0  0  0
   42.5820   21.3510   35.7980 C   0  0  0  0  0  0  0  0  0  0  0  0
   43.6580   20.9740   35.0350 C   0  0  0  0  0  0  0  0  0  0  0  0
   44.4130   19.9330   35.4320 N   0  0  0  0  0  0  0  0  0  0  0  0
   44.0830   19.2970   36.5710 C   0  0  0  0  0  0  0  0  0  0  0  0
   43.0280   19.6450   37.3460 N   0  0  0  0  0  0  0  0  0  0  0  0
   42.2470   20.6890   36.9730 C   0  0  0  0  0  0  0  0  0  0  0  0
   37.1880   24.4200   38.4270 H   0  0  0  0  0  0  0  0  0  0  0  0
   38.9540   22.5490   38.7530 H   0  0  0  0  0  0  0  0  0  0  0  0
   40.6640   21.0460   38.3340 H   0  0  0  0  0  0  0  0  0  0  0  0
   43.8610   21.5340   34.1310 H   0  0  0  0  0  0  0  0  0  0  0  0
   44.7020   18.4650   36.8730 H   0  0  0  0  0  0  0  0  0  0  0  0
   37.8050   26.0140   34.4810 C   0  0  0  0  0  0  0  0  0  0  0  0
   37.4060   25.1110   33.9400 H   0  0  0  0  0  0  0  0  0  0  0  0
   38.9010   26.1160   34.3190 H   0  0  0  0  0  0  0  0  0  0  0  0
   36.6290   28.3980   31.9100 C   0  0  0  0  0  0  0  0  0  0  0  0
   35.9890   29.3690   32.6990 C   0  0  0  0  0  0  0  0  0  0  0  0
   35.9660   29.1980   34.0910 C   0  0  0  0  0  0  0  0  0  0  0  0
   36.5600   28.1110   34.6200 N   0  0  0  0  0  0  0  0  0  0  0  0
   37.1760   27.1830   33.8260 C   0  0  0  0  0  0  0  0  0  0  0  0
   37.1950   27.3480   32.5050 N   0  0  0  0  0  0  0  0  0  0  0  0
   36.6830   28.4680   30.8320 H   0  0  0  0  0  0  0  0  0  0  0  0
   35.5680   30.1690   32.1390 H   0  0  0  0  0  0  0  0  0  0  0  0
   33.1290   29.4240   34.3380 F   0  0  0  0  0  0  0  0  0  0  0  0
   33.9280   30.2900   34.9850 C   0  0  0  0  0  0  0  0  0  0  0  0
   35.2990   30.2100   34.8890 C   0  0  0  0  0  0  0  0  0  0  0  0
   35.9530   31.1750   35.6150 C   0  0  0  0  0  0  0  0  0  0  0  0
   37.0250   31.2280   35.6290 H   0  0  0  0  0  0  0  0  0  0  0  0
   35.3330   32.1410   36.3750 C   0  0  0  0  0  0  0  0  0  0  0  0
   35.8660   32.8790   36.9290 H   0  0  0  0  0  0  0  0  0  0  0  0
   33.9560   32.1750   36.4370 C   0  0  0  0  0  3  0  0  0  0  0  0
   33.2370   31.2260   35.7240 C   0  0  0  0  0  3  0  0  0  0  0  0
  1  2  1  0  0  0  0
  1  3  1  0  0  0  0
  1  4  1  0  0  0  0
  4  5  1  0  0  0  0
  5  6  2  0  0  0  0
  5 18  1  0  0  0  0
  6 19  1  0  0  0  0
  7  6  1  0  0  0  0
  8  4  2  0  0  0  0
  8  7  1  0  0  0  0
  9 20  1  0  0  0  0
 10  7  1  0  0  0  0
 10  9  1  0  0  0  0
 11 12  1  0  0  0  0
 11 10  2  0  0  0  0
 12 17  1  0  0  0  0
 13 14  1  0  0  0  0
 13 12  2  0  0  0  0
 14 15  2  0  0  0  0
 15 22  1  0  0  0  0
 15 16  1  0  0  0  0
 17 16  2  0  0  0  0
 17  9  1  0  0  0  0
 21 13  1  0  0  0  0
 23  1  1  0  0  0  0
 24 23  1  0  0  0  0
 25 23  1  0  0  0  0
 26 31  2  0  0  0  0
 26 27  1  0  0  0  0
 27 28  2  0  0  0  0
 28 29  1  0  0  0  0
 28 36  1  0  0  0  0
 30 23  1  0  0  0  0
 30 29  2  0  0  0  0
 31 30  1  0  0  0  0
 32 26  1  0  0  0  0
 33 27  1  0  0  0  0
 34 35  1  0  0  0  0
 35 42  1  0  0  0  0
 36 35  2  0  0  0  0
 36 37  1  0  0  0  0
 37 38  1  0  0  0  0
 37 39  2  0  0  0  0
 39 41  1  0  0  0  0
 39 40  1  0  0  0  0
 42 41  2  0  0  0  0
M  END
>  <minimizedAffinity>
-6.83042097

$$$$

 OpenBabel03272502033D

 42 46  0  0  0  0  0  0  0  0999 V2000
   38.5250   27.1330   34.6680 C   0  0  0  0  0  0  0  0  0  0  0  0
   38.2190   27.8120   35.4900 H   0  0  0  0  0  0  0  0  0  0  0  0
   39.4110   27.4800   34.1410 H   0  0  0  0  0  0  0  0  0  0  0  0
   38.8790   25.8280   35.3380 C   0  0  0  0  0  0  0  0  0  0  0  0
   38.1050   25.1000   36.2100 C   0  0  0  0  0  0  0  0  0  0  0  0
   38.8070   23.9690   36.5900 C   0  0  0  0  0  0  0  0  0  0  0  0
   39.9920   24.0440   35.9340 N   0  0  0  0  0  0  0  0  0  0  0  0
   40.0290   25.1380   35.2010 N   0  0  0  0  0  0  0  0  0  0  0  0
   40.8130   21.8680   36.8470 N   0  0  0  0  0  0  0  0  0  0  0  0
   40.9290   22.9980   36.1400 C   0  0  0  0  0  0  0  0  0  0  0  0
   42.1730   22.9940   35.6050 N   0  0  0  0  0  0  0  0  0  0  0  0
   42.8350   21.8820   35.9680 C   0  0  0  0  0  0  0  0  0  0  0  0
   44.1030   21.4450   35.6770 C   0  0  0  0  0  0  0  0  0  0  0  0
   44.5240   20.2690   36.1800 N   0  0  0  0  0  0  0  0  0  0  0  0
   43.6800   19.5630   36.9550 C   0  0  0  0  0  0  0  0  0  0  0  0
   42.4240   19.9680   37.2600 N   0  0  0  0  0  0  0  0  0  0  0  0
   41.9710   21.1480   36.7680 C   0  0  0  0  0  0  0  0  0  0  0  0
   37.0990   25.3730   36.5470 H   0  0  0  0  0  0  0  0  0  0  0  0
   38.3900   23.2450   37.2760 H   0  0  0  0  0  0  0  0  0  0  0  0
   39.9870   21.5710   37.3770 H   0  0  0  0  0  0  0  0  0  0  0  0
   44.7240   22.0680   35.0460 H   0  0  0  0  0  0  0  0  0  0  0  0
   44.0370   18.6230   37.3490 H   0  0  0  0  0  0  0  0  0  0  0  0
   37.4040   26.8190   33.7220 C   0  0  0  0  0  0  0  0  0  0  0  0
   36.6580   26.1350   34.2160 H   0  0  0  0  0  0  0  0  0  0  0  0
   37.7540   26.3870   32.7580 H   0  0  0  0  0  0  0  0  0  0  0  0
   35.8950   29.6070   31.8200 C   0  0  0  0  0  0  0  0  0  0  0  0
   35.2520   30.3290   32.8400 C   0  0  0  0  0  0  0  0  0  0  0  0
   35.3410   29.8560   34.1580 C   0  0  0  0  0  0  0  0  0  0  0  0
   36.0400   28.7300   34.3960 N   0  0  0  0  0  0  0  0  0  0  0  0
   36.6550   28.0490   33.3810 C   0  0  0  0  0  0  0  0  0  0  0  0
   36.5690   28.5000   32.1320 N   0  0  0  0  0  0  0  0  0  0  0  0
   35.8660   29.9160   30.7830 H   0  0  0  0  0  0  0  0  0  0  0  0
   34.7420   31.1960   32.4970 H   0  0  0  0  0  0  0  0  0  0  0  0
   36.6540   31.7260   35.8730 F   0  0  0  0  0  0  0  0  0  0  0  0
   35.3350   31.5070   36.0070 C   0  0  0  0  0  0  0  0  0  0  0  0
   34.6700   30.6130   35.1980 C   0  0  0  0  0  0  0  0  0  0  0  0
   33.3290   30.5170   35.4780 C   0  0  0  0  0  0  0  0  0  0  0  0
   32.6910   29.8570   34.9220 H   0  0  0  0  0  0  0  0  0  0  0  0
   32.6800   31.2290   36.4620 C   0  0  0  0  0  0  0  0  0  0  0  0
   31.6370   31.1350   36.6580 H   0  0  0  0  0  0  0  0  0  0  0  0
   33.3950   32.1110   37.2440 C   0  0  0  0  0  3  0  0  0  0  0  0
   34.7540   32.2530   37.0100 C   0  0  0  0  0  3  0  0  0  0  0  0
  1  4  1  0  0  0  0
  1  2  1  0  0  0  0
  3  1  1  0  0  0  0
  4  5  1  0  0  0  0
  5 18  1  0  0  0  0
  5  6  2  0  0  0  0
  6 19  1  0  0  0  0
  7 10  1  0  0  0  0
  7  6  1  0  0  0  0
  8  4  2  0  0  0  0
  8  7  1  0  0  0  0
  9 20  1  0  0  0  0
 10  9  1  0  0  0  0
 11 12  1  0  0  0  0
 11 10  2  0  0  0  0
 12 17  1  0  0  0  0
 13 12  2  0  0  0  0
 13 14  1  0  0  0  0
 14 15  2  0  0  0  0
 15 16  1  0  0  0  0
 15 22  1  0  0  0  0
 17  9  1  0  0  0  0
 17 16  2  0  0  0  0
 21 13  1  0  0  0  0
 23 24  1  0  0  0  0
 23  1  1  0  0  0  0
 25 23  1  0  0  0  0
 26 31  2  0  0  0  0
 26 27  1  0  0  0  0
 27 28  2  0  0  0  0
 28 29  1  0  0  0  0
 28 36  1  0  0  0  0
 30 23  1  0  0  0  0
 30 29  2  0  0  0  0
 31 30  1  0  0  0  0
 32 26  1  0  0  0  0
 33 27  1  0  0  0  0
 34 35  1  0  0  0  0
 35 42  1  0  0  0  0
 36 37  1  0  0  0  0
 36 35  2  0  0  0  0
 37 39  2  0  0  0  0
 38 37  1  0  0  0  0
 39 40  1  0  0  0  0
 39 41  1  0  0  0  0
 42 41  2  0  0  0  0
M  END
>  <minimizedAffinity>
-6.59628296

$$$$

 OpenBabel03272502033D

 42 46  0  0  0  0  0  0  0  0999 V2000
   35.8630   28.2170   31.3570 C   0  0  0  0  0  0  0  0  0  0  0  0
   35.2730   27.6410   30.6160 H   0  0  0  0  0  0  0  0  0  0  0  0
   35.2570   28.5970   32.1770 H   0  0  0  0  0  0  0  0  0  0  0  0
   36.8450   27.2300   31.9400 C   0  0  0  0  0  0  0  0  0  0  0  0
   37.8820   26.6030   31.2920 C   0  0  0  0  0  0  0  0  0  0  0  0
   38.5340   25.7760   32.1920 C   0  0  0  0  0  0  0  0  0  0  0  0
   37.8690   25.9270   33.3650 N   0  0  0  0  0  0  0  0  0  0  0  0
   36.8770   26.7810   33.2110 N   0  0  0  0  0  0  0  0  0  0  0  0
   39.3860   24.3760   34.6040 N   0  0  0  0  0  0  0  0  0  0  0  0
   38.3260   25.1830   34.4840 C   0  0  0  0  0  0  0  0  0  0  0  0
   37.7040   25.1860   35.6870 N   0  0  0  0  0  0  0  0  0  0  0  0
   38.3570   24.3940   36.5540 C   0  0  0  0  0  0  0  0  0  0  0  0
   38.1070   24.0860   37.8680 C   0  0  0  0  0  0  0  0  0  0  0  0
   38.9390   23.2490   38.5150 N   0  0  0  0  0  0  0  0  0  0  0  0
   39.9890   22.7400   37.8450 C   0  0  0  0  0  0  0  0  0  0  0  0
   40.2620   23.0250   36.5490 N   0  0  0  0  0  0  0  0  0  0  0  0
   39.4430   23.8660   35.8690 C   0  0  0  0  0  0  0  0  0  0  0  0
   38.1480   26.7380   30.2390 H   0  0  0  0  0  0  0  0  0  0  0  0
   39.3880   25.1810   31.9020 H   0  0  0  0  0  0  0  0  0  0  0  0
   40.0650   24.1610   33.8660 H   0  0  0  0  0  0  0  0  0  0  0  0
   37.2420   24.5340   38.3410 H   0  0  0  0  0  0  0  0  0  0  0  0
   40.6440   22.0700   38.3820 H   0  0  0  0  0  0  0  0  0  0  0  0
   36.6920   29.3000   30.7320 C   0  0  0  0  0  0  0  0  0  0  0  0
   36.3570   29.4830   29.6720 H   0  0  0  0  0  0  0  0  0  0  0  0
   37.7840   29.0910   30.7680 H   0  0  0  0  0  0  0  0  0  0  0  0
   36.7730   32.8920   31.6050 C   0  0  0  0  0  0  0  0  0  0  0  0
   36.0650   32.9040   32.8180 C   0  0  0  0  0  0  0  0  0  0  0  0
   35.5710   31.6900   33.3200 C   0  0  0  0  0  0  0  0  0  0  0  0
   35.7940   30.5600   32.6220 N   0  0  0  0  0  0  0  0  0  0  0  0
   36.4870   30.5820   31.4420 C   0  0  0  0  0  0  0  0  0  0  0  0
   36.9550   31.7350   30.9690 N   0  0  0  0  0  0  0  0  0  0  0  0
   37.1800   33.7910   31.1610 H   0  0  0  0  0  0  0  0  0  0  0  0
   35.9710   33.8690   33.2520 H   0  0  0  0  0  0  0  0  0  0  0  0
   36.7880   32.1270   35.8680 F   0  0  0  0  0  0  0  0  0  0  0  0
   35.4610   31.9340   35.7850 C   0  0  0  0  0  0  0  0  0  0  0  0
   34.8410   31.7210   34.5740 C   0  0  0  0  0  0  0  0  0  0  0  0
   33.4830   31.5440   34.6810 C   0  0  0  0  0  0  0  0  0  0  0  0
   32.8760   31.3680   33.8130 H   0  0  0  0  0  0  0  0  0  0  0  0
   32.7790   31.5700   35.8630 C   0  0  0  0  0  0  0  0  0  0  0  0
   31.7230   31.4280   35.9170 H   0  0  0  0  0  0  0  0  0  0  0  0
   33.4500   31.7870   37.0480 C   0  0  0  0  0  3  0  0  0  0  0  0
   34.8230   31.9740   37.0070 C   0  0  0  0  0  3  0  0  0  0  0  0
  1  4  1  0  0  0  0
  1  3  1  0  0  0  0
  2  1  1  0  0  0  0
  4  8  2  0  0  0  0
  5  4  1  0  0  0  0
  5  6  2  0  0  0  0
  6  7  1  0  0  0  0
  7 10  1  0  0  0  0
  8  7  1  0  0  0  0
  9 17  1  0  0  0  0
 10  9  1  0  0  0  0
 10 11  2  0  0  0  0
 11 12  1  0  0  0  0
 12 13  1  0  0  0  0
 13 21  1  0  0  0  0
 13 14  2  0  0  0  0
 15 22  1  0  0  0  0
 15 14  1  0  0  0  0
 16 15  2  0  0  0  0
 17 16  1  0  0  0  0
 17 12  2  0  0  0  0
 18  5  1  0  0  0  0
 19  6  1  0  0  0  0
 20  9  1  0  0  0  0
 23 25  1  0  0  0  0
 23  1  1  0  0  0  0
 23 30  1  0  0  0  0
 24 23  1  0  0  0  0
 26 27  1  0  0  0  0
 27 33  1  0  0  0  0
 27 28  2  0  0  0  0
 28 36  1  0  0  0  0
 29 28  1  0  0  0  0
 30 29  2  0  0  0  0
 31 30  1  0  0  0  0
 31 26  2  0  0  0  0
 32 26  1  0  0  0  0
 35 34  1  0  0  0  0
 35 42  1  0  0  0  0
 36 37  1  0  0  0  0
 36 35  2  0  0  0  0
 37 39  2  0  0  0  0
 38 37  1  0  0  0  0
 39 40  1  0  0  0  0
 39 41  1  0  0  0  0
 42 41  2  0  0  0  0
M  END
>  <minimizedAffinity>
-6.58099747

$$$$

 OpenBabel03272502033D

 42 46  0  0  0  0  0  0  0  0999 V2000
   36.2580   26.1610   31.7370 C   0  0  0  0  0  0  0  0  0  0  0  0
   36.0200   25.7180   32.7260 H   0  0  0  0  0  0  0  0  0  0  0  0
   35.5560   25.8640   30.9610 H   0  0  0  0  0  0  0  0  0  0  0  0
   36.1200   27.6520   31.9250 C   0  0  0  0  0  0  0  0  0  0  0  0
   36.2690   28.6310   30.9730 C   0  0  0  0  0  0  0  0  0  0  0  0
   36.0580   29.8650   31.5650 C   0  0  0  0  0  0  0  0  0  0  0  0
   35.7860   29.5960   32.8670 N   0  0  0  0  0  0  0  0  0  0  0  0
   35.8240   28.2950   33.0730 N   0  0  0  0  0  0  0  0  0  0  0  0
   35.4330   32.0000   33.4510 N   0  0  0  0  0  0  0  0  0  0  0  0
   35.5260   30.6940   33.7270 C   0  0  0  0  0  0  0  0  0  0  0  0
   35.3170   30.5660   35.0600 N   0  0  0  0  0  0  0  0  0  0  0  0
   35.0960   31.7680   35.6180 C   0  0  0  0  0  0  0  0  0  0  0  0
   34.8410   32.1340   36.9160 C   0  0  0  0  0  0  0  0  0  0  0  0
   34.6550   33.4350   37.2060 N   0  0  0  0  0  0  0  0  0  0  0  0
   34.7260   34.3330   36.2070 C   0  0  0  0  0  0  0  0  0  0  0  0
   34.9760   34.0040   34.9170 N   0  0  0  0  0  0  0  0  0  0  0  0
   35.1680   32.7010   34.5920 C   0  0  0  0  0  0  0  0  0  0  0  0
   36.5140   28.4600   29.9190 H   0  0  0  0  0  0  0  0  0  0  0  0
   36.1250   30.7850   31.0020 H   0  0  0  0  0  0  0  0  0  0  0  0
   35.5420   32.4280   32.5250 H   0  0  0  0  0  0  0  0  0  0  0  0
   34.7990   31.3540   37.6650 H   0  0  0  0  0  0  0  0  0  0  0  0
   34.5730   35.3720   36.4610 H   0  0  0  0  0  0  0  0  0  0  0  0
   37.6800   25.9300   31.3180 C   0  0  0  0  0  0  0  0  0  0  0  0
   37.9850   26.6870   30.5430 H   0  0  0  0  0  0  0  0  0  0  0  0
   37.8640   24.8960   30.9520 H   0  0  0  0  0  0  0  0  0  0  0  0
   40.4100   27.2220   33.4510 C   0  0  0  0  0  0  0  0  0  0  0  0
   40.2420   26.4590   34.6180 C   0  0  0  0  0  0  0  0  0  0  0  0
   39.2030   25.5170   34.6620 C   0  0  0  0  0  0  0  0  0  0  0  0
   38.4070   25.3790   33.5840 N   0  0  0  0  0  0  0  0  0  0  0  0
   38.5960   26.1380   32.4620 C   0  0  0  0  0  0  0  0  0  0  0  0
   39.5820   27.0310   32.4230 N   0  0  0  0  0  0  0  0  0  0  0  0
   41.1900   27.9660   33.3500 H   0  0  0  0  0  0  0  0  0  0  0  0
   40.9470   26.6800   35.3820 H   0  0  0  0  0  0  0  0  0  0  0  0
   40.8110   23.2530   35.3310 F   0  0  0  0  0  0  0  0  0  0  0  0
   39.8370   23.6510   36.1660 C   0  0  0  0  0  0  0  0  0  0  0  0
   39.0430   24.7380   35.8760 C   0  0  0  0  0  0  0  0  0  0  0  0
   38.1020   24.9990   36.8410 C   0  0  0  0  0  0  0  0  0  0  0  0
   37.4160   25.8180   36.7410 H   0  0  0  0  0  0  0  0  0  0  0  0
   37.9390   24.2670   37.9960 C   0  0  0  0  0  0  0  0  0  0  0  0
   37.1980   24.4930   38.7290 H   0  0  0  0  0  0  0  0  0  0  0  0
   38.7620   23.1880   38.2380 C   0  0  0  0  0  3  0  0  0  0  0  0
   39.7340   22.8740   37.3000 C   0  0  0  0  0  3  0  0  0  0  0  0
  1  4  1  0  0  0  0
  1  2  1  0  0  0  0
  3  1  1  0  0  0  0
  4  8  2  0  0  0  0
  5  6  2  0  0  0  0
  5  4  1  0  0  0  0
  6  7  1  0  0  0  0
  7  8  1  0  0  0  0
  7 10  1  0  0  0  0
  9 10  1  0  0  0  0
  9 17  1  0  0  0  0
 10 11  2  0  0  0  0
 11 12  1  0  0  0  0
 12 13  1  0  0  0  0
 13 14  2  0  0  0  0
 13 21  1  0  0  0  0
 15 22  1  0  0  0  0
 15 14  1  0  0  0  0
 16 15  2  0  0  0  0
 17 16  1  0  0  0  0
 17 12  2  0  0  0  0
 18  5  1  0  0  0  0
 19  6  1  0  0  0  0
 20  9  1  0  0  0  0
 23  1  1  0  0  0  0
 23 30  1  0  0  0  0
 24 23  1  0  0  0  0
 25 23  1  0  0  0  0
 26 27  1  0  0  0  0
 27 28  2  0  0  0  0
 27 33  1  0  0  0  0
 28 36  1  0  0  0  0
 29 28  1  0  0  0  0
 30 29  2  0  0  0  0
 31 30  1  0  0  0  0
 31 26  2  0  0  0  0
 32 26  1  0  0  0  0
 34 35  1  0  0  0  0
 35 42  1  0  0  0  0
 36 35  2  0  0  0  0
 36 37  1  0  0  0  0
 37 39  2  0  0  0  0
 38 37  1  0  0  0  0
 39 41  1  0  0  0  0
 39 40  1  0  0  0  0
 42 41  2  0  0  0  0
M  END
>  <minimizedAffinity>
-6.41654062

$$$$

 OpenBabel03272502033D

 42 46  0  0  0  0  0  0  0  0999 V2000
   38.4750   27.4960   31.1190 C   0  0  0  0  0  0  0  0  0  0  0  0
   38.2050   26.6610   30.4410 H   0  0  0  0  0  0  0  0  0  0  0  0
   38.8970   28.3490   30.5920 H   0  0  0  0  0  0  0  0  0  0  0  0
   37.1730   27.9450   31.7370 C   0  0  0  0  0  0  0  0  0  0  0  0
   35.9020   27.5860   31.3580 C   0  0  0  0  0  0  0  0  0  0  0  0
   34.9940   28.2230   32.1870 C   0  0  0  0  0  0  0  0  0  0  0  0
   35.7450   28.9530   33.0490 N   0  0  0  0  0  0  0  0  0  0  0  0
   37.0240   28.7860   32.7800 N   0  0  0  0  0  0  0  0  0  0  0  0
   33.7600   29.8050   34.3040 N   0  0  0  0  0  0  0  0  0  0  0  0
   35.0660   29.7240   34.0290 C   0  0  0  0  0  0  0  0  0  0  0  0
   35.6960   30.5520   34.8960 N   0  0  0  0  0  0  0  0  0  0  0  0
   34.8050   31.1490   35.7050 C   0  0  0  0  0  0  0  0  0  0  0  0
   34.9670   32.0550   36.7230 C   0  0  0  0  0  0  0  0  0  0  0  0
   33.8820   32.5000   37.3850 N   0  0  0  0  0  0  0  0  0  0  0  0
   32.6730   32.0380   37.0200 C   0  0  0  0  0  0  0  0  0  0  0  0
   32.4800   31.1450   36.0200 N   0  0  0  0  0  0  0  0  0  0  0  0
   33.5530   30.6770   35.3340 C   0  0  0  0  0  0  0  0  0  0  0  0
   35.6510   26.9080   30.5360 H   0  0  0  0  0  0  0  0  0  0  0  0
   33.9280   28.0880   32.0730 H   0  0  0  0  0  0  0  0  0  0  0  0
   33.0110   29.2970   33.8220 H   0  0  0  0  0  0  0  0  0  0  0  0
   35.9720   32.3810   36.9600 H   0  0  0  0  0  0  0  0  0  0  0  0
   31.8150   32.4070   37.5630 H   0  0  0  0  0  0  0  0  0  0  0  0
   39.3450   27.0640   32.2620 C   0  0  0  0  0  0  0  0  0  0  0  0
   39.2130   27.7610   33.1370 H   0  0  0  0  0  0  0  0  0  0  0  0
   40.4200   26.9800   31.9850 H   0  0  0  0  0  0  0  0  0  0  0  0
   38.1160   23.5780   32.3600 C   0  0  0  0  0  0  0  0  0  0  0  0
   38.1910   23.2910   33.7330 C   0  0  0  0  0  0  0  0  0  0  0  0
   38.6600   24.2860   34.6040 C   0  0  0  0  0  0  0  0  0  0  0  0
   39.0180   25.4800   34.0920 N   0  0  0  0  0  0  0  0  0  0  0  0
   38.9330   25.7290   32.7490 C   0  0  0  0  0  0  0  0  0  0  0  0
   38.4880   24.7820   31.9260 N   0  0  0  0  0  0  0  0  0  0  0  0
   37.7650   22.8570   31.6340 H   0  0  0  0  0  0  0  0  0  0  0  0
   37.8740   22.3090   33.9850 H   0  0  0  0  0  0  0  0  0  0  0  0
   40.7000   22.6680   35.7780 F   0  0  0  0  0  0  0  0  0  0  0  0
   39.7310   23.1870   36.5500 C   0  0  0  0  0  0  0  0  0  0  0  0
   38.7330   23.9710   36.0190 C   0  0  0  0  0  0  0  0  0  0  0  0
   37.8300   24.4130   36.9540 C   0  0  0  0  0  0  0  0  0  0  0  0
   37.0000   25.0350   36.6760 H   0  0  0  0  0  0  0  0  0  0  0  0
   37.8870   24.1210   38.2990 C   0  0  0  0  0  0  0  0  0  0  0  0
   37.1720   24.4780   39.0040 H   0  0  0  0  0  0  0  0  0  0  0  0
   38.9100   23.3310   38.7780 C   0  0  0  0  0  3  0  0  0  0  0  0
   39.8540   22.8530   37.8820 C   0  0  0  0  0  3  0  0  0  0  0  0
  1  4  1  0  0  0  0
  1 23  1  0  0  0  0
  2  1  1  0  0  0  0
  3  1  1  0  0  0  0
  4  8  2  0  0  0  0
  5  4  1  0  0  0  0
  5  6  2  0  0  0  0
  6  7  1  0  0  0  0
  7 10  1  0  0  0  0
  8  7  1  0  0  0  0
  9 17  1  0  0  0  0
 10  9  1  0  0  0  0
 10 11  2  0  0  0  0
 11 12  1  0  0  0  0
 12 13  1  0  0  0  0
 13 21  1  0  0  0  0
 13 14  2  0  0  0  0
 15 14  1  0  0  0  0
 15 22  1  0  0  0  0
 16 15  2  0  0  0  0
 17 12  2  0  0  0  0
 17 16  1  0  0  0  0
 18  5  1  0  0  0  0
 19  6  1  0  0  0  0
 20  9  1  0  0  0  0
 23 30  1  0  0  0  0
 23 24  1  0  0  0  0
 25 23  1  0  0  0  0
 26 27  1  0  0  0  0
 27 33  1  0  0  0  0
 27 28  2  0  0  0  0
 28 36  1  0  0  0  0
 29 28  1  0  0  0  0
 30 29  2  0  0  0  0
 31 26  2  0  0  0  0
 31 30  1  0  0  0  0
 32 26  1  0  0  0  0
 34 35  1  0  0  0  0
 35 42  1  0  0  0  0
 36 35  2  0  0  0  0
 36 37  1  0  0  0  0
 37 39  2  0  0  0  0
 38 37  1  0  0  0  0
 39 41  1  0  0  0  0
 39 40  1  0  0  0  0
 42 41  2  0  0  0  0
M  END
>  <minimizedAffinity>
-6.32842541

$$$$

 OpenBabel03272502033D

 42 46  0  0  0  0  0  0  0  0999 V2000
   39.1140   26.7230   35.4940 C   0  0  0  0  0  0  0  0  0  0  0  0
   39.9620   26.3920   34.8610 H   0  0  0  0  0  0  0  0  0  0  0  0
   39.3880   27.5120   36.1900 H   0  0  0  0  0  0  0  0  0  0  0  0
   38.1000   27.2980   34.5350 C   0  0  0  0  0  0  0  0  0  0  0  0
   38.1020   27.2050   33.1630 C   0  0  0  0  0  0  0  0  0  0  0  0
   36.9940   27.8730   32.6700 C   0  0  0  0  0  0  0  0  0  0  0  0
   36.3490   28.3540   33.7630 N   0  0  0  0  0  0  0  0  0  0  0  0
   37.0040   28.0140   34.8550 N   0  0  0  0  0  0  0  0  0  0  0  0
   34.4960   29.3560   32.4210 N   0  0  0  0  0  0  0  0  0  0  0  0
   35.1570   29.0960   33.5530 C   0  0  0  0  0  0  0  0  0  0  0  0
   34.4640   29.6930   34.5520 N   0  0  0  0  0  0  0  0  0  0  0  0
   33.3830   30.3210   34.0620 C   0  0  0  0  0  0  0  0  0  0  0  0
   32.3980   31.0510   34.6790 C   0  0  0  0  0  0  0  0  0  0  0  0
   31.4100   31.5820   33.9350 N   0  0  0  0  0  0  0  0  0  0  0  0
   31.4240   31.3750   32.6060 C   0  0  0  0  0  0  0  0  0  0  0  0
   32.3810   30.6600   31.9670 N   0  0  0  0  0  0  0  0  0  0  0  0
   33.3910   30.1130   32.6890 C   0  0  0  0  0  0  0  0  0  0  0  0
   38.8570   26.6870   32.5630 H   0  0  0  0  0  0  0  0  0  0  0  0
   36.7900   27.9310   31.6110 H   0  0  0  0  0  0  0  0  0  0  0  0
   34.7640   29.0430   31.4810 H   0  0  0  0  0  0  0  0  0  0  0  0
   32.4540   31.1740   35.7530 H   0  0  0  0  0  0  0  0  0  0  0  0
   30.6220   31.8100   32.0270 H   0  0  0  0  0  0  0  0  0  0  0  0
   38.4240   25.5860   36.1880 C   0  0  0  0  0  0  0  0  0  0  0  0
   37.3070   25.6850   36.0800 H   0  0  0  0  0  0  0  0  0  0  0  0
   38.7080   25.4910   37.2590 H   0  0  0  0  0  0  0  0  0  0  0  0
   40.2830   22.5660   35.1430 C   0  0  0  0  0  0  0  0  0  0  0  0
   39.3400   21.9240   34.3230 C   0  0  0  0  0  0  0  0  0  0  0  0
   38.0860   22.5270   34.1390 C   0  0  0  0  0  0  0  0  0  0  0  0
   37.8340   23.6990   34.7530 N   0  0  0  0  0  0  0  0  0  0  0  0
   38.7740   24.3000   35.5460 C   0  0  0  0  0  0  0  0  0  0  0  0
   39.9620   23.7240   35.7180 N   0  0  0  0  0  0  0  0  0  0  0  0
   41.2670   22.1560   35.3270 H   0  0  0  0  0  0  0  0  0  0  0  0
   39.6830   21.0080   33.9070 H   0  0  0  0  0  0  0  0  0  0  0  0
   36.0600   20.7640   35.1130 F   0  0  0  0  0  0  0  0  0  0  0  0
   36.1600   21.0050   33.7950 C   0  0  0  0  0  0  0  0  0  0  0  0
   37.1240   21.8490   33.2900 C   0  0  0  0  0  0  0  0  0  0  0  0
   37.0770   21.9750   31.9240 C   0  0  0  0  0  0  0  0  0  0  0  0
   37.7720   22.6030   31.4000 H   0  0  0  0  0  0  0  0  0  0  0  0
   36.1710   21.3370   31.1070 C   0  0  0  0  0  0  0  0  0  0  0  0
   36.1570   21.4530   30.0470 H   0  0  0  0  0  0  0  0  0  0  0  0
   35.2260   20.5020   31.6650 C   0  0  0  0  0  3  0  0  0  0  0  0
   35.2210   20.3330   33.0420 C   0  0  0  0  0  3  0  0  0  0  0  0
  1 23  1  0  0  0  0
  1  3  1  0  0  0  0
  2  1  1  0  0  0  0
  4  8  2  0  0  0  0
  4  1  1  0  0  0  0
  5  4  1  0  0  0  0
  6  5  2  0  0  0  0
  6  7  1  0  0  0  0
  7  8  1  0  0  0  0
  9 17  1  0  0  0  0
  9 10  1  0  0  0  0
 10  7  1  0  0  0  0
 10 11  2  0  0  0  0
 12 11  1  0  0  0  0
 12 13  1  0  0  0  0
 13 21  1  0  0  0  0
 14 13  2  0  0  0  0
 15 14  1  0  0  0  0
 16 15  2  0  0  0  0
 16 17  1  0  0  0  0
 17 12  2  0  0  0  0
 18  5  1  0  0  0  0
 19  6  1  0  0  0  0
 20  9  1  0  0  0  0
 22 15  1  0  0  0  0
 23 25  1  0  0  0  0
 24 23  1  0  0  0  0
 26 32  1  0  0  0  0
 26 31  1  0  0  0  0
 27 26  2  0  0  0  0
 28 27  1  0  0  0  0
 28 29  2  0  0  0  0
 29 30  1  0  0  0  0
 30 31  2  0  0  0  0
 30 23  1  0  0  0  0
 33 27  1  0  0  0  0
 35 34  1  0  0  0  0
 36 35  1  0  0  0  0
 36 28  1  0  0  0  0
 37 36  2  0  0  0  0
 38 37  1  0  0  0  0
 39 41  2  0  0  0  0
 39 37  1  0  0  0  0
 40 39  1  0  0  0  0
 41 42  1  0  0  0  0
 42 35  2  0  0  0  0
M  END
>  <minimizedAffinity>
-6.30298519

$$$$

 OpenBabel03272502033D

 42 46  0  0  0  0  0  0  0  0999 V2000
   38.5220   27.5000   30.4980 C   0  0  0  0  0  0  0  0  0  0  0  0
   38.2220   27.4970   29.4310 H   0  0  0  0  0  0  0  0  0  0  0  0
   39.2450   28.2790   30.7320 H   0  0  0  0  0  0  0  0  0  0  0  0
   37.2610   27.8080   31.2680 C   0  0  0  0  0  0  0  0  0  0  0  0
   36.0120   27.2690   31.0730 C   0  0  0  0  0  0  0  0  0  0  0  0
   35.1390   27.8250   31.9930 C   0  0  0  0  0  0  0  0  0  0  0  0
   35.8880   28.6910   32.7220 N   0  0  0  0  0  0  0  0  0  0  0  0
   37.1330   28.6770   32.2910 N   0  0  0  0  0  0  0  0  0  0  0  0
   33.9810   29.3430   34.1980 N   0  0  0  0  0  0  0  0  0  0  0  0
   35.2410   29.4170   33.7550 C   0  0  0  0  0  0  0  0  0  0  0  0
   35.8580   30.3640   34.5010 N   0  0  0  0  0  0  0  0  0  0  0  0
   35.0050   30.8820   35.4000 C   0  0  0  0  0  0  0  0  0  0  0  0
   35.1710   31.8530   36.3560 C   0  0  0  0  0  0  0  0  0  0  0  0
   34.1290   32.1880   37.1390 N   0  0  0  0  0  0  0  0  0  0  0  0
   32.9560   31.5550   36.9550 C   0  0  0  0  0  0  0  0  0  0  0  0
   32.7600   30.5940   36.0210 N   0  0  0  0  0  0  0  0  0  0  0  0
   33.7910   30.2330   35.2150 C   0  0  0  0  0  0  0  0  0  0  0  0
   35.7530   26.5220   30.3160 H   0  0  0  0  0  0  0  0  0  0  0  0
   34.0950   27.5480   32.0260 H   0  0  0  0  0  0  0  0  0  0  0  0
   33.2520   28.7180   33.8380 H   0  0  0  0  0  0  0  0  0  0  0  0
   36.1440   32.3180   36.4450 H   0  0  0  0  0  0  0  0  0  0  0  0
   32.1320   31.8380   37.5930 H   0  0  0  0  0  0  0  0  0  0  0  0
   38.9810   26.1560   30.9820 C   0  0  0  0  0  0  0  0  0  0  0  0
   39.7370   25.7230   30.2680 H   0  0  0  0  0  0  0  0  0  0  0  0
   38.1430   25.4420   31.1470 H   0  0  0  0  0  0  0  0  0  0  0  0
   41.3340   27.2470   33.6160 C   0  0  0  0  0  0  0  0  0  0  0  0
   40.9240   26.4590   34.7050 C   0  0  0  0  0  0  0  0  0  0  0  0
   39.8530   25.5710   34.5270 C   0  0  0  0  0  0  0  0  0  0  0  0
   39.2600   25.5040   33.3190 N   0  0  0  0  0  0  0  0  0  0  0  0
   39.6830   26.2840   32.2780 C   0  0  0  0  0  0  0  0  0  0  0  0
   40.6990   27.1270   32.4510 N   0  0  0  0  0  0  0  0  0  0  0  0
   42.1520   27.9520   33.6850 H   0  0  0  0  0  0  0  0  0  0  0  0
   41.4880   26.6220   35.5910 H   0  0  0  0  0  0  0  0  0  0  0  0
   37.7340   26.2840   36.3060 F   0  0  0  0  0  0  0  0  0  0  0  0
   38.4150   25.1420   36.5000 C   0  0  0  0  0  0  0  0  0  0  0  0
   39.4410   24.7660   35.6630 C   0  0  0  0  0  0  0  0  0  0  0  0
   40.0220   23.5730   36.0130 C   0  0  0  0  0  0  0  0  0  0  0  0
   40.8350   23.1620   35.4450 H   0  0  0  0  0  0  0  0  0  0  0  0
   39.6420   22.8010   37.0880 C   0  0  0  0  0  0  0  0  0  0  0  0
   40.1120   21.8770   37.3380 H   0  0  0  0  0  0  0  0  0  0  0  0
   38.6070   23.2240   37.8950 C   0  0  0  0  0  3  0  0  0  0  0  0
   37.9790   24.4230   37.5930 C   0  0  0  0  0  3  0  0  0  0  0  0
  1  3  1  0  0  0  0
  1 23  1  0  0  0  0
  1  4  1  0  0  0  0
  2  1  1  0  0  0  0
  4  8  2  0  0  0  0
  5  4  1  0  0  0  0
  5  6  2  0  0  0  0
  6 19  1  0  0  0  0
  6  7  1  0  0  0  0
  7 10  1  0  0  0  0
  8  7  1  0  0  0  0
  9 17  1  0  0  0  0
 10  9  1  0  0  0  0
 10 11  2  0  0  0  0
 11 12  1  0  0  0  0
 12 13  1  0  0  0  0
 13 21  1  0  0  0  0
 13 14  2  0  0  0  0
 15 14  1  0  0  0  0
 15 22  1  0  0  0  0
 16 15  2  0  0  0  0
 17 12  2  0  0  0  0
 17 16  1  0  0  0  0
 18  5  1  0  0  0  0
 20  9  1  0  0  0  0
 23 25  1  0  0  0  0
 23 30  1  0  0  0  0
 24 23  1  0  0  0  0
 26 32  1  0  0  0  0
 26 27  1  0  0  0  0
 27 33  1  0  0  0  0
 28 27  2  0  0  0  0
 28 36  1  0  0  0  0
 29 28  1  0  0  0  0
 30 31  1  0  0  0  0
 30 29  2  0  0  0  0
 31 26  2  0  0  0  0
 34 35  1  0  0  0  0
 35 42  1  0  0  0  0
 36 37  1  0  0  0  0
 36 35  2  0  0  0  0
 37 39  2  0  0  0  0
 38 37  1  0  0  0  0
 39 40  1  0  0  0  0
 39 41  1  0  0  0  0
 42 41  2  0  0  0  0
M  END
>  <minimizedAffinity>
-6.19792557

$$$$

 OpenBabel03272502033D

 42 46  0  0  0  0  0  0  0  0999 V2000
   37.9400   25.8720   31.9570 C   0  0  0  0  0  0  0  0  0  0  0  0
   38.7740   26.0570   31.2510 H   0  0  0  0  0  0  0  0  0  0  0  0
   38.2810   25.6630   32.9690 H   0  0  0  0  0  0  0  0  0  0  0  0
   37.1580   27.1620   32.0000 C   0  0  0  0  0  0  0  0  0  0  0  0
   36.5920   27.8310   30.9420 C   0  0  0  0  0  0  0  0  0  0  0  0
   35.9680   28.9710   31.4180 C   0  0  0  0  0  0  0  0  0  0  0  0
   36.1760   28.9620   32.7590 N   0  0  0  0  0  0  0  0  0  0  0  0
   36.8760   27.8970   33.0950 N   0  0  0  0  0  0  0  0  0  0  0  0
   34.8740   31.0600   33.1340 N   0  0  0  0  0  0  0  0  0  0  0  0
   35.6390   30.0330   33.5180 C   0  0  0  0  0  0  0  0  0  0  0  0
   35.8420   30.1800   34.8500 N   0  0  0  0  0  0  0  0  0  0  0  0
   35.2170   31.2800   35.3010 C   0  0  0  0  0  0  0  0  0  0  0  0
   35.1370   31.8290   36.5560 C   0  0  0  0  0  0  0  0  0  0  0  0
   34.4300   32.9600   36.7340 N   0  0  0  0  0  0  0  0  0  0  0  0
   33.8240   33.5140   35.6680 C   0  0  0  0  0  0  0  0  0  0  0  0
   33.8840   32.9970   34.4170 N   0  0  0  0  0  0  0  0  0  0  0  0
   34.5890   31.8570   34.2050 C   0  0  0  0  0  0  0  0  0  0  0  0
   36.6280   27.5100   29.8950 H   0  0  0  0  0  0  0  0  0  0  0  0
   35.4520   29.6540   30.7590 H   0  0  0  0  0  0  0  0  0  0  0  0
   34.5410   31.2390   32.1800 H   0  0  0  0  0  0  0  0  0  0  0  0
   35.6520   31.3260   37.3650 H   0  0  0  0  0  0  0  0  0  0  0  0
   33.2620   34.4220   35.8310 H   0  0  0  0  0  0  0  0  0  0  0  0
   36.9810   24.8270   31.4690 C   0  0  0  0  0  0  0  0  0  0  0  0
   37.2830   24.4690   30.4450 H   0  0  0  0  0  0  0  0  0  0  0  0
   35.9230   25.1710   31.4680 H   0  0  0  0  0  0  0  0  0  0  0  0
   36.3860   21.4470   32.8450 C   0  0  0  0  0  0  0  0  0  0  0  0
   37.1810   21.4700   34.0030 C   0  0  0  0  0  0  0  0  0  0  0  0
   37.9080   22.6330   34.2970 C   0  0  0  0  0  0  0  0  0  0  0  0
   37.8150   23.6850   33.4610 N   0  0  0  0  0  0  0  0  0  0  0  0
   37.0310   23.6310   32.3400 C   0  0  0  0  0  0  0  0  0  0  0  0
   36.3430   22.5260   32.0640 N   0  0  0  0  0  0  0  0  0  0  0  0
   35.8010   20.5820   32.5590 H   0  0  0  0  0  0  0  0  0  0  0  0
   37.1530   20.5670   34.5630 H   0  0  0  0  0  0  0  0  0  0  0  0
   37.0870   23.7710   36.7860 F   0  0  0  0  0  0  0  0  0  0  0  0
   38.2970   23.1970   36.6800 C   0  0  0  0  0  0  0  0  0  0  0  0
   38.7250   22.6390   35.4970 C   0  0  0  0  0  0  0  0  0  0  0  0
   39.9860   22.0990   35.5730 C   0  0  0  0  0  0  0  0  0  0  0  0
   40.4420   21.6310   34.7220 H   0  0  0  0  0  0  0  0  0  0  0  0
   40.7720   22.0990   36.7030 C   0  0  0  0  0  0  0  0  0  0  0  0
   41.7490   21.6720   36.7340 H   0  0  0  0  0  0  0  0  0  0  0  0
   40.2930   22.6710   37.8630 C   0  0  0  0  0  3  0  0  0  0  0  0
   39.0260   23.2340   37.8500 C   0  0  0  0  0  3  0  0  0  0  0  0
  1  4  1  0  0  0  0
  1  3  1  0  0  0  0
  2  1  1  0  0  0  0
  4  8  2  0  0  0  0
  5  6  2  0  0  0  0
  5  4  1  0  0  0  0
  6  7  1  0  0  0  0
  7  8  1  0  0  0  0
  7 10  1  0  0  0  0
  9 10  1  0  0  0  0
  9 17  1  0  0  0  0
 10 11  2  0  0  0  0
 11 12  1  0  0  0  0
 12 13  1  0  0  0  0
 13 14  2  0  0  0  0
 13 21  1  0  0  0  0
 15 22  1  0  0  0  0
 15 14  1  0  0  0  0
 16 15  2  0  0  0  0
 17 16  1  0  0  0  0
 17 12  2  0  0  0  0
 18  5  1  0  0  0  0
 19  6  1  0  0  0  0
 20  9  1  0  0  0  0
 23  1  1  0  0  0  0
 23 30  1  0  0  0  0
 24 23  1  0  0  0  0
 25 23  1  0  0  0  0
 26 27  1  0  0  0  0
 27 28  2  0  0  0  0
 27 33  1  0  0  0  0
 28 36  1  0  0  0  0
 29 28  1  0  0  0  0
 30 29  2  0  0  0  0
 31 30  1  0  0  0  0
 31 26  2  0  0  0  0
 32 26  1  0  0  0  0
 35 34  1  0  0  0  0
 35 42  1  0  0  0  0
 36 37  1  0  0  0  0
 36 35  2  0  0  0  0
 37 39  2  0  0  0  0
 38 37  1  0  0  0  0
 39 40  1  0  0  0  0
 39 41  1  0  0  0  0
 42 41  2  0  0  0  0
M  END
>  <minimizedAffinity>
-6.1772089

$$$$
