
 OpenBabel03272500163D

 31 33  0  0  0  0  0  0  0  0999 V2000
   37.4890   27.8700   35.5550 Cl  0  0  0  0  0  0  0  0  0  0  0  0
   37.1970   27.9890   33.8290 C   0  0  0  0  0  0  0  0  0  0  0  0
   36.1850   28.8010   33.3590 C   0  0  0  0  0  0  0  0  0  0  0  0
   35.9300   28.9170   31.9820 C   0  0  0  0  0  0  0  0  0  0  0  0
   36.7190   28.1970   31.1100 C   0  0  0  0  0  0  0  0  0  0  0  0
   37.7400   27.3760   31.5680 C   0  0  0  0  0  0  0  0  0  0  0  0
   38.7100   26.4800   30.4320 Cl  0  0  0  0  0  0  0  0  0  0  0  0
   37.9760   27.2760   32.9480 C   0  0  0  0  0  0  0  0  0  0  0  0
   35.1360   29.5560   31.6070 H   0  0  0  0  0  0  0  0  0  0  0  0
   36.5160   28.2930   30.0540 H   0  0  0  0  0  0  0  0  0  0  0  0
   37.7260   24.5160   33.5530 F   0  0  0  0  0  0  0  0  0  0  0  0
   38.9460   25.0790   33.7690 C   0  0  0  0  0  0  0  0  0  0  0  0
   39.0420   26.4210   33.4670 C   0  0  0  0  0  0  0  0  0  0  0  0
   40.2360   27.1120   33.6430 C   0  0  0  0  0  0  0  0  0  0  0  0
   40.3910   28.1600   33.4310 H   0  0  0  0  0  0  0  0  0  0  0  0
   41.3510   26.4360   34.1330 C   0  0  0  0  0  0  0  0  0  0  0  0
   42.3040   26.9450   34.2840 H   0  0  0  0  0  0  0  0  0  0  0  0
   41.2410   25.0910   34.4320 C   0  0  0  0  0  3  0  0  0  0  0  0
   40.0580   24.4030   34.2580 C   0  0  0  0  0  3  0  0  0  0  0  0
   33.2660   30.0480   35.2220 C   0  0  0  0  0  0  0  0  0  0  0  0
   33.8550   31.0870   35.9880 C   0  0  0  0  0  0  0  0  0  0  0  0
   35.2340   31.3390   35.8540 C   0  0  0  0  0  0  0  0  0  0  0  0
   35.9170   30.5510   34.9790 N   0  0  0  0  0  0  0  0  0  0  0  0
   35.3360   29.5720   34.2620 C   0  0  0  0  0  0  0  0  0  0  0  0
   34.0390   29.3210   34.3770 N   0  0  0  0  0  0  0  0  0  0  0  0
   32.2070   29.8470   35.3190 H   0  0  0  0  0  0  0  0  0  0  0  0
   35.6540   32.1180   36.4340 H   0  0  0  0  0  0  0  0  0  0  0  0
   32.9610   31.8610   36.9070 C   0  0  0  0  0  0  0  0  0  0  0  0
   32.3610   31.0030   37.8300 F   0  0  0  0  0  0  0  0  0  0  0  0
   33.7480   32.7360   37.6260 F   0  0  0  0  0  0  0  0  0  0  0  0
   31.9860   32.5680   36.2490 F   0  0  0  0  0  0  0  0  0  0  0  0
  2  1  1  0  0  0  0
  3  2  1  0  0  0  0
  3 24  1  0  0  0  0
  4  3  2  0  0  0  0
  5  6  2  0  0  0  0
  5  4  1  0  0  0  0
  6  8  1  0  0  0  0
  7  6  1  0  0  0  0
  8 13  1  0  0  0  0
  8  2  2  0  0  0  0
  9  4  1  0  0  0  0
 10  5  1  0  0  0  0
 11 12  1  0  0  0  0
 12 19  1  0  0  0  0
 13 14  1  0  0  0  0
 13 12  2  0  0  0  0
 14 16  2  0  0  0  0
 15 14  1  0  0  0  0
 16 17  1  0  0  0  0
 16 18  1  0  0  0  0
 19 18  2  0  0  0  0
 20 26  1  0  0  0  0
 20 21  1  0  0  0  0
 21 28  1  0  0  0  0
 22 21  2  0  0  0  0
 22 27  1  0  0  0  0
 23 22  1  0  0  0  0
 24 25  1  0  0  0  0
 24 23  2  0  0  0  0
 25 20  2  0  0  0  0
 28 30  1  0  0  0  0
 28 29  1  0  0  0  0
 31 28  1  0  0  0  0
M  END
>  <minimizedAffinity>
-5.66902685

$$$$

 OpenBabel03272500163D

 31 33  0  0  0  0  0  0  0  0999 V2000
   35.3470   28.5930   34.5230 Cl  0  0  0  0  0  0  0  0  0  0  0  0
   35.6880   29.8320   33.3280 C   0  0  0  0  0  0  0  0  0  0  0  0
   36.2550   29.4830   32.1200 C   0  0  0  0  0  0  0  0  0  0  0  0
   36.5360   30.4540   31.1440 C   0  0  0  0  0  0  0  0  0  0  0  0
   36.2310   31.7680   31.4260 C   0  0  0  0  0  0  0  0  0  0  0  0
   35.6610   32.1350   32.6370 C   0  0  0  0  0  0  0  0  0  0  0  0
   35.2940   33.8090   32.9540 Cl  0  0  0  0  0  0  0  0  0  0  0  0
   35.3890   31.1480   33.5960 C   0  0  0  0  0  0  0  0  0  0  0  0
   36.9820   30.1840   30.1910 H   0  0  0  0  0  0  0  0  0  0  0  0
   36.4500   32.5080   30.6700 H   0  0  0  0  0  0  0  0  0  0  0  0
   36.8150   31.9430   35.9160 F   0  0  0  0  0  0  0  0  0  0  0  0
   35.4590   31.8850   36.0240 C   0  0  0  0  0  0  0  0  0  0  0  0
   34.7890   31.4960   34.8840 C   0  0  0  0  0  0  0  0  0  0  0  0
   33.4020   31.3980   34.8650 C   0  0  0  0  0  0  0  0  0  0  0  0
   32.8050   31.1010   34.0140 H   0  0  0  0  0  0  0  0  0  0  0  0
   32.6800   31.6970   36.0180 C   0  0  0  0  0  0  0  0  0  0  0  0
   31.5920   31.6320   36.0410 H   0  0  0  0  0  0  0  0  0  0  0  0
   33.3640   32.0860   37.1540 C   0  0  0  0  0  3  0  0  0  0  0  0
   34.7400   32.1850   37.1750 C   0  0  0  0  0  3  0  0  0  0  0  0
   38.1270   26.3640   31.5590 C   0  0  0  0  0  0  0  0  0  0  0  0
   37.0830   25.4840   31.1740 C   0  0  0  0  0  0  0  0  0  0  0  0
   35.7640   25.9730   31.1150 C   0  0  0  0  0  0  0  0  0  0  0  0
   35.5820   27.2830   31.4380 N   0  0  0  0  0  0  0  0  0  0  0  0
   36.5890   28.0980   31.7990 C   0  0  0  0  0  0  0  0  0  0  0  0
   37.8370   27.6540   31.8600 N   0  0  0  0  0  0  0  0  0  0  0  0
   39.1450   25.9980   31.6070 H   0  0  0  0  0  0  0  0  0  0  0  0
   34.9990   25.3010   30.8260 H   0  0  0  0  0  0  0  0  0  0  0  0
   37.4540   24.0700   30.8510 C   0  0  0  0  0  0  0  0  0  0  0  0
   38.1710   23.5080   31.9080 F   0  0  0  0  0  0  0  0  0  0  0  0
   36.2880   23.3440   30.7260 F   0  0  0  0  0  0  0  0  0  0  0  0
   38.1850   23.9490   29.6960 F   0  0  0  0  0  0  0  0  0  0  0  0
  2  8  1  0  0  0  0
  2  1  1  0  0  0  0
  3  2  2  0  0  0  0
  4  5  2  0  0  0  0
  4  3  1  0  0  0  0
  5  6  1  0  0  0  0
  6  7  1  0  0  0  0
  6  8  2  0  0  0  0
  8 13  1  0  0  0  0
  9  4  1  0  0  0  0
 10  5  1  0  0  0  0
 11 12  1  0  0  0  0
 12 19  1  0  0  0  0
 13 12  2  0  0  0  0
 14 13  1  0  0  0  0
 14 16  2  0  0  0  0
 15 14  1  0  0  0  0
 16 17  1  0  0  0  0
 16 18  1  0  0  0  0
 18 19  2  0  0  0  0
 20 26  1  0  0  0  0
 20 25  1  0  0  0  0
 21 20  2  0  0  0  0
 22 21  1  0  0  0  0
 22 23  2  0  0  0  0
 23 24  1  0  0  0  0
 24 25  2  0  0  0  0
 24  3  1  0  0  0  0
 27 22  1  0  0  0  0
 28 21  1  0  0  0  0
 28 29  1  0  0  0  0
 30 28  1  0  0  0  0
 31 28  1  0  0  0  0
M  END
>  <minimizedAffinity>
-5.65532064

$$$$

 OpenBabel03272500163D

 31 33  0  0  0  0  0  0  0  0999 V2000
   36.7470   27.3670   34.8360 Cl  0  0  0  0  0  0  0  0  0  0  0  0
   36.7760   28.1290   33.2560 C   0  0  0  0  0  0  0  0  0  0  0  0
   36.0230   29.2620   33.0260 C   0  0  0  0  0  0  0  0  0  0  0  0
   36.0290   29.8940   31.7710 C   0  0  0  0  0  0  0  0  0  0  0  0
   36.8100   29.3510   30.7720 C   0  0  0  0  0  0  0  0  0  0  0  0
   37.5720   28.2120   30.9880 C   0  0  0  0  0  0  0  0  0  0  0  0
   38.5400   27.5570   29.6960 Cl  0  0  0  0  0  0  0  0  0  0  0  0
   37.5500   27.5980   32.2490 C   0  0  0  0  0  0  0  0  0  0  0  0
   35.4390   30.7860   31.5850 H   0  0  0  0  0  0  0  0  0  0  0  0
   36.8080   29.8440   29.8110 H   0  0  0  0  0  0  0  0  0  0  0  0
   40.2080   27.5610   33.2380 F   0  0  0  0  0  0  0  0  0  0  0  0
   39.6320   26.3520   32.9940 C   0  0  0  0  0  0  0  0  0  0  0  0
   38.3400   26.3970   32.5140 C   0  0  0  0  0  0  0  0  0  0  0  0
   37.6410   25.2300   32.2270 C   0  0  0  0  0  0  0  0  0  0  0  0
   36.6300   25.1810   31.8490 H   0  0  0  0  0  0  0  0  0  0  0  0
   38.2580   23.9970   32.4260 C   0  0  0  0  0  0  0  0  0  0  0  0
   37.7410   23.0610   32.2120 H   0  0  0  0  0  0  0  0  0  0  0  0
   39.5530   23.9660   32.9070 C   0  0  0  0  0  3  0  0  0  0  0  0
   40.2490   25.1230   33.1940 C   0  0  0  0  0  3  0  0  0  0  0  0
   33.1660   30.0470   35.2090 C   0  0  0  0  0  0  0  0  0  0  0  0
   33.7320   31.0390   36.0530 C   0  0  0  0  0  0  0  0  0  0  0  0
   35.0730   31.4170   35.8590 C   0  0  0  0  0  0  0  0  0  0  0  0
   35.7460   30.7910   34.8540 N   0  0  0  0  0  0  0  0  0  0  0  0
   35.1880   29.8540   34.0670 C   0  0  0  0  0  0  0  0  0  0  0  0
   33.9260   29.4850   34.2360 N   0  0  0  0  0  0  0  0  0  0  0  0
   32.1350   29.7490   35.3510 H   0  0  0  0  0  0  0  0  0  0  0  0
   35.4770   32.1580   36.4980 H   0  0  0  0  0  0  0  0  0  0  0  0
   32.8530   31.6290   37.1120 C   0  0  0  0  0  0  0  0  0  0  0  0
   31.6460   32.0530   36.5530 F   0  0  0  0  0  0  0  0  0  0  0  0
   32.5490   30.6310   38.0140 F   0  0  0  0  0  0  0  0  0  0  0  0
   33.4340   32.6780   37.7790 F   0  0  0  0  0  0  0  0  0  0  0  0
  2  1  1  0  0  0  0
  3  2  1  0  0  0  0
  3 24  1  0  0  0  0
  4  3  2  0  0  0  0
  5  6  2  0  0  0  0
  5  4  1  0  0  0  0
  6  8  1  0  0  0  0
  7  6  1  0  0  0  0
  8 13  1  0  0  0  0
  8  2  2  0  0  0  0
  9  4  1  0  0  0  0
 10  5  1  0  0  0  0
 12 19  1  0  0  0  0
 12 11  1  0  0  0  0
 13 12  2  0  0  0  0
 14 16  2  0  0  0  0
 14 13  1  0  0  0  0
 15 14  1  0  0  0  0
 16 18  1  0  0  0  0
 17 16  1  0  0  0  0
 18 19  2  0  0  0  0
 20 26  1  0  0  0  0
 20 21  1  0  0  0  0
 21 28  1  0  0  0  0
 22 21  2  0  0  0  0
 22 27  1  0  0  0  0
 23 22  1  0  0  0  0
 24 25  1  0  0  0  0
 24 23  2  0  0  0  0
 25 20  2  0  0  0  0
 28 31  1  0  0  0  0
 28 30  1  0  0  0  0
 29 28  1  0  0  0  0
M  END
>  <minimizedAffinity>
-5.63812399

$$$$

 OpenBabel03272500163D

 31 33  0  0  0  0  0  0  0  0999 V2000
   36.5970   27.6810   34.1140 Cl  0  0  0  0  0  0  0  0  0  0  0  0
   36.5170   28.6380   32.6460 C   0  0  0  0  0  0  0  0  0  0  0  0
   35.7720   29.7990   32.6240 C   0  0  0  0  0  0  0  0  0  0  0  0
   35.6930   30.5870   31.4630 C   0  0  0  0  0  0  0  0  0  0  0  0
   36.3800   30.1680   30.3430 C   0  0  0  0  0  0  0  0  0  0  0  0
   37.1330   29.0030   30.3500 C   0  0  0  0  0  0  0  0  0  0  0  0
   37.9820   28.5080   28.9110 Cl  0  0  0  0  0  0  0  0  0  0  0  0
   37.1970   28.2320   31.5210 C   0  0  0  0  0  0  0  0  0  0  0  0
   35.1090   31.5020   31.4400 H   0  0  0  0  0  0  0  0  0  0  0  0
   36.3130   30.7800   29.4560 H   0  0  0  0  0  0  0  0  0  0  0  0
   36.2490   25.6540   30.8140 F   0  0  0  0  0  0  0  0  0  0  0  0
   37.5430   25.7350   31.2290 C   0  0  0  0  0  0  0  0  0  0  0  0
   37.9800   26.9980   31.5660 C   0  0  0  0  0  0  0  0  0  0  0  0
   39.2820   27.2130   32.0030 C   0  0  0  0  0  0  0  0  0  0  0  0
   39.7000   28.1700   32.2860 H   0  0  0  0  0  0  0  0  0  0  0  0
   40.1570   26.1340   32.1020 C   0  0  0  0  0  0  0  0  0  0  0  0
   41.1860   26.2640   32.4410 H   0  0  0  0  0  0  0  0  0  0  0  0
   39.7070   24.8730   31.7600 C   0  0  0  0  0  3  0  0  0  0  0  0
   38.4150   24.6570   31.3260 C   0  0  0  0  0  3  0  0  0  0  0  0
   34.8790   31.5070   35.7590 C   0  0  0  0  0  0  0  0  0  0  0  0
   33.5470   31.0550   35.9470 C   0  0  0  0  0  0  0  0  0  0  0  0
   32.9830   30.1790   35.0010 C   0  0  0  0  0  0  0  0  0  0  0  0
   33.7730   29.8200   33.9520 N   0  0  0  0  0  0  0  0  0  0  0  0
   35.0350   30.2620   33.7950 C   0  0  0  0  0  0  0  0  0  0  0  0
   35.5810   31.0880   34.6770 N   0  0  0  0  0  0  0  0  0  0  0  0
   35.3220   32.1820   36.4810 H   0  0  0  0  0  0  0  0  0  0  0  0
   31.9890   29.8530   35.1580 H   0  0  0  0  0  0  0  0  0  0  0  0
   32.8140   31.5460   37.1570 C   0  0  0  0  0  0  0  0  0  0  0  0
   31.5740   32.0700   36.7870 F   0  0  0  0  0  0  0  0  0  0  0  0
   32.5640   30.4600   37.9690 F   0  0  0  0  0  0  0  0  0  0  0  0
   33.5090   32.4910   37.8680 F   0  0  0  0  0  0  0  0  0  0  0  0
  2  1  1  0  0  0  0
  3  2  1  0  0  0  0
  3 24  1  0  0  0  0
  4  3  2  0  0  0  0
  5  6  2  0  0  0  0
  5  4  1  0  0  0  0
  6  8  1  0  0  0  0
  7  6  1  0  0  0  0
  8 13  1  0  0  0  0
  8  2  2  0  0  0  0
  9  4  1  0  0  0  0
 10  5  1  0  0  0  0
 11 12  1  0  0  0  0
 12 19  2  0  0  0  0
 12 13  1  0  0  0  0
 13 14  2  0  0  0  0
 14 16  1  0  0  0  0
 14 15  1  0  0  0  0
 16 17  1  0  0  0  0
 18 16  2  0  0  0  0
 19 18  1  0  0  0  0
 20 21  1  0  0  0  0
 20 26  1  0  0  0  0
 21 28  1  0  0  0  0
 22 27  1  0  0  0  0
 22 21  2  0  0  0  0
 23 22  1  0  0  0  0
 24 23  2  0  0  0  0
 24 25  1  0  0  0  0
 25 20  2  0  0  0  0
 28 31  1  0  0  0  0
 28 30  1  0  0  0  0
 29 28  1  0  0  0  0
M  END
>  <minimizedAffinity>
-5.61276293

$$$$

 OpenBabel03272500163D

 31 33  0  0  0  0  0  0  0  0999 V2000
   38.3850   26.6340   35.5330 Cl  0  0  0  0  0  0  0  0  0  0  0  0
   37.8700   25.5240   34.2750 C   0  0  0  0  0  0  0  0  0  0  0  0
   37.1190   25.9880   33.2160 C   0  0  0  0  0  0  0  0  0  0  0  0
   36.6960   25.1220   32.1930 C   0  0  0  0  0  0  0  0  0  0  0  0
   37.0510   23.7920   32.2770 C   0  0  0  0  0  0  0  0  0  0  0  0
   37.8060   23.3100   33.3380 C   0  0  0  0  0  0  0  0  0  0  0  0
   38.2290   21.6220   33.4070 Cl  0  0  0  0  0  0  0  0  0  0  0  0
   38.2170   24.1950   34.3460 C   0  0  0  0  0  0  0  0  0  0  0  0
   36.1050   25.4820   31.3570 H   0  0  0  0  0  0  0  0  0  0  0  0
   36.7210   23.1340   31.4870 H   0  0  0  0  0  0  0  0  0  0  0  0
   37.1990   23.5100   36.9040 F   0  0  0  0  0  0  0  0  0  0  0  0
   38.5440   23.3850   36.7300 C   0  0  0  0  0  0  0  0  0  0  0  0
   39.0140   23.7240   35.4790 C   0  0  0  0  0  0  0  0  0  0  0  0
   40.3670   23.6390   35.1740 C   0  0  0  0  0  0  0  0  0  0  0  0
   40.8130   23.8850   34.2210 H   0  0  0  0  0  0  0  0  0  0  0  0
   41.2610   23.2050   36.1510 C   0  0  0  0  0  0  0  0  0  0  0  0
   42.3300   23.1250   35.9490 H   0  0  0  0  0  0  0  0  0  0  0  0
   40.7770   22.8690   37.4000 C   0  0  0  0  0  3  0  0  0  0  0  0
   39.4340   22.9520   37.7050 C   0  0  0  0  0  3  0  0  0  0  0  0
   36.5790   29.3890   31.9160 C   0  0  0  0  0  0  0  0  0  0  0  0
   35.9500   30.0090   33.0270 C   0  0  0  0  0  0  0  0  0  0  0  0
   35.7230   29.2540   34.1930 C   0  0  0  0  0  0  0  0  0  0  0  0
   36.1330   27.9560   34.1710 N   0  0  0  0  0  0  0  0  0  0  0  0
   36.7290   27.3900   33.1050 C   0  0  0  0  0  0  0  0  0  0  0  0
   36.9490   28.0870   31.9990 N   0  0  0  0  0  0  0  0  0  0  0  0
   36.7570   29.9610   31.0150 H   0  0  0  0  0  0  0  0  0  0  0  0
   35.2520   29.7340   35.0100 H   0  0  0  0  0  0  0  0  0  0  0  0
   35.5600   31.4480   32.8870 C   0  0  0  0  0  0  0  0  0  0  0  0
   34.2080   31.6110   33.1940 F   0  0  0  0  0  0  0  0  0  0  0  0
   36.2730   32.1720   33.8180 F   0  0  0  0  0  0  0  0  0  0  0  0
   35.8020   31.9580   31.6360 F   0  0  0  0  0  0  0  0  0  0  0  0
  2  8  1  0  0  0  0
  2  1  1  0  0  0  0
  3  2  2  0  0  0  0
  4  5  2  0  0  0  0
  4  3  1  0  0  0  0
  5  6  1  0  0  0  0
  6  7  1  0  0  0  0
  6  8  2  0  0  0  0
  8 13  1  0  0  0  0
  9  4  1  0  0  0  0
 10  5  1  0  0  0  0
 12 11  1  0  0  0  0
 12 19  1  0  0  0  0
 13 12  2  0  0  0  0
 14 13  1  0  0  0  0
 14 16  2  0  0  0  0
 15 14  1  0  0  0  0
 16 18  1  0  0  0  0
 17 16  1  0  0  0  0
 18 19  2  0  0  0  0
 20 25  2  0  0  0  0
 20 21  1  0  0  0  0
 21 22  2  0  0  0  0
 22 27  1  0  0  0  0
 23 22  1  0  0  0  0
 24  3  1  0  0  0  0
 24 23  2  0  0  0  0
 25 24  1  0  0  0  0
 26 20  1  0  0  0  0
 28 21  1  0  0  0  0
 28 29  1  0  0  0  0
 28 30  1  0  0  0  0
 31 28  1  0  0  0  0
M  END
>  <minimizedAffinity>
-5.60935879

$$$$

 OpenBabel03272500163D

 31 33  0  0  0  0  0  0  0  0999 V2000
   35.6200   28.8770   34.4600 Cl  0  0  0  0  0  0  0  0  0  0  0  0
   36.5820   28.6410   33.0120 C   0  0  0  0  0  0  0  0  0  0  0  0
   37.5170   27.6280   32.9670 C   0  0  0  0  0  0  0  0  0  0  0  0
   38.2990   27.4140   31.8190 C   0  0  0  0  0  0  0  0  0  0  0  0
   38.1070   28.2460   30.7360 C   0  0  0  0  0  0  0  0  0  0  0  0
   37.1710   29.2700   30.7670 C   0  0  0  0  0  0  0  0  0  0  0  0
   36.9640   30.3010   29.3770 Cl  0  0  0  0  0  0  0  0  0  0  0  0
   36.4010   29.4640   31.9240 C   0  0  0  0  0  0  0  0  0  0  0  0
   39.0360   26.6180   31.7780 H   0  0  0  0  0  0  0  0  0  0  0  0
   38.7130   28.0740   29.8580 H   0  0  0  0  0  0  0  0  0  0  0  0
   36.9490   32.1940   32.4660 F   0  0  0  0  0  0  0  0  0  0  0  0
   35.6450   31.8640   32.2550 C   0  0  0  0  0  0  0  0  0  0  0  0
   35.4050   30.5310   31.9930 C   0  0  0  0  0  0  0  0  0  0  0  0
   34.1160   30.0680   31.7590 C   0  0  0  0  0  0  0  0  0  0  0  0
   33.8450   29.0430   31.5480 H   0  0  0  0  0  0  0  0  0  0  0  0
   33.0510   30.9660   31.7900 C   0  0  0  0  0  0  0  0  0  0  0  0
   32.0250   30.6380   31.6110 H   0  0  0  0  0  0  0  0  0  0  0  0
   33.3050   32.2980   32.0540 C   0  0  0  0  0  3  0  0  0  0  0  0
   34.5840   32.7610   32.2860 C   0  0  0  0  0  3  0  0  0  0  0  0
   38.2190   26.3610   36.3500 C   0  0  0  0  0  0  0  0  0  0  0  0
   38.1340   24.9600   36.1400 C   0  0  0  0  0  0  0  0  0  0  0  0
   37.8380   24.4790   34.8510 C   0  0  0  0  0  0  0  0  0  0  0  0
   37.6520   25.4120   33.8770 N   0  0  0  0  0  0  0  0  0  0  0  0
   37.7390   26.7360   34.1010 C   0  0  0  0  0  0  0  0  0  0  0  0
   38.0170   27.2060   35.3090 N   0  0  0  0  0  0  0  0  0  0  0  0
   38.4460   26.7410   37.3380 H   0  0  0  0  0  0  0  0  0  0  0  0
   37.7780   23.4310   34.7150 H   0  0  0  0  0  0  0  0  0  0  0  0
   38.3660   24.0680   37.3210 C   0  0  0  0  0  0  0  0  0  0  0  0
   38.2210   24.7920   38.5050 F   0  0  0  0  0  0  0  0  0  0  0  0
   37.3840   23.1000   37.3200 F   0  0  0  0  0  0  0  0  0  0  0  0
   39.5970   23.4620   37.3110 F   0  0  0  0  0  0  0  0  0  0  0  0
  2  1  1  0  0  0  0
  3  2  1  0  0  0  0
  3 24  1  0  0  0  0
  4  3  2  0  0  0  0
  5  6  2  0  0  0  0
  5  4  1  0  0  0  0
  6  8  1  0  0  0  0
  7  6  1  0  0  0  0
  8 13  1  0  0  0  0
  8  2  2  0  0  0  0
  9  4  1  0  0  0  0
 10  5  1  0  0  0  0
 12 19  1  0  0  0  0
 12 11  1  0  0  0  0
 13 12  2  0  0  0  0
 14 16  2  0  0  0  0
 14 13  1  0  0  0  0
 15 14  1  0  0  0  0
 16 18  1  0  0  0  0
 17 16  1  0  0  0  0
 18 19  2  0  0  0  0
 20 26  1  0  0  0  0
 21 20  1  0  0  0  0
 21 28  1  0  0  0  0
 22 21  2  0  0  0  0
 23 24  2  0  0  0  0
 23 22  1  0  0  0  0
 24 25  1  0  0  0  0
 25 20  2  0  0  0  0
 27 22  1  0  0  0  0
 28 29  1  0  0  0  0
 30 28  1  0  0  0  0
 31 28  1  0  0  0  0
M  END
>  <minimizedAffinity>
-5.52019644

$$$$

 OpenBabel03272500163D

 31 33  0  0  0  0  0  0  0  0999 V2000
   35.0030   28.6760   34.4010 Cl  0  0  0  0  0  0  0  0  0  0  0  0
   35.6850   29.5500   33.0410 C   0  0  0  0  0  0  0  0  0  0  0  0
   36.2480   28.8550   31.9910 C   0  0  0  0  0  0  0  0  0  0  0  0
   36.8000   29.5290   30.8880 C   0  0  0  0  0  0  0  0  0  0  0  0
   36.7640   30.9070   30.8830 C   0  0  0  0  0  0  0  0  0  0  0  0
   36.2020   31.6210   31.9320 C   0  0  0  0  0  0  0  0  0  0  0  0
   36.1820   33.3620   31.8860 Cl  0  0  0  0  0  0  0  0  0  0  0  0
   35.6570   30.9260   33.0220 C   0  0  0  0  0  0  0  0  0  0  0  0
   37.2430   28.9860   30.0590 H   0  0  0  0  0  0  0  0  0  0  0  0
   37.1900   31.4160   30.0310 H   0  0  0  0  0  0  0  0  0  0  0  0
   32.9640   31.8050   33.1630 F   0  0  0  0  0  0  0  0  0  0  0  0
   33.7520   32.0810   34.2380 C   0  0  0  0  0  0  0  0  0  0  0  0
   35.0560   31.6430   34.1460 C   0  0  0  0  0  0  0  0  0  0  0  0
   35.9610   31.8620   35.1780 C   0  0  0  0  0  0  0  0  0  0  0  0
   36.9960   31.5510   35.1820 H   0  0  0  0  0  0  0  0  0  0  0  0
   35.5410   32.5350   36.3240 C   0  0  0  0  0  0  0  0  0  0  0  0
   36.2220   32.7250   37.1540 H   0  0  0  0  0  0  0  0  0  0  0  0
   34.2310   32.9680   36.4040 C   0  0  0  0  0  3  0  0  0  0  0  0
   33.3310   32.7520   35.3800 C   0  0  0  0  0  3  0  0  0  0  0  0
   37.2280   25.3700   32.6550 C   0  0  0  0  0  0  0  0  0  0  0  0
   36.2890   24.6660   31.8580 C   0  0  0  0  0  0  0  0  0  0  0  0
   35.3420   25.3930   31.1130 C   0  0  0  0  0  0  0  0  0  0  0  0
   35.3980   26.7500   31.2120 N   0  0  0  0  0  0  0  0  0  0  0  0
   36.2990   27.3960   31.9750 C   0  0  0  0  0  0  0  0  0  0  0  0
   37.1970   26.7250   32.6830 N   0  0  0  0  0  0  0  0  0  0  0  0
   37.9600   24.8190   33.2320 H   0  0  0  0  0  0  0  0  0  0  0  0
   34.6500   24.8500   30.5250 H   0  0  0  0  0  0  0  0  0  0  0  0
   36.3630   23.1700   31.8600 C   0  0  0  0  0  0  0  0  0  0  0  0
   36.9950   22.7190   30.7000 F   0  0  0  0  0  0  0  0  0  0  0  0
   37.1550   22.7870   32.9220 F   0  0  0  0  0  0  0  0  0  0  0  0
   35.1370   22.5630   31.9700 F   0  0  0  0  0  0  0  0  0  0  0  0
  2  1  1  0  0  0  0
  3  2  2  0  0  0  0
  4  3  1  0  0  0  0
  5  4  2  0  0  0  0
  5  6  1  0  0  0  0
  6  8  2  0  0  0  0
  7  6  1  0  0  0  0
  8  2  1  0  0  0  0
  8 13  1  0  0  0  0
  9  4  1  0  0  0  0
 10  5  1  0  0  0  0
 11 12  1  0  0  0  0
 12 19  1  0  0  0  0
 13 12  2  0  0  0  0
 13 14  1  0  0  0  0
 14 15  1  0  0  0  0
 14 16  2  0  0  0  0
 16 18  1  0  0  0  0
 16 17  1  0  0  0  0
 19 18  2  0  0  0  0
 20 25  1  0  0  0  0
 20 26  1  0  0  0  0
 21 28  1  0  0  0  0
 21 20  2  0  0  0  0
 22 23  2  0  0  0  0
 22 21  1  0  0  0  0
 23 24  1  0  0  0  0
 24  3  1  0  0  0  0
 24 25  2  0  0  0  0
 27 22  1  0  0  0  0
 28 31  1  0  0  0  0
 28 30  1  0  0  0  0
 29 28  1  0  0  0  0
M  END
>  <minimizedAffinity>
-5.49104834

$$$$

 OpenBabel03272500163D

 31 33  0  0  0  0  0  0  0  0999 V2000
   38.6550   26.4670   34.8300 Cl  0  0  0  0  0  0  0  0  0  0  0  0
   37.9420   25.2390   33.7990 C   0  0  0  0  0  0  0  0  0  0  0  0
   37.1900   25.6140   32.7050 C   0  0  0  0  0  0  0  0  0  0  0  0
   36.6090   24.6530   31.8610 C   0  0  0  0  0  0  0  0  0  0  0  0
   36.8110   23.3210   32.1550 C   0  0  0  0  0  0  0  0  0  0  0  0
   37.5640   22.9280   33.2520 C   0  0  0  0  0  0  0  0  0  0  0  0
   37.7910   21.2340   33.5900 Cl  0  0  0  0  0  0  0  0  0  0  0  0
   38.1350   23.9070   34.0810 C   0  0  0  0  0  0  0  0  0  0  0  0
   36.0170   24.9430   30.9980 H   0  0  0  0  0  0  0  0  0  0  0  0
   36.3610   22.5890   31.5010 H   0  0  0  0  0  0  0  0  0  0  0  0
   37.1420   23.5440   36.7130 F   0  0  0  0  0  0  0  0  0  0  0  0
   38.4770   23.3490   36.5330 C   0  0  0  0  0  0  0  0  0  0  0  0
   38.9350   23.5310   35.2450 C   0  0  0  0  0  0  0  0  0  0  0  0
   40.2780   23.3600   34.9310 C   0  0  0  0  0  0  0  0  0  0  0  0
   40.7150   23.4840   33.9500 H   0  0  0  0  0  0  0  0  0  0  0  0
   41.1750   23.0010   35.9350 C   0  0  0  0  0  0  0  0  0  0  0  0
   42.2360   22.8580   35.7270 H   0  0  0  0  0  0  0  0  0  0  0  0
   40.7030   22.8220   37.2220 C   0  0  0  0  0  3  0  0  0  0  0  0
   39.3700   22.9900   37.5360 C   0  0  0  0  0  3  0  0  0  0  0  0
   35.9660   29.0840   32.7860 C   0  0  0  0  0  0  0  0  0  0  0  0
   36.6150   29.6290   31.6490 C   0  0  0  0  0  0  0  0  0  0  0  0
   37.4560   28.8030   30.8800 C   0  0  0  0  0  0  0  0  0  0  0  0
   37.5870   27.5120   31.2910 N   0  0  0  0  0  0  0  0  0  0  0  0
   36.9600   27.0170   32.3750 C   0  0  0  0  0  0  0  0  0  0  0  0
   36.1650   27.7830   33.1100 N   0  0  0  0  0  0  0  0  0  0  0  0
   35.3170   29.7120   33.3840 H   0  0  0  0  0  0  0  0  0  0  0  0
   37.9310   29.2280   30.0350 H   0  0  0  0  0  0  0  0  0  0  0  0
   36.3620   31.0710   31.3330 C   0  0  0  0  0  0  0  0  0  0  0  0
   37.3200   31.5400   30.4320 F   0  0  0  0  0  0  0  0  0  0  0  0
   35.1410   31.1580   30.7000 F   0  0  0  0  0  0  0  0  0  0  0  0
   36.3540   31.8790   32.4420 F   0  0  0  0  0  0  0  0  0  0  0  0
  2  8  1  0  0  0  0
  2  1  1  0  0  0  0
  3  2  2  0  0  0  0
  4  5  2  0  0  0  0
  4  3  1  0  0  0  0
  5  6  1  0  0  0  0
  6  7  1  0  0  0  0
  6  8  2  0  0  0  0
  8 13  1  0  0  0  0
  9  4  1  0  0  0  0
 10  5  1  0  0  0  0
 12 11  1  0  0  0  0
 12 19  1  0  0  0  0
 13 12  2  0  0  0  0
 14 13  1  0  0  0  0
 14 16  2  0  0  0  0
 15 14  1  0  0  0  0
 16 18  1  0  0  0  0
 17 16  1  0  0  0  0
 18 19  2  0  0  0  0
 20 25  1  0  0  0  0
 20 26  1  0  0  0  0
 21 20  2  0  0  0  0
 22 23  2  0  0  0  0
 22 21  1  0  0  0  0
 23 24  1  0  0  0  0
 24  3  1  0  0  0  0
 24 25  2  0  0  0  0
 27 22  1  0  0  0  0
 28 21  1  0  0  0  0
 28 31  1  0  0  0  0
 29 28  1  0  0  0  0
 30 28  1  0  0  0  0
M  END
>  <minimizedAffinity>
-5.42711067

$$$$

 OpenBabel03272500163D

 31 33  0  0  0  0  0  0  0  0999 V2000
   35.8980   25.0290   31.5490 Cl  0  0  0  0  0  0  0  0  0  0  0  0
   37.5230   24.9660   32.2060 C   0  0  0  0  0  0  0  0  0  0  0  0
   38.0640   23.7550   32.5840 C   0  0  0  0  0  0  0  0  0  0  0  0
   39.3640   23.6740   33.1110 C   0  0  0  0  0  0  0  0  0  0  0  0
   40.0870   24.8410   33.2420 C   0  0  0  0  0  0  0  0  0  0  0  0
   39.5560   26.0680   32.8680 C   0  0  0  0  0  0  0  0  0  0  0  0
   40.5030   27.5180   33.0550 Cl  0  0  0  0  0  0  0  0  0  0  0  0
   38.2560   26.1220   32.3440 C   0  0  0  0  0  0  0  0  0  0  0  0
   39.7960   22.7230   33.4080 H   0  0  0  0  0  0  0  0  0  0  0  0
   41.0860   24.7700   33.6480 H   0  0  0  0  0  0  0  0  0  0  0  0
   36.6310   27.7770   33.9790 F   0  0  0  0  0  0  0  0  0  0  0  0
   36.8710   28.2170   32.7130 C   0  0  0  0  0  0  0  0  0  0  0  0
   37.6620   27.3960   31.9380 C   0  0  0  0  0  0  0  0  0  0  0  0
   37.9810   27.7350   30.6280 C   0  0  0  0  0  0  0  0  0  0  0  0
   38.5930   27.1460   29.9590 H   0  0  0  0  0  0  0  0  0  0  0  0
   37.4900   28.9230   30.0910 C   0  0  0  0  0  0  0  0  0  0  0  0
   37.7190   29.2210   29.0670 H   0  0  0  0  0  0  0  0  0  0  0  0
   36.6980   29.7370   30.8780 C   0  0  0  0  0  3  0  0  0  0  0  0
   36.3810   29.4030   32.1790 C   0  0  0  0  0  3  0  0  0  0  0  0
   36.3490   20.8190   31.1730 C   0  0  0  0  0  0  0  0  0  0  0  0
   35.9150   20.1630   32.3540 C   0  0  0  0  0  0  0  0  0  0  0  0
   36.2160   20.7350   33.6040 C   0  0  0  0  0  0  0  0  0  0  0  0
   36.9170   21.9020   33.5900 N   0  0  0  0  0  0  0  0  0  0  0  0
   37.3180   22.5060   32.4560 C   0  0  0  0  0  0  0  0  0  0  0  0
   37.0430   21.9800   31.2700 N   0  0  0  0  0  0  0  0  0  0  0  0
   36.1230   20.3870   30.2070 H   0  0  0  0  0  0  0  0  0  0  0  0
   35.8840   20.2310   34.4730 H   0  0  0  0  0  0  0  0  0  0  0  0
   35.1520   18.8850   32.1940 C   0  0  0  0  0  0  0  0  0  0  0  0
   33.8520   19.1520   31.7610 F   0  0  0  0  0  0  0  0  0  0  0  0
   35.7620   18.1490   31.2000 F   0  0  0  0  0  0  0  0  0  0  0  0
   35.1000   18.1340   33.3420 F   0  0  0  0  0  0  0  0  0  0  0  0
  1  2  1  0  0  0  0
  2  8  2  0  0  0  0
  2  3  1  0  0  0  0
  3  4  2  0  0  0  0
  4  5  1  0  0  0  0
  4  9  1  0  0  0  0
  5 10  1  0  0  0  0
  6  7  1  0  0  0  0
  6  5  2  0  0  0  0
  8  6  1  0  0  0  0
 12 11  1  0  0  0  0
 13  8  1  0  0  0  0
 13 12  2  0  0  0  0
 14 13  1  0  0  0  0
 15 14  1  0  0  0  0
 16 14  2  0  0  0  0
 16 18  1  0  0  0  0
 17 16  1  0  0  0  0
 18 19  2  0  0  0  0
 19 12  1  0  0  0  0
 20 25  2  0  0  0  0
 20 21  1  0  0  0  0
 21 22  2  0  0  0  0
 22 27  1  0  0  0  0
 23 22  1  0  0  0  0
 24  3  1  0  0  0  0
 24 23  2  0  0  0  0
 25 24  1  0  0  0  0
 26 20  1  0  0  0  0
 28 21  1  0  0  0  0
 28 31  1  0  0  0  0
 29 28  1  0  0  0  0
 30 28  1  0  0  0  0
M  END
>  <minimizedAffinity>
-5.38772011

$$$$
