
 OpenBabel03272509503D

 33 35  0  0  0  0  0  0  0  0999 V2000
   37.3300   30.1750   51.5140 C   0  0  0  0  0  0  0  0  0  0  0  0
   38.0730   30.8650   50.5190 C   0  0  0  0  0  0  0  0  0  0  0  0
   37.7100   30.6520   49.2020 C   0  0  0  0  0  0  0  0  0  0  0  0
   36.6640   29.7930   48.9750 N   0  0  0  0  0  0  0  0  0  0  0  0
   35.9880   29.1600   49.9300 C   0  0  0  0  0  0  0  0  0  0  0  0
   36.3320   29.3600   51.2170 N   0  0  0  0  0  0  0  0  0  0  0  0
   37.6140   30.3410   52.5490 H   0  0  0  0  0  0  0  0  0  0  0  0
   38.8800   31.5230   50.7650 H   0  0  0  0  0  0  0  0  0  0  0  0
   38.9410   33.2660   49.0040 F   0  0  0  0  0  0  0  0  0  0  0  0
   38.9170   32.4780   47.9380 C   0  0  0  0  0  0  0  0  0  0  0  0
   38.3350   31.2560   48.0520 C   0  0  0  0  0  0  0  0  0  0  0  0
   38.3700   30.5200   46.8690 C   0  0  0  0  0  0  0  0  0  0  0  0
   37.9420   29.5090   46.7870 H   0  0  0  0  0  0  0  0  0  0  0  0
   38.9380   30.9890   45.7060 C   0  0  0  0  0  0  0  0  0  0  0  0
   38.9480   30.3940   44.8080 H   0  0  0  0  0  0  0  0  0  0  0  0
   39.5130   32.2280   45.6450 C   0  0  0  0  0  3  0  0  0  0  0  0
   39.4970   32.9810   46.7930 C   0  0  0  0  0  3  0  0  0  0  0  0
   34.9960   28.3620   49.4430 O   0  0  0  0  0  0  0  0  0  0  0  0
   34.4470   28.6560   48.1650 C   0  0  0  0  0  0  0  0  0  0  0  0
   33.8420   29.5870   48.1720 H   0  0  0  0  0  0  0  0  0  0  0  0
   35.2870   28.8280   47.4590 H   0  0  0  0  0  0  0  0  0  0  0  0
   33.5650   27.5320   47.7090 C   0  0  0  0  0  0  0  0  0  0  0  0
   33.8860   27.2310   46.6970 H   0  0  0  0  0  0  0  0  0  0  0  0
   33.7070   26.6600   48.3930 H   0  0  0  0  0  0  0  0  0  0  0  0
   32.1270   27.9030   47.6980 C   0  0  0  0  0  0  0  0  0  0  0  0
   31.3540   27.5110   48.7870 C   0  0  0  0  0  0  0  0  0  0  0  0
   30.0180   27.8050   48.8720 C   0  0  0  0  0  0  0  0  0  0  0  0
   29.4410   28.4820   47.8900 N   0  0  0  0  0  0  0  0  0  0  0  0
   30.1970   28.8670   46.8200 C   0  0  0  0  0  0  0  0  0  0  0  0
   31.5180   28.5950   46.7040 N   0  0  0  0  0  0  0  0  0  0  0  0
   31.7710   26.9570   49.6190 H   0  0  0  0  0  0  0  0  0  0  0  0
   29.4120   27.5130   49.6970 H   0  0  0  0  0  0  0  0  0  0  0  0
   29.8320   29.4230   45.9650 H   0  0  0  0  0  0  0  0  0  0  0  0
  1  7  1  0  0  0  0
  2  8  1  0  0  0  0
  2  1  2  0  0  0  0
  3  2  1  0  0  0  0
  4  3  2  0  0  0  0
  4  5  1  0  0  0  0
  5  6  2  0  0  0  0
  6  1  1  0  0  0  0
 10 11  1  0  0  0  0
 10  9  1  0  0  0  0
 11  3  1  0  0  0  0
 12 11  2  0  0  0  0
 13 12  1  0  0  0  0
 14 12  1  0  0  0  0
 15 14  1  0  0  0  0
 16 14  2  0  0  0  0
 16 17  1  0  0  0  0
 17 10  2  0  0  0  0
 18  5  1  0  0  0  0
 19 20  1  0  0  0  0
 19 18  1  0  0  0  0
 21 19  1  0  0  0  0
 22 19  1  0  0  0  0
 22 24  1  0  0  0  0
 23 22  1  0  0  0  0
 25 22  1  0  0  0  0
 25 26  1  0  0  0  0
 26 27  2  0  0  0  0
 26 31  1  0  0  0  0
 27 32  1  0  0  0  0
 28 27  1  0  0  0  0
 29 28  2  0  0  0  0
 30 29  1  0  0  0  0
 30 25  2  0  0  0  0
 33 29  1  0  0  0  0
M  END
>  <minimizedAffinity>
-6.23214769

>  <minimizedRMSD>
1.28672409

$$$$
