
 OpenBabel03272509393D

 30 32  0  0  1  0  0  0  0  0999 V2000
   38.0940   25.1000   33.8510 C   0  0  0  0  0  0  0  0  0  0  0  0
   37.3190   26.1550   33.3350 C   0  0  0  0  0  0  0  0  0  0  0  0
   37.1390   27.3650   34.0180 C   0  0  0  0  0  0  0  0  0  0  0  0
   37.7740   27.5090   35.2730 C   0  0  0  0  0  0  0  0  0  0  0  0
   38.5410   26.4570   35.7760 C   0  0  0  0  0  0  0  0  0  0  0  0
   38.6860   25.2870   35.0660 C   0  0  0  0  0  0  0  0  0  0  0  0
   36.8440   26.0230   32.3740 H   0  0  0  0  0  0  0  0  0  0  0  0
   36.5350   28.1400   33.5780 H   0  0  0  0  0  0  0  0  0  0  0  0
   37.6210   28.4540   35.7830 H   0  0  0  0  0  0  0  0  0  0  0  0
   38.9720   26.6860   36.7390 H   0  0  0  0  0  0  0  0  0  0  0  0
   37.4390   24.0240   37.1240 F   0  0  0  0  0  0  0  0  0  0  0  0
   38.7330   23.7730   36.8060 C   0  0  0  0  0  0  0  0  0  0  0  0
   39.5080   24.3270   35.7750 C   0  0  0  0  0  0  0  0  0  0  0  0
   40.8110   23.8940   35.6700 C   0  0  0  0  0  0  0  0  0  0  0  0
   41.2760   24.4170   34.8240 H   0  0  0  0  0  0  0  0  0  0  0  0
   41.3450   22.9620   36.5280 C   0  0  0  0  0  0  0  0  0  0  0  0
   42.3710   22.7500   36.2910 H   0  0  0  0  0  0  0  0  0  0  0  0
   40.5870   22.4150   37.5410 C   0  0  0  0  0  3  0  0  0  0  0  0
   39.2770   22.8240   37.6780 C   0  0  0  0  0  3  0  0  0  0  0  0
   38.2120   23.8880   33.0640 C   0  0  2  0  0  3  0  0  0  0  0  0
   39.2980   23.8170   32.3790 O   0  0  0  0  0  1  0  0  0  0  0  0
   35.5240   21.8880   31.6890 C   0  0  0  0  0  0  0  0  0  0  0  0
   35.3180   20.8830   32.6530 C   0  0  0  0  0  0  0  0  0  0  0  0
   36.1170   20.9010   33.7950 C   0  0  0  0  0  0  0  0  0  0  0  0
   37.0650   21.8840   33.9430 N   0  0  0  0  0  0  0  0  0  0  0  0
   37.2290   22.8150   33.0110 C   0  0  0  0  0  0  0  0  0  0  0  0
   36.4590   22.8070   31.8980 N   0  0  0  0  0  0  0  0  0  0  0  0
   34.8670   21.8060   30.8350 H   0  0  0  0  0  0  0  0  0  0  0  0
   34.5890   20.0860   32.5910 H   0  0  0  0  0  0  0  0  0  0  0  0
   35.9920   20.1410   34.5710 H   0  0  0  0  0  0  0  0  0  0  0  0
  1  6  1  0  0  0  0
  2  1  2  0  0  0  0
  2  3  1  0  0  0  0
  3  4  2  0  0  0  0
  4  5  1  0  0  0  0
  4  9  1  0  0  0  0
  5 10  1  0  0  0  0
  6 13  1  0  0  0  0
  6  5  2  0  0  0  0
  7  2  1  0  0  0  0
  8  3  1  0  0  0  0
 12 11  1  0  0  0  0
 12 19  1  0  0  0  0
 13 12  2  0  0  0  0
 14 13  1  0  0  0  0
 14 16  2  0  0  0  0
 15 14  1  0  0  0  0
 16 18  1  0  0  0  0
 17 16  1  0  0  0  0
 18 19  2  0  0  0  0
 20 21  1  6  0  0  0
 20  1  1  0  0  0  0
 22 27  2  0  0  0  0
 22 23  1  0  0  0  0
 23 24  2  0  0  0  0
 24 25  1  0  0  0  0
 24 30  1  0  0  0  0
 26 20  1  0  0  0  0
 26 25  2  0  0  0  0
 27 26  1  0  0  0  0
 28 22  1  0  0  0  0
 29 23  1  0  0  0  0
M  END
>  <minimizedAffinity>
-5.64804935

$$$$

 OpenBabel03272509393D

 30 32  0  0  1  0  0  0  0  0999 V2000
   39.0990   26.3340   34.0710 C   0  0  0  0  0  0  0  0  0  0  0  0
   40.3090   26.9730   34.3970 C   0  0  0  0  0  0  0  0  0  0  0  0
   41.2230   27.4010   33.4270 C   0  0  0  0  0  0  0  0  0  0  0  0
   40.8940   27.1720   32.0700 C   0  0  0  0  0  0  0  0  0  0  0  0
   39.6910   26.5380   31.7570 C   0  0  0  0  0  0  0  0  0  0  0  0
   38.8260   26.1350   32.7480 C   0  0  0  0  0  0  0  0  0  0  0  0
   40.5390   27.1370   35.4390 H   0  0  0  0  0  0  0  0  0  0  0  0
   42.1360   27.8850   33.7310 H   0  0  0  0  0  0  0  0  0  0  0  0
   41.6160   27.5130   31.3360 H   0  0  0  0  0  0  0  0  0  0  0  0
   39.5540   26.4200   30.6920 H   0  0  0  0  0  0  0  0  0  0  0  0
   36.9220   27.8350   31.8180 F   0  0  0  0  0  0  0  0  0  0  0  0
   36.7620   26.4890   31.7800 C   0  0  0  0  0  0  0  0  0  0  0  0
   37.6490   25.4880   32.2040 C   0  0  0  0  0  0  0  0  0  0  0  0
   37.2380   24.1820   32.0510 C   0  0  0  0  0  0  0  0  0  0  0  0
   38.0360   23.5280   32.4270 H   0  0  0  0  0  0  0  0  0  0  0  0
   36.0170   23.8570   31.5100 C   0  0  0  0  0  0  0  0  0  0  0  0
   35.8740   22.7940   31.4720 H   0  0  0  0  0  0  0  0  0  0  0  0
   35.1430   24.8380   31.0920 C   0  0  0  0  0  3  0  0  0  0  0  0
   35.5210   26.1580   31.2290 C   0  0  0  0  0  3  0  0  0  0  0  0
   38.2240   25.9270   35.1530 C   0  0  2  0  0  3  0  0  0  0  0  0
   37.1070   26.5620   35.1850 O   0  0  0  0  0  1  0  0  0  0  0  0
   38.0430   24.2040   38.3340 C   0  0  0  0  0  0  0  0  0  0  0  0
   38.8980   23.0970   38.1710 C   0  0  0  0  0  0  0  0  0  0  0  0
   39.5480   22.9490   36.9480 C   0  0  0  0  0  0  0  0  0  0  0  0
   39.3390   23.8730   35.9530 N   0  0  0  0  0  0  0  0  0  0  0  0
   38.5240   24.9030   36.1440 C   0  0  0  0  0  0  0  0  0  0  0  0
   37.8880   25.0570   37.3290 N   0  0  0  0  0  0  0  0  0  0  0  0
   37.5770   24.2480   39.3070 H   0  0  0  0  0  0  0  0  0  0  0  0
   39.1010   22.3390   38.9170 H   0  0  0  0  0  0  0  0  0  0  0  0
   40.2230   22.1050   36.7780 H   0  0  0  0  0  0  0  0  0  0  0  0
  1  2  1  0  0  0  0
  1 20  1  0  0  0  0
  2  7  1  0  0  0  0
  3  8  1  0  0  0  0
  3  2  2  0  0  0  0
  4  3  1  0  0  0  0
  5  4  2  0  0  0  0
  5  6  1  0  0  0  0
  6  1  2  0  0  0  0
  9  4  1  0  0  0  0
 10  5  1  0  0  0  0
 12 11  1  0  0  0  0
 12 13  1  0  0  0  0
 13  6  1  0  0  0  0
 14 13  2  0  0  0  0
 14 15  1  0  0  0  0
 16 14  1  0  0  0  0
 17 16  1  0  0  0  0
 18 19  1  0  0  0  0
 18 16  2  0  0  0  0
 19 12  2  0  0  0  0
 20 21  1  1  0  0  0
 20 26  1  0  0  0  0
 22 28  1  0  0  0  0
 23 22  1  0  0  0  0
 23 29  1  0  0  0  0
 24 23  2  0  0  0  0
 25 26  2  0  0  0  0
 25 24  1  0  0  0  0
 26 27  1  0  0  0  0
 27 22  2  0  0  0  0
 30 24  1  0  0  0  0
M  END
>  <minimizedAffinity>
-5.63859749

$$$$

 OpenBabel03272509393D

 30 32  0  0  1  0  0  0  0  0999 V2000
   40.8720   25.2100   34.3060 C   0  0  0  0  0  0  0  0  0  0  0  0
   42.2450   24.9250   34.4130 C   0  0  0  0  0  0  0  0  0  0  0  0
   43.2380   25.8640   34.1050 C   0  0  0  0  0  0  0  0  0  0  0  0
   42.8190   27.1440   33.6730 C   0  0  0  0  0  0  0  0  0  0  0  0
   41.4540   27.4160   33.5710 C   0  0  0  0  0  0  0  0  0  0  0  0
   40.5170   26.4590   33.8840 C   0  0  0  0  0  0  0  0  0  0  0  0
   42.5420   23.9420   34.7450 H   0  0  0  0  0  0  0  0  0  0  0  0
   44.2760   25.5930   34.2030 H   0  0  0  0  0  0  0  0  0  0  0  0
   43.6040   27.8540   33.4410 H   0  0  0  0  0  0  0  0  0  0  0  0
   41.2600   28.4230   33.2310 H   0  0  0  0  0  0  0  0  0  0  0  0
   39.3040   27.3520   36.1450 F   0  0  0  0  0  0  0  0  0  0  0  0
   38.6750   27.3580   34.9440 C   0  0  0  0  0  0  0  0  0  0  0  0
   39.1650   26.9470   33.6950 C   0  0  0  0  0  0  0  0  0  0  0  0
   38.3110   27.0590   32.6200 C   0  0  0  0  0  0  0  0  0  0  0  0
   38.8400   26.6990   31.7270 H   0  0  0  0  0  0  0  0  0  0  0  0
   37.0340   27.5490   32.7470 C   0  0  0  0  0  0  0  0  0  0  0  0
   36.5200   27.5600   31.8040 H   0  0  0  0  0  0  0  0  0  0  0  0
   36.5490   27.9540   33.9720 C   0  0  0  0  0  3  0  0  0  0  0  0
   37.3760   27.8570   35.0730 C   0  0  0  0  0  3  0  0  0  0  0  0
   39.9260   24.1660   34.6460 C   0  0  2  0  0  3  0  0  0  0  0  0
   39.4740   23.5230   33.6280 O   0  0  0  0  0  1  0  0  0  0  0  0
   37.7180   24.0800   37.5150 C   0  0  0  0  0  0  0  0  0  0  0  0
   38.4180   23.3100   38.4630 C   0  0  0  0  0  0  0  0  0  0  0  0
   39.6730   22.8190   38.1050 C   0  0  0  0  0  0  0  0  0  0  0  0
   40.1790   23.0970   36.8590 N   0  0  0  0  0  0  0  0  0  0  0  0
   39.4870   23.8270   35.9920 C   0  0  0  0  0  0  0  0  0  0  0  0
   38.2680   24.3100   36.3290 N   0  0  0  0  0  0  0  0  0  0  0  0
   36.7550   24.4230   37.8670 H   0  0  0  0  0  0  0  0  0  0  0  0
   38.0710   23.0590   39.4570 H   0  0  0  0  0  0  0  0  0  0  0  0
   40.2530   22.2180   38.8100 H   0  0  0  0  0  0  0  0  0  0  0  0
  1  2  1  0  0  0  0
  1 20  1  0  0  0  0
  2  7  1  0  0  0  0
  3  8  1  0  0  0  0
  3  2  2  0  0  0  0
  4  3  1  0  0  0  0
  5  4  2  0  0  0  0
  5  6  1  0  0  0  0
  6  1  2  0  0  0  0
  9  4  1  0  0  0  0
 10  5  1  0  0  0  0
 12 19  1  0  0  0  0
 12 11  1  0  0  0  0
 13  6  1  0  0  0  0
 13 12  2  0  0  0  0
 14 16  2  0  0  0  0
 14 13  1  0  0  0  0
 15 14  1  0  0  0  0
 16 18  1  0  0  0  0
 17 16  1  0  0  0  0
 18 19  2  0  0  0  0
 20 21  1  6  0  0  0
 20 26  1  0  0  0  0
 22 28  1  0  0  0  0
 22 23  1  0  0  0  0
 23 29  1  0  0  0  0
 24 23  2  0  0  0  0
 24 30  1  0  0  0  0
 25 24  1  0  0  0  0
 26 27  1  0  0  0  0
 26 25  2  0  0  0  0
 27 22  2  0  0  0  0
M  END
>  <minimizedAffinity>
-5.58526802

$$$$

 OpenBabel03272509393D

 30 32  0  0  1  0  0  0  0  0999 V2000
   37.3600   24.0890   32.4540 C   0  0  0  0  0  0  0  0  0  0  0  0
   37.3060   25.4520   32.1100 C   0  0  0  0  0  0  0  0  0  0  0  0
   36.2650   25.9980   31.3500 C   0  0  0  0  0  0  0  0  0  0  0  0
   35.2370   25.1260   30.9230 C   0  0  0  0  0  0  0  0  0  0  0  0
   35.3000   23.7750   31.2700 C   0  0  0  0  0  0  0  0  0  0  0  0
   36.3450   23.2870   32.0180 C   0  0  0  0  0  0  0  0  0  0  0  0
   38.1020   26.0990   32.4470 H   0  0  0  0  0  0  0  0  0  0  0  0
   36.2720   27.0500   31.1140 H   0  0  0  0  0  0  0  0  0  0  0  0
   34.4410   25.5710   30.3360 H   0  0  0  0  0  0  0  0  0  0  0  0
   34.4610   23.2130   30.8870 H   0  0  0  0  0  0  0  0  0  0  0  0
   37.6690   21.7250   30.2320 F   0  0  0  0  0  0  0  0  0  0  0  0
   36.9430   21.1950   31.2480 C   0  0  0  0  0  0  0  0  0  0  0  0
   36.2210   21.8610   32.2500 C   0  0  0  0  0  0  0  0  0  0  0  0
   35.5630   21.0780   33.1730 C   0  0  0  0  0  0  0  0  0  0  0  0
   35.0510   21.7440   33.8810 H   0  0  0  0  0  0  0  0  0  0  0  0
   35.6020   19.7050   33.1290 C   0  0  0  0  0  0  0  0  0  0  0  0
   35.0310   19.2690   33.9270 H   0  0  0  0  0  0  0  0  0  0  0  0
   36.3110   19.0470   32.1460 C   0  0  0  0  0  3  0  0  0  0  0  0
   36.9830   19.7990   31.2040 C   0  0  0  0  0  3  0  0  0  0  0  0
   38.4850   23.6250   33.2420 C   0  0  2  0  0  3  0  0  0  0  0  0
   39.4870   23.2330   32.5370 O   0  0  0  0  0  1  0  0  0  0  0  0
   39.3670   22.3430   36.5120 C   0  0  0  0  0  0  0  0  0  0  0  0
   38.8060   23.2740   37.4070 C   0  0  0  0  0  0  0  0  0  0  0  0
   38.1090   24.3550   36.8710 C   0  0  0  0  0  0  0  0  0  0  0  0
   37.9930   24.4780   35.5070 N   0  0  0  0  0  0  0  0  0  0  0  0
   38.5380   23.5790   34.6960 C   0  0  0  0  0  0  0  0  0  0  0  0
   39.2160   22.5240   35.2060 N   0  0  0  0  0  0  0  0  0  0  0  0
   39.8900   21.5350   37.0040 H   0  0  0  0  0  0  0  0  0  0  0  0
   38.8650   23.2290   38.4870 H   0  0  0  0  0  0  0  0  0  0  0  0
   37.6560   25.1020   37.5280 H   0  0  0  0  0  0  0  0  0  0  0  0
  1 20  1  0  0  0  0
  2  7  1  0  0  0  0
  2  1  1  0  0  0  0
  3  2  2  0  0  0  0
  4  5  2  0  0  0  0
  4  3  1  0  0  0  0
  5  6  1  0  0  0  0
  6 13  1  0  0  0  0
  6  1  2  0  0  0  0
  8  3  1  0  0  0  0
  9  4  1  0  0  0  0
 10  5  1  0  0  0  0
 11 12  1  0  0  0  0
 12 13  1  0  0  0  0
 13 14  2  0  0  0  0
 14 15  1  0  0  0  0
 16 14  1  0  0  0  0
 16 17  1  0  0  0  0
 18 16  2  0  0  0  0
 19 12  2  0  0  0  0
 19 18  1  0  0  0  0
 20 21  1  6  0  0  0
 20 26  1  0  0  0  0
 22 28  1  0  0  0  0
 22 23  1  0  0  0  0
 23 29  1  0  0  0  0
 24 23  2  0  0  0  0
 24 30  1  0  0  0  0
 25 24  1  0  0  0  0
 26 27  1  0  0  0  0
 26 25  2  0  0  0  0
 27 22  2  0  0  0  0
M  END
>  <minimizedAffinity>
-5.34509659

$$$$

 OpenBabel03272509393D

 30 32  0  0  1  0  0  0  0  0999 V2000
   38.0970   24.9690   33.9070 C   0  0  0  0  0  0  0  0  0  0  0  0
   37.3280   26.0480   33.4310 C   0  0  0  0  0  0  0  0  0  0  0  0
   37.1770   27.2410   34.1480 C   0  0  0  0  0  0  0  0  0  0  0  0
   37.8340   27.3450   35.3960 C   0  0  0  0  0  0  0  0  0  0  0  0
   38.5940   26.2690   35.8580 C   0  0  0  0  0  0  0  0  0  0  0  0
   38.7110   25.1170   35.1170 C   0  0  0  0  0  0  0  0  0  0  0  0
   36.8360   25.9470   32.4760 H   0  0  0  0  0  0  0  0  0  0  0  0
   36.5770   28.0370   33.7380 H   0  0  0  0  0  0  0  0  0  0  0  0
   37.7040   28.2780   35.9330 H   0  0  0  0  0  0  0  0  0  0  0  0
   39.0450   26.4680   36.8200 H   0  0  0  0  0  0  0  0  0  0  0  0
   41.3620   25.2560   34.5380 F   0  0  0  0  0  0  0  0  0  0  0  0
   40.8600   24.3190   35.3810 C   0  0  0  0  0  0  0  0  0  0  0  0
   39.5300   24.1270   35.7870 C   0  0  0  0  0  0  0  0  0  0  0  0
   39.2870   23.0900   36.6610 C   0  0  0  0  0  0  0  0  0  0  0  0
   38.2110   23.0730   36.8780 H   0  0  0  0  0  0  0  0  0  0  0  0
   40.2900   22.2710   37.1240 C   0  0  0  0  0  0  0  0  0  0  0  0
   39.9100   21.5230   37.7930 H   0  0  0  0  0  0  0  0  0  0  0  0
   41.5970   22.4580   36.7270 C   0  0  0  0  0  3  0  0  0  0  0  0
   41.8790   23.4870   35.8520 C   0  0  0  0  0  3  0  0  0  0  0  0
   38.1850   23.7760   33.0880 C   0  0  2  0  0  3  0  0  0  0  0  0
   39.2510   23.7150   32.3720 O   0  0  0  0  0  1  0  0  0  0  0  0
   35.4730   21.8050   31.7170 C   0  0  0  0  0  0  0  0  0  0  0  0
   35.2650   20.7970   32.6770 C   0  0  0  0  0  0  0  0  0  0  0  0
   36.0680   20.8040   33.8160 C   0  0  0  0  0  0  0  0  0  0  0  0
   37.0260   21.7780   33.9640 N   0  0  0  0  0  0  0  0  0  0  0  0
   37.1930   22.7120   33.0340 C   0  0  0  0  0  0  0  0  0  0  0  0
   36.4170   22.7150   31.9250 N   0  0  0  0  0  0  0  0  0  0  0  0
   34.8120   21.7310   30.8650 H   0  0  0  0  0  0  0  0  0  0  0  0
   34.5280   20.0060   32.6150 H   0  0  0  0  0  0  0  0  0  0  0  0
   35.9410   20.0410   34.5890 H   0  0  0  0  0  0  0  0  0  0  0  0
  1  6  1  0  0  0  0
  2  1  2  0  0  0  0
  2  3  1  0  0  0  0
  3  4  2  0  0  0  0
  4  5  1  0  0  0  0
  4  9  1  0  0  0  0
  5 10  1  0  0  0  0
  6 13  1  0  0  0  0
  6  5  2  0  0  0  0
  7  2  1  0  0  0  0
  8  3  1  0  0  0  0
 11 12  1  0  0  0  0
 12 13  2  0  0  0  0
 12 19  1  0  0  0  0
 13 14  1  0  0  0  0
 14 15  1  0  0  0  0
 14 16  2  0  0  0  0
 16 17  1  0  0  0  0
 18 16  1  0  0  0  0
 19 18  2  0  0  0  0
 20 21  1  6  0  0  0
 20  1  1  0  0  0  0
 22 27  2  0  0  0  0
 22 23  1  0  0  0  0
 23 24  2  0  0  0  0
 24 25  1  0  0  0  0
 24 30  1  0  0  0  0
 26 20  1  0  0  0  0
 26 25  2  0  0  0  0
 27 26  1  0  0  0  0
 28 22  1  0  0  0  0
 29 23  1  0  0  0  0
M  END
>  <minimizedAffinity>
-5.3311553

$$$$

 OpenBabel03272509393D

 30 32  0  0  1  0  0  0  0  0999 V2000
   37.6340   22.9700   33.2870 C   0  0  0  0  0  0  0  0  0  0  0  0
   36.6780   22.1410   32.6720 C   0  0  0  0  0  0  0  0  0  0  0  0
   35.7380   22.6250   31.7530 C   0  0  0  0  0  0  0  0  0  0  0  0
   35.7720   24.0050   31.4450 C   0  0  0  0  0  0  0  0  0  0  0  0
   36.7250   24.8180   32.0600 C   0  0  0  0  0  0  0  0  0  0  0  0
   37.6270   24.2950   32.9580 C   0  0  0  0  0  0  0  0  0  0  0  0
   36.6700   21.0910   32.9220 H   0  0  0  0  0  0  0  0  0  0  0  0
   35.0270   21.9470   31.3110 H   0  0  0  0  0  0  0  0  0  0  0  0
   35.0370   24.3570   30.7300 H   0  0  0  0  0  0  0  0  0  0  0  0
   36.6510   25.8490   31.7450 H   0  0  0  0  0  0  0  0  0  0  0  0
   39.9330   24.6280   31.5610 F   0  0  0  0  0  0  0  0  0  0  0  0
   39.6540   25.3570   32.6710 C   0  0  0  0  0  0  0  0  0  0  0  0
   38.5130   25.3130   33.4860 C   0  0  0  0  0  0  0  0  0  0  0  0
   38.4810   26.1690   34.5640 C   0  0  0  0  0  0  0  0  0  0  0  0
   37.5320   26.0120   35.0950 H   0  0  0  0  0  0  0  0  0  0  0  0
   39.5110   27.0350   34.8440 C   0  0  0  0  0  0  0  0  0  0  0  0
   39.3070   27.6200   35.7200 H   0  0  0  0  0  0  0  0  0  0  0  0
   40.6340   27.0810   34.0450 C   0  0  0  0  0  3  0  0  0  0  0  0
   40.7020   26.2380   32.9550 C   0  0  0  0  0  3  0  0  0  0  0  0
   38.5590   22.3680   34.2270 C   0  0  2  0  0  3  0  0  0  0  0  0
   39.3580   21.5130   33.6950 O   0  0  0  0  0  1  0  0  0  0  0  0
   40.0740   22.6940   37.5010 C   0  0  0  0  0  0  0  0  0  0  0  0
   39.0270   23.1620   38.3170 C   0  0  0  0  0  0  0  0  0  0  0  0
   37.7800   23.3610   37.7270 C   0  0  0  0  0  0  0  0  0  0  0  0
   37.6130   23.1000   36.3890 N   0  0  0  0  0  0  0  0  0  0  0  0
   38.6260   22.6610   35.6520 C   0  0  0  0  0  0  0  0  0  0  0  0
   39.8410   22.4620   36.2140 N   0  0  0  0  0  0  0  0  0  0  0  0
   41.0070   22.5650   38.0300 H   0  0  0  0  0  0  0  0  0  0  0  0
   39.0980   23.3840   39.3740 H   0  0  0  0  0  0  0  0  0  0  0  0
   36.9370   23.7220   38.3230 H   0  0  0  0  0  0  0  0  0  0  0  0
  1 20  1  0  0  0  0
  2  7  1  0  0  0  0
  2  1  2  0  0  0  0
  3  2  1  0  0  0  0
  4  3  2  0  0  0  0
  4  5  1  0  0  0  0
  5  6  2  0  0  0  0
  6  1  1  0  0  0  0
  6 13  1  0  0  0  0
  8  3  1  0  0  0  0
  9  4  1  0  0  0  0
 10  5  1  0  0  0  0
 11 12  1  0  0  0  0
 12 19  2  0  0  0  0
 12 13  1  0  0  0  0
 13 14  2  0  0  0  0
 14 16  1  0  0  0  0
 14 15  1  0  0  0  0
 16 17  1  0  0  0  0
 18 16  2  0  0  0  0
 19 18  1  0  0  0  0
 20 21  1  1  0  0  0
 20 26  1  0  0  0  0
 22 28  1  0  0  0  0
 22 23  1  0  0  0  0
 23 29  1  0  0  0  0
 24 23  2  0  0  0  0
 24 30  1  0  0  0  0
 25 24  1  0  0  0  0
 26 27  1  0  0  0  0
 26 25  2  0  0  0  0
 27 22  2  0  0  0  0
M  END
>  <minimizedAffinity>
-5.31803274

$$$$

 OpenBabel03272509393D

 30 32  0  0  1  0  0  0  0  0999 V2000
   38.2480   23.3930   35.6720 C   0  0  0  0  0  0  0  0  0  0  0  0
   38.2240   22.7340   36.9150 C   0  0  0  0  0  0  0  0  0  0  0  0
   38.1140   23.4200   38.1310 C   0  0  0  0  0  0  0  0  0  0  0  0
   38.0250   24.8310   38.0830 C   0  0  0  0  0  0  0  0  0  0  0  0
   38.0500   25.4740   36.8440 C   0  0  0  0  0  0  0  0  0  0  0  0
   38.1590   24.7550   35.6770 C   0  0  0  0  0  0  0  0  0  0  0  0
   38.2930   21.6570   36.9280 H   0  0  0  0  0  0  0  0  0  0  0  0
   38.1010   22.8670   39.0550 H   0  0  0  0  0  0  0  0  0  0  0  0
   37.9400   25.3410   39.0360 H   0  0  0  0  0  0  0  0  0  0  0  0
   37.9750   26.5480   36.9370 H   0  0  0  0  0  0  0  0  0  0  0  0
   40.6370   25.5530   34.8990 F   0  0  0  0  0  0  0  0  0  0  0  0
   39.5170   25.9510   34.2460 C   0  0  0  0  0  0  0  0  0  0  0  0
   38.1810   25.6190   34.5130 C   0  0  0  0  0  0  0  0  0  0  0  0
   37.2230   26.1650   33.6870 C   0  0  0  0  0  0  0  0  0  0  0  0
   36.2400   25.8120   34.0260 H   0  0  0  0  0  0  0  0  0  0  0  0
   37.5450   26.9990   32.6430 C   0  0  0  0  0  0  0  0  0  0  0  0
   36.6690   27.3250   32.1140 H   0  0  0  0  0  0  0  0  0  0  0  0
   38.8570   27.3280   32.3780 C   0  0  0  0  0  3  0  0  0  0  0  0
   39.8450   26.7990   33.1840 C   0  0  0  0  0  3  0  0  0  0  0  0
   38.3680   22.5880   34.4720 C   0  0  2  0  0  3  0  0  0  0  0  0
   39.5760   22.2450   34.1960 O   0  0  0  0  0  1  0  0  0  0  0  0
   35.4600   20.6820   33.4600 C   0  0  0  0  0  0  0  0  0  0  0  0
   35.1100   21.2280   32.2110 C   0  0  0  0  0  0  0  0  0  0  0  0
   35.8950   22.2660   31.7110 C   0  0  0  0  0  0  0  0  0  0  0  0
   36.9690   22.7170   32.4410 N   0  0  0  0  0  0  0  0  0  0  0  0
   37.2650   22.1750   33.6160 C   0  0  0  0  0  0  0  0  0  0  0  0
   36.5100   21.1670   34.1110 N   0  0  0  0  0  0  0  0  0  0  0  0
   34.8050   19.8840   33.7790 H   0  0  0  0  0  0  0  0  0  0  0  0
   34.2790   20.9150   31.5930 H   0  0  0  0  0  0  0  0  0  0  0  0
   35.6620   22.7200   30.7440 H   0  0  0  0  0  0  0  0  0  0  0  0
  1  6  2  0  0  0  0
  1  2  1  0  0  0  0
  2  7  1  0  0  0  0
  2  3  2  0  0  0  0
  3  8  1  0  0  0  0
  4  3  1  0  0  0  0
  4  9  1  0  0  0  0
  5 10  1  0  0  0  0
  5  4  2  0  0  0  0
  6  5  1  0  0  0  0
 12 13  1  0  0  0  0
 12 11  1  0  0  0  0
 13  6  1  0  0  0  0
 14 15  1  0  0  0  0
 14 13  2  0  0  0  0
 16 14  1  0  0  0  0
 17 16  1  0  0  0  0
 18 16  2  0  0  0  0
 18 19  1  0  0  0  0
 19 12  2  0  0  0  0
 20 21  1  6  0  0  0
 20  1  1  0  0  0  0
 22 28  1  0  0  0  0
 22 27  1  0  0  0  0
 23 22  2  0  0  0  0
 24 23  1  0  0  0  0
 24 25  2  0  0  0  0
 25 26  1  0  0  0  0
 26 27  2  0  0  0  0
 26 20  1  0  0  0  0
 29 23  1  0  0  0  0
 30 24  1  0  0  0  0
M  END
>  <minimizedAffinity>
-5.23288107

$$$$

 OpenBabel03272509393D

 30 32  0  0  1  0  0  0  0  0999 V2000
   33.6040   31.1250   35.0910 C   0  0  0  0  0  0  0  0  0  0  0  0
   33.1860   32.1510   35.9570 C   0  0  0  0  0  0  0  0  0  0  0  0
   34.0870   32.9570   36.6640 C   0  0  0  0  0  0  0  0  0  0  0  0
   35.4680   32.7120   36.4820 C   0  0  0  0  0  0  0  0  0  0  0  0
   35.8720   31.6920   35.6200 C   0  0  0  0  0  0  0  0  0  0  0  0
   34.9470   30.9270   34.9490 C   0  0  0  0  0  0  0  0  0  0  0  0
   32.1270   32.3210   36.0810 H   0  0  0  0  0  0  0  0  0  0  0  0
   33.7130   33.7300   37.3160 H   0  0  0  0  0  0  0  0  0  0  0  0
   36.1470   33.3490   37.0390 H   0  0  0  0  0  0  0  0  0  0  0  0
   36.9470   31.6030   35.5650 H   0  0  0  0  0  0  0  0  0  0  0  0
   35.4170   31.6940   32.3850 F   0  0  0  0  0  0  0  0  0  0  0  0
   35.7450   30.4570   32.8350 C   0  0  0  0  0  0  0  0  0  0  0  0
   35.5810   29.9200   34.1210 C   0  0  0  0  0  0  0  0  0  0  0  0
   36.0040   28.6230   34.3160 C   0  0  0  0  0  0  0  0  0  0  0  0
   35.8070   28.3550   35.3630 H   0  0  0  0  0  0  0  0  0  0  0  0
   36.5630   27.8750   33.3070 C   0  0  0  0  0  0  0  0  0  0  0  0
   36.8290   26.8920   33.6470 H   0  0  0  0  0  0  0  0  0  0  0  0
   36.7260   28.4000   32.0430 C   0  0  0  0  0  3  0  0  0  0  0  0
   36.3140   29.6970   31.8100 C   0  0  0  0  0  3  0  0  0  0  0  0
   32.5890   30.3470   34.4100 C   0  0  2  0  0  3  0  0  0  0  0  0
   32.3280   30.7590   33.2200 O   0  0  0  0  0  1  0  0  0  0  0  0
   31.5660   27.9610   36.9360 C   0  0  0  0  0  0  0  0  0  0  0  0
   30.6800   27.1040   36.2580 C   0  0  0  0  0  0  0  0  0  0  0  0
   30.4380   27.3510   34.9080 C   0  0  0  0  0  0  0  0  0  0  0  0
   31.0610   28.4090   34.2900 N   0  0  0  0  0  0  0  0  0  0  0  0
   31.8910   29.1960   34.9650 C   0  0  0  0  0  0  0  0  0  0  0  0
   32.1340   28.9640   36.2760 N   0  0  0  0  0  0  0  0  0  0  0  0
   31.7010   27.7040   37.9770 H   0  0  0  0  0  0  0  0  0  0  0  0
   30.1610   26.2580   36.6910 H   0  0  0  0  0  0  0  0  0  0  0  0
   29.7580   26.7110   34.3400 H   0  0  0  0  0  0  0  0  0  0  0  0
  1  2  1  0  0  0  0
  2  7  1  0  0  0  0
  2  3  2  0  0  0  0
  3  8  1  0  0  0  0
  4  3  1  0  0  0  0
  4  9  1  0  0  0  0
  5  4  2  0  0  0  0
  6  1  2  0  0  0  0
  6  5  1  0  0  0  0
 10  5  1  0  0  0  0
 11 12  1  0  0  0  0
 12 13  1  0  0  0  0
 13 14  2  0  0  0  0
 13  6  1  0  0  0  0
 14 15  1  0  0  0  0
 16 17  1  0  0  0  0
 16 14  1  0  0  0  0
 18 16  2  0  0  0  0
 19 18  1  0  0  0  0
 19 12  2  0  0  0  0
 20 21  1  1  0  0  0
 20 26  1  0  0  0  0
 20  1  1  0  0  0  0
 22 28  1  0  0  0  0
 23 29  1  0  0  0  0
 23 22  2  0  0  0  0
 24 23  1  0  0  0  0
 25 24  2  0  0  0  0
 25 26  1  0  0  0  0
 26 27  2  0  0  0  0
 27 22  1  0  0  0  0
 30 24  1  0  0  0  0
M  END
>  <minimizedAffinity>
-5.21624136

$$$$

 OpenBabel03272509393D

 30 32  0  0  1  0  0  0  0  0999 V2000
   36.0940   29.5480   32.5070 C   0  0  0  0  0  0  0  0  0  0  0  0
   36.6670   28.5360   31.7170 C   0  0  0  0  0  0  0  0  0  0  0  0
   37.1390   27.3330   32.2570 C   0  0  0  0  0  0  0  0  0  0  0  0
   37.0220   27.1500   33.6550 C   0  0  0  0  0  0  0  0  0  0  0  0
   36.4510   28.1620   34.4290 C   0  0  0  0  0  0  0  0  0  0  0  0
   36.0030   29.3260   33.8510 C   0  0  0  0  0  0  0  0  0  0  0  0
   36.7460   28.6960   30.6520 H   0  0  0  0  0  0  0  0  0  0  0  0
   37.5700   26.5890   31.6070 H   0  0  0  0  0  0  0  0  0  0  0  0
   37.3930   26.2120   34.0510 H   0  0  0  0  0  0  0  0  0  0  0  0
   36.4180   27.9060   35.4780 H   0  0  0  0  0  0  0  0  0  0  0  0
   33.3120   29.1670   34.1920 F   0  0  0  0  0  0  0  0  0  0  0  0
   34.0730   30.0490   34.8880 C   0  0  0  0  0  0  0  0  0  0  0  0
   35.4620   30.2420   34.8350 C   0  0  0  0  0  0  0  0  0  0  0  0
   35.9890   31.2150   35.6560 C   0  0  0  0  0  0  0  0  0  0  0  0
   37.0760   31.2410   35.4970 H   0  0  0  0  0  0  0  0  0  0  0  0
   35.2050   31.9710   36.4940 C   0  0  0  0  0  0  0  0  0  0  0  0
   35.7910   32.6750   37.0530 H   0  0  0  0  0  0  0  0  0  0  0  0
   33.8410   31.7840   36.5480 C   0  0  0  0  0  3  0  0  0  0  0  0
   33.2760   30.8180   35.7400 C   0  0  0  0  0  3  0  0  0  0  0  0
   35.6400   30.7570   31.8480 C   0  0  2  0  0  3  0  0  0  0  0  0
   34.4310   30.6910   31.4150 O   0  0  0  0  0  1  0  0  0  0  0  0
   37.8440   33.0760   30.1490 C   0  0  0  0  0  0  0  0  0  0  0  0
   37.9690   34.1510   31.0500 C   0  0  0  0  0  0  0  0  0  0  0  0
   37.2860   34.0690   32.2620 C   0  0  0  0  0  0  0  0  0  0  0  0
   36.5230   32.9590   32.5370 N   0  0  0  0  0  0  0  0  0  0  0  0
   36.4300   31.9660   31.6600 C   0  0  0  0  0  0  0  0  0  0  0  0
   37.0900   32.0350   30.4810 N   0  0  0  0  0  0  0  0  0  0  0  0
   38.4030   33.2140   29.2350 H   0  0  0  0  0  0  0  0  0  0  0  0
   38.5530   35.0470   30.8880 H   0  0  0  0  0  0  0  0  0  0  0  0
   37.3540   34.8800   32.9920 H   0  0  0  0  0  0  0  0  0  0  0  0
  1  6  1  0  0  0  0
  2  3  1  0  0  0  0
  2  1  2  0  0  0  0
  3  4  2  0  0  0  0
  4  9  1  0  0  0  0
  4  5  1  0  0  0  0
  5 10  1  0  0  0  0
  6  5  2  0  0  0  0
  6 13  1  0  0  0  0
  7  2  1  0  0  0  0
  8  3  1  0  0  0  0
 11 12  1  0  0  0  0
 12 19  1  0  0  0  0
 13 12  2  0  0  0  0
 13 14  1  0  0  0  0
 14 16  2  0  0  0  0
 15 14  1  0  0  0  0
 16 18  1  0  0  0  0
 16 17  1  0  0  0  0
 19 18  2  0  0  0  0
 20 21  1  6  0  0  0
 20  1  1  0  0  0  0
 22 27  2  0  0  0  0
 22 23  1  0  0  0  0
 23 24  2  0  0  0  0
 24 25  1  0  0  0  0
 24 30  1  0  0  0  0
 26 20  1  0  0  0  0
 26 25  2  0  0  0  0
 27 26  1  0  0  0  0
 28 22  1  0  0  0  0
 29 23  1  0  0  0  0
M  END
>  <minimizedAffinity>
-5.17779636

$$$$
