
 OpenBabel03272504543D

 25 27  0  0  0  0  0  0  0  0999 V2000
   39.9710   22.3800   37.1190 C   0  0  0  0  0  0  0  0  0  0  0  0
   39.3830   23.1790   38.1160 C   0  0  0  0  0  0  0  0  0  0  0  0
   38.0490   23.5310   37.9160 C   0  0  0  0  0  0  0  0  0  0  0  0
   37.3990   23.0930   36.7930 N   0  0  0  0  0  0  0  0  0  0  0  0
   38.0080   22.3200   35.8540 C   0  0  0  0  0  0  0  0  0  0  0  0
   39.3110   21.9620   36.0230 N   0  0  0  0  0  0  0  0  0  0  0  0
   39.9570   23.4870   38.9760 H   0  0  0  0  0  0  0  0  0  0  0  0
   37.5450   24.1450   38.6510 H   0  0  0  0  0  0  0  0  0  0  0  0
   35.8740   20.4610   36.0430 F   0  0  0  0  0  0  0  0  0  0  0  0
   36.2140   20.9900   34.8420 C   0  0  0  0  0  0  0  0  0  0  0  0
   37.2410   21.8980   34.6890 C   0  0  0  0  0  0  0  0  0  0  0  0
   37.6000   22.4470   33.4760 C   0  0  0  0  0  0  0  0  0  0  0  0
   38.4070   23.1620   33.3470 H   0  0  0  0  0  0  0  0  0  0  0  0
   36.8880   22.0620   32.3520 C   0  0  0  0  0  0  0  0  0  0  0  0
   37.1420   22.4740   31.3800 H   0  0  0  0  0  0  0  0  0  0  0  0
   35.8580   21.1540   32.4990 C   0  0  0  0  0  3  0  0  0  0  0  0
   35.4870   20.5930   33.7210 C   0  0  0  0  0  3  0  0  0  0  0  0
   41.4010   21.9690   37.3380 C   0  0  0  0  0  0  0  0  0  0  0  0
   42.1820   21.3410   36.2750 C   0  0  0  0  0  0  0  0  0  0  0  0
   42.3940   22.8070   36.5510 C   0  0  0  0  0  0  0  0  0  0  0  0
   41.7200   21.9180   38.4100 H   0  0  0  0  0  0  0  0  0  0  0  0
   42.9930   20.6260   36.5400 H   0  0  0  0  0  0  0  0  0  0  0  0
   41.6490   21.1520   35.3050 H   0  0  0  0  0  0  0  0  0  0  0  0
   42.0150   23.5850   35.8870 H   0  0  0  0  0  0  0  0  0  0  0  0
   43.3840   23.0490   36.9860 H   0  0  0  0  0  0  0  0  0  0  0  0
  1 18  1  0  0  0  0
  1  2  1  0  0  0  0
  2  7  1  0  0  0  0
  3  2  2  0  0  0  0
  3  8  1  0  0  0  0
  4  3  1  0  0  0  0
  5  6  1  0  0  0  0
  5  4  2  0  0  0  0
  6  1  2  0  0  0  0
 10  9  1  0  0  0  0
 11 10  1  0  0  0  0
 11  5  1  0  0  0  0
 12 11  2  0  0  0  0
 13 12  1  0  0  0  0
 14 16  2  0  0  0  0
 14 12  1  0  0  0  0
 15 14  1  0  0  0  0
 16 17  1  0  0  0  0
 17 10  2  0  0  0  0
 18 21  1  0  0  0  0
 19 22  1  0  0  0  0
 19 20  1  0  0  0  0
 19 18  1  0  0  0  0
 20 25  1  0  0  0  0
 20 18  1  0  0  0  0
 23 19  1  0  0  0  0
 24 20  1  0  0  0  0
M  END
>  <minimizedAffinity>
-4.96589041

$$$$

 OpenBabel03272504543D

 25 27  0  0  0  0  0  0  0  0999 V2000
   36.9750   21.9160   32.9340 C   0  0  0  0  0  0  0  0  0  0  0  0
   37.1560   22.9900   32.0450 C   0  0  0  0  0  0  0  0  0  0  0  0
   37.7730   24.1250   32.5660 C   0  0  0  0  0  0  0  0  0  0  0  0
   38.1610   24.1360   33.8790 N   0  0  0  0  0  0  0  0  0  0  0  0
   37.9680   23.0730   34.7050 C   0  0  0  0  0  0  0  0  0  0  0  0
   37.3660   21.9500   34.2220 N   0  0  0  0  0  0  0  0  0  0  0  0
   36.8250   22.9100   31.0210 H   0  0  0  0  0  0  0  0  0  0  0  0
   37.9380   24.9830   31.9270 H   0  0  0  0  0  0  0  0  0  0  0  0
   40.3820   21.8850   35.6030 F   0  0  0  0  0  0  0  0  0  0  0  0
   39.5960   22.5710   36.4680 C   0  0  0  0  0  0  0  0  0  0  0  0
   38.4120   23.1700   36.0900 C   0  0  0  0  0  0  0  0  0  0  0  0
   37.6010   23.8720   36.9560 C   0  0  0  0  0  0  0  0  0  0  0  0
   36.6690   24.3460   36.6660 H   0  0  0  0  0  0  0  0  0  0  0  0
   37.9990   23.9790   38.2770 C   0  0  0  0  0  0  0  0  0  0  0  0
   37.3860   24.5250   38.9890 H   0  0  0  0  0  0  0  0  0  0  0  0
   39.1840   23.3820   38.6620 C   0  0  0  0  0  3  0  0  0  0  0  0
   40.0110   22.6700   37.7950 C   0  0  0  0  0  3  0  0  0  0  0  0
   36.3370   20.6740   32.3760 C   0  0  0  0  0  0  0  0  0  0  0  0
   35.5250   19.7950   33.2130 C   0  0  0  0  0  0  0  0  0  0  0  0
   34.8230   20.7620   32.2950 C   0  0  0  0  0  0  0  0  0  0  0  0
   36.7470   20.3340   31.3900 H   0  0  0  0  0  0  0  0  0  0  0  0
   35.4770   18.7080   32.9800 H   0  0  0  0  0  0  0  0  0  0  0  0
   35.4340   20.0760   34.2970 H   0  0  0  0  0  0  0  0  0  0  0  0
   34.3280   21.6600   32.6650 H   0  0  0  0  0  0  0  0  0  0  0  0
   34.2830   20.2800   31.4550 H   0  0  0  0  0  0  0  0  0  0  0  0
  1  6  1  0  0  0  0
  2  3  1  0  0  0  0
  2  1  2  0  0  0  0
  3  4  2  0  0  0  0
  4  5  1  0  0  0  0
  5 11  1  0  0  0  0
  6  5  2  0  0  0  0
  7  2  1  0  0  0  0
  8  3  1  0  0  0  0
  9 10  1  0  0  0  0
 10 17  1  0  0  0  0
 11 10  2  0  0  0  0
 11 12  1  0  0  0  0
 12 14  2  0  0  0  0
 13 12  1  0  0  0  0
 14 16  1  0  0  0  0
 14 15  1  0  0  0  0
 17 16  2  0  0  0  0
 18  1  1  0  0  0  0
 18 19  1  0  0  0  0
 19 23  1  0  0  0  0
 20 18  1  0  0  0  0
 20 24  1  0  0  0  0
 20 19  1  0  0  0  0
 21 18  1  0  0  0  0
 22 19  1  0  0  0  0
 25 20  1  0  0  0  0
M  END
>  <minimizedAffinity>
-4.90427828

$$$$

 OpenBabel03272504543D

 25 27  0  0  0  0  0  0  0  0999 V2000
   37.0440   25.6660   32.7290 C   0  0  0  0  0  0  0  0  0  0  0  0
   36.7790   27.0240   32.9830 C   0  0  0  0  0  0  0  0  0  0  0  0
   37.1280   27.4950   34.2470 C   0  0  0  0  0  0  0  0  0  0  0  0
   37.6950   26.6360   35.1500 N   0  0  0  0  0  0  0  0  0  0  0  0
   37.9350   25.3290   34.8620 C   0  0  0  0  0  0  0  0  0  0  0  0
   37.6030   24.8410   33.6340 N   0  0  0  0  0  0  0  0  0  0  0  0
   36.3300   27.6420   32.2210 H   0  0  0  0  0  0  0  0  0  0  0  0
   36.9480   28.5320   34.4980 H   0  0  0  0  0  0  0  0  0  0  0  0
   40.3960   23.9820   34.4410 F   0  0  0  0  0  0  0  0  0  0  0  0
   39.7410   23.8550   35.6210 C   0  0  0  0  0  0  0  0  0  0  0  0
   38.5430   24.4850   35.8840 C   0  0  0  0  0  0  0  0  0  0  0  0
   37.8640   24.3670   37.0780 C   0  0  0  0  0  0  0  0  0  0  0  0
   36.9210   24.8610   37.2920 H   0  0  0  0  0  0  0  0  0  0  0  0
   38.4190   23.5720   38.0660 C   0  0  0  0  0  0  0  0  0  0  0  0
   37.9140   23.4550   39.0200 H   0  0  0  0  0  0  0  0  0  0  0  0
   39.6190   22.9390   37.8090 C   0  0  0  0  0  3  0  0  0  0  0  0
   40.3140   23.0510   36.6050 C   0  0  0  0  0  3  0  0  0  0  0  0
   36.6980   25.1530   31.3580 C   0  0  0  0  0  0  0  0  0  0  0  0
   36.2690   23.7730   31.1490 C   0  0  0  0  0  0  0  0  0  0  0  0
   35.2200   24.8530   31.1850 C   0  0  0  0  0  0  0  0  0  0  0  0
   37.0540   25.7930   30.5100 H   0  0  0  0  0  0  0  0  0  0  0  0
   36.4870   23.2720   30.1790 H   0  0  0  0  0  0  0  0  0  0  0  0
   36.2460   23.1110   32.0570 H   0  0  0  0  0  0  0  0  0  0  0  0
   34.5520   24.9880   32.0360 H   0  0  0  0  0  0  0  0  0  0  0  0
   34.7260   25.0390   30.2100 H   0  0  0  0  0  0  0  0  0  0  0  0
  1  2  2  0  0  0  0
  1  6  1  0  0  0  0
  2  3  1  0  0  0  0
  3  8  1  0  0  0  0
  3  4  2  0  0  0  0
  5  4  1  0  0  0  0
  5 11  1  0  0  0  0
  6  5  2  0  0  0  0
  7  2  1  0  0  0  0
  9 10  1  0  0  0  0
 10 11  2  0  0  0  0
 10 17  1  0  0  0  0
 11 12  1  0  0  0  0
 12 13  1  0  0  0  0
 12 14  2  0  0  0  0
 14 15  1  0  0  0  0
 16 14  1  0  0  0  0
 17 16  2  0  0  0  0
 18  1  1  0  0  0  0
 19 20  1  0  0  0  0
 19 18  1  0  0  0  0
 19 23  1  0  0  0  0
 20 18  1  0  0  0  0
 20 24  1  0  0  0  0
 21 18  1  0  0  0  0
 22 19  1  0  0  0  0
 25 20  1  0  0  0  0
M  END
>  <minimizedAffinity>
-4.85554981

$$$$

 OpenBabel03272504543D

 25 27  0  0  0  0  0  0  0  0999 V2000
   37.1990   25.1830   32.7210 C   0  0  0  0  0  0  0  0  0  0  0  0
   36.9560   26.5530   32.9280 C   0  0  0  0  0  0  0  0  0  0  0  0
   37.4230   27.0870   34.1270 C   0  0  0  0  0  0  0  0  0  0  0  0
   38.0760   26.2750   35.0160 N   0  0  0  0  0  0  0  0  0  0  0  0
   38.2900   24.9540   34.7740 C   0  0  0  0  0  0  0  0  0  0  0  0
   37.8430   24.4050   33.6110 N   0  0  0  0  0  0  0  0  0  0  0  0
   36.4350   27.1320   32.1820 H   0  0  0  0  0  0  0  0  0  0  0  0
   37.2650   28.1360   34.3400 H   0  0  0  0  0  0  0  0  0  0  0  0
   37.1110   24.2710   37.2620 F   0  0  0  0  0  0  0  0  0  0  0  0
   38.3690   23.8620   36.9680 C   0  0  0  0  0  0  0  0  0  0  0  0
   38.9940   24.1630   35.7760 C   0  0  0  0  0  0  0  0  0  0  0  0
   40.2720   23.7540   35.4590 C   0  0  0  0  0  0  0  0  0  0  0  0
   40.7700   23.9860   34.5230 H   0  0  0  0  0  0  0  0  0  0  0  0
   40.9640   23.0010   36.3930 C   0  0  0  0  0  0  0  0  0  0  0  0
   41.9730   22.6610   36.1780 H   0  0  0  0  0  0  0  0  0  0  0  0
   40.3440   22.6960   37.5880 C   0  0  0  0  0  3  0  0  0  0  0  0
   39.0520   23.1040   37.9180 C   0  0  0  0  0  3  0  0  0  0  0  0
   36.7250   24.6010   31.4180 C   0  0  0  0  0  0  0  0  0  0  0  0
   36.0700   23.2960   31.3620 C   0  0  0  0  0  0  0  0  0  0  0  0
   35.2130   24.5340   31.3040 C   0  0  0  0  0  0  0  0  0  0  0  0
   37.1500   25.0850   30.5010 H   0  0  0  0  0  0  0  0  0  0  0  0
   36.1690   22.6730   30.4450 H   0  0  0  0  0  0  0  0  0  0  0  0
   35.9720   22.7410   32.3330 H   0  0  0  0  0  0  0  0  0  0  0  0
   34.6070   24.8620   32.1490 H   0  0  0  0  0  0  0  0  0  0  0  0
   34.7220   24.7010   30.3240 H   0  0  0  0  0  0  0  0  0  0  0  0
  1  2  2  0  0  0  0
  1  6  1  0  0  0  0
  2  3  1  0  0  0  0
  3  8  1  0  0  0  0
  3  4  2  0  0  0  0
  5  4  1  0  0  0  0
  5 11  1  0  0  0  0
  6  5  2  0  0  0  0
  7  2  1  0  0  0  0
 10  9  1  0  0  0  0
 10 17  1  0  0  0  0
 11 10  2  0  0  0  0
 12 11  1  0  0  0  0
 12 14  2  0  0  0  0
 13 12  1  0  0  0  0
 14 16  1  0  0  0  0
 15 14  1  0  0  0  0
 16 17  2  0  0  0  0
 18  1  1  0  0  0  0
 19 18  1  0  0  0  0
 19 23  1  0  0  0  0
 20 19  1  0  0  0  0
 20 18  1  0  0  0  0
 20 24  1  0  0  0  0
 21 18  1  0  0  0  0
 22 19  1  0  0  0  0
 25 20  1  0  0  0  0
M  END
>  <minimizedAffinity>
-4.81107807

$$$$

 OpenBabel03272504543D

 25 27  0  0  0  0  0  0  0  0999 V2000
   36.8130   28.0590   33.7810 C   0  0  0  0  0  0  0  0  0  0  0  0
   36.7860   28.3890   32.4140 C   0  0  0  0  0  0  0  0  0  0  0  0
   36.0340   29.5080   32.0650 C   0  0  0  0  0  0  0  0  0  0  0  0
   35.3790   30.2100   33.0420 N   0  0  0  0  0  0  0  0  0  0  0  0
   35.4330   29.8550   34.3530 C   0  0  0  0  0  0  0  0  0  0  0  0
   36.1600   28.7650   34.7240 N   0  0  0  0  0  0  0  0  0  0  0  0
   37.3280   27.7890   31.6990 H   0  0  0  0  0  0  0  0  0  0  0  0
   35.9770   29.8090   31.0270 H   0  0  0  0  0  0  0  0  0  0  0  0
   36.7220   31.7870   35.9820 F   0  0  0  0  0  0  0  0  0  0  0  0
   35.3870   31.5830   36.0920 C   0  0  0  0  0  0  0  0  0  0  0  0
   34.7060   30.6590   35.3280 C   0  0  0  0  0  0  0  0  0  0  0  0
   33.3480   30.4390   35.4270 C   0  0  0  0  0  0  0  0  0  0  0  0
   32.8050   29.7140   34.8280 H   0  0  0  0  0  0  0  0  0  0  0  0
   32.6330   31.1890   36.3450 C   0  0  0  0  0  0  0  0  0  0  0  0
   31.5610   31.0430   36.4500 H   0  0  0  0  0  0  0  0  0  0  0  0
   33.3090   32.1160   37.1120 C   0  0  0  0  0  3  0  0  0  0  0  0
   34.6810   32.3460   37.0210 C   0  0  0  0  0  3  0  0  0  0  0  0
   37.6450   26.8700   34.1750 C   0  0  0  0  0  0  0  0  0  0  0  0
   39.0490   26.7620   33.7850 C   0  0  0  0  0  0  0  0  0  0  0  0
   38.7260   27.2020   35.1890 C   0  0  0  0  0  0  0  0  0  0  0  0
   37.0620   25.9800   34.5240 H   0  0  0  0  0  0  0  0  0  0  0  0
   39.4990   25.7560   33.6320 H   0  0  0  0  0  0  0  0  0  0  0  0
   39.4590   27.5930   33.1500 H   0  0  0  0  0  0  0  0  0  0  0  0
   38.8400   28.2360   35.5160 H   0  0  0  0  0  0  0  0  0  0  0  0
   38.9990   26.4650   35.9700 H   0  0  0  0  0  0  0  0  0  0  0  0
  1 18  1  0  0  0  0
  1  6  1  0  0  0  0
  2  1  2  0  0  0  0
  3  2  1  0  0  0  0
  3  4  2  0  0  0  0
  4  5  1  0  0  0  0
  5  6  2  0  0  0  0
  5 11  1  0  0  0  0
  7  2  1  0  0  0  0
  8  3  1  0  0  0  0
  9 10  1  0  0  0  0
 10 17  1  0  0  0  0
 11 12  1  0  0  0  0
 11 10  2  0  0  0  0
 12 14  2  0  0  0  0
 13 12  1  0  0  0  0
 14 15  1  0  0  0  0
 14 16  1  0  0  0  0
 17 16  2  0  0  0  0
 18 21  1  0  0  0  0
 18 20  1  0  0  0  0
 19 18  1  0  0  0  0
 19 20  1  0  0  0  0
 20 24  1  0  0  0  0
 20 25  1  0  0  0  0
 22 19  1  0  0  0  0
 23 19  1  0  0  0  0
M  END
>  <minimizedAffinity>
-4.81073523

$$$$

 OpenBabel03272504543D

 25 27  0  0  0  0  0  0  0  0999 V2000
   35.9680   23.7990   31.5190 C   0  0  0  0  0  0  0  0  0  0  0  0
   35.0710   24.6920   30.9040 C   0  0  0  0  0  0  0  0  0  0  0  0
   35.2800   26.0460   31.1560 C   0  0  0  0  0  0  0  0  0  0  0  0
   36.3170   26.4280   31.9640 N   0  0  0  0  0  0  0  0  0  0  0  0
   37.1620   25.5300   32.5370 C   0  0  0  0  0  0  0  0  0  0  0  0
   36.9810   24.1990   32.3100 N   0  0  0  0  0  0  0  0  0  0  0  0
   34.2750   24.3190   30.2790 H   0  0  0  0  0  0  0  0  0  0  0  0
   34.6200   26.7790   30.7090 H   0  0  0  0  0  0  0  0  0  0  0  0
   36.7060   26.4550   35.1800 F   0  0  0  0  0  0  0  0  0  0  0  0
   37.9590   26.4600   34.6610 C   0  0  0  0  0  0  0  0  0  0  0  0
   38.2410   26.0230   33.3840 C   0  0  0  0  0  0  0  0  0  0  0  0
   39.5090   26.0210   32.8410 C   0  0  0  0  0  0  0  0  0  0  0  0
   39.7390   25.6780   31.8370 H   0  0  0  0  0  0  0  0  0  0  0  0
   40.5520   26.4850   33.6230 C   0  0  0  0  0  0  0  0  0  0  0  0
   41.5640   26.4980   33.2300 H   0  0  0  0  0  0  0  0  0  0  0  0
   40.2760   26.9240   34.9030 C   0  0  0  0  0  3  0  0  0  0  0  0
   38.9980   26.9300   35.4620 C   0  0  0  0  0  3  0  0  0  0  0  0
   35.7700   22.3370   31.2320 C   0  0  0  0  0  0  0  0  0  0  0  0
   36.5470   21.3140   31.9290 C   0  0  0  0  0  0  0  0  0  0  0  0
   35.1360   21.5790   32.3840 C   0  0  0  0  0  0  0  0  0  0  0  0
   35.2180   22.1110   30.2840 H   0  0  0  0  0  0  0  0  0  0  0  0
   36.7700   20.3520   31.4160 H   0  0  0  0  0  0  0  0  0  0  0  0
   37.3180   21.6800   32.6590 H   0  0  0  0  0  0  0  0  0  0  0  0
   34.9130   22.1150   33.3070 H   0  0  0  0  0  0  0  0  0  0  0  0
   34.4290   20.7490   32.1810 H   0  0  0  0  0  0  0  0  0  0  0  0
  1  6  1  0  0  0  0
  2  3  1  0  0  0  0
  2  1  2  0  0  0  0
  3  4  2  0  0  0  0
  4  5  1  0  0  0  0
  5 11  1  0  0  0  0
  6  5  2  0  0  0  0
  7  2  1  0  0  0  0
  8  3  1  0  0  0  0
 10  9  1  0  0  0  0
 10 17  1  0  0  0  0
 11 10  2  0  0  0  0
 12 11  1  0  0  0  0
 12 14  2  0  0  0  0
 13 12  1  0  0  0  0
 14 16  1  0  0  0  0
 15 14  1  0  0  0  0
 16 17  2  0  0  0  0
 18  1  1  0  0  0  0
 18 19  1  0  0  0  0
 18 20  1  0  0  0  0
 19 20  1  0  0  0  0
 19 23  1  0  0  0  0
 20 24  1  0  0  0  0
 21 18  1  0  0  0  0
 22 19  1  0  0  0  0
 25 20  1  0  0  0  0
M  END
>  <minimizedAffinity>
-4.7947526

$$$$

 OpenBabel03272504543D

 25 27  0  0  0  0  0  0  0  0999 V2000
   39.9850   22.9990   37.0280 C   0  0  0  0  0  0  0  0  0  0  0  0
   39.3210   22.9850   38.2680 C   0  0  0  0  0  0  0  0  0  0  0  0
   38.1950   23.7990   38.3730 C   0  0  0  0  0  0  0  0  0  0  0  0
   37.8050   24.5500   37.2970 N   0  0  0  0  0  0  0  0  0  0  0  0
   38.4770   24.5330   36.1150 C   0  0  0  0  0  0  0  0  0  0  0  0
   39.5820   23.7460   35.9830 N   0  0  0  0  0  0  0  0  0  0  0  0
   39.6860   22.3670   39.0730 H   0  0  0  0  0  0  0  0  0  0  0  0
   37.6440   23.8280   39.3040 H   0  0  0  0  0  0  0  0  0  0  0  0
   38.0440   27.3210   36.4100 F   0  0  0  0  0  0  0  0  0  0  0  0
   37.8000   26.7140   35.2220 C   0  0  0  0  0  0  0  0  0  0  0  0
   37.9920   25.3630   35.0190 C   0  0  0  0  0  0  0  0  0  0  0  0
   37.7500   24.7300   33.8190 C   0  0  0  0  0  0  0  0  0  0  0  0
   37.8990   23.6680   33.6510 H   0  0  0  0  0  0  0  0  0  0  0  0
   37.2880   25.4950   32.7620 C   0  0  0  0  0  0  0  0  0  0  0  0
   37.0860   25.0310   31.8000 H   0  0  0  0  0  0  0  0  0  0  0  0
   37.0940   26.8480   32.9580 C   0  0  0  0  0  3  0  0  0  0  0  0
   37.3360   27.4980   34.1680 C   0  0  0  0  0  3  0  0  0  0  0  0
   41.1840   22.1020   36.8910 C   0  0  0  0  0  0  0  0  0  0  0  0
   41.8530   21.9190   35.6060 C   0  0  0  0  0  0  0  0  0  0  0  0
   42.4710   22.8580   36.6090 C   0  0  0  0  0  0  0  0  0  0  0  0
   41.3440   21.3940   37.7440 H   0  0  0  0  0  0  0  0  0  0  0  0
   42.3690   20.9560   35.3900 H   0  0  0  0  0  0  0  0  0  0  0  0
   41.4050   22.4530   34.7250 H   0  0  0  0  0  0  0  0  0  0  0  0
   42.4300   23.9420   36.4940 H   0  0  0  0  0  0  0  0  0  0  0  0
   43.4290   22.5010   37.0360 H   0  0  0  0  0  0  0  0  0  0  0  0
  1  2  1  0  0  0  0
  2  3  2  0  0  0  0
  2  7  1  0  0  0  0
  3  8  1  0  0  0  0
  4  3  1  0  0  0  0
  5  4  2  0  0  0  0
  6  5  1  0  0  0  0
  6  1  2  0  0  0  0
 10  9  1  0  0  0  0
 11 10  1  0  0  0  0
 11  5  1  0  0  0  0
 12 11  2  0  0  0  0
 13 12  1  0  0  0  0
 14 16  2  0  0  0  0
 14 12  1  0  0  0  0
 15 14  1  0  0  0  0
 16 17  1  0  0  0  0
 17 10  2  0  0  0  0
 18  1  1  0  0  0  0
 18 21  1  0  0  0  0
 19 20  1  0  0  0  0
 19 18  1  0  0  0  0
 20 18  1  0  0  0  0
 20 25  1  0  0  0  0
 22 19  1  0  0  0  0
 23 19  1  0  0  0  0
 24 20  1  0  0  0  0
M  END
>  <minimizedAffinity>
-4.77789259

$$$$

 OpenBabel03272504543D

 25 27  0  0  0  0  0  0  0  0999 V2000
   38.3400   24.5320   36.2290 C   0  0  0  0  0  0  0  0  0  0  0  0
   39.6620   24.3150   35.8000 C   0  0  0  0  0  0  0  0  0  0  0  0
   40.0780   25.0490   34.6910 C   0  0  0  0  0  0  0  0  0  0  0  0
   39.2050   25.9180   34.0930 N   0  0  0  0  0  0  0  0  0  0  0  0
   37.9340   26.0970   34.5430 C   0  0  0  0  0  0  0  0  0  0  0  0
   37.5000   25.3930   35.6250 N   0  0  0  0  0  0  0  0  0  0  0  0
   40.2950   23.6140   36.3200 H   0  0  0  0  0  0  0  0  0  0  0  0
   41.0850   24.9230   34.3160 H   0  0  0  0  0  0  0  0  0  0  0  0
   37.0930   25.6880   31.8650 F   0  0  0  0  0  0  0  0  0  0  0  0
   36.6940   26.7910   32.5450 C   0  0  0  0  0  0  0  0  0  0  0  0
   37.0700   27.0440   33.8470 C   0  0  0  0  0  0  0  0  0  0  0  0
   36.6730   28.1600   34.5530 C   0  0  0  0  0  0  0  0  0  0  0  0
   36.9650   28.3650   35.5790 H   0  0  0  0  0  0  0  0  0  0  0  0
   35.8530   29.0750   33.9170 C   0  0  0  0  0  0  0  0  0  0  0  0
   35.5200   29.9660   34.4410 H   0  0  0  0  0  0  0  0  0  0  0  0
   35.4730   28.8280   32.6120 C   0  0  0  0  0  3  0  0  0  0  0  0
   35.8680   27.7030   31.8890 C   0  0  0  0  0  3  0  0  0  0  0  0
   37.8880   23.7680   37.4420 C   0  0  0  0  0  0  0  0  0  0  0  0
   38.8310   23.3730   38.4860 C   0  0  0  0  0  0  0  0  0  0  0  0
   37.9600   24.5790   38.7240 C   0  0  0  0  0  0  0  0  0  0  0  0
   36.8770   23.2940   37.3540 H   0  0  0  0  0  0  0  0  0  0  0  0
   38.6370   22.4500   39.0780 H   0  0  0  0  0  0  0  0  0  0  0  0
   39.9090   23.6390   38.3160 H   0  0  0  0  0  0  0  0  0  0  0  0
   38.3500   25.5960   38.6820 H   0  0  0  0  0  0  0  0  0  0  0  0
   37.1950   24.4380   39.5140 H   0  0  0  0  0  0  0  0  0  0  0  0
  1 18  1  0  0  0  0
  2  1  1  0  0  0  0
  2  7  1  0  0  0  0
  3  2  2  0  0  0  0
  4  5  2  0  0  0  0
  4  3  1  0  0  0  0
  5  6  1  0  0  0  0
  6  1  2  0  0  0  0
  8  3  1  0  0  0  0
  9 10  1  0  0  0  0
 10 11  1  0  0  0  0
 11  5  1  0  0  0  0
 11 12  2  0  0  0  0
 12 13  1  0  0  0  0
 14 15  1  0  0  0  0
 14 12  1  0  0  0  0
 16 14  2  0  0  0  0
 17 10  2  0  0  0  0
 17 16  1  0  0  0  0
 18 19  1  0  0  0  0
 18 20  1  0  0  0  0
 19 20  1  0  0  0  0
 19 22  1  0  0  0  0
 20 25  1  0  0  0  0
 21 18  1  0  0  0  0
 23 19  1  0  0  0  0
 24 20  1  0  0  0  0
M  END
>  <minimizedAffinity>
-4.73360205

$$$$

 OpenBabel03272504543D

 25 27  0  0  0  0  0  0  0  0999 V2000
   37.1930   26.0910   33.5150 C   0  0  0  0  0  0  0  0  0  0  0  0
   37.0720   27.4040   34.0050 C   0  0  0  0  0  0  0  0  0  0  0  0
   37.6720   27.6600   35.2360 C   0  0  0  0  0  0  0  0  0  0  0  0
   38.3290   26.6500   35.8870 N   0  0  0  0  0  0  0  0  0  0  0  0
   38.4220   25.3940   35.3750 C   0  0  0  0  0  0  0  0  0  0  0  0
   37.8450   25.1140   34.1740 N   0  0  0  0  0  0  0  0  0  0  0  0
   36.5390   28.1490   33.4360 H   0  0  0  0  0  0  0  0  0  0  0  0
   37.6100   28.6530   35.6620 H   0  0  0  0  0  0  0  0  0  0  0  0
   37.4040   24.3110   37.7920 F   0  0  0  0  0  0  0  0  0  0  0  0
   38.5960   23.8900   37.3040 C   0  0  0  0  0  0  0  0  0  0  0  0
   39.1410   24.3780   36.1350 C   0  0  0  0  0  0  0  0  0  0  0  0
   40.3520   23.9600   35.6240 C   0  0  0  0  0  0  0  0  0  0  0  0
   40.7870   24.3400   34.7050 H   0  0  0  0  0  0  0  0  0  0  0  0
   41.0560   22.9970   36.3260 C   0  0  0  0  0  0  0  0  0  0  0  0
   42.0130   22.6430   35.9540 H   0  0  0  0  0  0  0  0  0  0  0  0
   40.5150   22.5030   37.4970 C   0  0  0  0  0  3  0  0  0  0  0  0
   39.2920   22.9190   38.0220 C   0  0  0  0  0  3  0  0  0  0  0  0
   36.5750   25.8090   32.1730 C   0  0  0  0  0  0  0  0  0  0  0  0
   36.4180   26.8620   31.1730 C   0  0  0  0  0  0  0  0  0  0  0  0
   37.5660   25.8970   31.0250 C   0  0  0  0  0  0  0  0  0  0  0  0
   36.0080   24.8460   32.1070 H   0  0  0  0  0  0  0  0  0  0  0  0
   35.5770   26.8050   30.4460 H   0  0  0  0  0  0  0  0  0  0  0  0
   36.7490   27.8930   31.4720 H   0  0  0  0  0  0  0  0  0  0  0  0
   38.5970   26.1810   31.2410 H   0  0  0  0  0  0  0  0  0  0  0  0
   37.4750   25.2110   30.1590 H   0  0  0  0  0  0  0  0  0  0  0  0
  1  2  2  0  0  0  0
  1  6  1  0  0  0  0
  2  3  1  0  0  0  0
  3  8  1  0  0  0  0
  3  4  2  0  0  0  0
  5  4  1  0  0  0  0
  5 11  1  0  0  0  0
  6  5  2  0  0  0  0
  7  2  1  0  0  0  0
 10  9  1  0  0  0  0
 10 17  1  0  0  0  0
 11 10  2  0  0  0  0
 12 11  1  0  0  0  0
 12 14  2  0  0  0  0
 13 12  1  0  0  0  0
 14 16  1  0  0  0  0
 15 14  1  0  0  0  0
 16 17  2  0  0  0  0
 18  1  1  0  0  0  0
 19 23  1  0  0  0  0
 19 18  1  0  0  0  0
 20 19  1  0  0  0  0
 20 24  1  0  0  0  0
 20 18  1  0  0  0  0
 21 18  1  0  0  0  0
 22 19  1  0  0  0  0
 25 20  1  0  0  0  0
M  END
>  <minimizedAffinity>
-4.6305232

$$$$
