
 OpenBabel03272508113D

 34 36  0  0  0  0  0  0  0  0999 V2000
   36.6490   29.6200   44.1690 Cl  0  0  0  0  0  0  0  0  0  0  0  0
   38.2760   29.9630   43.5570 C   0  0  0  0  0  0  0  0  0  0  0  0
   39.3320   30.3990   44.3510 C   0  0  0  0  0  0  0  0  0  0  0  0
   40.5460   30.6250   43.7310 C   0  0  0  0  0  0  0  0  0  0  0  0
   40.7100   30.4300   42.3800 C   0  0  0  0  0  0  0  0  0  0  0  0
   39.6860   30.0050   41.5860 C   0  0  0  0  0  0  0  0  0  0  0  0
   38.4630   29.7700   42.1770 C   0  0  0  0  0  0  0  0  0  0  0  0
   41.3170   30.9640   44.4310 H   0  0  0  0  0  0  0  0  0  0  0  0
   41.6960   30.6330   41.9810 H   0  0  0  0  0  0  0  0  0  0  0  0
   39.7950   29.8470   40.5290 H   0  0  0  0  0  0  0  0  0  0  0  0
   36.3890   31.3640   41.0530 F   0  0  0  0  0  0  0  0  0  0  0  0
   36.3470   30.0540   40.7630 C   0  0  0  0  0  0  0  0  0  0  0  0
   37.3660   29.3140   41.3250 C   0  0  0  0  0  0  0  0  0  0  0  0
   37.4320   27.9370   41.0960 C   0  0  0  0  0  0  0  0  0  0  0  0
   38.1860   27.2530   41.4820 H   0  0  0  0  0  0  0  0  0  0  0  0
   36.4830   27.3020   40.3090 C   0  0  0  0  0  0  0  0  0  0  0  0
   36.5050   26.2260   40.1100 H   0  0  0  0  0  0  0  0  0  0  0  0
   35.4480   28.0520   39.7400 C   0  0  0  0  0  0  0  0  0  0  0  0
   35.4020   29.4260   39.9810 C   0  0  0  0  0  0  0  0  0  0  0  0
   38.9840   30.5330   45.6540 O   0  0  0  0  0  0  0  0  0  0  0  0
   39.4760   32.5500   47.1870 O   0  0  0  0  0  0  0  0  0  0  0  0
   38.3760   31.8860   46.4610 P   0  0  1  0  0  0  0  0  0  0  0  0
   37.7950   32.9190   45.2190 O   0  0  0  0  0  0  0  0  0  0  0  0
   38.5470   33.2950   44.7080 H   0  0  0  0  0  0  0  0  0  0  0  0
   37.0660   31.4060   47.4340 O   0  0  0  0  0  0  0  0  0  0  0  0
   37.6000   30.5290   50.9830 C   0  0  0  0  0  0  0  0  0  0  0  0
   37.7140   31.3010   49.8230 C   0  0  0  0  0  0  0  0  0  0  0  0
   37.0970   30.8430   48.6640 C   0  0  0  0  0  0  0  0  0  0  0  0
   36.4110   29.6590   48.7220 N   0  0  0  0  0  0  0  0  0  0  0  0
   36.3270   28.9450   49.8690 C   0  0  0  0  0  0  0  0  0  0  0  0
   36.9200   29.3800   50.9890 N   0  0  0  0  0  0  0  0  0  0  0  0
   38.1220   30.9750   51.8450 H   0  0  0  0  0  0  0  0  0  0  0  0
   38.2320   32.2360   49.7000 H   0  0  0  0  0  0  0  0  0  0  0  0
   35.7890   28.0070   49.9310 H   0  0  0  0  0  0  0  0  0  0  0  0
  2  1  1  0  0  0  0
  2  3  1  0  0  0  0
  3 20  1  0  0  0  0
  4  3  2  0  0  0  0
  4  8  1  0  0  0  0
  5  4  1  0  0  0  0
  6  7  1  0  0  0  0
  6  5  2  0  0  0  0
  7  2  2  0  0  0  0
  9  5  1  0  0  0  0
 10  6  1  0  0  0  0
 12 11  1  0  0  0  0
 12 13  1  0  0  0  0
 13  7  1  0  0  0  0
 14 13  2  0  0  0  0
 14 15  1  0  0  0  0
 16 14  1  0  0  0  0
 17 16  1  0  0  0  0
 18 19  1  0  0  0  0
 18 16  2  0  0  0  0
 19 12  2  0  0  0  0
 20 22  1  0  0  0  0
 22 21  2  1  0  0  0
 22 25  1  0  0  0  0
 23 22  1  0  0  0  0
 24 23  1  0  0  0  0
 25 28  1  0  0  0  0
 26 31  1  0  0  0  0
 26 32  1  0  0  0  0
 27 26  2  0  0  0  0
 28 29  2  0  0  0  0
 28 27  1  0  0  0  0
 29 30  1  0  0  0  0
 30 34  1  0  0  0  0
 30 31  2  0  0  0  0
 33 27  1  0  0  0  0
M  END
>  <minimizedAffinity>
-4.92045164

>  <minimizedRMSD>
0.48010233

$$$$
