
 OpenBabel03272509503D

 33 35  0  0  0  0  0  0  0  0999 V2000
   37.3330   30.1770   51.5120 C   0  0  0  0  0  0  0  0  0  0  0  0
   38.0760   30.8660   50.5160 C   0  0  0  0  0  0  0  0  0  0  0  0
   37.7130   30.6530   49.2000 C   0  0  0  0  0  0  0  0  0  0  0  0
   36.6670   29.7940   48.9730 N   0  0  0  0  0  0  0  0  0  0  0  0
   35.9900   29.1620   49.9280 C   0  0  0  0  0  0  0  0  0  0  0  0
   36.3340   29.3620   51.2150 N   0  0  0  0  0  0  0  0  0  0  0  0
   37.6160   30.3430   52.5470 H   0  0  0  0  0  0  0  0  0  0  0  0
   38.8830   31.5240   50.7630 H   0  0  0  0  0  0  0  0  0  0  0  0
   38.9410   33.2680   48.9990 F   0  0  0  0  0  0  0  0  0  0  0  0
   38.9190   32.4770   47.9340 C   0  0  0  0  0  0  0  0  0  0  0  0
   38.3390   31.2560   48.0500 C   0  0  0  0  0  0  0  0  0  0  0  0
   38.3750   30.5180   46.8670 C   0  0  0  0  0  0  0  0  0  0  0  0
   37.9490   29.5060   46.7870 H   0  0  0  0  0  0  0  0  0  0  0  0
   38.9440   30.9860   45.7050 C   0  0  0  0  0  0  0  0  0  0  0  0
   38.9560   30.3900   44.8080 H   0  0  0  0  0  0  0  0  0  0  0  0
   39.5170   32.2270   45.6420 C   0  0  0  0  0  3  0  0  0  0  0  0
   39.4980   32.9820   46.7900 C   0  0  0  0  0  3  0  0  0  0  0  0
   34.9980   28.3640   49.4410 O   0  0  0  0  0  0  0  0  0  0  0  0
   34.4500   28.6570   48.1620 C   0  0  0  0  0  0  0  0  0  0  0  0
   33.8450   29.5870   48.1670 H   0  0  0  0  0  0  0  0  0  0  0  0
   35.2910   28.8290   47.4570 H   0  0  0  0  0  0  0  0  0  0  0  0
   33.5700   27.5310   47.7060 C   0  0  0  0  0  0  0  0  0  0  0  0
   33.8930   27.2300   46.6950 H   0  0  0  0  0  0  0  0  0  0  0  0
   33.7110   26.6600   48.3900 H   0  0  0  0  0  0  0  0  0  0  0  0
   32.1320   27.9020   47.6920 C   0  0  0  0  0  0  0  0  0  0  0  0
   31.3550   27.5020   48.7750 C   0  0  0  0  0  0  0  0  0  0  0  0
   30.0180   27.7950   48.8580 C   0  0  0  0  0  0  0  0  0  0  0  0
   29.4440   28.4780   47.8780 N   0  0  0  0  0  0  0  0  0  0  0  0
   30.2050   28.8710   46.8130 C   0  0  0  0  0  0  0  0  0  0  0  0
   31.5260   28.6000   46.7000 N   0  0  0  0  0  0  0  0  0  0  0  0
   31.7690   26.9430   49.6050 H   0  0  0  0  0  0  0  0  0  0  0  0
   29.4090   27.4970   49.6780 H   0  0  0  0  0  0  0  0  0  0  0  0
   29.8420   29.4330   45.9600 H   0  0  0  0  0  0  0  0  0  0  0  0
  1  7  1  0  0  0  0
  2  8  1  0  0  0  0
  2  1  2  0  0  0  0
  3  2  1  0  0  0  0
  4  3  2  0  0  0  0
  4  5  1  0  0  0  0
  5  6  2  0  0  0  0
  6  1  1  0  0  0  0
 10 11  1  0  0  0  0
 10  9  1  0  0  0  0
 11  3  1  0  0  0  0
 12 11  2  0  0  0  0
 13 12  1  0  0  0  0
 14 12  1  0  0  0  0
 15 14  1  0  0  0  0
 16 14  2  0  0  0  0
 16 17  1  0  0  0  0
 17 10  2  0  0  0  0
 18  5  1  0  0  0  0
 19 20  1  0  0  0  0
 19 18  1  0  0  0  0
 21 19  1  0  0  0  0
 22 19  1  0  0  0  0
 22 24  1  0  0  0  0
 23 22  1  0  0  0  0
 25 22  1  0  0  0  0
 25 26  1  0  0  0  0
 26 27  2  0  0  0  0
 26 31  1  0  0  0  0
 27 32  1  0  0  0  0
 28 27  1  0  0  0  0
 29 28  2  0  0  0  0
 30 29  1  0  0  0  0
 30 25  2  0  0  0  0
 33 29  1  0  0  0  0
M  END
>  <minimizedAffinity>
-6.23237038

>  <minimizedRMSD>
1.39204907

$$$$
