REMARK  Name = 
REMARK  5 active torsions:
REMARK  status: ('A' for Active; 'I' for Inactive)
REMARK    1  A    between atoms: C_1  and  C_2
REMARK    2  A    between atoms: C_1  and  O_9
REMARK    3  A    between atoms: C_2  and  C_3
REMARK    4  A    between atoms: O_9  and  C_14
REMARK    5  A    between atoms: C_12  and  C_27
REMARK                            x       y       z     vdW  Elec       q    Type
REMARK                         _______ _______ _______ _____ _____    ______ ____
ROOT
ATOM      1  C   UNL     1      37.223  30.170  51.287  0.00  0.00    +0.000 A 
ATOM      2  C   UNL     1      37.919  30.630  50.137  0.00  0.00    +0.000 A 
ATOM      3  C   UNL     1      37.433  30.232  48.906  0.00  0.00    +0.000 A 
ATOM      4  N   UNL     1      36.321  29.428  48.905  0.00  0.00    +0.000 NA
ATOM      5  C   UNL     1      35.691  29.012  50.001  0.00  0.00    +0.000 A 
ATOM      6  N   UNL     1      36.155  29.394  51.206  0.00  0.00    +0.000 NA
ATOM      7  H   UNL     1      37.603  30.482  52.255  0.00  0.00    +0.000 HD
ATOM      8  H   UNL     1      38.783  31.258  50.208  0.00  0.00    +0.000 HD
ENDROOT
BRANCH   3  11
ATOM      9  F   UNL     1      37.394  28.706  46.444  0.00  0.00    +0.000 F 
ATOM     10  C   UNL     1      37.988  29.893  46.464  0.00  0.00    +0.000 A 
ATOM     11  C   UNL     1      37.994  30.591  47.627  0.00  0.00    +0.000 A 
ATOM     12  C   UNL     1      38.645  31.820  47.525  0.00  0.00    +0.000 A 
ATOM     13  H   UNL     1      38.742  32.512  48.377  0.00  0.00    +0.000 HD
ATOM     14  C   UNL     1      39.221  32.273  46.360  0.00  0.00    +0.000 A 
ATOM     15  H   UNL     1      39.717  33.228  46.315  0.00  0.00    +0.000 HD
ATOM     16  C   UNL     1      39.186  31.528  45.213  0.00  0.00    +0.000 A 
ATOM     17  C   UNL     1      38.552  30.312  45.278  0.00  0.00    +0.000 A 
ENDBRANCH   3  11
BRANCH   5  18
ATOM     18  O   UNL     1      34.614  28.221  49.730  0.00  0.00    +0.000 OA
BRANCH  18  19
ATOM     19  C   UNL     1      33.725  28.608  48.690  0.00  0.00    +0.000 C 
ATOM     20  H   UNL     1      33.097  29.477  48.976  0.00  0.00    +0.000 HD
ATOM     21  H   UNL     1      34.333  28.928  47.817  0.00  0.00    +0.000 HD
BRANCH  19  22
ATOM     22  C   UNL     1      32.813  27.470  48.339  0.00  0.00    +0.000 C 
ATOM     23  H   UNL     1      33.097  27.097  47.340  0.00  0.00    +0.000 HD
ATOM     24  H   UNL     1      32.964  26.644  49.075  0.00  0.00    +0.000 HD
BRANCH  22  25
ATOM     25  C   UNL     1      31.381  27.864  48.348  0.00  0.00    +0.000 A 
ATOM     26  C   UNL     1      30.690  27.746  49.550  0.00  0.00    +0.000 A 
ATOM     27  C   UNL     1      29.366  28.084  49.663  0.00  0.00    +0.000 A 
ATOM     28  N   UNL     1      28.721  28.535  48.597  0.00  0.00    +0.000 NA
ATOM     29  C   UNL     1      29.397  28.651  47.416  0.00  0.00    +0.000 A 
ATOM     30  N   UNL     1      30.703  28.328  47.269  0.00  0.00    +0.000 NA
ATOM     31  H   UNL     1      31.165  27.384  50.454  0.00  0.00    +0.000 HD
ATOM     32  H   UNL     1      28.822  28.000  50.574  0.00  0.00    +0.000 HD
ATOM     33  H   UNL     1      28.972  29.008  46.485  0.00  0.00    +0.000 HD
ENDBRANCH  22  25
ENDBRANCH  19  22
ENDBRANCH  18  19
ENDBRANCH   5  18
TORSDOF 5
