
 OpenBabel03272506123D

 44 47  0  0  1  0  0  0  0  0999 V2000
   35.5740   30.1330   47.5040 C   0  0  1  0  0  0  0  0  0  0  0  0
   34.7770   28.8130   47.7810 C   0  0  0  0  0  0  0  0  0  0  0  0
   34.2410   28.7860   49.2070 C   0  0  0  0  0  0  0  0  0  0  0  0
   35.3150   29.1320   50.1640 C   0  0  0  0  0  0  0  0  0  0  0  0
   36.6400   29.1570   49.5380 C   0  0  0  0  0  0  0  0  0  0  0  0
   36.7670   30.0810   48.4060 C   0  0  2  0  0  0  0  0  0  0  0  0
   34.9450   30.7850   47.9980 H   0  0  0  0  0  0  0  0  0  0  0  0
   35.4260   27.9390   47.6420 H   0  0  0  0  0  0  0  0  0  0  0  0
   33.9410   28.8320   47.0840 H   0  0  0  0  0  0  0  0  0  0  0  0
   33.7890   27.7800   49.3160 H   0  0  0  0  0  0  0  0  0  0  0  0
   33.3680   29.4880   49.3010 H   0  0  0  0  0  0  0  0  0  0  0  0
   35.0570   29.9150   50.8920 H   0  0  0  0  0  0  0  0  0  0  0  0
   35.3610   28.2220   50.8620 H   0  0  0  0  0  0  0  0  0  0  0  0
   37.3790   29.4850   50.3200 H   0  0  0  0  0  0  0  0  0  0  0  0
   36.9540   28.0880   49.3400 H   0  0  0  0  0  0  0  0  0  0  0  0
   37.5300   29.5060   47.7820 H   0  0  0  0  0  0  0  0  0  0  0  0
   34.8220   30.1140   45.1800 C   0  0  0  0  0  0  0  0  0  0  0  0
   35.1470   30.2200   43.8200 C   0  0  0  0  0  0  0  0  0  0  0  0
   36.4460   30.3060   43.3570 C   0  0  0  0  0  0  0  0  0  0  0  0
   37.5050   30.2860   44.2770 C   0  0  0  0  0  0  0  0  0  0  0  0
   37.1530   30.1820   45.6050 C   0  0  0  0  0  0  0  0  0  0  0  0
   35.8660   30.1000   46.0910 C   0  0  0  0  0  0  0  0  0  0  0  0
   34.3560   30.2440   43.0570 H   0  0  0  0  0  0  0  0  0  0  0  0
   36.5820   30.3890   42.2800 H   0  0  0  0  0  0  0  0  0  0  0  0
   38.4670   30.3560   43.8040 H   0  0  0  0  0  0  0  0  0  0  0  0
   38.0920   30.1670   46.1320 H   0  0  0  0  0  0  0  0  0  0  0  0
   32.9510   28.5510   45.3860 C   0  0  0  0  0  0  0  0  0  0  0  0
   33.4390   29.9090   45.4570 C   0  0  0  0  0  0  0  0  0  0  0  0
   32.5290   30.8600   45.8040 C   0  0  0  0  0  0  0  0  0  0  0  0
   31.2520   30.5060   46.0640 N   0  0  0  0  0  0  0  0  0  0  0  0
   30.8130   29.2090   45.9910 C   0  0  0  0  0  0  0  0  0  0  0  0
   31.6830   28.2050   45.6430 N   0  0  0  0  0  0  0  0  0  0  0  0
   33.5520   27.6940   45.1260 H   0  0  0  0  0  0  0  0  0  0  0  0
   32.5970   31.9010   45.8560 H   0  0  0  0  0  0  0  0  0  0  0  0
   29.7780   28.9330   46.2030 H   0  0  0  0  0  0  0  0  0  0  0  0
   36.1300   32.1690   50.3540 F   0  0  0  0  0  0  0  0  0  0  0  0
   37.1790   32.3350   49.5210 C   0  0  0  0  0  0  0  0  0  0  0  0
   37.4800   31.3610   48.5960 C   0  0  0  0  0  0  0  0  0  0  0  0
   38.5990   31.7570   47.8350 C   0  0  0  0  0  0  0  0  0  0  0  0
   38.9410   31.0550   47.0540 H   0  0  0  0  0  0  0  0  0  0  0  0
   39.3240   32.8970   47.9310 C   0  0  0  0  0  0  0  0  0  0  0  0
   40.1680   33.0920   47.2890 H   0  0  0  0  0  0  0  0  0  0  0  0
   38.9300   33.7990   48.8950 C   0  0  0  0  0  0  0  0  0  0  0  0
   37.8490   33.5250   49.7020 C   0  0  0  0  0  0  0  0  0  0  0  0
  1  2  1  0  0  0  0
  1  7  1  1  0  0  0
  1  6  1  0  0  0  0
  2  3  1  0  0  0  0
  3 11  1  0  0  0  0
  3 10  1  0  0  0  0
  3  4  1  0  0  0  0
  4 13  1  0  0  0  0
  4 12  1  0  0  0  0
  5  4  1  0  0  0  0
  5 14  1  0  0  0  0
  6 16  1  6  0  0  0
  6 38  1  0  0  0  0
  6  5  1  0  0  0  0
  8  2  1  0  0  0  0
  9  2  1  0  0  0  0
 15  5  1  0  0  0  0
 17 28  1  0  0  0  0
 17 22  1  0  0  0  0
 18 17  2  0  0  0  0
 19 18  1  0  0  0  0
 19 20  2  0  0  0  0
 20 21  1  0  0  0  0
 21 22  2  0  0  0  0
 21 26  1  0  0  0  0
 22  1  1  0  0  0  0
 23 18  1  0  0  0  0
 24 19  1  0  0  0  0
 25 20  1  0  0  0  0
 27 28  2  0  0  0  0
 27 32  1  0  0  0  0
 28 29  1  0  0  0  0
 29 34  1  0  0  0  0
 29 30  2  0  0  0  0
 31 30  1  0  0  0  0
 31 35  1  0  0  0  0
 32 31  2  0  0  0  0
 33 27  1  0  0  0  0
 37 44  1  0  0  0  0
 37 36  1  0  0  0  0
 38 37  2  0  0  0  0
 39 41  2  0  0  0  0
 39 38  1  0  0  0  0
 40 39  1  0  0  0  0
 41 43  1  0  0  0  0
 42 41  1  0  0  0  0
 43 44  2  0  0  0  0
M  END
>  <minimizedAffinity>
-6.49880505

>  <minimizedRMSD>
3.50513816

$$$$
