
 OpenBabel03272509503D

 33 35  0  0  0  0  0  0  0  0999 V2000
   37.2260   30.0100   51.3210 C   0  0  0  0  0  0  0  0  0  0  0  0
   38.0390   30.8630   50.5280 C   0  0  0  0  0  0  0  0  0  0  0  0
   37.8150   30.8570   49.1650 C   0  0  0  0  0  0  0  0  0  0  0  0
   36.8270   30.0270   48.6990 N   0  0  0  0  0  0  0  0  0  0  0  0
   36.0810   29.2370   49.4680 C   0  0  0  0  0  0  0  0  0  0  0  0
   36.2900   29.2350   50.7980 N   0  0  0  0  0  0  0  0  0  0  0  0
   37.4000   30.0140   52.3930 H   0  0  0  0  0  0  0  0  0  0  0  0
   38.7950   31.4890   50.9570 H   0  0  0  0  0  0  0  0  0  0  0  0
   38.5710   30.1240   46.4660 F   0  0  0  0  0  0  0  0  0  0  0  0
   38.8940   31.3250   46.9270 C   0  0  0  0  0  0  0  0  0  0  0  0
   38.5300   31.6490   48.1940 C   0  0  0  0  0  0  0  0  0  0  0  0
   38.9230   32.9340   48.5660 C   0  0  0  0  0  0  0  0  0  0  0  0
   38.7070   33.3540   49.5600 H   0  0  0  0  0  0  0  0  0  0  0  0
   39.6100   33.7820   47.7280 C   0  0  0  0  0  0  0  0  0  0  0  0
   39.9000   34.7700   48.0470 H   0  0  0  0  0  0  0  0  0  0  0  0
   39.9530   33.4060   46.4590 C   0  0  0  0  0  3  0  0  0  0  0  0
   39.5810   32.1460   46.0600 C   0  0  0  0  0  3  0  0  0  0  0  0
   35.1700   28.5090   48.7620 O   0  0  0  0  0  0  0  0  0  0  0  0
   34.3250   29.1830   47.8380 C   0  0  0  0  0  0  0  0  0  0  0  0
   33.6270   29.8840   48.3410 H   0  0  0  0  0  0  0  0  0  0  0  0
   34.9640   29.7960   47.1680 H   0  0  0  0  0  0  0  0  0  0  0  0
   33.5090   28.1890   47.0640 C   0  0  0  0  0  0  0  0  0  0  0  0
   33.6140   28.4210   45.9900 H   0  0  0  0  0  0  0  0  0  0  0  0
   33.9200   27.1660   47.2410 H   0  0  0  0  0  0  0  0  0  0  0  0
   32.0760   28.2040   47.4510 C   0  0  0  0  0  0  0  0  0  0  0  0
   31.7370   27.6510   48.6820 C   0  0  0  0  0  0  0  0  0  0  0  0
   30.4430   27.6160   49.1320 C   0  0  0  0  0  0  0  0  0  0  0  0
   29.4810   28.1220   48.3730 N   0  0  0  0  0  0  0  0  0  0  0  0
   29.8110   28.6640   47.1640 C   0  0  0  0  0  0  0  0  0  0  0  0
   31.0770   28.7160   46.6890 N   0  0  0  0  0  0  0  0  0  0  0  0
   32.4800   27.2240   49.3450 H   0  0  0  0  0  0  0  0  0  0  0  0
   30.1660   27.1980   50.0700 H   0  0  0  0  0  0  0  0  0  0  0  0
   29.1100   29.1050   46.4640 H   0  0  0  0  0  0  0  0  0  0  0  0
  1  7  1  0  0  0  0
  2  8  1  0  0  0  0
  2  1  2  0  0  0  0
  3  2  1  0  0  0  0
  4  3  2  0  0  0  0
  4  5  1  0  0  0  0
  5  6  2  0  0  0  0
  6  1  1  0  0  0  0
  9 10  1  0  0  0  0
 10 11  1  0  0  0  0
 11 12  2  0  0  0  0
 11  3  1  0  0  0  0
 12 13  1  0  0  0  0
 14 15  1  0  0  0  0
 14 12  1  0  0  0  0
 16 14  2  0  0  0  0
 17 16  1  0  0  0  0
 17 10  2  0  0  0  0
 18  5  1  0  0  0  0
 19 20  1  0  0  0  0
 19 18  1  0  0  0  0
 21 19  1  0  0  0  0
 22 24  1  0  0  0  0
 22 25  1  0  0  0  0
 22 19  1  0  0  0  0
 23 22  1  0  0  0  0
 25 26  1  0  0  0  0
 26 27  2  0  0  0  0
 26 31  1  0  0  0  0
 27 32  1  0  0  0  0
 28 27  1  0  0  0  0
 29 28  2  0  0  0  0
 30 29  1  0  0  0  0
 30 25  2  0  0  0  0
 33 29  1  0  0  0  0
M  END
>  <minimizedAffinity>
-5.9131465

>  <minimizedRMSD>
1.34205508

$$$$
