
 OpenBabel03272509103D

 40 43  0  0  0  0  0  0  0  0999 V2000
   35.0120   29.3190   34.0340 C   0  0  0  0  0  0  0  0  0  0  0  0
   34.1170   28.7070   33.9130 H   0  0  0  0  0  0  0  0  0  0  0  0
   35.1550   29.8780   33.0660 H   0  0  0  0  0  0  0  0  0  0  0  0
   34.7910   30.3850   35.0560 C   0  0  0  0  0  0  0  0  0  0  0  0
   35.7750   31.2770   35.4390 C   0  0  0  0  0  0  0  0  0  0  0  0
   35.4970   32.2420   36.3960 C   0  0  0  0  0  0  0  0  0  0  0  0
   34.2500   32.3380   36.9840 C   0  0  0  0  0  0  0  0  0  0  0  0
   33.2910   31.4590   36.6010 C   0  0  0  0  0  0  0  0  0  0  0  0
   33.5500   30.4960   35.6550 C   0  0  0  0  0  0  0  0  0  0  0  0
   36.7260   31.1420   34.9360 H   0  0  0  0  0  0  0  0  0  0  0  0
   36.3380   32.9020   36.6330 H   0  0  0  0  0  0  0  0  0  0  0  0
   34.1430   33.1350   37.7240 H   0  0  0  0  0  0  0  0  0  0  0  0
   32.3250   31.5450   37.0670 H   0  0  0  0  0  0  0  0  0  0  0  0
   31.9480   30.5510   33.3010 F   0  0  0  0  0  0  0  0  0  0  0  0
   31.6370   29.5880   34.2020 C   0  0  0  0  0  0  0  0  0  0  0  0
   32.4410   29.6050   35.3230 C   0  0  0  0  0  0  0  0  0  0  0  0
   32.2290   28.6640   36.3360 C   0  0  0  0  0  0  0  0  0  0  0  0
   32.8040   28.5840   37.2650 H   0  0  0  0  0  0  0  0  0  0  0  0
   31.2340   27.7180   36.2420 C   0  0  0  0  0  0  0  0  0  0  0  0
   31.0340   26.9720   36.9980 H   0  0  0  0  0  0  0  0  0  0  0  0
   30.4430   27.7180   35.1160 C   0  0  0  0  0  3  0  0  0  0  0  0
   30.6390   28.6390   34.1080 C   0  0  0  0  0  3  0  0  0  0  0  0
   36.7100   27.5830   33.5290 C   0  0  0  0  0  3  0  0  0  0  0  0
   36.2380   28.5400   34.2600 C   0  0  0  0  0  3  0  0  0  0  0  0
   40.2380   26.6430   33.8060 C   0  0  0  0  0  0  0  0  0  0  0  0
   40.1970   25.6730   34.8260 C   0  0  0  0  0  0  0  0  0  0  0  0
   38.9440   25.3700   35.3930 C   0  0  0  0  0  0  0  0  0  0  0  0
   37.8290   26.0270   34.9300 N   0  0  0  0  0  0  0  0  0  0  0  0
   37.9520   26.9450   33.9470 C   0  0  0  0  0  0  0  0  0  0  0  0
   39.1260   27.2550   33.3890 N   0  0  0  0  0  0  0  0  0  0  0  0
   41.2020   26.8760   33.3680 H   0  0  0  0  0  0  0  0  0  0  0  0
   41.0660   25.1490   35.1990 H   0  0  0  0  0  0  0  0  0  0  0  0
   38.7850   24.3790   36.4600 C   0  0  0  0  0  0  0  0  0  0  0  0
   37.8760   24.5360   37.4810 C   0  0  0  0  0  0  0  0  0  0  0  0
   37.9840   23.4150   38.3180 C   0  0  0  0  0  0  0  0  0  0  0  0
   38.9490   22.6330   37.7690 N   0  0  0  0  0  0  0  0  0  0  0  0
   39.4230   23.2060   36.6660 N   0  0  0  0  0  0  0  0  0  0  0  0
   37.1780   25.3630   37.6530 H   0  0  0  0  0  0  0  0  0  0  0  0
   37.4310   23.1900   39.2210 H   0  0  0  0  0  0  0  0  0  0  0  0
   39.3040   21.7060   38.1230 H   0  0  0  0  0  0  0  0  0  0  0  0
  1 24  1  0  0  0  0
  1  4  1  0  0  0  0
  2  1  1  0  0  0  0
  3  1  1  0  0  0  0
  4  5  2  0  0  0  0
  4  9  1  0  0  0  0
  5  6  1  0  0  0  0
  6 11  1  0  0  0  0
  6  7  2  0  0  0  0
  7 12  1  0  0  0  0
  8  7  1  0  0  0  0
  8 13  1  0  0  0  0
  9  8  2  0  0  0  0
 10  5  1  0  0  0  0
 14 15  1  0  0  0  0
 15 16  1  0  0  0  0
 16  9  1  0  0  0  0
 16 17  2  0  0  0  0
 17 18  1  0  0  0  0
 19 17  1  0  0  0  0
 19 20  1  0  0  0  0
 21 19  2  0  0  0  0
 22 15  2  0  0  0  0
 22 21  1  0  0  0  0
 23 29  1  0  0  0  0
 23 24  2  0  0  0  0
 25 26  1  0  0  0  0
 26 32  1  0  0  0  0
 26 27  2  0  0  0  0
 27 33  1  0  0  0  0
 28 27  1  0  0  0  0
 29 28  2  0  0  0  0
 30 25  2  0  0  0  0
 30 29  1  0  0  0  0
 31 25  1  0  0  0  0
 33 37  2  0  0  0  0
 33 34  1  0  0  0  0
 34 38  1  0  0  0  0
 34 35  2  0  0  0  0
 35 39  1  0  0  0  0
 36 40  1  0  0  0  0
 36 35  1  0  0  0  0
 37 36  1  0  0  0  0
M  END
>  <minimizedAffinity>
-6.74951267

$$$$

 OpenBabel03272509103D

 40 43  0  0  0  0  0  0  0  0999 V2000
   35.0780   29.5080   33.4970 C   0  0  0  0  0  0  0  0  0  0  0  0
   34.6650   29.7860   34.4670 H   0  0  0  0  0  0  0  0  0  0  0  0
   34.2020   29.2470   32.8360 H   0  0  0  0  0  0  0  0  0  0  0  0
   35.7130   30.6850   32.8340 C   0  0  0  0  0  0  0  0  0  0  0  0
   36.3530   30.6070   31.6100 C   0  0  0  0  0  0  0  0  0  0  0  0
   36.9210   31.7440   31.0550 C   0  0  0  0  0  0  0  0  0  0  0  0
   36.8650   32.9660   31.6970 C   0  0  0  0  0  0  0  0  0  0  0  0
   36.2350   33.0330   32.8960 C   0  0  0  0  0  0  0  0  0  0  0  0
   35.6670   31.9170   33.4610 C   0  0  0  0  0  0  0  0  0  0  0  0
   36.3570   29.6170   31.1670 H   0  0  0  0  0  0  0  0  0  0  0  0
   37.4040   31.5830   30.0860 H   0  0  0  0  0  0  0  0  0  0  0  0
   37.3450   33.7930   31.1680 H   0  0  0  0  0  0  0  0  0  0  0  0
   36.1990   33.9910   33.3840 H   0  0  0  0  0  0  0  0  0  0  0  0
   36.6950   31.2160   36.0220 F   0  0  0  0  0  0  0  0  0  0  0  0
   35.4680   31.7890   36.0180 C   0  0  0  0  0  0  0  0  0  0  0  0
   35.0160   32.1090   34.7540 C   0  0  0  0  0  0  0  0  0  0  0  0
   33.7600   32.7070   34.6030 C   0  0  0  0  0  0  0  0  0  0  0  0
   33.3030   33.0020   33.6530 H   0  0  0  0  0  0  0  0  0  0  0  0
   32.9620   32.9860   35.6890 C   0  0  0  0  0  0  0  0  0  0  0  0
   31.9860   33.4470   35.6200 H   0  0  0  0  0  0  0  0  0  0  0  0
   33.4310   32.6600   36.9410 C   0  0  0  0  0  3  0  0  0  0  0  0
   34.6670   32.0690   37.1070 C   0  0  0  0  0  3  0  0  0  0  0  0
   36.6940   27.9270   34.5150 C   0  0  0  0  0  3  0  0  0  0  0  0
   35.9470   28.3220   33.5370 C   0  0  0  0  0  3  0  0  0  0  0  0
   38.6570   25.2210   33.0180 C   0  0  0  0  0  0  0  0  0  0  0  0
   38.9360   24.4160   34.1390 C   0  0  0  0  0  0  0  0  0  0  0  0
   38.4350   24.8330   35.3880 C   0  0  0  0  0  0  0  0  0  0  0  0
   37.7040   25.9950   35.4560 N   0  0  0  0  0  0  0  0  0  0  0  0
   37.4800   26.7120   34.3340 C   0  0  0  0  0  0  0  0  0  0  0  0
   37.9410   26.3440   33.1340 N   0  0  0  0  0  0  0  0  0  0  0  0
   39.0410   24.9010   32.0570 H   0  0  0  0  0  0  0  0  0  0  0  0
   39.5090   23.5000   34.0990 H   0  0  0  0  0  0  0  0  0  0  0  0
   38.6650   24.0730   36.6190 C   0  0  0  0  0  0  0  0  0  0  0  0
   37.9850   24.3380   37.7850 C   0  0  0  0  0  0  0  0  0  0  0  0
   38.4440   23.4330   38.7550 C   0  0  0  0  0  0  0  0  0  0  0  0
   39.3760   22.6650   38.1360 N   0  0  0  0  0  0  0  0  0  0  0  0
   39.5070   23.0460   36.8670 N   0  0  0  0  0  0  0  0  0  0  0  0
   37.2210   25.1010   37.9720 H   0  0  0  0  0  0  0  0  0  0  0  0
   38.1400   23.3410   39.7900 H   0  0  0  0  0  0  0  0  0  0  0  0
   39.9390   21.8760   38.5510 H   0  0  0  0  0  0  0  0  0  0  0  0
  1 24  1  0  0  0  0
  1  2  1  0  0  0  0
  3  1  1  0  0  0  0
  4  9  1  0  0  0  0
  4  1  1  0  0  0  0
  5  4  2  0  0  0  0
  6  5  1  0  0  0  0
  6  7  2  0  0  0  0
  7  8  1  0  0  0  0
  8 13  1  0  0  0  0
  8  9  2  0  0  0  0
  9 16  1  0  0  0  0
 10  5  1  0  0  0  0
 11  6  1  0  0  0  0
 12  7  1  0  0  0  0
 15 14  1  0  0  0  0
 15 22  1  0  0  0  0
 16 15  2  0  0  0  0
 17 16  1  0  0  0  0
 17 19  2  0  0  0  0
 18 17  1  0  0  0  0
 19 21  1  0  0  0  0
 20 19  1  0  0  0  0
 21 22  2  0  0  0  0
 24 23  2  0  0  0  0
 25 30  2  0  0  0  0
 25 26  1  0  0  0  0
 26 27  2  0  0  0  0
 27 28  1  0  0  0  0
 27 33  1  0  0  0  0
 29 23  1  0  0  0  0
 29 28  2  0  0  0  0
 30 29  1  0  0  0  0
 31 25  1  0  0  0  0
 32 26  1  0  0  0  0
 33 37  2  0  0  0  0
 33 34  1  0  0  0  0
 34 38  1  0  0  0  0
 34 35  2  0  0  0  0
 35 39  1  0  0  0  0
 36 40  1  0  0  0  0
 36 35  1  0  0  0  0
 37 36  1  0  0  0  0
M  END
>  <minimizedAffinity>
-6.72793055

$$$$

 OpenBabel03272509103D

 40 43  0  0  0  0  0  0  0  0999 V2000
   36.1600   28.4960   34.5850 C   0  0  0  0  0  0  0  0  0  0  0  0
   36.1240   29.0810   35.5050 H   0  0  0  0  0  0  0  0  0  0  0  0
   35.2830   27.7890   34.6170 H   0  0  0  0  0  0  0  0  0  0  0  0
   35.9030   29.3620   33.3960 C   0  0  0  0  0  0  0  0  0  0  0  0
   36.3300   29.0380   32.1220 C   0  0  0  0  0  0  0  0  0  0  0  0
   36.0550   29.8930   31.0640 C   0  0  0  0  0  0  0  0  0  0  0  0
   35.3600   31.0720   31.2510 C   0  0  0  0  0  0  0  0  0  0  0  0
   34.9450   31.3810   32.5050 C   0  0  0  0  0  0  0  0  0  0  0  0
   35.2090   30.5460   33.5630 C   0  0  0  0  0  0  0  0  0  0  0  0
   36.8680   28.0990   32.0520 H   0  0  0  0  0  0  0  0  0  0  0  0
   36.4320   29.5510   30.0950 H   0  0  0  0  0  0  0  0  0  0  0  0
   35.2000   31.6670   30.3480 H   0  0  0  0  0  0  0  0  0  0  0  0
   34.4050   32.3020   32.6350 H   0  0  0  0  0  0  0  0  0  0  0  0
   36.6550   31.9720   35.5600 F   0  0  0  0  0  0  0  0  0  0  0  0
   35.3700   31.6730   35.8660 C   0  0  0  0  0  0  0  0  0  0  0  0
   34.7150   30.9820   34.8670 C   0  0  0  0  0  0  0  0  0  0  0  0
   33.3790   30.6080   35.0510 C   0  0  0  0  0  0  0  0  0  0  0  0
   32.7630   30.0600   34.3290 H   0  0  0  0  0  0  0  0  0  0  0  0
   32.7000   30.9130   36.2080 C   0  0  0  0  0  0  0  0  0  0  0  0
   31.6690   30.6450   36.3940 H   0  0  0  0  0  0  0  0  0  0  0  0
   33.3710   31.6020   37.1920 C   0  0  0  0  0  3  0  0  0  0  0  0
   34.6880   31.9780   37.0270 C   0  0  0  0  0  3  0  0  0  0  0  0
   37.7100   26.6530   35.1780 C   0  0  0  0  0  3  0  0  0  0  0  0
   37.3680   27.6680   34.4540 C   0  0  0  0  0  3  0  0  0  0  0  0
   40.8870   25.7190   33.6130 C   0  0  0  0  0  0  0  0  0  0  0  0
   41.2770   24.6160   34.3950 C   0  0  0  0  0  0  0  0  0  0  0  0
   40.4280   24.2230   35.4480 C   0  0  0  0  0  0  0  0  0  0  0  0
   39.2670   24.9270   35.6620 N   0  0  0  0  0  0  0  0  0  0  0  0
   38.9620   25.9750   34.8670 C   0  0  0  0  0  0  0  0  0  0  0  0
   39.7470   26.3730   33.8600 N   0  0  0  0  0  0  0  0  0  0  0  0
   41.5390   26.0210   32.8030 H   0  0  0  0  0  0  0  0  0  0  0  0
   42.1880   24.0540   34.2370 H   0  0  0  0  0  0  0  0  0  0  0  0
   40.7360   23.0900   36.3240 C   0  0  0  0  0  0  0  0  0  0  0  0
   41.8230   22.2730   36.1160 C   0  0  0  0  0  0  0  0  0  0  0  0
   41.8200   21.3020   37.1290 C   0  0  0  0  0  0  0  0  0  0  0  0
   40.7370   21.5730   37.9010 N   0  0  0  0  0  0  0  0  0  0  0  0
   40.0940   22.6350   37.4220 N   0  0  0  0  0  0  0  0  0  0  0  0
   42.5780   22.3290   35.3240 H   0  0  0  0  0  0  0  0  0  0  0  0
   42.5190   20.4910   37.2900 H   0  0  0  0  0  0  0  0  0  0  0  0
   40.4110   21.0530   38.7580 H   0  0  0  0  0  0  0  0  0  0  0  0
  1  3  1  0  0  0  0
  1  2  1  0  0  0  0
  4  9  1  0  0  0  0
  4  1  1  0  0  0  0
  5  4  2  0  0  0  0
  6  7  2  0  0  0  0
  6  5  1  0  0  0  0
  7  8  1  0  0  0  0
  8 13  1  0  0  0  0
  8  9  2  0  0  0  0
  9 16  1  0  0  0  0
 10  5  1  0  0  0  0
 11  6  1  0  0  0  0
 12  7  1  0  0  0  0
 14 15  1  0  0  0  0
 15 22  1  0  0  0  0
 16 17  1  0  0  0  0
 16 15  2  0  0  0  0
 17 19  2  0  0  0  0
 18 17  1  0  0  0  0
 19 20  1  0  0  0  0
 19 21  1  0  0  0  0
 22 21  2  0  0  0  0
 24  1  1  0  0  0  0
 24 23  2  0  0  0  0
 25 30  2  0  0  0  0
 25 26  1  0  0  0  0
 26 27  2  0  0  0  0
 27 28  1  0  0  0  0
 27 33  1  0  0  0  0
 29 23  1  0  0  0  0
 29 28  2  0  0  0  0
 30 29  1  0  0  0  0
 31 25  1  0  0  0  0
 32 26  1  0  0  0  0
 33 37  2  0  0  0  0
 34 33  1  0  0  0  0
 34 35  2  0  0  0  0
 35 39  1  0  0  0  0
 35 36  1  0  0  0  0
 36 40  1  0  0  0  0
 37 36  1  0  0  0  0
 38 34  1  0  0  0  0
M  END
>  <minimizedAffinity>
-6.66158152

$$$$

 OpenBabel03272509103D

 40 43  0  0  0  0  0  0  0  0999 V2000
   35.8950   29.3710   34.5630 C   0  0  0  0  0  0  0  0  0  0  0  0
   36.5670   30.0780   34.0750 H   0  0  0  0  0  0  0  0  0  0  0  0
   35.8780   29.6430   35.6560 H   0  0  0  0  0  0  0  0  0  0  0  0
   34.4890   29.5730   34.1030 C   0  0  0  0  0  0  0  0  0  0  0  0
   33.3930   29.3980   34.9280 C   0  0  0  0  0  0  0  0  0  0  0  0
   32.1150   29.6030   34.4300 C   0  0  0  0  0  0  0  0  0  0  0  0
   31.9030   29.9810   33.1180 C   0  0  0  0  0  0  0  0  0  0  0  0
   32.9840   30.1500   32.3160 C   0  0  0  0  0  0  0  0  0  0  0  0
   34.2570   29.9500   32.7930 C   0  0  0  0  0  0  0  0  0  0  0  0
   33.6360   29.1020   35.9430 H   0  0  0  0  0  0  0  0  0  0  0  0
   31.3130   29.4410   35.1570 H   0  0  0  0  0  0  0  0  0  0  0  0
   30.8560   30.1140   32.8340 H   0  0  0  0  0  0  0  0  0  0  0  0
   32.8040   30.4440   31.2970 H   0  0  0  0  0  0  0  0  0  0  0  0
   35.5350   27.9810   31.1810 F   0  0  0  0  0  0  0  0  0  0  0  0
   35.9940   29.2470   31.0360 C   0  0  0  0  0  0  0  0  0  0  0  0
   35.3420   30.1610   31.8390 C   0  0  0  0  0  0  0  0  0  0  0  0
   35.7180   31.5090   31.7900 C   0  0  0  0  0  0  0  0  0  0  0  0
   35.2720   32.3180   32.3800 H   0  0  0  0  0  0  0  0  0  0  0  0
   36.7230   31.9460   30.9590 C   0  0  0  0  0  0  0  0  0  0  0  0
   37.0460   32.9750   30.8890 H   0  0  0  0  0  0  0  0  0  0  0  0
   37.3610   31.0180   30.1670 C   0  0  0  0  0  3  0  0  0  0  0  0
   37.0030   29.6860   30.2040 C   0  0  0  0  0  3  0  0  0  0  0  0
   37.3820   27.5130   33.8650 C   0  0  0  0  0  3  0  0  0  0  0  0
   36.3410   27.9730   34.4800 C   0  0  0  0  0  3  0  0  0  0  0  0
   37.7860   23.9980   32.9200 C   0  0  0  0  0  0  0  0  0  0  0  0
   38.1280   23.4080   34.1510 C   0  0  0  0  0  0  0  0  0  0  0  0
   38.2100   24.2450   35.2810 C   0  0  0  0  0  0  0  0  0  0  0  0
   37.9540   25.5880   35.1310 N   0  0  0  0  0  0  0  0  0  0  0  0
   37.6330   26.0780   33.9150 C   0  0  0  0  0  0  0  0  0  0  0  0
   37.5470   25.3090   32.8240 N   0  0  0  0  0  0  0  0  0  0  0  0
   37.7220   23.3540   32.0510 H   0  0  0  0  0  0  0  0  0  0  0  0
   38.3310   22.3540   34.2820 H   0  0  0  0  0  0  0  0  0  0  0  0
   38.5570   23.7390   36.6100 C   0  0  0  0  0  0  0  0  0  0  0  0
   38.0120   24.2580   37.7620 C   0  0  0  0  0  0  0  0  0  0  0  0
   38.5560   23.5490   38.8430 C   0  0  0  0  0  0  0  0  0  0  0  0
   39.4020   22.6360   38.3010 N   0  0  0  0  0  0  0  0  0  0  0  0
   39.4020   22.7500   36.9750 N   0  0  0  0  0  0  0  0  0  0  0  0
   37.2860   25.0730   37.8670 H   0  0  0  0  0  0  0  0  0  0  0  0
   38.3640   23.6770   39.9000 H   0  0  0  0  0  0  0  0  0  0  0  0
   39.9920   21.9250   38.8080 H   0  0  0  0  0  0  0  0  0  0  0  0
  1  3  1  0  0  0  0
  2  1  1  0  0  0  0
  4  1  1  0  0  0  0
  4  5  1  0  0  0  0
  5 10  1  0  0  0  0
  6  5  2  0  0  0  0
  6 11  1  0  0  0  0
  7  6  1  0  0  0  0
  8  9  1  0  0  0  0
  8  7  2  0  0  0  0
  9  4  2  0  0  0  0
 12  7  1  0  0  0  0
 13  8  1  0  0  0  0
 15 14  1  0  0  0  0
 15 16  1  0  0  0  0
 16  9  1  0  0  0  0
 17 16  2  0  0  0  0
 17 18  1  0  0  0  0
 19 17  1  0  0  0  0
 20 19  1  0  0  0  0
 21 22  1  0  0  0  0
 21 19  2  0  0  0  0
 22 15  2  0  0  0  0
 23 29  1  0  0  0  0
 23 24  2  0  0  0  0
 24  1  1  0  0  0  0
 25 26  1  0  0  0  0
 26 32  1  0  0  0  0
 26 27  2  0  0  0  0
 27 33  1  0  0  0  0
 28 27  1  0  0  0  0
 29 28  2  0  0  0  0
 30 25  2  0  0  0  0
 30 29  1  0  0  0  0
 31 25  1  0  0  0  0
 33 37  2  0  0  0  0
 33 34  1  0  0  0  0
 34 38  1  0  0  0  0
 34 35  2  0  0  0  0
 35 39  1  0  0  0  0
 36 40  1  0  0  0  0
 36 35  1  0  0  0  0
 37 36  1  0  0  0  0
M  END
>  <minimizedAffinity>
-6.40906858

$$$$

 OpenBabel03272509103D

 40 43  0  0  0  0  0  0  0  0999 V2000
   38.7640   24.7010   33.6790 C   0  0  0  0  0  0  0  0  0  0  0  0
   39.2240   24.6750   34.6680 H   0  0  0  0  0  0  0  0  0  0  0  0
   39.5990   24.5940   32.9300 H   0  0  0  0  0  0  0  0  0  0  0  0
   37.9060   23.4990   33.4610 C   0  0  0  0  0  0  0  0  0  0  0  0
   37.2250   23.2630   32.2810 C   0  0  0  0  0  0  0  0  0  0  0  0
   36.4450   22.1220   32.1500 C   0  0  0  0  0  0  0  0  0  0  0  0
   36.3280   21.2060   33.1780 C   0  0  0  0  0  0  0  0  0  0  0  0
   37.0000   21.4470   34.3320 C   0  0  0  0  0  0  0  0  0  0  0  0
   37.7760   22.5710   34.4780 C   0  0  0  0  0  0  0  0  0  0  0  0
   37.3640   24.0230   31.5200 H   0  0  0  0  0  0  0  0  0  0  0  0
   35.9470   22.0220   31.1820 H   0  0  0  0  0  0  0  0  0  0  0  0
   35.6890   20.3460   32.9660 H   0  0  0  0  0  0  0  0  0  0  0  0
   36.9000   20.7250   35.1240 H   0  0  0  0  0  0  0  0  0  0  0  0
   40.4300   21.7700   35.1310 F   0  0  0  0  0  0  0  0  0  0  0  0
   39.7300   22.3570   36.1320 C   0  0  0  0  0  0  0  0  0  0  0  0
   38.4520   22.7250   35.7640 C   0  0  0  0  0  0  0  0  0  0  0  0
   37.6170   23.3430   36.7020 C   0  0  0  0  0  0  0  0  0  0  0  0
   36.5890   23.6760   36.5220 H   0  0  0  0  0  0  0  0  0  0  0  0
   38.0410   23.5920   37.9870 C   0  0  0  0  0  0  0  0  0  0  0  0
   37.4320   24.0660   38.7440 H   0  0  0  0  0  0  0  0  0  0  0  0
   39.3190   23.2170   38.3340 C   0  0  0  0  0  3  0  0  0  0  0  0
   40.1540   22.6070   37.4210 C   0  0  0  0  0  3  0  0  0  0  0  0
   37.3230   26.6620   34.1580 C   0  0  0  0  0  3  0  0  0  0  0  0
   38.0810   25.9680   33.3750 C   0  0  0  0  0  3  0  0  0  0  0  0
   36.2260   29.3390   31.9130 C   0  0  0  0  0  0  0  0  0  0  0  0
   35.6280   30.2410   32.8130 C   0  0  0  0  0  0  0  0  0  0  0  0
   35.6190   29.8970   34.1790 C   0  0  0  0  0  0  0  0  0  0  0  0
   36.1910   28.7080   34.5680 N   0  0  0  0  0  0  0  0  0  0  0  0
   36.7450   27.8970   33.6420 C   0  0  0  0  0  0  0  0  0  0  0  0
   36.7690   28.1940   32.3390 N   0  0  0  0  0  0  0  0  0  0  0  0
   36.2330   29.6030   30.8620 H   0  0  0  0  0  0  0  0  0  0  0  0
   35.1750   31.1790   32.5210 H   0  0  0  0  0  0  0  0  0  0  0  0
   35.0250   30.7600   35.2020 C   0  0  0  0  0  0  0  0  0  0  0  0
   35.7830   31.5750   36.0100 C   0  0  0  0  0  0  0  0  0  0  0  0
   34.9050   32.2560   36.8660 C   0  0  0  0  0  0  0  0  0  0  0  0
   33.6600   31.8250   36.5410 N   0  0  0  0  0  0  0  0  0  0  0  0
   33.7320   30.9370   35.5520 N   0  0  0  0  0  0  0  0  0  0  0  0
   36.8720   31.7030   36.0210 H   0  0  0  0  0  0  0  0  0  0  0  0
   35.1380   32.9800   37.6370 H   0  0  0  0  0  0  0  0  0  0  0  0
   32.7440   32.1170   36.9730 H   0  0  0  0  0  0  0  0  0  0  0  0
  1  2  1  0  0  0  0
  3  1  1  0  0  0  0
  4  1  1  0  0  0  0
  4  9  1  0  0  0  0
  5  4  2  0  0  0  0
  6  5  1  0  0  0  0
  6  7  2  0  0  0  0
  7  8  1  0  0  0  0
  8  9  2  0  0  0  0
  8 13  1  0  0  0  0
  9 16  1  0  0  0  0
 10  5  1  0  0  0  0
 11  6  1  0  0  0  0
 12  7  1  0  0  0  0
 14 15  1  0  0  0  0
 15 22  1  0  0  0  0
 16 15  2  0  0  0  0
 16 17  1  0  0  0  0
 17 19  2  0  0  0  0
 18 17  1  0  0  0  0
 19 21  1  0  0  0  0
 19 20  1  0  0  0  0
 22 21  2  0  0  0  0
 24  1  1  0  0  0  0
 24 23  2  0  0  0  0
 25 30  2  0  0  0  0
 25 26  1  0  0  0  0
 26 27  2  0  0  0  0
 27 28  1  0  0  0  0
 27 33  1  0  0  0  0
 29 23  1  0  0  0  0
 29 28  2  0  0  0  0
 30 29  1  0  0  0  0
 31 25  1  0  0  0  0
 32 26  1  0  0  0  0
 33 37  2  0  0  0  0
 33 34  1  0  0  0  0
 34 38  1  0  0  0  0
 34 35  2  0  0  0  0
 35 39  1  0  0  0  0
 36 35  1  0  0  0  0
 36 40  1  0  0  0  0
 37 36  1  0  0  0  0
M  END
>  <minimizedAffinity>
-6.37924719

$$$$

 OpenBabel03272509103D

 40 43  0  0  0  0  0  0  0  0999 V2000
   35.9360   28.3880   33.7800 C   0  0  0  0  0  0  0  0  0  0  0  0
   35.6840   28.8030   34.7570 H   0  0  0  0  0  0  0  0  0  0  0  0
   35.0590   27.7560   33.4610 H   0  0  0  0  0  0  0  0  0  0  0  0
   36.0170   29.4670   32.7500 C   0  0  0  0  0  0  0  0  0  0  0  0
   36.5510   29.2670   31.4910 C   0  0  0  0  0  0  0  0  0  0  0  0
   36.5930   30.3180   30.5850 C   0  0  0  0  0  0  0  0  0  0  0  0
   36.1110   31.5710   30.9110 C   0  0  0  0  0  0  0  0  0  0  0  0
   35.5890   31.7560   32.1490 C   0  0  0  0  0  0  0  0  0  0  0  0
   35.5400   30.7270   33.0580 C   0  0  0  0  0  0  0  0  0  0  0  0
   36.9080   28.2600   31.3070 H   0  0  0  0  0  0  0  0  0  0  0  0
   37.0320   30.0630   29.6160 H   0  0  0  0  0  0  0  0  0  0  0  0
   36.1950   32.3220   30.1220 H   0  0  0  0  0  0  0  0  0  0  0  0
   35.2180   32.7370   32.3890 H   0  0  0  0  0  0  0  0  0  0  0  0
   32.9450   30.0230   33.9960 F   0  0  0  0  0  0  0  0  0  0  0  0
   33.7110   30.7280   34.8620 C   0  0  0  0  0  0  0  0  0  0  0  0
   34.9580   31.0440   34.3590 C   0  0  0  0  0  0  0  0  0  0  0  0
   35.8530   31.7730   35.1500 C   0  0  0  0  0  0  0  0  0  0  0  0
   36.8630   32.0780   34.8550 H   0  0  0  0  0  0  0  0  0  0  0  0
   35.5210   32.1840   36.4200 C   0  0  0  0  0  0  0  0  0  0  0  0
   36.1800   32.7470   37.0660 H   0  0  0  0  0  0  0  0  0  0  0  0
   34.2740   31.8590   36.9030 C   0  0  0  0  0  3  0  0  0  0  0  0
   33.3790   31.1410   36.1360 C   0  0  0  0  0  3  0  0  0  0  0  0
   37.1410   26.2260   33.6120 C   0  0  0  0  0  3  0  0  0  0  0  0
   37.1130   27.5060   33.7940 C   0  0  0  0  0  3  0  0  0  0  0  0
   40.5020   25.0280   32.7890 C   0  0  0  0  0  0  0  0  0  0  0  0
   40.8030   24.2290   33.9090 C   0  0  0  0  0  0  0  0  0  0  0  0
   39.8310   24.1260   34.9230 C   0  0  0  0  0  0  0  0  0  0  0  0
   38.6430   24.8040   34.7750 N   0  0  0  0  0  0  0  0  0  0  0  0
   38.4300   25.5500   33.6700 C   0  0  0  0  0  0  0  0  0  0  0  0
   39.3330   25.6680   32.6910 N   0  0  0  0  0  0  0  0  0  0  0  0
   41.2490   25.1070   32.0090 H   0  0  0  0  0  0  0  0  0  0  0  0
   41.7320   23.6920   34.0370 H   0  0  0  0  0  0  0  0  0  0  0  0
   40.0380   23.3240   36.1310 C   0  0  0  0  0  0  0  0  0  0  0  0
   41.1000   22.4610   36.2680 C   0  0  0  0  0  0  0  0  0  0  0  0
   40.9950   21.8610   37.5320 C   0  0  0  0  0  0  0  0  0  0  0  0
   39.8800   22.3860   38.1020 N   0  0  0  0  0  0  0  0  0  0  0  0
   39.3120   23.2550   37.2690 N   0  0  0  0  0  0  0  0  0  0  0  0
   41.9020   22.2460   35.5530 H   0  0  0  0  0  0  0  0  0  0  0  0
   41.6480   21.1290   37.9880 H   0  0  0  0  0  0  0  0  0  0  0  0
   39.4820   22.1720   39.0540 H   0  0  0  0  0  0  0  0  0  0  0  0
  1 24  1  0  0  0  0
  1  2  1  0  0  0  0
  3  1  1  0  0  0  0
  4  9  1  0  0  0  0
  4  1  1  0  0  0  0
  5  4  2  0  0  0  0
  6  7  2  0  0  0  0
  6  5  1  0  0  0  0
  7  8  1  0  0  0  0
  8 13  1  0  0  0  0
  8  9  2  0  0  0  0
  9 16  1  0  0  0  0
 10  5  1  0  0  0  0
 11  6  1  0  0  0  0
 12  7  1  0  0  0  0
 14 15  1  0  0  0  0
 15 22  1  0  0  0  0
 16 15  2  0  0  0  0
 16 17  1  0  0  0  0
 17 19  2  0  0  0  0
 18 17  1  0  0  0  0
 19 21  1  0  0  0  0
 19 20  1  0  0  0  0
 22 21  2  0  0  0  0
 23 29  1  0  0  0  0
 23 24  2  0  0  0  0
 25 26  1  0  0  0  0
 26 32  1  0  0  0  0
 26 27  2  0  0  0  0
 27 33  1  0  0  0  0
 28 27  1  0  0  0  0
 29 28  2  0  0  0  0
 30 25  2  0  0  0  0
 30 29  1  0  0  0  0
 31 25  1  0  0  0  0
 33 34  1  0  0  0  0
 33 37  2  0  0  0  0
 34 35  2  0  0  0  0
 35 39  1  0  0  0  0
 35 36  1  0  0  0  0
 36 40  1  0  0  0  0
 37 36  1  0  0  0  0
 38 34  1  0  0  0  0
M  END
>  <minimizedAffinity>
-6.30688

$$$$

 OpenBabel03272509103D

 40 43  0  0  0  0  0  0  0  0999 V2000
   36.6950   28.1430   34.4720 C   0  0  0  0  0  0  0  0  0  0  0  0
   37.3340   28.7730   35.0920 H   0  0  0  0  0  0  0  0  0  0  0  0
   35.6890   28.1060   34.9780 H   0  0  0  0  0  0  0  0  0  0  0  0
   36.4300   28.7920   33.1530 C   0  0  0  0  0  0  0  0  0  0  0  0
   37.1180   28.4640   32.0000 C   0  0  0  0  0  0  0  0  0  0  0  0
   36.8170   29.1090   30.8100 C   0  0  0  0  0  0  0  0  0  0  0  0
   35.8380   30.0820   30.7440 C   0  0  0  0  0  0  0  0  0  0  0  0
   35.1680   30.3970   31.8810 C   0  0  0  0  0  0  0  0  0  0  0  0
   35.4540   29.7680   33.0680 C   0  0  0  0  0  0  0  0  0  0  0  0
   37.8700   27.6930   32.1280 H   0  0  0  0  0  0  0  0  0  0  0  0
   37.4130   28.7820   29.9530 H   0  0  0  0  0  0  0  0  0  0  0  0
   35.6850   30.5240   29.7560 H   0  0  0  0  0  0  0  0  0  0  0  0
   34.4090   31.1570   31.8150 H   0  0  0  0  0  0  0  0  0  0  0  0
   36.2270   31.6250   35.0840 F   0  0  0  0  0  0  0  0  0  0  0  0
   34.9950   31.0810   35.2270 C   0  0  0  0  0  0  0  0  0  0  0  0
   34.6700   30.1890   34.2260 C   0  0  0  0  0  0  0  0  0  0  0  0
   33.4240   29.5520   34.2500 C   0  0  0  0  0  0  0  0  0  0  0  0
   33.0610   28.8290   33.5110 H   0  0  0  0  0  0  0  0  0  0  0  0
   32.5120   29.7950   35.2520 C   0  0  0  0  0  0  0  0  0  0  0  0
   31.5390   29.3260   35.3110 H   0  0  0  0  0  0  0  0  0  0  0  0
   32.8560   30.6870   36.2410 C   0  0  0  0  0  3  0  0  0  0  0  0
   34.0800   31.3230   36.2320 C   0  0  0  0  0  3  0  0  0  0  0  0
   37.1000   25.9860   33.3160 C   0  0  0  0  0  3  0  0  0  0  0  0
   37.1630   26.7540   34.3550 C   0  0  0  0  0  3  0  0  0  0  0  0
   38.0770   22.5400   32.5570 C   0  0  0  0  0  0  0  0  0  0  0  0
   38.6580   22.1320   33.7720 C   0  0  0  0  0  0  0  0  0  0  0  0
   38.6970   23.0650   34.8270 C   0  0  0  0  0  0  0  0  0  0  0  0
   38.1700   24.3190   34.6240 N   0  0  0  0  0  0  0  0  0  0  0  0
   37.6300   24.6330   33.4270 C   0  0  0  0  0  0  0  0  0  0  0  0
   37.5780   23.7700   32.4070 N   0  0  0  0  0  0  0  0  0  0  0  0
   38.0470   21.8220   31.7450 H   0  0  0  0  0  0  0  0  0  0  0  0
   39.0760   21.1500   33.9450 H   0  0  0  0  0  0  0  0  0  0  0  0
   39.2780   22.7490   36.1340 C   0  0  0  0  0  0  0  0  0  0  0  0
   38.9330   23.4310   37.2780 C   0  0  0  0  0  0  0  0  0  0  0  0
   39.6680   22.8780   38.3370 C   0  0  0  0  0  0  0  0  0  0  0  0
   40.4220   21.8900   37.7900 N   0  0  0  0  0  0  0  0  0  0  0  0
   40.1900   21.8150   36.4820 N   0  0  0  0  0  0  0  0  0  0  0  0
   38.2230   24.2580   37.3910 H   0  0  0  0  0  0  0  0  0  0  0  0
   39.6600   23.1560   39.3830 H   0  0  0  0  0  0  0  0  0  0  0  0
   41.1020   21.2530   38.2820 H   0  0  0  0  0  0  0  0  0  0  0  0
  1  3  1  0  0  0  0
  1  2  1  0  0  0  0
  4  1  1  0  0  0  0
  5 10  1  0  0  0  0
  5  4  2  0  0  0  0
  6  5  1  0  0  0  0
  7  6  2  0  0  0  0
  7  8  1  0  0  0  0
  8  9  2  0  0  0  0
  9  4  1  0  0  0  0
  9 16  1  0  0  0  0
 11  6  1  0  0  0  0
 12  7  1  0  0  0  0
 13  8  1  0  0  0  0
 14 15  1  0  0  0  0
 15 22  1  0  0  0  0
 16 17  1  0  0  0  0
 16 15  2  0  0  0  0
 17 19  2  0  0  0  0
 18 17  1  0  0  0  0
 19 20  1  0  0  0  0
 19 21  1  0  0  0  0
 22 21  2  0  0  0  0
 23 29  1  0  0  0  0
 23 24  2  0  0  0  0
 24  1  1  0  0  0  0
 25 26  1  0  0  0  0
 26 32  1  0  0  0  0
 26 27  2  0  0  0  0
 27 33  1  0  0  0  0
 28 27  1  0  0  0  0
 29 28  2  0  0  0  0
 30 25  2  0  0  0  0
 30 29  1  0  0  0  0
 31 25  1  0  0  0  0
 33 37  2  0  0  0  0
 33 34  1  0  0  0  0
 34 38  1  0  0  0  0
 34 35  2  0  0  0  0
 35 39  1  0  0  0  0
 36 40  1  0  0  0  0
 36 35  1  0  0  0  0
 37 36  1  0  0  0  0
M  END
>  <minimizedAffinity>
-6.27321577

$$$$

 OpenBabel03272509103D

 40 43  0  0  0  0  0  0  0  0999 V2000
   37.7890   25.9920   32.9770 C   0  0  0  0  0  0  0  0  0  0  0  0
   37.7240   25.3810   32.0750 H   0  0  0  0  0  0  0  0  0  0  0  0
   37.5060   25.3260   33.8400 H   0  0  0  0  0  0  0  0  0  0  0  0
   39.2040   26.3830   33.2510 C   0  0  0  0  0  0  0  0  0  0  0  0
   39.9530   27.1570   32.3840 C   0  0  0  0  0  0  0  0  0  0  0  0
   41.2640   27.4800   32.7050 C   0  0  0  0  0  0  0  0  0  0  0  0
   41.8480   27.0450   33.8790 C   0  0  0  0  0  0  0  0  0  0  0  0
   41.1050   26.2870   34.7230 C   0  0  0  0  0  0  0  0  0  0  0  0
   39.8060   25.9570   34.4200 C   0  0  0  0  0  0  0  0  0  0  0  0
   39.4300   27.4610   31.4840 H   0  0  0  0  0  0  0  0  0  0  0  0
   41.7750   28.0960   31.9580 H   0  0  0  0  0  0  0  0  0  0  0  0
   42.8840   27.3590   34.0290 H   0  0  0  0  0  0  0  0  0  0  0  0
   41.5720   25.9550   35.6340 H   0  0  0  0  0  0  0  0  0  0  0  0
   38.2270   26.8690   36.6080 F   0  0  0  0  0  0  0  0  0  0  0  0
   38.3290   25.5250   36.4770 C   0  0  0  0  0  0  0  0  0  0  0  0
   39.1040   25.1360   35.4030 C   0  0  0  0  0  0  0  0  0  0  0  0
   39.2940   23.7720   35.1510 C   0  0  0  0  0  0  0  0  0  0  0  0
   39.8860   23.3510   34.3310 H   0  0  0  0  0  0  0  0  0  0  0  0
   38.7250   22.8070   35.9490 C   0  0  0  0  0  0  0  0  0  0  0  0
   38.8440   21.7440   35.7920 H   0  0  0  0  0  0  0  0  0  0  0  0
   37.9560   23.2160   37.0150 C   0  0  0  0  0  3  0  0  0  0  0  0
   37.7590   24.5560   37.2780 C   0  0  0  0  0  3  0  0  0  0  0  0
   36.6440   27.9590   33.9620 C   0  0  0  0  0  3  0  0  0  0  0  0
   36.8570   27.1290   32.9940 C   0  0  0  0  0  3  0  0  0  0  0  0
   34.0080   30.0560   32.5240 C   0  0  0  0  0  0  0  0  0  0  0  0
   33.8760   31.0600   33.5020 C   0  0  0  0  0  0  0  0  0  0  0  0
   34.7060   30.9850   34.6380 C   0  0  0  0  0  0  0  0  0  0  0  0
   35.5990   29.9440   34.7390 N   0  0  0  0  0  0  0  0  0  0  0  0
   35.6650   29.0200   33.7570 C   0  0  0  0  0  0  0  0  0  0  0  0
   34.8910   29.0630   32.6680 N   0  0  0  0  0  0  0  0  0  0  0  0
   33.3700   30.1140   31.6510 H   0  0  0  0  0  0  0  0  0  0  0  0
   33.1780   31.8840   33.4340 H   0  0  0  0  0  0  0  0  0  0  0  0
   34.6540   31.9740   35.7160 C   0  0  0  0  0  0  0  0  0  0  0  0
   34.8710   33.3150   35.4960 C   0  0  0  0  0  0  0  0  0  0  0  0
   34.7460   33.9700   36.7310 C   0  0  0  0  0  0  0  0  0  0  0  0
   34.4600   33.0020   37.6380 N   0  0  0  0  0  0  0  0  0  0  0  0
   34.4050   31.8170   37.0350 N   0  0  0  0  0  0  0  0  0  0  0  0
   35.1030   33.8240   34.5530 H   0  0  0  0  0  0  0  0  0  0  0  0
   34.8510   35.0250   36.9490 H   0  0  0  0  0  0  0  0  0  0  0  0
   34.2970   33.1180   38.6730 H   0  0  0  0  0  0  0  0  0  0  0  0
  1 24  1  0  0  0  0
  1  4  1  0  0  0  0
  1  3  1  0  0  0  0
  2  1  1  0  0  0  0
  4  9  1  0  0  0  0
  5  6  1  0  0  0  0
  5  4  2  0  0  0  0
  6  7  2  0  0  0  0
  7 12  1  0  0  0  0
  7  8  1  0  0  0  0
  8 13  1  0  0  0  0
  9  8  2  0  0  0  0
  9 16  1  0  0  0  0
 10  5  1  0  0  0  0
 11  6  1  0  0  0  0
 15 14  1  0  0  0  0
 15 22  1  0  0  0  0
 16 15  2  0  0  0  0
 17 16  1  0  0  0  0
 17 19  2  0  0  0  0
 18 17  1  0  0  0  0
 19 21  1  0  0  0  0
 20 19  1  0  0  0  0
 21 22  2  0  0  0  0
 24 23  2  0  0  0  0
 25 30  2  0  0  0  0
 25 26  1  0  0  0  0
 26 27  2  0  0  0  0
 27 28  1  0  0  0  0
 27 33  1  0  0  0  0
 29 23  1  0  0  0  0
 29 28  2  0  0  0  0
 30 29  1  0  0  0  0
 31 25  1  0  0  0  0
 32 26  1  0  0  0  0
 33 37  2  0  0  0  0
 34 33  1  0  0  0  0
 34 35  2  0  0  0  0
 35 39  1  0  0  0  0
 35 36  1  0  0  0  0
 36 40  1  0  0  0  0
 37 36  1  0  0  0  0
 38 34  1  0  0  0  0
M  END
>  <minimizedAffinity>
-6.2450037

$$$$

 OpenBabel03272509103D

 40 43  0  0  0  0  0  0  0  0999 V2000
   36.6470   28.0850   34.9200 C   0  0  0  0  0  0  0  0  0  0  0  0
   37.2950   28.7470   35.4970 H   0  0  0  0  0  0  0  0  0  0  0  0
   35.6340   28.1130   35.4150 H   0  0  0  0  0  0  0  0  0  0  0  0
   36.4130   28.6350   33.5510 C   0  0  0  0  0  0  0  0  0  0  0  0
   36.9540   28.0710   32.4110 C   0  0  0  0  0  0  0  0  0  0  0  0
   36.6930   28.6370   31.1710 C   0  0  0  0  0  0  0  0  0  0  0  0
   35.8990   29.7600   31.0430 C   0  0  0  0  0  0  0  0  0  0  0  0
   35.3720   30.3060   32.1680 C   0  0  0  0  0  0  0  0  0  0  0  0
   35.6210   29.7580   33.4040 C   0  0  0  0  0  0  0  0  0  0  0  0
   37.5650   27.1930   32.5880 H   0  0  0  0  0  0  0  0  0  0  0  0
   37.1640   28.1210   30.3290 H   0  0  0  0  0  0  0  0  0  0  0  0
   35.7600   30.1200   30.0210 H   0  0  0  0  0  0  0  0  0  0  0  0
   34.7560   31.1800   32.0540 H   0  0  0  0  0  0  0  0  0  0  0  0
   32.9760   29.3830   34.3900 F   0  0  0  0  0  0  0  0  0  0  0  0
   33.7300   30.2860   35.0600 C   0  0  0  0  0  0  0  0  0  0  0  0
   35.0020   30.4310   34.5430 C   0  0  0  0  0  0  0  0  0  0  0  0
   35.8890   31.3330   35.1400 C   0  0  0  0  0  0  0  0  0  0  0  0
   36.9170   31.5280   34.8150 H   0  0  0  0  0  0  0  0  0  0  0  0
   35.5240   32.0830   36.2340 C   0  0  0  0  0  0  0  0  0  0  0  0
   36.1750   32.7910   36.7270 H   0  0  0  0  0  0  0  0  0  0  0  0
   34.2510   31.9250   36.7350 C   0  0  0  0  0  3  0  0  0  0  0  0
   33.3650   31.0390   36.1580 C   0  0  0  0  0  3  0  0  0  0  0  0
   38.1410   26.1830   35.4660 C   0  0  0  0  0  3  0  0  0  0  0  0
   37.0810   26.6800   34.9180 C   0  0  0  0  0  3  0  0  0  0  0  0
   39.3000   22.7600   36.0630 C   0  0  0  0  0  0  0  0  0  0  0  0
   38.7330   22.0720   34.9740 C   0  0  0  0  0  0  0  0  0  0  0  0
   37.9600   22.8130   34.0580 C   0  0  0  0  0  0  0  0  0  0  0  0
   37.7980   24.1630   34.2670 N   0  0  0  0  0  0  0  0  0  0  0  0
   38.3750   24.7500   35.3370 C   0  0  0  0  0  0  0  0  0  0  0  0
   39.1130   24.0740   36.2240 N   0  0  0  0  0  0  0  0  0  0  0  0
   39.8940   22.1900   36.7680 H   0  0  0  0  0  0  0  0  0  0  0  0
   38.8530   21.0120   34.7990 H   0  0  0  0  0  0  0  0  0  0  0  0
   37.3240   22.2000   32.8910 C   0  0  0  0  0  0  0  0  0  0  0  0
   36.2740   22.7930   32.2280 C   0  0  0  0  0  0  0  0  0  0  0  0
   35.9110   21.9470   31.1700 C   0  0  0  0  0  0  0  0  0  0  0  0
   36.7530   20.8840   31.2380 N   0  0  0  0  0  0  0  0  0  0  0  0
   37.5920   21.0360   32.2610 N   0  0  0  0  0  0  0  0  0  0  0  0
   35.7790   23.7460   32.4480 H   0  0  0  0  0  0  0  0  0  0  0  0
   35.1280   22.0810   30.4350 H   0  0  0  0  0  0  0  0  0  0  0  0
   36.7800   20.0430   30.6040 H   0  0  0  0  0  0  0  0  0  0  0  0
  1  3  1  0  0  0  0
  1  2  1  0  0  0  0
  4  1  1  0  0  0  0
  5 10  1  0  0  0  0
  5  4  2  0  0  0  0
  6  5  1  0  0  0  0
  7  6  2  0  0  0  0
  7  8  1  0  0  0  0
  8  9  2  0  0  0  0
  9  4  1  0  0  0  0
  9 16  1  0  0  0  0
 11  6  1  0  0  0  0
 12  7  1  0  0  0  0
 13  8  1  0  0  0  0
 14 15  1  0  0  0  0
 15 22  1  0  0  0  0
 16 15  2  0  0  0  0
 16 17  1  0  0  0  0
 17 19  2  0  0  0  0
 18 17  1  0  0  0  0
 19 20  1  0  0  0  0
 19 21  1  0  0  0  0
 22 21  2  0  0  0  0
 24  1  1  0  0  0  0
 24 23  2  0  0  0  0
 25 30  1  0  0  0  0
 25 31  1  0  0  0  0
 26 25  2  0  0  0  0
 27 28  2  0  0  0  0
 27 26  1  0  0  0  0
 28 29  1  0  0  0  0
 29 23  1  0  0  0  0
 29 30  2  0  0  0  0
 32 26  1  0  0  0  0
 33 27  1  0  0  0  0
 34 38  1  0  0  0  0
 34 33  1  0  0  0  0
 35 36  1  0  0  0  0
 35 34  2  0  0  0  0
 36 37  1  0  0  0  0
 37 33  2  0  0  0  0
 39 35  1  0  0  0  0
 40 36  1  0  0  0  0
M  END
>  <minimizedAffinity>
-6.24407101

$$$$
