
 OpenBabel03272502013D

 42 46  0  0  0  0  0  0  0  0999 V2000
   34.4320   28.1800   48.1030 C   0  0  0  0  0  0  0  0  0  0  0  0
   34.7690   27.1860   47.7470 H   0  0  0  0  0  0  0  0  0  0  0  0
   34.9270   29.0030   47.5900 H   0  0  0  0  0  0  0  0  0  0  0  0
   32.9640   28.2500   47.7600 C   0  0  0  0  0  0  0  0  0  0  0  0
   31.9600   27.4320   48.2180 C   0  0  0  0  0  0  0  0  0  0  0  0
   30.7620   27.8400   47.6570 C   0  0  0  0  0  0  0  0  0  0  0  0
   31.0760   28.8990   46.8700 N   0  0  0  0  0  0  0  0  0  0  0  0
   32.3710   29.1350   46.9340 N   0  0  0  0  0  0  0  0  0  0  0  0
   28.7070   29.2900   46.1800 N   0  0  0  0  0  0  0  0  0  0  0  0
   30.0230   29.5290   46.1570 C   0  0  0  0  0  0  0  0  0  0  0  0
   30.2160   30.5450   45.2820 N   0  0  0  0  0  0  0  0  0  0  0  0
   29.0440   30.9420   44.7590 C   0  0  0  0  0  0  0  0  0  0  0  0
   28.7420   31.9190   43.8440 C   0  0  0  0  0  0  0  0  0  0  0  0
   27.4590   32.1110   43.4880 N   0  0  0  0  0  0  0  0  0  0  0  0
   26.5130   31.3320   44.0440 C   0  0  0  0  0  0  0  0  0  0  0  0
   26.7790   30.3600   44.9490 N   0  0  0  0  0  0  0  0  0  0  0  0
   28.0630   30.1410   45.3290 C   0  0  0  0  0  0  0  0  0  0  0  0
   32.0890   26.5960   48.9140 H   0  0  0  0  0  0  0  0  0  0  0  0
   29.8310   27.3380   47.8760 H   0  0  0  0  0  0  0  0  0  0  0  0
   28.2350   28.5770   46.7460 H   0  0  0  0  0  0  0  0  0  0  0  0
   29.5570   32.5070   43.4400 H   0  0  0  0  0  0  0  0  0  0  0  0
   25.4900   31.5020   43.7450 H   0  0  0  0  0  0  0  0  0  0  0  0
   34.5140   28.3270   49.5940 C   0  0  0  0  0  0  0  0  0  0  0  0
   34.6750   27.3210   50.0750 H   0  0  0  0  0  0  0  0  0  0  0  0
   33.6260   28.8350   50.0320 H   0  0  0  0  0  0  0  0  0  0  0  0
   37.1530   29.9940   51.5750 C   0  0  0  0  0  0  0  0  0  0  0  0
   37.8740   30.6680   50.5750 C   0  0  0  0  0  0  0  0  0  0  0  0
   37.4520   30.5440   49.2420 C   0  0  0  0  0  0  0  0  0  0  0  0
   36.3710   29.7860   48.9720 N   0  0  0  0  0  0  0  0  0  0  0  0
   35.6900   29.1420   49.9690 C   0  0  0  0  0  0  0  0  0  0  0  0
   36.0930   29.2610   51.2320 N   0  0  0  0  0  0  0  0  0  0  0  0
   37.4240   30.0460   52.6220 H   0  0  0  0  0  0  0  0  0  0  0  0
   38.7000   31.2260   50.9420 H   0  0  0  0  0  0  0  0  0  0  0  0
   38.4700   33.1950   49.5480 F   0  0  0  0  0  0  0  0  0  0  0  0
   38.6850   32.5240   48.4040 C   0  0  0  0  0  0  0  0  0  0  0  0
   38.2090   31.2450   48.2220 C   0  0  0  0  0  0  0  0  0  0  0  0
   38.5220   30.7160   46.9940 C   0  0  0  0  0  0  0  0  0  0  0  0
   38.2120   29.7260   46.7200 H   0  0  0  0  0  0  0  0  0  0  0  0
   39.2380   31.3710   46.0170 C   0  0  0  0  0  0  0  0  0  0  0  0
   39.4670   30.9350   45.0710 H   0  0  0  0  0  0  0  0  0  0  0  0
   39.6920   32.6510   46.2520 C   0  0  0  0  0  0  0  0  0  0  0  0
   39.4080   33.2410   47.4750 C   0  0  0  0  0  0  0  0  0  0  0  0
  1 23  1  0  0  0  0
  2  1  1  0  0  0  0
  3  1  1  0  0  0  0
  4  1  1  0  0  0  0
  4  5  1  0  0  0  0
  5 18  1  0  0  0  0
  6 19  1  0  0  0  0
  6  5  2  0  0  0  0
  7  8  1  0  0  0  0
  7  6  1  0  0  0  0
  8  4  2  0  0  0  0
  9 20  1  0  0  0  0
 10  9  1  0  0  0  0
 10  7  1  0  0  0  0
 11 10  2  0  0  0  0
 12 11  1  0  0  0  0
 12 17  1  0  0  0  0
 13 12  2  0  0  0  0
 14 13  1  0  0  0  0
 14 15  2  0  0  0  0
 15 16  1  0  0  0  0
 16 17  2  0  0  0  0
 17  9  1  0  0  0  0
 21 13  1  0  0  0  0
 22 15  1  0  0  0  0
 23 30  1  0  0  0  0
 23 25  1  0  0  0  0
 23 24  1  0  0  0  0
 26 32  1  0  0  0  0
 27 33  1  0  0  0  0
 27 26  2  0  0  0  0
 28 27  1  0  0  0  0
 29 28  2  0  0  0  0
 29 30  1  0  0  0  0
 30 31  2  0  0  0  0
 31 26  1  0  0  0  0
 35 34  1  0  0  0  0
 36 35  1  0  0  0  0
 36 28  1  0  0  0  0
 37 36  2  0  0  0  0
 38 37  1  0  0  0  0
 39 41  2  0  0  0  0
 39 37  1  0  0  0  0
 40 39  1  0  0  0  0
 41 42  1  0  0  0  0
 42 35  2  0  0  0  0
M  END
>  <minimizedAffinity>
-7.50034046

>  <minimizedRMSD>
0.699858665

$$$$
