
 OpenBabel03262523523D

 36 38  0  0  1  0  0  0  0  0999 V2000
   35.8050   29.9350   48.7940 N   0  0  0  0  0  0  0  0  0  0  0  0
   35.2570   30.8800   49.6920 C   0  0  0  0  0  0  0  0  0  0  0  0
   36.3080   31.6990   50.3560 C   0  0  0  0  0  0  0  0  0  0  0  0
   37.3230   30.7100   50.9400 C   0  0  0  0  0  0  0  0  0  0  0  0
   38.0930   30.2180   49.7500 C   0  0  0  0  0  0  0  0  0  0  0  0
   37.2180   30.0250   48.5770 C   0  0  2  0  0  0  0  0  0  0  0  0
   34.7470   30.3030   50.5080 H   0  0  0  0  0  0  0  0  0  0  0  0
   34.4260   31.4970   49.2640 H   0  0  0  0  0  0  0  0  0  0  0  0
   35.8650   32.1740   51.2750 H   0  0  0  0  0  0  0  0  0  0  0  0
   36.8510   32.4130   49.7440 H   0  0  0  0  0  0  0  0  0  0  0  0
   38.0060   31.2960   51.5970 H   0  0  0  0  0  0  0  0  0  0  0  0
   36.8490   29.8710   51.4600 H   0  0  0  0  0  0  0  0  0  0  0  0
   38.8210   31.0450   49.5040 H   0  0  0  0  0  0  0  0  0  0  0  0
   38.6990   29.3700   50.0760 H   0  0  0  0  0  0  0  0  0  0  0  0
   37.4620   28.9540   48.2500 H   0  0  0  0  0  0  0  0  0  0  0  0
   39.1490   32.0110   48.6660 F   0  0  0  0  0  0  0  0  0  0  0  0
   38.5860   31.7990   47.4340 C   0  0  0  0  0  0  0  0  0  0  0  0
   37.5990   30.8030   47.3620 C   0  0  0  0  0  0  0  0  0  0  0  0
   37.0960   30.6680   46.0860 C   0  0  0  0  0  0  0  0  0  0  0  0
   36.3420   29.9260   45.9350 H   0  0  0  0  0  0  0  0  0  0  0  0
   37.5010   31.4080   45.0170 C   0  0  0  0  0  0  0  0  0  0  0  0
   37.0520   31.2360   44.0450 H   0  0  0  0  0  0  0  0  0  0  0  0
   38.4610   32.3560   45.1570 C   0  0  0  0  0  0  0  0  0  0  0  0
   39.0370   32.5790   46.3900 C   0  0  0  0  0  0  0  0  0  0  0  0
   35.3020   28.6070   48.9060 C   0  0  0  0  0  0  0  0  0  0  0  0
   35.1570   28.2840   49.9560 H   0  0  0  0  0  0  0  0  0  0  0  0
   35.9700   27.8590   48.4290 H   0  0  0  0  0  0  0  0  0  0  0  0
   33.9760   28.4890   48.2490 C   0  0  0  0  0  0  0  0  0  0  0  0
   33.8370   28.9940   46.9440 C   0  0  0  0  0  0  0  0  0  0  0  0
   32.5950   28.8880   46.3140 C   0  0  0  0  0  0  0  0  0  0  0  0
   31.5800   28.3000   46.9970 N   0  0  0  0  0  0  0  0  0  0  0  0
   31.7310   27.8250   48.2370 C   0  0  0  0  0  0  0  0  0  0  0  0
   32.9170   27.9170   48.8600 N   0  0  0  0  0  0  0  0  0  0  0  0
   34.7080   29.4480   46.4790 H   0  0  0  0  0  0  0  0  0  0  0  0
   32.4810   29.2760   45.3090 H   0  0  0  0  0  0  0  0  0  0  0  0
   30.8760   27.3630   48.7340 H   0  0  0  0  0  0  0  0  0  0  0  0
  1 25  1  0  0  0  0
  1  2  1  0  0  0  0
  2  3  1  0  0  0  0
  2  7  1  0  0  0  0
  3  4  1  0  0  0  0
  3  9  1  0  0  0  0
  4 12  1  0  0  0  0
  4 11  1  0  0  0  0
  5 14  1  0  0  0  0
  5  4  1  0  0  0  0
  6 15  1  6  0  0  0
  6  1  1  0  0  0  0
  6  5  1  0  0  0  0
  8  2  1  0  0  0  0
 10  3  1  0  0  0  0
 13  5  1  0  0  0  0
 17 16  1  0  0  0  0
 18 17  1  0  0  0  0
 18  6  1  0  0  0  0
 19 18  2  0  0  0  0
 20 19  1  0  0  0  0
 21 23  2  0  0  0  0
 21 19  1  0  0  0  0
 22 21  1  0  0  0  0
 23 24  1  0  0  0  0
 24 17  2  0  0  0  0
 25 26  1  0  0  0  0
 27 25  1  0  0  0  0
 28 33  1  0  0  0  0
 28 25  1  0  0  0  0
 29 28  2  0  0  0  0
 30 29  1  0  0  0  0
 30 31  2  0  0  0  0
 31 32  1  0  0  0  0
 32 36  1  0  0  0  0
 32 33  2  0  0  0  0
 34 29  1  0  0  0  0
 35 30  1  0  0  0  0
M  END
>  <minimizedAffinity>
-5.76078749

>  <minimizedRMSD>
1.47717249

$$$$
