
 OpenBabel03262521493D

 32 34  0  0  1  0  0  0  0  0999 V2000
   37.0360   30.8970   49.9030 C   0  0  0  0  0  0  0  0  0  0  0  0
   37.8200   32.0680   49.8930 C   0  0  0  0  0  0  0  0  0  0  0  0
   38.0970   32.6390   48.6470 C   0  0  0  0  0  0  0  0  0  0  0  0
   37.5820   32.0100   47.5660 N   0  0  0  0  0  0  0  0  0  0  0  0
   36.8410   30.9030   47.5910 C   0  0  0  0  0  0  0  0  0  0  0  0
   36.5720   30.3490   48.7790 N   0  0  0  0  0  0  0  0  0  0  0  0
   36.3750   30.3530   46.3990 N   0  0  0  0  0  0  0  0  0  0  0  0
   35.1180   29.5860   46.3540 C   0  0  0  0  0  0  0  0  0  0  0  0
   34.2040   30.1410   45.3430 C   0  0  0  0  0  0  0  0  0  0  0  0
   34.7690   31.0070   44.3860 N   0  0  0  0  0  0  0  0  0  0  0  0
   36.1330   30.9360   44.0820 C   0  0  0  0  0  0  0  0  0  0  0  0
   37.0600   30.4630   45.1490 C   0  0  1  0  0  0  0  0  0  0  0  0
   36.8250   30.4580   50.8680 H   0  0  0  0  0  0  0  0  0  0  0  0
   38.2190   32.5490   50.7710 H   0  0  0  0  0  0  0  0  0  0  0  0
   38.6840   33.5330   48.5000 H   0  0  0  0  0  0  0  0  0  0  0  0
   35.4260   28.5340   46.1780 H   0  0  0  0  0  0  0  0  0  0  0  0
   34.6800   29.6140   47.3680 H   0  0  0  0  0  0  0  0  0  0  0  0
   33.6850   29.3050   44.8240 H   0  0  0  0  0  0  0  0  0  0  0  0
   33.3830   30.7090   45.8680 H   0  0  0  0  0  0  0  0  0  0  0  0
   34.2090   31.0820   43.5350 H   0  0  0  0  0  0  0  0  0  0  0  0
   36.2860   30.3500   43.1540 H   0  0  0  0  0  0  0  0  0  0  0  0
   36.4800   31.9730   43.7960 H   0  0  0  0  0  0  0  0  0  0  0  0
   37.2730   29.3540   44.8920 H   0  0  0  0  0  0  0  0  0  0  0  0
   37.4880   33.0740   44.2380 F   0  0  0  0  0  0  0  0  0  0  0  0
   38.5970   32.4010   44.6860 C   0  0  0  0  0  0  0  0  0  0  0  0
   38.3700   31.0890   45.1180 C   0  0  0  0  0  0  0  0  0  0  0  0
   39.5690   30.5090   45.5500 C   0  0  0  0  0  0  0  0  0  0  0  0
   39.5360   29.4830   45.9330 H   0  0  0  0  0  0  0  0  0  0  0  0
   40.8080   31.1070   45.5640 C   0  0  0  0  0  0  0  0  0  0  0  0
   41.6730   30.5700   45.9190 H   0  0  0  0  0  0  0  0  0  0  0  0
   40.8890   32.3990   45.1130 C   0  0  0  0  0  0  0  0  0  0  0  0
   39.7880   33.0920   44.6580 C   0  0  0  0  0  0  0  0  0  0  0  0
  1 13  1  0  0  0  0
  2  1  1  0  0  0  0
  2 14  1  0  0  0  0
  3  2  2  0  0  0  0
  4  5  2  0  0  0  0
  4  3  1  0  0  0  0
  5  6  1  0  0  0  0
  6  1  2  0  0  0  0
  7  5  1  0  0  0  0
  8  7  1  0  0  0  0
  8 17  1  0  0  0  0
  9 19  1  0  0  0  0
  9  8  1  0  0  0  0
 10  9  1  0  0  0  0
 11 10  1  0  0  0  0
 11 12  1  0  0  0  0
 12 23  1  6  0  0  0
 12  7  1  0  0  0  0
 15  3  1  0  0  0  0
 16  8  1  0  0  0  0
 18  9  1  0  0  0  0
 20 10  1  0  0  0  0
 21 11  1  0  0  0  0
 22 11  1  0  0  0  0
 24 25  1  0  0  0  0
 25 26  1  0  0  0  0
 26 12  1  0  0  0  0
 26 27  2  0  0  0  0
 27 29  1  0  0  0  0
 27 28  1  0  0  0  0
 29 30  1  0  0  0  0
 31 29  2  0  0  0  0
 32 25  2  0  0  0  0
 32 31  1  0  0  0  0
M  END
>  <minimizedAffinity>
-5.60411453

>  <minimizedRMSD>
3.30801368

$$$$
