
 OpenBabel03272508303D

 32 34  0  0  1  0  0  0  0  0999 V2000
   36.5520   30.4450   47.2160 N   0  0  0  0  0  0  0  0  0  0  0  0
   35.3490   30.2110   46.4280 C   0  0  0  0  0  0  0  0  0  0  0  0
   35.5870   30.2760   44.9680 C   0  0  0  0  0  0  0  0  0  0  0  0
   36.9720   30.1440   44.6580 N   0  0  0  0  0  0  0  0  0  0  0  0
   37.6490   31.3180   45.2130 C   0  0  0  0  0  0  0  0  0  0  0  0
   37.7760   31.0050   46.6740 C   0  0  1  0  0  0  0  0  0  0  0  0
   34.6530   31.0480   46.6940 H   0  0  0  0  0  0  0  0  0  0  0  0
   34.8780   29.2870   46.8050 H   0  0  0  0  0  0  0  0  0  0  0  0
   35.1250   31.1760   44.4770 H   0  0  0  0  0  0  0  0  0  0  0  0
   35.0640   29.4030   44.4940 H   0  0  0  0  0  0  0  0  0  0  0  0
   37.1600   30.0890   43.6290 H   0  0  0  0  0  0  0  0  0  0  0  0
   38.6450   31.4660   44.7660 H   0  0  0  0  0  0  0  0  0  0  0  0
   37.0070   32.2020   45.0350 H   0  0  0  0  0  0  0  0  0  0  0  0
   38.5180   30.1610   46.7520 H   0  0  0  0  0  0  0  0  0  0  0  0
   37.6970   29.6480   49.2560 C   0  0  0  0  0  0  0  0  0  0  0  0
   36.5530   30.1130   48.6070 C   0  0  0  0  0  0  0  0  0  0  0  0
   35.3820   30.2500   49.3610 C   0  0  0  0  0  0  0  0  0  0  0  0
   35.4290   29.9200   50.6970 N   0  0  0  0  0  0  0  0  0  0  0  0
   36.5740   29.4730   51.2670 C   0  0  0  0  0  0  0  0  0  0  0  0
   37.7160   29.3320   50.5600 N   0  0  0  0  0  0  0  0  0  0  0  0
   38.6060   29.5380   48.6810 H   0  0  0  0  0  0  0  0  0  0  0  0
   34.4620   30.6060   48.9160 H   0  0  0  0  0  0  0  0  0  0  0  0
   36.5070   29.2410   52.3170 H   0  0  0  0  0  0  0  0  0  0  0  0
   40.1690   32.3580   46.0920 F   0  0  0  0  0  0  0  0  0  0  0  0
   39.5080   32.7850   47.2160 C   0  0  0  0  0  0  0  0  0  0  0  0
   38.3300   32.1060   47.4860 C   0  0  0  0  0  0  0  0  0  0  0  0
   37.6170   32.5000   48.6190 C   0  0  0  0  0  0  0  0  0  0  0  0
   36.6720   32.0440   48.9430 H   0  0  0  0  0  0  0  0  0  0  0  0
   38.0630   33.5150   49.4280 C   0  0  0  0  0  0  0  0  0  0  0  0
   37.5660   33.8750   50.3220 H   0  0  0  0  0  0  0  0  0  0  0  0
   39.2470   34.1630   49.1140 C   0  0  0  0  0  0  0  0  0  0  0  0
   39.9780   33.8010   48.0040 C   0  0  0  0  0  0  0  0  0  0  0  0
  1 16  1  0  0  0  0
  2  7  1  0  0  0  0
  2  8  1  0  0  0  0
  2  1  1  0  0  0  0
  3  2  1  0  0  0  0
  4  3  1  0  0  0  0
  4  5  1  0  0  0  0
  5  6  1  0  0  0  0
  6 14  1  1  0  0  0
  6  1  1  0  0  0  0
  6 26  1  0  0  0  0
  9  3  1  0  0  0  0
 10  3  1  0  0  0  0
 11  4  1  0  0  0  0
 12  5  1  0  0  0  0
 13  5  1  0  0  0  0
 15 20  1  0  0  0  0
 16 15  2  0  0  0  0
 16 17  1  0  0  0  0
 17 18  2  0  0  0  0
 18 19  1  0  0  0  0
 19 23  1  0  0  0  0
 20 19  2  0  0  0  0
 21 15  1  0  0  0  0
 22 17  1  0  0  0  0
 24 25  1  0  0  0  0
 25 26  2  0  0  0  0
 25 32  1  0  0  0  0
 26 27  1  0  0  0  0
 27 28  1  0  0  0  0
 27 29  2  0  0  0  0
 29 30  1  0  0  0  0
 31 29  1  0  0  0  0
 32 31  2  0  0  0  0
M  END
>  <minimizedAffinity>
-5.17684984

>  <minimizedRMSD>
2.78483438

$$$$
