
 OpenBabel03272507053D

 31 34  0  0  0  0  0  0  0  0999 V2000
   37.2840   29.7580   51.3600 C   0  0  0  0  0  0  0  0  0  0  0  0
   38.1090   30.7540   50.7990 C   0  0  0  0  0  0  0  0  0  0  0  0
   37.7730   31.2100   49.5150 C   0  0  0  0  0  0  0  0  0  0  0  0
   36.6940   30.6650   48.9200 N   0  0  0  0  0  0  0  0  0  0  0  0
   35.9250   29.7220   49.4690 C   0  0  0  0  0  0  0  0  0  0  0  0
   36.2080   29.2510   50.7010 N   0  0  0  0  0  0  0  0  0  0  0  0
   37.4830   29.3570   52.3510 H   0  0  0  0  0  0  0  0  0  0  0  0
   38.9480   31.1360   51.3350 H   0  0  0  0  0  0  0  0  0  0  0  0
   34.3630   27.8900   48.9610 C   0  0  0  0  0  0  0  0  0  0  0  0
   34.7860   29.2060   48.7350 C   0  0  0  0  0  0  0  0  0  0  0  0
   34.1260   30.0020   47.8260 C   0  0  0  0  0  0  0  0  0  0  0  0
   33.0390   29.5230   47.1220 C   0  0  0  0  0  0  0  0  0  0  0  0
   32.2290   30.0750   46.1940 N   0  0  0  0  0  0  0  0  0  0  0  0
   31.3460   29.0990   45.8820 C   0  0  0  0  0  0  0  0  0  0  0  0
   31.6000   27.9850   46.5900 N   0  0  0  0  0  0  0  0  0  0  0  0
   32.6610   28.2250   47.3780 C   0  0  0  0  0  0  0  0  0  0  0  0
   33.2720   27.3890   48.2630 C   0  0  0  0  0  0  0  0  0  0  0  0
   34.8970   27.2940   49.6760 H   0  0  0  0  0  0  0  0  0  0  0  0
   34.4160   31.0320   47.6150 H   0  0  0  0  0  0  0  0  0  0  0  0
   32.2690   31.0460   45.7980 H   0  0  0  0  0  0  0  0  0  0  0  0
   30.5320   29.1530   45.1720 H   0  0  0  0  0  0  0  0  0  0  0  0
   32.9440   26.3630   48.4410 H   0  0  0  0  0  0  0  0  0  0  0  0
   38.7900   30.8790   46.8840 F   0  0  0  0  0  0  0  0  0  0  0  0
   39.0150   31.9970   47.5750 C   0  0  0  0  0  0  0  0  0  0  0  0
   38.5540   32.2270   48.8530 C   0  0  0  0  0  0  0  0  0  0  0  0
   38.8960   33.4360   49.3800 C   0  0  0  0  0  0  0  0  0  0  0  0
   38.5670   33.6850   50.3800 H   0  0  0  0  0  0  0  0  0  0  0  0
   39.6390   34.4130   48.7610 C   0  0  0  0  0  0  0  0  0  0  0  0
   39.8740   35.3540   49.2400 H   0  0  0  0  0  0  0  0  0  0  0  0
   40.0910   34.1610   47.4810 C   0  0  0  0  0  0  0  0  0  0  0  0
   39.7750   32.9470   46.8890 C   0  0  0  0  0  0  0  0  0  0  0  0
  1  7  1  0  0  0  0
  2  8  1  0  0  0  0
  2  1  1  0  0  0  0
  3  2  2  0  0  0  0
  4  5  2  0  0  0  0
  4  3  1  0  0  0  0
  5  6  1  0  0  0  0
  6  1  2  0  0  0  0
  9 18  1  0  0  0  0
 10  9  1  0  0  0  0
 10  5  1  0  0  0  0
 11 10  2  0  0  0  0
 12 16  2  0  0  0  0
 12 11  1  0  0  0  0
 13 12  1  0  0  0  0
 14 13  1  0  0  0  0
 14 15  2  0  0  0  0
 15 16  1  0  0  0  0
 16 17  1  0  0  0  0
 17 22  1  0  0  0  0
 17  9  2  0  0  0  0
 19 11  1  0  0  0  0
 20 13  1  0  0  0  0
 21 14  1  0  0  0  0
 23 24  1  0  0  0  0
 24 25  1  0  0  0  0
 25 26  2  0  0  0  0
 25  3  1  0  0  0  0
 26 27  1  0  0  0  0
 28 29  1  0  0  0  0
 28 26  1  0  0  0  0
 30 28  2  0  0  0  0
 31 30  1  0  0  0  0
 31 24  2  0  0  0  0
M  END
>  <minimizedAffinity>
-7.10288382

>  <minimizedRMSD>
0.788266838

$$$$
