
 OpenBabel03272509213D

 46 50  0  0  0  0  0  0  0  0999 V2000
   38.0050   31.3710   48.1660 C   0  0  0  0  0  0  0  0  0  0  0  0
   37.1820   31.6220   49.2470 C   0  0  0  0  0  0  0  0  0  0  0  0
   37.4110   32.8620   49.8570 C   0  0  0  0  0  0  0  0  0  0  0  0
   38.3870   33.7500   49.3960 C   0  0  0  0  0  0  0  0  0  0  0  0
   39.1720   33.3940   48.2840 C   0  0  0  0  0  0  0  0  0  0  0  0
   38.9670   32.1780   47.6640 C   0  0  0  0  0  0  0  0  0  0  0  0
   36.7850   33.1010   50.7140 H   0  0  0  0  0  0  0  0  0  0  0  0
   38.5060   34.6870   49.9160 H   0  0  0  0  0  0  0  0  0  0  0  0
   39.9130   34.1180   47.9690 H   0  0  0  0  0  0  0  0  0  0  0  0
   34.9750   30.5940   49.0310 C   0  0  0  0  0  0  0  0  0  0  0  0
   36.1850   30.7190   49.7200 C   0  0  0  0  0  0  0  0  0  0  0  0
   36.3700   29.9330   50.8670 C   0  0  0  0  0  0  0  0  0  0  0  0
   35.3750   29.1010   51.2480 N   0  0  0  0  0  0  0  0  0  0  0  0
   34.2070   29.0110   50.5440 C   0  0  0  0  0  0  0  0  0  0  0  0
   34.0270   29.7530   49.4560 N   0  0  0  0  0  0  0  0  0  0  0  0
   34.8360   31.2020   48.1450 H   0  0  0  0  0  0  0  0  0  0  0  0
   33.4870   28.3030   50.9560 H   0  0  0  0  0  0  0  0  0  0  0  0
   37.6350   30.0260   51.6350 C   0  0  0  0  0  0  0  0  0  0  0  0
   38.4800   30.0550   50.8950 H   0  0  0  0  0  0  0  0  0  0  0  0
   37.6420   30.8580   52.3450 H   0  0  0  0  0  0  0  0  0  0  0  0
   37.7500   29.0280   52.1330 H   0  0  0  0  0  0  0  0  0  0  0  0
   37.8640   30.1590   47.4790 O   0  0  0  0  0  0  0  0  0  0  0  0
   38.5110   29.4070   47.6540 H   0  0  0  0  0  0  0  0  0  0  0  0
   39.7720   31.9050   46.5860 O   0  0  0  0  0  0  0  0  0  0  0  0
   39.8220   30.6980   44.3980 C   0  0  0  0  0  0  0  0  0  0  0  0
   39.3750   31.6360   45.3010 C   0  0  0  0  0  0  0  0  0  0  0  0
   38.3400   32.4940   44.9120 C   0  0  0  0  0  0  0  0  0  0  0  0
   37.7790   32.3940   43.6290 C   0  0  0  0  0  0  0  0  0  0  0  0
   36.7990   33.0550   42.9710 N   0  0  0  0  0  0  0  0  0  0  0  0
   36.6590   32.5470   41.7380 C   0  0  0  0  0  0  0  0  0  0  0  0
   37.5650   31.5520   41.6180 N   0  0  0  0  0  0  0  0  0  0  0  0
   38.2590   31.4450   42.7680 C   0  0  0  0  0  0  0  0  0  0  0  0
   39.2770   30.5960   43.1440 C   0  0  0  0  0  0  0  0  0  0  0  0
   40.6240   30.0860   44.8000 H   0  0  0  0  0  0  0  0  0  0  0  0
   37.8850   33.2810   45.5130 H   0  0  0  0  0  0  0  0  0  0  0  0
   36.2420   33.8530   43.3970 H   0  0  0  0  0  0  0  0  0  0  0  0
   35.9510   32.8880   41.0010 H   0  0  0  0  0  0  0  0  0  0  0  0
   38.1510   28.0220   42.6880 F   0  0  0  0  0  0  0  0  0  0  0  0
   39.2800   28.3210   42.0130 C   0  0  0  0  0  0  0  0  0  0  0  0
   39.8110   29.5730   42.2460 C   0  0  0  0  0  0  0  0  0  0  0  0
   40.9780   30.0110   41.6120 C   0  0  0  0  0  0  0  0  0  0  0  0
   41.4470   30.9640   41.7440 H   0  0  0  0  0  0  0  0  0  0  0  0
   41.6200   29.1580   40.7220 C   0  0  0  0  0  0  0  0  0  0  0  0
   42.5270   29.4320   40.1960 H   0  0  0  0  0  0  0  0  0  0  0  0
   41.0580   27.9140   40.5150 C   0  0  0  0  0  3  0  0  0  0  0  0
   39.9090   27.4590   41.1270 C   0  0  0  0  0  3  0  0  0  0  0  0
  1  2  1  0  0  0  0
  2 11  1  0  0  0  0
  2  3  2  0  0  0  0
  3  7  1  0  0  0  0
  4  3  1  0  0  0  0
  4  8  1  0  0  0  0
  5  4  2  0  0  0  0
  6  1  2  0  0  0  0
  6  5  1  0  0  0  0
  9  5  1  0  0  0  0
 10 15  2  0  0  0  0
 10 11  1  0  0  0  0
 11 12  2  0  0  0  0
 12 13  1  0  0  0  0
 12 18  1  0  0  0  0
 14 17  1  0  0  0  0
 14 13  2  0  0  0  0
 15 14  1  0  0  0  0
 16 10  1  0  0  0  0
 18 21  1  0  0  0  0
 18 20  1  0  0  0  0
 19 18  1  0  0  0  0
 22 23  1  0  0  0  0
 22  1  1  0  0  0  0
 24  6  1  0  0  0  0
 25 34  1  0  0  0  0
 25 26  1  0  0  0  0
 26 24  1  0  0  0  0
 27 26  2  0  0  0  0
 27 35  1  0  0  0  0
 28 27  1  0  0  0  0
 29 36  1  0  0  0  0
 29 28  1  0  0  0  0
 30 29  1  0  0  0  0
 31 30  2  0  0  0  0
 31 32  1  0  0  0  0
 32 33  1  0  0  0  0
 32 28  2  0  0  0  0
 33 25  2  0  0  0  0
 37 30  1  0  0  0  0
 39 40  1  0  0  0  0
 39 38  1  0  0  0  0
 40 33  1  0  0  0  0
 41 42  1  0  0  0  0
 41 40  2  0  0  0  0
 43 41  1  0  0  0  0
 44 43  1  0  0  0  0
 45 43  2  0  0  0  0
 45 46  1  0  0  0  0
 46 39  2  0  0  0  0
M  END
>  <minimizedAffinity>
-7.51796198

>  <minimizedRMSD>
1.35611093

$$$$
