
     RDKit          3D

 37 39  0  0  0  0  0  0  0  0999 V2000
   33.2774   27.2936   47.9886 C   0  0  0  0  0  0  0  0  0  0  0  0
   33.7049   26.2164   47.0412 C   0  0  0  0  0  0  0  0  0  0  0  0
   33.9219   24.8899   47.3804 C   0  0  0  0  0  0  0  0  0  0  0  0
   34.3141   23.9809   46.4280 C   0  0  0  0  0  0  0  0  0  0  0  0
   34.5035   24.3761   45.0898 C   0  0  0  0  0  0  0  0  0  0  0  0
   34.2903   25.6903   44.7447 C   0  0  0  0  0  0  0  0  0  0  0  0
   33.8969   26.5900   45.7133 C   0  0  0  0  0  0  0  0  0  0  0  0
   34.6891   28.3997   49.7232 C   0  0  0  0  0  0  0  0  0  0  0  0
   34.4116   28.0782   48.4985 C   0  0  0  0  0  0  0  0  0  0  0  0
   37.3829   30.2043   51.4112 C   0  0  0  0  0  0  0  0  0  0  0  0
   38.1201   30.6983   50.3158 C   0  0  0  0  0  0  0  0  0  0  0  0
   37.6651   30.3914   49.0219 C   0  0  0  0  0  0  0  0  0  0  0  0
   36.5311   29.6300   48.9264 N   0  0  0  0  0  0  0  0  0  0  0  0
   35.8617   29.1821   50.0067 C   0  0  0  0  0  0  0  0  0  0  0  0
   36.2945   29.4737   51.2393 N   0  0  0  0  0  0  0  0  0  0  0  0
   32.5504   27.9266   47.4402 H   0  0  0  0  0  0  0  0  0  0  0  0
   32.7812   26.8376   48.8606 H   0  0  0  0  0  0  0  0  0  0  0  0
   33.7594   24.6509   48.4231 H   0  0  0  0  0  0  0  0  0  0  0  0
   34.4735   22.9536   46.7327 H   0  0  0  0  0  0  0  0  0  0  0  0
   34.8152   23.6343   44.3532 H   0  0  0  0  0  0  0  0  0  0  0  0
   34.4431   25.9670   43.7096 H   0  0  0  0  0  0  0  0  0  0  0  0
   33.7385   27.6155   45.4050 H   0  0  0  0  0  0  0  0  0  0  0  0
   34.0704   28.1047   50.5748 H   0  0  0  0  0  0  0  0  0  0  0  0
   35.0162   28.3621   47.6296 H   0  0  0  0  0  0  0  0  0  0  0  0
   37.7928   30.4802   52.3837 H   0  0  0  0  0  0  0  0  0  0  0  0
   38.9902   31.2828   50.4330 H   0  0  0  0  0  0  0  0  0  0  0  0
   36.3286   31.4592   46.6783 F   0  0  0  0  0  0  0  0  0  0  0  0
   37.6676   31.3063   46.6590 C   0  0  0  0  0  0  0  0  0  0  0  0
   38.2779   30.8013   47.7741 C   0  0  0  0  0  0  0  0  0  0  0  0
   39.6446   30.6825   47.6581 C   0  0  0  0  0  0  0  0  0  0  0  0
   40.2896   30.2989   48.4490 H   0  0  0  0  0  0  0  0  0  0  0  0
   40.3236   31.0450   46.5120 C   0  0  0  0  0  0  0  0  0  0  0  0
   41.3907   30.9496   46.4282 H   0  0  0  0  0  0  0  0  0  0  0  0
   39.6642   31.5499   45.4123 C   0  0  0  0  0  0  0  0  0  0  0  0
   38.2944   31.6827   45.4933 C   0  0  0  0  0  0  0  0  0  0  0  0
   40.1521   31.8468   44.4949 H   0  0  0  0  0  0  0  0  0  0  0  0
   37.7405   32.0738   44.6547 H   0  0  0  0  0  0  0  0  0  0  0  0
  1  9  1  0
  2  3  2  0
  2  1  1  0
  4  3  1  0
  5  4  2  0
  6  5  1  0
  6  7  2  0
  7  2  1  0
  8 14  1  0
  9  8  2  0
 11 10  2  0
 12 11  1  0
 13 12  2  0
 13 14  1  0
 14 15  2  0
 15 10  1  0
  1 16  1  0
  1 17  1  0
  3 18  1  0
  4 19  1  0
  5 20  1  0
  6 21  1  0
  7 22  1  0
  8 23  1  0
  9 24  1  0
 10 25  1  0
 11 26  1  0
 27 28  1  0
 28 29  2  0
 29 30  1  0
 30 31  1  0
 30 32  2  0
 32 33  1  0
 32 34  1  0
 34 35  2  0
 35 28  1  0
 34 36  1  0
 35 37  1  0
 12 29  1  0
M  ISO  8  16   8  17   8  18  14  19  14  20  14  21  14  22  14  25  14
M  ISO  3  26  14  31  15  33  16
M  END
>  <DihAtoms>  (1) 
10,11,28,27

>  <DihDeg>  (1) 
-0.010197986669195159

$$$$
