
 OpenBabel03272509123D

 28 30  0  0  0  0  0  0  0  0999 V2000
   41.2980   27.1160   34.0630 C   0  0  0  0  0  0  0  0  0  0  0  0
   40.2000   26.2630   34.4060 C   0  0  0  0  0  0  0  0  0  0  0  0
   40.5130   24.9680   34.8400 C   0  0  0  0  0  0  0  0  0  0  0  0
   41.8240   24.5810   34.9160 N   0  0  0  0  0  0  0  0  0  0  0  0
   42.8250   25.4180   34.5810 C   0  0  0  0  0  0  0  0  0  0  0  0
   42.5670   26.6710   34.1600 N   0  0  0  0  0  0  0  0  0  0  0  0
   41.1650   28.1230   33.7220 H   0  0  0  0  0  0  0  0  0  0  0  0
   43.8580   25.1030   34.6430 H   0  0  0  0  0  0  0  0  0  0  0  0
   39.4750   24.0290   35.2050 C   0  0  0  0  0  0  0  0  0  0  0  0
   39.0280   23.1470   34.2600 C   0  0  0  0  0  0  0  0  0  0  0  0
   38.0510   22.2110   34.5370 C   0  0  0  0  0  0  0  0  0  0  0  0
   37.5320   22.2050   35.8330 C   0  0  0  0  0  0  0  0  0  0  0  0
   37.9410   23.0790   36.8490 C   0  0  0  0  0  0  0  0  0  0  0  0
   38.9290   23.9830   36.4740 C   0  0  0  0  0  0  0  0  0  0  0  0
   39.3120   23.0480   33.2320 H   0  0  0  0  0  0  0  0  0  0  0  0
   37.6400   21.4800   33.8610 H   0  0  0  0  0  0  0  0  0  0  0  0
   36.7610   21.5080   36.1510 H   0  0  0  0  0  0  0  0  0  0  0  0
   37.5100   23.0370   37.8360 H   0  0  0  0  0  0  0  0  0  0  0  0
   39.2750   24.6780   37.2270 H   0  0  0  0  0  0  0  0  0  0  0  0
   38.5210   27.2960   36.4570 F   0  0  0  0  0  0  0  0  0  0  0  0
   38.0640   27.4070   35.1860 C   0  0  0  0  0  0  0  0  0  0  0  0
   38.9250   26.8750   34.2160 C   0  0  0  0  0  0  0  0  0  0  0  0
   38.5050   26.9610   32.8800 C   0  0  0  0  0  0  0  0  0  0  0  0
   39.0720   26.5910   32.0290 H   0  0  0  0  0  0  0  0  0  0  0  0
   37.2900   27.5450   32.5200 C   0  0  0  0  0  0  0  0  0  0  0  0
   36.9480   27.6240   31.5160 H   0  0  0  0  0  0  0  0  0  0  0  0
   36.4660   28.0590   33.5080 C   0  0  0  0  0  3  0  0  0  0  0  0
   36.8560   27.9880   34.8300 C   0  0  0  0  0  3  0  0  0  0  0  0
  1  6  2  0  0  0  0
  1  2  1  0  0  0  0
  2  3  2  0  0  0  0
  3  4  1  0  0  0  0
  3  9  1  0  0  0  0
  5  8  1  0  0  0  0
  5  4  2  0  0  0  0
  6  5  1  0  0  0  0
  7  1  1  0  0  0  0
  9 14  1  0  0  0  0
 10 11  1  0  0  0  0
 10  9  2  0  0  0  0
 11 12  2  0  0  0  0
 12 17  1  0  0  0  0
 12 13  1  0  0  0  0
 13 18  1  0  0  0  0
 14 13  2  0  0  0  0
 14 19  1  0  0  0  0
 15 10  1  0  0  0  0
 16 11  1  0  0  0  0
 21 20  1  0  0  0  0
 22  2  1  0  0  0  0
 22 21  2  0  0  0  0
 23 22  1  0  0  0  0
 24 23  1  0  0  0  0
 25 23  2  0  0  0  0
 25 27  1  0  0  0  0
 26 25  1  0  0  0  0
 27 28  2  0  0  0  0
 28 21  1  0  0  0  0
M  END
>  <minimizedAffinity>
-5.18838501

$$$$

 OpenBabel03272509123D

 28 30  0  0  0  0  0  0  0  0999 V2000
   36.8860   24.4750   32.3270 C   0  0  0  0  0  0  0  0  0  0  0  0
   36.9940   25.8960   32.4630 C   0  0  0  0  0  0  0  0  0  0  0  0
   36.0720   26.6740   31.7510 C   0  0  0  0  0  0  0  0  0  0  0  0
   35.1280   26.0590   30.9740 N   0  0  0  0  0  0  0  0  0  0  0  0
   35.0650   24.7170   30.8740 C   0  0  0  0  0  0  0  0  0  0  0  0
   35.9320   23.9320   31.5430 N   0  0  0  0  0  0  0  0  0  0  0  0
   37.5430   23.7930   32.8290 H   0  0  0  0  0  0  0  0  0  0  0  0
   34.3170   24.2390   30.2560 H   0  0  0  0  0  0  0  0  0  0  0  0
   36.1010   28.1190   31.8190 C   0  0  0  0  0  0  0  0  0  0  0  0
   36.6890   28.8110   30.7970 C   0  0  0  0  0  0  0  0  0  0  0  0
   36.7420   30.1910   30.7820 C   0  0  0  0  0  0  0  0  0  0  0  0
   36.1670   30.8560   31.8660 C   0  0  0  0  0  0  0  0  0  0  0  0
   35.5510   30.2120   32.9480 C   0  0  0  0  0  0  0  0  0  0  0  0
   35.5460   28.8230   32.8710 C   0  0  0  0  0  0  0  0  0  0  0  0
   37.1840   28.4430   29.9200 H   0  0  0  0  0  0  0  0  0  0  0  0
   37.1810   30.8170   30.0240 H   0  0  0  0  0  0  0  0  0  0  0  0
   36.1580   31.9400   31.9500 H   0  0  0  0  0  0  0  0  0  0  0  0
   35.1210   30.7690   33.7650 H   0  0  0  0  0  0  0  0  0  0  0  0
   35.0800   28.2850   33.6850 H   0  0  0  0  0  0  0  0  0  0  0  0
   36.8120   26.5380   35.2280 F   0  0  0  0  0  0  0  0  0  0  0  0
   38.0430   26.6230   34.6650 C   0  0  0  0  0  0  0  0  0  0  0  0
   38.0740   26.3050   33.3000 C   0  0  0  0  0  0  0  0  0  0  0  0
   39.3220   26.3760   32.6620 C   0  0  0  0  0  0  0  0  0  0  0  0
   39.4920   26.1570   31.6100 H   0  0  0  0  0  0  0  0  0  0  0  0
   40.4840   26.7450   33.3420 C   0  0  0  0  0  0  0  0  0  0  0  0
   41.4410   26.8070   32.8830 H   0  0  0  0  0  0  0  0  0  0  0  0
   40.4110   27.0520   34.6910 C   0  0  0  0  0  3  0  0  0  0  0  0
   39.1960   26.9890   35.3420 C   0  0  0  0  0  3  0  0  0  0  0  0
  1  2  1  0  0  0  0
  1  7  1  0  0  0  0
  2 22  1  0  0  0  0
  3  9  1  0  0  0  0
  3  2  2  0  0  0  0
  4  3  1  0  0  0  0
  5  4  2  0  0  0  0
  5  6  1  0  0  0  0
  6  1  2  0  0  0  0
  8  5  1  0  0  0  0
  9 14  1  0  0  0  0
 10  9  2  0  0  0  0
 11 10  1  0  0  0  0
 11 12  2  0  0  0  0
 12 17  1  0  0  0  0
 12 13  1  0  0  0  0
 13 18  1  0  0  0  0
 14 13  2  0  0  0  0
 14 19  1  0  0  0  0
 15 10  1  0  0  0  0
 16 11  1  0  0  0  0
 21 20  1  0  0  0  0
 21 28  1  0  0  0  0
 22 21  2  0  0  0  0
 23 22  1  0  0  0  0
 23 25  2  0  0  0  0
 24 23  1  0  0  0  0
 25 27  1  0  0  0  0
 26 25  1  0  0  0  0
 27 28  2  0  0  0  0
M  END
>  <minimizedAffinity>
-5.17157888

$$$$

 OpenBabel03272509123D

 28 30  0  0  0  0  0  0  0  0999 V2000
   37.6460   23.2740   32.4260 C   0  0  0  0  0  0  0  0  0  0  0  0
   38.1470   23.5690   33.7340 C   0  0  0  0  0  0  0  0  0  0  0  0
   37.8550   22.6480   34.7490 C   0  0  0  0  0  0  0  0  0  0  0  0
   37.1200   21.5310   34.4560 N   0  0  0  0  0  0  0  0  0  0  0  0
   36.6670   21.2950   33.2090 C   0  0  0  0  0  0  0  0  0  0  0  0
   36.9260   22.1550   32.2040 N   0  0  0  0  0  0  0  0  0  0  0  0
   37.8150   23.9130   31.5830 H   0  0  0  0  0  0  0  0  0  0  0  0
   36.0850   20.4110   32.9860 H   0  0  0  0  0  0  0  0  0  0  0  0
   38.3120   22.8580   36.1060 C   0  0  0  0  0  0  0  0  0  0  0  0
   39.5800   22.4690   36.4370 C   0  0  0  0  0  0  0  0  0  0  0  0
   40.0940   22.6510   37.7070 C   0  0  0  0  0  0  0  0  0  0  0  0
   39.2540   23.2510   38.6460 C   0  0  0  0  0  0  0  0  0  0  0  0
   37.9450   23.6730   38.3770 C   0  0  0  0  0  0  0  0  0  0  0  0
   37.5190   23.4490   37.0720 C   0  0  0  0  0  0  0  0  0  0  0  0
   40.3230   21.9820   35.8370 H   0  0  0  0  0  0  0  0  0  0  0  0
   41.0750   22.3780   38.0560 H   0  0  0  0  0  0  0  0  0  0  0  0
   39.5630   23.4380   39.6720 H   0  0  0  0  0  0  0  0  0  0  0  0
   37.3330   24.1320   39.1370 H   0  0  0  0  0  0  0  0  0  0  0  0
   36.5150   23.7580   36.8200 H   0  0  0  0  0  0  0  0  0  0  0  0
   37.1390   26.0180   34.7720 F   0  0  0  0  0  0  0  0  0  0  0  0
   38.4150   26.0330   34.3130 C   0  0  0  0  0  0  0  0  0  0  0  0
   38.8580   24.8040   33.8050 C   0  0  0  0  0  0  0  0  0  0  0  0
   40.1710   24.7580   33.3140 C   0  0  0  0  0  0  0  0  0  0  0  0
   40.6440   23.8730   32.8930 H   0  0  0  0  0  0  0  0  0  0  0  0
   41.0070   25.8750   33.3240 C   0  0  0  0  0  0  0  0  0  0  0  0
   42.0060   25.8680   32.9580 H   0  0  0  0  0  0  0  0  0  0  0  0
   40.5320   27.0730   33.8340 C   0  0  0  0  0  3  0  0  0  0  0  0
   39.2430   27.1440   34.3240 C   0  0  0  0  0  3  0  0  0  0  0  0
  1  2  1  0  0  0  0
  2 22  1  0  0  0  0
  2  3  2  0  0  0  0
  3  9  1  0  0  0  0
  4  3  1  0  0  0  0
  5  4  2  0  0  0  0
  6  1  2  0  0  0  0
  6  5  1  0  0  0  0
  7  1  1  0  0  0  0
  8  5  1  0  0  0  0
  9 10  2  0  0  0  0
  9 14  1  0  0  0  0
 10 11  1  0  0  0  0
 11 16  1  0  0  0  0
 11 12  2  0  0  0  0
 12 17  1  0  0  0  0
 13 12  1  0  0  0  0
 13 18  1  0  0  0  0
 14 13  2  0  0  0  0
 15 10  1  0  0  0  0
 19 14  1  0  0  0  0
 21 28  1  0  0  0  0
 21 20  1  0  0  0  0
 22 21  2  0  0  0  0
 23 25  2  0  0  0  0
 23 22  1  0  0  0  0
 24 23  1  0  0  0  0
 25 27  1  0  0  0  0
 26 25  1  0  0  0  0
 27 28  2  0  0  0  0
M  END
>  <minimizedAffinity>
-5.09992266

$$$$

 OpenBabel03272509123D

 28 30  0  0  0  0  0  0  0  0999 V2000
   35.2600   25.9100   30.8890 C   0  0  0  0  0  0  0  0  0  0  0  0
   36.3360   26.5190   31.6100 C   0  0  0  0  0  0  0  0  0  0  0  0
   37.1710   25.6670   32.3460 C   0  0  0  0  0  0  0  0  0  0  0  0
   36.9290   24.3200   32.3440 N   0  0  0  0  0  0  0  0  0  0  0  0
   35.9020   23.7900   31.6510 C   0  0  0  0  0  0  0  0  0  0  0  0
   35.0770   24.5740   30.9300 N   0  0  0  0  0  0  0  0  0  0  0  0
   34.5670   26.4730   30.2970 H   0  0  0  0  0  0  0  0  0  0  0  0
   35.7170   22.7240   31.6570 H   0  0  0  0  0  0  0  0  0  0  0  0
   38.2820   26.1860   33.1120 C   0  0  0  0  0  0  0  0  0  0  0  0
   38.1290   26.3480   34.4610 C   0  0  0  0  0  0  0  0  0  0  0  0
   39.1500   26.8220   35.2630 C   0  0  0  0  0  0  0  0  0  0  0  0
   40.3540   27.1360   34.6300 C   0  0  0  0  0  0  0  0  0  0  0  0
   40.5800   26.9970   33.2540 C   0  0  0  0  0  0  0  0  0  0  0  0
   39.4950   26.5110   32.5330 C   0  0  0  0  0  0  0  0  0  0  0  0
   37.2690   26.1730   35.0760 H   0  0  0  0  0  0  0  0  0  0  0  0
   39.1210   26.9800   36.3270 H   0  0  0  0  0  0  0  0  0  0  0  0
   41.2170   27.5170   35.1700 H   0  0  0  0  0  0  0  0  0  0  0  0
   41.5290   27.2540   32.8090 H   0  0  0  0  0  0  0  0  0  0  0  0
   39.6250   26.3880   31.4670 H   0  0  0  0  0  0  0  0  0  0  0  0
   35.5850   28.3870   33.6210 F   0  0  0  0  0  0  0  0  0  0  0  0
   36.0210   28.9030   32.4450 C   0  0  0  0  0  0  0  0  0  0  0  0
   36.3690   27.9400   31.4880 C   0  0  0  0  0  0  0  0  0  0  0  0
   36.8270   28.4150   30.2490 C   0  0  0  0  0  0  0  0  0  0  0  0
   37.1310   27.7820   29.4180 H   0  0  0  0  0  0  0  0  0  0  0  0
   36.9350   29.7780   29.9710 C   0  0  0  0  0  0  0  0  0  0  0  0
   37.2790   30.1650   29.0420 H   0  0  0  0  0  0  0  0  0  0  0  0
   36.5800   30.6990   30.9440 C   0  0  0  0  0  3  0  0  0  0  0  0
   36.1270   30.2570   32.1710 C   0  0  0  0  0  3  0  0  0  0  0  0
  1  6  2  0  0  0  0
  1  2  1  0  0  0  0
  2  3  2  0  0  0  0
  3  9  1  0  0  0  0
  4  3  1  0  0  0  0
  5  8  1  0  0  0  0
  5  4  2  0  0  0  0
  6  5  1  0  0  0  0
  7  1  1  0  0  0  0
  9 10  1  0  0  0  0
 10 15  1  0  0  0  0
 10 11  2  0  0  0  0
 11 16  1  0  0  0  0
 12 17  1  0  0  0  0
 12 11  1  0  0  0  0
 13 12  2  0  0  0  0
 14  9  2  0  0  0  0
 14 13  1  0  0  0  0
 18 13  1  0  0  0  0
 19 14  1  0  0  0  0
 21 20  1  0  0  0  0
 22  2  1  0  0  0  0
 22 21  2  0  0  0  0
 23 22  1  0  0  0  0
 24 23  1  0  0  0  0
 25 23  2  0  0  0  0
 25 27  1  0  0  0  0
 26 25  1  0  0  0  0
 27 28  2  0  0  0  0
 28 21  1  0  0  0  0
M  END
>  <minimizedAffinity>
-5.06627131

$$$$

 OpenBabel03272509123D

 28 30  0  0  0  0  0  0  0  0999 V2000
   35.2610   25.8570   31.0890 C   0  0  0  0  0  0  0  0  0  0  0  0
   36.4160   26.5040   31.6330 C   0  0  0  0  0  0  0  0  0  0  0  0
   37.4510   25.6780   32.0900 C   0  0  0  0  0  0  0  0  0  0  0  0
   37.3190   24.3180   32.0000 N   0  0  0  0  0  0  0  0  0  0  0  0
   36.2110   23.7520   31.4810 C   0  0  0  0  0  0  0  0  0  0  0  0
   35.1940   24.5110   31.0300 N   0  0  0  0  0  0  0  0  0  0  0  0
   34.4160   26.3990   30.7120 H   0  0  0  0  0  0  0  0  0  0  0  0
   36.1140   22.6770   31.4150 H   0  0  0  0  0  0  0  0  0  0  0  0
   38.6580   26.2350   32.6610 C   0  0  0  0  0  0  0  0  0  0  0  0
   39.6480   26.6570   31.8180 C   0  0  0  0  0  0  0  0  0  0  0  0
   40.8210   27.2140   32.2870 C   0  0  0  0  0  0  0  0  0  0  0  0
   40.9560   27.3270   33.6720 C   0  0  0  0  0  0  0  0  0  0  0  0
   39.9850   26.9150   34.5940 C   0  0  0  0  0  0  0  0  0  0  0  0
   38.8390   26.3680   34.0260 C   0  0  0  0  0  0  0  0  0  0  0  0
   39.6960   26.6150   30.7480 H   0  0  0  0  0  0  0  0  0  0  0  0
   41.6510   27.5730   31.7010 H   0  0  0  0  0  0  0  0  0  0  0  0
   41.8410   27.7510   34.1410 H   0  0  0  0  0  0  0  0  0  0  0  0
   40.1350   27.0210   35.6560 H   0  0  0  0  0  0  0  0  0  0  0  0
   38.0630   26.0370   34.7010 H   0  0  0  0  0  0  0  0  0  0  0  0
   36.9450   28.2470   29.4470 F   0  0  0  0  0  0  0  0  0  0  0  0
   36.5510   28.8290   30.6070 C   0  0  0  0  0  0  0  0  0  0  0  0
   36.3130   27.9270   31.6530 C   0  0  0  0  0  0  0  0  0  0  0  0
   35.9030   28.4720   32.8790 C   0  0  0  0  0  0  0  0  0  0  0  0
   35.6830   27.8910   33.7710 H   0  0  0  0  0  0  0  0  0  0  0  0
   35.7370   29.8460   33.0620 C   0  0  0  0  0  0  0  0  0  0  0  0
   35.4270   30.2850   33.9800 H   0  0  0  0  0  0  0  0  0  0  0  0
   35.9830   30.7050   32.0040 C   0  0  0  0  0  3  0  0  0  0  0  0
   36.3870   30.1940   30.7870 C   0  0  0  0  0  3  0  0  0  0  0  0
  1  2  1  0  0  0  0
  2 22  1  0  0  0  0
  2  3  2  0  0  0  0
  3  9  1  0  0  0  0
  4  3  1  0  0  0  0
  5  4  2  0  0  0  0
  6  1  2  0  0  0  0
  6  5  1  0  0  0  0
  7  1  1  0  0  0  0
  8  5  1  0  0  0  0
  9 14  1  0  0  0  0
 10 11  1  0  0  0  0
 10  9  2  0  0  0  0
 11 12  2  0  0  0  0
 12 17  1  0  0  0  0
 12 13  1  0  0  0  0
 13 18  1  0  0  0  0
 14 13  2  0  0  0  0
 14 19  1  0  0  0  0
 15 10  1  0  0  0  0
 16 11  1  0  0  0  0
 20 21  1  0  0  0  0
 21 28  2  0  0  0  0
 21 22  1  0  0  0  0
 22 23  2  0  0  0  0
 23 25  1  0  0  0  0
 23 24  1  0  0  0  0
 25 26  1  0  0  0  0
 27 25  2  0  0  0  0
 28 27  1  0  0  0  0
M  END
>  <minimizedAffinity>
-4.98880005

$$$$

 OpenBabel03272509123D

 28 30  0  0  0  0  0  0  0  0999 V2000
   39.3290   25.5210   29.6210 C   0  0  0  0  0  0  0  0  0  0  0  0
   38.7590   25.7010   30.9220 C   0  0  0  0  0  0  0  0  0  0  0  0
   39.2670   26.7510   31.6990 C   0  0  0  0  0  0  0  0  0  0  0  0
   40.2640   27.5420   31.1950 N   0  0  0  0  0  0  0  0  0  0  0  0
   40.7730   27.3330   29.9640 C   0  0  0  0  0  0  0  0  0  0  0  0
   40.3110   26.3360   29.1850 N   0  0  0  0  0  0  0  0  0  0  0  0
   39.0100   24.7480   28.9510 H   0  0  0  0  0  0  0  0  0  0  0  0
   41.5620   27.9610   29.5740 H   0  0  0  0  0  0  0  0  0  0  0  0
   38.7600   27.0130   33.0280 C   0  0  0  0  0  0  0  0  0  0  0  0
   39.5780   26.7790   34.0990 C   0  0  0  0  0  0  0  0  0  0  0  0
   39.1720   27.0200   35.3970 C   0  0  0  0  0  0  0  0  0  0  0  0
   37.8780   27.5130   35.5710 C   0  0  0  0  0  0  0  0  0  0  0  0
   36.9860   27.7720   34.5220 C   0  0  0  0  0  0  0  0  0  0  0  0
   37.4860   27.5010   33.2530 C   0  0  0  0  0  0  0  0  0  0  0  0
   40.5750   26.3870   34.1220 H   0  0  0  0  0  0  0  0  0  0  0  0
   39.7440   26.8680   36.2960 H   0  0  0  0  0  0  0  0  0  0  0  0
   37.4630   27.7330   36.5520 H   0  0  0  0  0  0  0  0  0  0  0  0
   35.9930   28.1520   34.7060 H   0  0  0  0  0  0  0  0  0  0  0  0
   36.8320   27.6870   32.4130 H   0  0  0  0  0  0  0  0  0  0  0  0
   35.9510   26.0450   30.6120 F   0  0  0  0  0  0  0  0  0  0  0  0
   36.3670   24.8500   31.1000 C   0  0  0  0  0  0  0  0  0  0  0  0
   37.7570   24.7370   31.2410 C   0  0  0  0  0  0  0  0  0  0  0  0
   38.2460   23.5220   31.7420 C   0  0  0  0  0  0  0  0  0  0  0  0
   39.2980   23.2970   31.9020 H   0  0  0  0  0  0  0  0  0  0  0  0
   37.4010   22.4670   32.0890 C   0  0  0  0  0  0  0  0  0  0  0  0
   37.7440   21.5360   32.4710 H   0  0  0  0  0  0  0  0  0  0  0  0
   36.0320   22.6170   31.9360 C   0  0  0  0  0  3  0  0  0  0  0  0
   35.5250   23.8030   31.4440 C   0  0  0  0  0  3  0  0  0  0  0  0
  1  2  1  0  0  0  0
  2 22  1  0  0  0  0
  2  3  2  0  0  0  0
  3  9  1  0  0  0  0
  4  3  1  0  0  0  0
  5  4  2  0  0  0  0
  6  1  2  0  0  0  0
  6  5  1  0  0  0  0
  7  1  1  0  0  0  0
  8  5  1  0  0  0  0
  9 14  2  0  0  0  0
  9 10  1  0  0  0  0
 10 15  1  0  0  0  0
 10 11  2  0  0  0  0
 11 12  1  0  0  0  0
 11 16  1  0  0  0  0
 12 17  1  0  0  0  0
 13 18  1  0  0  0  0
 13 12  2  0  0  0  0
 14 13  1  0  0  0  0
 19 14  1  0  0  0  0
 20 21  1  0  0  0  0
 21 22  2  0  0  0  0
 21 28  1  0  0  0  0
 22 23  1  0  0  0  0
 23 24  1  0  0  0  0
 23 25  2  0  0  0  0
 25 26  1  0  0  0  0
 27 25  1  0  0  0  0
 28 27  2  0  0  0  0
M  END
>  <minimizedAffinity>
-4.92582178

$$$$

 OpenBabel03272509123D

 28 30  0  0  0  0  0  0  0  0999 V2000
   37.1620   21.6120   34.4740 C   0  0  0  0  0  0  0  0  0  0  0  0
   37.9860   22.7650   34.6820 C   0  0  0  0  0  0  0  0  0  0  0  0
   38.2180   23.5880   33.5720 C   0  0  0  0  0  0  0  0  0  0  0  0
   37.6610   23.2650   32.3640 N   0  0  0  0  0  0  0  0  0  0  0  0
   36.8930   22.1670   32.2150 C   0  0  0  0  0  0  0  0  0  0  0  0
   36.6450   21.3500   33.2560 N   0  0  0  0  0  0  0  0  0  0  0  0
   36.9250   20.9210   35.2580 H   0  0  0  0  0  0  0  0  0  0  0  0
   36.4590   21.9180   31.2560 H   0  0  0  0  0  0  0  0  0  0  0  0
   39.0400   24.7740   33.6780 C   0  0  0  0  0  0  0  0  0  0  0  0
   38.4490   25.9500   34.0490 C   0  0  0  0  0  0  0  0  0  0  0  0
   39.1700   27.1200   34.1880 C   0  0  0  0  0  0  0  0  0  0  0  0
   40.5400   27.0510   33.9270 C   0  0  0  0  0  0  0  0  0  0  0  0
   41.2100   25.8830   33.5410 C   0  0  0  0  0  0  0  0  0  0  0  0
   40.4000   24.7570   33.4300 C   0  0  0  0  0  0  0  0  0  0  0  0
   37.4190   26.1590   34.2580 H   0  0  0  0  0  0  0  0  0  0  0  0
   38.7920   28.0860   34.4740 H   0  0  0  0  0  0  0  0  0  0  0  0
   41.1940   27.9150   34.0060 H   0  0  0  0  0  0  0  0  0  0  0  0
   42.2710   25.8780   33.3490 H   0  0  0  0  0  0  0  0  0  0  0  0
   40.8760   23.8330   33.1350 H   0  0  0  0  0  0  0  0  0  0  0  0
   40.5760   22.0020   35.5750 F   0  0  0  0  0  0  0  0  0  0  0  0
   39.7430   22.5270   36.5070 C   0  0  0  0  0  0  0  0  0  0  0  0
   38.4780   22.8780   36.0160 C   0  0  0  0  0  0  0  0  0  0  0  0
   37.5720   23.4270   36.9350 C   0  0  0  0  0  0  0  0  0  0  0  0
   36.5600   23.7430   36.6920 H   0  0  0  0  0  0  0  0  0  0  0  0
   37.9010   23.6200   38.2780 C   0  0  0  0  0  0  0  0  0  0  0  0
   37.2340   24.0340   38.9950 H   0  0  0  0  0  0  0  0  0  0  0  0
   39.1620   23.2600   38.7250 C   0  0  0  0  0  3  0  0  0  0  0  0
   40.0730   22.7180   37.8400 C   0  0  0  0  0  3  0  0  0  0  0  0
  1  2  1  0  0  0  0
  1  7  1  0  0  0  0
  2 22  1  0  0  0  0
  3  9  1  0  0  0  0
  3  2  2  0  0  0  0
  4  3  1  0  0  0  0
  5  4  2  0  0  0  0
  5  6  1  0  0  0  0
  6  1  2  0  0  0  0
  8  5  1  0  0  0  0
  9 10  1  0  0  0  0
 10 11  2  0  0  0  0
 10 15  1  0  0  0  0
 11 16  1  0  0  0  0
 12 17  1  0  0  0  0
 12 11  1  0  0  0  0
 13 12  2  0  0  0  0
 14 13  1  0  0  0  0
 14  9  2  0  0  0  0
 18 13  1  0  0  0  0
 19 14  1  0  0  0  0
 20 21  1  0  0  0  0
 21 28  1  0  0  0  0
 22 21  2  0  0  0  0
 22 23  1  0  0  0  0
 23 25  2  0  0  0  0
 24 23  1  0  0  0  0
 25 27  1  0  0  0  0
 25 26  1  0  0  0  0
 28 27  2  0  0  0  0
M  END
>  <minimizedAffinity>
-4.91956139

$$$$

 OpenBabel03272509123D

 28 30  0  0  0  0  0  0  0  0999 V2000
   37.6170   23.0890   32.4130 C   0  0  0  0  0  0  0  0  0  0  0  0
   38.1670   23.4270   33.6920 C   0  0  0  0  0  0  0  0  0  0  0  0
   37.8460   22.5830   34.7630 C   0  0  0  0  0  0  0  0  0  0  0  0
   37.0410   21.4970   34.5500 N   0  0  0  0  0  0  0  0  0  0  0  0
   36.5450   21.2190   33.3280 C   0  0  0  0  0  0  0  0  0  0  0  0
   36.8290   22.0040   32.2710 N   0  0  0  0  0  0  0  0  0  0  0  0
   37.8020   23.6690   31.5310 H   0  0  0  0  0  0  0  0  0  0  0  0
   35.9070   20.3600   33.1690 H   0  0  0  0  0  0  0  0  0  0  0  0
   38.3480   22.8420   36.0960 C   0  0  0  0  0  0  0  0  0  0  0  0
   37.5420   23.5000   36.9820 C   0  0  0  0  0  0  0  0  0  0  0  0
   37.9440   23.7700   38.2760 C   0  0  0  0  0  0  0  0  0  0  0  0
   39.2200   23.3390   38.6430 C   0  0  0  0  0  0  0  0  0  0  0  0
   40.0990   22.6620   37.7870 C   0  0  0  0  0  0  0  0  0  0  0  0
   39.6040   22.4360   36.5060 C   0  0  0  0  0  0  0  0  0  0  0  0
   36.5600   23.9050   36.8410 H   0  0  0  0  0  0  0  0  0  0  0  0
   37.3810   24.2790   39.0390 H   0  0  0  0  0  0  0  0  0  0  0  0
   39.6300   23.5030   39.6360 H   0  0  0  0  0  0  0  0  0  0  0  0
   41.0770   22.3490   38.1150 H   0  0  0  0  0  0  0  0  0  0  0  0
   40.2490   21.9160   35.8120 H   0  0  0  0  0  0  0  0  0  0  0  0
   41.0080   23.5600   33.6410 F   0  0  0  0  0  0  0  0  0  0  0  0
   40.3450   24.7430   33.6410 C   0  0  0  0  0  0  0  0  0  0  0  0
   38.9490   24.6200   33.6760 C   0  0  0  0  0  0  0  0  0  0  0  0
   38.2080   25.8110   33.6780 C   0  0  0  0  0  0  0  0  0  0  0  0
   37.1220   25.8640   33.7030 H   0  0  0  0  0  0  0  0  0  0  0  0
   38.8190   27.0660   33.6490 C   0  0  0  0  0  0  0  0  0  0  0  0
   38.2820   27.9840   33.6500 H   0  0  0  0  0  0  0  0  0  0  0  0
   40.2020   27.1450   33.6160 C   0  0  0  0  0  3  0  0  0  0  0  0
   40.9540   25.9870   33.6120 C   0  0  0  0  0  3  0  0  0  0  0  0
  1  2  1  0  0  0  0
  2  3  2  0  0  0  0
  3  9  1  0  0  0  0
  4  3  1  0  0  0  0
  5  4  2  0  0  0  0
  6  1  2  0  0  0  0
  6  5  1  0  0  0  0
  7  1  1  0  0  0  0
  8  5  1  0  0  0  0
  9 14  2  0  0  0  0
  9 10  1  0  0  0  0
 10 11  2  0  0  0  0
 11 12  1  0  0  0  0
 11 16  1  0  0  0  0
 12 17  1  0  0  0  0
 13 18  1  0  0  0  0
 13 12  2  0  0  0  0
 14 13  1  0  0  0  0
 15 10  1  0  0  0  0
 19 14  1  0  0  0  0
 21 20  1  0  0  0  0
 21 22  1  0  0  0  0
 22 23  2  0  0  0  0
 22  2  1  0  0  0  0
 23 24  1  0  0  0  0
 25 26  1  0  0  0  0
 25 23  1  0  0  0  0
 27 25  2  0  0  0  0
 28 27  1  0  0  0  0
 28 21  2  0  0  0  0
M  END
>  <minimizedAffinity>
-4.91608572

$$$$

 OpenBabel03272509123D

 28 30  0  0  0  0  0  0  0  0999 V2000
   40.1330   27.3660   30.7770 C   0  0  0  0  0  0  0  0  0  0  0  0
   39.4410   26.8610   31.9250 C   0  0  0  0  0  0  0  0  0  0  0  0
   40.1400   26.8640   33.1390 C   0  0  0  0  0  0  0  0  0  0  0  0
   41.4240   27.3360   33.1780 N   0  0  0  0  0  0  0  0  0  0  0  0
   42.0360   27.8010   32.0710 C   0  0  0  0  0  0  0  0  0  0  0  0
   41.3990   27.8170   30.8840 N   0  0  0  0  0  0  0  0  0  0  0  0
   39.6860   27.4070   29.8040 H   0  0  0  0  0  0  0  0  0  0  0  0
   43.0510   28.1710   32.1100 H   0  0  0  0  0  0  0  0  0  0  0  0
   39.5300   26.3700   34.3550 C   0  0  0  0  0  0  0  0  0  0  0  0
   38.8470   27.2490   35.1480 C   0  0  0  0  0  0  0  0  0  0  0  0
   38.2240   26.8500   36.3160 C   0  0  0  0  0  0  0  0  0  0  0  0
   38.3270   25.5000   36.6550 C   0  0  0  0  0  0  0  0  0  0  0  0
   39.0120   24.5450   35.8920 C   0  0  0  0  0  0  0  0  0  0  0  0
   39.6030   25.0420   34.7350 C   0  0  0  0  0  0  0  0  0  0  0  0
   38.7030   28.3040   35.0310 H   0  0  0  0  0  0  0  0  0  0  0  0
   37.6670   27.4670   36.9990 H   0  0  0  0  0  0  0  0  0  0  0  0
   37.8740   25.0860   37.5530 H   0  0  0  0  0  0  0  0  0  0  0  0
   39.0650   23.5120   36.1950 H   0  0  0  0  0  0  0  0  0  0  0  0
   40.1430   24.3400   34.1140 H   0  0  0  0  0  0  0  0  0  0  0  0
   37.0490   28.3920   32.1010 F   0  0  0  0  0  0  0  0  0  0  0  0
   36.9180   27.1050   31.6950 C   0  0  0  0  0  0  0  0  0  0  0  0
   38.1240   26.3940   31.6340 C   0  0  0  0  0  0  0  0  0  0  0  0
   38.0510   25.0560   31.2200 C   0  0  0  0  0  0  0  0  0  0  0  0
   38.9060   24.3890   31.1280 H   0  0  0  0  0  0  0  0  0  0  0  0
   36.8410   24.4480   30.8830 C   0  0  0  0  0  0  0  0  0  0  0  0
   36.7570   23.4360   30.5670 H   0  0  0  0  0  0  0  0  0  0  0  0
   35.6690   25.1840   30.9570 C   0  0  0  0  0  3  0  0  0  0  0  0
   35.7140   26.5040   31.3600 C   0  0  0  0  0  3  0  0  0  0  0  0
  1  6  2  0  0  0  0
  1  2  1  0  0  0  0
  2  3  2  0  0  0  0
  3  4  1  0  0  0  0
  3  9  1  0  0  0  0
  5  8  1  0  0  0  0
  5  4  2  0  0  0  0
  6  5  1  0  0  0  0
  7  1  1  0  0  0  0
  9 14  2  0  0  0  0
  9 10  1  0  0  0  0
 10 11  2  0  0  0  0
 11 12  1  0  0  0  0
 11 16  1  0  0  0  0
 12 17  1  0  0  0  0
 13 18  1  0  0  0  0
 13 12  2  0  0  0  0
 14 13  1  0  0  0  0
 15 10  1  0  0  0  0
 19 14  1  0  0  0  0
 21 20  1  0  0  0  0
 22 21  1  0  0  0  0
 22  2  1  0  0  0  0
 23 22  2  0  0  0  0
 24 23  1  0  0  0  0
 25 27  2  0  0  0  0
 25 23  1  0  0  0  0
 26 25  1  0  0  0  0
 27 28  1  0  0  0  0
 28 21  2  0  0  0  0
M  END
>  <minimizedAffinity>
-4.8265276

$$$$
