
 OpenBabel03272509213D

 46 50  0  0  0  0  0  0  0  0999 V2000
   38.1040   31.4010   47.9120 C   0  0  0  0  0  0  0  0  0  0  0  0
   37.2750   31.5940   49.0010 C   0  0  0  0  0  0  0  0  0  0  0  0
   37.5100   32.7920   49.6880 C   0  0  0  0  0  0  0  0  0  0  0  0
   38.4980   33.6960   49.2890 C   0  0  0  0  0  0  0  0  0  0  0  0
   39.2890   33.4020   48.1640 C   0  0  0  0  0  0  0  0  0  0  0  0
   39.0780   32.2290   47.4690 C   0  0  0  0  0  0  0  0  0  0  0  0
   36.8780   32.9840   50.5520 H   0  0  0  0  0  0  0  0  0  0  0  0
   38.6210   34.5990   49.8670 H   0  0  0  0  0  0  0  0  0  0  0  0
   40.0390   34.1380   47.8990 H   0  0  0  0  0  0  0  0  0  0  0  0
   35.1400   30.4710   48.6060 C   0  0  0  0  0  0  0  0  0  0  0  0
   36.2650   30.6720   49.4090 C   0  0  0  0  0  0  0  0  0  0  0  0
   36.3570   29.9440   50.6040 C   0  0  0  0  0  0  0  0  0  0  0  0
   35.3560   29.0900   50.9180 N   0  0  0  0  0  0  0  0  0  0  0  0
   34.2720   28.9250   50.1020 C   0  0  0  0  0  0  0  0  0  0  0  0
   34.1820   29.6130   48.9690 N   0  0  0  0  0  0  0  0  0  0  0  0
   35.0730   31.0360   47.6830 H   0  0  0  0  0  0  0  0  0  0  0  0
   33.5380   28.2070   50.4710 H   0  0  0  0  0  0  0  0  0  0  0  0
   37.5310   30.1190   51.4940 C   0  0  0  0  0  0  0  0  0  0  0  0
   38.4470   30.1500   50.8440 H   0  0  0  0  0  0  0  0  0  0  0  0
   37.4340   30.9800   52.1610 H   0  0  0  0  0  0  0  0  0  0  0  0
   37.6270   29.1480   52.0460 H   0  0  0  0  0  0  0  0  0  0  0  0
   37.9590   30.2350   47.1520 O   0  0  0  0  0  0  0  0  0  0  0  0
   38.5970   29.4680   47.2850 H   0  0  0  0  0  0  0  0  0  0  0  0
   39.8900   32.0140   46.3830 O   0  0  0  0  0  0  0  0  0  0  0  0
   39.9140   30.7570   44.2220 C   0  0  0  0  0  0  0  0  0  0  0  0
   39.4990   31.7360   45.0980 C   0  0  0  0  0  0  0  0  0  0  0  0
   38.5150   32.6350   44.6720 C   0  0  0  0  0  0  0  0  0  0  0  0
   37.9690   32.5340   43.3830 C   0  0  0  0  0  0  0  0  0  0  0  0
   37.0330   33.2270   42.6940 N   0  0  0  0  0  0  0  0  0  0  0  0
   36.8870   32.7000   41.4700 C   0  0  0  0  0  0  0  0  0  0  0  0
   37.7440   31.6580   41.3880 N   0  0  0  0  0  0  0  0  0  0  0  0
   38.4150   31.5430   42.5510 C   0  0  0  0  0  0  0  0  0  0  0  0
   39.3830   30.6540   42.9620 C   0  0  0  0  0  0  0  0  0  0  0  0
   40.6770   30.1150   44.6510 H   0  0  0  0  0  0  0  0  0  0  0  0
   38.0900   33.4570   45.2490 H   0  0  0  0  0  0  0  0  0  0  0  0
   36.5110   34.0620   43.0930 H   0  0  0  0  0  0  0  0  0  0  0  0
   36.2080   33.0580   40.7150 H   0  0  0  0  0  0  0  0  0  0  0  0
   41.1240   30.9810   40.7340 F   0  0  0  0  0  0  0  0  0  0  0  0
   40.7230   29.7250   41.0130 C   0  0  0  0  0  0  0  0  0  0  0  0
   39.8790   29.5850   42.0960 C   0  0  0  0  0  0  0  0  0  0  0  0
   39.3880   28.3390   42.4960 C   0  0  0  0  0  0  0  0  0  0  0  0
   38.7320   28.1540   43.3220 H   0  0  0  0  0  0  0  0  0  0  0  0
   39.7620   27.2070   41.7770 C   0  0  0  0  0  0  0  0  0  0  0  0
   39.4200   26.2110   42.0310 H   0  0  0  0  0  0  0  0  0  0  0  0
   40.6060   27.3870   40.7010 C   0  0  0  0  0  3  0  0  0  0  0  0
   41.1040   28.6070   40.2880 C   0  0  0  0  0  3  0  0  0  0  0  0
  1  2  1  0  0  0  0
  2 11  1  0  0  0  0
  2  3  2  0  0  0  0
  3  7  1  0  0  0  0
  4  3  1  0  0  0  0
  4  8  1  0  0  0  0
  5  4  2  0  0  0  0
  6  1  2  0  0  0  0
  6  5  1  0  0  0  0
  9  5  1  0  0  0  0
 10 15  2  0  0  0  0
 10 11  1  0  0  0  0
 11 12  2  0  0  0  0
 12 13  1  0  0  0  0
 12 18  1  0  0  0  0
 14 17  1  0  0  0  0
 14 13  2  0  0  0  0
 15 14  1  0  0  0  0
 16 10  1  0  0  0  0
 18 21  1  0  0  0  0
 18 20  1  0  0  0  0
 19 18  1  0  0  0  0
 22 23  1  0  0  0  0
 22  1  1  0  0  0  0
 24  6  1  0  0  0  0
 25 34  1  0  0  0  0
 25 26  1  0  0  0  0
 26 24  1  0  0  0  0
 27 26  2  0  0  0  0
 27 35  1  0  0  0  0
 28 27  1  0  0  0  0
 29 36  1  0  0  0  0
 29 28  1  0  0  0  0
 30 29  1  0  0  0  0
 31 30  2  0  0  0  0
 31 32  1  0  0  0  0
 32 33  1  0  0  0  0
 32 28  2  0  0  0  0
 33 25  2  0  0  0  0
 37 30  1  0  0  0  0
 38 39  1  0  0  0  0
 39 40  1  0  0  0  0
 40 41  2  0  0  0  0
 40 33  1  0  0  0  0
 41 42  1  0  0  0  0
 43 44  1  0  0  0  0
 43 41  1  0  0  0  0
 45 43  2  0  0  0  0
 46 45  1  0  0  0  0
 46 39  2  0  0  0  0
M  END
>  <minimizedAffinity>
-7.72128534

>  <minimizedRMSD>
1.04759061

$$$$
