
 OpenBabel03272509213D

 46 50  0  0  0  0  0  0  0  0999 V2000
   38.0910   31.3980   47.9870 C   0  0  0  0  0  0  0  0  0  0  0  0
   37.2420   31.5970   49.0590 C   0  0  0  0  0  0  0  0  0  0  0  0
   37.4490   32.8080   49.7300 C   0  0  0  0  0  0  0  0  0  0  0  0
   38.4320   33.7200   49.3330 C   0  0  0  0  0  0  0  0  0  0  0  0
   39.2450   33.4180   48.2260 C   0  0  0  0  0  0  0  0  0  0  0  0
   39.0620   32.2310   47.5470 C   0  0  0  0  0  0  0  0  0  0  0  0
   36.8010   33.0060   50.5810 H   0  0  0  0  0  0  0  0  0  0  0  0
   38.5330   34.6330   49.8980 H   0  0  0  0  0  0  0  0  0  0  0  0
   39.9900   34.1590   47.9620 H   0  0  0  0  0  0  0  0  0  0  0  0
   35.1100   30.4670   48.6650 C   0  0  0  0  0  0  0  0  0  0  0  0
   36.2380   30.6680   49.4650 C   0  0  0  0  0  0  0  0  0  0  0  0
   36.3370   29.9330   50.6550 C   0  0  0  0  0  0  0  0  0  0  0  0
   35.3410   29.0720   50.9680 N   0  0  0  0  0  0  0  0  0  0  0  0
   34.2550   28.9080   50.1550 C   0  0  0  0  0  0  0  0  0  0  0  0
   34.1570   29.6020   49.0260 N   0  0  0  0  0  0  0  0  0  0  0  0
   35.0370   31.0380   47.7460 H   0  0  0  0  0  0  0  0  0  0  0  0
   33.5250   28.1840   50.5220 H   0  0  0  0  0  0  0  0  0  0  0  0
   37.5140   30.1070   51.5410 C   0  0  0  0  0  0  0  0  0  0  0  0
   38.4270   30.1460   50.8880 H   0  0  0  0  0  0  0  0  0  0  0  0
   37.4160   30.9630   52.2140 H   0  0  0  0  0  0  0  0  0  0  0  0
   37.6160   29.1330   52.0870 H   0  0  0  0  0  0  0  0  0  0  0  0
   37.9740   30.2180   47.2440 O   0  0  0  0  0  0  0  0  0  0  0  0
   38.6200   29.4620   47.4000 H   0  0  0  0  0  0  0  0  0  0  0  0
   39.8940   32.0100   46.4780 O   0  0  0  0  0  0  0  0  0  0  0  0
   40.0760   30.9520   44.2200 C   0  0  0  0  0  0  0  0  0  0  0  0
   39.5290   31.7790   45.1760 C   0  0  0  0  0  0  0  0  0  0  0  0
   38.4080   32.5430   44.8310 C   0  0  0  0  0  0  0  0  0  0  0  0
   37.8610   32.4610   43.5410 C   0  0  0  0  0  0  0  0  0  0  0  0
   36.8160   33.0510   42.9170 N   0  0  0  0  0  0  0  0  0  0  0  0
   36.7320   32.6080   41.6550 C   0  0  0  0  0  0  0  0  0  0  0  0
   37.7400   31.7260   41.4820 N   0  0  0  0  0  0  0  0  0  0  0  0
   38.4420   31.6240   42.6280 C   0  0  0  0  0  0  0  0  0  0  0  0
   39.5450   30.8690   42.9590 C   0  0  0  0  0  0  0  0  0  0  0  0
   40.9380   30.4060   44.5900 H   0  0  0  0  0  0  0  0  0  0  0  0
   37.8700   33.2370   45.4760 H   0  0  0  0  0  0  0  0  0  0  0  0
   36.1760   33.7580   43.3870 H   0  0  0  0  0  0  0  0  0  0  0  0
   35.9920   32.9140   40.9350 H   0  0  0  0  0  0  0  0  0  0  0  0
   39.2930   28.0340   42.9120 F   0  0  0  0  0  0  0  0  0  0  0  0
   40.0770   28.5910   41.9660 C   0  0  0  0  0  0  0  0  0  0  0  0
   40.1870   29.9660   42.0050 C   0  0  0  0  0  0  0  0  0  0  0  0
   40.9670   30.6700   41.0830 C   0  0  0  0  0  0  0  0  0  0  0  0
   41.1000   31.7330   41.0510 H   0  0  0  0  0  0  0  0  0  0  0  0
   41.6510   29.9630   40.1000 C   0  0  0  0  0  0  0  0  0  0  0  0
   42.2730   30.4450   39.3550 H   0  0  0  0  0  0  0  0  0  0  0  0
   41.5150   28.5900   40.0950 C   0  0  0  0  0  3  0  0  0  0  0  0
   40.7510   27.8710   40.9920 C   0  0  0  0  0  3  0  0  0  0  0  0
  1  2  1  0  0  0  0
  2 11  1  0  0  0  0
  2  3  2  0  0  0  0
  3  7  1  0  0  0  0
  4  3  1  0  0  0  0
  4  8  1  0  0  0  0
  5  4  2  0  0  0  0
  6  1  2  0  0  0  0
  6  5  1  0  0  0  0
  9  5  1  0  0  0  0
 10 15  2  0  0  0  0
 10 11  1  0  0  0  0
 11 12  2  0  0  0  0
 12 13  1  0  0  0  0
 12 18  1  0  0  0  0
 14 17  1  0  0  0  0
 14 13  2  0  0  0  0
 15 14  1  0  0  0  0
 16 10  1  0  0  0  0
 18 21  1  0  0  0  0
 18 20  1  0  0  0  0
 19 18  1  0  0  0  0
 22 23  1  0  0  0  0
 22  1  1  0  0  0  0
 24  6  1  0  0  0  0
 25 34  1  0  0  0  0
 25 26  1  0  0  0  0
 26 24  1  0  0  0  0
 27 26  2  0  0  0  0
 27 35  1  0  0  0  0
 28 27  1  0  0  0  0
 29 36  1  0  0  0  0
 29 28  1  0  0  0  0
 30 29  1  0  0  0  0
 31 30  2  0  0  0  0
 31 32  1  0  0  0  0
 32 33  1  0  0  0  0
 32 28  2  0  0  0  0
 33 25  2  0  0  0  0
 37 30  1  0  0  0  0
 39 40  1  0  0  0  0
 39 38  1  0  0  0  0
 40 33  1  0  0  0  0
 41 40  2  0  0  0  0
 42 41  1  0  0  0  0
 43 41  1  0  0  0  0
 44 43  1  0  0  0  0
 45 43  2  0  0  0  0
 45 46  1  0  0  0  0
 46 39  2  0  0  0  0
M  END
>  <minimizedAffinity>
-7.79625034

>  <minimizedRMSD>
0.96183145

$$$$
