
 OpenBabel03272509213D

 46 50  0  0  0  0  0  0  0  0999 V2000
   38.0050   31.3710   48.1580 C   0  0  0  0  0  0  0  0  0  0  0  0
   37.1890   31.6240   49.2450 C   0  0  0  0  0  0  0  0  0  0  0  0
   37.4250   32.8620   49.8550 C   0  0  0  0  0  0  0  0  0  0  0  0
   38.4020   33.7470   49.3900 C   0  0  0  0  0  0  0  0  0  0  0  0
   39.1790   33.3900   48.2720 C   0  0  0  0  0  0  0  0  0  0  0  0
   38.9670   32.1760   47.6520 C   0  0  0  0  0  0  0  0  0  0  0  0
   36.8050   33.1020   50.7160 H   0  0  0  0  0  0  0  0  0  0  0  0
   38.5270   34.6830   49.9100 H   0  0  0  0  0  0  0  0  0  0  0  0
   39.9210   34.1130   47.9540 H   0  0  0  0  0  0  0  0  0  0  0  0
   34.9790   30.6010   49.0390 C   0  0  0  0  0  0  0  0  0  0  0  0
   36.1920   30.7220   49.7210 C   0  0  0  0  0  0  0  0  0  0  0  0
   36.3800   29.9360   50.8680 C   0  0  0  0  0  0  0  0  0  0  0  0
   35.3850   29.1060   51.2530 N   0  0  0  0  0  0  0  0  0  0  0  0
   34.2130   29.0200   50.5540 C   0  0  0  0  0  0  0  0  0  0  0  0
   34.0300   29.7620   49.4680 N   0  0  0  0  0  0  0  0  0  0  0  0
   34.8370   31.2100   48.1530 H   0  0  0  0  0  0  0  0  0  0  0  0
   33.4940   28.3130   50.9700 H   0  0  0  0  0  0  0  0  0  0  0  0
   37.6500   30.0260   51.6300 C   0  0  0  0  0  0  0  0  0  0  0  0
   38.4910   30.0530   50.8860 H   0  0  0  0  0  0  0  0  0  0  0  0
   37.6620   30.8580   52.3400 H   0  0  0  0  0  0  0  0  0  0  0  0
   37.7640   29.0270   52.1270 H   0  0  0  0  0  0  0  0  0  0  0  0
   37.8570   30.1610   47.4710 O   0  0  0  0  0  0  0  0  0  0  0  0
   38.5020   29.4070   47.6400 H   0  0  0  0  0  0  0  0  0  0  0  0
   39.7650   31.9020   46.5690 O   0  0  0  0  0  0  0  0  0  0  0  0
   39.8090   30.7220   44.3660 C   0  0  0  0  0  0  0  0  0  0  0  0
   39.3600   31.6450   45.2840 C   0  0  0  0  0  0  0  0  0  0  0  0
   38.3130   32.4970   44.9130 C   0  0  0  0  0  0  0  0  0  0  0  0
   37.7430   32.4070   43.6340 C   0  0  0  0  0  0  0  0  0  0  0  0
   36.7510   33.0660   42.9920 N   0  0  0  0  0  0  0  0  0  0  0  0
   36.6060   32.5730   41.7540 C   0  0  0  0  0  0  0  0  0  0  0  0
   37.5200   31.5880   41.6150 N   0  0  0  0  0  0  0  0  0  0  0  0
   38.2250   31.4730   42.7580 C   0  0  0  0  0  0  0  0  0  0  0  0
   39.2540   30.6310   43.1150 C   0  0  0  0  0  0  0  0  0  0  0  0
   40.6190   30.1130   44.7540 H   0  0  0  0  0  0  0  0  0  0  0  0
   37.8560   33.2720   45.5280 H   0  0  0  0  0  0  0  0  0  0  0  0
   36.1900   33.8540   43.4320 H   0  0  0  0  0  0  0  0  0  0  0  0
   35.8880   32.9150   41.0270 H   0  0  0  0  0  0  0  0  0  0  0  0
   40.9360   31.1350   40.8760 F   0  0  0  0  0  0  0  0  0  0  0  0
   40.6070   29.8480   41.1110 C   0  0  0  0  0  0  0  0  0  0  0  0
   39.7910   29.6240   42.2010 C   0  0  0  0  0  0  0  0  0  0  0  0
   39.3740   28.3380   42.5590 C   0  0  0  0  0  0  0  0  0  0  0  0
   38.7430   28.0880   43.3880 H   0  0  0  0  0  0  0  0  0  0  0  0
   39.7950   27.2560   41.7930 C   0  0  0  0  0  0  0  0  0  0  0  0
   39.5100   26.2340   42.0120 H   0  0  0  0  0  0  0  0  0  0  0  0
   40.6100   27.5220   40.7110 C   0  0  0  0  0  3  0  0  0  0  0  0
   41.0350   28.7820   40.3380 C   0  0  0  0  0  3  0  0  0  0  0  0
  1  2  1  0  0  0  0
  2 11  1  0  0  0  0
  2  3  2  0  0  0  0
  3  7  1  0  0  0  0
  4  3  1  0  0  0  0
  4  8  1  0  0  0  0
  5  4  2  0  0  0  0
  6  1  2  0  0  0  0
  6  5  1  0  0  0  0
  9  5  1  0  0  0  0
 10 15  2  0  0  0  0
 10 11  1  0  0  0  0
 11 12  2  0  0  0  0
 12 13  1  0  0  0  0
 12 18  1  0  0  0  0
 14 17  1  0  0  0  0
 14 13  2  0  0  0  0
 15 14  1  0  0  0  0
 16 10  1  0  0  0  0
 18 21  1  0  0  0  0
 18 20  1  0  0  0  0
 19 18  1  0  0  0  0
 22 23  1  0  0  0  0
 22  1  1  0  0  0  0
 24  6  1  0  0  0  0
 25 34  1  0  0  0  0
 25 26  1  0  0  0  0
 26 24  1  0  0  0  0
 27 26  2  0  0  0  0
 27 35  1  0  0  0  0
 28 27  1  0  0  0  0
 29 36  1  0  0  0  0
 29 28  1  0  0  0  0
 30 29  1  0  0  0  0
 31 30  2  0  0  0  0
 31 32  1  0  0  0  0
 32 33  1  0  0  0  0
 32 28  2  0  0  0  0
 33 25  2  0  0  0  0
 37 30  1  0  0  0  0
 38 39  1  0  0  0  0
 39 40  1  0  0  0  0
 40 41  2  0  0  0  0
 40 33  1  0  0  0  0
 41 42  1  0  0  0  0
 43 44  1  0  0  0  0
 43 41  1  0  0  0  0
 45 43  2  0  0  0  0
 46 45  1  0  0  0  0
 46 39  2  0  0  0  0
M  END
>  <minimizedAffinity>
-7.56570816

>  <minimizedRMSD>
1.44635355

$$$$
