
 OpenBabel03272509113D

 28 30  0  0  0  0  0  0  0  0999 V2000
   35.2680   29.9940   45.2810 C   0  0  0  0  0  0  0  0  0  0  0  0
   35.4730   29.8690   46.6930 C   0  0  0  0  0  0  0  0  0  0  0  0
   36.5870   30.5240   47.2330 C   0  0  0  0  0  0  0  0  0  0  0  0
   37.4140   31.2400   46.4100 N   0  0  0  0  0  0  0  0  0  0  0  0
   37.1820   31.3290   45.0850 C   0  0  0  0  0  0  0  0  0  0  0  0
   36.1220   30.7150   44.5260 N   0  0  0  0  0  0  0  0  0  0  0  0
   34.4460   29.5320   44.7720 H   0  0  0  0  0  0  0  0  0  0  0  0
   37.8420   31.8950   44.4420 H   0  0  0  0  0  0  0  0  0  0  0  0
   36.8840   30.4540   48.6470 C   0  0  0  0  0  0  0  0  0  0  0  0
   36.9580   31.6190   49.3590 C   0  0  0  0  0  0  0  0  0  0  0  0
   37.2210   31.6330   50.7150 C   0  0  0  0  0  0  0  0  0  0  0  0
   37.4130   30.3960   51.3330 C   0  0  0  0  0  0  0  0  0  0  0  0
   37.3540   29.1650   50.6660 C   0  0  0  0  0  0  0  0  0  0  0  0
   37.0830   29.2540   49.3050 C   0  0  0  0  0  0  0  0  0  0  0  0
   36.8560   32.6310   49.0230 H   0  0  0  0  0  0  0  0  0  0  0  0
   37.2970   32.4960   51.3540 H   0  0  0  0  0  0  0  0  0  0  0  0
   37.6260   30.2980   52.3940 H   0  0  0  0  0  0  0  0  0  0  0  0
   37.5110   28.2330   51.1860 H   0  0  0  0  0  0  0  0  0  0  0  0
   37.0280   28.3280   48.7500 H   0  0  0  0  0  0  0  0  0  0  0  0
   33.9970   30.5480   49.0280 F   0  0  0  0  0  0  0  0  0  0  0  0
   33.7400   29.3350   48.4780 C   0  0  0  0  0  0  0  0  0  0  0  0
   34.5000   29.0470   47.3370 C   0  0  0  0  0  0  0  0  0  0  0  0
   34.2790   27.8050   46.7240 C   0  0  0  0  0  0  0  0  0  0  0  0
   34.7960   27.4520   45.8350 H   0  0  0  0  0  0  0  0  0  0  0  0
   33.3490   26.8890   47.2190 C   0  0  0  0  0  0  0  0  0  0  0  0
   33.1610   25.9400   46.7750 H   0  0  0  0  0  0  0  0  0  0  0  0
   32.6170   27.2100   48.3510 C   0  0  0  0  0  0  0  0  0  0  0  0
   32.8160   28.4270   48.9710 C   0  0  0  0  0  0  0  0  0  0  0  0
  1  2  1  0  0  0  0
  2  3  2  0  0  0  0
  2 22  1  0  0  0  0
  3  9  1  0  0  0  0
  4  3  1  0  0  0  0
  5  4  2  0  0  0  0
  6  5  1  0  0  0  0
  6  1  2  0  0  0  0
  7  1  1  0  0  0  0
  8  5  1  0  0  0  0
  9 14  2  0  0  0  0
  9 10  1  0  0  0  0
 10 11  2  0  0  0  0
 11 12  1  0  0  0  0
 11 16  1  0  0  0  0
 12 17  1  0  0  0  0
 13 18  1  0  0  0  0
 13 12  2  0  0  0  0
 14 13  1  0  0  0  0
 15 10  1  0  0  0  0
 19 14  1  0  0  0  0
 21 28  1  0  0  0  0
 21 20  1  0  0  0  0
 22 21  2  0  0  0  0
 23 25  2  0  0  0  0
 23 22  1  0  0  0  0
 24 23  1  0  0  0  0
 25 27  1  0  0  0  0
 26 25  1  0  0  0  0
 27 28  2  0  0  0  0
M  END
>  <minimizedAffinity>
-5.00414658

>  <minimizedRMSD>
6.35868788

$$$$
