
 OpenBabel03272509213D

 46 50  0  0  0  0  0  0  0  0999 V2000
   37.9590   31.3080   47.7550 C   0  0  0  0  0  0  0  0  0  0  0  0
   37.0870   31.3160   48.8260 C   0  0  0  0  0  0  0  0  0  0  0  0
   37.2500   32.4120   49.6820 C   0  0  0  0  0  0  0  0  0  0  0  0
   38.2150   33.3970   49.4530 C   0  0  0  0  0  0  0  0  0  0  0  0
   39.0550   33.2920   48.3290 C   0  0  0  0  0  0  0  0  0  0  0  0
   38.9150   32.2220   47.4700 C   0  0  0  0  0  0  0  0  0  0  0  0
   36.5830   32.4590   50.5400 H   0  0  0  0  0  0  0  0  0  0  0  0
   38.2830   34.2130   50.1560 H   0  0  0  0  0  0  0  0  0  0  0  0
   39.7850   34.0830   48.2000 H   0  0  0  0  0  0  0  0  0  0  0  0
   34.9090   30.3210   48.3320 C   0  0  0  0  0  0  0  0  0  0  0  0
   36.1010   30.3120   49.0610 C   0  0  0  0  0  0  0  0  0  0  0  0
   36.2800   29.2960   50.0110 C   0  0  0  0  0  0  0  0  0  0  0  0
   35.2970   28.3820   50.1720 N   0  0  0  0  0  0  0  0  0  0  0  0
   34.1460   28.4300   49.4370 C   0  0  0  0  0  0  0  0  0  0  0  0
   33.9720   29.3900   48.5360 N   0  0  0  0  0  0  0  0  0  0  0  0
   34.7740   31.1090   47.5990 H   0  0  0  0  0  0  0  0  0  0  0  0
   33.4350   27.6340   49.6640 H   0  0  0  0  0  0  0  0  0  0  0  0
   37.5270   29.2390   50.8130 C   0  0  0  0  0  0  0  0  0  0  0  0
   38.3860   29.4470   50.1180 H   0  0  0  0  0  0  0  0  0  0  0  0
   37.5000   29.8930   51.6880 H   0  0  0  0  0  0  0  0  0  0  0  0
   37.6540   28.1570   51.0800 H   0  0  0  0  0  0  0  0  0  0  0  0
   37.8860   30.2560   46.8330 O   0  0  0  0  0  0  0  0  0  0  0  0
   38.5490   29.5000   46.8830 H   0  0  0  0  0  0  0  0  0  0  0  0
   39.7710   32.1910   46.3970 O   0  0  0  0  0  0  0  0  0  0  0  0
   40.1130   31.3740   44.0590 C   0  0  0  0  0  0  0  0  0  0  0  0
   39.4410   32.0130   45.0770 C   0  0  0  0  0  0  0  0  0  0  0  0
   38.2040   32.6020   44.7910 C   0  0  0  0  0  0  0  0  0  0  0  0
   37.6700   32.5400   43.4940 C   0  0  0  0  0  0  0  0  0  0  0  0
   36.5360   32.9950   42.9150 N   0  0  0  0  0  0  0  0  0  0  0  0
   36.5190   32.6530   41.6190 C   0  0  0  0  0  0  0  0  0  0  0  0
   37.6610   31.9720   41.3790 N   0  0  0  0  0  0  0  0  0  0  0  0
   38.3780   31.8930   42.5180 C   0  0  0  0  0  0  0  0  0  0  0  0
   39.5950   31.3100   42.7910 C   0  0  0  0  0  0  0  0  0  0  0  0
   41.0580   30.9530   44.3880 H   0  0  0  0  0  0  0  0  0  0  0  0
   37.5610   33.1380   45.4880 H   0  0  0  0  0  0  0  0  0  0  0  0
   35.7890   33.5400   43.4380 H   0  0  0  0  0  0  0  0  0  0  0  0
   35.7330   32.8900   40.9220 H   0  0  0  0  0  0  0  0  0  0  0  0
   40.1370   32.2660   40.1650 F   0  0  0  0  0  0  0  0  0  0  0  0
   40.6470   31.0590   40.4920 C   0  0  0  0  0  0  0  0  0  0  0  0
   40.3740   30.6130   41.7690 C   0  0  0  0  0  0  0  0  0  0  0  0
   40.8410   29.3810   42.2360 C   0  0  0  0  0  0  0  0  0  0  0  0
   40.6700   28.9700   43.2110 H   0  0  0  0  0  0  0  0  0  0  0  0
   41.6030   28.5850   41.3880 C   0  0  0  0  0  0  0  0  0  0  0  0
   41.9970   27.6200   41.6850 H   0  0  0  0  0  0  0  0  0  0  0  0
   41.8540   29.0660   40.1190 C   0  0  0  0  0  3  0  0  0  0  0  0
   41.4050   30.2770   39.6350 C   0  0  0  0  0  3  0  0  0  0  0  0
  1  2  1  0  0  0  0
  2 11  1  0  0  0  0
  2  3  2  0  0  0  0
  3  7  1  0  0  0  0
  4  3  1  0  0  0  0
  4  8  1  0  0  0  0
  5  4  2  0  0  0  0
  6  1  2  0  0  0  0
  6  5  1  0  0  0  0
  9  5  1  0  0  0  0
 10 15  2  0  0  0  0
 10 11  1  0  0  0  0
 11 12  2  0  0  0  0
 12 13  1  0  0  0  0
 12 18  1  0  0  0  0
 14 17  1  0  0  0  0
 14 13  2  0  0  0  0
 15 14  1  0  0  0  0
 16 10  1  0  0  0  0
 18 21  1  0  0  0  0
 18 20  1  0  0  0  0
 19 18  1  0  0  0  0
 22 23  1  0  0  0  0
 22  1  1  0  0  0  0
 24  6  1  0  0  0  0
 25 34  1  0  0  0  0
 25 26  1  0  0  0  0
 26 24  1  0  0  0  0
 27 26  2  0  0  0  0
 27 35  1  0  0  0  0
 28 27  1  0  0  0  0
 29 36  1  0  0  0  0
 29 28  1  0  0  0  0
 30 29  1  0  0  0  0
 31 30  2  0  0  0  0
 31 32  1  0  0  0  0
 32 33  1  0  0  0  0
 32 28  2  0  0  0  0
 33 25  2  0  0  0  0
 37 30  1  0  0  0  0
 38 39  1  0  0  0  0
 39 40  1  0  0  0  0
 40 41  2  0  0  0  0
 40 33  1  0  0  0  0
 41 42  1  0  0  0  0
 43 44  1  0  0  0  0
 43 41  1  0  0  0  0
 45 43  2  0  0  0  0
 46 45  1  0  0  0  0
 46 39  2  0  0  0  0
M  END
>  <minimizedAffinity>
-7.74175882

>  <minimizedRMSD>
0.720534265

$$$$
