
 OpenBabel03272501223D

 40 43  0  0  0  0  0  0  0  0999 V2000
   38.3430   32.2380   47.4180 C   0  0  0  0  0  0  0  0  0  0  0  0
   38.1510   32.1060   48.7890 C   0  0  0  0  0  0  0  0  0  0  0  0
   38.8470   33.0320   49.5530 C   0  0  0  0  0  0  0  0  0  0  0  0
   39.6620   34.0020   48.9680 C   0  0  0  0  0  0  0  0  0  0  0  0
   39.7990   34.0660   47.5950 C   0  0  0  0  0  0  0  0  0  0  0  0
   39.1270   33.1660   46.8070 C   0  0  0  0  0  0  0  0  0  0  0  0
   38.7780   33.0300   50.6370 H   0  0  0  0  0  0  0  0  0  0  0  0
   40.2060   34.7240   49.5690 H   0  0  0  0  0  0  0  0  0  0  0  0
   40.4220   34.8020   47.1030 H   0  0  0  0  0  0  0  0  0  0  0  0
   35.9230   31.2200   49.3220 C   0  0  0  0  0  0  0  0  0  0  0  0
   37.3170   31.1140   49.3740 C   0  0  0  0  0  0  0  0  0  0  0  0
   37.8680   29.9850   50.0270 C   0  0  0  0  0  0  0  0  0  0  0  0
   36.9940   29.0760   50.5630 N   0  0  0  0  0  0  0  0  0  0  0  0
   35.6580   29.2250   50.4860 C   0  0  0  0  0  0  0  0  0  0  0  0
   35.1230   30.2890   49.8700 N   0  0  0  0  0  0  0  0  0  0  0  0
   35.5220   32.0720   48.8290 H   0  0  0  0  0  0  0  0  0  0  0  0
   38.9390   29.8830   50.0790 H   0  0  0  0  0  0  0  0  0  0  0  0
   34.9670   28.5210   50.9020 H   0  0  0  0  0  0  0  0  0  0  0  0
   37.6770   31.3410   46.5550 O   0  0  0  0  0  0  0  0  0  0  0  0
   36.9740   30.7120   46.8920 H   0  0  0  0  0  0  0  0  0  0  0  0
   39.2730   33.2400   45.4190 O   0  0  0  0  0  0  0  0  0  0  0  0
   37.0220   32.5680   43.5260 Cl  0  0  0  0  0  0  0  0  0  0  0  0
   38.5160   31.6810   43.6360 C   0  0  0  0  0  0  0  0  0  0  0  0
   39.4280   32.1690   44.5890 C   0  0  0  0  0  0  0  0  0  0  0  0
   40.6190   31.4920   44.7020 C   0  0  0  0  0  0  0  0  0  0  0  0
   40.9500   30.3880   43.9460 C   0  0  0  0  0  0  0  0  0  0  0  0
   40.0520   29.9160   43.0160 C   0  0  0  0  0  0  0  0  0  0  0  0
   38.8530   30.5700   42.8790 C   0  0  0  0  0  0  0  0  0  0  0  0
   41.3990   31.7800   45.4060 H   0  0  0  0  0  0  0  0  0  0  0  0
   41.8740   29.8380   44.0140 H   0  0  0  0  0  0  0  0  0  0  0  0
   40.1740   29.0580   42.3500 H   0  0  0  0  0  0  0  0  0  0  0  0
   36.7190   28.8590   43.4660 F   0  0  0  0  0  0  0  0  0  0  0  0
   36.7560   29.3300   42.1960 C   0  0  0  0  0  0  0  0  0  0  0  0
   37.8180   30.1710   41.9310 C   0  0  0  0  0  0  0  0  0  0  0  0
   37.9700   30.7160   40.6720 C   0  0  0  0  0  0  0  0  0  0  0  0
   38.7950   31.3940   40.4030 H   0  0  0  0  0  0  0  0  0  0  0  0
   37.0680   30.4310   39.6680 C   0  0  0  0  0  0  0  0  0  0  0  0
   37.0990   30.8040   38.6560 H   0  0  0  0  0  0  0  0  0  0  0  0
   36.0120   29.5890   39.9430 C   0  0  0  0  0  0  0  0  0  0  0  0
   35.8320   29.0200   41.2090 C   0  0  0  0  0  0  0  0  0  0  0  0
  1  2  1  0  0  0  0
  2 11  1  0  0  0  0
  2  3  2  0  0  0  0
  3  7  1  0  0  0  0
  4  3  1  0  0  0  0
  4  8  1  0  0  0  0
  5  4  2  0  0  0  0
  6  1  2  0  0  0  0
  6  5  1  0  0  0  0
  9  5  1  0  0  0  0
 10 11  2  0  0  0  0
 10 15  1  0  0  0  0
 11 12  1  0  0  0  0
 12 17  1  0  0  0  0
 12 13  2  0  0  0  0
 14 13  1  0  0  0  0
 14 18  1  0  0  0  0
 15 14  2  0  0  0  0
 16 10  1  0  0  0  0
 19 20  1  0  0  0  0
 19  1  1  0  0  0  0
 21  6  1  0  0  0  0
 22 23  1  0  0  0  0
 23 24  1  0  0  0  0
 24 25  2  0  0  0  0
 24 21  1  0  0  0  0
 25 29  1  0  0  0  0
 26 30  1  0  0  0  0
 26 25  1  0  0  0  0
 27 26  2  0  0  0  0
 28 27  1  0  0  0  0
 28 23  2  0  0  0  0
 31 27  1  0  0  0  0
 33 32  1  0  0  0  0
 34 33  1  0  0  0  0
 34 28  1  0  0  0  0
 35 34  2  0  0  0  0
 36 35  1  0  0  0  0
 37 39  2  0  0  0  0
 37 35  1  0  0  0  0
 38 37  1  0  0  0  0
 39 40  1  0  0  0  0
 40 33  2  0  0  0  0
M  END
>  <minimizedAffinity>
-5.56496

>  <minimizedRMSD>
0.135983959

$$$$
