
 OpenBabel03272505003D

 28 30  0  0  0  0  0  0  0  0999 V2000
   37.5810   30.4180   46.7210 Cl  0  0  0  0  0  0  0  0  0  0  0  0
   38.3020   31.7750   47.5580 C   0  0  0  0  0  0  0  0  0  0  0  0
   38.0420   31.9430   48.8800 C   0  0  0  0  0  0  0  0  0  0  0  0
   38.6480   33.0470   49.4910 C   0  0  0  0  0  0  0  0  0  0  0  0
   39.4610   33.8940   48.7420 C   0  0  0  0  0  0  0  0  0  0  0  0
   39.6980   33.6900   47.4100 C   0  0  0  0  0  0  0  0  0  0  0  0
   39.1020   32.6040   46.8120 C   0  0  0  0  0  0  0  0  0  0  0  0
   38.5050   33.2710   50.5420 H   0  0  0  0  0  0  0  0  0  0  0  0
   39.9410   34.7580   49.2020 H   0  0  0  0  0  0  0  0  0  0  0  0
   40.3350   34.3570   46.8310 H   0  0  0  0  0  0  0  0  0  0  0  0
   37.6910   30.3690   50.7850 C   0  0  0  0  0  0  0  0  0  0  0  0
   37.1910   31.0620   49.6740 C   0  0  0  0  0  0  0  0  0  0  0  0
   35.8530   30.8810   49.3520 C   0  0  0  0  0  0  0  0  0  0  0  0
   35.0980   30.0500   50.1210 N   0  0  0  0  0  0  0  0  0  0  0  0
   35.6050   29.4040   51.1750 C   0  0  0  0  0  0  0  0  0  0  0  0
   36.9140   29.5570   51.5210 N   0  0  0  0  0  0  0  0  0  0  0  0
   38.7300   30.5140   51.0290 H   0  0  0  0  0  0  0  0  0  0  0  0
   35.4880   31.4300   48.4840 H   0  0  0  0  0  0  0  0  0  0  0  0
   34.9210   28.7660   51.7220 H   0  0  0  0  0  0  0  0  0  0  0  0
   41.0910   30.8450   46.1830 F   0  0  0  0  0  0  0  0  0  0  0  0
   40.3710   31.4450   45.1910 C   0  0  0  0  0  0  0  0  0  0  0  0
   39.3340   32.3570   45.3870 C   0  0  0  0  0  0  0  0  0  0  0  0
   38.6720   32.9010   44.3180 C   0  0  0  0  0  0  0  0  0  0  0  0
   37.8930   33.5920   44.6060 H   0  0  0  0  0  0  0  0  0  0  0  0
   39.0150   32.5610   43.0300 C   0  0  0  0  0  0  0  0  0  0  0  0
   38.4620   33.0200   42.2190 H   0  0  0  0  0  0  0  0  0  0  0  0
   40.0390   31.6610   42.8560 C   0  0  0  0  0  0  0  0  0  0  0  0
   40.7360   31.0850   43.9030 C   0  0  0  0  0  0  0  0  0  0  0  0
  1  2  1  0  0  0  0
  2  3  1  0  0  0  0
  3  4  2  0  0  0  0
  3 12  1  0  0  0  0
  4  8  1  0  0  0  0
  5  9  1  0  0  0  0
  5  4  1  0  0  0  0
  6  5  2  0  0  0  0
  7  6  1  0  0  0  0
  7  2  2  0  0  0  0
 10  6  1  0  0  0  0
 11 17  1  0  0  0  0
 11 16  1  0  0  0  0
 12 11  2  0  0  0  0
 13 12  1  0  0  0  0
 13 14  2  0  0  0  0
 14 15  1  0  0  0  0
 15 16  2  0  0  0  0
 15 19  1  0  0  0  0
 18 13  1  0  0  0  0
 21 22  1  0  0  0  0
 21 20  1  0  0  0  0
 22  7  1  0  0  0  0
 23 24  1  0  0  0  0
 23 22  2  0  0  0  0
 25 23  1  0  0  0  0
 26 25  1  0  0  0  0
 27 25  2  0  0  0  0
 27 28  1  0  0  0  0
 28 21  2  0  0  0  0
M  END
>  <minimizedAffinity>
-6.73949051

>  <minimizedRMSD>
0.818288147

$$$$
