
 OpenBabel03272508373D

 44 47  0  0  1  0  0  0  0  0999 V2000
   38.9950   31.9300   43.6220 C   0  0  0  0  0  0  0  0  0  0  0  0
   39.0830   30.8490   43.9460 H   0  0  0  0  0  0  0  0  0  0  0  0
   40.0600   32.2000   43.4020 H   0  0  0  0  0  0  0  0  0  0  0  0
   38.3150   31.9150   42.3900 N   0  0  0  0  0  0  0  0  0  0  0  0
   38.9430   31.2240   41.3380 C   0  0  0  0  0  0  0  0  0  0  0  0
   39.3080   32.0310   40.1520 C   0  0  0  0  0  0  0  0  0  0  0  0
   38.3620   33.0060   39.8270 O   0  0  0  0  0  0  0  0  0  0  0  0
   38.0830   33.8030   40.8870 C   0  0  0  0  0  0  0  0  0  0  0  0
   37.5400   33.0150   42.0400 C   0  0  1  0  0  0  0  0  0  0  0  0
   39.7030   30.4680   41.5650 H   0  0  0  0  0  0  0  0  0  0  0  0
   38.1190   30.5380   41.0210 H   0  0  0  0  0  0  0  0  0  0  0  0
   40.3410   32.2390   39.9250 H   0  0  0  0  0  0  0  0  0  0  0  0
   39.1180   31.3250   39.2530 H   0  0  0  0  0  0  0  0  0  0  0  0
   38.7880   34.6010   41.1240 H   0  0  0  0  0  0  0  0  0  0  0  0
   37.2040   34.4080   40.5420 H   0  0  0  0  0  0  0  0  0  0  0  0
   37.7170   33.7600   42.9220 H   0  0  0  0  0  0  0  0  0  0  0  0
   35.5980   35.1630   41.6570 F   0  0  0  0  0  0  0  0  0  0  0  0
   35.1740   33.8960   41.8350 C   0  0  0  0  0  0  0  0  0  0  0  0
   36.0770   32.9010   42.0330 C   0  0  0  0  0  0  0  0  0  0  0  0
   35.4110   31.6800   42.2200 C   0  0  0  0  0  0  0  0  0  0  0  0
   36.0030   30.7680   42.3950 H   0  0  0  0  0  0  0  0  0  0  0  0
   34.0530   31.4530   42.2150 C   0  0  0  0  0  0  0  0  0  0  0  0
   33.6350   30.4720   42.3690 H   0  0  0  0  0  0  0  0  0  0  0  0
   33.2380   32.5430   42.0030 C   0  0  0  0  0  3  0  0  0  0  0  0
   33.8010   33.7790   41.8100 C   0  0  0  0  0  3  0  0  0  0  0  0
   38.4450   32.6790   44.7320 C   0  0  0  0  0  0  0  0  0  0  0  0
   39.3380   33.0970   45.3110 H   0  0  0  0  0  0  0  0  0  0  0  0
   37.8040   33.5340   44.6460 H   0  0  0  0  0  0  0  0  0  0  0  0
   37.1330   30.8570   47.5320 C   0  0  0  0  0  0  0  0  0  0  0  0
   36.4080   30.2920   46.5000 C   0  0  0  0  0  0  0  0  0  0  0  0
   36.8190   30.9120   45.3240 C   0  0  0  0  0  0  0  0  0  0  0  0
   37.7470   31.8000   45.6710 N   0  0  0  0  0  0  0  0  0  0  0  0
   37.9330   31.7640   46.9980 N   0  0  0  0  0  0  0  0  0  0  0  0
   35.6460   29.4960   46.6090 H   0  0  0  0  0  0  0  0  0  0  0  0
   36.3710   30.6000   44.4560 H   0  0  0  0  0  0  0  0  0  0  0  0
   37.6050   30.3300   51.2220 C   0  0  0  0  0  0  0  0  0  0  0  0
   37.8600   30.7630   49.9300 C   0  0  0  0  0  0  0  0  0  0  0  0
   36.9740   30.4600   48.9070 C   0  0  0  0  0  0  0  0  0  0  0  0
   35.8840   29.7310   49.2800 N   0  0  0  0  0  0  0  0  0  0  0  0
   35.6440   29.3130   50.5390 C   0  0  0  0  0  0  0  0  0  0  0  0
   36.5100   29.6180   51.5000 N   0  0  0  0  0  0  0  0  0  0  0  0
   38.3670   30.6290   51.9330 H   0  0  0  0  0  0  0  0  0  0  0  0
   38.7250   31.3420   49.6370 H   0  0  0  0  0  0  0  0  0  0  0  0
   34.7450   28.7380   50.7280 H   0  0  0  0  0  0  0  0  0  0  0  0
  1  2  1  0  0  0  0
  1 26  1  0  0  0  0
  3  1  1  0  0  0  0
  4  1  1  0  0  0  0
  5 10  1  0  0  0  0
  5  4  1  0  0  0  0
  6  5  1  0  0  0  0
  7  6  1  0  0  0  0
  7  8  1  0  0  0  0
  8 14  1  0  0  0  0
  8  9  1  0  0  0  0
  9  4  1  0  0  0  0
  9 16  1  1  0  0  0
 11  5  1  0  0  0  0
 12  6  1  0  0  0  0
 13  6  1  0  0  0  0
 15  8  1  0  0  0  0
 17 18  1  0  0  0  0
 18 19  1  0  0  0  0
 19  9  1  0  0  0  0
 19 20  2  0  0  0  0
 20 21  1  0  0  0  0
 22 20  1  0  0  0  0
 22 23  1  0  0  0  0
 24 22  2  0  0  0  0
 25 18  2  0  0  0  0
 25 24  1  0  0  0  0
 26 27  1  0  0  0  0
 26 32  1  0  0  0  0
 28 26  1  0  0  0  0
 29 38  1  0  0  0  0
 30 34  1  0  0  0  0
 30 29  1  0  0  0  0
 31 32  1  0  0  0  0
 31 30  2  0  0  0  0
 32 33  1  0  0  0  0
 33 29  2  0  0  0  0
 35 31  1  0  0  0  0
 36 41  1  0  0  0  0
 36 42  1  0  0  0  0
 37 36  2  0  0  0  0
 38 39  2  0  0  0  0
 38 37  1  0  0  0  0
 39 40  1  0  0  0  0
 40 44  1  0  0  0  0
 40 41  2  0  0  0  0
 43 37  1  0  0  0  0
M  END
>  <minimizedAffinity>
-5.02047873

>  <minimizedRMSD>
4.72257042

$$$$
