
 OpenBabel03272506283D

 42 45  0  0  0  0  0  0  0  0999 V2000
   35.0870   29.9630   33.0000 C   0  0  0  0  0  0  0  0  0  0  0  0
   34.8620   30.7980   31.9170 C   0  0  0  0  0  0  0  0  0  0  0  0
   35.6210   30.8000   30.7530 C   0  0  0  0  0  0  0  0  0  0  0  0
   36.6950   29.8900   30.6620 C   0  0  0  0  0  0  0  0  0  0  0  0
   36.9070   29.0650   31.7490 C   0  0  0  0  0  0  0  0  0  0  0  0
   36.1530   29.0750   32.8840 C   0  0  0  0  0  0  0  0  0  0  0  0
   34.0310   31.5220   31.9550 H   0  0  0  0  0  0  0  0  0  0  0  0
   35.3490   31.5050   29.9680 H   0  0  0  0  0  0  0  0  0  0  0  0
   37.2100   29.9770   29.7260 H   0  0  0  0  0  0  0  0  0  0  0  0
   37.7490   28.4770   31.4870 H   0  0  0  0  0  0  0  0  0  0  0  0
   32.9800   29.4190   34.0460 C   0  0  0  0  0  0  0  0  0  0  0  0
   34.2010   30.1070   34.1190 C   0  0  0  0  0  0  0  0  0  0  0  0
   34.4590   30.8710   35.2620 C   0  0  0  0  0  0  0  0  0  0  0  0
   33.5240   30.9150   36.2450 N   0  0  0  0  0  0  0  0  0  0  0  0
   32.3440   30.2390   36.1540 C   0  0  0  0  0  0  0  0  0  0  0  0
   32.0770   29.4900   35.0470 N   0  0  0  0  0  0  0  0  0  0  0  0
   32.7410   28.8240   33.1940 H   0  0  0  0  0  0  0  0  0  0  0  0
   31.6570   30.3270   36.9760 H   0  0  0  0  0  0  0  0  0  0  0  0
   35.7080   31.6530   35.4760 C   0  0  0  0  0  0  0  0  0  0  0  0
   36.7250   30.7930   35.9380 F   0  0  0  0  0  0  0  0  0  0  0  0
   36.1720   32.3300   34.4070 F   0  0  0  0  0  0  0  0  0  0  0  0
   35.5290   32.5430   36.5350 F   0  0  0  0  0  0  0  0  0  0  0  0
   36.4340   28.0160   34.2540 S   0  0  0  0  0  0  0  0  0  0  0  0
   38.3230   26.5770   36.2570 Cl  0  0  0  0  0  0  0  0  0  0  0  0
   37.8860   25.8140   34.7590 C   0  0  0  0  0  0  0  0  0  0  0  0
   37.0580   26.4170   33.8080 C   0  0  0  0  0  0  0  0  0  0  0  0
   36.7520   25.7750   32.6410 C   0  0  0  0  0  0  0  0  0  0  0  0
   37.2630   24.5210   32.4090 C   0  0  0  0  0  0  0  0  0  0  0  0
   38.0910   23.9040   33.3490 C   0  0  0  0  0  0  0  0  0  0  0  0
   38.4150   24.5420   34.5350 C   0  0  0  0  0  0  0  0  0  0  0  0
   36.1690   26.1640   31.8500 H   0  0  0  0  0  0  0  0  0  0  0  0
   37.0910   23.9260   31.5380 H   0  0  0  0  0  0  0  0  0  0  0  0
   38.5130   22.9140   33.1970 H   0  0  0  0  0  0  0  0  0  0  0  0
   37.5960   23.2520   36.9370 F   0  0  0  0  0  0  0  0  0  0  0  0
   38.9270   23.2610   36.6910 C   0  0  0  0  0  0  0  0  0  0  0  0
   39.2840   23.8960   35.5190 C   0  0  0  0  0  0  0  0  0  0  0  0
   40.6320   23.9570   35.1760 C   0  0  0  0  0  0  0  0  0  0  0  0
   41.0210   24.4390   34.2640 H   0  0  0  0  0  0  0  0  0  0  0  0
   41.6130   23.4060   35.9720 C   0  0  0  0  0  0  0  0  0  0  0  0
   42.6620   23.4460   35.7200 H   0  0  0  0  0  0  0  0  0  0  0  0
   41.2420   22.7670   37.1550 C   0  0  0  0  0  3  0  0  0  0  0  0
   39.9020   22.7090   37.4900 C   0  0  0  0  0  3  0  0  0  0  0  0
  1 12  1  0  0  0  0
  2  7  1  0  0  0  0
  2  1  2  0  0  0  0
  3  2  1  0  0  0  0
  4  3  2  0  0  0  0
  4  5  1  0  0  0  0
  5  6  2  0  0  0  0
  6  1  1  0  0  0  0
  6 23  1  0  0  0  0
  8  3  1  0  0  0  0
  9  4  1  0  0  0  0
 10  5  1  0  0  0  0
 11 12  2  0  0  0  0
 11 16  1  0  0  0  0
 12 13  1  0  0  0  0
 13 19  1  0  0  0  0
 13 14  2  0  0  0  0
 15 14  1  0  0  0  0
 15 18  1  0  0  0  0
 16 15  2  0  0  0  0
 17 11  1  0  0  0  0
 19 20  1  0  0  0  0
 19 22  1  0  0  0  0
 21 19  1  0  0  0  0
 25 24  1  0  0  0  0
 26 23  1  0  0  0  0
 26 25  2  0  0  0  0
 27 26  1  0  0  0  0
 28 27  2  0  0  0  0
 28 29  1  0  0  0  0
 29 30  2  0  0  0  0
 30 25  1  0  0  0  0
 30 36  1  0  0  0  0
 31 27  1  0  0  0  0
 32 28  1  0  0  0  0
 33 29  1  0  0  0  0
 35 34  1  0  0  0  0
 35 42  1  0  0  0  0
 36 35  2  0  0  0  0
 37 36  1  0  0  0  0
 37 39  2  0  0  0  0
 38 37  1  0  0  0  0
 39 41  1  0  0  0  0
 40 39  1  0  0  0  0
 41 42  2  0  0  0  0
M  END
>  <minimizedAffinity>
-6.81586409

$$$$

 OpenBabel03272506283D

 42 45  0  0  0  0  0  0  0  0999 V2000
   38.0470   23.9000   32.8300 C   0  0  0  0  0  0  0  0  0  0  0  0
   37.4420   22.6780   32.5870 C   0  0  0  0  0  0  0  0  0  0  0  0
   36.2280   22.5160   31.9290 C   0  0  0  0  0  0  0  0  0  0  0  0
   35.5640   23.6750   31.4740 C   0  0  0  0  0  0  0  0  0  0  0  0
   36.1790   24.8850   31.7230 C   0  0  0  0  0  0  0  0  0  0  0  0
   37.3700   25.0270   32.3710 C   0  0  0  0  0  0  0  0  0  0  0  0
   37.9340   21.7520   32.9300 H   0  0  0  0  0  0  0  0  0  0  0  0
   35.8510   21.5040   31.7960 H   0  0  0  0  0  0  0  0  0  0  0  0
   34.6420   23.4350   30.9830 H   0  0  0  0  0  0  0  0  0  0  0  0
   35.5250   25.6150   31.3180 H   0  0  0  0  0  0  0  0  0  0  0  0
   40.4570   23.7790   32.7410 C   0  0  0  0  0  0  0  0  0  0  0  0
   39.2990   23.8710   33.5290 C   0  0  0  0  0  0  0  0  0  0  0  0
   39.4520   23.9260   34.9190 C   0  0  0  0  0  0  0  0  0  0  0  0
   40.7040   23.8890   35.4410 N   0  0  0  0  0  0  0  0  0  0  0  0
   41.8150   23.7990   34.6570 C   0  0  0  0  0  0  0  0  0  0  0  0
   41.6840   23.7450   33.3020 N   0  0  0  0  0  0  0  0  0  0  0  0
   40.3880   23.7350   31.6770 H   0  0  0  0  0  0  0  0  0  0  0  0
   42.7710   23.7740   35.1500 H   0  0  0  0  0  0  0  0  0  0  0  0
   38.3170   24.0230   35.8770 C   0  0  0  0  0  0  0  0  0  0  0  0
   38.8190   24.0830   37.1920 F   0  0  0  0  0  0  0  0  0  0  0  0
   37.4740   25.0580   35.6930 F   0  0  0  0  0  0  0  0  0  0  0  0
   37.5870   22.8340   35.8610 F   0  0  0  0  0  0  0  0  0  0  0  0
   38.1400   26.5740   32.6760 S   0  0  0  0  0  0  0  0  0  0  0  0
   36.6930   27.9650   35.0480 Cl  0  0  0  0  0  0  0  0  0  0  0  0
   36.5020   28.5650   33.4280 C   0  0  0  0  0  0  0  0  0  0  0  0
   37.1090   27.9710   32.3190 C   0  0  0  0  0  0  0  0  0  0  0  0
   36.9180   28.4790   31.0640 C   0  0  0  0  0  0  0  0  0  0  0  0
   36.1250   29.5890   30.9010 C   0  0  0  0  0  0  0  0  0  0  0  0
   35.5120   30.1950   32.0000 C   0  0  0  0  0  0  0  0  0  0  0  0
   35.6910   29.6900   33.2780 C   0  0  0  0  0  0  0  0  0  0  0  0
   37.3020   28.0790   30.1640 H   0  0  0  0  0  0  0  0  0  0  0  0
   35.9070   30.0730   29.9730 H   0  0  0  0  0  0  0  0  0  0  0  0
   34.8780   31.0720   31.9070 H   0  0  0  0  0  0  0  0  0  0  0  0
   33.0380   29.2360   34.2020 F   0  0  0  0  0  0  0  0  0  0  0  0
   33.7680   30.1300   34.9080 C   0  0  0  0  0  0  0  0  0  0  0  0
   35.0480   30.3240   34.4290 C   0  0  0  0  0  0  0  0  0  0  0  0
   35.8790   31.2260   35.0880 C   0  0  0  0  0  0  0  0  0  0  0  0
   36.9150   31.4520   34.7870 H   0  0  0  0  0  0  0  0  0  0  0  0
   35.4600   31.9280   36.1980 C   0  0  0  0  0  0  0  0  0  0  0  0
   36.0920   32.6300   36.7190 H   0  0  0  0  0  0  0  0  0  0  0  0
   34.1650   31.7250   36.6750 C   0  0  0  0  0  3  0  0  0  0  0  0
   33.3440   30.8280   36.0160 C   0  0  0  0  0  3  0  0  0  0  0  0
  1 12  1  0  0  0  0
  2  1  1  0  0  0  0
  2  7  1  0  0  0  0
  3  2  2  0  0  0  0
  4  5  2  0  0  0  0
  4  3  1  0  0  0  0
  5  6  1  0  0  0  0
  6 23  1  0  0  0  0
  6  1  2  0  0  0  0
  8  3  1  0  0  0  0
  9  4  1  0  0  0  0
 10  5  1  0  0  0  0
 11 16  2  0  0  0  0
 11 12  1  0  0  0  0
 12 13  2  0  0  0  0
 13 14  1  0  0  0  0
 13 19  1  0  0  0  0
 15 18  1  0  0  0  0
 15 14  2  0  0  0  0
 16 15  1  0  0  0  0
 17 11  1  0  0  0  0
 19 20  1  0  0  0  0
 21 19  1  0  0  0  0
 22 19  1  0  0  0  0
 25 24  1  0  0  0  0
 26 23  1  0  0  0  0
 26 25  2  0  0  0  0
 27 26  1  0  0  0  0
 28 27  2  0  0  0  0
 28 29  1  0  0  0  0
 29 30  2  0  0  0  0
 30 25  1  0  0  0  0
 30 36  1  0  0  0  0
 31 27  1  0  0  0  0
 32 28  1  0  0  0  0
 33 29  1  0  0  0  0
 34 35  1  0  0  0  0
 35 42  1  0  0  0  0
 36 35  2  0  0  0  0
 36 37  1  0  0  0  0
 37 39  2  0  0  0  0
 38 37  1  0  0  0  0
 39 41  1  0  0  0  0
 39 40  1  0  0  0  0
 42 41  2  0  0  0  0
M  END
>  <minimizedAffinity>
-6.67607546

$$$$

 OpenBabel03272506283D

 42 45  0  0  0  0  0  0  0  0999 V2000
   37.6880   24.8260   32.1250 C   0  0  0  0  0  0  0  0  0  0  0  0
   37.1000   23.6060   31.8310 C   0  0  0  0  0  0  0  0  0  0  0  0
   35.8180   23.4540   31.3170 C   0  0  0  0  0  0  0  0  0  0  0  0
   35.0600   24.6180   31.0750 C   0  0  0  0  0  0  0  0  0  0  0  0
   35.6590   25.8260   31.3730 C   0  0  0  0  0  0  0  0  0  0  0  0
   36.9180   25.9590   31.8780 C   0  0  0  0  0  0  0  0  0  0  0  0
   37.6650   22.6760   32.0090 H   0  0  0  0  0  0  0  0  0  0  0  0
   35.4620   22.4420   31.1250 H   0  0  0  0  0  0  0  0  0  0  0  0
   34.0910   24.3850   30.6800 H   0  0  0  0  0  0  0  0  0  0  0  0
   34.9330   26.5600   31.1330 H   0  0  0  0  0  0  0  0  0  0  0  0
   40.0690   24.8620   31.7240 C   0  0  0  0  0  0  0  0  0  0  0  0
   39.0210   24.7870   32.6540 C   0  0  0  0  0  0  0  0  0  0  0  0
   39.3500   24.6820   34.0100 C   0  0  0  0  0  0  0  0  0  0  0  0
   40.6600   24.6560   34.3650 N   0  0  0  0  0  0  0  0  0  0  0  0
   41.6630   24.7290   33.4440 C   0  0  0  0  0  0  0  0  0  0  0  0
   41.3590   24.8330   32.1200 N   0  0  0  0  0  0  0  0  0  0  0  0
   39.8640   24.9440   30.6800 H   0  0  0  0  0  0  0  0  0  0  0  0
   42.6750   24.7020   33.8090 H   0  0  0  0  0  0  0  0  0  0  0  0
   38.3470   24.5930   35.1050 C   0  0  0  0  0  0  0  0  0  0  0  0
   39.0090   24.6140   36.3500 F   0  0  0  0  0  0  0  0  0  0  0  0
   37.3930   25.5440   35.1120 F   0  0  0  0  0  0  0  0  0  0  0  0
   37.7370   23.3380   35.0820 F   0  0  0  0  0  0  0  0  0  0  0  0
   37.6660   27.5020   32.2470 S   0  0  0  0  0  0  0  0  0  0  0  0
   36.5190   28.5540   34.9360 Cl  0  0  0  0  0  0  0  0  0  0  0  0
   36.0790   29.3130   33.4370 C   0  0  0  0  0  0  0  0  0  0  0  0
   36.5430   28.8740   32.1940 C   0  0  0  0  0  0  0  0  0  0  0  0
   36.1580   29.5030   31.0440 C   0  0  0  0  0  0  0  0  0  0  0  0
   35.3100   30.5800   31.1170 C   0  0  0  0  0  0  0  0  0  0  0  0
   34.8360   31.0320   32.3510 C   0  0  0  0  0  0  0  0  0  0  0  0
   35.2140   30.4040   33.5270 C   0  0  0  0  0  0  0  0  0  0  0  0
   36.4250   29.2220   30.0600 H   0  0  0  0  0  0  0  0  0  0  0  0
   34.9440   31.1490   30.2880 H   0  0  0  0  0  0  0  0  0  0  0  0
   34.1640   31.8800   32.4460 H   0  0  0  0  0  0  0  0  0  0  0  0
   36.6170   32.0310   35.3940 F   0  0  0  0  0  0  0  0  0  0  0  0
   35.3630   31.6640   35.7490 C   0  0  0  0  0  0  0  0  0  0  0  0
   34.7170   30.8770   34.8190 C   0  0  0  0  0  0  0  0  0  0  0  0
   33.4210   30.4480   35.0920 C   0  0  0  0  0  0  0  0  0  0  0  0
   32.8180   29.8170   34.4180 H   0  0  0  0  0  0  0  0  0  0  0  0
   32.7710   30.7860   36.2610 C   0  0  0  0  0  0  0  0  0  0  0  0
   31.7670   30.4610   36.4870 H   0  0  0  0  0  0  0  0  0  0  0  0
   33.4330   31.5830   37.1950 C   0  0  0  0  0  3  0  0  0  0  0  0
   34.7200   32.0060   36.9180 C   0  0  0  0  0  3  0  0  0  0  0  0
  1 12  1  0  0  0  0
  2  7  1  0  0  0  0
  2  1  2  0  0  0  0
  3  2  1  0  0  0  0
  4  3  2  0  0  0  0
  4  5  1  0  0  0  0
  5  6  2  0  0  0  0
  6  1  1  0  0  0  0
  6 23  1  0  0  0  0
  8  3  1  0  0  0  0
  9  4  1  0  0  0  0
 10  5  1  0  0  0  0
 11 16  2  0  0  0  0
 11 12  1  0  0  0  0
 12 13  2  0  0  0  0
 13 14  1  0  0  0  0
 13 19  1  0  0  0  0
 15 18  1  0  0  0  0
 15 14  2  0  0  0  0
 16 15  1  0  0  0  0
 17 11  1  0  0  0  0
 19 21  1  0  0  0  0
 19 20  1  0  0  0  0
 22 19  1  0  0  0  0
 25 30  1  0  0  0  0
 25 24  1  0  0  0  0
 26 23  1  0  0  0  0
 26 25  2  0  0  0  0
 27 28  2  0  0  0  0
 27 26  1  0  0  0  0
 28 29  1  0  0  0  0
 29 33  1  0  0  0  0
 29 30  2  0  0  0  0
 30 36  1  0  0  0  0
 31 27  1  0  0  0  0
 32 28  1  0  0  0  0
 34 35  1  0  0  0  0
 35 42  1  0  0  0  0
 36 37  1  0  0  0  0
 36 35  2  0  0  0  0
 37 39  2  0  0  0  0
 38 37  1  0  0  0  0
 39 40  1  0  0  0  0
 39 41  1  0  0  0  0
 42 41  2  0  0  0  0
M  END
>  <minimizedAffinity>
-6.59199667

$$$$

 OpenBabel03272506283D

 42 45  0  0  0  0  0  0  0  0999 V2000
   39.5130   24.2270   35.1760 C   0  0  0  0  0  0  0  0  0  0  0  0
   40.8200   23.7650   35.2040 C   0  0  0  0  0  0  0  0  0  0  0  0
   41.9430   24.5710   35.0570 C   0  0  0  0  0  0  0  0  0  0  0  0
   41.7440   25.9540   34.8670 C   0  0  0  0  0  0  0  0  0  0  0  0
   40.4370   26.3990   34.8410 C   0  0  0  0  0  0  0  0  0  0  0  0
   39.3460   25.5950   34.9860 C   0  0  0  0  0  0  0  0  0  0  0  0
   41.0110   22.6890   35.3500 H   0  0  0  0  0  0  0  0  0  0  0  0
   42.9210   24.0940   35.0970 H   0  0  0  0  0  0  0  0  0  0  0  0
   42.6740   26.4780   34.7650 H   0  0  0  0  0  0  0  0  0  0  0  0
   40.5060   27.4450   34.6800 H   0  0  0  0  0  0  0  0  0  0  0  0
   38.0450   22.5900   34.1790 C   0  0  0  0  0  0  0  0  0  0  0  0
   38.4800   23.2460   35.3410 C   0  0  0  0  0  0  0  0  0  0  0  0
   37.8810   22.8990   36.5570 C   0  0  0  0  0  0  0  0  0  0  0  0
   36.9110   21.9490   36.5600 N   0  0  0  0  0  0  0  0  0  0  0  0
   36.5030   21.3240   35.4190 C   0  0  0  0  0  0  0  0  0  0  0  0
   37.0770   21.6500   34.2270 N   0  0  0  0  0  0  0  0  0  0  0  0
   38.4740   22.8220   33.2300 H   0  0  0  0  0  0  0  0  0  0  0  0
   35.7280   20.5840   35.5090 H   0  0  0  0  0  0  0  0  0  0  0  0
   38.2390   23.5100   37.8650 C   0  0  0  0  0  0  0  0  0  0  0  0
   39.5740   23.1870   38.1830 F   0  0  0  0  0  0  0  0  0  0  0  0
   38.0890   24.8460   37.9550 F   0  0  0  0  0  0  0  0  0  0  0  0
   37.5050   22.9020   38.8840 F   0  0  0  0  0  0  0  0  0  0  0  0
   37.6910   26.1790   34.9540 S   0  0  0  0  0  0  0  0  0  0  0  0
   36.3390   28.9460   34.5430 Cl  0  0  0  0  0  0  0  0  0  0  0  0
   36.5250   27.8520   33.2060 C   0  0  0  0  0  0  0  0  0  0  0  0
   37.1050   26.5860   33.3320 C   0  0  0  0  0  0  0  0  0  0  0  0
   37.2190   25.7610   32.2480 C   0  0  0  0  0  0  0  0  0  0  0  0
   36.7620   26.1890   31.0250 C   0  0  0  0  0  0  0  0  0  0  0  0
   36.1810   27.4510   30.8830 C   0  0  0  0  0  0  0  0  0  0  0  0
   36.0540   28.2990   31.9720 C   0  0  0  0  0  0  0  0  0  0  0  0
   37.6060   24.7770   32.2510 H   0  0  0  0  0  0  0  0  0  0  0  0
   36.8010   25.6330   30.1120 H   0  0  0  0  0  0  0  0  0  0  0  0
   35.8090   27.8200   29.9320 H   0  0  0  0  0  0  0  0  0  0  0  0
   33.3760   29.0140   32.6220 F   0  0  0  0  0  0  0  0  0  0  0  0
   34.1540   30.0050   32.1260 C   0  0  0  0  0  0  0  0  0  0  0  0
   35.4430   29.6190   31.8230 C   0  0  0  0  0  0  0  0  0  0  0  0
   36.3210   30.5690   31.3070 C   0  0  0  0  0  0  0  0  0  0  0  0
   37.3690   30.3640   31.0330 H   0  0  0  0  0  0  0  0  0  0  0  0
   35.9390   31.8760   31.0910 C   0  0  0  0  0  0  0  0  0  0  0  0
   36.6080   32.6230   30.6920 H   0  0  0  0  0  0  0  0  0  0  0  0
   34.6330   32.2570   31.4020 C   0  0  0  0  0  3  0  0  0  0  0  0
   33.7660   31.3090   31.9130 C   0  0  0  0  0  3  0  0  0  0  0  0
  1  2  1  0  0  0  0
  1 12  1  0  0  0  0
  2  7  1  0  0  0  0
  3  8  1  0  0  0  0
  3  2  2  0  0  0  0
  4  3  1  0  0  0  0
  5  4  2  0  0  0  0
  5  6  1  0  0  0  0
  6  1  2  0  0  0  0
  9  4  1  0  0  0  0
 10  5  1  0  0  0  0
 11 16  2  0  0  0  0
 11 12  1  0  0  0  0
 12 13  2  0  0  0  0
 13 14  1  0  0  0  0
 13 19  1  0  0  0  0
 15 18  1  0  0  0  0
 15 14  2  0  0  0  0
 16 15  1  0  0  0  0
 17 11  1  0  0  0  0
 19 21  1  0  0  0  0
 19 20  1  0  0  0  0
 19 22  1  0  0  0  0
 23  6  1  0  0  0  0
 25 26  1  0  0  0  0
 25 24  1  0  0  0  0
 26 23  1  0  0  0  0
 27 31  1  0  0  0  0
 27 26  2  0  0  0  0
 28 27  1  0  0  0  0
 29 28  2  0  0  0  0
 29 30  1  0  0  0  0
 30 25  2  0  0  0  0
 32 28  1  0  0  0  0
 33 29  1  0  0  0  0
 35 34  1  0  0  0  0
 36 30  1  0  0  0  0
 36 35  2  0  0  0  0
 37 36  1  0  0  0  0
 38 37  1  0  0  0  0
 39 37  2  0  0  0  0
 39 41  1  0  0  0  0
 40 39  1  0  0  0  0
 41 42  2  0  0  0  0
 42 35  1  0  0  0  0
M  END
>  <minimizedAffinity>
-6.57290506

$$$$

 OpenBabel03272506283D

 42 45  0  0  0  0  0  0  0  0999 V2000
   39.5610   24.9540   33.8690 C   0  0  0  0  0  0  0  0  0  0  0  0
   40.7890   24.9470   34.5090 C   0  0  0  0  0  0  0  0  0  0  0  0
   41.6350   26.0460   34.6050 C   0  0  0  0  0  0  0  0  0  0  0  0
   41.2160   27.2550   34.0120 C   0  0  0  0  0  0  0  0  0  0  0  0
   39.9890   27.2480   33.3780 C   0  0  0  0  0  0  0  0  0  0  0  0
   39.1720   26.1600   33.2920 C   0  0  0  0  0  0  0  0  0  0  0  0
   41.1480   24.0170   34.9820 H   0  0  0  0  0  0  0  0  0  0  0  0
   42.5780   25.9190   35.1340 H   0  0  0  0  0  0  0  0  0  0  0  0
   41.9400   28.0340   34.1460 H   0  0  0  0  0  0  0  0  0  0  0  0
   39.8700   28.2300   32.9990 H   0  0  0  0  0  0  0  0  0  0  0  0
   38.8420   22.9830   32.6740 C   0  0  0  0  0  0  0  0  0  0  0  0
   38.8280   23.7210   33.8670 C   0  0  0  0  0  0  0  0  0  0  0  0
   38.1070   23.2070   34.9510 C   0  0  0  0  0  0  0  0  0  0  0  0
   37.4590   22.0240   34.8030 N   0  0  0  0  0  0  0  0  0  0  0  0
   37.4860   21.3230   33.6340 C   0  0  0  0  0  0  0  0  0  0  0  0
   38.1830   21.8100   32.5690 N   0  0  0  0  0  0  0  0  0  0  0  0
   39.3790   23.3370   31.8220 H   0  0  0  0  0  0  0  0  0  0  0  0
   36.9450   20.3940   33.6000 H   0  0  0  0  0  0  0  0  0  0  0  0
   38.0020   23.8800   36.2740 C   0  0  0  0  0  0  0  0  0  0  0  0
   39.1800   23.6470   37.0130 F   0  0  0  0  0  0  0  0  0  0  0  0
   37.7700   25.2060   36.2470 F   0  0  0  0  0  0  0  0  0  0  0  0
   37.0110   23.2610   37.0380 F   0  0  0  0  0  0  0  0  0  0  0  0
   37.6140   26.1690   32.4850 S   0  0  0  0  0  0  0  0  0  0  0  0
   36.1980   27.6080   34.8470 Cl  0  0  0  0  0  0  0  0  0  0  0  0
   36.3560   28.3960   33.3060 C   0  0  0  0  0  0  0  0  0  0  0  0
   36.9630   27.7930   32.2010 C   0  0  0  0  0  0  0  0  0  0  0  0
   37.0540   28.4550   31.0080 C   0  0  0  0  0  0  0  0  0  0  0  0
   36.5460   29.7270   30.9040 C   0  0  0  0  0  0  0  0  0  0  0  0
   35.9360   30.3440   32.0000 C   0  0  0  0  0  0  0  0  0  0  0  0
   35.8330   29.6860   33.2150 C   0  0  0  0  0  0  0  0  0  0  0  0
   37.4590   28.0700   30.1100 H   0  0  0  0  0  0  0  0  0  0  0  0
   36.5620   30.3390   30.0270 H   0  0  0  0  0  0  0  0  0  0  0  0
   35.5240   31.3470   31.9520 H   0  0  0  0  0  0  0  0  0  0  0  0
   33.1150   29.4140   34.0180 F   0  0  0  0  0  0  0  0  0  0  0  0
   33.8840   30.2240   34.7830 C   0  0  0  0  0  0  0  0  0  0  0  0
   35.1930   30.3300   34.3610 C   0  0  0  0  0  0  0  0  0  0  0  0
   36.0640   31.1410   35.0840 C   0  0  0  0  0  0  0  0  0  0  0  0
   37.1260   31.2940   34.8320 H   0  0  0  0  0  0  0  0  0  0  0  0
   35.6550   31.8380   36.2020 C   0  0  0  0  0  0  0  0  0  0  0  0
   36.3180   32.4710   36.7720 H   0  0  0  0  0  0  0  0  0  0  0  0
   34.3290   31.7230   36.6200 C   0  0  0  0  0  3  0  0  0  0  0  0
   33.4690   30.9160   35.8980 C   0  0  0  0  0  3  0  0  0  0  0  0
  1  2  1  0  0  0  0
  2  3  2  0  0  0  0
  2  7  1  0  0  0  0
  3  8  1  0  0  0  0
  4  9  1  0  0  0  0
  4  3  1  0  0  0  0
  5  4  2  0  0  0  0
  6  5  1  0  0  0  0
  6  1  2  0  0  0  0
 10  5  1  0  0  0  0
 11 12  1  0  0  0  0
 12  1  1  0  0  0  0
 12 13  2  0  0  0  0
 13 19  1  0  0  0  0
 14 13  1  0  0  0  0
 15 14  2  0  0  0  0
 16 11  2  0  0  0  0
 16 15  1  0  0  0  0
 17 11  1  0  0  0  0
 18 15  1  0  0  0  0
 19 20  1  0  0  0  0
 19 22  1  0  0  0  0
 21 19  1  0  0  0  0
 23  6  1  0  0  0  0
 25 24  1  0  0  0  0
 26 23  1  0  0  0  0
 26 25  2  0  0  0  0
 27 26  1  0  0  0  0
 28 27  2  0  0  0  0
 28 29  1  0  0  0  0
 29 30  2  0  0  0  0
 30 25  1  0  0  0  0
 30 36  1  0  0  0  0
 31 27  1  0  0  0  0
 32 28  1  0  0  0  0
 33 29  1  0  0  0  0
 34 35  1  0  0  0  0
 35 42  1  0  0  0  0
 36 35  2  0  0  0  0
 36 37  1  0  0  0  0
 37 39  2  0  0  0  0
 38 37  1  0  0  0  0
 39 41  1  0  0  0  0
 39 40  1  0  0  0  0
 42 41  2  0  0  0  0
M  END
>  <minimizedAffinity>
-6.52199316

$$$$

 OpenBabel03272506283D

 42 45  0  0  0  0  0  0  0  0999 V2000
   39.2340   26.0570   34.8310 C   0  0  0  0  0  0  0  0  0  0  0  0
   39.0450   26.8620   35.9430 C   0  0  0  0  0  0  0  0  0  0  0  0
   38.0960   27.8750   36.0310 C   0  0  0  0  0  0  0  0  0  0  0  0
   37.2660   28.1010   34.9140 C   0  0  0  0  0  0  0  0  0  0  0  0
   37.4660   27.2910   33.8130 C   0  0  0  0  0  0  0  0  0  0  0  0
   38.4010   26.3020   33.7430 C   0  0  0  0  0  0  0  0  0  0  0  0
   39.6780   26.7130   36.8340 H   0  0  0  0  0  0  0  0  0  0  0  0
   38.0410   28.4420   36.9590 H   0  0  0  0  0  0  0  0  0  0  0  0
   36.5740   28.9000   35.0900 H   0  0  0  0  0  0  0  0  0  0  0  0
   36.7610   27.6250   33.0950 H   0  0  0  0  0  0  0  0  0  0  0  0
   41.5200   25.4130   34.3970 C   0  0  0  0  0  0  0  0  0  0  0  0
   40.2660   25.0660   34.9220 C   0  0  0  0  0  0  0  0  0  0  0  0
   40.1180   23.7930   35.4860 C   0  0  0  0  0  0  0  0  0  0  0  0
   41.1870   22.9570   35.5010 N   0  0  0  0  0  0  0  0  0  0  0  0
   42.3960   23.3150   34.9850 C   0  0  0  0  0  0  0  0  0  0  0  0
   42.5570   24.5500   34.4330 N   0  0  0  0  0  0  0  0  0  0  0  0
   41.6780   26.3730   33.9580 H   0  0  0  0  0  0  0  0  0  0  0  0
   43.1920   22.5930   35.0370 H   0  0  0  0  0  0  0  0  0  0  0  0
   38.8500   23.2880   36.0780 C   0  0  0  0  0  0  0  0  0  0  0  0
   38.6850   23.8330   37.3670 F   0  0  0  0  0  0  0  0  0  0  0  0
   37.7300   23.5240   35.3670 F   0  0  0  0  0  0  0  0  0  0  0  0
   38.9560   21.9170   36.3160 F   0  0  0  0  0  0  0  0  0  0  0  0
   38.6390   25.2800   32.3370 S   0  0  0  0  0  0  0  0  0  0  0  0
   38.4180   22.1960   32.6470 Cl  0  0  0  0  0  0  0  0  0  0  0  0
   37.1110   23.1050   31.9510 C   0  0  0  0  0  0  0  0  0  0  0  0
   37.1580   24.4890   31.7660 C   0  0  0  0  0  0  0  0  0  0  0  0
   36.1040   25.1550   31.2060 C   0  0  0  0  0  0  0  0  0  0  0  0
   34.9870   24.4490   30.8290 C   0  0  0  0  0  0  0  0  0  0  0  0
   34.9240   23.0660   31.0070 C   0  0  0  0  0  0  0  0  0  0  0  0
   35.9850   22.3750   31.5700 C   0  0  0  0  0  0  0  0  0  0  0  0
   36.0620   26.1890   30.9920 H   0  0  0  0  0  0  0  0  0  0  0  0
   34.1060   24.8610   30.3840 H   0  0  0  0  0  0  0  0  0  0  0  0
   34.0570   22.4770   30.7190 H   0  0  0  0  0  0  0  0  0  0  0  0
   35.1400   21.0000   33.9150 F   0  0  0  0  0  0  0  0  0  0  0  0
   35.5160   20.2230   32.8720 C   0  0  0  0  0  0  0  0  0  0  0  0
   35.9190   20.9260   31.7550 C   0  0  0  0  0  0  0  0  0  0  0  0
   36.3240   20.2150   30.6290 C   0  0  0  0  0  0  0  0  0  0  0  0
   36.6630   20.6790   29.6880 H   0  0  0  0  0  0  0  0  0  0  0  0
   36.3350   18.8360   30.6000 C   0  0  0  0  0  0  0  0  0  0  0  0
   36.6460   18.2710   29.7350 H   0  0  0  0  0  0  0  0  0  0  0  0
   35.9250   18.1350   31.7350 C   0  0  0  0  0  3  0  0  0  0  0  0
   35.5240   18.8460   32.8500 C   0  0  0  0  0  3  0  0  0  0  0  0
  1 12  1  0  0  0  0
  1  2  1  0  0  0  0
  2  3  2  0  0  0  0
  2  7  1  0  0  0  0
  3  8  1  0  0  0  0
  4  9  1  0  0  0  0
  4  3  1  0  0  0  0
  5  4  2  0  0  0  0
  6  5  1  0  0  0  0
  6  1  2  0  0  0  0
 10  5  1  0  0  0  0
 11 16  2  0  0  0  0
 11 12  1  0  0  0  0
 12 13  2  0  0  0  0
 13 14  1  0  0  0  0
 13 19  1  0  0  0  0
 15 18  1  0  0  0  0
 15 14  2  0  0  0  0
 16 15  1  0  0  0  0
 17 11  1  0  0  0  0
 19 22  1  0  0  0  0
 19 20  1  0  0  0  0
 21 19  1  0  0  0  0
 23  6  1  0  0  0  0
 25 24  1  0  0  0  0
 26 25  1  0  0  0  0
 26 23  1  0  0  0  0
 27 26  2  0  0  0  0
 28 29  2  0  0  0  0
 28 27  1  0  0  0  0
 29 30  1  0  0  0  0
 30 36  1  0  0  0  0
 30 25  2  0  0  0  0
 31 27  1  0  0  0  0
 32 28  1  0  0  0  0
 33 29  1  0  0  0  0
 35 34  1  0  0  0  0
 36 35  2  0  0  0  0
 37 36  1  0  0  0  0
 38 37  1  0  0  0  0
 39 37  2  0  0  0  0
 39 41  1  0  0  0  0
 40 39  1  0  0  0  0
 41 42  2  0  0  0  0
 42 35  1  0  0  0  0
M  END
>  <minimizedAffinity>
-6.47422791

$$$$

 OpenBabel03272506283D

 42 45  0  0  0  0  0  0  0  0999 V2000
   39.9890   25.6420   34.2930 C   0  0  0  0  0  0  0  0  0  0  0  0
   41.2950   25.8360   34.7120 C   0  0  0  0  0  0  0  0  0  0  0  0
   42.1830   26.7370   34.1350 C   0  0  0  0  0  0  0  0  0  0  0  0
   41.7250   27.5100   33.0470 C   0  0  0  0  0  0  0  0  0  0  0  0
   40.4220   27.3060   32.6410 C   0  0  0  0  0  0  0  0  0  0  0  0
   39.5640   26.4170   33.2180 C   0  0  0  0  0  0  0  0  0  0  0  0
   41.6850   25.2470   35.5590 H   0  0  0  0  0  0  0  0  0  0  0  0
   43.1870   26.8010   34.5510 H   0  0  0  0  0  0  0  0  0  0  0  0
   42.4880   28.1680   32.6810 H   0  0  0  0  0  0  0  0  0  0  0  0
   40.2830   27.9640   31.8210 H   0  0  0  0  0  0  0  0  0  0  0  0
   38.4750   25.1280   36.1030 C   0  0  0  0  0  0  0  0  0  0  0  0
   39.2210   24.6640   35.0080 C   0  0  0  0  0  0  0  0  0  0  0  0
   39.1600   23.3000   34.7010 C   0  0  0  0  0  0  0  0  0  0  0  0
   38.3890   22.4910   35.4700 N   0  0  0  0  0  0  0  0  0  0  0  0
   37.6730   22.9630   36.5300 C   0  0  0  0  0  0  0  0  0  0  0  0
   37.7200   24.2880   36.8420 N   0  0  0  0  0  0  0  0  0  0  0  0
   38.4910   26.1610   36.3730 H   0  0  0  0  0  0  0  0  0  0  0  0
   37.0870   22.2540   37.0880 H   0  0  0  0  0  0  0  0  0  0  0  0
   39.8970   22.6680   33.5730 C   0  0  0  0  0  0  0  0  0  0  0  0
   41.2790   22.8970   33.7300 F   0  0  0  0  0  0  0  0  0  0  0  0
   39.6990   21.3460   33.4040 F   0  0  0  0  0  0  0  0  0  0  0  0
   39.5900   23.3300   32.3830 F   0  0  0  0  0  0  0  0  0  0  0  0
   37.9080   26.1740   32.6910 S   0  0  0  0  0  0  0  0  0  0  0  0
   36.5000   27.6810   35.0150 Cl  0  0  0  0  0  0  0  0  0  0  0  0
   36.4530   28.3180   33.3990 C   0  0  0  0  0  0  0  0  0  0  0  0
   37.0480   27.6770   32.3090 C   0  0  0  0  0  0  0  0  0  0  0  0
   36.9740   28.2180   31.0560 C   0  0  0  0  0  0  0  0  0  0  0  0
   36.3110   29.4080   30.8750 C   0  0  0  0  0  0  0  0  0  0  0  0
   35.7120   30.0610   31.9540 C   0  0  0  0  0  0  0  0  0  0  0  0
   35.7740   29.5250   33.2300 C   0  0  0  0  0  0  0  0  0  0  0  0
   37.3580   27.7910   30.1680 H   0  0  0  0  0  0  0  0  0  0  0  0
   36.1920   29.9230   29.9460 H   0  0  0  0  0  0  0  0  0  0  0  0
   35.1790   31.0020   31.8470 H   0  0  0  0  0  0  0  0  0  0  0  0
   33.0820   29.2300   34.1060 F   0  0  0  0  0  0  0  0  0  0  0  0
   33.8470   30.0920   34.8150 C   0  0  0  0  0  0  0  0  0  0  0  0
   35.1440   30.2080   34.3600 C   0  0  0  0  0  0  0  0  0  0  0  0
   36.0120   31.0710   35.0240 C   0  0  0  0  0  0  0  0  0  0  0  0
   37.0640   31.2360   34.7410 H   0  0  0  0  0  0  0  0  0  0  0  0
   35.6110   31.8110   36.1160 C   0  0  0  0  0  0  0  0  0  0  0  0
   36.2710   32.4840   36.6410 H   0  0  0  0  0  0  0  0  0  0  0  0
   34.2970   31.6860   36.5700 C   0  0  0  0  0  3  0  0  0  0  0  0
   33.4410   30.8270   35.9060 C   0  0  0  0  0  3  0  0  0  0  0  0
  1  2  1  0  0  0  0
  1 12  1  0  0  0  0
  2  7  1  0  0  0  0
  3  8  1  0  0  0  0
  3  2  2  0  0  0  0
  4  3  1  0  0  0  0
  5  4  2  0  0  0  0
  5  6  1  0  0  0  0
  6  1  2  0  0  0  0
  9  4  1  0  0  0  0
 10  5  1  0  0  0  0
 11 17  1  0  0  0  0
 11 16  1  0  0  0  0
 12 11  2  0  0  0  0
 13 12  1  0  0  0  0
 13 14  2  0  0  0  0
 14 15  1  0  0  0  0
 15 16  2  0  0  0  0
 15 18  1  0  0  0  0
 19 20  1  0  0  0  0
 19 13  1  0  0  0  0
 21 19  1  0  0  0  0
 22 19  1  0  0  0  0
 23  6  1  0  0  0  0
 25 24  1  0  0  0  0
 26 23  1  0  0  0  0
 26 25  2  0  0  0  0
 27 26  1  0  0  0  0
 28 27  2  0  0  0  0
 28 29  1  0  0  0  0
 29 30  2  0  0  0  0
 30 25  1  0  0  0  0
 30 36  1  0  0  0  0
 31 27  1  0  0  0  0
 32 28  1  0  0  0  0
 33 29  1  0  0  0  0
 34 35  1  0  0  0  0
 35 42  1  0  0  0  0
 36 35  2  0  0  0  0
 36 37  1  0  0  0  0
 37 39  2  0  0  0  0
 38 37  1  0  0  0  0
 39 41  1  0  0  0  0
 39 40  1  0  0  0  0
 42 41  2  0  0  0  0
M  END
>  <minimizedAffinity>
-6.37914276

$$$$

 OpenBabel03272506283D

 42 45  0  0  0  0  0  0  0  0999 V2000
   37.2990   25.0340   32.3390 C   0  0  0  0  0  0  0  0  0  0  0  0
   36.6430   23.8340   32.1190 C   0  0  0  0  0  0  0  0  0  0  0  0
   35.4680   23.7000   31.3880 C   0  0  0  0  0  0  0  0  0  0  0  0
   34.9020   24.8650   30.8290 C   0  0  0  0  0  0  0  0  0  0  0  0
   35.5670   26.0530   31.0550 C   0  0  0  0  0  0  0  0  0  0  0  0
   36.7180   26.1680   31.7750 C   0  0  0  0  0  0  0  0  0  0  0  0
   37.0580   22.9050   32.5430 H   0  0  0  0  0  0  0  0  0  0  0  0
   35.0430   22.7030   31.2840 H   0  0  0  0  0  0  0  0  0  0  0  0
   34.0020   24.6470   30.2880 H   0  0  0  0  0  0  0  0  0  0  0  0
   34.9830   26.7920   30.5680 H   0  0  0  0  0  0  0  0  0  0  0  0
   38.3520   25.1400   34.5090 C   0  0  0  0  0  0  0  0  0  0  0  0
   38.4990   24.9790   33.1220 C   0  0  0  0  0  0  0  0  0  0  0  0
   39.7880   24.7800   32.6160 C   0  0  0  0  0  0  0  0  0  0  0  0
   40.8330   24.7520   33.4800 N   0  0  0  0  0  0  0  0  0  0  0  0
   40.6680   24.9100   34.8240 C   0  0  0  0  0  0  0  0  0  0  0  0
   39.4190   25.1040   35.3340 N   0  0  0  0  0  0  0  0  0  0  0  0
   37.3880   25.2930   34.9390 H   0  0  0  0  0  0  0  0  0  0  0  0
   41.5490   24.8750   35.4410 H   0  0  0  0  0  0  0  0  0  0  0  0
   40.0940   24.5970   31.1710 C   0  0  0  0  0  0  0  0  0  0  0  0
   41.4860   24.4530   31.0020 F   0  0  0  0  0  0  0  0  0  0  0  0
   39.4800   23.5640   30.5620 F   0  0  0  0  0  0  0  0  0  0  0  0
   39.8030   25.7720   30.4770 F   0  0  0  0  0  0  0  0  0  0  0  0
   37.5520   27.6860   32.0510 S   0  0  0  0  0  0  0  0  0  0  0  0
   36.4010   28.6000   34.7880 Cl  0  0  0  0  0  0  0  0  0  0  0  0
   36.0130   29.4720   33.3370 C   0  0  0  0  0  0  0  0  0  0  0  0
   36.4810   29.0990   32.0740 C   0  0  0  0  0  0  0  0  0  0  0  0
   36.1380   29.8170   30.9630 C   0  0  0  0  0  0  0  0  0  0  0  0
   35.3280   30.9180   31.0970 C   0  0  0  0  0  0  0  0  0  0  0  0
   34.8510   31.3040   32.3510 C   0  0  0  0  0  0  0  0  0  0  0  0
   35.1860   30.5860   33.4880 C   0  0  0  0  0  0  0  0  0  0  0  0
   36.4100   29.5910   29.9660 H   0  0  0  0  0  0  0  0  0  0  0  0
   34.9970   31.5530   30.3020 H   0  0  0  0  0  0  0  0  0  0  0  0
   34.2080   32.1680   32.4930 H   0  0  0  0  0  0  0  0  0  0  0  0
   36.5910   32.0990   35.4480 F   0  0  0  0  0  0  0  0  0  0  0  0
   35.3330   31.7210   35.7760 C   0  0  0  0  0  0  0  0  0  0  0  0
   34.6860   30.9900   34.8020 C   0  0  0  0  0  0  0  0  0  0  0  0
   33.3860   30.5550   35.0450 C   0  0  0  0  0  0  0  0  0  0  0  0
   32.7830   29.9670   34.3340 H   0  0  0  0  0  0  0  0  0  0  0  0
   32.7320   30.8330   36.2270 C   0  0  0  0  0  0  0  0  0  0  0  0
   31.7250   30.5020   36.4300 H   0  0  0  0  0  0  0  0  0  0  0  0
   33.3950   31.5730   37.2060 C   0  0  0  0  0  3  0  0  0  0  0  0
   34.6860   32.0020   36.9590 C   0  0  0  0  0  3  0  0  0  0  0  0
  1 12  1  0  0  0  0
  2  1  1  0  0  0  0
  2  7  1  0  0  0  0
  3  2  2  0  0  0  0
  4  5  2  0  0  0  0
  4  3  1  0  0  0  0
  5  6  1  0  0  0  0
  6 23  1  0  0  0  0
  6  1  2  0  0  0  0
  8  3  1  0  0  0  0
  9  4  1  0  0  0  0
 10  5  1  0  0  0  0
 11 17  1  0  0  0  0
 11 16  1  0  0  0  0
 12 11  2  0  0  0  0
 13 12  1  0  0  0  0
 13 14  2  0  0  0  0
 14 15  1  0  0  0  0
 15 16  2  0  0  0  0
 15 18  1  0  0  0  0
 19 13  1  0  0  0  0
 20 19  1  0  0  0  0
 21 19  1  0  0  0  0
 22 19  1  0  0  0  0
 23 26  1  0  0  0  0
 25 30  1  0  0  0  0
 25 24  1  0  0  0  0
 26 25  2  0  0  0  0
 27 28  2  0  0  0  0
 27 26  1  0  0  0  0
 28 29  1  0  0  0  0
 29 33  1  0  0  0  0
 29 30  2  0  0  0  0
 30 36  1  0  0  0  0
 31 27  1  0  0  0  0
 32 28  1  0  0  0  0
 34 35  1  0  0  0  0
 35 42  1  0  0  0  0
 36 37  1  0  0  0  0
 36 35  2  0  0  0  0
 37 39  2  0  0  0  0
 38 37  1  0  0  0  0
 39 40  1  0  0  0  0
 39 41  1  0  0  0  0
 42 41  2  0  0  0  0
M  END
>  <minimizedAffinity>
-6.32540226

$$$$

 OpenBabel03272506283D

 42 45  0  0  0  0  0  0  0  0999 V2000
   39.4540   25.9120   32.2620 C   0  0  0  0  0  0  0  0  0  0  0  0
   40.8030   25.8290   31.9560 C   0  0  0  0  0  0  0  0  0  0  0  0
   41.4250   26.5390   30.9350 C   0  0  0  0  0  0  0  0  0  0  0  0
   40.6320   27.4060   30.1550 C   0  0  0  0  0  0  0  0  0  0  0  0
   39.2900   27.4780   30.4720 C   0  0  0  0  0  0  0  0  0  0  0  0
   38.6950   26.7750   31.4760 C   0  0  0  0  0  0  0  0  0  0  0  0
   41.4520   25.1600   32.5460 H   0  0  0  0  0  0  0  0  0  0  0  0
   42.4940   26.3900   30.7890 H   0  0  0  0  0  0  0  0  0  0  0  0
   41.2100   27.9000   29.4010 H   0  0  0  0  0  0  0  0  0  0  0  0
   38.8800   28.1630   29.7750 H   0  0  0  0  0  0  0  0  0  0  0  0
   38.5750   23.7980   33.0290 C   0  0  0  0  0  0  0  0  0  0  0  0
   38.9890   25.1000   33.3490 C   0  0  0  0  0  0  0  0  0  0  0  0
   38.9170   25.5040   34.6870 C   0  0  0  0  0  0  0  0  0  0  0  0
   38.4520   24.6250   35.6110 N   0  0  0  0  0  0  0  0  0  0  0  0
   38.0550   23.3640   35.2780 C   0  0  0  0  0  0  0  0  0  0  0  0
   38.1190   22.9550   33.9790 N   0  0  0  0  0  0  0  0  0  0  0  0
   38.6130   23.4480   32.0220 H   0  0  0  0  0  0  0  0  0  0  0  0
   37.6990   22.7300   36.0700 H   0  0  0  0  0  0  0  0  0  0  0  0
   39.3190   26.8520   35.1720 C   0  0  0  0  0  0  0  0  0  0  0  0
   40.7240   26.9160   35.2650 F   0  0  0  0  0  0  0  0  0  0  0  0
   38.8900   27.8970   34.4380 F   0  0  0  0  0  0  0  0  0  0  0  0
   38.8970   27.0210   36.4920 F   0  0  0  0  0  0  0  0  0  0  0  0
   36.9880   26.8820   31.8670 S   0  0  0  0  0  0  0  0  0  0  0  0
   35.9390   28.0910   34.5310 Cl  0  0  0  0  0  0  0  0  0  0  0  0
   35.9100   29.0290   33.0690 C   0  0  0  0  0  0  0  0  0  0  0  0
   36.3480   28.5350   31.8370 C   0  0  0  0  0  0  0  0  0  0  0  0
   36.2950   29.3140   30.7150 C   0  0  0  0  0  0  0  0  0  0  0  0
   35.8110   30.5960   30.8080 C   0  0  0  0  0  0  0  0  0  0  0  0
   35.3710   31.1050   32.0320 C   0  0  0  0  0  0  0  0  0  0  0  0
   35.4130   30.3280   33.1780 C   0  0  0  0  0  0  0  0  0  0  0  0
   36.5660   29.0170   29.7360 H   0  0  0  0  0  0  0  0  0  0  0  0
   35.7260   31.2940   30.0020 H   0  0  0  0  0  0  0  0  0  0  0  0
   34.9820   32.1130   32.1410 H   0  0  0  0  0  0  0  0  0  0  0  0
   32.8690   29.8940   34.3770 F   0  0  0  0  0  0  0  0  0  0  0  0
   33.7290   30.6730   35.0730 C   0  0  0  0  0  0  0  0  0  0  0  0
   34.9510   30.8610   34.4590 C   0  0  0  0  0  0  0  0  0  0  0  0
   35.9060   31.6480   35.0970 C   0  0  0  0  0  0  0  0  0  0  0  0
   36.9090   31.8590   34.6940 H   0  0  0  0  0  0  0  0  0  0  0  0
   35.6640   32.2430   36.3170 C   0  0  0  0  0  0  0  0  0  0  0  0
   36.3940   32.8560   36.8240 H   0  0  0  0  0  0  0  0  0  0  0  0
   34.4260   32.0470   36.9300 C   0  0  0  0  0  3  0  0  0  0  0  0
   33.4820   31.2650   36.2920 C   0  0  0  0  0  3  0  0  0  0  0  0
  1 12  1  0  0  0  0
  2  1  1  0  0  0  0
  2  7  1  0  0  0  0
  3  2  2  0  0  0  0
  4  5  2  0  0  0  0
  4  3  1  0  0  0  0
  5  6  1  0  0  0  0
  6 23  1  0  0  0  0
  6  1  2  0  0  0  0
  8  3  1  0  0  0  0
  9  4  1  0  0  0  0
 10  5  1  0  0  0  0
 11 12  2  0  0  0  0
 11 16  1  0  0  0  0
 12 13  1  0  0  0  0
 13 19  1  0  0  0  0
 13 14  2  0  0  0  0
 15 14  1  0  0  0  0
 15 18  1  0  0  0  0
 16 15  2  0  0  0  0
 17 11  1  0  0  0  0
 19 20  1  0  0  0  0
 19 22  1  0  0  0  0
 21 19  1  0  0  0  0
 25 30  1  0  0  0  0
 25 24  1  0  0  0  0
 26 23  1  0  0  0  0
 26 25  2  0  0  0  0
 27 28  2  0  0  0  0
 27 26  1  0  0  0  0
 28 29  1  0  0  0  0
 29 33  1  0  0  0  0
 29 30  2  0  0  0  0
 30 36  1  0  0  0  0
 31 27  1  0  0  0  0
 32 28  1  0  0  0  0
 34 35  1  0  0  0  0
 35 42  1  0  0  0  0
 36 35  2  0  0  0  0
 36 37  1  0  0  0  0
 37 39  2  0  0  0  0
 38 37  1  0  0  0  0
 39 40  1  0  0  0  0
 39 41  1  0  0  0  0
 42 41  2  0  0  0  0
M  END
>  <minimizedAffinity>
-6.23466396

$$$$
