
 OpenBabel03272508373D

 44 47  0  0  1  0  0  0  0  0999 V2000
   40.3940   31.9040   44.5000 C   0  0  0  0  0  0  0  0  0  0  0  0
   40.2800   30.8190   44.8010 H   0  0  0  0  0  0  0  0  0  0  0  0
   41.5070   32.0260   44.4670 H   0  0  0  0  0  0  0  0  0  0  0  0
   39.9350   31.9930   43.1730 N   0  0  0  0  0  0  0  0  0  0  0  0
   39.2120   33.1520   42.8380 C   0  0  0  0  0  0  0  0  0  0  0  0
   37.8120   32.9450   42.4050 C   0  0  0  0  0  0  0  0  0  0  0  0
   37.6330   31.8080   41.6140 O   0  0  0  0  0  0  0  0  0  0  0  0
   38.1190   30.6980   42.2220 C   0  0  0  0  0  0  0  0  0  0  0  0
   39.5850   30.8230   42.5060 C   0  0  1  0  0  0  0  0  0  0  0  0
   39.3180   34.0520   43.4540 H   0  0  0  0  0  0  0  0  0  0  0  0
   39.7800   33.4970   41.9400 H   0  0  0  0  0  0  0  0  0  0  0  0
   36.9900   33.2560   43.0300 H   0  0  0  0  0  0  0  0  0  0  0  0
   37.6470   33.7370   41.5740 H   0  0  0  0  0  0  0  0  0  0  0  0
   37.5070   30.2290   42.9930 H   0  0  0  0  0  0  0  0  0  0  0  0
   38.0720   29.9130   41.4230 H   0  0  0  0  0  0  0  0  0  0  0  0
   39.7270   29.9980   43.3200 H   0  0  0  0  0  0  0  0  0  0  0  0
   39.9790   32.0200   39.8700 F   0  0  0  0  0  0  0  0  0  0  0  0
   40.6360   30.8910   40.2020 C   0  0  0  0  0  0  0  0  0  0  0  0
   40.4370   30.3230   41.4200 C   0  0  0  0  0  0  0  0  0  0  0  0
   41.2000   29.1510   41.5340 C   0  0  0  0  0  0  0  0  0  0  0  0
   41.1490   28.5680   42.4660 H   0  0  0  0  0  0  0  0  0  0  0  0
   42.0420   28.6010   40.5930 C   0  0  0  0  0  0  0  0  0  0  0  0
   42.5890   27.6910   40.7750 H   0  0  0  0  0  0  0  0  0  0  0  0
   42.1620   29.2690   39.3960 C   0  0  0  0  0  3  0  0  0  0  0  0
   41.4520   30.4280   39.1940 C   0  0  0  0  0  3  0  0  0  0  0  0
   39.7720   32.7140   45.5270 C   0  0  0  0  0  0  0  0  0  0  0  0
   40.5900   32.9500   46.2890 H   0  0  0  0  0  0  0  0  0  0  0  0
   39.3170   33.6720   45.3700 H   0  0  0  0  0  0  0  0  0  0  0  0
   37.7030   30.9950   47.9040 C   0  0  0  0  0  0  0  0  0  0  0  0
   36.9870   30.7790   46.7420 C   0  0  0  0  0  0  0  0  0  0  0  0
   37.6840   31.4010   45.7090 C   0  0  0  0  0  0  0  0  0  0  0  0
   38.7610   31.9520   46.2620 N   0  0  0  0  0  0  0  0  0  0  0  0
   38.7690   31.7060   47.5800 N   0  0  0  0  0  0  0  0  0  0  0  0
   36.0360   30.2150   46.6660 H   0  0  0  0  0  0  0  0  0  0  0  0
   37.2780   31.3310   44.7700 H   0  0  0  0  0  0  0  0  0  0  0  0
   37.4520   30.1700   51.5610 C   0  0  0  0  0  0  0  0  0  0  0  0
   37.9530   30.7010   50.3800 C   0  0  0  0  0  0  0  0  0  0  0  0
   37.2810   30.4920   49.1860 C   0  0  0  0  0  0  0  0  0  0  0  0
   36.1400   29.7530   49.2820 N   0  0  0  0  0  0  0  0  0  0  0  0
   35.6610   29.2410   50.4320 C   0  0  0  0  0  0  0  0  0  0  0  0
   36.3250   29.4560   51.5640 N   0  0  0  0  0  0  0  0  0  0  0  0
   38.0630   30.4000   52.4260 H   0  0  0  0  0  0  0  0  0  0  0  0
   38.8580   31.2870   50.3080 H   0  0  0  0  0  0  0  0  0  0  0  0
   34.7420   28.6670   50.3980 H   0  0  0  0  0  0  0  0  0  0  0  0
  1  2  1  0  0  0  0
  1 26  1  0  0  0  0
  3  1  1  0  0  0  0
  4  1  1  0  0  0  0
  5  4  1  0  0  0  0
  5 10  1  0  0  0  0
  6  5  1  0  0  0  0
  6 12  1  0  0  0  0
  7  8  1  0  0  0  0
  7  6  1  0  0  0  0
  8  9  1  0  0  0  0
  8 14  1  0  0  0  0
  9  4  1  0  0  0  0
  9 16  1  1  0  0  0
 11  5  1  0  0  0  0
 13  6  1  0  0  0  0
 15  8  1  0  0  0  0
 17 18  1  0  0  0  0
 18 19  1  0  0  0  0
 19 20  2  0  0  0  0
 19  9  1  0  0  0  0
 20 21  1  0  0  0  0
 22 23  1  0  0  0  0
 22 20  1  0  0  0  0
 24 22  2  0  0  0  0
 25 24  1  0  0  0  0
 25 18  2  0  0  0  0
 26 32  1  0  0  0  0
 26 27  1  0  0  0  0
 28 26  1  0  0  0  0
 29 38  1  0  0  0  0
 30 29  1  0  0  0  0
 31 32  1  0  0  0  0
 31 30  2  0  0  0  0
 32 33  1  0  0  0  0
 33 29  2  0  0  0  0
 34 30  1  0  0  0  0
 35 31  1  0  0  0  0
 36 41  1  0  0  0  0
 36 42  1  0  0  0  0
 37 36  2  0  0  0  0
 38 39  2  0  0  0  0
 38 37  1  0  0  0  0
 39 40  1  0  0  0  0
 40 41  2  0  0  0  0
 43 37  1  0  0  0  0
 44 40  1  0  0  0  0
M  END
>  <minimizedAffinity>
-5.77153921

>  <minimizedRMSD>
0.973331749

$$$$
