
     RDKit          3D

 32 34  0  0  0  0  0  0  0  0999 V2000
   36.7618   30.7689   50.7112 C   0  0  1  0  0  0  0  0  0  0  0  0
   36.0264   29.5136   50.8517 C   0  0  2  0  0  0  0  0  0  0  0  0
   37.4664   29.5167   51.2586 C   0  0  0  0  0  0  0  0  0  0  0  0
   37.3206   31.2185   49.3999 C   0  0  0  0  0  0  0  0  0  0  0  0
   38.3073   32.1889   49.4709 C   0  0  0  0  0  0  0  0  0  0  0  0
   38.7967   32.6061   48.2112 C   0  0  0  0  0  0  0  0  0  0  0  0
   38.3123   32.0744   47.0508 N   0  0  0  0  0  0  0  0  0  0  0  0
   37.3483   31.1301   47.0577 C   0  0  0  0  0  0  0  0  0  0  0  0
   36.8410   30.6912   48.2431 N   0  0  0  0  0  0  0  0  0  0  0  0
   35.6586   28.8581   49.6815 O   0  0  0  0  0  0  0  0  0  0  0  0
   34.4373   28.3965   49.3077 C   0  0  0  0  0  0  0  0  0  0  0  0
   34.3030   27.4076   48.5551 O   0  0  0  0  0  0  0  0  0  0  0  0
   33.4574   29.2004   49.8968 N   0  0  0  0  0  0  0  0  0  0  0  0
   36.7187   31.6123   51.4574 H   0  0  0  0  0  0  0  0  0  0  0  0
   35.1873   29.5884   51.5878 H   0  0  0  0  0  0  0  0  0  0  0  0
   38.2069   28.9965   50.6310 H   0  0  0  0  0  0  0  0  0  0  0  0
   37.6059   29.5040   52.3586 H   0  0  0  0  0  0  0  0  0  0  0  0
   38.6675   32.5873   50.3903 H   0  0  0  0  0  0  0  0  0  0  0  0
   39.5578   33.3513   48.2005 H   0  0  0  0  0  0  0  0  0  0  0  0
   33.2878   30.1308   49.4173 H   0  0  0  0  0  0  0  0  0  0  0  0
   33.1976   28.5573   50.6823 H   0  0  0  0  0  0  0  0  0  0  0  0
   36.3800   28.5696   46.2664 F   0  0  0  0  0  0  0  0  0  0  0  0
   36.5083   29.4828   45.3000 C   0  0  0  0  0  0  0  0  0  0  0  0
   36.9781   30.7027   45.7260 C   0  0  0  0  0  0  0  0  0  0  0  0
   37.1493   31.7239   44.8081 C   0  0  0  0  0  0  0  0  0  0  0  0
   37.5095   32.7363   44.9920 H   0  0  0  0  0  0  0  0  0  0  0  0
   36.8477   31.5204   43.4567 C   0  0  0  0  0  0  0  0  0  0  0  0
   36.9509   32.2590   42.6749 H   0  0  0  0  0  0  0  0  0  0  0  0
   36.3733   30.2867   43.0301 C   0  0  0  0  0  0  0  0  0  0  0  0
   36.2134   29.2896   43.9665 C   0  0  0  0  0  0  0  0  0  0  0  0
   36.1282   30.0849   41.9983 H   0  0  0  0  0  0  0  0  0  0  0  0
   35.8484   28.3169   43.6824 H   0  0  0  0  0  0  0  0  0  0  0  0
  1  2  1  0
  1  3  1  0
  2  3  1  0
  4  5  2  0
  4  1  1  0
  6  5  1  0
  7  6  2  0
  8  7  1  0
  8  9  2  0
  9  4  1  0
 10  2  1  0
 11 10  1  0
 11 13  1  0
 12 11  2  0
  1 14  1  1
  2 15  1  1
  3 16  1  0
  3 17  1  0
  5 18  1  0
  6 19  1  0
 13 20  1  0
 13 21  1  0
 22 23  1  0
 23 24  2  0
 24 25  1  0
 25 26  1  0
 25 27  2  0
 27 28  1  0
 27 29  1  0
 29 30  2  0
 30 23  1  0
 29 31  1  0
 30 32  1  0
  8 24  1  0
M  ISO  8  14  13  15  13  16  13  17  13  18  14  19  14  26  15  28  16
M  END
>  <DihAtoms>  (1) 
6,7,23,22

>  <DihDeg>  (1) 
-179.76482898384646

$$$$
