
 OpenBabel03272500483D

 39 43  0  0  1  0  0  0  0  0999 V2000
   31.8710   28.5040   46.7620 C   0  0  1  0  0  0  0  0  0  0  0  0
   32.5510   27.5530   45.7150 C   0  0  0  0  0  0  0  0  0  0  0  0
   32.7750   29.0210   45.7180 C   0  0  2  0  0  0  0  0  0  0  0  0
   32.2900   28.4010   47.7840 H   0  0  0  0  0  0  0  0  0  0  0  0
   31.8500   27.0850   45.0230 H   0  0  0  0  0  0  0  0  0  0  0  0
   33.3090   26.8520   46.1170 H   0  0  0  0  0  0  0  0  0  0  0  0
   32.3350   29.5630   44.8510 H   0  0  0  0  0  0  0  0  0  0  0  0
   28.3320   29.0370   47.1960 C   0  0  0  0  0  0  0  0  0  0  0  0
   28.3890   28.8530   45.8240 C   0  0  0  0  0  0  0  0  0  0  0  0
   29.7300   28.6250   45.4670 C   0  0  0  0  0  0  0  0  0  0  0  0
   30.4350   28.6790   46.6140 N   0  0  0  0  0  0  0  0  0  0  0  0
   29.5870   28.9190   47.5910 N   0  0  0  0  0  0  0  0  0  0  0  0
   27.5740   28.8680   45.0940 H   0  0  0  0  0  0  0  0  0  0  0  0
   30.1380   28.4450   44.4900 H   0  0  0  0  0  0  0  0  0  0  0  0
   26.2910   28.2740   48.4280 C   0  0  0  0  0  0  0  0  0  0  0  0
   27.1140   29.2940   47.9150 C   0  0  0  0  0  0  0  0  0  0  0  0
   26.6980   30.5930   48.1340 C   0  0  0  0  0  0  0  0  0  0  0  0
   25.5470   30.8310   48.8140 N   0  0  0  0  0  0  0  0  0  0  0  0
   24.7890   29.8120   49.2870 C   0  0  0  0  0  0  0  0  0  0  0  0
   25.1650   28.5150   49.0920 N   0  0  0  0  0  0  0  0  0  0  0  0
   26.6000   27.2480   48.2670 H   0  0  0  0  0  0  0  0  0  0  0  0
   27.3080   31.4040   47.7530 H   0  0  0  0  0  0  0  0  0  0  0  0
   23.9150   30.1930   49.7990 H   0  0  0  0  0  0  0  0  0  0  0  0
   34.1120   29.5720   46.1100 C   0  0  0  0  0  0  0  0  0  0  0  0
   35.0650   30.0410   45.2040 C   0  0  0  0  0  0  0  0  0  0  0  0
   36.1440   30.4540   45.9190 N   0  0  0  0  0  0  0  0  0  0  0  0
   35.8720   30.2460   47.2360 C   0  0  0  0  0  0  0  0  0  0  0  0
   34.6340   29.7090   47.3580 N   0  0  0  0  0  0  0  0  0  0  0  0
   35.0080   30.0920   44.1180 H   0  0  0  0  0  0  0  0  0  0  0  0
   37.0330   30.8580   45.5520 H   0  0  0  0  0  0  0  0  0  0  0  0
   36.1070   28.6010   49.4370 F   0  0  0  0  0  0  0  0  0  0  0  0
   36.8710   29.7190   49.4450 C   0  0  0  0  0  0  0  0  0  0  0  0
   36.7620   30.5490   48.3500 C   0  0  0  0  0  0  0  0  0  0  0  0
   37.5250   31.6990   48.3230 C   0  0  0  0  0  0  0  0  0  0  0  0
   37.4820   32.3910   47.4880 H   0  0  0  0  0  0  0  0  0  0  0  0
   38.3780   32.0170   49.3600 C   0  0  0  0  0  0  0  0  0  0  0  0
   38.9770   32.9160   49.3420 H   0  0  0  0  0  0  0  0  0  0  0  0
   38.4250   31.1330   50.4120 C   0  0  0  0  0  0  0  0  0  0  0  0
   37.6940   29.9610   50.5160 C   0  0  0  0  0  0  0  0  0  0  0  0
  1  4  1  1  0  0  0
  2  3  1  0  0  0  0
  2  6  1  0  0  0  0
  2  1  1  0  0  0  0
  3  7  1  6  0  0  0
  3 24  1  0  0  0  0
  3  1  1  0  0  0  0
  5  2  1  0  0  0  0
  8 12  2  0  0  0  0
  8 16  1  0  0  0  0
  9  8  1  0  0  0  0
 10  9  2  0  0  0  0
 10 11  1  0  0  0  0
 11  1  1  0  0  0  0
 11 12  1  0  0  0  0
 13  9  1  0  0  0  0
 14 10  1  0  0  0  0
 15 20  1  0  0  0  0
 16 17  1  0  0  0  0
 16 15  2  0  0  0  0
 17 18  2  0  0  0  0
 18 19  1  0  0  0  0
 19 23  1  0  0  0  0
 20 19  2  0  0  0  0
 21 15  1  0  0  0  0
 22 17  1  0  0  0  0
 24 28  1  0  0  0  0
 25 26  1  0  0  0  0
 25 24  2  0  0  0  0
 26 27  1  0  0  0  0
 27 28  2  0  0  0  0
 27 33  1  0  0  0  0
 29 25  1  0  0  0  0
 30 26  1  0  0  0  0
 31 32  1  0  0  0  0
 32 39  1  0  0  0  0
 33 32  2  0  0  0  0
 34 33  1  0  0  0  0
 34 36  2  0  0  0  0
 35 34  1  0  0  0  0
 36 38  1  0  0  0  0
 37 36  1  0  0  0  0
 38 39  2  0  0  0  0
M  END
>  <minimizedAffinity>
-6.9693594

>  <minimizedRMSD>
5.72904682

$$$$
