
 OpenBabel03262523373D

 34 36  0  0  1  0  0  0  0  0999 V2000
   37.7970   26.1800   33.2490 C   0  0  2  0  0  0  0  0  0  0  0  0
   38.5730   25.1360   34.0130 C   0  0  0  0  0  0  0  0  0  0  0  0
   38.2470   25.1320   35.4760 C   0  0  2  0  0  0  0  0  0  0  0  0
   38.3610   26.4570   36.1540 C   0  0  0  0  0  0  0  0  0  0  0  0
   37.9010   27.6160   35.2880 C   0  0  0  0  0  0  0  0  0  0  0  0
   37.0750   27.1460   34.1150 C   0  0  0  0  0  0  0  0  0  0  0  0
   38.5320   26.6660   32.5600 H   0  0  0  0  0  0  0  0  0  0  0  0
   39.6600   25.2910   33.9260 H   0  0  0  0  0  0  0  0  0  0  0  0
   38.3900   24.0940   33.6550 H   0  0  0  0  0  0  0  0  0  0  0  0
   37.2230   24.6820   35.6060 H   0  0  0  0  0  0  0  0  0  0  0  0
   39.3690   26.6820   36.5090 H   0  0  0  0  0  0  0  0  0  0  0  0
   37.6760   26.4350   37.0430 H   0  0  0  0  0  0  0  0  0  0  0  0
   38.7940   28.1720   34.9150 H   0  0  0  0  0  0  0  0  0  0  0  0
   37.3190   28.3310   35.8710 H   0  0  0  0  0  0  0  0  0  0  0  0
   36.8740   28.0640   33.5000 H   0  0  0  0  0  0  0  0  0  0  0  0
   36.1380   26.7290   34.4930 H   0  0  0  0  0  0  0  0  0  0  0  0
   36.8020   25.5240   32.3560 C   0  0  0  0  0  0  0  0  0  0  0  0
   36.9000   24.1250   32.2510 C   0  0  0  0  0  0  0  0  0  0  0  0
   35.9760   23.4970   31.3910 C   0  0  0  0  0  0  0  0  0  0  0  0
   35.0490   24.2630   30.7130 N   0  0  0  0  0  0  0  0  0  0  0  0
   35.0040   25.6210   30.8550 C   0  0  0  0  0  0  0  0  0  0  0  0
   35.8800   26.2220   31.6740 N   0  0  0  0  0  0  0  0  0  0  0  0
   37.6000   23.4930   32.7570 H   0  0  0  0  0  0  0  0  0  0  0  0
   35.9530   22.4280   31.2290 H   0  0  0  0  0  0  0  0  0  0  0  0
   34.2460   26.1080   30.2830 H   0  0  0  0  0  0  0  0  0  0  0  0
   37.6700   23.8880   37.8480 F   0  0  0  0  0  0  0  0  0  0  0  0
   38.8950   23.5880   37.3040 C   0  0  0  0  0  0  0  0  0  0  0  0
   39.2230   24.2050   36.1040 C   0  0  0  0  0  0  0  0  0  0  0  0
   40.4670   23.8390   35.6440 C   0  0  0  0  0  0  0  0  0  0  0  0
   40.8080   24.2630   34.7120 H   0  0  0  0  0  0  0  0  0  0  0  0
   41.2810   22.9560   36.3170 C   0  0  0  0  0  0  0  0  0  0  0  0
   42.2610   22.7250   35.8690 H   0  0  0  0  0  0  0  0  0  0  0  0
   40.8830   22.3840   37.5070 C   0  0  0  0  0  3  0  0  0  0  0  0
   39.6460   22.7010   38.0320 C   0  0  0  0  0  3  0  0  0  0  0  0
  1  7  1  6  0  0  0
  1  2  1  0  0  0  0
  1  6  1  0  0  0  0
  2  3  1  0  0  0  0
  3 10  1  1  0  0  0
  3 28  1  0  0  0  0
  3  4  1  0  0  0  0
  4 11  1  0  0  0  0
  4 12  1  0  0  0  0
  5 14  1  0  0  0  0
  5  4  1  0  0  0  0
  6 16  1  0  0  0  0
  6  5  1  0  0  0  0
  8  2  1  0  0  0  0
  9  2  1  0  0  0  0
 13  5  1  0  0  0  0
 15  6  1  0  0  0  0
 17  1  1  0  0  0  0
 18 17  1  0  0  0  0
 18 23  1  0  0  0  0
 19 18  2  0  0  0  0
 20 21  2  0  0  0  0
 20 19  1  0  0  0  0
 21 22  1  0  0  0  0
 22 17  2  0  0  0  0
 24 19  1  0  0  0  0
 25 21  1  0  0  0  0
 27 26  1  0  0  0  0
 27 34  1  0  0  0  0
 28 27  2  0  0  0  0
 29 28  1  0  0  0  0
 29 31  2  0  0  0  0
 30 29  1  0  0  0  0
 31 33  1  0  0  0  0
 32 31  1  0  0  0  0
 33 34  2  0  0  0  0
M  END
>  <minimizedAffinity>
-5.66596985

$$$$

 OpenBabel03262523373D

 34 36  0  0  1  0  0  0  0  0999 V2000
   37.4600   27.0350   33.1870 C   0  0  2  0  0  0  0  0  0  0  0  0
   38.9440   26.7620   33.1730 C   0  0  0  0  0  0  0  0  0  0  0  0
   39.4630   26.3310   34.5120 C   0  0  2  0  0  0  0  0  0  0  0  0
   39.1170   27.2350   35.6470 C   0  0  0  0  0  0  0  0  0  0  0  0
   37.7230   27.8270   35.5400 C   0  0  0  0  0  0  0  0  0  0  0  0
   36.8690   27.0730   34.5480 C   0  0  0  0  0  0  0  0  0  0  0  0
   37.3180   27.9860   32.6160 H   0  0  0  0  0  0  0  0  0  0  0  0
   39.5200   27.6530   32.8770 H   0  0  0  0  0  0  0  0  0  0  0  0
   39.2430   25.9600   32.4550 H   0  0  0  0  0  0  0  0  0  0  0  0
   39.1180   25.2750   34.6980 H   0  0  0  0  0  0  0  0  0  0  0  0
   39.8210   28.0590   35.7820 H   0  0  0  0  0  0  0  0  0  0  0  0
   39.1260   26.6140   36.5820 H   0  0  0  0  0  0  0  0  0  0  0  0
   37.8000   28.8950   35.2280 H   0  0  0  0  0  0  0  0  0  0  0  0
   37.2250   27.8280   36.5110 H   0  0  0  0  0  0  0  0  0  0  0  0
   35.9060   27.6480   34.4810 H   0  0  0  0  0  0  0  0  0  0  0  0
   36.6850   26.0690   34.9380 H   0  0  0  0  0  0  0  0  0  0  0  0
   36.7430   25.9960   32.3980 C   0  0  0  0  0  0  0  0  0  0  0  0
   37.1990   24.6760   32.5640 C   0  0  0  0  0  0  0  0  0  0  0  0
   36.5390   23.6880   31.8040 C   0  0  0  0  0  0  0  0  0  0  0  0
   35.5110   24.0530   30.9600 N   0  0  0  0  0  0  0  0  0  0  0  0
   35.1120   25.3540   30.8420 C   0  0  0  0  0  0  0  0  0  0  0  0
   35.7360   26.2970   31.5630 N   0  0  0  0  0  0  0  0  0  0  0  0
   37.9910   24.3480   33.2050 H   0  0  0  0  0  0  0  0  0  0  0  0
   36.8010   22.6390   31.8470 H   0  0  0  0  0  0  0  0  0  0  0  0
   34.3080   25.5180   30.1600 H   0  0  0  0  0  0  0  0  0  0  0  0
   40.9220   24.2900   35.6140 F   0  0  0  0  0  0  0  0  0  0  0  0
   41.6500   25.2460   34.9470 C   0  0  0  0  0  0  0  0  0  0  0  0
   40.9420   26.2980   34.3800 C   0  0  0  0  0  0  0  0  0  0  0  0
   41.7590   27.1990   33.7360 C   0  0  0  0  0  0  0  0  0  0  0  0
   41.2990   28.0500   33.2570 H   0  0  0  0  0  0  0  0  0  0  0  0
   43.1270   27.0540   33.6740 C   0  0  0  0  0  0  0  0  0  0  0  0
   43.6960   27.8280   33.1360 H   0  0  0  0  0  0  0  0  0  0  0  0
   43.7570   25.9780   34.2650 C   0  0  0  0  0  3  0  0  0  0  0  0
   43.0040   25.0310   34.9280 C   0  0  0  0  0  3  0  0  0  0  0  0
  1  7  1  6  0  0  0
  1  6  1  0  0  0  0
  2  1  1  0  0  0  0
  2  3  1  0  0  0  0
  3 10  1  1  0  0  0
  3  4  1  0  0  0  0
  4 11  1  0  0  0  0
  4 12  1  0  0  0  0
  5  4  1  0  0  0  0
  5 14  1  0  0  0  0
  6 16  1  0  0  0  0
  6  5  1  0  0  0  0
  8  2  1  0  0  0  0
  9  2  1  0  0  0  0
 13  5  1  0  0  0  0
 15  6  1  0  0  0  0
 17 18  1  0  0  0  0
 17  1  1  0  0  0  0
 18 23  1  0  0  0  0
 19 24  1  0  0  0  0
 19 18  2  0  0  0  0
 20 19  1  0  0  0  0
 21 20  2  0  0  0  0
 21 22  1  0  0  0  0
 22 17  2  0  0  0  0
 25 21  1  0  0  0  0
 27 26  1  0  0  0  0
 28  3  1  0  0  0  0
 28 27  2  0  0  0  0
 29 28  1  0  0  0  0
 30 29  1  0  0  0  0
 31 29  2  0  0  0  0
 31 33  1  0  0  0  0
 32 31  1  0  0  0  0
 33 34  2  0  0  0  0
 34 27  1  0  0  0  0
M  END
>  <minimizedAffinity>
-5.35004091

$$$$

 OpenBabel03262523373D

 34 36  0  0  1  0  0  0  0  0999 V2000
   38.0920   27.1490   33.9090 C   0  0  2  0  0  0  0  0  0  0  0  0
   37.2830   28.1670   34.6740 C   0  0  0  0  0  0  0  0  0  0  0  0
   36.0370   28.5770   33.9470 C   0  0  2  0  0  0  0  0  0  0  0  0
   36.2450   29.0340   32.5420 C   0  0  0  0  0  0  0  0  0  0  0  0
   37.3160   28.2480   31.8070 C   0  0  0  0  0  0  0  0  0  0  0  0
   37.6400   26.9510   32.5090 C   0  0  0  0  0  0  0  0  0  0  0  0
   39.1570   27.4800   33.9900 H   0  0  0  0  0  0  0  0  0  0  0  0
   37.8590   29.0860   34.8660 H   0  0  0  0  0  0  0  0  0  0  0  0
   36.9490   27.8090   35.6780 H   0  0  0  0  0  0  0  0  0  0  0  0
   35.3010   27.7260   34.0070 H   0  0  0  0  0  0  0  0  0  0  0  0
   36.4890   30.0950   32.4580 H   0  0  0  0  0  0  0  0  0  0  0  0
   35.2850   28.8540   31.9890 H   0  0  0  0  0  0  0  0  0  0  0  0
   38.2390   28.8700   31.7300 H   0  0  0  0  0  0  0  0  0  0  0  0
   37.0070   28.0320   30.7830 H   0  0  0  0  0  0  0  0  0  0  0  0
   38.4990   26.5060   31.9390 H   0  0  0  0  0  0  0  0  0  0  0  0
   36.7680   26.2970   32.4530 H   0  0  0  0  0  0  0  0  0  0  0  0
   38.0410   25.8320   34.6030 C   0  0  0  0  0  0  0  0  0  0  0  0
   37.9590   25.8810   36.0070 C   0  0  0  0  0  0  0  0  0  0  0  0
   37.9320   24.6380   36.6730 C   0  0  0  0  0  0  0  0  0  0  0  0
   37.9870   23.4710   35.9400 N   0  0  0  0  0  0  0  0  0  0  0  0
   38.0670   23.4890   34.5760 C   0  0  0  0  0  0  0  0  0  0  0  0
   38.0910   24.6680   33.9370 N   0  0  0  0  0  0  0  0  0  0  0  0
   37.9140   26.7600   36.6150 H   0  0  0  0  0  0  0  0  0  0  0  0
   37.8710   24.5480   37.7500 H   0  0  0  0  0  0  0  0  0  0  0  0
   38.1030   22.5270   34.1160 H   0  0  0  0  0  0  0  0  0  0  0  0
   33.3360   29.0330   33.9900 F   0  0  0  0  0  0  0  0  0  0  0  0
   34.0960   29.9070   34.7270 C   0  0  0  0  0  0  0  0  0  0  0  0
   35.4700   29.7090   34.7240 C   0  0  0  0  0  0  0  0  0  0  0  0
   36.1410   30.6350   35.4900 C   0  0  0  0  0  0  0  0  0  0  0  0
   37.2150   30.5580   35.5550 H   0  0  0  0  0  0  0  0  0  0  0  0
   35.4980   31.6410   36.1760 C   0  0  0  0  0  0  0  0  0  0  0  0
   36.1200   32.3350   36.7630 H   0  0  0  0  0  0  0  0  0  0  0  0
   34.1250   31.7720   36.1290 C   0  0  0  0  0  3  0  0  0  0  0  0
   33.3840   30.8800   35.3820 C   0  0  0  0  0  3  0  0  0  0  0  0
  1  7  1  6  0  0  0
  1 17  1  0  0  0  0
  1  2  1  0  0  0  0
  2  8  1  0  0  0  0
  2  9  1  0  0  0  0
  3 10  1  1  0  0  0
  3  2  1  0  0  0  0
  3 28  1  0  0  0  0
  4  3  1  0  0  0  0
  5  6  1  0  0  0  0
  5  4  1  0  0  0  0
  6  1  1  0  0  0  0
 11  4  1  0  0  0  0
 12  4  1  0  0  0  0
 13  5  1  0  0  0  0
 14  5  1  0  0  0  0
 15  6  1  0  0  0  0
 16  6  1  0  0  0  0
 17 18  1  0  0  0  0
 18 23  1  0  0  0  0
 18 19  2  0  0  0  0
 19 24  1  0  0  0  0
 20 19  1  0  0  0  0
 21 20  2  0  0  0  0
 22 21  1  0  0  0  0
 22 17  2  0  0  0  0
 25 21  1  0  0  0  0
 26 27  1  0  0  0  0
 27 34  1  0  0  0  0
 28 27  2  0  0  0  0
 28 29  1  0  0  0  0
 29 30  1  0  0  0  0
 29 31  2  0  0  0  0
 31 32  1  0  0  0  0
 33 31  1  0  0  0  0
 34 33  2  0  0  0  0
M  END
>  <minimizedAffinity>
-5.3017211

$$$$

 OpenBabel03262523373D

 34 36  0  0  1  0  0  0  0  0999 V2000
   37.0500   27.9400   31.9750 C   0  0  2  0  0  0  0  0  0  0  0  0
   36.4020   28.5690   33.1840 C   0  0  0  0  0  0  0  0  0  0  0  0
   35.3490   29.5700   32.8170 C   0  0  2  0  0  0  0  0  0  0  0  0
   35.7850   30.6270   31.8590 C   0  0  0  0  0  0  0  0  0  0  0  0
   36.7330   30.1140   30.7900 C   0  0  0  0  0  0  0  0  0  0  0  0
   36.7070   28.6070   30.6940 C   0  0  0  0  0  0  0  0  0  0  0  0
   38.1470   27.9250   32.1870 H   0  0  0  0  0  0  0  0  0  0  0  0
   37.1380   29.0930   33.8140 H   0  0  0  0  0  0  0  0  0  0  0  0
   35.9030   27.8300   33.8580 H   0  0  0  0  0  0  0  0  0  0  0  0
   34.4480   29.0090   32.4410 H   0  0  0  0  0  0  0  0  0  0  0  0
   36.2540   31.4870   32.3390 H   0  0  0  0  0  0  0  0  0  0  0  0
   34.8680   30.9870   31.3210 H   0  0  0  0  0  0  0  0  0  0  0  0
   37.7700   30.4530   31.0260 H   0  0  0  0  0  0  0  0  0  0  0  0
   36.4880   30.5380   29.8150 H   0  0  0  0  0  0  0  0  0  0  0  0
   37.5040   28.3380   29.9510 H   0  0  0  0  0  0  0  0  0  0  0  0
   35.7250   28.2980   30.3260 H   0  0  0  0  0  0  0  0  0  0  0  0
   36.6550   26.5080   31.8720 C   0  0  0  0  0  0  0  0  0  0  0  0
   35.5110   26.2400   31.0980 C   0  0  0  0  0  0  0  0  0  0  0  0
   35.1170   24.8890   31.0120 C   0  0  0  0  0  0  0  0  0  0  0  0
   35.8490   23.9240   31.6740 N   0  0  0  0  0  0  0  0  0  0  0  0
   36.9530   24.2460   32.4120 C   0  0  0  0  0  0  0  0  0  0  0  0
   37.3310   25.5300   32.4950 N   0  0  0  0  0  0  0  0  0  0  0  0
   34.9140   26.9550   30.5690 H   0  0  0  0  0  0  0  0  0  0  0  0
   34.2550   24.5610   30.4470 H   0  0  0  0  0  0  0  0  0  0  0  0
   37.4390   23.4190   32.8780 H   0  0  0  0  0  0  0  0  0  0  0  0
   32.7980   29.3410   33.7920 F   0  0  0  0  0  0  0  0  0  0  0  0
   33.6590   30.0890   34.5570 C   0  0  0  0  0  0  0  0  0  0  0  0
   34.9600   30.2300   34.0900 C   0  0  0  0  0  0  0  0  0  0  0  0
   35.7410   30.9960   34.9250 C   0  0  0  0  0  0  0  0  0  0  0  0
   36.7720   31.1570   34.6490 H   0  0  0  0  0  0  0  0  0  0  0  0
   35.2640   31.5510   36.0920 C   0  0  0  0  0  0  0  0  0  0  0  0
   35.9660   32.1480   36.6940 H   0  0  0  0  0  0  0  0  0  0  0  0
   33.9560   31.3640   36.4880 C   0  0  0  0  0  3  0  0  0  0  0  0
   33.1110   30.6070   35.7020 C   0  0  0  0  0  3  0  0  0  0  0  0
  1  7  1  1  0  0  0
  1  2  1  0  0  0  0
  2  8  1  0  0  0  0
  2  9  1  0  0  0  0
  3 10  1  6  0  0  0
  3  2  1  0  0  0  0
  3 28  1  0  0  0  0
  4 11  1  0  0  0  0
  4  3  1  0  0  0  0
  5 13  1  0  0  0  0
  5  4  1  0  0  0  0
  6  5  1  0  0  0  0
  6  1  1  0  0  0  0
 12  4  1  0  0  0  0
 14  5  1  0  0  0  0
 15  6  1  0  0  0  0
 16  6  1  0  0  0  0
 17  1  1  0  0  0  0
 17 22  1  0  0  0  0
 18 17  2  0  0  0  0
 19 18  1  0  0  0  0
 19 20  2  0  0  0  0
 20 21  1  0  0  0  0
 21 22  2  0  0  0  0
 21 25  1  0  0  0  0
 23 18  1  0  0  0  0
 24 19  1  0  0  0  0
 26 27  1  0  0  0  0
 27 34  1  0  0  0  0
 28 27  2  0  0  0  0
 28 29  1  0  0  0  0
 29 31  2  0  0  0  0
 30 29  1  0  0  0  0
 31 33  1  0  0  0  0
 31 32  1  0  0  0  0
 34 33  2  0  0  0  0
M  END
>  <minimizedAffinity>
-5.23254824

$$$$

 OpenBabel03262523373D

 34 36  0  0  1  0  0  0  0  0999 V2000
   36.3790   23.4560   31.3080 C   0  0  2  0  0  0  0  0  0  0  0  0
   37.5550   24.1180   31.9820 C   0  0  0  0  0  0  0  0  0  0  0  0
   37.1660   25.3580   32.7310 C   0  0  2  0  0  0  0  0  0  0  0  0
   36.3940   26.3600   31.9390 C   0  0  0  0  0  0  0  0  0  0  0  0
   35.4090   25.7310   30.9710 C   0  0  0  0  0  0  0  0  0  0  0  0
   35.1460   24.2810   31.3030 C   0  0  0  0  0  0  0  0  0  0  0  0
   36.7300   23.1760   30.2840 H   0  0  0  0  0  0  0  0  0  0  0  0
   38.3300   24.4120   31.2560 H   0  0  0  0  0  0  0  0  0  0  0  0
   38.0730   23.4620   32.7230 H   0  0  0  0  0  0  0  0  0  0  0  0
   36.6160   25.0460   33.6620 H   0  0  0  0  0  0  0  0  0  0  0  0
   37.0240   27.0520   31.3760 H   0  0  0  0  0  0  0  0  0  0  0  0
   35.7840   26.9590   32.6660 H   0  0  0  0  0  0  0  0  0  0  0  0
   35.8140   25.8070   29.9340 H   0  0  0  0  0  0  0  0  0  0  0  0
   34.4630   26.2740   30.9690 H   0  0  0  0  0  0  0  0  0  0  0  0
   34.4880   23.8970   30.4770 H   0  0  0  0  0  0  0  0  0  0  0  0
   34.6210   24.2320   32.2600 H   0  0  0  0  0  0  0  0  0  0  0  0
   36.0690   22.1630   31.9780 C   0  0  0  0  0  0  0  0  0  0  0  0
   35.3920   21.2110   31.1940 C   0  0  0  0  0  0  0  0  0  0  0  0
   35.0760   19.9920   31.8270 C   0  0  0  0  0  0  0  0  0  0  0  0
   35.4320   19.7970   33.1450 N   0  0  0  0  0  0  0  0  0  0  0  0
   36.0900   20.7610   33.8570 C   0  0  0  0  0  0  0  0  0  0  0  0
   36.3940   21.9220   33.2580 N   0  0  0  0  0  0  0  0  0  0  0  0
   35.0970   21.3190   30.1710 H   0  0  0  0  0  0  0  0  0  0  0  0
   34.5570   19.1850   31.3260 H   0  0  0  0  0  0  0  0  0  0  0  0
   36.3150   20.5000   34.8660 H   0  0  0  0  0  0  0  0  0  0  0  0
   37.6400   25.9070   35.3730 F   0  0  0  0  0  0  0  0  0  0  0  0
   38.6500   26.2470   34.5070 C   0  0  0  0  0  0  0  0  0  0  0  0
   38.4420   25.9880   33.1590 C   0  0  0  0  0  0  0  0  0  0  0  0
   39.5090   26.3640   32.3760 C   0  0  0  0  0  0  0  0  0  0  0  0
   39.4430   26.1960   31.3130 H   0  0  0  0  0  0  0  0  0  0  0  0
   40.6500   26.9350   32.8960 C   0  0  0  0  0  0  0  0  0  0  0  0
   41.4510   27.2030   32.1890 H   0  0  0  0  0  0  0  0  0  0  0  0
   40.7810   27.1610   34.2500 C   0  0  0  0  0  3  0  0  0  0  0  0
   39.7510   26.8090   35.1000 C   0  0  0  0  0  3  0  0  0  0  0  0
  1  7  1  6  0  0  0
  1 17  1  0  0  0  0
  1  2  1  0  0  0  0
  2  9  1  0  0  0  0
  2  3  1  0  0  0  0
  3 28  1  0  0  0  0
  3 10  1  1  0  0  0
  4 12  1  0  0  0  0
  4  3  1  0  0  0  0
  5  6  1  0  0  0  0
  5  4  1  0  0  0  0
  6  1  1  0  0  0  0
  6 16  1  0  0  0  0
  8  2  1  0  0  0  0
 11  4  1  0  0  0  0
 13  5  1  0  0  0  0
 14  5  1  0  0  0  0
 15  6  1  0  0  0  0
 17 22  1  0  0  0  0
 18 19  1  0  0  0  0
 18 17  2  0  0  0  0
 19 20  2  0  0  0  0
 20 21  1  0  0  0  0
 21 25  1  0  0  0  0
 22 21  2  0  0  0  0
 23 18  1  0  0  0  0
 24 19  1  0  0  0  0
 27 34  1  0  0  0  0
 27 26  1  0  0  0  0
 28 27  2  0  0  0  0
 29 31  2  0  0  0  0
 29 28  1  0  0  0  0
 30 29  1  0  0  0  0
 31 33  1  0  0  0  0
 32 31  1  0  0  0  0
 33 34  2  0  0  0  0
M  END
>  <minimizedAffinity>
-5.16359568

$$$$

 OpenBabel03262523373D

 34 36  0  0  1  0  0  0  0  0999 V2000
   38.5050   24.0110   32.2710 C   0  0  2  0  0  0  0  0  0  0  0  0
   38.3820   23.7820   33.7570 C   0  0  0  0  0  0  0  0  0  0  0  0
   39.3670   24.5890   34.5480 C   0  0  2  0  0  0  0  0  0  0  0  0
   40.7900   24.4460   34.1220 C   0  0  0  0  0  0  0  0  0  0  0  0
   40.9570   24.3260   32.6180 C   0  0  0  0  0  0  0  0  0  0  0  0
   39.7180   24.7720   31.8790 C   0  0  0  0  0  0  0  0  0  0  0  0
   38.4450   22.9990   31.7990 H   0  0  0  0  0  0  0  0  0  0  0  0
   38.5450   22.7260   34.0230 H   0  0  0  0  0  0  0  0  0  0  0  0
   37.3750   24.0410   34.1660 H   0  0  0  0  0  0  0  0  0  0  0  0
   39.0320   25.6640   34.5340 H   0  0  0  0  0  0  0  0  0  0  0  0
   41.3030   23.6010   34.5850 H   0  0  0  0  0  0  0  0  0  0  0  0
   41.3240   25.3850   34.4250 H   0  0  0  0  0  0  0  0  0  0  0  0
   41.1840   23.2650   32.3570 H   0  0  0  0  0  0  0  0  0  0  0  0
   41.8090   24.9130   32.2720 H   0  0  0  0  0  0  0  0  0  0  0  0
   39.9170   24.5520   30.7960 H   0  0  0  0  0  0  0  0  0  0  0  0
   39.5890   25.8460   32.0310 H   0  0  0  0  0  0  0  0  0  0  0  0
   37.3130   24.7460   31.7670 C   0  0  0  0  0  0  0  0  0  0  0  0
   36.1910   23.9560   31.4550 C   0  0  0  0  0  0  0  0  0  0  0  0
   35.0640   24.6420   30.9580 C   0  0  0  0  0  0  0  0  0  0  0  0
   35.1150   26.0120   30.8030 N   0  0  0  0  0  0  0  0  0  0  0  0
   36.2360   26.7260   31.1240 C   0  0  0  0  0  0  0  0  0  0  0  0
   37.3090   26.0780   31.5990 N   0  0  0  0  0  0  0  0  0  0  0  0
   36.1070   22.8940   31.5590 H   0  0  0  0  0  0  0  0  0  0  0  0
   34.1440   24.1430   30.6840 H   0  0  0  0  0  0  0  0  0  0  0  0
   36.1600   27.7780   30.9630 H   0  0  0  0  0  0  0  0  0  0  0  0
   37.4440   25.5930   36.2220 F   0  0  0  0  0  0  0  0  0  0  0  0
   38.2620   24.6350   36.7680 C   0  0  0  0  0  0  0  0  0  0  0  0
   39.2520   24.1070   35.9480 C   0  0  0  0  0  0  0  0  0  0  0  0
   40.0160   23.1570   36.5870 C   0  0  0  0  0  0  0  0  0  0  0  0
   40.8090   22.6840   36.0280 H   0  0  0  0  0  0  0  0  0  0  0  0
   39.8050   22.7860   37.8960 C   0  0  0  0  0  0  0  0  0  0  0  0
   40.4690   22.0170   38.3200 H   0  0  0  0  0  0  0  0  0  0  0  0
   38.7980   23.3590   38.6460 C   0  0  0  0  0  3  0  0  0  0  0  0
   37.9890   24.3190   38.0740 C   0  0  0  0  0  3  0  0  0  0  0  0
  1  7  1  6  0  0  0
  1  2  1  0  0  0  0
  2  8  1  0  0  0  0
  2  9  1  0  0  0  0
  2  3  1  0  0  0  0
  3 10  1  6  0  0  0
  3 28  1  0  0  0  0
  4 12  1  0  0  0  0
  4  3  1  0  0  0  0
  4 11  1  0  0  0  0
  5  4  1  0  0  0  0
  6 16  1  0  0  0  0
  6  1  1  0  0  0  0
  6  5  1  0  0  0  0
 13  5  1  0  0  0  0
 14  5  1  0  0  0  0
 15  6  1  0  0  0  0
 17  1  1  0  0  0  0
 18 23  1  0  0  0  0
 18 17  2  0  0  0  0
 19 18  1  0  0  0  0
 20 19  2  0  0  0  0
 20 21  1  0  0  0  0
 21 22  2  0  0  0  0
 22 17  1  0  0  0  0
 24 19  1  0  0  0  0
 25 21  1  0  0  0  0
 26 27  1  0  0  0  0
 27 34  1  0  0  0  0
 28 29  1  0  0  0  0
 28 27  2  0  0  0  0
 29 31  2  0  0  0  0
 30 29  1  0  0  0  0
 31 32  1  0  0  0  0
 31 33  1  0  0  0  0
 34 33  2  0  0  0  0
M  END
>  <minimizedAffinity>
-5.10654116

$$$$

 OpenBabel03262523373D

 34 36  0  0  1  0  0  0  0  0999 V2000
   38.8080   26.3070   35.0020 C   0  0  2  0  0  0  0  0  0  0  0  0
   37.6600   27.2840   34.9510 C   0  0  0  0  0  0  0  0  0  0  0  0
   37.0640   27.4010   33.5810 C   0  0  2  0  0  0  0  0  0  0  0  0
   38.0380   27.6940   32.4890 C   0  0  0  0  0  0  0  0  0  0  0  0
   39.3700   26.9880   32.6670 C   0  0  0  0  0  0  0  0  0  0  0  0
   39.2770   25.8600   33.6670 C   0  0  0  0  0  0  0  0  0  0  0  0
   39.6060   26.8030   35.6090 H   0  0  0  0  0  0  0  0  0  0  0  0
   37.9720   28.2960   35.2530 H   0  0  0  0  0  0  0  0  0  0  0  0
   36.8160   27.0160   35.6320 H   0  0  0  0  0  0  0  0  0  0  0  0
   36.4730   26.4650   33.3750 H   0  0  0  0  0  0  0  0  0  0  0  0
   38.2370   28.7590   32.3540 H   0  0  0  0  0  0  0  0  0  0  0  0
   37.5970   27.2990   31.5350 H   0  0  0  0  0  0  0  0  0  0  0  0
   40.1330   27.7260   33.0100 H   0  0  0  0  0  0  0  0  0  0  0  0
   39.7330   26.5940   31.7170 H   0  0  0  0  0  0  0  0  0  0  0  0
   40.3260   25.4770   33.7890 H   0  0  0  0  0  0  0  0  0  0  0  0
   38.6340   25.0790   33.2520 H   0  0  0  0  0  0  0  0  0  0  0  0
   38.4180   25.1020   35.7850 C   0  0  0  0  0  0  0  0  0  0  0  0
   38.3100   23.9040   35.0540 C   0  0  0  0  0  0  0  0  0  0  0  0
   37.9210   22.7620   35.7830 C   0  0  0  0  0  0  0  0  0  0  0  0
   37.6690   22.8710   37.1350 N   0  0  0  0  0  0  0  0  0  0  0  0
   37.7900   24.0640   37.7900 C   0  0  0  0  0  0  0  0  0  0  0  0
   38.1620   25.1530   37.1010 N   0  0  0  0  0  0  0  0  0  0  0  0
   38.4950   23.7740   34.0080 H   0  0  0  0  0  0  0  0  0  0  0  0
   37.8040   21.7860   35.3310 H   0  0  0  0  0  0  0  0  0  0  0  0
   37.5710   24.0280   38.8330 H   0  0  0  0  0  0  0  0  0  0  0  0
   35.0740   27.6670   31.7160 F   0  0  0  0  0  0  0  0  0  0  0  0
   35.1000   28.6290   32.6960 C   0  0  0  0  0  0  0  0  0  0  0  0
   36.0990   28.5280   33.6560 C   0  0  0  0  0  0  0  0  0  0  0  0
   36.0390   29.5360   34.5900 C   0  0  0  0  0  0  0  0  0  0  0  0
   36.7720   29.5380   35.3820 H   0  0  0  0  0  0  0  0  0  0  0  0
   35.0830   30.5270   34.5580 C   0  0  0  0  0  0  0  0  0  0  0  0
   35.1170   31.2920   35.3500 H   0  0  0  0  0  0  0  0  0  0  0  0
   34.1220   30.5590   33.5690 C   0  0  0  0  0  3  0  0  0  0  0  0
   34.1170   29.5800   32.5960 C   0  0  0  0  0  3  0  0  0  0  0  0
  1  7  1  1  0  0  0
  1 17  1  0  0  0  0
  2  1  1  0  0  0  0
  2  8  1  0  0  0  0
  2  9  1  0  0  0  0
  3 10  1  6  0  0  0
  3 28  1  0  0  0  0
  3  2  1  0  0  0  0
  4  5  1  0  0  0  0
  4  3  1  0  0  0  0
  5 13  1  0  0  0  0
  5  6  1  0  0  0  0
  6 15  1  0  0  0  0
  6  1  1  0  0  0  0
 11  4  1  0  0  0  0
 12  4  1  0  0  0  0
 14  5  1  0  0  0  0
 16  6  1  0  0  0  0
 17 22  1  0  0  0  0
 18 19  1  0  0  0  0
 18 17  2  0  0  0  0
 19 20  2  0  0  0  0
 20 21  1  0  0  0  0
 21 25  1  0  0  0  0
 22 21  2  0  0  0  0
 23 18  1  0  0  0  0
 24 19  1  0  0  0  0
 26 27  1  0  0  0  0
 27 28  1  0  0  0  0
 28 29  2  0  0  0  0
 29 30  1  0  0  0  0
 31 29  1  0  0  0  0
 31 32  1  0  0  0  0
 33 31  2  0  0  0  0
 34 27  2  0  0  0  0
 34 33  1  0  0  0  0
M  END
>  <minimizedAffinity>
-5.07237959

$$$$

 OpenBabel03262523373D

 34 36  0  0  1  0  0  0  0  0999 V2000
   36.4460   23.5370   31.3520 C   0  0  2  0  0  0  0  0  0  0  0  0
   37.6130   24.1820   32.0580 C   0  0  0  0  0  0  0  0  0  0  0  0
   37.2210   25.4210   32.8040 C   0  0  2  0  0  0  0  0  0  0  0  0
   36.4790   26.4370   32.0010 C   0  0  0  0  0  0  0  0  0  0  0  0
   35.5100   25.8250   31.0060 C   0  0  0  0  0  0  0  0  0  0  0  0
   35.2220   24.3760   31.3230 C   0  0  0  0  0  0  0  0  0  0  0  0
   36.8180   23.2590   30.3350 H   0  0  0  0  0  0  0  0  0  0  0  0
   38.4080   24.4700   31.3520 H   0  0  0  0  0  0  0  0  0  0  0  0
   38.1050   23.5150   32.8070 H   0  0  0  0  0  0  0  0  0  0  0  0
   36.6450   25.1110   33.7210 H   0  0  0  0  0  0  0  0  0  0  0  0
   37.1300   27.1250   31.4560 H   0  0  0  0  0  0  0  0  0  0  0  0
   35.8600   27.0390   32.7170 H   0  0  0  0  0  0  0  0  0  0  0  0
   35.9400   25.9030   29.9790 H   0  0  0  0  0  0  0  0  0  0  0  0
   34.5710   26.3790   30.9850 H   0  0  0  0  0  0  0  0  0  0  0  0
   34.5800   24.0050   30.4800 H   0  0  0  0  0  0  0  0  0  0  0  0
   34.6750   24.3280   32.2670 H   0  0  0  0  0  0  0  0  0  0  0  0
   36.1050   22.2440   32.0070 C   0  0  0  0  0  0  0  0  0  0  0  0
   35.3350   21.3510   31.2400 C   0  0  0  0  0  0  0  0  0  0  0  0
   34.9900   20.1330   31.8600 C   0  0  0  0  0  0  0  0  0  0  0  0
   35.4090   19.8830   33.1510 N   0  0  0  0  0  0  0  0  0  0  0  0
   36.1560   20.7920   33.8460 C   0  0  0  0  0  0  0  0  0  0  0  0
   36.4880   21.9510   33.2600 N   0  0  0  0  0  0  0  0  0  0  0  0
   34.9890   21.5020   30.2380 H   0  0  0  0  0  0  0  0  0  0  0  0
   34.4020   19.3680   31.3700 H   0  0  0  0  0  0  0  0  0  0  0  0
   36.4230   20.4910   34.8350 H   0  0  0  0  0  0  0  0  0  0  0  0
   39.0590   26.3600   31.0020 F   0  0  0  0  0  0  0  0  0  0  0  0
   39.4000   26.5030   32.3240 C   0  0  0  0  0  0  0  0  0  0  0  0
   38.4930   26.0340   33.2660 C   0  0  0  0  0  0  0  0  0  0  0  0
   38.9260   26.2230   34.5580 C   0  0  0  0  0  0  0  0  0  0  0  0
   38.2850   25.8950   35.3620 H   0  0  0  0  0  0  0  0  0  0  0  0
   40.1320   26.8160   34.8610 C   0  0  0  0  0  0  0  0  0  0  0  0
   40.3920   26.9230   35.9260 H   0  0  0  0  0  0  0  0  0  0  0  0
   40.9800   27.2570   33.8670 C   0  0  0  0  0  3  0  0  0  0  0  0
   40.6140   27.1020   32.5450 C   0  0  0  0  0  3  0  0  0  0  0  0
  1  7  1  6  0  0  0
  1 17  1  0  0  0  0
  1  2  1  0  0  0  0
  2  3  1  0  0  0  0
  2  9  1  0  0  0  0
  3 28  1  0  0  0  0
  3 10  1  1  0  0  0
  4 12  1  0  0  0  0
  4  3  1  0  0  0  0
  5  6  1  0  0  0  0
  5  4  1  0  0  0  0
  6  1  1  0  0  0  0
  6 16  1  0  0  0  0
  8  2  1  0  0  0  0
 11  4  1  0  0  0  0
 13  5  1  0  0  0  0
 14  5  1  0  0  0  0
 15  6  1  0  0  0  0
 17 22  1  0  0  0  0
 18 19  1  0  0  0  0
 18 17  2  0  0  0  0
 19 20  2  0  0  0  0
 20 21  1  0  0  0  0
 21 25  1  0  0  0  0
 22 21  2  0  0  0  0
 23 18  1  0  0  0  0
 24 19  1  0  0  0  0
 26 27  1  0  0  0  0
 27 34  2  0  0  0  0
 27 28  1  0  0  0  0
 28 29  2  0  0  0  0
 29 31  1  0  0  0  0
 29 30  1  0  0  0  0
 31 32  1  0  0  0  0
 33 31  2  0  0  0  0
 34 33  1  0  0  0  0
M  END
>  <minimizedAffinity>
-5.06125021

$$$$

 OpenBabel03262523373D

 34 36  0  0  1  0  0  0  0  0999 V2000
   36.8330   25.4220   31.3570 C   0  0  2  0  0  0  0  0  0  0  0  0
   36.2400   24.0960   31.7620 C   0  0  0  0  0  0  0  0  0  0  0  0
   37.2750   23.0210   31.9040 C   0  0  2  0  0  0  0  0  0  0  0  0
   38.1730   22.8450   30.7250 C   0  0  0  0  0  0  0  0  0  0  0  0
   38.5410   24.1540   30.0500 C   0  0  0  0  0  0  0  0  0  0  0  0
   38.2550   25.3420   30.9380 C   0  0  0  0  0  0  0  0  0  0  0  0
   36.1590   25.8300   30.5630 H   0  0  0  0  0  0  0  0  0  0  0  0
   35.5030   23.7360   31.0260 H   0  0  0  0  0  0  0  0  0  0  0  0
   35.6960   24.1290   32.7370 H   0  0  0  0  0  0  0  0  0  0  0  0
   37.8570   23.2190   32.8480 H   0  0  0  0  0  0  0  0  0  0  0  0
   37.7680   22.1770   29.9630 H   0  0  0  0  0  0  0  0  0  0  0  0
   39.1330   22.4030   31.1010 H   0  0  0  0  0  0  0  0  0  0  0  0
   37.9630   24.2530   29.1000 H   0  0  0  0  0  0  0  0  0  0  0  0
   39.5940   24.1650   29.7690 H   0  0  0  0  0  0  0  0  0  0  0  0
   38.4720   26.2480   30.3100 H   0  0  0  0  0  0  0  0  0  0  0  0
   38.9290   25.3060   31.7970 H   0  0  0  0  0  0  0  0  0  0  0  0
   36.7350   26.3900   32.4840 C   0  0  0  0  0  0  0  0  0  0  0  0
   36.1850   27.6460   32.1690 C   0  0  0  0  0  0  0  0  0  0  0  0
   36.1080   28.5760   33.2260 C   0  0  0  0  0  0  0  0  0  0  0  0
   36.5640   28.2220   34.4790 N   0  0  0  0  0  0  0  0  0  0  0  0
   37.0900   26.9840   34.7230 C   0  0  0  0  0  0  0  0  0  0  0  0
   37.1640   26.0960   33.7210 N   0  0  0  0  0  0  0  0  0  0  0  0
   35.8200   27.9640   31.2140 H   0  0  0  0  0  0  0  0  0  0  0  0
   35.7050   29.5730   33.1060 H   0  0  0  0  0  0  0  0  0  0  0  0
   37.4090   26.8220   35.7280 H   0  0  0  0  0  0  0  0  0  0  0  0
   36.9810   21.9480   34.4080 F   0  0  0  0  0  0  0  0  0  0  0  0
   36.3870   21.2450   33.3890 C   0  0  0  0  0  0  0  0  0  0  0  0
   36.5200   21.7580   32.1050 C   0  0  0  0  0  0  0  0  0  0  0  0
   35.8920   20.9820   31.1580 C   0  0  0  0  0  0  0  0  0  0  0  0
   35.9350   21.3040   30.1290 H   0  0  0  0  0  0  0  0  0  0  0  0
   35.2110   19.8270   31.4720 C   0  0  0  0  0  0  0  0  0  0  0  0
   34.7410   19.2740   30.6440 H   0  0  0  0  0  0  0  0  0  0  0  0
   35.1240   19.3820   32.7750 C   0  0  0  0  0  3  0  0  0  0  0  0
   35.7290   20.1080   33.7810 C   0  0  0  0  0  3  0  0  0  0  0  0
  1  7  1  6  0  0  0
  1  2  1  0  0  0  0
  1 17  1  0  0  0  0
  2  3  1  0  0  0  0
  2  9  1  0  0  0  0
  3 28  1  0  0  0  0
  3 10  1  1  0  0  0
  4 12  1  0  0  0  0
  4  3  1  0  0  0  0
  5  4  1  0  0  0  0
  5  6  1  0  0  0  0
  6  1  1  0  0  0  0
  6 16  1  0  0  0  0
  8  2  1  0  0  0  0
 11  4  1  0  0  0  0
 13  5  1  0  0  0  0
 14  5  1  0  0  0  0
 15  6  1  0  0  0  0
 17 22  1  0  0  0  0
 18 17  2  0  0  0  0
 18 19  1  0  0  0  0
 19 20  2  0  0  0  0
 20 21  1  0  0  0  0
 21 25  1  0  0  0  0
 22 21  2  0  0  0  0
 23 18  1  0  0  0  0
 24 19  1  0  0  0  0
 27 34  1  0  0  0  0
 27 26  1  0  0  0  0
 28 27  2  0  0  0  0
 29 31  2  0  0  0  0
 29 28  1  0  0  0  0
 30 29  1  0  0  0  0
 31 33  1  0  0  0  0
 32 31  1  0  0  0  0
 33 34  2  0  0  0  0
M  END
>  <minimizedAffinity>
-5.03970289

$$$$
