
 OpenBabel03262521133D

 31 33  0  0  0  0  0  0  0  0999 V2000
   31.9290   29.1990   46.1940 C   0  0  0  0  0  0  0  0  0  0  0  0
   31.1730   28.5370   45.2570 C   0  0  0  0  0  0  0  0  0  0  0  0
   30.1840   27.9020   45.8630 N   0  0  0  0  0  0  0  0  0  0  0  0
   30.2590   28.1250   47.1910 C   0  0  0  0  0  0  0  0  0  0  0  0
   31.3360   28.9220   47.3680 N   0  0  0  0  0  0  0  0  0  0  0  0
   31.4110   28.5720   44.1840 H   0  0  0  0  0  0  0  0  0  0  0  0
   29.4610   27.3250   45.4030 H   0  0  0  0  0  0  0  0  0  0  0  0
   31.0900   27.9980   49.8610 F   0  0  0  0  0  0  0  0  0  0  0  0
   29.8370   27.5820   49.5580 C   0  0  0  0  0  0  0  0  0  0  0  0
   29.3760   27.6240   48.2480 C   0  0  0  0  0  0  0  0  0  0  0  0
   28.0970   27.2130   47.8600 C   0  0  0  0  0  0  0  0  0  0  0  0
   27.8020   27.2730   46.8180 H   0  0  0  0  0  0  0  0  0  0  0  0
   27.2470   26.7350   48.8590 C   0  0  0  0  0  0  0  0  0  0  0  0
   26.2840   26.4290   48.5360 H   0  0  0  0  0  0  0  0  0  0  0  0
   27.7220   26.6990   50.1540 C   0  0  0  0  0  0  0  0  0  0  0  0
   28.9830   27.1040   50.5420 C   0  0  0  0  0  0  0  0  0  0  0  0
   33.0670   29.9960   46.0340 O   0  0  0  0  0  0  0  0  0  0  0  0
   35.6350   29.9060   46.1190 O   0  0  0  0  0  0  0  0  0  0  0  0
   34.4130   29.6130   46.9720 P   0  0  2  0  0  0  0  0  0  0  0  0
   34.3720   27.9840   47.4360 O   0  0  0  0  0  0  0  0  0  0  0  0
   35.2750   27.7460   47.8010 H   0  0  0  0  0  0  0  0  0  0  0  0
   34.3960   30.5230   48.4240 O   0  0  0  0  0  0  0  0  0  0  0  0
   35.3940   30.4050   49.3800 C   0  0  0  0  0  0  0  0  0  0  0  0
   35.4320   29.4830   50.4260 C   0  0  0  0  0  0  0  0  0  0  0  0
   36.5140   29.5160   51.2870 C   0  0  0  0  0  0  0  0  0  0  0  0
   37.4920   30.4200   51.0990 N   0  0  0  0  0  0  0  0  0  0  0  0
   37.4300   31.3180   50.0590 C   0  0  0  0  0  0  0  0  0  0  0  0
   36.3840   31.3030   49.2080 N   0  0  0  0  0  0  0  0  0  0  0  0
   34.5990   28.8070   50.4810 H   0  0  0  0  0  0  0  0  0  0  0  0
   36.5350   28.7980   52.0950 H   0  0  0  0  0  0  0  0  0  0  0  0
   38.2540   32.0400   49.9470 H   0  0  0  0  0  0  0  0  0  0  0  0
  1  5  1  0  0  0  0
  2  3  1  0  0  0  0
  2  1  2  0  0  0  0
  3  4  1  0  0  0  0
  4  5  2  0  0  0  0
  4 10  1  0  0  0  0
  6  2  1  0  0  0  0
  7  3  1  0  0  0  0
  9  8  1  0  0  0  0
  9 16  1  0  0  0  0
 10  9  2  0  0  0  0
 11 10  1  0  0  0  0
 11 13  2  0  0  0  0
 12 11  1  0  0  0  0
 13 15  1  0  0  0  0
 14 13  1  0  0  0  0
 15 16  2  0  0  0  0
 17  1  1  0  0  0  0
 17 19  1  0  0  0  0
 19 18  2  6  0  0  0
 19 20  1  0  0  0  0
 19 22  1  0  0  0  0
 20 21  1  0  0  0  0
 22 23  1  0  0  0  0
 23 24  1  0  0  0  0
 24 29  1  0  0  0  0
 24 25  2  0  0  0  0
 25 30  1  0  0  0  0
 26 25  1  0  0  0  0
 27 26  2  0  0  0  0
 28 23  2  0  0  0  0
 28 27  1  0  0  0  0
 31 27  1  0  0  0  0
M  END
>  <minimizedAffinity>
-5.29555273

>  <minimizedRMSD>
1.41641378

$$$$
