
 OpenBabel03272506193D

 34 36  0  0  0  0  0  0  0  0999 V2000
   36.5460   28.2240   33.3440 C   0  0  0  0  0  0  0  0  0  0  0  0
   35.9930   28.8620   34.4630 C   0  0  0  0  0  0  0  0  0  0  0  0
   35.1550   29.9560   34.2180 C   0  0  0  0  0  0  0  0  0  0  0  0
   34.9210   30.3420   32.9120 N   0  0  0  0  0  0  0  0  0  0  0  0
   35.4790   29.6970   31.8670 C   0  0  0  0  0  0  0  0  0  0  0  0
   36.2830   28.6470   32.0840 N   0  0  0  0  0  0  0  0  0  0  0  0
   36.1460   28.5920   35.4720 H   0  0  0  0  0  0  0  0  0  0  0  0
   35.2750   30.0240   30.8630 H   0  0  0  0  0  0  0  0  0  0  0  0
   37.4280   27.0480   33.6170 C   0  0  0  0  0  0  0  0  0  0  0  0
   37.5820   26.8640   35.1100 C   0  0  0  0  0  0  0  0  0  0  0  0
   38.9670   27.1870   35.5870 C   0  0  0  0  0  0  0  0  0  0  0  0
   40.0260   26.3980   34.8680 C   0  0  0  0  0  0  0  0  0  0  0  0
   39.8320   26.3770   33.3830 C   0  0  0  0  0  0  0  0  0  0  0  0
   38.7090   27.2610   32.9000 C   0  0  0  0  0  0  0  0  0  0  0  0
   36.8610   26.1730   33.2200 H   0  0  0  0  0  0  0  0  0  0  0  0
   37.4080   25.7970   35.3620 H   0  0  0  0  0  0  0  0  0  0  0  0
   36.8600   27.4360   35.7130 H   0  0  0  0  0  0  0  0  0  0  0  0
   38.9960   26.8890   36.6700 H   0  0  0  0  0  0  0  0  0  0  0  0
   39.1130   28.2730   35.4810 H   0  0  0  0  0  0  0  0  0  0  0  0
   39.9870   25.3490   35.2630 H   0  0  0  0  0  0  0  0  0  0  0  0
   41.0110   26.8080   35.1710 H   0  0  0  0  0  0  0  0  0  0  0  0
   40.7600   26.7870   32.9240 H   0  0  0  0  0  0  0  0  0  0  0  0
   39.7410   25.3340   33.0190 H   0  0  0  0  0  0  0  0  0  0  0  0
   39.0440   28.3110   32.8740 H   0  0  0  0  0  0  0  0  0  0  0  0
   38.5560   26.9900   31.8240 H   0  0  0  0  0  0  0  0  0  0  0  0
   36.5690   31.7450   35.8090 F   0  0  0  0  0  0  0  0  0  0  0  0
   35.2250   31.5980   36.0460 C   0  0  0  0  0  0  0  0  0  0  0  0
   34.5120   30.7150   35.2640 C   0  0  0  0  0  0  0  0  0  0  0  0
   33.1770   30.6490   35.5890 C   0  0  0  0  0  0  0  0  0  0  0  0
   32.5370   29.9840   35.0310 H   0  0  0  0  0  0  0  0  0  0  0  0
   32.5760   31.3800   36.5900 C   0  0  0  0  0  0  0  0  0  0  0  0
   31.5150   31.2850   36.8010 H   0  0  0  0  0  0  0  0  0  0  0  0
   33.3470   32.2430   37.3330 C   0  0  0  0  0  3  0  0  0  0  0  0
   34.6920   32.3470   37.0490 C   0  0  0  0  0  3  0  0  0  0  0  0
  1  9  1  0  0  0  0
  1  2  1  0  0  0  0
  2  7  1  0  0  0  0
  3  2  2  0  0  0  0
  3 28  1  0  0  0  0
  4  3  1  0  0  0  0
  5  6  1  0  0  0  0
  5  4  2  0  0  0  0
  6  1  2  0  0  0  0
  8  5  1  0  0  0  0
  9 10  1  0  0  0  0
 10 16  1  0  0  0  0
 10 11  1  0  0  0  0
 10 17  1  0  0  0  0
 11 18  1  0  0  0  0
 12 21  1  0  0  0  0
 12 20  1  0  0  0  0
 12 11  1  0  0  0  0
 13 12  1  0  0  0  0
 14 13  1  0  0  0  0
 14  9  1  0  0  0  0
 15  9  1  0  0  0  0
 19 11  1  0  0  0  0
 22 13  1  0  0  0  0
 23 13  1  0  0  0  0
 24 14  1  0  0  0  0
 25 14  1  0  0  0  0
 26 27  1  0  0  0  0
 27 34  1  0  0  0  0
 28 29  1  0  0  0  0
 28 27  2  0  0  0  0
 29 31  2  0  0  0  0
 30 29  1  0  0  0  0
 31 32  1  0  0  0  0
 31 33  1  0  0  0  0
 34 33  2  0  0  0  0
M  END
>  <minimizedAffinity>
-5.89503241

$$$$

 OpenBabel03272506193D

 34 36  0  0  0  0  0  0  0  0999 V2000
   36.9870   25.4600   32.6030 C   0  0  0  0  0  0  0  0  0  0  0  0
   36.9960   24.0570   32.6040 C   0  0  0  0  0  0  0  0  0  0  0  0
   36.1010   23.4190   31.7390 C   0  0  0  0  0  0  0  0  0  0  0  0
   35.2710   24.1870   30.9450 N   0  0  0  0  0  0  0  0  0  0  0  0
   35.2990   25.5350   30.9810 C   0  0  0  0  0  0  0  0  0  0  0  0
   36.1500   26.1630   31.8030 N   0  0  0  0  0  0  0  0  0  0  0  0
   37.6180   23.4400   33.1930 H   0  0  0  0  0  0  0  0  0  0  0  0
   34.6400   26.1020   30.3490 H   0  0  0  0  0  0  0  0  0  0  0  0
   37.9580   26.1320   33.5210 C   0  0  0  0  0  0  0  0  0  0  0  0
   38.5600   25.1110   34.4600 C   0  0  0  0  0  0  0  0  0  0  0  0
   38.0970   25.2930   35.8760 C   0  0  0  0  0  0  0  0  0  0  0  0
   38.3600   26.6780   36.3970 C   0  0  0  0  0  0  0  0  0  0  0  0
   37.9590   27.7520   35.4340 C   0  0  0  0  0  0  0  0  0  0  0  0
   37.2470   27.2390   34.2070 C   0  0  0  0  0  0  0  0  0  0  0  0
   38.7690   26.5010   32.8510 H   0  0  0  0  0  0  0  0  0  0  0  0
   39.6620   25.2400   34.4750 H   0  0  0  0  0  0  0  0  0  0  0  0
   38.3840   24.0650   34.1650 H   0  0  0  0  0  0  0  0  0  0  0  0
   38.7040   24.5750   36.4920 H   0  0  0  0  0  0  0  0  0  0  0  0
   37.0290   25.0280   35.9160 H   0  0  0  0  0  0  0  0  0  0  0  0
   39.4600   26.7550   36.6030 H   0  0  0  0  0  0  0  0  0  0  0  0
   37.8540   26.7660   37.3800 H   0  0  0  0  0  0  0  0  0  0  0  0
   37.2270   28.4080   35.9570 H   0  0  0  0  0  0  0  0  0  0  0  0
   38.8280   28.3940   35.1860 H   0  0  0  0  0  0  0  0  0  0  0  0
   36.1940   27.0180   34.4500 H   0  0  0  0  0  0  0  0  0  0  0  0
   37.1950   28.1090   33.5050 H   0  0  0  0  0  0  0  0  0  0  0  0
   37.9410   21.9200   30.2900 F   0  0  0  0  0  0  0  0  0  0  0  0
   36.9110   21.2520   30.9050 C   0  0  0  0  0  0  0  0  0  0  0  0
   35.9920   21.9840   31.6270 C   0  0  0  0  0  0  0  0  0  0  0  0
   35.0060   21.2140   32.1980 C   0  0  0  0  0  0  0  0  0  0  0  0
   34.2400   21.6970   32.7830 H   0  0  0  0  0  0  0  0  0  0  0  0
   34.9140   19.8440   32.0820 C   0  0  0  0  0  0  0  0  0  0  0  0
   34.1100   19.2890   32.5570 H   0  0  0  0  0  0  0  0  0  0  0  0
   35.8650   19.1770   31.3460 C   0  0  0  0  0  3  0  0  0  0  0  0
   36.8760   19.9010   30.7520 C   0  0  0  0  0  3  0  0  0  0  0  0
  1  2  1  0  0  0  0
  1  9  1  0  0  0  0
  2  7  1  0  0  0  0
  3  2  2  0  0  0  0
  4  5  2  0  0  0  0
  4  3  1  0  0  0  0
  5  6  1  0  0  0  0
  6  1  2  0  0  0  0
  8  5  1  0  0  0  0
  9 14  1  0  0  0  0
  9 10  1  0  0  0  0
 10 16  1  0  0  0  0
 10 11  1  0  0  0  0
 11 19  1  0  0  0  0
 11 12  1  0  0  0  0
 11 18  1  0  0  0  0
 12 20  1  0  0  0  0
 12 21  1  0  0  0  0
 13 22  1  0  0  0  0
 13 12  1  0  0  0  0
 14 24  1  0  0  0  0
 14 13  1  0  0  0  0
 15  9  1  0  0  0  0
 17 10  1  0  0  0  0
 23 13  1  0  0  0  0
 25 14  1  0  0  0  0
 26 27  1  0  0  0  0
 27 28  1  0  0  0  0
 28  3  1  0  0  0  0
 28 29  2  0  0  0  0
 29 30  1  0  0  0  0
 31 29  1  0  0  0  0
 31 32  1  0  0  0  0
 33 31  2  0  0  0  0
 34 27  2  0  0  0  0
 34 33  1  0  0  0  0
M  END
>  <minimizedAffinity>
-5.69686317

$$$$

 OpenBabel03272506193D

 34 36  0  0  0  0  0  0  0  0999 V2000
   36.7080   22.7130   31.1470 C   0  0  0  0  0  0  0  0  0  0  0  0
   36.2340   23.8600   31.8020 C   0  0  0  0  0  0  0  0  0  0  0  0
   37.0560   24.9920   31.7680 C   0  0  0  0  0  0  0  0  0  0  0  0
   38.2660   24.9240   31.1060 N   0  0  0  0  0  0  0  0  0  0  0  0
   38.6800   23.7960   30.4910 C   0  0  0  0  0  0  0  0  0  0  0  0
   37.9060   22.7030   30.5130 N   0  0  0  0  0  0  0  0  0  0  0  0
   35.3150   23.9490   32.3130 H   0  0  0  0  0  0  0  0  0  0  0  0
   39.6270   23.7780   29.9840 H   0  0  0  0  0  0  0  0  0  0  0  0
   35.8170   21.5140   31.1770 C   0  0  0  0  0  0  0  0  0  0  0  0
   35.0640   21.4720   32.4880 C   0  0  0  0  0  0  0  0  0  0  0  0
   35.5170   20.3480   33.3720 C   0  0  0  0  0  0  0  0  0  0  0  0
   35.4300   19.0080   32.6960 C   0  0  0  0  0  0  0  0  0  0  0  0
   35.9900   19.0160   31.3070 C   0  0  0  0  0  0  0  0  0  0  0  0
   36.6540   20.3150   30.9230 C   0  0  0  0  0  0  0  0  0  0  0  0
   35.0760   21.6930   30.3630 H   0  0  0  0  0  0  0  0  0  0  0  0
   33.9900   21.2910   32.2820 H   0  0  0  0  0  0  0  0  0  0  0  0
   35.1060   22.4100   33.0640 H   0  0  0  0  0  0  0  0  0  0  0  0
   34.8070   20.3370   34.2440 H   0  0  0  0  0  0  0  0  0  0  0  0
   36.5390   20.5780   33.7110 H   0  0  0  0  0  0  0  0  0  0  0  0
   34.3460   18.7230   32.6580 H   0  0  0  0  0  0  0  0  0  0  0  0
   35.9220   18.2670   33.3590 H   0  0  0  0  0  0  0  0  0  0  0  0
   36.7920   18.2440   31.2710 H   0  0  0  0  0  0  0  0  0  0  0  0
   35.2200   18.6970   30.5770 H   0  0  0  0  0  0  0  0  0  0  0  0
   37.6620   20.3660   31.3660 H   0  0  0  0  0  0  0  0  0  0  0  0
   36.8360   20.2440   29.8210 H   0  0  0  0  0  0  0  0  0  0  0  0
   37.8360   25.5960   34.3680 F   0  0  0  0  0  0  0  0  0  0  0  0
   37.1000   26.5320   33.6840 C   0  0  0  0  0  0  0  0  0  0  0  0
   36.7070   26.2450   32.3940 C   0  0  0  0  0  0  0  0  0  0  0  0
   35.9770   27.2520   31.8070 C   0  0  0  0  0  0  0  0  0  0  0  0
   35.6250   27.1200   30.7970 H   0  0  0  0  0  0  0  0  0  0  0  0
   35.6520   28.4440   32.4170 C   0  0  0  0  0  0  0  0  0  0  0  0
   35.0710   29.2030   31.9020 H   0  0  0  0  0  0  0  0  0  0  0  0
   36.0760   28.6640   33.7060 C   0  0  0  0  0  3  0  0  0  0  0  0
   36.8110   27.6880   34.3420 C   0  0  0  0  0  3  0  0  0  0  0  0
  1  9  1  0  0  0  0
  1  2  1  0  0  0  0
  2  7  1  0  0  0  0
  3  2  2  0  0  0  0
  3 28  1  0  0  0  0
  4  3  1  0  0  0  0
  5  6  1  0  0  0  0
  5  4  2  0  0  0  0
  6  1  2  0  0  0  0
  8  5  1  0  0  0  0
  9 10  1  0  0  0  0
 10 17  1  0  0  0  0
 10 11  1  0  0  0  0
 11 19  1  0  0  0  0
 11 18  1  0  0  0  0
 12 21  1  0  0  0  0
 12 11  1  0  0  0  0
 13 12  1  0  0  0  0
 14  9  1  0  0  0  0
 14 13  1  0  0  0  0
 14 24  1  0  0  0  0
 15  9  1  0  0  0  0
 16 10  1  0  0  0  0
 20 12  1  0  0  0  0
 22 13  1  0  0  0  0
 23 13  1  0  0  0  0
 25 14  1  0  0  0  0
 27 34  1  0  0  0  0
 27 26  1  0  0  0  0
 28 27  2  0  0  0  0
 29 28  1  0  0  0  0
 29 31  2  0  0  0  0
 30 29  1  0  0  0  0
 31 33  1  0  0  0  0
 32 31  1  0  0  0  0
 33 34  2  0  0  0  0
M  END
>  <minimizedAffinity>
-5.43115044

$$$$

 OpenBabel03272506193D

 34 36  0  0  0  0  0  0  0  0999 V2000
   36.7970   22.5910   32.3750 C   0  0  0  0  0  0  0  0  0  0  0  0
   37.4040   22.2500   33.5930 C   0  0  0  0  0  0  0  0  0  0  0  0
   38.1130   23.2620   34.2500 C   0  0  0  0  0  0  0  0  0  0  0  0
   38.1780   24.5180   33.6770 N   0  0  0  0  0  0  0  0  0  0  0  0
   37.5770   24.7960   32.5020 C   0  0  0  0  0  0  0  0  0  0  0  0
   36.8930   23.8400   31.8590 N   0  0  0  0  0  0  0  0  0  0  0  0
   37.3720   21.3050   34.0610 H   0  0  0  0  0  0  0  0  0  0  0  0
   37.6470   25.7850   32.0850 H   0  0  0  0  0  0  0  0  0  0  0  0
   36.0290   21.5070   31.6890 C   0  0  0  0  0  0  0  0  0  0  0  0
   35.1000   20.8380   32.6770 C   0  0  0  0  0  0  0  0  0  0  0  0
   35.5240   19.4360   33.0020 C   0  0  0  0  0  0  0  0  0  0  0  0
   35.6650   18.5750   31.7770 C   0  0  0  0  0  0  0  0  0  0  0  0
   36.4200   19.2490   30.6730 C   0  0  0  0  0  0  0  0  0  0  0  0
   37.0050   20.5850   31.0580 C   0  0  0  0  0  0  0  0  0  0  0  0
   35.4020   22.0390   30.9360 H   0  0  0  0  0  0  0  0  0  0  0  0
   34.0890   20.7600   32.2260 H   0  0  0  0  0  0  0  0  0  0  0  0
   34.9660   21.3920   33.6190 H   0  0  0  0  0  0  0  0  0  0  0  0
   34.6980   19.0030   33.6300 H   0  0  0  0  0  0  0  0  0  0  0  0
   36.4580   19.4940   33.5810 H   0  0  0  0  0  0  0  0  0  0  0  0
   34.6310   18.3260   31.4220 H   0  0  0  0  0  0  0  0  0  0  0  0
   36.1230   17.6160   32.0950 H   0  0  0  0  0  0  0  0  0  0  0  0
   37.2880   18.5980   30.4230 H   0  0  0  0  0  0  0  0  0  0  0  0
   35.7990   19.3030   29.7560 H   0  0  0  0  0  0  0  0  0  0  0  0
   37.9280   20.4340   31.6430 H   0  0  0  0  0  0  0  0  0  0  0  0
   37.3530   21.0470   30.1000 H   0  0  0  0  0  0  0  0  0  0  0  0
   40.5420   21.9170   34.4110 F   0  0  0  0  0  0  0  0  0  0  0  0
   39.9960   22.3990   35.5750 C   0  0  0  0  0  0  0  0  0  0  0  0
   38.7920   23.0670   35.5090 C   0  0  0  0  0  0  0  0  0  0  0  0
   38.3400   23.5040   36.7320 C   0  0  0  0  0  0  0  0  0  0  0  0
   37.4060   24.0390   36.7820 H   0  0  0  0  0  0  0  0  0  0  0  0
   38.9990   23.3110   37.9270 C   0  0  0  0  0  0  0  0  0  0  0  0
   38.5910   23.6800   38.8640 H   0  0  0  0  0  0  0  0  0  0  0  0
   40.1960   22.6340   37.9200 C   0  0  0  0  0  3  0  0  0  0  0  0
   40.6950   22.1750   36.7210 C   0  0  0  0  0  3  0  0  0  0  0  0
  1  2  1  0  0  0  0
  2  7  1  0  0  0  0
  2  3  2  0  0  0  0
  3 28  1  0  0  0  0
  4  3  1  0  0  0  0
  5  4  2  0  0  0  0
  6  1  2  0  0  0  0
  6  5  1  0  0  0  0
  8  5  1  0  0  0  0
  9  1  1  0  0  0  0
  9 10  1  0  0  0  0
 10 11  1  0  0  0  0
 10 17  1  0  0  0  0
 11 19  1  0  0  0  0
 11 18  1  0  0  0  0
 12 21  1  0  0  0  0
 12 11  1  0  0  0  0
 13 14  1  0  0  0  0
 13 12  1  0  0  0  0
 14 24  1  0  0  0  0
 14  9  1  0  0  0  0
 15  9  1  0  0  0  0
 16 10  1  0  0  0  0
 20 12  1  0  0  0  0
 22 13  1  0  0  0  0
 23 13  1  0  0  0  0
 25 14  1  0  0  0  0
 26 27  1  0  0  0  0
 27 34  1  0  0  0  0
 28 27  2  0  0  0  0
 28 29  1  0  0  0  0
 29 30  1  0  0  0  0
 29 31  2  0  0  0  0
 31 32  1  0  0  0  0
 33 31  1  0  0  0  0
 34 33  2  0  0  0  0
M  END
>  <minimizedAffinity>
-5.3828392

$$$$

 OpenBabel03272506193D

 34 36  0  0  0  0  0  0  0  0999 V2000
   37.6340   26.2990   32.9500 C   0  0  0  0  0  0  0  0  0  0  0  0
   37.9670   25.9790   34.2740 C   0  0  0  0  0  0  0  0  0  0  0  0
   38.0710   24.6200   34.5890 C   0  0  0  0  0  0  0  0  0  0  0  0
   37.8430   23.6820   33.6000 N   0  0  0  0  0  0  0  0  0  0  0  0
   37.5230   24.0400   32.3390 C   0  0  0  0  0  0  0  0  0  0  0  0
   37.4200   25.3370   32.0200 N   0  0  0  0  0  0  0  0  0  0  0  0
   38.1520   26.6670   35.0530 H   0  0  0  0  0  0  0  0  0  0  0  0
   37.3530   23.2840   31.5940 H   0  0  0  0  0  0  0  0  0  0  0  0
   37.5400   27.7540   32.6210 C   0  0  0  0  0  0  0  0  0  0  0  0
   36.3130   28.3460   33.2760 C   0  0  0  0  0  0  0  0  0  0  0  0
   35.2560   28.7200   32.2800 C   0  0  0  0  0  0  0  0  0  0  0  0
   35.7650   29.6570   31.2200 C   0  0  0  0  0  0  0  0  0  0  0  0
   37.0830   29.2340   30.6490 C   0  0  0  0  0  0  0  0  0  0  0  0
   37.5610   27.8910   31.1430 C   0  0  0  0  0  0  0  0  0  0  0  0
   38.4380   28.2100   33.1000 H   0  0  0  0  0  0  0  0  0  0  0  0
   36.5970   29.2850   33.7940 H   0  0  0  0  0  0  0  0  0  0  0  0
   35.8580   27.7050   34.0470 H   0  0  0  0  0  0  0  0  0  0  0  0
   34.4620   29.2630   32.8630 H   0  0  0  0  0  0  0  0  0  0  0  0
   34.8520   27.7890   31.8540 H   0  0  0  0  0  0  0  0  0  0  0  0
   35.8710   30.6690   31.6920 H   0  0  0  0  0  0  0  0  0  0  0  0
   34.9700   29.7550   30.4520 H   0  0  0  0  0  0  0  0  0  0  0  0
   36.9450   29.1210   29.5500 H   0  0  0  0  0  0  0  0  0  0  0  0
   37.8390   30.0330   30.7860 H   0  0  0  0  0  0  0  0  0  0  0  0
   37.0320   27.0850   30.6070 H   0  0  0  0  0  0  0  0  0  0  0  0
   38.6220   27.8060   30.8000 H   0  0  0  0  0  0  0  0  0  0  0  0
   40.4690   23.3070   35.0980 F   0  0  0  0  0  0  0  0  0  0  0  0
   39.5980   23.4830   36.1450 C   0  0  0  0  0  0  0  0  0  0  0  0
   38.4060   24.1320   35.9060 C   0  0  0  0  0  0  0  0  0  0  0  0
   37.6130   24.2520   37.0240 C   0  0  0  0  0  0  0  0  0  0  0  0
   36.6600   24.7470   36.9360 H   0  0  0  0  0  0  0  0  0  0  0  0
   37.9460   23.7820   38.2760 C   0  0  0  0  0  0  0  0  0  0  0  0
   37.2770   23.9070   39.1230 H   0  0  0  0  0  0  0  0  0  0  0  0
   39.1520   23.1430   38.4430 C   0  0  0  0  0  3  0  0  0  0  0  0
   39.9840   22.9960   37.3550 C   0  0  0  0  0  3  0  0  0  0  0  0
  1  2  1  0  0  0  0
  2  3  2  0  0  0  0
  2  7  1  0  0  0  0
  3 28  1  0  0  0  0
  4  3  1  0  0  0  0
  5  4  2  0  0  0  0
  6  5  1  0  0  0  0
  6  1  2  0  0  0  0
  8  5  1  0  0  0  0
  9  1  1  0  0  0  0
  9 15  1  0  0  0  0
  9 10  1  0  0  0  0
 10 16  1  0  0  0  0
 10 17  1  0  0  0  0
 11 18  1  0  0  0  0
 11 10  1  0  0  0  0
 12 20  1  0  0  0  0
 12 11  1  0  0  0  0
 13 23  1  0  0  0  0
 13 14  1  0  0  0  0
 13 12  1  0  0  0  0
 14  9  1  0  0  0  0
 19 11  1  0  0  0  0
 21 12  1  0  0  0  0
 22 13  1  0  0  0  0
 24 14  1  0  0  0  0
 25 14  1  0  0  0  0
 26 27  1  0  0  0  0
 27 34  1  0  0  0  0
 28 27  2  0  0  0  0
 28 29  1  0  0  0  0
 29 31  2  0  0  0  0
 30 29  1  0  0  0  0
 31 33  1  0  0  0  0
 31 32  1  0  0  0  0
 34 33  2  0  0  0  0
M  END
>  <minimizedAffinity>
-5.34512377

$$$$

 OpenBabel03272506193D

 34 36  0  0  0  0  0  0  0  0999 V2000
   37.6690   22.6800   32.3450 C   0  0  0  0  0  0  0  0  0  0  0  0
   37.8420   22.4930   33.7240 C   0  0  0  0  0  0  0  0  0  0  0  0
   38.4210   23.5480   34.4380 C   0  0  0  0  0  0  0  0  0  0  0  0
   38.7850   24.6960   33.7610 N   0  0  0  0  0  0  0  0  0  0  0  0
   38.5990   24.8290   32.4320 C   0  0  0  0  0  0  0  0  0  0  0  0
   38.0460   23.8290   31.7330 N   0  0  0  0  0  0  0  0  0  0  0  0
   37.5730   21.6330   34.2740 H   0  0  0  0  0  0  0  0  0  0  0  0
   38.8930   25.7370   31.9370 H   0  0  0  0  0  0  0  0  0  0  0  0
   37.0370   21.5530   31.5940 C   0  0  0  0  0  0  0  0  0  0  0  0
   35.5540   21.8100   31.4440 C   0  0  0  0  0  0  0  0  0  0  0  0
   34.7240   20.8680   32.2650 C   0  0  0  0  0  0  0  0  0  0  0  0
   35.0190   19.4250   31.9660 C   0  0  0  0  0  0  0  0  0  0  0  0
   36.4860   19.1280   31.9110 C   0  0  0  0  0  0  0  0  0  0  0  0
   37.3610   20.2910   32.3050 C   0  0  0  0  0  0  0  0  0  0  0  0
   37.4970   21.5970   30.5790 H   0  0  0  0  0  0  0  0  0  0  0  0
   35.2630   21.6400   30.3870 H   0  0  0  0  0  0  0  0  0  0  0  0
   35.2480   22.8420   31.6770 H   0  0  0  0  0  0  0  0  0  0  0  0
   33.6560   21.0650   31.9720 H   0  0  0  0  0  0  0  0  0  0  0  0
   34.8850   21.1160   33.3260 H   0  0  0  0  0  0  0  0  0  0  0  0
   34.5540   19.1870   30.9730 H   0  0  0  0  0  0  0  0  0  0  0  0
   34.4800   18.8120   32.7170 H   0  0  0  0  0  0  0  0  0  0  0  0
   36.6880   18.3290   32.6600 H   0  0  0  0  0  0  0  0  0  0  0  0
   36.7590   18.7030   30.9240 H   0  0  0  0  0  0  0  0  0  0  0  0
   37.3870   20.3850   33.4040 H   0  0  0  0  0  0  0  0  0  0  0  0
   38.4030   19.9910   32.0250 H   0  0  0  0  0  0  0  0  0  0  0  0
   36.9410   25.0850   36.2220 F   0  0  0  0  0  0  0  0  0  0  0  0
   37.9230   24.2740   36.7340 C   0  0  0  0  0  0  0  0  0  0  0  0
   38.6640   23.5060   35.8610 C   0  0  0  0  0  0  0  0  0  0  0  0
   39.6170   22.7330   36.4830 C   0  0  0  0  0  0  0  0  0  0  0  0
   40.2460   22.0980   35.8810 H   0  0  0  0  0  0  0  0  0  0  0  0
   39.8370   22.7040   37.8420 C   0  0  0  0  0  0  0  0  0  0  0  0
   40.6070   22.0720   38.2770 H   0  0  0  0  0  0  0  0  0  0  0  0
   39.0620   23.4960   38.6560 C   0  0  0  0  0  3  0  0  0  0  0  0
   38.0920   24.2890   38.0840 C   0  0  0  0  0  3  0  0  0  0  0  0
  1  2  1  0  0  0  0
  2  7  1  0  0  0  0
  2  3  2  0  0  0  0
  3 28  1  0  0  0  0
  4  3  1  0  0  0  0
  5  4  2  0  0  0  0
  6  1  2  0  0  0  0
  6  5  1  0  0  0  0
  8  5  1  0  0  0  0
  9 14  1  0  0  0  0
  9  1  1  0  0  0  0
 10  9  1  0  0  0  0
 10 17  1  0  0  0  0
 10 11  1  0  0  0  0
 11 19  1  0  0  0  0
 12 11  1  0  0  0  0
 12 21  1  0  0  0  0
 13 12  1  0  0  0  0
 13 14  1  0  0  0  0
 13 22  1  0  0  0  0
 14 24  1  0  0  0  0
 15  9  1  0  0  0  0
 16 10  1  0  0  0  0
 18 11  1  0  0  0  0
 20 12  1  0  0  0  0
 23 13  1  0  0  0  0
 25 14  1  0  0  0  0
 26 27  1  0  0  0  0
 27 34  1  0  0  0  0
 28 29  1  0  0  0  0
 28 27  2  0  0  0  0
 29 31  2  0  0  0  0
 30 29  1  0  0  0  0
 31 32  1  0  0  0  0
 31 33  1  0  0  0  0
 34 33  2  0  0  0  0
M  END
>  <minimizedAffinity>
-5.34424496

$$$$

 OpenBabel03272506193D

 34 36  0  0  0  0  0  0  0  0999 V2000
   34.5180   30.0940   33.7410 C   0  0  0  0  0  0  0  0  0  0  0  0
   35.2860   29.1510   34.4410 C   0  0  0  0  0  0  0  0  0  0  0  0
   36.2720   28.4750   33.7140 C   0  0  0  0  0  0  0  0  0  0  0  0
   36.4340   28.7630   32.3720 N   0  0  0  0  0  0  0  0  0  0  0  0
   35.6680   29.6780   31.7430 C   0  0  0  0  0  0  0  0  0  0  0  0
   34.7200   30.3360   32.4230 N   0  0  0  0  0  0  0  0  0  0  0  0
   35.1930   28.9090   35.4640 H   0  0  0  0  0  0  0  0  0  0  0  0
   35.8210   29.8780   30.6980 H   0  0  0  0  0  0  0  0  0  0  0  0
   33.4770   30.8210   34.5300 C   0  0  0  0  0  0  0  0  0  0  0  0
   34.1110   31.9910   35.2500 C   0  0  0  0  0  0  0  0  0  0  0  0
   34.1630   31.7890   36.7360 C   0  0  0  0  0  0  0  0  0  0  0  0
   32.8120   31.5020   37.3290 C   0  0  0  0  0  0  0  0  0  0  0  0
   32.0390   30.4790   36.5540 C   0  0  0  0  0  0  0  0  0  0  0  0
   32.8190   29.8430   35.4310 C   0  0  0  0  0  0  0  0  0  0  0  0
   32.7770   31.2300   33.7650 H   0  0  0  0  0  0  0  0  0  0  0  0
   33.4930   32.8960   35.0820 H   0  0  0  0  0  0  0  0  0  0  0  0
   35.1220   32.2470   34.8950 H   0  0  0  0  0  0  0  0  0  0  0  0
   34.5250   32.7620   37.1660 H   0  0  0  0  0  0  0  0  0  0  0  0
   34.8870   30.9850   36.9400 H   0  0  0  0  0  0  0  0  0  0  0  0
   32.2410   32.4670   37.3420 H   0  0  0  0  0  0  0  0  0  0  0  0
   32.9670   31.2180   38.3900 H   0  0  0  0  0  0  0  0  0  0  0  0
   31.7910   29.6520   37.2570 H   0  0  0  0  0  0  0  0  0  0  0  0
   31.0700   30.8990   36.2170 H   0  0  0  0  0  0  0  0  0  0  0  0
   33.4980   29.0730   35.8360 H   0  0  0  0  0  0  0  0  0  0  0  0
   32.0690   29.2680   34.8330 H   0  0  0  0  0  0  0  0  0  0  0  0
   36.4370   25.8990   32.6800 F   0  0  0  0  0  0  0  0  0  0  0  0
   37.2140   26.2040   33.7690 C   0  0  0  0  0  0  0  0  0  0  0  0
   37.1420   27.4780   34.2920 C   0  0  0  0  0  0  0  0  0  0  0  0
   37.9620   27.6720   35.3790 C   0  0  0  0  0  0  0  0  0  0  0  0
   37.9740   28.6380   35.8570 H   0  0  0  0  0  0  0  0  0  0  0  0
   38.7870   26.7110   35.9210 C   0  0  0  0  0  0  0  0  0  0  0  0
   39.4130   26.9230   36.7820 H   0  0  0  0  0  0  0  0  0  0  0  0
   38.8090   25.4600   35.3500 C   0  0  0  0  0  3  0  0  0  0  0  0
   38.0070   25.2120   34.2570 C   0  0  0  0  0  3  0  0  0  0  0  0
  1  2  1  0  0  0  0
  1  9  1  0  0  0  0
  2  7  1  0  0  0  0
  3 28  1  0  0  0  0
  3  2  2  0  0  0  0
  4  3  1  0  0  0  0
  5  4  2  0  0  0  0
  5  6  1  0  0  0  0
  6  1  2  0  0  0  0
  8  5  1  0  0  0  0
  9 10  1  0  0  0  0
  9 14  1  0  0  0  0
 10 11  1  0  0  0  0
 11 19  1  0  0  0  0
 11 18  1  0  0  0  0
 11 12  1  0  0  0  0
 12 20  1  0  0  0  0
 12 21  1  0  0  0  0
 13 22  1  0  0  0  0
 13 12  1  0  0  0  0
 14 24  1  0  0  0  0
 14 13  1  0  0  0  0
 15  9  1  0  0  0  0
 16 10  1  0  0  0  0
 17 10  1  0  0  0  0
 23 13  1  0  0  0  0
 25 14  1  0  0  0  0
 26 27  1  0  0  0  0
 27 34  2  0  0  0  0
 27 28  1  0  0  0  0
 28 29  2  0  0  0  0
 29 30  1  0  0  0  0
 29 31  1  0  0  0  0
 31 32  1  0  0  0  0
 33 31  2  0  0  0  0
 34 33  1  0  0  0  0
M  END
>  <minimizedAffinity>
-5.32519579

$$$$

 OpenBabel03272506193D

 34 36  0  0  0  0  0  0  0  0999 V2000
   38.7270   24.8330   32.3220 C   0  0  0  0  0  0  0  0  0  0  0  0
   38.4210   24.3680   33.6090 C   0  0  0  0  0  0  0  0  0  0  0  0
   39.4080   24.5260   34.5890 C   0  0  0  0  0  0  0  0  0  0  0  0
   40.6070   25.1190   34.2450 N   0  0  0  0  0  0  0  0  0  0  0  0
   40.8550   25.5490   32.9910 C   0  0  0  0  0  0  0  0  0  0  0  0
   39.9210   25.4070   32.0400 N   0  0  0  0  0  0  0  0  0  0  0  0
   37.5160   23.9150   33.9080 H   0  0  0  0  0  0  0  0  0  0  0  0
   41.7990   26.0070   32.7570 H   0  0  0  0  0  0  0  0  0  0  0  0
   37.6600   24.6730   31.2860 C   0  0  0  0  0  0  0  0  0  0  0  0
   37.1730   26.0350   30.8440 C   0  0  0  0  0  0  0  0  0  0  0  0
   35.7730   26.3180   31.3040 C   0  0  0  0  0  0  0  0  0  0  0  0
   34.7950   25.2640   30.8660 C   0  0  0  0  0  0  0  0  0  0  0  0
   35.2930   23.8710   31.1000 C   0  0  0  0  0  0  0  0  0  0  0  0
   36.5980   23.8070   31.8540 C   0  0  0  0  0  0  0  0  0  0  0  0
   38.1780   24.1970   30.4200 H   0  0  0  0  0  0  0  0  0  0  0  0
   37.1480   26.0670   29.7360 H   0  0  0  0  0  0  0  0  0  0  0  0
   37.8200   26.8700   31.1540 H   0  0  0  0  0  0  0  0  0  0  0  0
   35.4770   27.2840   30.8100 H   0  0  0  0  0  0  0  0  0  0  0  0
   35.7970   26.4360   32.3980 H   0  0  0  0  0  0  0  0  0  0  0  0
   34.6110   25.4130   29.7690 H   0  0  0  0  0  0  0  0  0  0  0  0
   33.8310   25.4720   31.3730 H   0  0  0  0  0  0  0  0  0  0  0  0
   34.5450   23.3590   31.7470 H   0  0  0  0  0  0  0  0  0  0  0  0
   35.3200   23.3040   30.1480 H   0  0  0  0  0  0  0  0  0  0  0  0
   36.4170   23.9590   32.9310 H   0  0  0  0  0  0  0  0  0  0  0  0
   36.9370   22.7430   31.7750 H   0  0  0  0  0  0  0  0  0  0  0  0
   37.4550   25.6190   36.2390 F   0  0  0  0  0  0  0  0  0  0  0  0
   38.2710   24.6490   36.7660 C   0  0  0  0  0  0  0  0  0  0  0  0
   39.2430   24.0980   35.9580 C   0  0  0  0  0  0  0  0  0  0  0  0
   40.0000   23.1380   36.5880 C   0  0  0  0  0  0  0  0  0  0  0  0
   40.7860   22.6490   36.0360 H   0  0  0  0  0  0  0  0  0  0  0  0
   39.8320   22.7400   37.8960 C   0  0  0  0  0  0  0  0  0  0  0  0
   40.4620   21.9750   38.3400 H   0  0  0  0  0  0  0  0  0  0  0  0
   38.8420   23.3320   38.6460 C   0  0  0  0  0  3  0  0  0  0  0  0
   38.0540   24.3000   38.0630 C   0  0  0  0  0  3  0  0  0  0  0  0
  1  2  1  0  0  0  0
  2  7  1  0  0  0  0
  2  3  2  0  0  0  0
  3 28  1  0  0  0  0
  4  3  1  0  0  0  0
  5  4  2  0  0  0  0
  6  1  2  0  0  0  0
  6  5  1  0  0  0  0
  8  5  1  0  0  0  0
  9 14  1  0  0  0  0
  9  1  1  0  0  0  0
 10 17  1  0  0  0  0
 10  9  1  0  0  0  0
 10 11  1  0  0  0  0
 11 19  1  0  0  0  0
 12 13  1  0  0  0  0
 12 11  1  0  0  0  0
 12 21  1  0  0  0  0
 13 22  1  0  0  0  0
 13 14  1  0  0  0  0
 14 24  1  0  0  0  0
 15  9  1  0  0  0  0
 16 10  1  0  0  0  0
 18 11  1  0  0  0  0
 20 12  1  0  0  0  0
 23 13  1  0  0  0  0
 25 14  1  0  0  0  0
 26 27  1  0  0  0  0
 27 34  1  0  0  0  0
 28 29  1  0  0  0  0
 28 27  2  0  0  0  0
 29 31  2  0  0  0  0
 30 29  1  0  0  0  0
 31 32  1  0  0  0  0
 31 33  1  0  0  0  0
 34 33  2  0  0  0  0
M  END
>  <minimizedAffinity>
-5.3219924

$$$$

 OpenBabel03272506193D

 34 36  0  0  0  0  0  0  0  0999 V2000
   35.8900   23.4860   31.3570 C   0  0  0  0  0  0  0  0  0  0  0  0
   36.8460   23.9060   32.2940 C   0  0  0  0  0  0  0  0  0  0  0  0
   36.9320   25.2820   32.5350 C   0  0  0  0  0  0  0  0  0  0  0  0
   36.0890   26.1370   31.8510 N   0  0  0  0  0  0  0  0  0  0  0  0
   35.1860   25.6840   30.9570 C   0  0  0  0  0  0  0  0  0  0  0  0
   35.0900   24.3700   30.7140 N   0  0  0  0  0  0  0  0  0  0  0  0
   37.5010   23.2820   32.8360 H   0  0  0  0  0  0  0  0  0  0  0  0
   34.5450   26.3780   30.4430 H   0  0  0  0  0  0  0  0  0  0  0  0
   35.7970   22.0130   31.1170 C   0  0  0  0  0  0  0  0  0  0  0  0
   34.9310   21.3790   32.1830 C   0  0  0  0  0  0  0  0  0  0  0  0
   35.7200   20.5170   33.1230 C   0  0  0  0  0  0  0  0  0  0  0  0
   36.5060   19.4520   32.4110 C   0  0  0  0  0  0  0  0  0  0  0  0
   37.2490   19.9720   31.2190 C   0  0  0  0  0  0  0  0  0  0  0  0
   37.1770   21.4700   31.0590 C   0  0  0  0  0  0  0  0  0  0  0  0
   35.2640   21.9190   30.1420 H   0  0  0  0  0  0  0  0  0  0  0  0
   34.1910   20.7110   31.6970 H   0  0  0  0  0  0  0  0  0  0  0  0
   34.3430   22.0980   32.7750 H   0  0  0  0  0  0  0  0  0  0  0  0
   34.9630   20.0020   33.7770 H   0  0  0  0  0  0  0  0  0  0  0  0
   36.3630   21.1780   33.7250 H   0  0  0  0  0  0  0  0  0  0  0  0
   35.7790   18.6640   32.0810 H   0  0  0  0  0  0  0  0  0  0  0  0
   37.1680   18.9690   33.1590 H   0  0  0  0  0  0  0  0  0  0  0  0
   38.3260   19.7360   31.3730 H   0  0  0  0  0  0  0  0  0  0  0  0
   36.9410   19.4290   30.3030 H   0  0  0  0  0  0  0  0  0  0  0  0
   37.8830   21.9560   31.7530 H   0  0  0  0  0  0  0  0  0  0  0  0
   37.5920   21.6840   30.0420 H   0  0  0  0  0  0  0  0  0  0  0  0
   39.4560   26.1380   31.7420 F   0  0  0  0  0  0  0  0  0  0  0  0
   39.1120   26.2890   33.0630 C   0  0  0  0  0  0  0  0  0  0  0  0
   37.8630   25.8680   33.4690 C   0  0  0  0  0  0  0  0  0  0  0  0
   37.6260   26.0670   34.8090 C   0  0  0  0  0  0  0  0  0  0  0  0
   36.6760   25.7700   35.2200 H   0  0  0  0  0  0  0  0  0  0  0  0
   38.5260   26.6280   35.6890 C   0  0  0  0  0  0  0  0  0  0  0  0
   38.2820   26.7600   36.7400 H   0  0  0  0  0  0  0  0  0  0  0  0
   39.7550   27.0250   35.2170 C   0  0  0  0  0  3  0  0  0  0  0  0
   40.0430   26.8490   33.8810 C   0  0  0  0  0  3  0  0  0  0  0  0
  1  2  1  0  0  0  0
  2  3  2  0  0  0  0
  2  7  1  0  0  0  0
  3 28  1  0  0  0  0
  4  3  1  0  0  0  0
  5  4  2  0  0  0  0
  6  5  1  0  0  0  0
  6  1  2  0  0  0  0
  8  5  1  0  0  0  0
  9  1  1  0  0  0  0
  9 10  1  0  0  0  0
 10 17  1  0  0  0  0
 10 11  1  0  0  0  0
 11 19  1  0  0  0  0
 11 18  1  0  0  0  0
 12 11  1  0  0  0  0
 12 21  1  0  0  0  0
 13 22  1  0  0  0  0
 13 12  1  0  0  0  0
 14  9  1  0  0  0  0
 14 13  1  0  0  0  0
 14 24  1  0  0  0  0
 15  9  1  0  0  0  0
 16 10  1  0  0  0  0
 20 12  1  0  0  0  0
 23 13  1  0  0  0  0
 25 14  1  0  0  0  0
 26 27  1  0  0  0  0
 27 28  2  0  0  0  0
 27 34  1  0  0  0  0
 28 29  1  0  0  0  0
 29 30  1  0  0  0  0
 29 31  2  0  0  0  0
 31 32  1  0  0  0  0
 33 31  1  0  0  0  0
 34 33  2  0  0  0  0
M  END
>  <minimizedAffinity>
-5.30648375

$$$$
