
 OpenBabel03272506143D

 24 25  0  0  0  0  0  0  0  0999 V2000
   38.6560   32.3810   46.7580 C   0  0  0  0  0  0  0  0  0  0  0  0
   37.7730   31.5130   47.3960 C   0  0  0  0  0  0  0  0  0  0  0  0
   37.5600   31.6220   48.7430 C   0  0  0  0  0  0  0  0  0  0  0  0
   38.2310   32.5890   49.4030 N   0  0  0  0  0  0  0  0  0  0  0  0
   39.0870   33.4330   48.7860 C   0  0  0  0  0  0  0  0  0  0  0  0
   39.3040   33.3300   47.4470 N   0  0  0  0  0  0  0  0  0  0  0  0
   37.2760   30.7700   46.8060 H   0  0  0  0  0  0  0  0  0  0  0  0
   39.5840   34.1800   49.3870 H   0  0  0  0  0  0  0  0  0  0  0  0
   38.0650   30.4650   51.3760 F   0  0  0  0  0  0  0  0  0  0  0  0
   36.8840   30.2320   50.7640 C   0  0  0  0  0  0  0  0  0  0  0  0
   36.6750   30.7880   49.5280 C   0  0  0  0  0  0  0  0  0  0  0  0
   35.4330   30.4780   49.0100 C   0  0  0  0  0  0  0  0  0  0  0  0
   35.1000   30.8340   48.0400 H   0  0  0  0  0  0  0  0  0  0  0  0
   34.5110   29.6930   49.6680 C   0  0  0  0  0  0  0  0  0  0  0  0
   33.5460   29.4680   49.2360 H   0  0  0  0  0  0  0  0  0  0  0  0
   34.7830   29.1640   50.9110 C   0  0  0  0  0  0  0  0  0  0  0  0
   36.0150   29.4550   51.4560 C   0  0  0  0  0  0  0  0  0  0  0  0
   38.9510   32.3580   45.3940 O   0  0  0  0  0  0  0  0  0  0  0  0
   41.4380   31.3120   45.4660 O   0  0  0  0  0  0  0  0  0  0  0  0
   40.0940   31.2520   44.7390 P   0  0  0  0  0  0  0  0  0  0  0  0
   39.4010   29.7060   44.8930 O   0  0  0  0  0  0  0  0  0  0  0  0
   38.4430   29.7420   45.1030 H   0  0  0  0  0  0  0  0  0  0  0  0
   40.4090   31.6270   43.1270 O   0  0  0  0  0  0  0  0  0  0  0  0
   40.6600   30.8160   42.6010 H   0  0  0  0  0  0  0  0  0  0  0  0
  1  2  2  0  0  0  0
  1  6  1  0  0  0  0
  2  3  1  0  0  0  0
  3  4  2  0  0  0  0
  3 11  1  0  0  0  0
  5  8  1  0  0  0  0
  5  4  1  0  0  0  0
  6  5  2  0  0  0  0
  7  2  1  0  0  0  0
 10  9  1  0  0  0  0
 10 17  1  0  0  0  0
 11 10  2  0  0  0  0
 12 11  1  0  0  0  0
 12 14  2  0  0  0  0
 13 12  1  0  0  0  0
 14 16  1  0  0  0  0
 15 14  1  0  0  0  0
 16 17  2  0  0  0  0
 18  1  1  0  0  0  0
 20 21  1  0  0  0  0
 20 18  1  0  0  0  0
 20 19  2  0  0  0  0
 21 22  1  0  0  0  0
 23 20  1  0  0  0  0
 24 23  1  0  0  0  0
M  END
>  <minimizedAffinity>
-6.15290356

>  <minimizedRMSD>
5.09205055

$$$$
