
 OpenBabel03272507193D

 30 32  0  0  1  0  0  0  0  0999 V2000
   37.4070   31.4200   49.4710 C   0  0  0  0  0  0  0  0  0  0  0  0
   38.4060   32.3600   49.6640 C   0  0  0  0  0  0  0  0  0  0  0  0
   38.9480   32.8800   48.4660 C   0  0  0  0  0  0  0  0  0  0  0  0
   38.4960   32.4660   47.2460 N   0  0  0  0  0  0  0  0  0  0  0  0
   37.5170   31.5450   47.1330 C   0  0  0  0  0  0  0  0  0  0  0  0
   36.9600   31.0100   48.2550 N   0  0  0  0  0  0  0  0  0  0  0  0
   38.7400   32.6650   50.6280 H   0  0  0  0  0  0  0  0  0  0  0  0
   39.7220   33.6080   48.5490 H   0  0  0  0  0  0  0  0  0  0  0  0
   38.5300   32.8220   44.7960 F   0  0  0  0  0  0  0  0  0  0  0  0
   37.6500   31.8360   44.6010 C   0  0  0  0  0  0  0  0  0  0  0  0
   37.1870   31.2490   45.7550 C   0  0  0  0  0  0  0  0  0  0  0  0
   36.2700   30.2150   45.6720 C   0  0  0  0  0  0  0  0  0  0  0  0
   35.8160   29.6560   46.4900 H   0  0  0  0  0  0  0  0  0  0  0  0
   35.8160   29.7700   44.4260 C   0  0  0  0  0  0  0  0  0  0  0  0
   35.1040   28.9730   44.2700 H   0  0  0  0  0  0  0  0  0  0  0  0
   36.2850   30.3650   43.2630 C   0  0  0  0  0  3  0  0  0  0  0  0
   37.1970   31.3920   43.3770 C   0  0  0  0  0  3  0  0  0  0  0  0
   36.7940   30.8640   50.7150 C   0  0  1  0  0  0  0  0  0  0  0  0
   36.0580   29.6010   50.7210 C   0  0  2  0  0  0  0  0  0  0  0  0
   37.4790   29.5720   51.1890 C   0  0  0  0  0  0  0  0  0  0  0  0
   36.7150   31.6430   51.5250 H   0  0  0  0  0  0  0  0  0  0  0  0
   35.1880   29.6140   51.4230 H   0  0  0  0  0  0  0  0  0  0  0  0
   38.2490   29.1060   50.5530 H   0  0  0  0  0  0  0  0  0  0  0  0
   37.5710   29.4690   52.2890 H   0  0  0  0  0  0  0  0  0  0  0  0
   35.7450   29.0430   49.4850 O   0  0  0  0  0  0  0  0  0  0  0  0
   34.5530   28.5670   49.0400 C   0  0  0  0  0  0  0  0  0  0  0  0
   34.4770   27.7020   48.1420 O   0  0  0  0  0  0  0  0  0  0  0  0
   33.5270   29.2060   49.7440 N   0  0  0  0  0  0  0  0  0  0  0  0
   33.2960   30.1870   49.4140 H   0  0  0  0  0  0  0  0  0  0  0  0
   33.3150   28.4330   50.4180 H   0  0  0  0  0  0  0  0  0  0  0  0
  1  2  1  0  0  0  0
  1 18  1  0  0  0  0
  2  7  1  0  0  0  0
  3  8  1  0  0  0  0
  3  2  2  0  0  0  0
  4  3  1  0  0  0  0
  5  4  2  0  0  0  0
  5  6  1  0  0  0  0
  6  1  2  0  0  0  0
 10  9  1  0  0  0  0
 10 11  1  0  0  0  0
 11  5  1  0  0  0  0
 12 11  2  0  0  0  0
 12 13  1  0  0  0  0
 14 12  1  0  0  0  0
 15 14  1  0  0  0  0
 16 17  1  0  0  0  0
 16 14  2  0  0  0  0
 17 10  2  0  0  0  0
 18 19  1  0  0  0  0
 18 20  1  0  0  0  0
 18 21  1  1  0  0  0
 19 20  1  0  0  0  0
 19 22  1  1  0  0  0
 20 24  1  0  0  0  0
 23 20  1  0  0  0  0
 25 19  1  0  0  0  0
 26 25  1  0  0  0  0
 26 28  1  0  0  0  0
 27 26  2  0  0  0  0
 28 30  1  0  0  0  0
 29 28  1  0  0  0  0
M  END
>  <minimizedAffinity>
-5.50827885

>  <minimizedRMSD>
0.590761244

$$$$
