
     RDKit          3D

 40 42  0  0  0  0  0  0  0  0999 V2000
   37.7210   30.7055   48.6320 C   0  0  2  0  0  0  0  0  0  0  0  0
   38.5169   31.9030   48.3261 C   0  0  0  0  0  0  0  0  0  0  0  0
   38.5717   32.8237   49.4065 C   0  0  0  0  0  0  0  0  0  0  0  0
   39.2568   34.0148   49.3592 C   0  0  0  0  0  0  0  0  0  0  0  0
   39.9576   34.3877   48.2005 C   0  0  0  0  0  0  0  0  0  0  0  0
   39.8536   33.4364   47.1952 C   0  0  0  0  0  0  0  0  0  0  0  0
   39.1921   32.2683   47.2169 N   0  0  0  0  0  0  0  0  0  0  0  0
   35.5646   29.9852   47.8838 C   0  0  0  0  0  0  0  0  0  0  0  0
   36.7087   30.4864   47.5461 C   0  0  0  0  0  0  0  0  0  0  0  0
   33.7625   29.7882   44.6287 C   0  0  0  0  0  0  0  0  0  0  0  0
   34.7347   30.0006   45.5945 C   0  0  0  0  0  0  0  0  0  0  0  0
   34.5130   29.7392   46.9244 C   0  0  0  0  0  0  0  0  0  0  0  0
   33.3029   29.2648   47.2513 N   0  0  0  0  0  0  0  0  0  0  0  0
   32.3570   29.0547   46.3366 C   0  0  0  0  0  0  0  0  0  0  0  0
   32.5671   29.3082   45.0337 N   0  0  0  0  0  0  0  0  0  0  0  0
   36.7992   31.0808   50.1619 S   0  0  0  0  0  0  0  0  0  0  0  0
   36.8746   29.7158   51.3075 C   0  0  0  0  0  0  0  0  0  0  0  0
   37.5773   30.0096   52.4651 F   0  0  0  0  0  0  0  0  0  0  0  0
   35.6182   29.2110   51.5840 F   0  0  0  0  0  0  0  0  0  0  0  0
   37.5563   28.6762   50.6441 F   0  0  0  0  0  0  0  0  0  0  0  0
   38.3367   29.7841   48.7690 H   0  0  0  0  0  0  0  0  0  0  0  0
   38.1144   32.7629   50.4079 H   0  0  0  0  0  0  0  0  0  0  0  0
   39.3377   34.7548   50.1404 H   0  0  0  0  0  0  0  0  0  0  0  0
   40.5319   35.2461   47.9774 H   0  0  0  0  0  0  0  0  0  0  0  0
   40.3453   33.5820   46.2295 H   0  0  0  0  0  0  0  0  0  0  0  0
   35.3525   29.7347   48.9143 H   0  0  0  0  0  0  0  0  0  0  0  0
   36.9972   30.7580   46.5680 H   0  0  0  0  0  0  0  0  0  0  0  0
   33.8987   29.9813   43.5747 H   0  0  0  0  0  0  0  0  0  0  0  0
   35.6467   30.3831   45.1612 H   0  0  0  0  0  0  0  0  0  0  0  0
   30.2664   30.7348   47.0312 F   0  0  0  0  0  0  0  0  0  0  0  0
   30.0190   29.4057   47.0718 C   0  0  0  0  0  0  0  0  0  0  0  0
   31.0478   28.5361   46.7288 C   0  0  0  0  0  0  0  0  0  0  0  0
   30.7830   27.1784   46.7740 C   0  0  0  0  0  0  0  0  0  0  0  0
   31.5811   26.4960   46.5077 H   0  0  0  0  0  0  0  0  0  0  0  0
   29.5239   26.7652   47.1534 C   0  0  0  0  0  0  0  0  0  0  0  0
   29.2935   25.7004   47.1959 H   0  0  0  0  0  0  0  0  0  0  0  0
   28.4969   27.6105   47.4952 C   0  0  0  0  0  0  0  0  0  0  0  0
   28.7462   28.9850   47.4553 C   0  0  0  0  0  0  0  0  0  0  0  0
   27.5119   27.2856   47.7920 H   0  0  0  0  0  0  0  0  0  0  0  0
   28.0080   29.7433   47.7050 H   0  0  0  0  0  0  0  0  0  0  0  0
  1 16  1  0
  2  1  1  0
  2  3  2  0
  4  3  1  0
  5  4  2  0
  6  7  2  0
  6  5  1  0
  7  2  1  0
  9  8  2  0
  9  1  1  0
 10 15  2  0
 10 11  1  0
 11 12  2  0
 12 13  1  0
 12  8  1  0
 14 13  2  0
 15 14  1  0
 16 17  1  0
 17 19  1  0
 17 18  1  0
 20 17  1  0
  1 21  1  1
  3 22  1  0
  4 23  1  0
  5 24  1  0
  6 25  1  0
  8 26  1  0
  9 27  1  0
 10 28  1  0
 11 29  1  0
 30 31  1  0
 31 32  2  0
 32 33  1  0
 33 34  1  0
 33 35  2  0
 35 36  1  0
 35 37  1  0
 37 38  2  0
 38 31  1  0
 37 39  1  0
 38 40  1  0
 14 32  1  0
M  ISO  8  21   8  22  14  23  14  24  14  25  14  28  14  29  14  34  15
M  ISO  1  36  16
M  END
>  <DihAtoms>  (1) 
12,13,31,30

>  <DihDeg>  (1) 
-0.00011052063031431185

$$$$
