
 OpenBabel03272502363D

 36 38  0  0  1  0  0  0  0  0999 V2000
   37.6410   27.0900   33.3330 C   0  0  0  0  0  3  0  0  0  0  0  0
   37.2340   25.9550   33.8020 C   0  0  0  0  0  3  0  0  0  0  0  0
   35.7100   29.8050   31.6650 C   0  0  0  0  0  0  0  0  0  0  0  0
   36.5470   28.7250   31.8960 C   0  0  0  0  0  0  0  0  0  0  0  0
   36.7530   28.2170   33.1550 C   0  0  0  0  0  0  0  0  0  0  0  0
   36.1050   28.8200   34.1610 N   0  0  0  0  0  0  0  0  0  0  0  0
   35.2980   29.8600   33.9580 C   0  0  0  0  0  0  0  0  0  0  0  0
   35.0900   30.3610   32.7280 N   0  0  0  0  0  0  0  0  0  0  0  0
   35.5220   30.2320   30.6910 H   0  0  0  0  0  0  0  0  0  0  0  0
   36.9870   28.3610   30.9800 H   0  0  0  0  0  0  0  0  0  0  0  0
   36.5630   31.6790   35.6200 F   0  0  0  0  0  0  0  0  0  0  0  0
   35.2690   31.4020   35.8940 C   0  0  0  0  0  0  0  0  0  0  0  0
   34.6050   30.4930   35.0790 C   0  0  0  0  0  0  0  0  0  0  0  0
   33.2800   30.2170   35.3690 C   0  0  0  0  0  0  0  0  0  0  0  0
   32.7580   29.5100   34.7370 H   0  0  0  0  0  0  0  0  0  0  0  0
   32.6950   30.8540   36.4430 C   0  0  0  0  0  0  0  0  0  0  0  0
   31.6520   30.6520   36.6890 H   0  0  0  0  0  0  0  0  0  0  0  0
   33.3360   31.7540   37.2580 C   0  0  0  0  0  3  0  0  0  0  0  0
   34.6740   32.0450   36.9800 C   0  0  0  0  0  3  0  0  0  0  0  0
   38.2450   24.8540   33.9330 C   0  0  1  0  0  0  0  0  0  0  0  0
   39.2190   25.1780   33.4920 H   0  0  0  0  0  0  0  0  0  0  0  0
   38.3460   24.4450   35.3410 C   0  0  0  0  0  0  0  0  0  0  0  0
   39.3080   23.4200   35.5540 C   0  0  0  0  0  0  0  0  0  0  0  0
   39.5810   22.8760   36.7860 C   0  0  0  0  0  0  0  0  0  0  0  0
   38.8990   23.3230   37.9300 C   0  0  0  0  0  0  0  0  0  0  0  0
   37.9800   24.3220   37.6360 C   0  0  0  0  0  0  0  0  0  0  0  0
   37.6950   24.8690   36.4430 N   0  0  0  0  0  0  0  0  0  0  0  0
   39.9650   22.9100   34.8300 H   0  0  0  0  0  0  0  0  0  0  0  0
   40.2950   22.1000   37.0150 H   0  0  0  0  0  0  0  0  0  0  0  0
   38.9700   23.0330   38.9430 H   0  0  0  0  0  0  0  0  0  0  0  0
   37.3700   24.7730   38.4220 H   0  0  0  0  0  0  0  0  0  0  0  0
   37.5930   23.4110   33.0250 S   0  0  0  0  0  0  0  0  0  0  0  0
   36.7190   23.9190   31.5560 C   0  0  0  0  0  0  0  0  0  0  0  0
   35.4410   24.3900   31.8140 F   0  0  0  0  0  0  0  0  0  0  0  0
   37.4560   24.8180   30.8090 F   0  0  0  0  0  0  0  0  0  0  0  0
   36.5980   22.7720   30.7470 F   0  0  0  0  0  0  0  0  0  0  0  0
  1  2  2  0  0  0  0
  2 20  1  0  0  0  0
  3  4  2  0  0  0  0
  3  8  1  0  0  0  0
  4  5  1  0  0  0  0
  5  1  1  0  0  0  0
  5  6  2  0  0  0  0
  7  6  1  0  0  0  0
  7 13  1  0  0  0  0
  8  7  2  0  0  0  0
  9  3  1  0  0  0  0
 10  4  1  0  0  0  0
 11 12  1  0  0  0  0
 12 19  1  0  0  0  0
 13 14  1  0  0  0  0
 13 12  2  0  0  0  0
 14 16  2  0  0  0  0
 15 14  1  0  0  0  0
 16 17  1  0  0  0  0
 16 18  1  0  0  0  0
 19 18  2  0  0  0  0
 20 21  1  6  0  0  0
 20 22  1  0  0  0  0
 22 23  2  0  0  0  0
 22 27  1  0  0  0  0
 23 24  1  0  0  0  0
 24 29  1  0  0  0  0
 24 25  2  0  0  0  0
 25 30  1  0  0  0  0
 26 25  1  0  0  0  0
 26 31  1  0  0  0  0
 27 26  2  0  0  0  0
 28 23  1  0  0  0  0
 32 20  1  0  0  0  0
 33 34  1  0  0  0  0
 33 32  1  0  0  0  0
 35 33  1  0  0  0  0
 36 33  1  0  0  0  0
M  END
>  <minimizedAffinity>
-6.2791338

$$$$

 OpenBabel03272502363D

 36 38  0  0  1  0  0  0  0  0999 V2000
   37.6900   26.6090   32.7200 C   0  0  0  0  0  3  0  0  0  0  0  0
   37.2900   25.6130   33.4420 C   0  0  0  0  0  3  0  0  0  0  0  0
   35.9900   29.5230   31.1390 C   0  0  0  0  0  0  0  0  0  0  0  0
   36.7160   28.3590   31.3330 C   0  0  0  0  0  0  0  0  0  0  0  0
   36.9190   27.8240   32.5810 C   0  0  0  0  0  0  0  0  0  0  0  0
   36.3800   28.4850   33.6150 N   0  0  0  0  0  0  0  0  0  0  0  0
   35.6790   29.6050   33.4470 C   0  0  0  0  0  0  0  0  0  0  0  0
   35.4750   30.1340   32.2290 N   0  0  0  0  0  0  0  0  0  0  0  0
   35.8080   29.9740   30.1750 H   0  0  0  0  0  0  0  0  0  0  0  0
   37.0780   27.9570   30.3980 H   0  0  0  0  0  0  0  0  0  0  0  0
   33.0100   29.3280   34.1380 F   0  0  0  0  0  0  0  0  0  0  0  0
   33.7600   30.1390   34.9180 C   0  0  0  0  0  0  0  0  0  0  0  0
   35.1030   30.3000   34.5970 C   0  0  0  0  0  0  0  0  0  0  0  0
   35.8610   31.1320   35.4030 C   0  0  0  0  0  0  0  0  0  0  0  0
   36.9080   31.2610   35.1590 H   0  0  0  0  0  0  0  0  0  0  0  0
   35.2470   31.7530   36.4710 C   0  0  0  0  0  0  0  0  0  0  0  0
   35.8250   32.4120   37.1180 H   0  0  0  0  0  0  0  0  0  0  0  0
   33.9220   31.6060   36.8000 C   0  0  0  0  0  3  0  0  0  0  0  0
   33.1420   30.7680   35.9980 C   0  0  0  0  0  3  0  0  0  0  0  0
   38.1700   24.3990   33.5020 C   0  0  1  0  0  0  0  0  0  0  0  0
   39.1120   24.5850   32.9320 H   0  0  0  0  0  0  0  0  0  0  0  0
   38.3980   24.0270   34.9060 C   0  0  0  0  0  0  0  0  0  0  0  0
   37.8920   24.9870   35.8230 C   0  0  0  0  0  0  0  0  0  0  0  0
   37.9860   24.8590   37.1890 C   0  0  0  0  0  0  0  0  0  0  0  0
   38.6060   23.7350   37.7590 C   0  0  0  0  0  0  0  0  0  0  0  0
   39.0700   22.8480   36.7970 C   0  0  0  0  0  0  0  0  0  0  0  0
   38.9920   22.9510   35.4600 N   0  0  0  0  0  0  0  0  0  0  0  0
   37.3710   25.9390   35.6300 H   0  0  0  0  0  0  0  0  0  0  0  0
   37.6250   25.5480   37.9370 H   0  0  0  0  0  0  0  0  0  0  0  0
   38.7700   23.4630   38.7660 H   0  0  0  0  0  0  0  0  0  0  0  0
   39.5770   21.9240   37.0830 H   0  0  0  0  0  0  0  0  0  0  0  0
   37.2400   23.0200   32.7510 S   0  0  0  0  0  0  0  0  0  0  0  0
   36.2670   23.5810   31.3660 C   0  0  0  0  0  0  0  0  0  0  0  0
   35.1660   24.3350   31.7390 F   0  0  0  0  0  0  0  0  0  0  0  0
   37.0440   24.2370   30.4290 F   0  0  0  0  0  0  0  0  0  0  0  0
   35.7950   22.4250   30.7140 F   0  0  0  0  0  0  0  0  0  0  0  0
  1  2  2  0  0  0  0
  2 20  1  0  0  0  0
  3  4  2  0  0  0  0
  3  8  1  0  0  0  0
  4  5  1  0  0  0  0
  5  1  1  0  0  0  0
  5  6  2  0  0  0  0
  7  6  1  0  0  0  0
  7 13  1  0  0  0  0
  8  7  2  0  0  0  0
  9  3  1  0  0  0  0
 10  4  1  0  0  0  0
 11 12  1  0  0  0  0
 12 19  1  0  0  0  0
 13 12  2  0  0  0  0
 13 14  1  0  0  0  0
 14 16  2  0  0  0  0
 15 14  1  0  0  0  0
 16 18  1  0  0  0  0
 16 17  1  0  0  0  0
 19 18  2  0  0  0  0
 20 21  1  6  0  0  0
 20 22  1  0  0  0  0
 22 27  2  0  0  0  0
 22 23  1  0  0  0  0
 23 24  2  0  0  0  0
 24 25  1  0  0  0  0
 24 29  1  0  0  0  0
 25 30  1  0  0  0  0
 26 31  1  0  0  0  0
 26 25  2  0  0  0  0
 27 26  1  0  0  0  0
 28 23  1  0  0  0  0
 32 20  1  0  0  0  0
 33 34  1  0  0  0  0
 33 32  1  0  0  0  0
 35 33  1  0  0  0  0
 36 33  1  0  0  0  0
M  END
>  <minimizedAffinity>
-6.27173615

$$$$

 OpenBabel03272502363D

 36 38  0  0  1  0  0  0  0  0999 V2000
   37.6890   27.0540   33.8480 C   0  0  0  0  0  3  0  0  0  0  0  0
   38.5740   27.1990   34.7800 C   0  0  0  0  0  3  0  0  0  0  0  0
   35.4100   29.2740   31.9100 C   0  0  0  0  0  0  0  0  0  0  0  0
   36.3500   28.3150   32.2500 C   0  0  0  0  0  0  0  0  0  0  0  0
   36.6990   28.0650   33.5560 C   0  0  0  0  0  0  0  0  0  0  0  0
   36.0840   28.7980   34.4940 N   0  0  0  0  0  0  0  0  0  0  0  0
   35.1780   29.7250   34.1850 C   0  0  0  0  0  0  0  0  0  0  0  0
   34.8320   29.9740   32.9100 N   0  0  0  0  0  0  0  0  0  0  0  0
   35.1090   29.5000   30.8970 H   0  0  0  0  0  0  0  0  0  0  0  0
   36.7450   27.8180   31.3770 H   0  0  0  0  0  0  0  0  0  0  0  0
   36.5800   31.5350   35.7450 F   0  0  0  0  0  0  0  0  0  0  0  0
   35.2580   31.4070   36.0000 C   0  0  0  0  0  0  0  0  0  0  0  0
   34.5270   30.5060   35.2340 C   0  0  0  0  0  0  0  0  0  0  0  0
   33.1750   30.3830   35.5040 C   0  0  0  0  0  0  0  0  0  0  0  0
   32.5990   29.6830   34.9100 H   0  0  0  0  0  0  0  0  0  0  0  0
   32.6310   31.1540   36.5100 C   0  0  0  0  0  0  0  0  0  0  0  0
   31.5680   31.0730   36.7390 H   0  0  0  0  0  0  0  0  0  0  0  0
   33.3390   32.0470   37.2760 C   0  0  0  0  0  3  0  0  0  0  0  0
   34.7050   32.1850   37.0170 C   0  0  0  0  0  3  0  0  0  0  0  0
   39.5460   26.0770   34.9990 C   0  0  1  0  0  0  0  0  0  0  0  0
   40.3830   26.4220   35.6530 H   0  0  0  0  0  0  0  0  0  0  0  0
   38.8320   24.9060   35.5290 C   0  0  0  0  0  0  0  0  0  0  0  0
   38.3470   25.1030   36.8500 C   0  0  0  0  0  0  0  0  0  0  0  0
   37.6480   24.1520   37.5550 C   0  0  0  0  0  0  0  0  0  0  0  0
   37.3720   22.9000   36.9820 C   0  0  0  0  0  0  0  0  0  0  0  0
   37.8790   22.7890   35.6940 C   0  0  0  0  0  0  0  0  0  0  0  0
   38.5640   23.7010   34.9860 N   0  0  0  0  0  0  0  0  0  0  0  0
   38.4310   25.9850   37.5070 H   0  0  0  0  0  0  0  0  0  0  0  0
   37.2550   24.2380   38.5560 H   0  0  0  0  0  0  0  0  0  0  0  0
   36.8590   22.0570   37.3590 H   0  0  0  0  0  0  0  0  0  0  0  0
   37.7460   21.8730   35.1150 H   0  0  0  0  0  0  0  0  0  0  0  0
   40.1850   25.5890   33.3600 S   0  0  0  0  0  0  0  0  0  0  0  0
   41.1350   26.9060   32.6250 C   0  0  0  0  0  0  0  0  0  0  0  0
   41.6540   27.7930   33.5540 F   0  0  0  0  0  0  0  0  0  0  0  0
   42.1150   26.4190   31.7790 F   0  0  0  0  0  0  0  0  0  0  0  0
   40.2500   27.6220   31.7950 F   0  0  0  0  0  0  0  0  0  0  0  0
  1  2  2  0  0  0  0
  2 20  1  0  0  0  0
  3  4  2  0  0  0  0
  3  8  1  0  0  0  0
  4  5  1  0  0  0  0
  5  1  1  0  0  0  0
  5  6  2  0  0  0  0
  7  6  1  0  0  0  0
  7 13  1  0  0  0  0
  8  7  2  0  0  0  0
  9  3  1  0  0  0  0
 10  4  1  0  0  0  0
 11 12  1  0  0  0  0
 12 19  1  0  0  0  0
 13 14  1  0  0  0  0
 13 12  2  0  0  0  0
 14 16  2  0  0  0  0
 15 14  1  0  0  0  0
 16 17  1  0  0  0  0
 16 18  1  0  0  0  0
 19 18  2  0  0  0  0
 20 22  1  0  0  0  0
 20 21  1  1  0  0  0
 22 23  1  0  0  0  0
 23 28  1  0  0  0  0
 23 24  2  0  0  0  0
 24 29  1  0  0  0  0
 25 30  1  0  0  0  0
 25 24  1  0  0  0  0
 26 25  2  0  0  0  0
 27 22  2  0  0  0  0
 27 26  1  0  0  0  0
 31 26  1  0  0  0  0
 32 20  1  0  0  0  0
 33 32  1  0  0  0  0
 33 34  1  0  0  0  0
 35 33  1  0  0  0  0
 36 33  1  0  0  0  0
M  END
>  <minimizedAffinity>
-6.02325153

$$$$

 OpenBabel03272502363D

 36 38  0  0  1  0  0  0  0  0999 V2000
   37.1050   26.9280   33.7030 C   0  0  0  0  0  3  0  0  0  0  0  0
   37.4700   26.5500   34.8850 C   0  0  0  0  0  3  0  0  0  0  0  0
   35.8380   29.9350   31.9060 C   0  0  0  0  0  0  0  0  0  0  0  0
   36.4490   28.7250   32.1960 C   0  0  0  0  0  0  0  0  0  0  0  0
   36.4470   28.1920   33.4620 C   0  0  0  0  0  0  0  0  0  0  0  0
   35.8240   28.9000   34.4130 N   0  0  0  0  0  0  0  0  0  0  0  0
   35.2330   30.0650   34.1530 C   0  0  0  0  0  0  0  0  0  0  0  0
   35.2290   30.5930   32.9170 N   0  0  0  0  0  0  0  0  0  0  0  0
   35.8170   30.3870   30.9250 H   0  0  0  0  0  0  0  0  0  0  0  0
   36.9010   28.2890   31.3180 H   0  0  0  0  0  0  0  0  0  0  0  0
   36.6300   31.6970   35.9020 F   0  0  0  0  0  0  0  0  0  0  0  0
   35.2910   31.6220   36.0770 C   0  0  0  0  0  0  0  0  0  0  0  0
   34.5620   30.8110   35.2150 C   0  0  0  0  0  0  0  0  0  0  0  0
   33.1920   30.7430   35.4030 C   0  0  0  0  0  0  0  0  0  0  0  0
   32.6180   30.1130   34.7350 H   0  0  0  0  0  0  0  0  0  0  0  0
   32.6300   31.4760   36.4270 C   0  0  0  0  0  0  0  0  0  0  0  0
   31.5540   31.4370   36.5930 H   0  0  0  0  0  0  0  0  0  0  0  0
   33.3360   32.2810   37.2870 C   0  0  0  0  0  3  0  0  0  0  0  0
   34.7210   32.3630   37.1110 C   0  0  0  0  0  3  0  0  0  0  0  0
   38.1350   25.2110   35.0150 C   0  0  1  0  0  0  0  0  0  0  0  0
   37.5700   24.4490   34.4250 H   0  0  0  0  0  0  0  0  0  0  0  0
   39.5480   25.3260   34.6250 C   0  0  0  0  0  0  0  0  0  0  0  0
   39.9610   24.3000   33.7320 C   0  0  0  0  0  0  0  0  0  0  0  0
   41.2360   24.1980   33.2270 C   0  0  0  0  0  0  0  0  0  0  0  0
   42.2210   25.1350   33.5830 C   0  0  0  0  0  0  0  0  0  0  0  0
   41.7360   26.1000   34.4550 C   0  0  0  0  0  0  0  0  0  0  0  0
   40.4980   26.2210   34.9610 N   0  0  0  0  0  0  0  0  0  0  0  0
   39.3860   23.4610   33.3080 H   0  0  0  0  0  0  0  0  0  0  0  0
   41.6130   23.4480   32.5490 H   0  0  0  0  0  0  0  0  0  0  0  0
   43.2360   25.2210   33.3030 H   0  0  0  0  0  0  0  0  0  0  0  0
   42.3830   26.8990   34.8240 H   0  0  0  0  0  0  0  0  0  0  0  0
   38.1270   24.7720   36.7860 S   0  0  0  0  0  0  0  0  0  0  0  0
   38.9250   23.2020   37.0610 C   0  0  0  0  0  0  0  0  0  0  0  0
   38.4200   22.1840   36.2680 F   0  0  0  0  0  0  0  0  0  0  0  0
   40.3000   23.3020   36.9540 F   0  0  0  0  0  0  0  0  0  0  0  0
   38.6810   22.8600   38.4060 F   0  0  0  0  0  0  0  0  0  0  0  0
  1  2  2  0  0  0  0
  2 20  1  0  0  0  0
  3  4  2  0  0  0  0
  3  8  1  0  0  0  0
  4  5  1  0  0  0  0
  5  1  1  0  0  0  0
  5  6  2  0  0  0  0
  7  6  1  0  0  0  0
  7 13  1  0  0  0  0
  8  7  2  0  0  0  0
  9  3  1  0  0  0  0
 10  4  1  0  0  0  0
 11 12  1  0  0  0  0
 12 19  1  0  0  0  0
 13 14  1  0  0  0  0
 13 12  2  0  0  0  0
 14 16  2  0  0  0  0
 15 14  1  0  0  0  0
 16 17  1  0  0  0  0
 16 18  1  0  0  0  0
 19 18  2  0  0  0  0
 20 21  1  6  0  0  0
 20 32  1  0  0  0  0
 22 27  1  0  0  0  0
 22 20  1  0  0  0  0
 23 22  2  0  0  0  0
 24 25  2  0  0  0  0
 24 23  1  0  0  0  0
 25 26  1  0  0  0  0
 26 31  1  0  0  0  0
 26 27  2  0  0  0  0
 28 23  1  0  0  0  0
 29 24  1  0  0  0  0
 30 25  1  0  0  0  0
 32 33  1  0  0  0  0
 33 36  1  0  0  0  0
 34 33  1  0  0  0  0
 35 33  1  0  0  0  0
M  END
>  <minimizedAffinity>
-5.98255396

$$$$

 OpenBabel03272502363D

 36 38  0  0  1  0  0  0  0  0999 V2000
   34.2640   29.8050   32.7790 C   0  0  0  0  0  3  0  0  0  0  0  0
   34.1590   29.6570   34.0600 C   0  0  0  0  0  3  0  0  0  0  0  0
   36.8160   28.9560   30.2010 C   0  0  0  0  0  0  0  0  0  0  0  0
   35.9180   29.6490   30.9980 C   0  0  0  0  0  0  0  0  0  0  0  0
   35.1870   29.0300   31.9820 C   0  0  0  0  0  0  0  0  0  0  0  0
   35.3800   27.7130   32.1380 N   0  0  0  0  0  0  0  0  0  0  0  0
   36.2380   27.0310   31.3810 C   0  0  0  0  0  0  0  0  0  0  0  0
   36.9570   27.6300   30.4170 N   0  0  0  0  0  0  0  0  0  0  0  0
   37.4090   29.4060   29.4180 H   0  0  0  0  0  0  0  0  0  0  0  0
   35.8860   30.6970   30.7410 H   0  0  0  0  0  0  0  0  0  0  0  0
   34.4860   25.1680   30.3150 F   0  0  0  0  0  0  0  0  0  0  0  0
   35.5270   24.6850   31.0300 C   0  0  0  0  0  0  0  0  0  0  0  0
   36.4240   25.5950   31.5790 C   0  0  0  0  0  0  0  0  0  0  0  0
   37.4860   25.0890   32.3090 C   0  0  0  0  0  0  0  0  0  0  0  0
   38.1890   25.7930   32.7380 H   0  0  0  0  0  0  0  0  0  0  0  0
   37.5950   23.7220   32.4520 C   0  0  0  0  0  0  0  0  0  0  0  0
   38.4240   23.3030   33.0230 H   0  0  0  0  0  0  0  0  0  0  0  0
   36.7190   22.8100   31.9180 C   0  0  0  0  0  3  0  0  0  0  0  0
   35.6400   23.3030   31.1770 C   0  0  0  0  0  3  0  0  0  0  0  0
   33.1730   30.5260   34.7830 C   0  0  1  0  0  0  0  0  0  0  0  0
   32.6450   31.1890   34.0540 H   0  0  0  0  0  0  0  0  0  0  0  0
   32.2650   29.6840   35.5750 C   0  0  0  0  0  0  0  0  0  0  0  0
   31.5200   28.7710   34.7800 C   0  0  0  0  0  0  0  0  0  0  0  0
   30.6090   27.8800   35.2950 C   0  0  0  0  0  0  0  0  0  0  0  0
   30.3640   27.8300   36.6770 C   0  0  0  0  0  0  0  0  0  0  0  0
   31.1290   28.7520   37.3790 C   0  0  0  0  0  0  0  0  0  0  0  0
   32.0240   29.6310   36.9010 N   0  0  0  0  0  0  0  0  0  0  0  0
   31.5330   28.6150   33.6890 H   0  0  0  0  0  0  0  0  0  0  0  0
   30.0140   27.1640   34.7500 H   0  0  0  0  0  0  0  0  0  0  0  0
   29.7140   27.2260   37.2500 H   0  0  0  0  0  0  0  0  0  0  0  0
   31.0510   28.8350   38.4660 H   0  0  0  0  0  0  0  0  0  0  0  0
   34.1140   31.5320   35.9810 S   0  0  0  0  0  0  0  0  0  0  0  0
   35.8310   31.6440   35.5140 C   0  0  0  0  0  0  0  0  0  0  0  0
   36.5510   30.4920   35.7890 F   0  0  0  0  0  0  0  0  0  0  0  0
   35.9780   32.0360   34.1960 F   0  0  0  0  0  0  0  0  0  0  0  0
   36.3860   32.6900   36.2770 F   0  0  0  0  0  0  0  0  0  0  0  0
  1  2  2  0  0  0  0
  2 20  1  0  0  0  0
  3  8  2  0  0  0  0
  3  4  1  0  0  0  0
  4  5  2  0  0  0  0
  5  6  1  0  0  0  0
  5  1  1  0  0  0  0
  7 13  1  0  0  0  0
  7  6  2  0  0  0  0
  8  7  1  0  0  0  0
  9  3  1  0  0  0  0
 10  4  1  0  0  0  0
 11 12  1  0  0  0  0
 12 19  2  0  0  0  0
 12 13  1  0  0  0  0
 13 14  2  0  0  0  0
 14 16  1  0  0  0  0
 14 15  1  0  0  0  0
 16 17  1  0  0  0  0
 18 16  2  0  0  0  0
 19 18  1  0  0  0  0
 20 21  1  6  0  0  0
 20 22  1  0  0  0  0
 20 32  1  0  0  0  0
 22 27  1  0  0  0  0
 23 24  1  0  0  0  0
 23 22  2  0  0  0  0
 24 25  2  0  0  0  0
 25 30  1  0  0  0  0
 25 26  1  0  0  0  0
 26 31  1  0  0  0  0
 27 26  2  0  0  0  0
 28 23  1  0  0  0  0
 29 24  1  0  0  0  0
 33 34  1  0  0  0  0
 33 32  1  0  0  0  0
 33 36  1  0  0  0  0
 35 33  1  0  0  0  0
M  END
>  <minimizedAffinity>
-5.89886951

$$$$

 OpenBabel03272502363D

 36 38  0  0  1  0  0  0  0  0999 V2000
   36.4400   28.4640   34.2700 C   0  0  0  0  0  3  0  0  0  0  0  0
   35.5480   28.9950   33.4980 C   0  0  0  0  0  3  0  0  0  0  0  0
   37.2820   25.2470   32.5890 C   0  0  0  0  0  0  0  0  0  0  0  0
   36.8290   26.5340   32.8360 C   0  0  0  0  0  0  0  0  0  0  0  0
   36.9340   27.1200   34.0740 C   0  0  0  0  0  0  0  0  0  0  0  0
   37.4970   26.3850   35.0430 N   0  0  0  0  0  0  0  0  0  0  0  0
   37.9370   25.1470   34.8240 C   0  0  0  0  0  0  0  0  0  0  0  0
   37.8390   24.5680   33.6150 N   0  0  0  0  0  0  0  0  0  0  0  0
   37.2190   24.7530   31.6310 H   0  0  0  0  0  0  0  0  0  0  0  0
   36.4060   26.9820   31.9500 H   0  0  0  0  0  0  0  0  0  0  0  0
   40.4820   24.0750   34.5980 F   0  0  0  0  0  0  0  0  0  0  0  0
   39.8270   23.8490   35.7590 C   0  0  0  0  0  0  0  0  0  0  0  0
   38.5480   24.3740   35.9030 C   0  0  0  0  0  0  0  0  0  0  0  0
   37.8870   24.1370   37.0960 C   0  0  0  0  0  0  0  0  0  0  0  0
   36.8900   24.5430   37.2150 H   0  0  0  0  0  0  0  0  0  0  0  0
   38.5290   23.3990   38.0690 C   0  0  0  0  0  0  0  0  0  0  0  0
   38.0270   23.2000   39.0160 H   0  0  0  0  0  0  0  0  0  0  0  0
   39.7910   22.8740   37.9420 C   0  0  0  0  0  3  0  0  0  0  0  0
   40.4730   23.1030   36.7440 C   0  0  0  0  0  3  0  0  0  0  0  0
   35.1040   30.3950   33.8060 C   0  0  1  0  0  0  0  0  0  0  0  0
   35.5030   31.0970   33.0340 H   0  0  0  0  0  0  0  0  0  0  0  0
   33.6400   30.4300   33.9300 C   0  0  0  0  0  0  0  0  0  0  0  0
   33.1770   29.9170   35.1720 C   0  0  0  0  0  0  0  0  0  0  0  0
   31.8480   29.8480   35.5190 C   0  0  0  0  0  0  0  0  0  0  0  0
   30.8550   30.2970   34.6330 C   0  0  0  0  0  0  0  0  0  0  0  0
   31.3910   30.7810   33.4470 C   0  0  0  0  0  0  0  0  0  0  0  0
   32.6810   30.8580   33.0840 N   0  0  0  0  0  0  0  0  0  0  0  0
   33.7470   29.5120   36.0240 H   0  0  0  0  0  0  0  0  0  0  0  0
   31.4320   29.4720   36.4410 H   0  0  0  0  0  0  0  0  0  0  0  0
   29.8030   30.3250   34.7190 H   0  0  0  0  0  0  0  0  0  0  0  0
   30.7450   31.1660   32.6540 H   0  0  0  0  0  0  0  0  0  0  0  0
   35.7690   30.8220   35.4510 S   0  0  0  0  0  0  0  0  0  0  0  0
   35.7750   32.5880   35.7010 C   0  0  0  0  0  0  0  0  0  0  0  0
   35.0600   33.2810   34.7370 F   0  0  0  0  0  0  0  0  0  0  0  0
   35.3710   32.9250   36.9790 F   0  0  0  0  0  0  0  0  0  0  0  0
   37.1200   32.9990   35.6150 F   0  0  0  0  0  0  0  0  0  0  0  0
  2 20  1  0  0  0  0
  2  1  2  0  0  0  0
  3  4  2  0  0  0  0
  3  8  1  0  0  0  0
  4  5  1  0  0  0  0
  5  1  1  0  0  0  0
  5  6  2  0  0  0  0
  7  6  1  0  0  0  0
  7 13  1  0  0  0  0
  8  7  2  0  0  0  0
  9  3  1  0  0  0  0
 10  4  1  0  0  0  0
 11 12  1  0  0  0  0
 12 13  2  0  0  0  0
 12 19  1  0  0  0  0
 13 14  1  0  0  0  0
 14 15  1  0  0  0  0
 14 16  2  0  0  0  0
 16 17  1  0  0  0  0
 18 16  1  0  0  0  0
 19 18  2  0  0  0  0
 20 21  1  6  0  0  0
 20 22  1  0  0  0  0
 20 32  1  0  0  0  0
 22 23  1  0  0  0  0
 23 24  2  0  0  0  0
 23 28  1  0  0  0  0
 24 29  1  0  0  0  0
 25 30  1  0  0  0  0
 25 24  1  0  0  0  0
 26 25  2  0  0  0  0
 27 26  1  0  0  0  0
 27 22  2  0  0  0  0
 31 26  1  0  0  0  0
 32 33  1  0  0  0  0
 33 35  1  0  0  0  0
 34 33  1  0  0  0  0
 36 33  1  0  0  0  0
M  END
>  <minimizedAffinity>
-5.80440474

$$$$

 OpenBabel03272502363D

 36 38  0  0  1  0  0  0  0  0999 V2000
   37.1840   27.0030   33.9090 C   0  0  0  0  0  3  0  0  0  0  0  0
   37.2390   26.0140   33.0770 C   0  0  0  0  0  3  0  0  0  0  0  0
   35.6970   29.8250   31.9830 C   0  0  0  0  0  0  0  0  0  0  0  0
   36.3750   28.6640   32.3210 C   0  0  0  0  0  0  0  0  0  0  0  0
   36.4600   28.2200   33.6180 C   0  0  0  0  0  0  0  0  0  0  0  0
   35.8550   28.9670   34.5520 N   0  0  0  0  0  0  0  0  0  0  0  0
   35.2010   30.0860   34.2450 C   0  0  0  0  0  0  0  0  0  0  0  0
   35.1120   30.5260   32.9780 N   0  0  0  0  0  0  0  0  0  0  0  0
   35.6080   30.2060   30.9760 H   0  0  0  0  0  0  0  0  0  0  0  0
   36.8010   28.1860   31.4520 H   0  0  0  0  0  0  0  0  0  0  0  0
   36.6370   31.7650   35.9150 F   0  0  0  0  0  0  0  0  0  0  0  0
   35.3000   31.7110   36.1110 C   0  0  0  0  0  0  0  0  0  0  0  0
   34.5510   30.8760   35.2890 C   0  0  0  0  0  0  0  0  0  0  0  0
   33.1840   30.8280   35.4980 C   0  0  0  0  0  0  0  0  0  0  0  0
   32.5940   30.1800   34.8610 H   0  0  0  0  0  0  0  0  0  0  0  0
   32.6430   31.6030   36.5030 C   0  0  0  0  0  0  0  0  0  0  0  0
   31.5690   31.5800   36.6850 H   0  0  0  0  0  0  0  0  0  0  0  0
   33.3690   32.4310   37.3230 C   0  0  0  0  0  3  0  0  0  0  0  0
   34.7510   32.4930   37.1260 C   0  0  0  0  0  3  0  0  0  0  0  0
   38.0300   24.8050   33.4840 C   0  0  1  0  0  0  0  0  0  0  0  0
   38.0320   24.7100   34.5970 H   0  0  0  0  0  0  0  0  0  0  0  0
   37.5020   23.6190   32.7960 C   0  0  0  0  0  0  0  0  0  0  0  0
   36.4350   23.9220   31.9070 C   0  0  0  0  0  0  0  0  0  0  0  0
   35.7820   22.9770   31.1510 C   0  0  0  0  0  0  0  0  0  0  0  0
   36.1530   21.6240   31.2240 C   0  0  0  0  0  0  0  0  0  0  0  0
   37.1990   21.4150   32.1120 C   0  0  0  0  0  0  0  0  0  0  0  0
   37.8520   22.3180   32.8610 N   0  0  0  0  0  0  0  0  0  0  0  0
   35.9670   24.8920   31.6740 H   0  0  0  0  0  0  0  0  0  0  0  0
   34.9680   23.1400   30.4610 H   0  0  0  0  0  0  0  0  0  0  0  0
   35.7770   20.7700   30.7300 H   0  0  0  0  0  0  0  0  0  0  0  0
   37.6010   20.4130   32.2800 H   0  0  0  0  0  0  0  0  0  0  0  0
   39.7320   25.0400   32.8690 S   0  0  0  0  0  0  0  0  0  0  0  0
   40.6310   26.1900   33.8930 C   0  0  0  0  0  0  0  0  0  0  0  0
   40.6310   27.4840   33.3950 F   0  0  0  0  0  0  0  0  0  0  0  0
   40.2030   26.1470   35.2070 F   0  0  0  0  0  0  0  0  0  0  0  0
   41.9660   25.7410   33.9210 F   0  0  0  0  0  0  0  0  0  0  0  0
  2 20  1  0  0  0  0
  2  1  2  0  0  0  0
  3  4  2  0  0  0  0
  3  8  1  0  0  0  0
  4  5  1  0  0  0  0
  5  1  1  0  0  0  0
  5  6  2  0  0  0  0
  7  6  1  0  0  0  0
  7 13  1  0  0  0  0
  8  7  2  0  0  0  0
  9  3  1  0  0  0  0
 10  4  1  0  0  0  0
 11 12  1  0  0  0  0
 12 19  1  0  0  0  0
 13 14  1  0  0  0  0
 13 12  2  0  0  0  0
 14 16  2  0  0  0  0
 15 14  1  0  0  0  0
 16 17  1  0  0  0  0
 16 18  1  0  0  0  0
 19 18  2  0  0  0  0
 20 21  1  1  0  0  0
 22 27  1  0  0  0  0
 22 20  1  0  0  0  0
 23 22  2  0  0  0  0
 24 25  2  0  0  0  0
 24 23  1  0  0  0  0
 25 26  1  0  0  0  0
 26 31  1  0  0  0  0
 26 27  2  0  0  0  0
 28 23  1  0  0  0  0
 29 24  1  0  0  0  0
 30 25  1  0  0  0  0
 32 20  1  0  0  0  0
 32 33  1  0  0  0  0
 33 36  1  0  0  0  0
 33 35  1  0  0  0  0
 34 33  1  0  0  0  0
M  END
>  <minimizedAffinity>
-5.78398418

$$$$

 OpenBabel03272502363D

 36 38  0  0  1  0  0  0  0  0999 V2000
   36.5570   28.0830   34.5890 C   0  0  0  0  0  3  0  0  0  0  0  0
   35.8230   28.7010   33.7210 C   0  0  0  0  0  3  0  0  0  0  0  0
   38.6610   25.8400   32.4860 C   0  0  0  0  0  0  0  0  0  0  0  0
   37.7990   26.8440   32.9000 C   0  0  0  0  0  0  0  0  0  0  0  0
   37.4630   27.0200   34.2200 C   0  0  0  0  0  0  0  0  0  0  0  0
   38.0090   26.1690   35.0990 N   0  0  0  0  0  0  0  0  0  0  0  0
   38.8380   25.1970   34.7200 C   0  0  0  0  0  0  0  0  0  0  0  0
   39.1720   25.0200   33.4300 N   0  0  0  0  0  0  0  0  0  0  0  0
   38.9490   25.6690   31.4600 H   0  0  0  0  0  0  0  0  0  0  0  0
   37.4530   27.4370   32.0670 H   0  0  0  0  0  0  0  0  0  0  0  0
   41.4550   24.3080   34.5330 F   0  0  0  0  0  0  0  0  0  0  0  0
   40.7330   23.8590   35.5850 C   0  0  0  0  0  0  0  0  0  0  0  0
   39.4160   24.2870   35.7060 C   0  0  0  0  0  0  0  0  0  0  0  0
   38.6870   23.8210   36.7860 C   0  0  0  0  0  0  0  0  0  0  0  0
   37.6600   24.1510   36.8870 H   0  0  0  0  0  0  0  0  0  0  0  0
   39.3010   22.9640   37.6760 C   0  0  0  0  0  0  0  0  0  0  0  0
   38.7450   22.5850   38.5330 H   0  0  0  0  0  0  0  0  0  0  0  0
   40.6000   22.5320   37.5700 C   0  0  0  0  0  3  0  0  0  0  0  0
   41.3520   22.9930   36.4850 C   0  0  0  0  0  3  0  0  0  0  0  0
   34.9120   29.7830   34.2230 C   0  0  1  0  0  0  0  0  0  0  0  0
   34.6000   29.5590   35.2720 H   0  0  0  0  0  0  0  0  0  0  0  0
   35.5700   31.0880   34.0730 C   0  0  0  0  0  0  0  0  0  0  0  0
   35.9180   31.6800   35.3170 C   0  0  0  0  0  0  0  0  0  0  0  0
   36.5430   32.8990   35.4330 C   0  0  0  0  0  0  0  0  0  0  0  0
   36.8790   33.6390   34.2870 C   0  0  0  0  0  0  0  0  0  0  0  0
   36.5070   32.9920   33.1160 C   0  0  0  0  0  0  0  0  0  0  0  0
   35.8950   31.8040   32.9780 N   0  0  0  0  0  0  0  0  0  0  0  0
   35.7650   31.3050   36.3430 H   0  0  0  0  0  0  0  0  0  0  0  0
   36.8330   33.4020   36.3420 H   0  0  0  0  0  0  0  0  0  0  0  0
   37.3530   34.5760   34.1750 H   0  0  0  0  0  0  0  0  0  0  0  0
   36.7000   33.4420   32.1400 H   0  0  0  0  0  0  0  0  0  0  0  0
   33.4540   29.8150   33.1250 S   0  0  0  0  0  0  0  0  0  0  0  0
   31.9990   29.2290   33.9740 C   0  0  0  0  0  0  0  0  0  0  0  0
   32.2760   28.6550   35.2050 F   0  0  0  0  0  0  0  0  0  0  0  0
   31.0340   30.2150   34.0740 F   0  0  0  0  0  0  0  0  0  0  0  0
   31.4310   28.2340   33.1540 F   0  0  0  0  0  0  0  0  0  0  0  0
  2 20  1  0  0  0  0
  2  1  2  0  0  0  0
  3  4  2  0  0  0  0
  3  8  1  0  0  0  0
  4  5  1  0  0  0  0
  5  1  1  0  0  0  0
  5  6  2  0  0  0  0
  7  6  1  0  0  0  0
  7 13  1  0  0  0  0
  8  7  2  0  0  0  0
  9  3  1  0  0  0  0
 10  4  1  0  0  0  0
 11 12  1  0  0  0  0
 12 13  2  0  0  0  0
 12 19  1  0  0  0  0
 13 14  1  0  0  0  0
 14 15  1  0  0  0  0
 14 16  2  0  0  0  0
 16 17  1  0  0  0  0
 18 16  1  0  0  0  0
 19 18  2  0  0  0  0
 20 21  1  1  0  0  0
 22 20  1  0  0  0  0
 22 23  1  0  0  0  0
 23 24  2  0  0  0  0
 23 28  1  0  0  0  0
 24 29  1  0  0  0  0
 25 24  1  0  0  0  0
 26 25  2  0  0  0  0
 27 26  1  0  0  0  0
 27 22  2  0  0  0  0
 30 25  1  0  0  0  0
 31 26  1  0  0  0  0
 32 33  1  0  0  0  0
 32 20  1  0  0  0  0
 33 35  1  0  0  0  0
 33 34  1  0  0  0  0
 36 33  1  0  0  0  0
M  END
>  <minimizedAffinity>
-5.7824893

$$$$

 OpenBabel03272502363D

 36 38  0  0  1  0  0  0  0  0999 V2000
   37.7730   26.9670   34.1040 C   0  0  0  0  0  3  0  0  0  0  0  0
   37.5400   25.6960   34.1690 C   0  0  0  0  0  3  0  0  0  0  0  0
   35.1850   28.8300   32.1760 C   0  0  0  0  0  0  0  0  0  0  0  0
   36.1760   27.9290   32.5370 C   0  0  0  0  0  0  0  0  0  0  0  0
   36.7410   27.9290   33.7890 C   0  0  0  0  0  0  0  0  0  0  0  0
   36.2890   28.8460   34.6550 N   0  0  0  0  0  0  0  0  0  0  0  0
   35.3380   29.7190   34.3250 C   0  0  0  0  0  0  0  0  0  0  0  0
   34.7800   29.7260   33.1030 N   0  0  0  0  0  0  0  0  0  0  0  0
   34.7170   28.8620   31.2040 H   0  0  0  0  0  0  0  0  0  0  0  0
   36.4200   27.2620   31.7240 H   0  0  0  0  0  0  0  0  0  0  0  0
   32.7480   29.6880   35.3050 F   0  0  0  0  0  0  0  0  0  0  0  0
   33.5620   30.6630   35.7680 C   0  0  0  0  0  0  0  0  0  0  0  0
   34.8680   30.7060   35.2950 C   0  0  0  0  0  0  0  0  0  0  0  0
   35.6930   31.7090   35.7760 C   0  0  0  0  0  0  0  0  0  0  0  0
   36.7120   31.7480   35.4120 H   0  0  0  0  0  0  0  0  0  0  0  0
   35.1780   32.6040   36.6900 C   0  0  0  0  0  0  0  0  0  0  0  0
   35.8090   33.4010   37.0820 H   0  0  0  0  0  0  0  0  0  0  0  0
   33.8900   32.5760   37.1670 C   0  0  0  0  0  3  0  0  0  0  0  0
   33.0440   31.5700   36.6930 C   0  0  0  0  0  3  0  0  0  0  0  0
   38.6930   24.7930   34.4950 C   0  0  1  0  0  0  0  0  0  0  0  0
   39.6550   25.2990   34.2400 H   0  0  0  0  0  0  0  0  0  0  0  0
   38.6050   24.3740   35.9020 C   0  0  0  0  0  0  0  0  0  0  0  0
   39.6170   23.4460   36.2680 C   0  0  0  0  0  0  0  0  0  0  0  0
   39.7410   22.9120   37.5290 C   0  0  0  0  0  0  0  0  0  0  0  0
   38.8430   23.2730   38.5470 C   0  0  0  0  0  0  0  0  0  0  0  0
   37.8890   24.1810   38.1080 C   0  0  0  0  0  0  0  0  0  0  0  0
   37.7470   24.7150   36.8840 N   0  0  0  0  0  0  0  0  0  0  0  0
   40.4300   23.0140   35.6610 H   0  0  0  0  0  0  0  0  0  0  0  0
   40.4830   22.2070   37.8710 H   0  0  0  0  0  0  0  0  0  0  0  0
   38.7780   22.9760   39.5590 H   0  0  0  0  0  0  0  0  0  0  0  0
   37.1180   24.5570   38.7840 H   0  0  0  0  0  0  0  0  0  0  0  0
   38.4920   23.2780   33.4970 S   0  0  0  0  0  0  0  0  0  0  0  0
   39.9560   22.9480   32.5320 C   0  0  0  0  0  0  0  0  0  0  0  0
   39.9510   23.5740   31.2960 F   0  0  0  0  0  0  0  0  0  0  0  0
   41.1090   23.2260   33.2430 F   0  0  0  0  0  0  0  0  0  0  0  0
   39.9820   21.5570   32.3100 F   0  0  0  0  0  0  0  0  0  0  0  0
  1  2  2  0  0  0  0
  2 20  1  0  0  0  0
  3  4  2  0  0  0  0
  3  8  1  0  0  0  0
  4  5  1  0  0  0  0
  5  1  1  0  0  0  0
  5  6  2  0  0  0  0
  7  6  1  0  0  0  0
  7 13  1  0  0  0  0
  8  7  2  0  0  0  0
  9  3  1  0  0  0  0
 10  4  1  0  0  0  0
 11 12  1  0  0  0  0
 12 19  1  0  0  0  0
 13 12  2  0  0  0  0
 13 14  1  0  0  0  0
 14 16  2  0  0  0  0
 15 14  1  0  0  0  0
 16 17  1  0  0  0  0
 16 18  1  0  0  0  0
 19 18  2  0  0  0  0
 20 21  1  6  0  0  0
 20 22  1  0  0  0  0
 22 23  2  0  0  0  0
 22 27  1  0  0  0  0
 23 24  1  0  0  0  0
 24 29  1  0  0  0  0
 24 25  2  0  0  0  0
 25 30  1  0  0  0  0
 26 25  1  0  0  0  0
 26 31  1  0  0  0  0
 27 26  2  0  0  0  0
 28 23  1  0  0  0  0
 32 20  1  0  0  0  0
 33 35  1  0  0  0  0
 33 32  1  0  0  0  0
 34 33  1  0  0  0  0
 36 33  1  0  0  0  0
M  END
>  <minimizedAffinity>
-5.77539778

$$$$
