
 OpenBabel03272502343D

 36 38  0  0  1  0  0  0  0  0999 V2000
   35.5840   29.9560   47.9610 C   0  0  0  0  0  3  0  0  0  0  0  0
   36.7290   30.4330   47.5930 C   0  0  0  0  0  3  0  0  0  0  0  0
   33.7450   29.6640   44.7340 C   0  0  0  0  0  0  0  0  0  0  0  0
   34.7270   29.9070   45.6810 C   0  0  0  0  0  0  0  0  0  0  0  0
   34.5220   29.6800   47.0200 C   0  0  0  0  0  0  0  0  0  0  0  0
   33.3190   29.2080   47.3740 N   0  0  0  0  0  0  0  0  0  0  0  0
   32.3630   28.9690   46.4770 C   0  0  0  0  0  0  0  0  0  0  0  0
   32.5570   29.1890   45.1650 N   0  0  0  0  0  0  0  0  0  0  0  0
   33.8680   29.8290   43.6730 H   0  0  0  0  0  0  0  0  0  0  0  0
   35.6320   30.2820   45.2270 H   0  0  0  0  0  0  0  0  0  0  0  0
   30.0110   30.3360   45.9520 F   0  0  0  0  0  0  0  0  0  0  0  0
   29.8990   29.1650   46.6200 C   0  0  0  0  0  0  0  0  0  0  0  0
   31.0620   28.4550   46.8980 C   0  0  0  0  0  0  0  0  0  0  0  0
   30.9350   27.2580   47.5810 C   0  0  0  0  0  0  0  0  0  0  0  0
   31.8370   26.7000   47.8010 H   0  0  0  0  0  0  0  0  0  0  0  0
   29.6740   26.8380   47.9460 C   0  0  0  0  0  0  0  0  0  0  0  0
   29.5510   25.8970   48.4840 H   0  0  0  0  0  0  0  0  0  0  0  0
   28.5160   27.5260   47.6780 C   0  0  0  0  0  3  0  0  0  0  0  0
   28.6250   28.7370   46.9900 C   0  0  0  0  0  3  0  0  0  0  0  0
   37.7520   30.6890   48.6610 C   0  0  1  0  0  0  0  0  0  0  0  0
   38.3800   29.7770   48.8120 H   0  0  0  0  0  0  0  0  0  0  0  0
   38.5310   31.8870   48.3170 C   0  0  0  0  0  0  0  0  0  0  0  0
   38.6100   32.8230   49.3830 C   0  0  0  0  0  0  0  0  0  0  0  0
   39.2850   34.0170   49.3000 C   0  0  0  0  0  0  0  0  0  0  0  0
   39.9520   34.3790   48.1170 C   0  0  0  0  0  0  0  0  0  0  0  0
   39.8260   33.4120   47.1290 C   0  0  0  0  0  0  0  0  0  0  0  0
   39.1730   32.2410   47.1850 N   0  0  0  0  0  0  0  0  0  0  0  0
   38.1800   32.7730   50.3970 H   0  0  0  0  0  0  0  0  0  0  0  0
   39.3830   34.7690   50.0690 H   0  0  0  0  0  0  0  0  0  0  0  0
   40.5130   35.2370   47.8670 H   0  0  0  0  0  0  0  0  0  0  0  0
   40.2900   33.5480   46.1490 H   0  0  0  0  0  0  0  0  0  0  0  0
   36.8450   31.0910   50.1930 S   0  0  0  0  0  0  0  0  0  0  0  0
   36.8920   29.7280   51.3420 C   0  0  0  0  0  0  0  0  0  0  0  0
   37.5670   30.0240   52.5160 F   0  0  0  0  0  0  0  0  0  0  0  0
   35.6290   29.2240   51.5900 F   0  0  0  0  0  0  0  0  0  0  0  0
   37.5880   28.6860   50.6970 F   0  0  0  0  0  0  0  0  0  0  0  0
  2  1  2  0  0  0  0
  2 20  1  0  0  0  0
  3  8  2  0  0  0  0
  3  4  1  0  0  0  0
  4  5  2  0  0  0  0
  5  6  1  0  0  0  0
  5  1  1  0  0  0  0
  7 13  1  0  0  0  0
  7  6  2  0  0  0  0
  8  7  1  0  0  0  0
  9  3  1  0  0  0  0
 10  4  1  0  0  0  0
 11 12  1  0  0  0  0
 12 13  2  0  0  0  0
 12 19  1  0  0  0  0
 13 14  1  0  0  0  0
 14 15  1  0  0  0  0
 14 16  2  0  0  0  0
 16 17  1  0  0  0  0
 18 16  1  0  0  0  0
 19 18  2  0  0  0  0
 20 21  1  1  0  0  0
 20 32  1  0  0  0  0
 22 20  1  0  0  0  0
 22 23  1  0  0  0  0
 23 28  1  0  0  0  0
 24 23  2  0  0  0  0
 24 29  1  0  0  0  0
 25 24  1  0  0  0  0
 26 27  1  0  0  0  0
 26 25  2  0  0  0  0
 27 22  2  0  0  0  0
 30 25  1  0  0  0  0
 31 26  1  0  0  0  0
 32 33  1  0  0  0  0
 33 35  1  0  0  0  0
 33 34  1  0  0  0  0
 36 33  1  0  0  0  0
M  END
>  <minimizedAffinity>
-6.68942499

>  <minimizedRMSD>
0.205646694

$$$$
