
 OpenBabel03272506483D

 42 45  0  0  1  0  0  0  0  0999 V2000
   32.1680   28.3750   47.4370 C   0  0  2  0  0  0  0  0  0  0  0  0
   33.4200   28.1780   48.2400 C   0  0  1  0  0  0  0  0  0  0  0  0
   33.8390   26.8960   48.0560 O   0  0  0  0  0  0  0  0  0  0  0  0
   33.1430   26.3330   46.9900 C   0  0  0  0  0  0  0  0  0  0  0  0
   32.5180   27.4680   46.2130 C   0  0  1  0  0  0  0  0  0  0  0  0
   31.2610   27.9840   47.8840 H   0  0  0  0  0  0  0  0  0  0  0  0
   33.2720   28.4630   49.3000 H   0  0  0  0  0  0  0  0  0  0  0  0
   32.4530   25.6170   47.4190 H   0  0  0  0  0  0  0  0  0  0  0  0
   33.9090   25.8100   46.3360 H   0  0  0  0  0  0  0  0  0  0  0  0
   33.2330   28.0310   45.6190 H   0  0  0  0  0  0  0  0  0  0  0  0
   32.0670   29.7130   46.9990 O   0  0  0  0  0  0  0  0  0  0  0  0
   32.6720   29.7720   46.2100 H   0  0  0  0  0  0  0  0  0  0  0  0
   34.7010   29.3040   47.5560 S   0  0  0  0  0  0  0  0  0  0  0  0
   37.0430   29.2110   50.7500 C   0  0  0  0  0  0  0  0  0  0  0  0
   37.4570   30.5320   50.9310 C   0  0  0  0  0  0  0  0  0  0  0  0
   36.9930   31.4950   50.0260 C   0  0  0  0  0  0  0  0  0  0  0  0
   36.1660   31.0940   49.0230 N   0  0  0  0  0  0  0  0  0  0  0  0
   35.7900   29.8020   48.8860 C   0  0  0  0  0  0  0  0  0  0  0  0
   36.2190   28.8470   49.7410 N   0  0  0  0  0  0  0  0  0  0  0  0
   37.4160   28.4910   51.4620 H   0  0  0  0  0  0  0  0  0  0  0  0
   38.1160   30.8410   51.7330 H   0  0  0  0  0  0  0  0  0  0  0  0
   37.2670   32.5330   50.0990 H   0  0  0  0  0  0  0  0  0  0  0  0
   31.3780   27.0110   45.6000 O   0  0  0  0  0  0  0  0  0  0  0  0
   30.1550   29.3960   44.3750 Cl  0  0  0  0  0  0  0  0  0  0  0  0
   29.4580   28.2830   45.5270 C   0  0  0  0  0  0  0  0  0  0  0  0
   30.1290   27.1880   46.0220 C   0  0  0  0  0  0  0  0  0  0  0  0
   29.4540   26.3560   46.9190 C   0  0  0  0  0  0  0  0  0  0  0  0
   28.1560   26.6290   47.2920 C   0  0  0  0  0  0  0  0  0  0  0  0
   27.4720   27.7270   46.7990 C   0  0  0  0  0  0  0  0  0  0  0  0
   28.1360   28.5520   45.9110 C   0  0  0  0  0  0  0  0  0  0  0  0
   29.8870   25.4750   47.3590 H   0  0  0  0  0  0  0  0  0  0  0  0
   27.5850   26.0250   47.9780 H   0  0  0  0  0  0  0  0  0  0  0  0
   26.4640   27.9480   47.0810 H   0  0  0  0  0  0  0  0  0  0  0  0
   27.5870   30.9340   47.3340 F   0  0  0  0  0  0  0  0  0  0  0  0
   27.1460   30.8850   46.0550 C   0  0  0  0  0  0  0  0  0  0  0  0
   27.4280   29.7120   45.3860 C   0  0  0  0  0  0  0  0  0  0  0  0
   27.0160   29.5680   44.0730 C   0  0  0  0  0  0  0  0  0  0  0  0
   27.1930   28.6860   43.4730 H   0  0  0  0  0  0  0  0  0  0  0  0
   26.3240   30.5750   43.4020 C   0  0  0  0  0  0  0  0  0  0  0  0
   25.9910   30.4820   42.3690 H   0  0  0  0  0  0  0  0  0  0  0  0
   26.0610   31.7340   44.1070 C   0  0  0  0  0  3  0  0  0  0  0  0
   26.4610   31.9060   45.4260 C   0  0  0  0  0  3  0  0  0  0  0  0
  1  6  1  1  0  0  0
  1  2  1  0  0  0  0
  2  7  1  1  0  0  0
  3  2  1  0  0  0  0
  4  8  1  0  0  0  0
  4  3  1  0  0  0  0
  5 10  1  6  0  0  0
  5  4  1  0  0  0  0
  5  1  1  0  0  0  0
  9  4  1  0  0  0  0
 11  1  1  0  0  0  0
 12 11  1  0  0  0  0
 13  2  1  0  0  0  0
 13 18  1  0  0  0  0
 14 15  1  0  0  0  0
 14 20  1  0  0  0  0
 15 21  1  0  0  0  0
 16 22  1  0  0  0  0
 16 15  2  0  0  0  0
 17 16  1  0  0  0  0
 18 17  2  0  0  0  0
 18 19  1  0  0  0  0
 19 14  2  0  0  0  0
 23 26  1  0  0  0  0
 23  5  1  0  0  0  0
 24 25  1  0  0  0  0
 25 30  2  0  0  0  0
 25 26  1  0  0  0  0
 26 27  2  0  0  0  0
 27 28  1  0  0  0  0
 27 31  1  0  0  0  0
 28 32  1  0  0  0  0
 29 33  1  0  0  0  0
 29 28  2  0  0  0  0
 30 29  1  0  0  0  0
 35 34  1  0  0  0  0
 36 30  1  0  0  0  0
 36 35  2  0  0  0  0
 37 36  1  0  0  0  0
 38 37  1  0  0  0  0
 39 37  2  0  0  0  0
 39 41  1  0  0  0  0
 40 39  1  0  0  0  0
 41 42  2  0  0  0  0
 42 35  1  0  0  0  0
M  END
>  <minimizedAffinity>
-5.41851711

>  <minimizedRMSD>
0.714508712

$$$$
