
 OpenBabel03272500563D

 35 37  0  0  0  0  0  0  0  0999 V2000
   38.0990   31.9210   47.4480 C   0  0  0  0  0  0  0  0  0  0  0  0
   38.5480   32.8640   48.3310 C   0  0  0  0  0  0  0  0  0  0  0  0
   38.0500   32.9660   49.6340 C   0  0  0  0  0  0  0  0  0  0  0  0
   37.0240   32.0200   50.0230 C   0  0  0  0  0  0  0  0  0  0  0  0
   36.6210   31.1090   49.1050 C   0  0  0  0  0  0  0  0  0  0  0  0
   37.1070   31.0220   47.8530 C   0  0  0  0  0  0  0  0  0  0  0  0
   39.3260   33.5910   48.0570 H   0  0  0  0  0  0  0  0  0  0  0  0
   38.4490   33.7360   50.2830 H   0  0  0  0  0  0  0  0  0  0  0  0
   36.7420   32.2140   51.0370 H   0  0  0  0  0  0  0  0  0  0  0  0
   35.8890   30.5070   49.6170 H   0  0  0  0  0  0  0  0  0  0  0  0
   39.9900   31.2910   46.0250 C   0  0  0  0  0  0  0  0  0  0  0  0
   38.7260   31.9300   46.1460 C   0  0  0  0  0  0  0  0  0  0  0  0
   38.2500   32.4840   44.9820 C   0  0  0  0  0  0  0  0  0  0  0  0
   38.9600   32.4020   43.8420 N   0  0  0  0  0  0  0  0  0  0  0  0
   40.1270   31.8070   43.7490 C   0  0  0  0  0  0  0  0  0  0  0  0
   40.6320   31.2560   44.8410 N   0  0  0  0  0  0  0  0  0  0  0  0
   40.4160   30.8400   46.8960 H   0  0  0  0  0  0  0  0  0  0  0  0
   37.2870   32.9730   45.0650 H   0  0  0  0  0  0  0  0  0  0  0  0
   40.7360   31.7140   42.8590 H   0  0  0  0  0  0  0  0  0  0  0  0
   35.1910   29.9610   46.9980 C   0  0  0  0  0  0  0  0  0  0  0  0
   34.5300   30.6670   47.8600 O   0  0  0  0  0  0  0  0  0  0  0  0
   36.6330   30.0880   46.9640 N   0  0  0  0  0  0  0  0  0  0  0  0
   37.2230   29.5350   46.3400 H   0  0  0  0  0  0  0  0  0  0  0  0
   34.5040   29.1220   46.1540 O   0  0  0  0  0  0  0  0  0  0  0  0
   33.1340   29.1820   45.9310 C   0  0  0  0  0  0  0  0  0  0  0  0
   32.6230   29.9170   44.9680 O   0  0  0  0  0  0  0  0  0  0  0  0
   33.8170   26.9210   47.4690 F   0  0  0  0  0  0  0  0  0  0  0  0
   32.5140   27.3120   47.4840 C   0  0  0  0  0  0  0  0  0  0  0  0
   32.1550   28.4160   46.7400 C   0  0  0  0  0  0  0  0  0  0  0  0
   30.8370   28.7710   46.7840 C   0  0  0  0  0  0  0  0  0  0  0  0
   30.5160   29.6290   46.2160 H   0  0  0  0  0  0  0  0  0  0  0  0
   29.9440   28.0430   47.5440 C   0  0  0  0  0  0  0  0  0  0  0  0
   28.9090   28.4060   47.5170 H   0  0  0  0  0  0  0  0  0  0  0  0
   30.3350   26.9430   48.2780 C   0  0  0  0  0  3  0  0  0  0  0  0
   31.6450   26.5790   48.2400 C   0  0  0  0  0  3  0  0  0  0  0  0
  1  6  2  0  0  0  0
  1  2  1  0  0  0  0
  2  3  2  0  0  0  0
  3  4  1  0  0  0  0
  3  8  1  0  0  0  0
  4  9  1  0  0  0  0
  5 10  1  0  0  0  0
  5  4  2  0  0  0  0
  6  5  1  0  0  0  0
  7  2  1  0  0  0  0
 11 12  1  0  0  0  0
 11 17  1  0  0  0  0
 12  1  1  0  0  0  0
 13 18  1  0  0  0  0
 13 12  2  0  0  0  0
 14 13  1  0  0  0  0
 15 14  2  0  0  0  0
 15 16  1  0  0  0  0
 16 11  2  0  0  0  0
 19 15  1  0  0  0  0
 20 21  2  0  0  0  0
 22 20  1  0  0  0  0
 22  6  1  0  0  0  0
 23 22  1  0  0  0  0
 24 20  1  0  0  0  0
 25 24  1  0  0  0  0
 25 29  1  0  0  0  0
 26 25  2  0  0  0  0
 27 28  1  0  0  0  0
 28 35  1  0  0  0  0
 29 30  1  0  0  0  0
 29 28  2  0  0  0  0
 30 32  2  0  0  0  0
 31 30  1  0  0  0  0
 32 34  1  0  0  0  0
 33 32  1  0  0  0  0
 35 34  2  0  0  0  0
M  END
>  <minimizedAffinity>
-5.94597673

>  <minimizedRMSD>
1.34375393

$$$$
