
 OpenBabel03272500563D

 35 37  0  0  0  0  0  0  0  0999 V2000
   38.1020   31.9240   47.4390 C   0  0  0  0  0  0  0  0  0  0  0  0
   38.5280   32.8780   48.3220 C   0  0  0  0  0  0  0  0  0  0  0  0
   38.0190   32.9770   49.6200 C   0  0  0  0  0  0  0  0  0  0  0  0
   37.0050   32.0160   50.0050 C   0  0  0  0  0  0  0  0  0  0  0  0
   36.6240   31.0950   49.0880 C   0  0  0  0  0  0  0  0  0  0  0  0
   37.1210   31.0100   47.8400 C   0  0  0  0  0  0  0  0  0  0  0  0
   39.2970   33.6160   48.0510 H   0  0  0  0  0  0  0  0  0  0  0  0
   38.3990   33.7570   50.2690 H   0  0  0  0  0  0  0  0  0  0  0  0
   36.7110   32.2100   51.0160 H   0  0  0  0  0  0  0  0  0  0  0  0
   35.8970   30.4830   49.5970 H   0  0  0  0  0  0  0  0  0  0  0  0
   40.0050   31.3000   46.0290 C   0  0  0  0  0  0  0  0  0  0  0  0
   38.7390   31.9380   46.1420 C   0  0  0  0  0  0  0  0  0  0  0  0
   38.2710   32.4940   44.9760 C   0  0  0  0  0  0  0  0  0  0  0  0
   38.9910   32.4170   43.8420 N   0  0  0  0  0  0  0  0  0  0  0  0
   40.1590   31.8230   43.7560 C   0  0  0  0  0  0  0  0  0  0  0  0
   40.6560   31.2700   44.8500 N   0  0  0  0  0  0  0  0  0  0  0  0
   40.4240   30.8470   46.9020 H   0  0  0  0  0  0  0  0  0  0  0  0
   37.3070   32.9820   45.0540 H   0  0  0  0  0  0  0  0  0  0  0  0
   40.7750   31.7330   42.8710 H   0  0  0  0  0  0  0  0  0  0  0  0
   35.2270   29.9390   46.9500 C   0  0  0  0  0  0  0  0  0  0  0  0
   34.5450   30.6570   47.7860 O   0  0  0  0  0  0  0  0  0  0  0  0
   36.6690   30.0650   46.9510 N   0  0  0  0  0  0  0  0  0  0  0  0
   37.2750   29.5040   46.3500 H   0  0  0  0  0  0  0  0  0  0  0  0
   34.5620   29.0890   46.1000 O   0  0  0  0  0  0  0  0  0  0  0  0
   33.5650   29.4850   45.2150 C   0  0  0  0  0  0  0  0  0  0  0  0
   33.7220   30.5190   44.4180 O   0  0  0  0  0  0  0  0  0  0  0  0
   31.1150   30.5130   46.1540 F   0  0  0  0  0  0  0  0  0  0  0  0
   31.0880   29.2920   45.5560 C   0  0  0  0  0  0  0  0  0  0  0  0
   32.2740   28.7680   45.0890 C   0  0  0  0  0  0  0  0  0  0  0  0
   32.1980   27.5400   44.4970 C   0  0  0  0  0  0  0  0  0  0  0  0
   33.1040   27.0950   44.1180 H   0  0  0  0  0  0  0  0  0  0  0  0
   30.9860   26.8890   44.3910 C   0  0  0  0  0  0  0  0  0  0  0  0
   31.0270   25.9090   43.8990 H   0  0  0  0  0  0  0  0  0  0  0  0
   29.8160   27.4410   44.8690 C   0  0  0  0  0  3  0  0  0  0  0  0
   29.8790   28.6630   45.4600 C   0  0  0  0  0  3  0  0  0  0  0  0
  1  6  2  0  0  0  0
  1  2  1  0  0  0  0
  2  3  2  0  0  0  0
  3  4  1  0  0  0  0
  3  8  1  0  0  0  0
  4  9  1  0  0  0  0
  5 10  1  0  0  0  0
  5  4  2  0  0  0  0
  6  5  1  0  0  0  0
  7  2  1  0  0  0  0
 11 12  1  0  0  0  0
 11 17  1  0  0  0  0
 12  1  1  0  0  0  0
 13 18  1  0  0  0  0
 13 12  2  0  0  0  0
 14 13  1  0  0  0  0
 15 14  2  0  0  0  0
 15 16  1  0  0  0  0
 16 11  2  0  0  0  0
 19 15  1  0  0  0  0
 20 22  1  0  0  0  0
 20 21  2  0  0  0  0
 22  6  1  0  0  0  0
 23 22  1  0  0  0  0
 24 20  1  0  0  0  0
 25 24  1  0  0  0  0
 26 25  2  0  0  0  0
 28 27  1  0  0  0  0
 29 25  1  0  0  0  0
 29 28  2  0  0  0  0
 30 29  1  0  0  0  0
 31 30  1  0  0  0  0
 32 30  2  0  0  0  0
 32 34  1  0  0  0  0
 33 32  1  0  0  0  0
 34 35  2  0  0  0  0
 35 28  1  0  0  0  0
M  END
>  <minimizedAffinity>
-5.27270889

>  <minimizedRMSD>
0.218120053

$$$$
