
 OpenBabel03272500543D

 32 34  0  0  0  0  0  0  0  0999 V2000
   36.1680   30.3800   43.5060 C   0  0  0  0  0  0  0  0  0  0  0  0
   36.2100   29.5610   42.3760 C   0  0  0  0  0  0  0  0  0  0  0  0
   37.2960   29.5400   41.5170 C   0  0  0  0  0  0  0  0  0  0  0  0
   38.4090   30.3810   41.7890 C   0  0  0  0  0  0  0  0  0  0  0  0
   38.3270   31.1660   42.9050 C   0  0  0  0  0  0  0  0  0  0  0  0
   37.2660   31.1890   43.7550 C   0  0  0  0  0  0  0  0  0  0  0  0
   35.3550   28.9080   42.1530 H   0  0  0  0  0  0  0  0  0  0  0  0
   37.2170   28.8570   40.6660 H   0  0  0  0  0  0  0  0  0  0  0  0
   39.1470   30.2380   41.0310 H   0  0  0  0  0  0  0  0  0  0  0  0
   39.2340   31.7310   42.8730 H   0  0  0  0  0  0  0  0  0  0  0  0
   34.9690   29.5330   45.4320 C   0  0  0  0  0  0  0  0  0  0  0  0
   34.9380   30.3300   44.2720 C   0  0  0  0  0  0  0  0  0  0  0  0
   33.7350   30.9880   43.9760 C   0  0  0  0  0  0  0  0  0  0  0  0
   32.6760   30.8390   44.7900 N   0  0  0  0  0  0  0  0  0  0  0  0
   32.7200   30.0780   45.8900 C   0  0  0  0  0  0  0  0  0  0  0  0
   33.8600   29.4330   46.2020 N   0  0  0  0  0  0  0  0  0  0  0  0
   35.8700   29.0030   45.7090 H   0  0  0  0  0  0  0  0  0  0  0  0
   33.7640   31.5930   43.0660 H   0  0  0  0  0  0  0  0  0  0  0  0
   31.8160   30.0230   46.4790 H   0  0  0  0  0  0  0  0  0  0  0  0
   38.0380   31.4200   45.9640 C   0  0  0  0  0  0  0  0  0  0  0  0
   38.5860   30.2760   45.7670 O   0  0  0  0  0  0  0  0  0  0  0  0
   37.2260   31.9660   44.9120 N   0  0  0  0  0  0  0  0  0  0  0  0
   36.6980   32.8160   45.0260 H   0  0  0  0  0  0  0  0  0  0  0  0
   39.9750   33.5000   46.5550 F   0  0  0  0  0  0  0  0  0  0  0  0
   39.1650   33.0650   47.5440 C   0  0  0  0  0  0  0  0  0  0  0  0
   38.2740   32.0920   47.2400 C   0  0  0  0  0  0  0  0  0  0  0  0
   37.4940   31.7100   48.3110 C   0  0  0  0  0  0  0  0  0  0  0  0
   36.7350   30.9420   48.2240 H   0  0  0  0  0  0  0  0  0  0  0  0
   37.6040   32.2600   49.5690 C   0  0  0  0  0  0  0  0  0  0  0  0
   36.9880   31.9470   50.3820 H   0  0  0  0  0  0  0  0  0  0  0  0
   38.5290   33.2480   49.8240 C   0  0  0  0  0  3  0  0  0  0  0  0
   39.3230   33.6510   48.7720 C   0  0  0  0  0  3  0  0  0  0  0  0
  1  6  1  0  0  0  0
  1 12  1  0  0  0  0
  2  1  2  0  0  0  0
  3  4  2  0  0  0  0
  3  2  1  0  0  0  0
  4  5  1  0  0  0  0
  5  6  2  0  0  0  0
  6 22  1  0  0  0  0
  7  2  1  0  0  0  0
  8  3  1  0  0  0  0
  9  4  1  0  0  0  0
 10  5  1  0  0  0  0
 11 17  1  0  0  0  0
 11 16  1  0  0  0  0
 12 11  2  0  0  0  0
 13 12  1  0  0  0  0
 13 14  2  0  0  0  0
 14 15  1  0  0  0  0
 15 16  2  0  0  0  0
 15 19  1  0  0  0  0
 18 13  1  0  0  0  0
 20 26  1  0  0  0  0
 21 20  2  0  0  0  0
 22 23  1  0  0  0  0
 22 20  1  0  0  0  0
 24 25  1  0  0  0  0
 25 32  1  0  0  0  0
 26 25  2  0  0  0  0
 26 27  1  0  0  0  0
 27 29  2  0  0  0  0
 28 27  1  0  0  0  0
 29 31  1  0  0  0  0
 29 30  1  0  0  0  0
 32 31  2  0  0  0  0
M  END
>  <minimizedAffinity>
-5.13655519

>  <minimizedRMSD>
4.94146729

$$$$
