
     RDKit          3D

 34 36  0  0  0  0  0  0  0  0999 V2000
   38.1104   31.1862   47.8943 C   0  0  0  0  0  0  0  0  0  0  0  0
   38.4035   30.3767   46.7939 C   0  0  0  0  0  0  0  0  0  0  0  0
   39.1906   30.8149   45.7434 C   0  0  0  0  0  0  0  0  0  0  0  0
   39.7203   32.1342   45.7782 C   0  0  0  0  0  0  0  0  0  0  0  0
   39.4088   32.8912   46.8721 C   0  0  0  0  0  0  0  0  0  0  0  0
   38.6404   32.4665   47.9099 C   0  0  0  0  0  0  0  0  0  0  0  0
   37.8555   29.9663   49.9705 C   0  0  0  0  0  0  0  0  0  0  0  0
   37.2262   30.6029   48.8838 C   0  0  0  0  0  0  0  0  0  0  0  0
   35.8230   30.6087   48.8665 C   0  0  0  0  0  0  0  0  0  0  0  0
   35.1425   30.0203   49.8646 N   0  0  0  0  0  0  0  0  0  0  0  0
   35.7540   29.4185   50.8921 C   0  0  0  0  0  0  0  0  0  0  0  0
   37.0986   29.3954   50.9380 N   0  0  0  0  0  0  0  0  0  0  0  0
   39.3509   34.2805   49.2271 C   0  0  0  0  0  0  0  0  0  0  0  0
   40.3694   34.2977   48.4442 O   0  0  0  0  0  0  0  0  0  0  0  0
   38.3750   33.2439   49.0372 N   0  0  0  0  0  0  0  0  0  0  0  0
   37.9995   29.3571   46.7540 H   0  0  0  0  0  0  0  0  0  0  0  0
   39.3539   30.0931   44.9369 H   0  0  0  0  0  0  0  0  0  0  0  0
   40.2961   32.3014   44.8954 H   0  0  0  0  0  0  0  0  0  0  0  0
   39.8653   33.8344   46.6536 H   0  0  0  0  0  0  0  0  0  0  0  0
   38.9342   29.9312   50.0363 H   0  0  0  0  0  0  0  0  0  0  0  0
   35.3854   31.1146   48.0027 H   0  0  0  0  0  0  0  0  0  0  0  0
   35.1172   28.9750   51.6442 H   0  0  0  0  0  0  0  0  0  0  0  0
   37.5968   33.1160   49.6625 H   0  0  0  0  0  0  0  0  0  0  0  0
   38.0031   34.1175   51.7935 F   0  0  0  0  0  0  0  0  0  0  0  0
   38.6342   35.2638   51.4615 C   0  0  0  0  0  0  0  0  0  0  0  0
   39.2509   35.3122   50.2573 C   0  0  0  0  0  0  0  0  0  0  0  0
   39.8637   36.5212   50.0055 C   0  0  0  0  0  0  0  0  0  0  0  0
   40.3987   36.7118   49.0818 H   0  0  0  0  0  0  0  0  0  0  0  0
   39.8548   37.5803   50.8855 C   0  0  0  0  0  0  0  0  0  0  0  0
   40.3372   38.5062   50.6664 H   0  0  0  0  0  0  0  0  0  0  0  0
   39.2109   37.4760   52.0990 C   0  0  0  0  0  0  0  0  0  0  0  0
   38.5884   36.2787   52.3798 C   0  0  0  0  0  0  0  0  0  0  0  0
   39.1590   38.2544   52.8372 H   0  0  0  0  0  0  0  0  0  0  0  0
   38.0712   36.1519   53.3196 H   0  0  0  0  0  0  0  0  0  0  0  0
  1  6  1  0
  1  8  1  0
  2  1  2  0
  3  4  2  0
  3  2  1  0
  4  5  1  0
  5  6  2  0
  6 15  1  0
  7 12  2  0
  8  9  2  0
  8  7  1  0
  9 10  1  0
 10 11  2  0
 11 12  1  0
 14 13  2  0
 15 13  1  0
  2 16  1  0
  3 17  1  0
  4 18  1  0
  5 19  1  0
  7 20  1  0
  9 21  1  0
 11 22  1  0
 15 23  1  0
 24 25  1  0
 25 26  2  0
 26 27  1  0
 27 28  1  0
 27 29  2  0
 29 30  1  0
 29 31  1  0
 31 32  2  0
 32 25  1  0
 31 33  1  0
 32 34  1  0
 13 26  1  0
M  ISO  8  16  14  17  14  18  14  19  14  20  14  21  14  22  14  28  15
M  ISO  1  30  16
M  END
>  <DihAtoms>  (1) 
13,12,25,24

>  <DihDeg>  (1) 
177.7032233267193

$$$$
