
 OpenBabel03272500553D

 32 34  0  0  0  0  0  0  0  0999 V2000
   39.3570   25.5990   34.6040 C   0  0  0  0  0  0  0  0  0  0  0  0
   40.4570   26.4540   34.7060 C   0  0  0  0  0  0  0  0  0  0  0  0
   40.9070   27.2100   33.6380 C   0  0  0  0  0  0  0  0  0  0  0  0
   40.2310   27.1170   32.3910 C   0  0  0  0  0  0  0  0  0  0  0  0
   39.1610   26.2700   32.3350 C   0  0  0  0  0  0  0  0  0  0  0  0
   38.7100   25.5260   33.3810 C   0  0  0  0  0  0  0  0  0  0  0  0
   40.9890   26.5330   35.6630 H   0  0  0  0  0  0  0  0  0  0  0  0
   41.7760   27.8450   33.8360 H   0  0  0  0  0  0  0  0  0  0  0  0
   40.7090   27.7610   31.6870 H   0  0  0  0  0  0  0  0  0  0  0  0
   38.8560   26.3280   31.3110 H   0  0  0  0  0  0  0  0  0  0  0  0
   39.8150   23.6690   35.9960 C   0  0  0  0  0  0  0  0  0  0  0  0
   39.0460   24.8320   35.7950 C   0  0  0  0  0  0  0  0  0  0  0  0
   38.0660   25.1280   36.7540 C   0  0  0  0  0  0  0  0  0  0  0  0
   37.8970   24.3110   37.8080 N   0  0  0  0  0  0  0  0  0  0  0  0
   38.6370   23.2100   37.9860 C   0  0  0  0  0  0  0  0  0  0  0  0
   39.5850   22.8970   37.0840 N   0  0  0  0  0  0  0  0  0  0  0  0
   40.5850   23.3920   35.2890 H   0  0  0  0  0  0  0  0  0  0  0  0
   37.4970   26.0390   36.5510 H   0  0  0  0  0  0  0  0  0  0  0  0
   38.4230   22.6200   38.8660 H   0  0  0  0  0  0  0  0  0  0  0  0
   37.9020   23.3900   32.8220 C   0  0  0  0  0  0  0  0  0  0  0  0
   39.1000   23.1720   32.4150 O   0  0  0  0  0  0  0  0  0  0  0  0
   37.5870   24.7030   33.3100 N   0  0  0  0  0  0  0  0  0  0  0  0
   36.6510   24.9720   33.5660 H   0  0  0  0  0  0  0  0  0  0  0  0
   37.2080   21.5060   34.9180 F   0  0  0  0  0  0  0  0  0  0  0  0
   36.5920   21.4030   33.7210 C   0  0  0  0  0  0  0  0  0  0  0  0
   36.9390   22.2930   32.7610 C   0  0  0  0  0  0  0  0  0  0  0  0
   36.2610   22.1070   31.5740 C   0  0  0  0  0  0  0  0  0  0  0  0
   36.4320   22.7420   30.7130 H   0  0  0  0  0  0  0  0  0  0  0  0
   35.3240   21.1180   31.3770 C   0  0  0  0  0  0  0  0  0  0  0  0
   34.8140   20.9960   30.4470 H   0  0  0  0  0  0  0  0  0  0  0  0
   35.0100   20.2390   32.3900 C   0  0  0  0  0  3  0  0  0  0  0  0
   35.6710   20.3990   33.5880 C   0  0  0  0  0  3  0  0  0  0  0  0
  1  2  1  0  0  0  0
  1 12  1  0  0  0  0
  2  7  1  0  0  0  0
  3  8  1  0  0  0  0
  3  2  2  0  0  0  0
  4  3  1  0  0  0  0
  5  4  2  0  0  0  0
  5  6  1  0  0  0  0
  6  1  2  0  0  0  0
  9  4  1  0  0  0  0
 10  5  1  0  0  0  0
 11 16  1  0  0  0  0
 12 11  2  0  0  0  0
 12 13  1  0  0  0  0
 13 14  2  0  0  0  0
 14 15  1  0  0  0  0
 15 19  1  0  0  0  0
 16 15  2  0  0  0  0
 17 11  1  0  0  0  0
 18 13  1  0  0  0  0
 20 22  1  0  0  0  0
 21 20  2  0  0  0  0
 22  6  1  0  0  0  0
 22 23  1  0  0  0  0
 25 24  1  0  0  0  0
 26 20  1  0  0  0  0
 26 25  2  0  0  0  0
 27 26  1  0  0  0  0
 28 27  1  0  0  0  0
 29 27  2  0  0  0  0
 29 31  1  0  0  0  0
 30 29  1  0  0  0  0
 31 32  2  0  0  0  0
 32 25  1  0  0  0  0
M  END
>  <minimizedAffinity>
-5.78153419

$$$$

 OpenBabel03272500553D

 32 34  0  0  0  0  0  0  0  0999 V2000
   39.4490   25.5690   34.6130 C   0  0  0  0  0  0  0  0  0  0  0  0
   40.5740   26.3890   34.7310 C   0  0  0  0  0  0  0  0  0  0  0  0
   41.0070   27.2030   33.6990 C   0  0  0  0  0  0  0  0  0  0  0  0
   40.2880   27.2080   32.4730 C   0  0  0  0  0  0  0  0  0  0  0  0
   39.1940   26.3920   32.4000 C   0  0  0  0  0  0  0  0  0  0  0  0
   38.7600   25.5930   33.4100 C   0  0  0  0  0  0  0  0  0  0  0  0
   41.1400   26.3920   35.6730 H   0  0  0  0  0  0  0  0  0  0  0  0
   41.8990   27.8020   33.9080 H   0  0  0  0  0  0  0  0  0  0  0  0
   40.7590   27.8860   31.7970 H   0  0  0  0  0  0  0  0  0  0  0  0
   38.8570   26.5260   31.3940 H   0  0  0  0  0  0  0  0  0  0  0  0
   38.2170   25.2480   36.6730 C   0  0  0  0  0  0  0  0  0  0  0  0
   39.1580   24.7330   35.7610 C   0  0  0  0  0  0  0  0  0  0  0  0
   39.7140   23.4780   36.0510 C   0  0  0  0  0  0  0  0  0  0  0  0
   39.3390   22.8240   37.1640 N   0  0  0  0  0  0  0  0  0  0  0  0
   38.4430   23.3260   38.0210 C   0  0  0  0  0  0  0  0  0  0  0  0
   37.8910   24.5280   37.7730 N   0  0  0  0  0  0  0  0  0  0  0  0
   37.7560   26.2110   36.5000 H   0  0  0  0  0  0  0  0  0  0  0  0
   40.4380   23.1250   35.3130 H   0  0  0  0  0  0  0  0  0  0  0  0
   38.2090   22.7220   38.8870 H   0  0  0  0  0  0  0  0  0  0  0  0
   37.8800   23.5130   32.7540 C   0  0  0  0  0  0  0  0  0  0  0  0
   39.0610   23.2900   32.3000 O   0  0  0  0  0  0  0  0  0  0  0  0
   37.6140   24.8030   33.3260 N   0  0  0  0  0  0  0  0  0  0  0  0
   36.6930   25.0800   33.6240 H   0  0  0  0  0  0  0  0  0  0  0  0
   35.9230   23.0760   30.6560 F   0  0  0  0  0  0  0  0  0  0  0  0
   35.9670   22.2140   31.6940 C   0  0  0  0  0  0  0  0  0  0  0  0
   36.8880   22.4450   32.6590 C   0  0  0  0  0  0  0  0  0  0  0  0
   36.8550   21.5160   33.6780 C   0  0  0  0  0  0  0  0  0  0  0  0
   37.5320   21.5690   34.5230 H   0  0  0  0  0  0  0  0  0  0  0  0
   35.9770   20.4570   33.7170 C   0  0  0  0  0  0  0  0  0  0  0  0
   35.9730   19.7510   34.5190 H   0  0  0  0  0  0  0  0  0  0  0  0
   35.0600   20.2690   32.7060 C   0  0  0  0  0  3  0  0  0  0  0  0
   35.0680   21.1820   31.6740 C   0  0  0  0  0  3  0  0  0  0  0  0
  1  2  1  0  0  0  0
  1 12  1  0  0  0  0
  2  7  1  0  0  0  0
  3  8  1  0  0  0  0
  3  2  2  0  0  0  0
  4  3  1  0  0  0  0
  5  4  2  0  0  0  0
  5  6  1  0  0  0  0
  6  1  2  0  0  0  0
  9  4  1  0  0  0  0
 10  5  1  0  0  0  0
 11 16  1  0  0  0  0
 12 13  1  0  0  0  0
 12 11  2  0  0  0  0
 13 14  2  0  0  0  0
 14 15  1  0  0  0  0
 15 19  1  0  0  0  0
 16 15  2  0  0  0  0
 17 11  1  0  0  0  0
 18 13  1  0  0  0  0
 20 22  1  0  0  0  0
 21 20  2  0  0  0  0
 22  6  1  0  0  0  0
 22 23  1  0  0  0  0
 24 25  1  0  0  0  0
 25 26  1  0  0  0  0
 26 20  1  0  0  0  0
 26 27  2  0  0  0  0
 27 29  1  0  0  0  0
 27 28  1  0  0  0  0
 29 30  1  0  0  0  0
 31 29  2  0  0  0  0
 32 25  2  0  0  0  0
 32 31  1  0  0  0  0
M  END
>  <minimizedAffinity>
-5.64955664

$$$$

 OpenBabel03272500553D

 32 34  0  0  0  0  0  0  0  0999 V2000
   36.4000   23.4570   31.8580 C   0  0  0  0  0  0  0  0  0  0  0  0
   35.3250   24.0250   31.1700 C   0  0  0  0  0  0  0  0  0  0  0  0
   35.1730   25.3940   31.0360 C   0  0  0  0  0  0  0  0  0  0  0  0
   36.1400   26.2580   31.6180 C   0  0  0  0  0  0  0  0  0  0  0  0
   37.1760   25.6620   32.2800 C   0  0  0  0  0  0  0  0  0  0  0  0
   37.3350   24.3180   32.4130 C   0  0  0  0  0  0  0  0  0  0  0  0
   34.5690   23.3690   30.7190 H   0  0  0  0  0  0  0  0  0  0  0  0
   34.2920   25.7230   30.4760 H   0  0  0  0  0  0  0  0  0  0  0  0
   35.8670   27.2700   31.4190 H   0  0  0  0  0  0  0  0  0  0  0  0
   37.7310   26.4920   32.6640 H   0  0  0  0  0  0  0  0  0  0  0  0
   35.6140   21.4760   33.0080 C   0  0  0  0  0  0  0  0  0  0  0  0
   36.3870   22.0110   31.9600 C   0  0  0  0  0  0  0  0  0  0  0  0
   37.0610   21.1030   31.1290 C   0  0  0  0  0  0  0  0  0  0  0  0
   36.9490   19.7830   31.3560 N   0  0  0  0  0  0  0  0  0  0  0  0
   36.2100   19.2890   32.3560 C   0  0  0  0  0  0  0  0  0  0  0  0
   35.5510   20.1330   33.1710 N   0  0  0  0  0  0  0  0  0  0  0  0
   35.0730   22.1290   33.6790 H   0  0  0  0  0  0  0  0  0  0  0  0
   37.6470   21.5700   30.3330 H   0  0  0  0  0  0  0  0  0  0  0  0
   36.1850   18.2130   32.4540 H   0  0  0  0  0  0  0  0  0  0  0  0
   38.5120   24.1120   34.4380 C   0  0  0  0  0  0  0  0  0  0  0  0
   37.6860   24.9940   34.8720 O   0  0  0  0  0  0  0  0  0  0  0  0
   38.4250   23.7330   33.0550 N   0  0  0  0  0  0  0  0  0  0  0  0
   39.0910   23.1130   32.6250 H   0  0  0  0  0  0  0  0  0  0  0  0
   38.0020   22.8650   37.0090 F   0  0  0  0  0  0  0  0  0  0  0  0
   39.2760   22.9630   36.5750 C   0  0  0  0  0  0  0  0  0  0  0  0
   39.4840   23.5530   35.3750 C   0  0  0  0  0  0  0  0  0  0  0  0
   40.8150   23.6110   35.0180 C   0  0  0  0  0  0  0  0  0  0  0  0
   41.1390   24.0560   34.0840 H   0  0  0  0  0  0  0  0  0  0  0  0
   41.8370   23.1210   35.7990 C   0  0  0  0  0  0  0  0  0  0  0  0
   42.8600   23.1780   35.4990 H   0  0  0  0  0  0  0  0  0  0  0  0
   41.5680   22.5290   37.0140 C   0  0  0  0  0  3  0  0  0  0  0  0
   40.2470   22.4570   37.3980 C   0  0  0  0  0  3  0  0  0  0  0  0
  1 12  1  0  0  0  0
  1  6  1  0  0  0  0
  2  1  2  0  0  0  0
  3  2  1  0  0  0  0
  3  4  2  0  0  0  0
  4  5  1  0  0  0  0
  5  6  2  0  0  0  0
  5 10  1  0  0  0  0
  6 22  1  0  0  0  0
  7  2  1  0  0  0  0
  8  3  1  0  0  0  0
  9  4  1  0  0  0  0
 11 16  1  0  0  0  0
 11 17  1  0  0  0  0
 12 11  2  0  0  0  0
 13 14  2  0  0  0  0
 13 12  1  0  0  0  0
 14 15  1  0  0  0  0
 15 19  1  0  0  0  0
 15 16  2  0  0  0  0
 18 13  1  0  0  0  0
 20 21  2  0  0  0  0
 20 26  1  0  0  0  0
 22 20  1  0  0  0  0
 23 22  1  0  0  0  0
 25 24  1  0  0  0  0
 25 32  1  0  0  0  0
 26 25  2  0  0  0  0
 27 26  1  0  0  0  0
 27 29  2  0  0  0  0
 28 27  1  0  0  0  0
 29 31  1  0  0  0  0
 30 29  1  0  0  0  0
 31 32  2  0  0  0  0
M  END
>  <minimizedAffinity>
-5.44335842

$$$$

 OpenBabel03272500553D

 32 34  0  0  0  0  0  0  0  0999 V2000
   39.5150   23.7750   35.8960 C   0  0  0  0  0  0  0  0  0  0  0  0
   40.1700   23.0880   36.9200 C   0  0  0  0  0  0  0  0  0  0  0  0
   39.6500   22.9950   38.1990 C   0  0  0  0  0  0  0  0  0  0  0  0
   38.4070   23.6200   38.4870 C   0  0  0  0  0  0  0  0  0  0  0  0
   37.7990   24.2810   37.4570 C   0  0  0  0  0  0  0  0  0  0  0  0
   38.3020   24.3740   36.1970 C   0  0  0  0  0  0  0  0  0  0  0  0
   41.1330   22.6020   36.7110 H   0  0  0  0  0  0  0  0  0  0  0  0
   40.2520   22.4300   38.9180 H   0  0  0  0  0  0  0  0  0  0  0  0
   38.1610   23.4490   39.5120 H   0  0  0  0  0  0  0  0  0  0  0  0
   36.9280   24.7010   37.9160 H   0  0  0  0  0  0  0  0  0  0  0  0
   41.1730   24.8560   34.4990 C   0  0  0  0  0  0  0  0  0  0  0  0
   40.2160   23.8310   34.6280 C   0  0  0  0  0  0  0  0  0  0  0  0
   40.0380   22.9760   33.5300 C   0  0  0  0  0  0  0  0  0  0  0  0
   40.7680   23.1600   32.4170 N   0  0  0  0  0  0  0  0  0  0  0  0
   41.6750   24.1390   32.3090 C   0  0  0  0  0  0  0  0  0  0  0  0
   41.8700   24.9760   33.3440 N   0  0  0  0  0  0  0  0  0  0  0  0
   41.3520   25.5440   35.3140 H   0  0  0  0  0  0  0  0  0  0  0  0
   39.2840   22.1990   33.6810 H   0  0  0  0  0  0  0  0  0  0  0  0
   42.2110   24.2030   31.3730 H   0  0  0  0  0  0  0  0  0  0  0  0
   37.8660   26.4350   35.1520 C   0  0  0  0  0  0  0  0  0  0  0  0
   38.5220   26.9380   36.1340 O   0  0  0  0  0  0  0  0  0  0  0  0
   37.6390   25.0160   35.1520 N   0  0  0  0  0  0  0  0  0  0  0  0
   37.0630   24.5630   34.4620 H   0  0  0  0  0  0  0  0  0  0  0  0
   38.7570   26.5840   32.3940 F   0  0  0  0  0  0  0  0  0  0  0  0
   37.7850   27.4220   32.8090 C   0  0  0  0  0  0  0  0  0  0  0  0
   37.3920   27.3330   34.1010 C   0  0  0  0  0  0  0  0  0  0  0  0
   36.3980   28.2300   34.4340 C   0  0  0  0  0  0  0  0  0  0  0  0
   35.9810   28.2780   35.4330 H   0  0  0  0  0  0  0  0  0  0  0  0
   35.8550   29.1300   33.5460 C   0  0  0  0  0  0  0  0  0  0  0  0
   35.0850   29.8150   33.8290 H   0  0  0  0  0  0  0  0  0  0  0  0
   36.2930   29.1780   32.2400 C   0  0  0  0  0  3  0  0  0  0  0  0
   37.2860   28.2940   31.8780 C   0  0  0  0  0  3  0  0  0  0  0  0
  1  6  2  0  0  0  0
  1  2  1  0  0  0  0
  2  3  2  0  0  0  0
  3  4  1  0  0  0  0
  3  8  1  0  0  0  0
  4  9  1  0  0  0  0
  5 10  1  0  0  0  0
  5  4  2  0  0  0  0
  6  5  1  0  0  0  0
  7  2  1  0  0  0  0
 11 12  1  0  0  0  0
 11 17  1  0  0  0  0
 12  1  1  0  0  0  0
 13 18  1  0  0  0  0
 13 12  2  0  0  0  0
 14 13  1  0  0  0  0
 15 14  2  0  0  0  0
 15 16  1  0  0  0  0
 16 11  2  0  0  0  0
 19 15  1  0  0  0  0
 20 21  2  0  0  0  0
 22 20  1  0  0  0  0
 22  6  1  0  0  0  0
 23 22  1  0  0  0  0
 24 25  1  0  0  0  0
 25 26  1  0  0  0  0
 26 27  2  0  0  0  0
 26 20  1  0  0  0  0
 27 28  1  0  0  0  0
 29 30  1  0  0  0  0
 29 27  1  0  0  0  0
 31 29  2  0  0  0  0
 32 31  1  0  0  0  0
 32 25  2  0  0  0  0
M  END
>  <minimizedAffinity>
-5.39097548

$$$$

 OpenBabel03272500553D

 32 34  0  0  0  0  0  0  0  0999 V2000
   39.5560   25.9180   34.4150 C   0  0  0  0  0  0  0  0  0  0  0  0
   40.7890   26.5640   34.5320 C   0  0  0  0  0  0  0  0  0  0  0  0
   41.9500   25.8880   34.8660 C   0  0  0  0  0  0  0  0  0  0  0  0
   41.8910   24.4870   35.1010 C   0  0  0  0  0  0  0  0  0  0  0  0
   40.6660   23.8950   34.9750 C   0  0  0  0  0  0  0  0  0  0  0  0
   39.5220   24.5510   34.6440 C   0  0  0  0  0  0  0  0  0  0  0  0
   40.8470   27.6460   34.3560 H   0  0  0  0  0  0  0  0  0  0  0  0
   42.8560   26.4980   34.9280 H   0  0  0  0  0  0  0  0  0  0  0  0
   42.8680   24.1340   35.3460 H   0  0  0  0  0  0  0  0  0  0  0  0
   40.8580   22.8760   35.2420 H   0  0  0  0  0  0  0  0  0  0  0  0
   38.2310   27.0810   32.7540 C   0  0  0  0  0  0  0  0  0  0  0  0
   38.4250   26.7730   34.1150 C   0  0  0  0  0  0  0  0  0  0  0  0
   37.5160   27.3200   35.0330 C   0  0  0  0  0  0  0  0  0  0  0  0
   36.5140   28.1010   34.5950 N   0  0  0  0  0  0  0  0  0  0  0  0
   36.3410   28.3840   33.2990 C   0  0  0  0  0  0  0  0  0  0  0  0
   37.1970   27.8760   32.3920 N   0  0  0  0  0  0  0  0  0  0  0  0
   38.9010   26.6880   32.0020 H   0  0  0  0  0  0  0  0  0  0  0  0
   37.7110   27.0510   36.0750 H   0  0  0  0  0  0  0  0  0  0  0  0
   35.5050   29.0210   33.0480 H   0  0  0  0  0  0  0  0  0  0  0  0
   38.2220   23.1790   33.2450 C   0  0  0  0  0  0  0  0  0  0  0  0
   39.2060   23.2820   32.4260 O   0  0  0  0  0  0  0  0  0  0  0  0
   38.2930   23.9150   34.4760 N   0  0  0  0  0  0  0  0  0  0  0  0
   37.5250   23.9500   35.1270 H   0  0  0  0  0  0  0  0  0  0  0  0
   36.6670   23.2370   30.7950 F   0  0  0  0  0  0  0  0  0  0  0  0
   36.3580   22.3240   31.7400 C   0  0  0  0  0  0  0  0  0  0  0  0
   37.0980   22.3230   32.8730 C   0  0  0  0  0  0  0  0  0  0  0  0
   36.7060   21.3600   33.7800 C   0  0  0  0  0  0  0  0  0  0  0  0
   37.2040   21.2360   34.7350 H   0  0  0  0  0  0  0  0  0  0  0  0
   35.6680   20.4830   33.5610 C   0  0  0  0  0  0  0  0  0  0  0  0
   35.3850   19.7460   34.2800 H   0  0  0  0  0  0  0  0  0  0  0  0
   34.9480   20.5290   32.3870 C   0  0  0  0  0  3  0  0  0  0  0  0
   35.3150   21.4810   31.4620 C   0  0  0  0  0  3  0  0  0  0  0  0
  1  2  2  0  0  0  0
  1  6  1  0  0  0  0
  2  3  1  0  0  0  0
  3  8  1  0  0  0  0
  3  4  2  0  0  0  0
  4  9  1  0  0  0  0
  5  4  1  0  0  0  0
  5 10  1  0  0  0  0
  6  5  2  0  0  0  0
  7  2  1  0  0  0  0
 11 12  1  0  0  0  0
 12  1  1  0  0  0  0
 12 13  2  0  0  0  0
 13 18  1  0  0  0  0
 14 13  1  0  0  0  0
 15 14  2  0  0  0  0
 16 11  2  0  0  0  0
 16 15  1  0  0  0  0
 17 11  1  0  0  0  0
 19 15  1  0  0  0  0
 20 22  1  0  0  0  0
 21 20  2  0  0  0  0
 22  6  1  0  0  0  0
 22 23  1  0  0  0  0
 24 25  1  0  0  0  0
 25 26  1  0  0  0  0
 26 20  1  0  0  0  0
 26 27  2  0  0  0  0
 27 28  1  0  0  0  0
 29 27  1  0  0  0  0
 29 30  1  0  0  0  0
 31 29  2  0  0  0  0
 32 25  2  0  0  0  0
 32 31  1  0  0  0  0
M  END
>  <minimizedAffinity>
-5.34328842

$$$$

 OpenBabel03272500553D

 32 34  0  0  0  0  0  0  0  0999 V2000
   37.5070   26.2100   32.7090 C   0  0  0  0  0  0  0  0  0  0  0  0
   38.0100   27.5000   32.5300 C   0  0  0  0  0  0  0  0  0  0  0  0
   37.5540   28.3390   31.5280 C   0  0  0  0  0  0  0  0  0  0  0  0
   36.5380   27.8770   30.6480 C   0  0  0  0  0  0  0  0  0  0  0  0
   36.0730   26.6100   30.8590 C   0  0  0  0  0  0  0  0  0  0  0  0
   36.5130   25.7810   31.8430 C   0  0  0  0  0  0  0  0  0  0  0  0
   38.7970   27.8680   33.2020 H   0  0  0  0  0  0  0  0  0  0  0  0
   38.0210   29.3280   31.4850 H   0  0  0  0  0  0  0  0  0  0  0  0
   36.3110   28.6470   29.9440 H   0  0  0  0  0  0  0  0  0  0  0  0
   35.3710   26.4720   30.0640 H   0  0  0  0  0  0  0  0  0  0  0  0
   37.6510   25.6770   35.0680 C   0  0  0  0  0  0  0  0  0  0  0  0
   38.1280   25.4350   33.7650 C   0  0  0  0  0  0  0  0  0  0  0  0
   39.1450   24.4790   33.6210 C   0  0  0  0  0  0  0  0  0  0  0  0
   39.6200   23.8420   34.7050 N   0  0  0  0  0  0  0  0  0  0  0  0
   39.1570   24.0830   35.9370 C   0  0  0  0  0  0  0  0  0  0  0  0
   38.1810   24.9940   36.1100 N   0  0  0  0  0  0  0  0  0  0  0  0
   36.8680   26.4030   35.2390 H   0  0  0  0  0  0  0  0  0  0  0  0
   39.4790   24.3290   32.5910 H   0  0  0  0  0  0  0  0  0  0  0  0
   39.6040   23.5180   36.7430 H   0  0  0  0  0  0  0  0  0  0  0  0
   36.5900   23.5140   31.2190 C   0  0  0  0  0  0  0  0  0  0  0  0
   37.4140   23.9120   30.3180 O   0  0  0  0  0  0  0  0  0  0  0  0
   35.9900   24.5080   32.0660 N   0  0  0  0  0  0  0  0  0  0  0  0
   35.2730   24.2820   32.7360 H   0  0  0  0  0  0  0  0  0  0  0  0
   38.1450   21.3140   30.1390 F   0  0  0  0  0  0  0  0  0  0  0  0
   37.0240   21.0370   30.8380 C   0  0  0  0  0  0  0  0  0  0  0  0
   36.3170   22.0830   31.3260 C   0  0  0  0  0  0  0  0  0  0  0  0
   35.1880   21.7030   32.0210 C   0  0  0  0  0  0  0  0  0  0  0  0
   34.5200   22.4290   32.4700 H   0  0  0  0  0  0  0  0  0  0  0  0
   34.8100   20.3920   32.2040 C   0  0  0  0  0  0  0  0  0  0  0  0
   33.9300   20.1240   32.7460 H   0  0  0  0  0  0  0  0  0  0  0  0
   35.5670   19.3650   31.6840 C   0  0  0  0  0  3  0  0  0  0  0  0
   36.7020   19.7140   30.9840 C   0  0  0  0  0  3  0  0  0  0  0  0
  1 12  1  0  0  0  0
  2  1  1  0  0  0  0
  2  7  1  0  0  0  0
  3  2  2  0  0  0  0
  4  5  2  0  0  0  0
  4  3  1  0  0  0  0
  5  6  1  0  0  0  0
  6 22  1  0  0  0  0
  6  1  2  0  0  0  0
  8  3  1  0  0  0  0
  9  4  1  0  0  0  0
 10  5  1  0  0  0  0
 11 17  1  0  0  0  0
 11 16  1  0  0  0  0
 12 11  2  0  0  0  0
 13 12  1  0  0  0  0
 13 14  2  0  0  0  0
 14 15  1  0  0  0  0
 15 16  2  0  0  0  0
 15 19  1  0  0  0  0
 18 13  1  0  0  0  0
 20 26  1  0  0  0  0
 20 22  1  0  0  0  0
 21 20  2  0  0  0  0
 22 23  1  0  0  0  0
 24 25  1  0  0  0  0
 25 32  2  0  0  0  0
 25 26  1  0  0  0  0
 26 27  2  0  0  0  0
 27 29  1  0  0  0  0
 27 28  1  0  0  0  0
 29 30  1  0  0  0  0
 31 29  2  0  0  0  0
 32 31  1  0  0  0  0
M  END
>  <minimizedAffinity>
-5.28639936

$$$$

 OpenBabel03272500553D

 32 34  0  0  0  0  0  0  0  0999 V2000
   37.5060   21.9120   34.8110 C   0  0  0  0  0  0  0  0  0  0  0  0
   36.3980   21.0870   35.0150 C   0  0  0  0  0  0  0  0  0  0  0  0
   35.6100   20.6350   33.9710 C   0  0  0  0  0  0  0  0  0  0  0  0
   35.9330   21.0230   32.6420 C   0  0  0  0  0  0  0  0  0  0  0  0
   37.0240   21.8300   32.4870 C   0  0  0  0  0  0  0  0  0  0  0  0
   37.8060   22.2750   33.5060 C   0  0  0  0  0  0  0  0  0  0  0  0
   36.1370   20.7820   36.0370 H   0  0  0  0  0  0  0  0  0  0  0  0
   34.7690   19.9930   34.2520 H   0  0  0  0  0  0  0  0  0  0  0  0
   35.2250   20.5890   31.9710 H   0  0  0  0  0  0  0  0  0  0  0  0
   37.0370   22.0240   31.4350 H   0  0  0  0  0  0  0  0  0  0  0  0
   37.4240   23.0800   36.9310 C   0  0  0  0  0  0  0  0  0  0  0  0
   38.1950   22.3470   36.0100 C   0  0  0  0  0  0  0  0  0  0  0  0
   39.5390   22.1120   36.3390 C   0  0  0  0  0  0  0  0  0  0  0  0
   40.0330   22.5860   37.4960 N   0  0  0  0  0  0  0  0  0  0  0  0
   39.2870   23.2810   38.3620 C   0  0  0  0  0  0  0  0  0  0  0  0
   37.9950   23.5240   38.0760 N   0  0  0  0  0  0  0  0  0  0  0  0
   36.3820   23.2910   36.7290 H   0  0  0  0  0  0  0  0  0  0  0  0
   40.0930   21.5400   35.5920 H   0  0  0  0  0  0  0  0  0  0  0  0
   39.7780   23.6180   39.2650 H   0  0  0  0  0  0  0  0  0  0  0  0
   38.6410   24.4660   33.3230 C   0  0  0  0  0  0  0  0  0  0  0  0
   37.4060   24.8150   33.3810 O   0  0  0  0  0  0  0  0  0  0  0  0
   38.9420   23.0610   33.3170 N   0  0  0  0  0  0  0  0  0  0  0  0
   39.8770   22.7110   33.1880 H   0  0  0  0  0  0  0  0  0  0  0  0
   40.4770   25.2880   35.4150 F   0  0  0  0  0  0  0  0  0  0  0  0
   40.5270   25.9160   34.2210 C   0  0  0  0  0  0  0  0  0  0  0  0
   39.6570   25.5140   33.2660 C   0  0  0  0  0  0  0  0  0  0  0  0
   39.7800   26.2150   32.0850 C   0  0  0  0  0  0  0  0  0  0  0  0
   39.1510   26.0070   31.2270 H   0  0  0  0  0  0  0  0  0  0  0  0
   40.6950   27.2250   31.8880 C   0  0  0  0  0  0  0  0  0  0  0  0
   40.7700   27.7520   30.9630 H   0  0  0  0  0  0  0  0  0  0  0  0
   41.5590   27.5930   32.8960 C   0  0  0  0  0  3  0  0  0  0  0  0
   41.4590   26.9110   34.0890 C   0  0  0  0  0  3  0  0  0  0  0  0
  1  2  1  0  0  0  0
  1 12  1  0  0  0  0
  2  7  1  0  0  0  0
  3  8  1  0  0  0  0
  3  2  2  0  0  0  0
  4  3  1  0  0  0  0
  5  4  2  0  0  0  0
  5  6  1  0  0  0  0
  6  1  2  0  0  0  0
  9  4  1  0  0  0  0
 10  5  1  0  0  0  0
 11 16  1  0  0  0  0
 12 13  1  0  0  0  0
 12 11  2  0  0  0  0
 13 14  2  0  0  0  0
 14 15  1  0  0  0  0
 15 19  1  0  0  0  0
 16 15  2  0  0  0  0
 17 11  1  0  0  0  0
 18 13  1  0  0  0  0
 20 21  2  0  0  0  0
 22 20  1  0  0  0  0
 22  6  1  0  0  0  0
 23 22  1  0  0  0  0
 25 24  1  0  0  0  0
 26 20  1  0  0  0  0
 26 25  2  0  0  0  0
 27 26  1  0  0  0  0
 28 27  1  0  0  0  0
 29 27  2  0  0  0  0
 29 31  1  0  0  0  0
 30 29  1  0  0  0  0
 31 32  2  0  0  0  0
 32 25  1  0  0  0  0
M  END
>  <minimizedAffinity>
-5.27196074

$$$$

 OpenBabel03272500553D

 32 34  0  0  0  0  0  0  0  0999 V2000
   39.6010   23.5910   36.2530 C   0  0  0  0  0  0  0  0  0  0  0  0
   40.0240   23.0180   37.4540 C   0  0  0  0  0  0  0  0  0  0  0  0
   39.2580   23.0630   38.6060 C   0  0  0  0  0  0  0  0  0  0  0  0
   37.9960   23.7160   38.5720 C   0  0  0  0  0  0  0  0  0  0  0  0
   37.6200   24.2620   37.3770 C   0  0  0  0  0  0  0  0  0  0  0  0
   38.3650   24.2190   36.2400 C   0  0  0  0  0  0  0  0  0  0  0  0
   40.9990   22.5130   37.4940 H   0  0  0  0  0  0  0  0  0  0  0  0
   39.6920   22.5790   39.4860 H   0  0  0  0  0  0  0  0  0  0  0  0
   37.5480   23.6570   39.5380 H   0  0  0  0  0  0  0  0  0  0  0  0
   36.6850   24.7290   37.6060 H   0  0  0  0  0  0  0  0  0  0  0  0
   40.5370   22.3020   34.4280 C   0  0  0  0  0  0  0  0  0  0  0  0
   40.5410   23.5100   35.1520 C   0  0  0  0  0  0  0  0  0  0  0  0
   41.4440   24.5020   34.7420 C   0  0  0  0  0  0  0  0  0  0  0  0
   42.2570   24.2720   33.6960 N   0  0  0  0  0  0  0  0  0  0  0  0
   42.2410   23.1190   33.0170 C   0  0  0  0  0  0  0  0  0  0  0  0
   41.3870   22.1460   33.3860 N   0  0  0  0  0  0  0  0  0  0  0  0
   39.8610   21.5020   34.7000 H   0  0  0  0  0  0  0  0  0  0  0  0
   41.4070   25.4180   35.3360 H   0  0  0  0  0  0  0  0  0  0  0  0
   42.9340   23.0320   32.1920 H   0  0  0  0  0  0  0  0  0  0  0  0
   38.0830   26.1720   34.9620 C   0  0  0  0  0  0  0  0  0  0  0  0
   38.4590   26.7820   36.0270 O   0  0  0  0  0  0  0  0  0  0  0  0
   37.9370   24.7440   35.0220 N   0  0  0  0  0  0  0  0  0  0  0  0
   37.5660   24.2080   34.2540 H   0  0  0  0  0  0  0  0  0  0  0  0
   35.9670   28.1090   34.5210 F   0  0  0  0  0  0  0  0  0  0  0  0
   36.8530   27.8770   33.5300 C   0  0  0  0  0  0  0  0  0  0  0  0
   37.8260   26.9650   33.7620 C   0  0  0  0  0  0  0  0  0  0  0  0
   38.6790   26.7930   32.6920 C   0  0  0  0  0  0  0  0  0  0  0  0
   39.5080   26.0960   32.7280 H   0  0  0  0  0  0  0  0  0  0  0  0
   38.5600   27.4760   31.5030 C   0  0  0  0  0  0  0  0  0  0  0  0
   39.2340   27.3230   30.6890 H   0  0  0  0  0  0  0  0  0  0  0  0
   37.5490   28.3930   31.3210 C   0  0  0  0  0  3  0  0  0  0  0  0
   36.6800   28.5870   32.3720 C   0  0  0  0  0  3  0  0  0  0  0  0
  1  2  1  0  0  0  0
  2  7  1  0  0  0  0
  2  3  2  0  0  0  0
  3  8  1  0  0  0  0
  4  3  1  0  0  0  0
  4  9  1  0  0  0  0
  5 10  1  0  0  0  0
  5  4  2  0  0  0  0
  6  1  2  0  0  0  0
  6  5  1  0  0  0  0
 11 17  1  0  0  0  0
 11 12  1  0  0  0  0
 12  1  1  0  0  0  0
 13 12  2  0  0  0  0
 13 18  1  0  0  0  0
 14 13  1  0  0  0  0
 15 16  1  0  0  0  0
 15 14  2  0  0  0  0
 16 11  2  0  0  0  0
 19 15  1  0  0  0  0
 20 22  1  0  0  0  0
 20 21  2  0  0  0  0
 22  6  1  0  0  0  0
 23 22  1  0  0  0  0
 25 26  1  0  0  0  0
 25 24  1  0  0  0  0
 26 20  1  0  0  0  0
 27 28  1  0  0  0  0
 27 26  2  0  0  0  0
 29 27  1  0  0  0  0
 30 29  1  0  0  0  0
 31 29  2  0  0  0  0
 31 32  1  0  0  0  0
 32 25  2  0  0  0  0
M  END
>  <minimizedAffinity>
-5.24328899

$$$$

 OpenBabel03272500553D

 32 34  0  0  0  0  0  0  0  0999 V2000
   39.1460   27.2150   32.5070 C   0  0  0  0  0  0  0  0  0  0  0  0
   38.8790   27.7080   31.2280 C   0  0  0  0  0  0  0  0  0  0  0  0
   37.6170   28.1290   30.8460 C   0  0  0  0  0  0  0  0  0  0  0  0
   36.5510   28.0570   31.7830 C   0  0  0  0  0  0  0  0  0  0  0  0
   36.8550   27.5690   33.0220 C   0  0  0  0  0  0  0  0  0  0  0  0
   38.0930   27.1570   33.4070 C   0  0  0  0  0  0  0  0  0  0  0  0
   39.6940   27.7670   30.4940 H   0  0  0  0  0  0  0  0  0  0  0  0
   37.5290   28.4980   29.8190 H   0  0  0  0  0  0  0  0  0  0  0  0
   35.6580   28.4180   31.3220 H   0  0  0  0  0  0  0  0  0  0  0  0
   35.9090   27.5630   33.5220 H   0  0  0  0  0  0  0  0  0  0  0  0
   40.8090   25.4700   32.2610 C   0  0  0  0  0  0  0  0  0  0  0  0
   40.5040   26.7610   32.7350 C   0  0  0  0  0  0  0  0  0  0  0  0
   41.5320   27.4710   33.3730 C   0  0  0  0  0  0  0  0  0  0  0  0
   42.7460   26.9080   33.5080 N   0  0  0  0  0  0  0  0  0  0  0  0
   43.0200   25.6810   33.0530 C   0  0  0  0  0  0  0  0  0  0  0  0
   42.0560   24.9730   32.4360 N   0  0  0  0  0  0  0  0  0  0  0  0
   40.0550   24.8780   31.7620 H   0  0  0  0  0  0  0  0  0  0  0  0
   41.2440   28.4660   33.7210 H   0  0  0  0  0  0  0  0  0  0  0  0
   44.0260   25.3180   33.2110 H   0  0  0  0  0  0  0  0  0  0  0  0
   38.1990   25.2880   34.8300 C   0  0  0  0  0  0  0  0  0  0  0  0
   37.6940   24.6510   33.8360 O   0  0  0  0  0  0  0  0  0  0  0  0
   38.3870   26.7060   34.6930 N   0  0  0  0  0  0  0  0  0  0  0  0
   38.6980   27.2840   35.4560 H   0  0  0  0  0  0  0  0  0  0  0  0
   40.3070   23.3200   35.1540 F   0  0  0  0  0  0  0  0  0  0  0  0
   39.5250   23.6170   36.2140 C   0  0  0  0  0  0  0  0  0  0  0  0
   38.5480   24.5350   36.0320 C   0  0  0  0  0  0  0  0  0  0  0  0
   37.8010   24.7690   37.1670 C   0  0  0  0  0  0  0  0  0  0  0  0
   36.9810   25.4790   37.1770 H   0  0  0  0  0  0  0  0  0  0  0  0
   38.0200   24.1360   38.3700 C   0  0  0  0  0  0  0  0  0  0  0  0
   37.4260   24.3350   39.2340 H   0  0  0  0  0  0  0  0  0  0  0  0
   39.0300   23.2080   38.4980 C   0  0  0  0  0  3  0  0  0  0  0  0
   39.7940   22.9520   37.3810 C   0  0  0  0  0  3  0  0  0  0  0  0
  1 12  1  0  0  0  0
  1  6  1  0  0  0  0
  2  1  2  0  0  0  0
  3  2  1  0  0  0  0
  3  4  2  0  0  0  0
  4  5  1  0  0  0  0
  5  6  2  0  0  0  0
  5 10  1  0  0  0  0
  6 22  1  0  0  0  0
  7  2  1  0  0  0  0
  8  3  1  0  0  0  0
  9  4  1  0  0  0  0
 11 16  2  0  0  0  0
 11 12  1  0  0  0  0
 12 13  2  0  0  0  0
 13 14  1  0  0  0  0
 13 18  1  0  0  0  0
 15 19  1  0  0  0  0
 15 14  2  0  0  0  0
 16 15  1  0  0  0  0
 17 11  1  0  0  0  0
 20 26  1  0  0  0  0
 21 20  2  0  0  0  0
 22 20  1  0  0  0  0
 22 23  1  0  0  0  0
 24 25  1  0  0  0  0
 25 32  1  0  0  0  0
 26 25  2  0  0  0  0
 26 27  1  0  0  0  0
 27 28  1  0  0  0  0
 27 29  2  0  0  0  0
 29 31  1  0  0  0  0
 29 30  1  0  0  0  0
 32 31  2  0  0  0  0
M  END
>  <minimizedAffinity>
-5.23044443

$$$$
