REMARK  Name = 
REMARK  6 active torsions:
REMARK  status: ('A' for Active; 'I' for Inactive)
REMARK    1  A    between atoms: C_1  and  C_13
REMARK    2  A    between atoms: C_2  and  O_14
REMARK    3  A    between atoms: C_6  and  C_7
REMARK    4  A    between atoms: O_14  and  C_15
REMARK    5  A    between atoms: C_16  and  N_23
REMARK    6  A    between atoms: C_21  and  C_35
REMARK                            x       y       z     vdW  Elec       q    Type
REMARK                         _______ _______ _______ _____ _____    ______ ____
ROOT
ATOM      1  C   UNL     1      36.786  31.211  50.165  0.00  0.00    +0.000 A 
ATOM      2  C   UNL     1      35.651  30.417  49.960  0.00  0.00    +0.000 A 
ATOM      3  C   UNL     1      35.436  29.253  50.643  0.00  0.00    +0.000 A 
ATOM      4  N   UNL     1      36.381  28.883  51.550  0.00  0.00    +0.000 NA
ATOM      5  C   UNL     1      37.490  29.652  51.755  0.00  0.00    +0.000 A 
ATOM      6  N   UNL     1      37.670  30.778  51.075  0.00  0.00    +0.000 NA
ATOM      7  H   UNL     1      34.607  28.603  50.544  0.00  0.00    +0.000 HD
ATOM      8  H   UNL     1      38.200  29.297  52.490  0.00  0.00    +0.000 HD
ENDROOT
BRANCH   2  11
ATOM      9  C   UNL     1      34.133  29.730  48.141  0.00  0.00    +0.000 C 
ATOM     10  O   UNL     1      34.563  28.519  47.881  0.00  0.00    +0.000 OA
ATOM     11  N   UNL     1      34.625  30.699  49.037  0.00  0.00    +0.000 N 
ATOM     12  H   UNL     1      34.341  31.679  49.138  0.00  0.00    +0.000 HD
BRANCH   9  15
ATOM     13  F   UNL     1      31.541  28.387  48.228  0.00  0.00    +0.000 F 
ATOM     14  C   UNL     1      31.731  29.412  47.374  0.00  0.00    +0.000 A 
ATOM     15  C   UNL     1      32.959  30.033  47.325  0.00  0.00    +0.000 A 
ATOM     16  C   UNL     1      32.946  31.047  46.374  0.00  0.00    +0.000 A 
ATOM     17  H   UNL     1      33.850  31.648  46.203  0.00  0.00    +0.000 HD
ATOM     18  C   UNL     1      31.887  31.412  45.577  0.00  0.00    +0.000 A 
ATOM     19  H   UNL     1      31.956  32.214  44.859  0.00  0.00    +0.000 HD
ATOM     20  C   UNL     1      30.705  30.730  45.704  0.00  0.00    +0.000 A 
ATOM     21  C   UNL     1      30.639  29.709  46.627  0.00  0.00    +0.000 A 
ENDBRANCH   9  15
ENDBRANCH   2  11
BRANCH   1  22
ATOM     22  O   UNL     1      36.813  32.319  49.395  0.00  0.00    +0.000 OA
BRANCH  22  24
ATOM     23  C   UNL     1      38.266  32.294  47.396  0.00  0.00    +0.000 A 
ATOM     24  C   UNL     1      37.909  32.735  48.655  0.00  0.00    +0.000 A 
ATOM     25  C   UNL     1      38.672  33.689  49.310  0.00  0.00    +0.000 A 
ATOM     26  C   UNL     1      39.808  34.201  48.685  0.00  0.00    +0.000 A 
ATOM     27  C   UNL     1      40.160  33.755  47.425  0.00  0.00    +0.000 A 
ATOM     28  C   UNL     1      39.375  32.811  46.817  0.00  0.00    +0.000 A 
ATOM     29  H   UNL     1      38.461  34.076  50.278  0.00  0.00    +0.000 HD
ATOM     30  H   UNL     1      40.422  34.946  49.174  0.00  0.00    +0.000 HD
ATOM     31  H   UNL     1      41.049  34.176  46.972  0.00  0.00    +0.000 HD
BRANCH  28  32
ATOM     32  C   UNL     1      39.764  32.338  45.458  0.00  0.00    +0.000 A 
ATOM     33  C   UNL     1      40.618  31.325  45.093  0.00  0.00    +0.000 A 
ATOM     34  C   UNL     1      40.643  31.282  43.702  0.00  0.00    +0.000 A 
ATOM     35  C   UNL     1      39.790  32.287  43.305  0.00  0.00    +0.000 A 
ATOM     36  O   UNL     1      39.275  32.906  44.355  0.00  0.00    +0.000 OA
ATOM     37  H   UNL     1      41.146  30.707  45.812  0.00  0.00    +0.000 HD
ATOM     38  H   UNL     1      41.238  30.573  43.157  0.00  0.00    +0.000 HD
ATOM     39  H   UNL     1      39.606  32.495  42.257  0.00  0.00    +0.000 HD
ENDBRANCH  28  32
BRANCH  23  41
ATOM     40  N   UNL     1      36.750  30.521  46.290  0.00  0.00    +0.000 NA
ATOM     41  C   UNL     1      37.424  31.308  46.791  0.00  0.00    +0.000 C 
ENDBRANCH  23  41
ENDBRANCH  22  24
ENDBRANCH   1  22
TORSDOF 6
