
     RDKit          3D

 40 42  0  0  0  0  0  0  0  0999 V2000
   36.0770   30.6882   49.0659 C   0  0  2  0  0  0  0  0  0  0  0  0
   37.0140   31.6427   49.7427 C   0  0  0  0  0  0  0  0  0  0  0  0
   38.0414   30.9449   50.6047 C   0  0  0  0  0  0  0  0  0  0  0  0
   37.3750   30.0502   51.6399 C   0  0  0  0  0  0  0  0  0  0  0  0
   36.1121   29.3849   51.1523 C   0  0  0  0  0  0  0  0  0  0  0  0
   36.1921   29.3018   49.6141 C   0  0  1  0  0  0  0  0  0  0  0  0
   36.3161   30.6458   47.6028 C   0  0  0  0  0  0  0  0  0  0  0  0
   37.5700   31.1242   47.1775 C   0  0  0  0  0  0  0  0  0  0  0  0
   37.8237   31.0930   45.8024 C   0  0  0  0  0  0  0  0  0  0  0  0
   36.8558   30.6061   44.9579 N   0  0  0  0  0  0  0  0  0  0  0  0
   35.6469   30.1494   45.4258 C   0  0  0  0  0  0  0  0  0  0  0  0
   35.4023   30.1798   46.7457 N   0  0  0  0  0  0  0  0  0  0  0  0
   33.9465   28.1732   49.2462 C   0  0  0  0  0  0  0  0  0  0  0  0
   33.1128   28.8935   49.9311 O   0  0  0  0  0  0  0  0  0  0  0  0
   35.3223   28.3592   49.0190 N   0  0  0  0  0  0  0  0  0  0  0  0
   34.9838   30.9930   49.1516 H   0  0  0  0  0  0  0  0  0  0  0  0
   37.4474   32.4214   49.1493 H   0  0  0  0  0  0  0  0  0  0  0  0
   36.3516   32.1870   50.4981 H   0  0  0  0  0  0  0  0  0  0  0  0
   38.8156   30.4078   50.0583 H   0  0  0  0  0  0  0  0  0  0  0  0
   38.5549   31.7488   51.1696 H   0  0  0  0  0  0  0  0  0  0  0  0
   37.2391   30.5963   52.6012 H   0  0  0  0  0  0  0  0  0  0  0  0
   38.0995   29.2277   51.8468 H   0  0  0  0  0  0  0  0  0  0  0  0
   36.0187   28.3776   51.5907 H   0  0  0  0  0  0  0  0  0  0  0  0
   35.2427   30.0007   51.4173 H   0  0  0  0  0  0  0  0  0  0  0  0
   37.1785   28.9229   49.5070 H   0  0  0  0  0  0  0  0  0  0  0  0
   38.4101   31.5171   47.7127 H   0  0  0  0  0  0  0  0  0  0  0  0
   38.7400   31.4281   45.3359 H   0  0  0  0  0  0  0  0  0  0  0  0
   34.9238   29.7775   44.7204 H   0  0  0  0  0  0  0  0  0  0  0  0
   35.7338   27.7217   48.3016 H   0  0  0  0  0  0  0  0  0  0  0  0
   31.7037   28.3445   47.3554 F   0  0  0  0  0  0  0  0  0  0  0  0
   32.1215   27.1489   47.8219 C   0  0  0  0  0  0  0  0  0  0  0  0
   33.1830   27.0334   48.6895 C   0  0  0  0  0  0  0  0  0  0  0  0
   33.4307   25.7206   49.0031 C   0  0  0  0  0  0  0  0  0  0  0  0
   34.2547   25.4734   49.6907 H   0  0  0  0  0  0  0  0  0  0  0  0
   32.7501   24.6172   48.5493 C   0  0  0  0  0  0  0  0  0  0  0  0
   33.0036   23.6128   48.8409 H   0  0  0  0  0  0  0  0  0  0  0  0
   31.7012   24.8316   47.6842 C   0  0  0  0  0  0  0  0  0  0  0  0
   31.3962   26.1120   47.3266 C   0  0  0  0  0  0  0  0  0  0  0  0
   31.1648   23.9644   47.3267 H   0  0  0  0  0  0  0  0  0  0  0  0
   30.5617   26.2024   46.6454 H   0  0  0  0  0  0  0  0  0  0  0  0
  1  6  1  0
  1  2  1  0
  2  3  1  0
  3  4  1  0
  5  4  1  0
  6  5  1  0
  7  1  1  0
  8  7  2  0
  9  8  1  0
 10 11  1  0
 10  9  2  0
 11 12  2  0
 12  7  1  0
 13 14  2  0
 15 13  1  0
 15  6  1  0
  1 16  1  6
  2 17  1  0
  2 18  1  0
  3 19  1  0
  3 20  1  0
  4 21  1  0
  4 22  1  0
  5 23  1  0
  5 24  1  0
  6 25  1  1
  8 26  1  0
  9 27  1  0
 11 28  1  0
 15 29  1  0
 30 31  1  0
 31 32  2  0
 32 33  1  0
 33 34  1  0
 33 35  2  0
 35 36  1  0
 35 37  1  0
 37 38  2  0
 38 31  1  0
 37 39  1  0
 38 40  1  0
 13 32  1  0
M  ISO  8  16  13  17  13  18  13  19  13  20  13  21  13  22  13  23  13
M  ISO  7  24  13  25  13  26  14  27  14  28  14  34  15  36  16
M  END
>  <DihAtoms>  (1) 
13,12,31,30

>  <DihDeg>  (1) 
-163.7481793345533

$$$$
