
 OpenBabel03272509303D

 38 40  0  0  1  0  0  0  0  0999 V2000
   36.4420   30.7510   49.0210 C   0  0  2  0  0  0  0  0  0  0  0  0
   37.3990   31.5870   49.8180 C   0  0  0  0  0  0  0  0  0  0  0  0
   38.2270   30.7700   50.7840 C   0  0  0  0  0  0  0  0  0  0  0  0
   37.3410   29.9610   51.7200 C   0  0  0  0  0  0  0  0  0  0  0  0
   36.0750   29.4530   51.0780 C   0  0  0  0  0  0  0  0  0  0  0  0
   36.3260   29.3610   49.5590 C   0  0  1  0  0  0  0  0  0  0  0  0
   35.3910   31.1850   48.9830 H   0  0  0  0  0  0  0  0  0  0  0  0
   37.9890   32.3070   49.2900 H   0  0  0  0  0  0  0  0  0  0  0  0
   36.7220   32.2060   50.4970 H   0  0  0  0  0  0  0  0  0  0  0  0
   38.9920   30.1440   50.3240 H   0  0  0  0  0  0  0  0  0  0  0  0
   38.7620   31.5070   51.4170 H   0  0  0  0  0  0  0  0  0  0  0  0
   37.1580   30.5190   52.6670 H   0  0  0  0  0  0  0  0  0  0  0  0
   37.9320   29.0580   51.9990 H   0  0  0  0  0  0  0  0  0  0  0  0
   35.8110   28.4640   51.4880 H   0  0  0  0  0  0  0  0  0  0  0  0
   35.2600   30.1680   51.2480 H   0  0  0  0  0  0  0  0  0  0  0  0
   37.2650   28.8670   49.5630 H   0  0  0  0  0  0  0  0  0  0  0  0
   36.8460   30.6810   47.5960 C   0  0  0  0  0  0  0  0  0  0  0  0
   38.2170   30.8780   47.3420 C   0  0  0  0  0  0  0  0  0  0  0  0
   38.6270   30.8140   46.0060 C   0  0  0  0  0  0  0  0  0  0  0  0
   37.6890   30.5660   45.0340 N   0  0  0  0  0  0  0  0  0  0  0  0
   36.3610   30.3790   45.3360 C   0  0  0  0  0  0  0  0  0  0  0  0
   35.9670   30.4420   46.6180 N   0  0  0  0  0  0  0  0  0  0  0  0
   39.0490   31.0670   47.9890 H   0  0  0  0  0  0  0  0  0  0  0  0
   39.6440   30.9460   45.6660 H   0  0  0  0  0  0  0  0  0  0  0  0
   35.6680   30.1870   44.5350 H   0  0  0  0  0  0  0  0  0  0  0  0
   34.0460   28.3600   49.0580 C   0  0  0  0  0  0  0  0  0  0  0  0
   33.2350   29.0140   49.8310 O   0  0  0  0  0  0  0  0  0  0  0  0
   35.4260   28.5290   48.8520 N   0  0  0  0  0  0  0  0  0  0  0  0
   35.8180   27.9760   48.0590 H   0  0  0  0  0  0  0  0  0  0  0  0
   31.1300   28.0250   49.2110 F   0  0  0  0  0  0  0  0  0  0  0  0
   31.8820   27.1810   48.4750 C   0  0  0  0  0  0  0  0  0  0  0  0
   33.2460   27.3250   48.3650 C   0  0  0  0  0  0  0  0  0  0  0  0
   33.7850   26.3630   47.5470 C   0  0  0  0  0  0  0  0  0  0  0  0
   34.8710   26.3520   47.3650 H   0  0  0  0  0  0  0  0  0  0  0  0
   33.1130   25.3590   46.8940 C   0  0  0  0  0  0  0  0  0  0  0  0
   33.6060   24.6370   46.2670 H   0  0  0  0  0  0  0  0  0  0  0  0
   31.7480   25.2940   47.0660 C   0  0  0  0  0  0  0  0  0  0  0  0
   31.1430   26.2190   47.8650 C   0  0  0  0  0  0  0  0  0  0  0  0
  1  7  1  1  0  0  0
  1  6  1  0  0  0  0
  1  2  1  0  0  0  0
  2  9  1  0  0  0  0
  2  3  1  0  0  0  0
  3 11  1  0  0  0  0
  3  4  1  0  0  0  0
  4 13  1  0  0  0  0
  4 12  1  0  0  0  0
  5 15  1  0  0  0  0
  5 14  1  0  0  0  0
  5  4  1  0  0  0  0
  6 16  1  6  0  0  0
  6  5  1  0  0  0  0
  8  2  1  0  0  0  0
 10  3  1  0  0  0  0
 17  1  1  0  0  0  0
 18 17  1  0  0  0  0
 18 23  1  0  0  0  0
 19 18  2  0  0  0  0
 20 21  2  0  0  0  0
 20 19  1  0  0  0  0
 21 22  1  0  0  0  0
 22 17  2  0  0  0  0
 24 19  1  0  0  0  0
 25 21  1  0  0  0  0
 26 27  2  0  0  0  0
 28 26  1  0  0  0  0
 28  6  1  0  0  0  0
 29 28  1  0  0  0  0
 31 30  1  0  0  0  0
 32 31  1  0  0  0  0
 32 26  1  0  0  0  0
 33 32  2  0  0  0  0
 34 33  1  0  0  0  0
 35 37  2  0  0  0  0
 35 33  1  0  0  0  0
 36 35  1  0  0  0  0
 37 38  1  0  0  0  0
 38 31  2  0  0  0  0
M  END
>  <minimizedAffinity>
-6.49445677

>  <minimizedRMSD>
0.586692512

$$$$
