
 OpenBabel03272501313D

 20 21  0  0  0  0  0  0  0  0999 V2000
   38.6480   23.0290   36.2170 C   0  0  0  0  0  0  0  0  0  0  0  0
   39.4920   22.6530   37.0790 O   0  0  0  0  0  0  0  0  0  0  0  0
   36.6490   21.2200   33.6450 C   0  0  0  0  0  0  0  0  0  0  0  0
   37.6500   22.0150   34.2540 C   0  0  0  0  0  0  0  0  0  0  0  0
   37.6130   22.2130   35.6310 C   0  0  0  0  0  0  0  0  0  0  0  0
   36.6130   21.6290   36.3280 N   0  0  0  0  0  0  0  0  0  0  0  0
   35.6760   20.8810   35.7360 C   0  0  0  0  0  0  0  0  0  0  0  0
   35.6750   20.6650   34.4130 N   0  0  0  0  0  0  0  0  0  0  0  0
   36.6840   21.0730   32.5850 H   0  0  0  0  0  0  0  0  0  0  0  0
   38.4180   22.4490   33.6280 H   0  0  0  0  0  0  0  0  0  0  0  0
   34.8650   20.4050   36.2860 H   0  0  0  0  0  0  0  0  0  0  0  0
   40.7840   23.8430   34.5460 F   0  0  0  0  0  0  0  0  0  0  0  0
   39.9570   24.7700   35.0770 C   0  0  0  0  0  0  0  0  0  0  0  0
   38.8880   24.4310   35.9060 C   0  0  0  0  0  0  0  0  0  0  0  0
   38.1140   25.4670   36.3870 C   0  0  0  0  0  0  0  0  0  0  0  0
   37.2970   25.1440   37.0280 H   0  0  0  0  0  0  0  0  0  0  0  0
   38.3390   26.7970   36.0940 C   0  0  0  0  0  0  0  0  0  0  0  0
   37.6620   27.5290   36.5310 H   0  0  0  0  0  0  0  0  0  0  0  0
   39.4160   27.1070   35.2610 C   0  0  0  0  0  3  0  0  0  0  0  0
   40.2180   26.0990   34.7580 C   0  0  0  0  0  3  0  0  0  0  0  0
  1  2  2  0  0  0  0
  3  4  2  0  0  0  0
  3  8  1  0  0  0  0
  4  5  1  0  0  0  0
  5  1  1  0  0  0  0
  5  6  2  0  0  0  0
  7 11  1  0  0  0  0
  7  6  1  0  0  0  0
  8  7  2  0  0  0  0
  9  3  1  0  0  0  0
 10  4  1  0  0  0  0
 12 13  1  0  0  0  0
 13 14  1  0  0  0  0
 14  1  1  0  0  0  0
 14 15  2  0  0  0  0
 15 16  1  0  0  0  0
 17 15  1  0  0  0  0
 17 18  1  0  0  0  0
 19 17  2  0  0  0  0
 20 13  2  0  0  0  0
 20 19  1  0  0  0  0
M  END
>  <minimizedAffinity>
-4.54830265

$$$$

 OpenBabel03272501313D

 20 21  0  0  0  0  0  0  0  0999 V2000
   38.8400   22.8360   35.7000 C   0  0  0  0  0  0  0  0  0  0  0  0
   39.8490   22.3670   36.3000 O   0  0  0  0  0  0  0  0  0  0  0  0
   36.5140   21.1490   33.3290 C   0  0  0  0  0  0  0  0  0  0  0  0
   37.6070   21.8890   33.8400 C   0  0  0  0  0  0  0  0  0  0  0  0
   37.7140   22.0760   35.2150 C   0  0  0  0  0  0  0  0  0  0  0  0
   36.7580   21.5370   36.0040 N   0  0  0  0  0  0  0  0  0  0  0  0
   35.7330   20.8400   35.5030 C   0  0  0  0  0  0  0  0  0  0  0  0
   35.5920   20.6360   34.1860 N   0  0  0  0  0  0  0  0  0  0  0  0
   36.4380   21.0090   32.2700 H   0  0  0  0  0  0  0  0  0  0  0  0
   38.3320   22.2900   33.1440 H   0  0  0  0  0  0  0  0  0  0  0  0
   34.9560   20.4000   36.1280 H   0  0  0  0  0  0  0  0  0  0  0  0
   37.2300   24.6450   37.1670 F   0  0  0  0  0  0  0  0  0  0  0  0
   38.1730   25.1190   36.3240 C   0  0  0  0  0  0  0  0  0  0  0  0
   38.9960   24.2780   35.5760 C   0  0  0  0  0  0  0  0  0  0  0  0
   39.9220   24.8810   34.7490 C   0  0  0  0  0  0  0  0  0  0  0  0
   40.5350   24.1780   34.1900 H   0  0  0  0  0  0  0  0  0  0  0  0
   40.0730   26.2470   34.6280 C   0  0  0  0  0  0  0  0  0  0  0  0
   40.8380   26.6100   33.9440 H   0  0  0  0  0  0  0  0  0  0  0  0
   39.2350   27.0650   35.3910 C   0  0  0  0  0  3  0  0  0  0  0  0
   38.2930   26.5010   36.2320 C   0  0  0  0  0  3  0  0  0  0  0  0
  1  2  2  0  0  0  0
  3  4  2  0  0  0  0
  3  8  1  0  0  0  0
  4  5  1  0  0  0  0
  5  1  1  0  0  0  0
  5  6  2  0  0  0  0
  7  6  1  0  0  0  0
  7 11  1  0  0  0  0
  8  7  2  0  0  0  0
  9  3  1  0  0  0  0
 10  4  1  0  0  0  0
 13 12  1  0  0  0  0
 14  1  1  0  0  0  0
 14 13  2  0  0  0  0
 15 14  1  0  0  0  0
 16 15  1  0  0  0  0
 17 15  2  0  0  0  0
 17 19  1  0  0  0  0
 18 17  1  0  0  0  0
 19 20  2  0  0  0  0
 20 13  1  0  0  0  0
M  END
>  <minimizedAffinity>
-4.52551126

$$$$

 OpenBabel03272501313D

 20 21  0  0  0  0  0  0  0  0999 V2000
   35.4710   30.3010   33.8040 C   0  0  0  0  0  0  0  0  0  0  0  0
   35.5920   31.2650   32.9970 O   0  0  0  0  0  0  0  0  0  0  0  0
   37.0700   27.0210   34.5550 C   0  0  0  0  0  0  0  0  0  0  0  0
   36.5580   28.3320   34.7080 C   0  0  0  0  0  0  0  0  0  0  0  0
   35.9810   28.9650   33.6110 C   0  0  0  0  0  0  0  0  0  0  0  0
   35.9360   28.2900   32.4410 N   0  0  0  0  0  0  0  0  0  0  0  0
   36.4240   27.0520   32.3160 C   0  0  0  0  0  0  0  0  0  0  0  0
   36.9880   26.4060   33.3460 N   0  0  0  0  0  0  0  0  0  0  0  0
   37.5140   26.5400   35.4030 H   0  0  0  0  0  0  0  0  0  0  0  0
   36.6320   28.8070   35.6780 H   0  0  0  0  0  0  0  0  0  0  0  0
   36.3940   26.4970   31.3790 H   0  0  0  0  0  0  0  0  0  0  0  0
   36.6650   31.9150   35.8000 F   0  0  0  0  0  0  0  0  0  0  0  0
   35.3700   31.5490   35.9200 C   0  0  0  0  0  0  0  0  0  0  0  0
   34.7270   30.7550   34.9700 C   0  0  0  0  0  0  0  0  0  0  0  0
   33.4020   30.4470   35.2040 C   0  0  0  0  0  0  0  0  0  0  0  0
   32.9530   29.8260   34.4310 H   0  0  0  0  0  0  0  0  0  0  0  0
   32.6940   30.8760   36.3070 C   0  0  0  0  0  0  0  0  0  0  0  0
   31.6520   30.5700   36.3870 H   0  0  0  0  0  0  0  0  0  0  0  0
   33.3640   31.6700   37.2420 C   0  0  0  0  0  3  0  0  0  0  0  0
   34.6920   32.0010   37.0470 C   0  0  0  0  0  3  0  0  0  0  0  0
  1 14  1  0  0  0  0
  2  1  2  0  0  0  0
  3  4  1  0  0  0  0
  3  9  1  0  0  0  0
  4 10  1  0  0  0  0
  5  1  1  0  0  0  0
  5  4  2  0  0  0  0
  6  5  1  0  0  0  0
  7  6  2  0  0  0  0
  7  8  1  0  0  0  0
  8  3  2  0  0  0  0
 11  7  1  0  0  0  0
 12 13  1  0  0  0  0
 13 20  1  0  0  0  0
 14 15  1  0  0  0  0
 14 13  2  0  0  0  0
 15 17  2  0  0  0  0
 16 15  1  0  0  0  0
 17 18  1  0  0  0  0
 17 19  1  0  0  0  0
 20 19  2  0  0  0  0
M  END
>  <minimizedAffinity>
-4.40407848

$$$$

 OpenBabel03272501313D

 20 21  0  0  0  0  0  0  0  0999 V2000
   38.9690   24.2690   34.2830 C   0  0  0  0  0  0  0  0  0  0  0  0
   40.0600   24.8430   34.0050 O   0  0  0  0  0  0  0  0  0  0  0  0
   36.2500   24.7770   31.7870 C   0  0  0  0  0  0  0  0  0  0  0  0
   37.2960   25.0360   32.7060 C   0  0  0  0  0  0  0  0  0  0  0  0
   37.9090   23.9670   33.3530 C   0  0  0  0  0  0  0  0  0  0  0  0
   37.4720   22.7200   33.0690 N   0  0  0  0  0  0  0  0  0  0  0  0
   36.4840   22.4940   32.1980 C   0  0  0  0  0  0  0  0  0  0  0  0
   35.8660   23.4940   31.5530 N   0  0  0  0  0  0  0  0  0  0  0  0
   35.7830   25.6040   31.2930 H   0  0  0  0  0  0  0  0  0  0  0  0
   37.5890   26.0630   32.8800 H   0  0  0  0  0  0  0  0  0  0  0  0
   36.1220   21.4940   31.9600 H   0  0  0  0  0  0  0  0  0  0  0  0
   37.1780   25.5390   36.0700 F   0  0  0  0  0  0  0  0  0  0  0  0
   38.0470   24.6160   36.5360 C   0  0  0  0  0  0  0  0  0  0  0  0
   38.9530   23.9570   35.7050 C   0  0  0  0  0  0  0  0  0  0  0  0
   39.7910   23.0340   36.2980 C   0  0  0  0  0  0  0  0  0  0  0  0
   40.4750   22.5520   35.6020 H   0  0  0  0  0  0  0  0  0  0  0  0
   39.7780   22.7350   37.6440 C   0  0  0  0  0  0  0  0  0  0  0  0
   40.4860   21.9890   38.0010 H   0  0  0  0  0  0  0  0  0  0  0  0
   38.8600   23.4110   38.4530 C   0  0  0  0  0  3  0  0  0  0  0  0
   38.0030   24.3440   37.8990 C   0  0  0  0  0  3  0  0  0  0  0  0
  1 14  1  0  0  0  0
  2  1  2  0  0  0  0
  3  4  1  0  0  0  0
  4 10  1  0  0  0  0
  4  5  2  0  0  0  0
  5  1  1  0  0  0  0
  6  5  1  0  0  0  0
  7  6  2  0  0  0  0
  8  3  2  0  0  0  0
  8  7  1  0  0  0  0
  9  3  1  0  0  0  0
 11  7  1  0  0  0  0
 12 13  1  0  0  0  0
 13 20  1  0  0  0  0
 14 15  1  0  0  0  0
 14 13  2  0  0  0  0
 15 17  2  0  0  0  0
 16 15  1  0  0  0  0
 17 18  1  0  0  0  0
 17 19  1  0  0  0  0
 20 19  2  0  0  0  0
M  END
>  <minimizedAffinity>
-4.34540129

$$$$

 OpenBabel03272501313D

 20 21  0  0  0  0  0  0  0  0999 V2000
   38.8620   24.9530   34.6500 C   0  0  0  0  0  0  0  0  0  0  0  0
   39.8240   25.7660   34.5550 O   0  0  0  0  0  0  0  0  0  0  0  0
   36.8560   22.9080   32.2680 C   0  0  0  0  0  0  0  0  0  0  0  0
   37.7650   23.2730   33.2910 C   0  0  0  0  0  0  0  0  0  0  0  0
   37.9270   24.6190   33.6040 C   0  0  0  0  0  0  0  0  0  0  0  0
   37.2000   25.5230   32.9100 N   0  0  0  0  0  0  0  0  0  0  0  0
   36.3460   25.1600   31.9480 C   0  0  0  0  0  0  0  0  0  0  0  0
   36.1600   23.8750   31.6150 N   0  0  0  0  0  0  0  0  0  0  0  0
   36.7370   21.8700   32.0320 H   0  0  0  0  0  0  0  0  0  0  0  0
   38.3110   22.4900   33.8010 H   0  0  0  0  0  0  0  0  0  0  0  0
   35.7540   25.8780   31.3810 H   0  0  0  0  0  0  0  0  0  0  0  0
   40.6620   22.9200   35.4540 F   0  0  0  0  0  0  0  0  0  0  0  0
   39.7580   23.4010   36.3350 C   0  0  0  0  0  0  0  0  0  0  0  0
   38.8460   24.4020   35.9980 C   0  0  0  0  0  0  0  0  0  0  0  0
   37.9710   24.8110   36.9840 C   0  0  0  0  0  0  0  0  0  0  0  0
   37.2840   25.5910   36.6650 H   0  0  0  0  0  0  0  0  0  0  0  0
   37.9530   24.2910   38.2620 C   0  0  0  0  0  0  0  0  0  0  0  0
   37.2170   24.6910   38.9570 H   0  0  0  0  0  0  0  0  0  0  0  0
   38.8780   23.2900   38.5710 C   0  0  0  0  0  3  0  0  0  0  0  0
   39.7720   22.8510   37.6120 C   0  0  0  0  0  3  0  0  0  0  0  0
  1 14  1  0  0  0  0
  2  1  2  0  0  0  0
  3  4  1  0  0  0  0
  4  5  2  0  0  0  0
  4 10  1  0  0  0  0
  5  1  1  0  0  0  0
  6  5  1  0  0  0  0
  7  6  2  0  0  0  0
  8  7  1  0  0  0  0
  8  3  2  0  0  0  0
  9  3  1  0  0  0  0
 11  7  1  0  0  0  0
 12 13  1  0  0  0  0
 13 20  1  0  0  0  0
 14 13  2  0  0  0  0
 14 15  1  0  0  0  0
 15 17  2  0  0  0  0
 16 15  1  0  0  0  0
 17 19  1  0  0  0  0
 17 18  1  0  0  0  0
 20 19  2  0  0  0  0
M  END
>  <minimizedAffinity>
-4.34518242

$$$$

 OpenBabel03272501313D

 20 21  0  0  0  0  0  0  0  0999 V2000
   38.2220   26.4560   35.2110 C   0  0  0  0  0  0  0  0  0  0  0  0
   38.6510   27.4520   35.8590 O   0  0  0  0  0  0  0  0  0  0  0  0
   36.1380   27.8140   32.4380 C   0  0  0  0  0  0  0  0  0  0  0  0
   36.9000   27.7290   33.6280 C   0  0  0  0  0  0  0  0  0  0  0  0
   37.4520   26.5050   33.9930 C   0  0  0  0  0  0  0  0  0  0  0  0
   37.2320   25.4450   33.1840 N   0  0  0  0  0  0  0  0  0  0  0  0
   36.5090   25.5430   32.0630 C   0  0  0  0  0  0  0  0  0  0  0  0
   35.9600   26.7030   31.6750 N   0  0  0  0  0  0  0  0  0  0  0  0
   35.7160   28.7590   32.1640 H   0  0  0  0  0  0  0  0  0  0  0  0
   37.0320   28.6240   34.2230 H   0  0  0  0  0  0  0  0  0  0  0  0
   36.3240   24.6970   31.4030 H   0  0  0  0  0  0  0  0  0  0  0  0
   40.4970   24.9800   34.3980 F   0  0  0  0  0  0  0  0  0  0  0  0
   39.7630   24.5550   35.4490 C   0  0  0  0  0  0  0  0  0  0  0  0
   38.6320   25.2390   35.8960 C   0  0  0  0  0  0  0  0  0  0  0  0
   37.9650   24.7050   36.9800 C   0  0  0  0  0  0  0  0  0  0  0  0
   37.0920   25.2800   37.2840 H   0  0  0  0  0  0  0  0  0  0  0  0
   38.3510   23.5520   37.6320 C   0  0  0  0  0  0  0  0  0  0  0  0
   37.7470   23.2250   38.4760 H   0  0  0  0  0  0  0  0  0  0  0  0
   39.4870   22.8880   37.1620 C   0  0  0  0  0  3  0  0  0  0  0  0
   40.1850   23.3880   36.0780 C   0  0  0  0  0  3  0  0  0  0  0  0
  1  2  2  0  0  0  0
  1 14  1  0  0  0  0
  3  4  1  0  0  0  0
  4  5  2  0  0  0  0
  4 10  1  0  0  0  0
  5  1  1  0  0  0  0
  6  5  1  0  0  0  0
  7  6  2  0  0  0  0
  8  7  1  0  0  0  0
  8  3  2  0  0  0  0
  9  3  1  0  0  0  0
 11  7  1  0  0  0  0
 12 13  1  0  0  0  0
 13 14  2  0  0  0  0
 13 20  1  0  0  0  0
 14 15  1  0  0  0  0
 15 16  1  0  0  0  0
 15 17  2  0  0  0  0
 17 18  1  0  0  0  0
 19 17  1  0  0  0  0
 20 19  2  0  0  0  0
M  END
>  <minimizedAffinity>
-4.34305382

$$$$

 OpenBabel03272501313D

 20 21  0  0  0  0  0  0  0  0999 V2000
   35.7010   29.9260   33.5630 C   0  0  0  0  0  0  0  0  0  0  0  0
   35.7740   30.7880   32.6430 O   0  0  0  0  0  0  0  0  0  0  0  0
   37.1790   26.6720   34.6130 C   0  0  0  0  0  0  0  0  0  0  0  0
   36.7040   28.0040   34.6490 C   0  0  0  0  0  0  0  0  0  0  0  0
   36.1740   28.5650   33.4910 C   0  0  0  0  0  0  0  0  0  0  0  0
   36.1370   27.8020   32.3760 N   0  0  0  0  0  0  0  0  0  0  0  0
   36.5900   26.5430   32.3610 C   0  0  0  0  0  0  0  0  0  0  0  0
   37.1080   25.9650   33.4540 N   0  0  0  0  0  0  0  0  0  0  0  0
   37.5860   26.2470   35.5080 H   0  0  0  0  0  0  0  0  0  0  0  0
   36.7680   28.5530   35.5800 H   0  0  0  0  0  0  0  0  0  0  0  0
   36.5660   25.9170   31.4710 H   0  0  0  0  0  0  0  0  0  0  0  0
   32.9890   29.4130   34.2000 F   0  0  0  0  0  0  0  0  0  0  0  0
   33.7170   30.2390   34.9830 C   0  0  0  0  0  0  0  0  0  0  0  0
   35.0560   30.5290   34.7210 C   0  0  0  0  0  0  0  0  0  0  0  0
   35.6940   31.3880   35.5940 C   0  0  0  0  0  0  0  0  0  0  0  0
   36.7340   31.5780   35.3410 H   0  0  0  0  0  0  0  0  0  0  0  0
   35.0870   31.9610   36.6920 C   0  0  0  0  0  0  0  0  0  0  0  0
   35.6890   32.6240   37.3110 H   0  0  0  0  0  0  0  0  0  0  0  0
   33.7450   31.6520   36.9300 C   0  0  0  0  0  3  0  0  0  0  0  0
   33.0680   30.7970   36.0800 C   0  0  0  0  0  3  0  0  0  0  0  0
  1 14  1  0  0  0  0
  2  1  2  0  0  0  0
  3  4  1  0  0  0  0
  3  9  1  0  0  0  0
  4 10  1  0  0  0  0
  5  1  1  0  0  0  0
  5  4  2  0  0  0  0
  6  5  1  0  0  0  0
  7  6  2  0  0  0  0
  7  8  1  0  0  0  0
  8  3  2  0  0  0  0
 11  7  1  0  0  0  0
 12 13  1  0  0  0  0
 13 20  1  0  0  0  0
 14 13  2  0  0  0  0
 14 15  1  0  0  0  0
 15 17  2  0  0  0  0
 16 15  1  0  0  0  0
 17 19  1  0  0  0  0
 17 18  1  0  0  0  0
 20 19  2  0  0  0  0
M  END
>  <minimizedAffinity>
-4.33921194

$$$$

 OpenBabel03272501313D

 20 21  0  0  0  0  0  0  0  0999 V2000
   38.6590   21.9920   34.3450 C   0  0  0  0  0  0  0  0  0  0  0  0
   39.6310   21.5930   33.6440 O   0  0  0  0  0  0  0  0  0  0  0  0
   40.0290   22.6790   37.7400 C   0  0  0  0  0  0  0  0  0  0  0  0
   39.9260   22.2510   36.3950 C   0  0  0  0  0  0  0  0  0  0  0  0
   38.7280   22.4410   35.7140 C   0  0  0  0  0  0  0  0  0  0  0  0
   37.7090   23.0330   36.3770 N   0  0  0  0  0  0  0  0  0  0  0  0
   37.8250   23.4320   37.6480 C   0  0  0  0  0  0  0  0  0  0  0  0
   38.9610   23.2670   38.3400 N   0  0  0  0  0  0  0  0  0  0  0  0
   40.9550   22.5290   38.2580 H   0  0  0  0  0  0  0  0  0  0  0  0
   40.7870   21.7850   35.9320 H   0  0  0  0  0  0  0  0  0  0  0  0
   37.0120   23.9090   38.1940 H   0  0  0  0  0  0  0  0  0  0  0  0
   38.0610   23.9410   32.3790 F   0  0  0  0  0  0  0  0  0  0  0  0
   37.2050   22.9170   32.5900 C   0  0  0  0  0  0  0  0  0  0  0  0
   37.4450   21.9270   33.5430 C   0  0  0  0  0  0  0  0  0  0  0  0
   36.4970   20.9320   33.6660 C   0  0  0  0  0  0  0  0  0  0  0  0
   36.7360   20.1890   34.4230 H   0  0  0  0  0  0  0  0  0  0  0  0
   35.3460   20.8670   32.9080 C   0  0  0  0  0  0  0  0  0  0  0  0
   34.6680   20.0350   33.0920 H   0  0  0  0  0  0  0  0  0  0  0  0
   35.1320   21.8720   31.9600 C   0  0  0  0  0  3  0  0  0  0  0  0
   36.0570   22.8880   31.8060 C   0  0  0  0  0  3  0  0  0  0  0  0
  1  5  1  0  0  0  0
  2  1  2  0  0  0  0
  3  9  1  0  0  0  0
  3  8  1  0  0  0  0
  4  3  2  0  0  0  0
  5  6  2  0  0  0  0
  5  4  1  0  0  0  0
  6  7  1  0  0  0  0
  7 11  1  0  0  0  0
  7  8  2  0  0  0  0
 10  4  1  0  0  0  0
 12 13  1  0  0  0  0
 13 14  1  0  0  0  0
 14 15  2  0  0  0  0
 14  1  1  0  0  0  0
 15 16  1  0  0  0  0
 17 18  1  0  0  0  0
 17 15  1  0  0  0  0
 19 17  2  0  0  0  0
 20 19  1  0  0  0  0
 20 13  2  0  0  0  0
M  END
>  <minimizedAffinity>
-4.32858086

$$$$

 OpenBabel03272501313D

 20 21  0  0  0  0  0  0  0  0999 V2000
   38.6310   26.3660   35.0020 C   0  0  0  0  0  0  0  0  0  0  0  0
   39.6420   27.0240   35.3780 O   0  0  0  0  0  0  0  0  0  0  0  0
   37.6590   23.4390   37.0910 C   0  0  0  0  0  0  0  0  0  0  0  0
   37.9710   24.7610   36.6950 C   0  0  0  0  0  0  0  0  0  0  0  0
   38.3190   25.0070   35.3700 C   0  0  0  0  0  0  0  0  0  0  0  0
   38.3410   23.9590   34.5160 N   0  0  0  0  0  0  0  0  0  0  0  0
   38.0430   22.7160   34.9080 C   0  0  0  0  0  0  0  0  0  0  0  0
   37.7030   22.4360   36.1750 N   0  0  0  0  0  0  0  0  0  0  0  0
   37.3930   23.2580   38.1130 H   0  0  0  0  0  0  0  0  0  0  0  0
   37.9310   25.5480   37.4370 H   0  0  0  0  0  0  0  0  0  0  0  0
   38.0570   21.8630   34.2310 H   0  0  0  0  0  0  0  0  0  0  0  0
   39.1910   26.6230   32.2380 F   0  0  0  0  0  0  0  0  0  0  0  0
   38.1480   27.2930   32.7760 C   0  0  0  0  0  0  0  0  0  0  0  0
   37.8230   27.2060   34.1290 C   0  0  0  0  0  0  0  0  0  0  0  0
   36.7350   27.9380   34.5610 C   0  0  0  0  0  0  0  0  0  0  0  0
   36.5290   27.8320   35.6240 H   0  0  0  0  0  0  0  0  0  0  0  0
   35.9670   28.7350   33.7370 C   0  0  0  0  0  0  0  0  0  0  0  0
   35.1310   29.2670   34.1890 H   0  0  0  0  0  0  0  0  0  0  0  0
   36.3160   28.8020   32.3860 C   0  0  0  0  0  3  0  0  0  0  0  0
   37.3990   28.0860   31.9120 C   0  0  0  0  0  3  0  0  0  0  0  0
  1  5  1  0  0  0  0
  1  2  2  0  0  0  0
  3  9  1  0  0  0  0
  4  3  1  0  0  0  0
  4 10  1  0  0  0  0
  5  4  2  0  0  0  0
  6  7  2  0  0  0  0
  6  5  1  0  0  0  0
  7  8  1  0  0  0  0
  8  3  2  0  0  0  0
 11  7  1  0  0  0  0
 12 13  1  0  0  0  0
 13 14  1  0  0  0  0
 14 15  2  0  0  0  0
 14  1  1  0  0  0  0
 15 16  1  0  0  0  0
 17 18  1  0  0  0  0
 17 15  1  0  0  0  0
 19 17  2  0  0  0  0
 20 19  1  0  0  0  0
 20 13  2  0  0  0  0
M  END
>  <minimizedAffinity>
-4.31618071

$$$$
