REMARK  Name = 
REMARK  5 active torsions:
REMARK  status: ('A' for Active; 'I' for Inactive)
REMARK    1  A    between atoms: C_1  and  O_8
REMARK    2  A    between atoms: C_5  and  C_7
REMARK    3  A    between atoms: O_8  and  C_10
REMARK    4  A    between atoms: C_13  and  S_15
REMARK    5  A    between atoms: S_15  and  C_26
REMARK                            x       y       z     vdW  Elec       q    Type
REMARK                         _______ _______ _______ _____ _____    ______ ____
ROOT
ATOM      1  C   UNL     1      38.153  31.033  49.886  0.00  0.00    +0.000 A 
ATOM      2  C   UNL     1      38.055  31.426  48.538  0.00  0.00    +0.000 A 
ATOM      3  C   UNL     1      36.892  31.114  47.866  0.00  0.00    +0.000 A 
ATOM      4  N   UNL     1      35.943  30.456  48.561  0.00  0.00    +0.000 NA
ATOM      5  C   UNL     1      36.049  30.097  49.815  0.00  0.00    +0.000 A 
ATOM      6  N   UNL     1      37.181  30.381  50.529  0.00  0.00    +0.000 NA
ATOM      7  H   UNL     1      39.038  31.242  50.487  0.00  0.00    +0.000 HD
ATOM      8  H   UNL     1      36.842  31.424  46.841  0.00  0.00    +0.000 HD
ENDROOT
BRANCH   2   9
ATOM      9  O   UNL     1      39.146  32.083  48.045  0.00  0.00    +0.000 OA
BRANCH   9  10
ATOM     10  C   UNL     1      39.463  31.887  46.695  0.00  0.00    +0.000 A 
ATOM     11  C   UNL     1      39.598  30.707  46.027  0.00  0.00    +0.000 A 
ATOM     12  C   UNL     1      39.913  30.707  44.707  0.00  0.00    +0.000 A 
ATOM     13  C   UNL     1      40.090  31.932  44.068  0.00  0.00    +0.000 A 
ATOM     14  C   UNL     1      39.949  33.111  44.758  0.00  0.00    +0.000 A 
ATOM     15  N   UNL     1      39.636  33.054  46.071  0.00  0.00    +0.000 NA
ATOM     16  H   UNL     1      39.438  29.819  46.625  0.00  0.00    +0.000 HD
ATOM     17  H   UNL     1      40.021  29.780  44.173  0.00  0.00    +0.000 HD
ATOM     18  H   UNL     1      40.341  31.951  43.014  0.00  0.00    +0.000 HD
BRANCH  14  19
ATOM     19  C   UNL     1      40.148  34.427  44.041  0.00  0.00    +0.000 C 
ATOM     20  H   UNL     1      40.804  34.224  43.186  0.00  0.00    +0.000 HD
ATOM     21  H   UNL     1      40.687  35.087  44.741  0.00  0.00    +0.000 HD
ATOM     22  H   UNL     1      39.181  34.827  43.676  0.00  0.00    +0.000 HD
ENDBRANCH  14  19
ENDBRANCH   9  10
ENDBRANCH   2   9
BRANCH   5  23
ATOM     23  S   UNL     1      34.576  29.237  50.395  0.00  0.00    +0.000 S 
BRANCH  23  26
ATOM     24  F   UNL     1      37.159  27.890  50.382  0.00  0.00    +0.000 F 
ATOM     25  C   UNL     1      36.100  27.078  50.138  0.00  0.00    +0.000 A 
ATOM     26  C   UNL     1      34.769  27.491  50.093  0.00  0.00    +0.000 A 
ATOM     27  C   UNL     1      33.788  26.557  49.834  0.00  0.00    +0.000 A 
ATOM     28  H   UNL     1      32.796  26.970  49.820  0.00  0.00    +0.000 HD
ATOM     29  C   UNL     1      34.162  25.250  49.629  0.00  0.00    +0.000 A 
ATOM     30  H   UNL     1      33.384  24.550  49.431  0.00  0.00    +0.000 HD
ATOM     31  C   UNL     1      35.472  24.831  49.671  0.00  0.00    +0.000 A 
ATOM     32  C   UNL     1      36.463  25.755  49.929  0.00  0.00    +0.000 A 
ENDBRANCH  23  26
ENDBRANCH   5  23
TORSDOF 5
