
 OpenBabel03262522233D

 32 34  0  0  0  0  0  0  0  0999 V2000
   37.7150   30.6700   50.0150 C   0  0  0  0  0  0  0  0  0  0  0  0
   37.6880   31.1720   48.7010 C   0  0  0  0  0  0  0  0  0  0  0  0
   36.4890   31.1140   48.0210 C   0  0  0  0  0  0  0  0  0  0  0  0
   35.4400   30.5800   48.6770 N   0  0  0  0  0  0  0  0  0  0  0  0
   35.4810   30.1170   49.9010 C   0  0  0  0  0  0  0  0  0  0  0  0
   36.6440   30.1500   50.6200 N   0  0  0  0  0  0  0  0  0  0  0  0
   38.6220   30.6800   50.6200 H   0  0  0  0  0  0  0  0  0  0  0  0
   36.4950   31.5030   47.0220 H   0  0  0  0  0  0  0  0  0  0  0  0
   38.8760   31.6660   48.2440 O   0  0  0  0  0  0  0  0  0  0  0  0
   39.1530   31.5260   46.8780 C   0  0  0  0  0  0  0  0  0  0  0  0
   39.1160   30.3900   46.1270 C   0  0  0  0  0  0  0  0  0  0  0  0
   39.4180   30.4410   44.8050 C   0  0  0  0  0  0  0  0  0  0  0  0
   39.7610   31.6720   44.2510 C   0  0  0  0  0  0  0  0  0  0  0  0
   39.7920   32.8060   45.0240 C   0  0  0  0  0  0  0  0  0  0  0  0
   39.4840   32.6990   46.3350 N   0  0  0  0  0  0  0  0  0  0  0  0
   38.8360   29.4920   46.6640 H   0  0  0  0  0  0  0  0  0  0  0  0
   39.3910   29.5490   44.2050 H   0  0  0  0  0  0  0  0  0  0  0  0
   40.0050   31.7320   43.1970 H   0  0  0  0  0  0  0  0  0  0  0  0
   40.1690   34.1300   44.3980 C   0  0  0  0  0  0  0  0  0  0  0  0
   40.7840   33.8990   43.5200 H   0  0  0  0  0  0  0  0  0  0  0  0
   40.8010   34.6560   45.1340 H   0  0  0  0  0  0  0  0  0  0  0  0
   39.2660   34.6860   44.0790 H   0  0  0  0  0  0  0  0  0  0  0  0
   33.8810   29.4830   50.4330 S   0  0  0  0  0  0  0  0  0  0  0  0
   35.5310   27.4930   49.0890 F   0  0  0  0  0  0  0  0  0  0  0  0
   34.2340   27.5100   48.6920 C   0  0  0  0  0  0  0  0  0  0  0  0
   33.2560   28.3710   49.1880 C   0  0  0  0  0  0  0  0  0  0  0  0
   31.9720   28.2800   48.6930 C   0  0  0  0  0  0  0  0  0  0  0  0
   31.2910   28.9830   49.1370 H   0  0  0  0  0  0  0  0  0  0  0  0
   31.7050   27.3410   47.7250 C   0  0  0  0  0  0  0  0  0  0  0  0
   30.7060   27.2930   47.3610 H   0  0  0  0  0  0  0  0  0  0  0  0
   32.6620   26.4860   47.2280 C   0  0  0  0  0  3  0  0  0  0  0  0
   33.9500   26.5660   47.7140 C   0  0  0  0  0  3  0  0  0  0  0  0
  1  7  1  0  0  0  0
  1  6  1  0  0  0  0
  2  1  2  0  0  0  0
  3  4  2  0  0  0  0
  3  2  1  0  0  0  0
  4  5  1  0  0  0  0
  5 23  1  0  0  0  0
  5  6  2  0  0  0  0
  8  3  1  0  0  0  0
  9  2  1  0  0  0  0
 10  9  1  0  0  0  0
 11 16  1  0  0  0  0
 11 10  2  0  0  0  0
 12 11  1  0  0  0  0
 13 12  2  0  0  0  0
 13 14  1  0  0  0  0
 14 15  2  0  0  0  0
 15 10  1  0  0  0  0
 17 12  1  0  0  0  0
 18 13  1  0  0  0  0
 19 14  1  0  0  0  0
 19 21  1  0  0  0  0
 20 19  1  0  0  0  0
 22 19  1  0  0  0  0
 25 24  1  0  0  0  0
 25 26  1  0  0  0  0
 26 23  1  0  0  0  0
 27 28  1  0  0  0  0
 27 26  2  0  0  0  0
 29 27  1  0  0  0  0
 30 29  1  0  0  0  0
 31 32  1  0  0  0  0
 31 29  2  0  0  0  0
 32 25  2  0  0  0  0
M  END
>  <minimizedAffinity>
-4.65260363

>  <minimizedRMSD>
1.76457286

$$$$
