
 OpenBabel03262521463D

 30 31  0  0  0  0  0  0  0  0999 V2000
   37.0000   29.2100   50.6820 C   0  0  0  0  0  0  0  0  0  0  0  0
   37.0400   28.9170   49.6160 H   0  0  0  0  0  0  0  0  0  0  0  0
   37.4380   28.3860   51.2970 H   0  0  0  0  0  0  0  0  0  0  0  0
   37.6860   30.5210   50.8880 C   0  0  0  0  0  0  0  0  0  0  0  0
   38.6270   30.3050   51.4610 H   0  0  0  0  0  0  0  0  0  0  0  0
   37.1090   31.2240   51.5400 H   0  0  0  0  0  0  0  0  0  0  0  0
   38.0870   31.2010   49.6540 C   0  0  0  0  0  0  0  0  0  0  0  0
   38.5030   32.5120   49.6220 C   0  0  0  0  0  0  0  0  0  0  0  0
   38.8680   33.0800   48.3920 C   0  0  0  0  0  0  0  0  0  0  0  0
   38.7880   32.2910   47.2790 N   0  0  0  0  0  0  0  0  0  0  0  0
   38.3680   30.9850   47.3490 C   0  0  0  0  0  0  0  0  0  0  0  0
   38.0180   30.4510   48.5530 N   0  0  0  0  0  0  0  0  0  0  0  0
   38.5400   33.0780   50.5490 H   0  0  0  0  0  0  0  0  0  0  0  0
   39.1940   34.0930   48.3370 H   0  0  0  0  0  0  0  0  0  0  0  0
   38.3180   30.3920   46.4460 H   0  0  0  0  0  0  0  0  0  0  0  0
   35.6860   29.3330   51.1260 O   0  0  0  0  0  0  0  0  0  0  0  0
   34.5370   31.1370   49.6460 O   0  0  0  0  0  0  0  0  0  0  0  0
   34.6140   29.6320   49.8410 P   0  0  2  0  0  0  0  0  0  0  0  0
   33.0600   29.1200   50.2400 O   0  0  0  0  0  0  0  0  0  0  0  0
   32.6730   29.5640   51.0150 H   0  0  0  0  0  0  0  0  0  0  0  0
   35.1200   28.8600   48.4480 O   0  0  0  0  0  0  0  0  0  0  0  0
   33.7450   26.4270   48.0130 F   0  0  0  0  0  0  0  0  0  0  0  0
   33.5160   27.4140   47.1310 C   0  0  0  0  0  0  0  0  0  0  0  0
   34.2320   28.5540   47.4300 C   0  0  0  0  0  0  0  0  0  0  0  0
   34.0960   29.6730   46.5980 C   0  0  0  0  0  0  0  0  0  0  0  0
   34.5830   30.6450   46.6850 H   0  0  0  0  0  0  0  0  0  0  0  0
   33.2530   29.6420   45.4820 C   0  0  0  0  0  0  0  0  0  0  0  0
   33.1050   30.4610   44.8050 H   0  0  0  0  0  0  0  0  0  0  0  0
   32.5450   28.4920   45.1990 C   0  0  0  0  0  3  0  0  0  0  0  0
   32.6880   27.3980   46.0270 C   0  0  0  0  0  3  0  0  0  0  0  0
  1  4  1  0  0  0  0
  1 16  1  0  0  0  0
  1  3  1  0  0  0  0
  2  1  1  0  0  0  0
  4  5  1  0  0  0  0
  4  6  1  0  0  0  0
  7  4  1  0  0  0  0
  8  7  1  0  0  0  0
  8 13  1  0  0  0  0
  9  8  2  0  0  0  0
 10 11  2  0  0  0  0
 10  9  1  0  0  0  0
 11 12  1  0  0  0  0
 12  7  2  0  0  0  0
 14  9  1  0  0  0  0
 15 11  1  0  0  0  0
 18 17  2  6  0  0  0
 18 19  1  0  0  0  0
 18 16  1  0  0  0  0
 19 20  1  0  0  0  0
 21 18  1  0  0  0  0
 23 24  1  0  0  0  0
 23 22  1  0  0  0  0
 24 21  1  0  0  0  0
 25 26  1  0  0  0  0
 25 24  2  0  0  0  0
 27 25  1  0  0  0  0
 28 27  1  0  0  0  0
 29 27  2  0  0  0  0
 29 30  1  0  0  0  0
 30 23  2  0  0  0  0
M  END
>  <minimizedAffinity>
-4.95293236

>  <minimizedRMSD>
0.992096424

$$$$
