
 OpenBabel03262521463D

 30 31  0  0  0  0  0  0  0  0999 V2000
   36.9200   29.2030   50.4890 C   0  0  0  0  0  0  0  0  0  0  0  0
   36.7640   29.0700   49.4010 H   0  0  0  0  0  0  0  0  0  0  0  0
   37.4000   28.2810   50.8970 H   0  0  0  0  0  0  0  0  0  0  0  0
   37.7150   30.4410   50.7530 C   0  0  0  0  0  0  0  0  0  0  0  0
   38.6610   30.1140   51.2610 H   0  0  0  0  0  0  0  0  0  0  0  0
   37.2240   31.1340   51.4820 H   0  0  0  0  0  0  0  0  0  0  0  0
   38.1110   31.1800   49.5520 C   0  0  0  0  0  0  0  0  0  0  0  0
   38.5320   32.4900   49.5840 C   0  0  0  0  0  0  0  0  0  0  0  0
   38.8920   33.1170   48.3820 C   0  0  0  0  0  0  0  0  0  0  0  0
   38.8040   32.3860   47.2310 N   0  0  0  0  0  0  0  0  0  0  0  0
   38.3790   31.0790   47.2380 C   0  0  0  0  0  0  0  0  0  0  0  0
   38.0340   30.4870   48.4160 N   0  0  0  0  0  0  0  0  0  0  0  0
   38.5760   33.0090   50.5380 H   0  0  0  0  0  0  0  0  0  0  0  0
   39.2220   34.1310   48.3760 H   0  0  0  0  0  0  0  0  0  0  0  0
   38.3220   30.5320   46.3070 H   0  0  0  0  0  0  0  0  0  0  0  0
   35.7090   29.3120   51.1660 O   0  0  0  0  0  0  0  0  0  0  0  0
   34.6740   30.5650   49.1350 O   0  0  0  0  0  0  0  0  0  0  0  0
   34.3960   29.4170   50.0920 P   0  0  2  0  0  0  0  0  0  0  0  0
   32.9860   29.8160   50.9230 O   0  0  0  0  0  0  0  0  0  0  0  0
   33.0160   30.6710   51.3860 H   0  0  0  0  0  0  0  0  0  0  0  0
   34.1780   27.9770   49.2710 O   0  0  0  0  0  0  0  0  0  0  0  0
   31.3620   27.7370   49.4060 F   0  0  0  0  0  0  0  0  0  0  0  0
   31.9070   27.7560   48.1790 C   0  0  0  0  0  0  0  0  0  0  0  0
   33.2800   27.8750   48.2210 C   0  0  0  0  0  0  0  0  0  0  0  0
   33.9920   27.9090   47.0150 C   0  0  0  0  0  0  0  0  0  0  0  0
   35.0670   27.9970   46.8660 H   0  0  0  0  0  0  0  0  0  0  0  0
   33.3280   27.8220   45.7850 C   0  0  0  0  0  0  0  0  0  0  0  0
   33.8110   27.8410   44.8290 H   0  0  0  0  0  0  0  0  0  0  0  0
   31.9530   27.7030   45.7630 C   0  0  0  0  0  3  0  0  0  0  0  0
   31.2660   27.6720   46.9590 C   0  0  0  0  0  3  0  0  0  0  0  0
  1  4  1  0  0  0  0
  1  3  1  0  0  0  0
  1 16  1  0  0  0  0
  2  1  1  0  0  0  0
  4  5  1  0  0  0  0
  4  6  1  0  0  0  0
  7  8  1  0  0  0  0
  7  4  1  0  0  0  0
  8 13  1  0  0  0  0
  9  8  2  0  0  0  0
 10 11  2  0  0  0  0
 10  9  1  0  0  0  0
 11 12  1  0  0  0  0
 12  7  2  0  0  0  0
 14  9  1  0  0  0  0
 15 11  1  0  0  0  0
 18 17  2  6  0  0  0
 18 19  1  0  0  0  0
 18 16  1  0  0  0  0
 19 20  1  0  0  0  0
 21 18  1  0  0  0  0
 23 24  1  0  0  0  0
 23 22  1  0  0  0  0
 24 21  1  0  0  0  0
 25 24  2  0  0  0  0
 26 25  1  0  0  0  0
 27 25  1  0  0  0  0
 28 27  1  0  0  0  0
 29 27  2  0  0  0  0
 29 30  1  0  0  0  0
 30 23  2  0  0  0  0
M  END
>  <minimizedAffinity>
-5.36458349

>  <minimizedRMSD>
0.330941319

$$$$
