
 OpenBabel03262521463D

 30 31  0  0  0  0  0  0  0  0999 V2000
   36.9380   29.2410   50.5010 C   0  0  0  0  0  0  0  0  0  0  0  0
   36.7840   29.1020   49.4140 H   0  0  0  0  0  0  0  0  0  0  0  0
   37.4300   28.3260   50.9120 H   0  0  0  0  0  0  0  0  0  0  0  0
   37.7160   30.4900   50.7610 C   0  0  0  0  0  0  0  0  0  0  0  0
   38.6590   30.1790   51.2850 H   0  0  0  0  0  0  0  0  0  0  0  0
   37.2080   31.1860   51.4740 H   0  0  0  0  0  0  0  0  0  0  0  0
   38.1210   31.2190   49.5570 C   0  0  0  0  0  0  0  0  0  0  0  0
   38.5510   32.5260   49.5810 C   0  0  0  0  0  0  0  0  0  0  0  0
   38.9180   33.1430   48.3760 C   0  0  0  0  0  0  0  0  0  0  0  0
   38.8290   32.4050   47.2300 N   0  0  0  0  0  0  0  0  0  0  0  0
   38.3950   31.1010   47.2440 C   0  0  0  0  0  0  0  0  0  0  0  0
   38.0420   30.5190   48.4240 N   0  0  0  0  0  0  0  0  0  0  0  0
   38.5950   33.0500   50.5320 H   0  0  0  0  0  0  0  0  0  0  0  0
   39.2550   34.1540   48.3640 H   0  0  0  0  0  0  0  0  0  0  0  0
   38.3370   30.5490   46.3160 H   0  0  0  0  0  0  0  0  0  0  0  0
   35.7260   29.3350   51.1770 O   0  0  0  0  0  0  0  0  0  0  0  0
   34.6900   30.5120   49.1030 O   0  0  0  0  0  0  0  0  0  0  0  0
   34.4100   29.4030   50.1040 P   0  0  2  0  0  0  0  0  0  0  0  0
   33.0040   29.8400   50.9230 O   0  0  0  0  0  0  0  0  0  0  0  0
   33.0390   30.7120   51.3520 H   0  0  0  0  0  0  0  0  0  0  0  0
   34.1840   27.9340   49.3410 O   0  0  0  0  0  0  0  0  0  0  0  0
   31.3610   27.7900   49.4570 F   0  0  0  0  0  0  0  0  0  0  0  0
   31.9180   27.7180   48.2370 C   0  0  0  0  0  0  0  0  0  0  0  0
   33.2940   27.7980   48.2880 C   0  0  0  0  0  0  0  0  0  0  0  0
   34.0190   27.7360   47.0910 C   0  0  0  0  0  0  0  0  0  0  0  0
   35.0980   27.7830   46.9490 H   0  0  0  0  0  0  0  0  0  0  0  0
   33.3650   27.5970   45.8610 C   0  0  0  0  0  0  0  0  0  0  0  0
   33.8580   27.5440   44.9100 H   0  0  0  0  0  0  0  0  0  0  0  0
   31.9870   27.5200   45.8290 C   0  0  0  0  0  3  0  0  0  0  0  0
   31.2870   27.5810   47.0170 C   0  0  0  0  0  3  0  0  0  0  0  0
  1  4  1  0  0  0  0
  1  3  1  0  0  0  0
  1 16  1  0  0  0  0
  2  1  1  0  0  0  0
  4  5  1  0  0  0  0
  4  6  1  0  0  0  0
  7  8  1  0  0  0  0
  7  4  1  0  0  0  0
  8 13  1  0  0  0  0
  9  8  2  0  0  0  0
 10 11  2  0  0  0  0
 10  9  1  0  0  0  0
 11 12  1  0  0  0  0
 12  7  2  0  0  0  0
 14  9  1  0  0  0  0
 15 11  1  0  0  0  0
 18 17  2  6  0  0  0
 18 19  1  0  0  0  0
 18 16  1  0  0  0  0
 19 20  1  0  0  0  0
 21 18  1  0  0  0  0
 23 24  1  0  0  0  0
 23 22  1  0  0  0  0
 24 21  1  0  0  0  0
 25 24  2  0  0  0  0
 26 25  1  0  0  0  0
 27 25  1  0  0  0  0
 28 27  1  0  0  0  0
 29 27  2  0  0  0  0
 29 30  1  0  0  0  0
 30 23  2  0  0  0  0
M  END
>  <minimizedAffinity>
-5.37304163

>  <minimizedRMSD>
0.342153847

$$$$
