
 OpenBabel03262521463D

 30 31  0  0  0  0  0  0  0  0999 V2000
   36.9210   29.2030   50.4890 C   0  0  0  0  0  0  0  0  0  0  0  0
   36.7650   29.0710   49.4010 H   0  0  0  0  0  0  0  0  0  0  0  0
   37.4010   28.2810   50.8970 H   0  0  0  0  0  0  0  0  0  0  0  0
   37.7150   30.4410   50.7530 C   0  0  0  0  0  0  0  0  0  0  0  0
   38.6620   30.1140   51.2610 H   0  0  0  0  0  0  0  0  0  0  0  0
   37.2240   31.1340   51.4820 H   0  0  0  0  0  0  0  0  0  0  0  0
   38.1110   31.1800   49.5520 C   0  0  0  0  0  0  0  0  0  0  0  0
   38.5320   32.4900   49.5840 C   0  0  0  0  0  0  0  0  0  0  0  0
   38.8920   33.1180   48.3820 C   0  0  0  0  0  0  0  0  0  0  0  0
   38.8040   32.3860   47.2310 N   0  0  0  0  0  0  0  0  0  0  0  0
   38.3800   31.0790   47.2380 C   0  0  0  0  0  0  0  0  0  0  0  0
   38.0340   30.4870   48.4160 N   0  0  0  0  0  0  0  0  0  0  0  0
   38.5760   33.0090   50.5380 H   0  0  0  0  0  0  0  0  0  0  0  0
   39.2210   34.1310   48.3760 H   0  0  0  0  0  0  0  0  0  0  0  0
   38.3230   30.5320   46.3070 H   0  0  0  0  0  0  0  0  0  0  0  0
   35.7100   29.3120   51.1650 O   0  0  0  0  0  0  0  0  0  0  0  0
   34.6750   30.5660   49.1360 O   0  0  0  0  0  0  0  0  0  0  0  0
   34.3960   29.4170   50.0920 P   0  0  2  0  0  0  0  0  0  0  0  0
   32.9870   29.8160   50.9230 O   0  0  0  0  0  0  0  0  0  0  0  0
   33.0170   30.6710   51.3860 H   0  0  0  0  0  0  0  0  0  0  0  0
   34.1780   27.9780   49.2710 O   0  0  0  0  0  0  0  0  0  0  0  0
   31.3620   27.7380   49.4080 F   0  0  0  0  0  0  0  0  0  0  0  0
   31.9060   27.7560   48.1800 C   0  0  0  0  0  0  0  0  0  0  0  0
   33.2790   27.8760   48.2210 C   0  0  0  0  0  0  0  0  0  0  0  0
   33.9910   27.9080   47.0140 C   0  0  0  0  0  0  0  0  0  0  0  0
   35.0650   27.9980   46.8650 H   0  0  0  0  0  0  0  0  0  0  0  0
   33.3250   27.8220   45.7850 C   0  0  0  0  0  0  0  0  0  0  0  0
   33.8070   27.8400   44.8280 H   0  0  0  0  0  0  0  0  0  0  0  0
   31.9510   27.7010   45.7650 C   0  0  0  0  0  3  0  0  0  0  0  0
   31.2650   27.6710   46.9610 C   0  0  0  0  0  3  0  0  0  0  0  0
  1  4  1  0  0  0  0
  1  3  1  0  0  0  0
  1 16  1  0  0  0  0
  2  1  1  0  0  0  0
  4  5  1  0  0  0  0
  4  6  1  0  0  0  0
  7  8  1  0  0  0  0
  7  4  1  0  0  0  0
  8 13  1  0  0  0  0
  9  8  2  0  0  0  0
 10 11  2  0  0  0  0
 10  9  1  0  0  0  0
 11 12  1  0  0  0  0
 12  7  2  0  0  0  0
 14  9  1  0  0  0  0
 15 11  1  0  0  0  0
 18 17  2  6  0  0  0
 18 19  1  0  0  0  0
 18 16  1  0  0  0  0
 19 20  1  0  0  0  0
 21 18  1  0  0  0  0
 23 24  1  0  0  0  0
 23 22  1  0  0  0  0
 24 21  1  0  0  0  0
 25 24  2  0  0  0  0
 26 25  1  0  0  0  0
 27 25  1  0  0  0  0
 28 27  1  0  0  0  0
 29 27  2  0  0  0  0
 29 30  1  0  0  0  0
 30 23  2  0  0  0  0
M  END
>  <minimizedAffinity>
-5.3647337

>  <minimizedRMSD>
0.5799824

$$$$
