
 OpenBabel03272509423D

 38 40  0  0  1  0  0  0  0  0999 V2000
   37.0070   30.9130   49.0760 C   0  0  0  0  0  0  0  0  0  0  0  0
   36.7000   31.7970   50.1130 C   0  0  0  0  0  0  0  0  0  0  0  0
   37.2800   33.0520   50.2000 C   0  0  0  0  0  0  0  0  0  0  0  0
   38.2010   33.4520   49.2250 C   0  0  0  0  0  0  0  0  0  0  0  0
   38.4930   32.5780   48.2170 C   0  0  0  0  0  0  0  0  0  0  0  0
   37.8920   31.3300   48.1640 C   0  0  0  0  0  0  0  0  0  0  0  0
   35.9820   31.4800   50.8680 H   0  0  0  0  0  0  0  0  0  0  0  0
   36.9840   33.6570   51.0270 H   0  0  0  0  0  0  0  0  0  0  0  0
   38.5900   34.4300   49.3790 H   0  0  0  0  0  0  0  0  0  0  0  0
   39.2210   33.0290   47.5440 H   0  0  0  0  0  0  0  0  0  0  0  0
   36.4270   29.5890   49.0040 C   0  0  2  0  0  0  0  0  0  0  0  0
   36.9560   29.0740   48.1130 H   0  0  0  0  0  0  0  0  0  0  0  0
   33.5850   30.0560   46.7870 C   0  0  0  0  0  0  0  0  0  0  0  0
   32.8800   28.8700   46.8920 C   0  0  0  0  0  0  0  0  0  0  0  0
   33.3420   27.9160   47.7780 C   0  0  0  0  0  0  0  0  0  0  0  0
   34.4750   28.1720   48.5170 N   0  0  0  0  0  0  0  0  0  0  0  0
   35.1040   29.3200   48.3700 C   0  0  0  0  0  0  0  0  0  0  0  0
   34.6670   30.2680   47.5090 N   0  0  0  0  0  0  0  0  0  0  0  0
   33.1920   30.7790   46.0810 H   0  0  0  0  0  0  0  0  0  0  0  0
   31.9910   28.5820   46.3600 H   0  0  0  0  0  0  0  0  0  0  0  0
   32.9160   26.9310   47.9930 H   0  0  0  0  0  0  0  0  0  0  0  0
   36.8710   28.8060   49.9200 O   0  0  0  0  0  0  0  0  0  0  0  0
   36.6200   28.8970   50.8680 H   0  0  0  0  0  0  0  0  0  0  0  0
   38.3150   30.4950   47.0620 C   0  0  0  0  0  3  0  0  0  0  0  0
   38.8400   30.9680   45.9270 C   0  0  0  0  0  3  0  0  0  0  0  0
   39.3460   30.2060   44.7610 C   0  0  0  0  0  0  0  0  0  0  0  0
   38.7640   29.2940   44.5480 H   0  0  0  0  0  0  0  0  0  0  0  0
   40.3900   29.8410   44.9880 H   0  0  0  0  0  0  0  0  0  0  0  0
   39.4740   31.2960   43.3400 S   0  0  0  0  0  0  0  0  0  0  0  0
   39.5440   32.2560   40.5890 F   0  0  0  0  0  0  0  0  0  0  0  0
   40.2740   31.1510   40.8160 C   0  0  0  0  0  0  0  0  0  0  0  0
   40.4040   30.4970   42.0450 C   0  0  0  0  0  0  0  0  0  0  0  0
   41.1890   29.3660   42.1380 C   0  0  0  0  0  0  0  0  0  0  0  0
   41.2220   28.9450   43.1200 H   0  0  0  0  0  0  0  0  0  0  0  0
   41.8390   28.8910   41.0180 C   0  0  0  0  0  0  0  0  0  0  0  0
   42.4380   28.0170   41.1170 H   0  0  0  0  0  0  0  0  0  0  0  0
   41.7240   29.5270   39.7790 C   0  0  0  0  0  3  0  0  0  0  0  0
   40.9390   30.6500   39.7000 C   0  0  0  0  0  3  0  0  0  0  0  0
  1  2  1  0  0  0  0
  2  3  2  0  0  0  0
  2  7  1  0  0  0  0
  3  8  1  0  0  0  0
  4  9  1  0  0  0  0
  4  3  1  0  0  0  0
  5  4  2  0  0  0  0
  6  5  1  0  0  0  0
  6  1  2  0  0  0  0
 10  5  1  0  0  0  0
 11 12  1  6  0  0  0
 11  1  1  0  0  0  0
 11 22  1  0  0  0  0
 13 14  2  0  0  0  0
 13 18  1  0  0  0  0
 14 15  1  0  0  0  0
 15 21  1  0  0  0  0
 15 16  2  0  0  0  0
 17 16  1  0  0  0  0
 17 11  1  0  0  0  0
 18 17  2  0  0  0  0
 19 13  1  0  0  0  0
 20 14  1  0  0  0  0
 22 23  1  0  0  0  0
 24  6  1  0  0  0  0
 25 24  2  0  0  0  0
 26 28  1  0  0  0  0
 26 25  1  0  0  0  0
 27 26  1  0  0  0  0
 29 26  1  0  0  0  0
 30 31  1  0  0  0  0
 31 32  1  0  0  0  0
 32 33  2  0  0  0  0
 32 29  1  0  0  0  0
 33 34  1  0  0  0  0
 35 36  1  0  0  0  0
 35 33  1  0  0  0  0
 37 35  2  0  0  0  0
 38 37  1  0  0  0  0
 38 31  2  0  0  0  0
M  END
>  <minimizedAffinity>
-6.0219202

>  <minimizedRMSD>
0.649060667

$$$$
