
     RDKit          3D

 42 44  0  0  0  0  0  0  0  0999 V2000
   37.0800   30.9479   49.0286 C   0  0  0  0  0  0  0  0  0  0  0  0
   36.8108   31.8787   50.0346 C   0  0  0  0  0  0  0  0  0  0  0  0
   37.4220   33.1208   50.0637 C   0  0  0  0  0  0  0  0  0  0  0  0
   38.3362   33.4612   49.0605 C   0  0  0  0  0  0  0  0  0  0  0  0
   38.5909   32.5419   48.0824 C   0  0  0  0  0  0  0  0  0  0  0  0
   37.9595   31.3071   48.0868 C   0  0  0  0  0  0  0  0  0  0  0  0
   36.4665   29.6373   49.0170 C   0  0  1  0  0  0  0  0  0  0  0  0
   36.8638   28.8988   49.9909 O   0  0  0  0  0  0  0  0  0  0  0  0
   33.6142   30.1497   46.8246 C   0  0  0  0  0  0  0  0  0  0  0  0
   32.9527   28.9340   46.8465 C   0  0  0  0  0  0  0  0  0  0  0  0
   33.4478   27.9388   47.6675 C   0  0  0  0  0  0  0  0  0  0  0  0
   34.5700   28.1863   48.4265 N   0  0  0  0  0  0  0  0  0  0  0  0
   35.1564   29.3633   48.3606 C   0  0  0  0  0  0  0  0  0  0  0  0
   34.6858   30.3513   47.5651 N   0  0  0  0  0  0  0  0  0  0  0  0
   38.3437   30.4201   47.0125 C   0  0  0  0  0  0  0  0  0  0  0  0
   38.8215   30.8377   45.8355 C   0  0  0  0  0  0  0  0  0  0  0  0
   39.2856   30.0215   44.6897 C   0  0  0  0  0  0  0  0  0  0  0  0
   39.1855   30.9895   43.1810 S   0  0  0  0  0  0  0  0  0  0  0  0
   36.0982   31.6086   50.8126 H   0  0  0  0  0  0  0  0  0  0  0  0
   37.1540   33.7649   50.8710 H   0  0  0  0  0  0  0  0  0  0  0  0
   38.7509   34.4344   49.1695 H   0  0  0  0  0  0  0  0  0  0  0  0
   39.3183   32.9479   47.3814 H   0  0  0  0  0  0  0  0  0  0  0  0
   37.0074   29.0573   48.1749 H   0  0  0  0  0  0  0  0  0  0  0  0
   36.5884   29.0530   50.9236 H   0  0  0  0  0  0  0  0  0  0  0  0
   33.1949   30.9044   46.1691 H   0  0  0  0  0  0  0  0  0  0  0  0
   32.0762   28.6501   46.2921 H   0  0  0  0  0  0  0  0  0  0  0  0
   33.0585   26.9272   47.8117 H   0  0  0  0  0  0  0  0  0  0  0  0
   38.3596   29.3271   46.8954 H   0  0  0  0  0  0  0  0  0  0  0  0
   38.9187   31.9342   45.6919 H   0  0  0  0  0  0  0  0  0  0  0  0
   38.7720   29.0486   44.6084 H   0  0  0  0  0  0  0  0  0  0  0  0
   40.3747   29.7648   44.8422 H   0  0  0  0  0  0  0  0  0  0  0  0
   37.9277   28.4882   42.3728 F   0  0  0  0  0  0  0  0  0  0  0  0
   38.9741   28.8598   41.6163 C   0  0  0  0  0  0  0  0  0  0  0  0
   39.7432   30.0126   41.7957 C   0  0  0  0  0  0  0  0  0  0  0  0
   40.7942   30.2744   40.9428 C   0  0  0  0  0  0  0  0  0  0  0  0
   41.3167   31.1802   41.1672 H   0  0  0  0  0  0  0  0  0  0  0  0
   41.0789   29.3958   39.9182 C   0  0  0  0  0  0  0  0  0  0  0  0
   41.8940   29.6195   39.2740 H   0  0  0  0  0  0  0  0  0  0  0  0
   40.3245   28.2355   39.7175 C   0  0  0  0  0  0  0  0  0  0  0  0
   39.2812   27.9884   40.5748 C   0  0  0  0  0  0  0  0  0  0  0  0
   40.5412   27.5465   38.9206 H   0  0  0  0  0  0  0  0  0  0  0  0
   38.6999   27.0709   40.4007 H   0  0  0  0  0  0  0  0  0  0  0  0
  1  7  1  0
  1  2  2  0
  2  3  1  0
  4  3  2  0
  5  6  2  0
  5  4  1  0
  6  1  1  0
  7  8  1  0
  9 10  2  0
  9 14  1  0
 10 11  1  0
 11 12  2  0
 13 12  1  0
 13  7  1  0
 14 13  2  0
 15  6  1  0
 16 15  2  0
 17 16  1  0
 18 17  1  0
  2 19  1  0
  3 20  1  0
  4 21  1  0
  5 22  1  0
  7 23  1  6
  8 24  1  0
  9 25  1  0
 10 26  1  0
 11 27  1  0
 15 28  1  0
 16 29  1  0
 17 30  1  0
 17 31  1  0
 32 33  1  0
 33 34  2  0
 34 35  1  0
 35 36  1  0
 35 37  2  0
 37 38  1  0
 37 39  1  0
 39 40  2  0
 40 33  1  0
 39 41  1  0
 40 42  1  0
 18 34  1  0
M  ISO  8  19  14  20  14  21  14  22  14  23   8  24   3  25  14  26  14
M  ISO  5  27  14  30   8  31   8  36  15  38  16
M  END
>  <DihAtoms>  (1) 
16,17,33,32

>  <DihDeg>  (1) 
89.99959583155174

$$$$
