
 OpenBabel03272507163D

 26 28  0  0  1  0  0  0  0  0999 V2000
   36.9140   30.8920   50.6040 C   0  0  1  0  0  0  0  0  0  0  0  0
   36.1260   29.6850   50.5320 C   0  0  2  0  0  0  0  0  0  0  0  0
   37.4810   29.5990   51.2050 C   0  0  0  0  0  0  0  0  0  0  0  0
   36.7400   31.7220   51.3230 H   0  0  0  0  0  0  0  0  0  0  0  0
   35.2020   29.6600   51.1530 H   0  0  0  0  0  0  0  0  0  0  0  0
   38.2870   29.0740   50.6610 H   0  0  0  0  0  0  0  0  0  0  0  0
   37.4080   29.5610   52.2950 H   0  0  0  0  0  0  0  0  0  0  0  0
   37.7280   31.3800   49.4230 C   0  0  0  0  0  0  0  0  0  0  0  0
   38.1710   32.7020   49.4820 C   0  0  0  0  0  0  0  0  0  0  0  0
   38.8920   33.1230   48.3690 C   0  0  0  0  0  0  0  0  0  0  0  0
   39.1270   32.2700   47.3090 N   0  0  0  0  0  0  0  0  0  0  0  0
   38.6690   31.0000   47.3140 C   0  0  0  0  0  0  0  0  0  0  0  0
   37.9560   30.5440   48.3890 N   0  0  0  0  0  0  0  0  0  0  0  0
   37.9720   33.3340   50.3150 H   0  0  0  0  0  0  0  0  0  0  0  0
   39.2750   34.1360   48.3300 H   0  0  0  0  0  0  0  0  0  0  0  0
   38.8940   30.3930   46.4480 H   0  0  0  0  0  0  0  0  0  0  0  0
   36.0140   29.0110   49.3080 O   0  0  0  0  0  0  0  0  0  0  0  0
   35.1160   30.8000   47.3820 F   0  0  0  0  0  0  0  0  0  0  0  0
   34.4650   29.6300   47.6650 C   0  0  0  0  0  0  0  0  0  0  0  0
   34.8780   28.7070   48.6200 C   0  0  0  0  0  0  0  0  0  0  0  0
   34.1010   27.5700   48.7810 C   0  0  0  0  0  0  0  0  0  0  0  0
   34.4240   26.8550   49.5230 H   0  0  0  0  0  0  0  0  0  0  0  0
   32.9590   27.2940   48.0690 C   0  0  0  0  0  0  0  0  0  0  0  0
   32.4150   26.3680   48.2690 H   0  0  0  0  0  0  0  0  0  0  0  0
   32.5890   28.2330   47.1360 C   0  0  0  0  0  0  0  0  0  0  0  0
   33.3160   29.3740   46.9320 C   0  0  0  0  0  0  0  0  0  0  0  0
  1  3  1  0  0  0  0
  1  4  1  1  0  0  0
  2  1  1  0  0  0  0
  2  5  1  1  0  0  0
  2  3  1  0  0  0  0
  3  7  1  0  0  0  0
  6  3  1  0  0  0  0
  8  9  1  0  0  0  0
  8  1  1  0  0  0  0
  9 14  1  0  0  0  0
 10  9  2  0  0  0  0
 11 12  2  0  0  0  0
 11 10  1  0  0  0  0
 12 13  1  0  0  0  0
 13  8  2  0  0  0  0
 15 10  1  0  0  0  0
 16 12  1  0  0  0  0
 17  2  1  0  0  0  0
 18 19  1  0  0  0  0
 19 20  1  0  0  0  0
 20 21  2  0  0  0  0
 20 17  1  0  0  0  0
 21 22  1  0  0  0  0
 23 24  1  0  0  0  0
 23 21  1  0  0  0  0
 25 23  2  0  0  0  0
 26 25  1  0  0  0  0
 26 19  2  0  0  0  0
M  END
>  <minimizedAffinity>
-5.56590271

>  <minimizedRMSD>
1.48409498

$$$$
