
 OpenBabel03272501593D

 31 33  0  0  0  0  0  0  0  0999 V2000
   37.5810   24.1640   32.6050 C   0  0  0  0  0  0  0  0  0  0  0  0
   37.8700   25.4840   32.8030 C   0  0  0  0  0  0  0  0  0  0  0  0
   38.2740   25.7240   34.1080 C   0  0  0  0  0  0  0  0  0  0  0  0
   38.2060   24.4800   34.6670 N   0  0  0  0  0  0  0  0  0  0  0  0
   37.8010   23.5630   33.7920 N   0  0  0  0  0  0  0  0  0  0  0  0
   37.8150   26.3010   32.0740 H   0  0  0  0  0  0  0  0  0  0  0  0
   38.5790   26.6180   34.6350 H   0  0  0  0  0  0  0  0  0  0  0  0
   40.4000   22.9060   35.2430 F   0  0  0  0  0  0  0  0  0  0  0  0
   39.6070   23.2770   36.2800 C   0  0  0  0  0  0  0  0  0  0  0  0
   38.5010   24.0690   35.9970 C   0  0  0  0  0  0  0  0  0  0  0  0
   37.6720   24.4620   37.0490 C   0  0  0  0  0  0  0  0  0  0  0  0
   36.8080   25.0820   36.8150 H   0  0  0  0  0  0  0  0  0  0  0  0
   37.9250   24.0790   38.3660 C   0  0  0  0  0  0  0  0  0  0  0  0
   37.2800   24.3850   39.1860 H   0  0  0  0  0  0  0  0  0  0  0  0
   39.0350   23.2930   38.6070 C   0  0  0  0  0  3  0  0  0  0  0  0
   39.8820   22.8820   37.5910 C   0  0  0  0  0  3  0  0  0  0  0  0
   37.1140   23.5360   31.3230 C   0  0  0  0  0  0  0  0  0  0  0  0
   37.2100   24.2130   30.4610 H   0  0  0  0  0  0  0  0  0  0  0  0
   37.7450   22.6250   31.1910 H   0  0  0  0  0  0  0  0  0  0  0  0
   35.7060   23.0790   31.5720 C   0  0  0  0  0  0  0  0  0  0  0  0
   35.0120   23.3570   30.7300 H   0  0  0  0  0  0  0  0  0  0  0  0
   35.2950   23.5560   32.5010 H   0  0  0  0  0  0  0  0  0  0  0  0
   35.3760   19.8130   33.2630 C   0  0  0  0  0  0  0  0  0  0  0  0
   35.6980   18.9010   32.2530 C   0  0  0  0  0  0  0  0  0  0  0  0
   36.0300   19.4340   30.9840 C   0  0  0  0  0  0  0  0  0  0  0  0
   36.0180   20.7820   30.8150 N   0  0  0  0  0  0  0  0  0  0  0  0
   35.6970   21.6100   31.8380 C   0  0  0  0  0  0  0  0  0  0  0  0
   35.3870   21.1140   33.0240 N   0  0  0  0  0  0  0  0  0  0  0  0
   35.1350   19.3350   34.2000 H   0  0  0  0  0  0  0  0  0  0  0  0
   35.7360   17.8200   32.2880 H   0  0  0  0  0  0  0  0  0  0  0  0
   36.3000   18.8680   30.1070 H   0  0  0  0  0  0  0  0  0  0  0  0
  1  2  1  0  0  0  0
  1  5  2  0  0  0  0
  2  3  2  0  0  0  0
  3  7  1  0  0  0  0
  3  4  1  0  0  0  0
  4 10  1  0  0  0  0
  5  4  1  0  0  0  0
  6  2  1  0  0  0  0
  8  9  1  0  0  0  0
  9 16  1  0  0  0  0
 10  9  2  0  0  0  0
 10 11  1  0  0  0  0
 11 13  2  0  0  0  0
 12 11  1  0  0  0  0
 13 15  1  0  0  0  0
 13 14  1  0  0  0  0
 16 15  2  0  0  0  0
 17 20  1  0  0  0  0
 17  1  1  0  0  0  0
 18 17  1  0  0  0  0
 19 17  1  0  0  0  0
 20 27  1  0  0  0  0
 20 22  1  0  0  0  0
 21 20  1  0  0  0  0
 23 29  1  0  0  0  0
 24 30  1  0  0  0  0
 24 23  2  0  0  0  0
 25 24  1  0  0  0  0
 26 25  2  0  0  0  0
 26 27  1  0  0  0  0
 27 28  2  0  0  0  0
 28 23  1  0  0  0  0
 31 25  1  0  0  0  0
M  END
>  <minimizedAffinity>
-5.28484917

$$$$

 OpenBabel03272501593D

 31 33  0  0  0  0  0  0  0  0999 V2000
   37.4990   25.0110   33.0850 C   0  0  0  0  0  0  0  0  0  0  0  0
   36.5680   25.5150   32.2220 C   0  0  0  0  0  0  0  0  0  0  0  0
   35.9000   24.5030   31.5490 C   0  0  0  0  0  0  0  0  0  0  0  0
   36.4860   23.3790   32.0570 N   0  0  0  0  0  0  0  0  0  0  0  0
   37.4220   23.6700   32.9570 N   0  0  0  0  0  0  0  0  0  0  0  0
   36.3240   26.5680   32.0360 H   0  0  0  0  0  0  0  0  0  0  0  0
   35.1150   24.5020   30.8050 H   0  0  0  0  0  0  0  0  0  0  0  0
   38.0860   21.9550   30.3150 F   0  0  0  0  0  0  0  0  0  0  0  0
   37.0400   21.3010   30.8810 C   0  0  0  0  0  0  0  0  0  0  0  0
   36.2300   22.0110   31.7590 C   0  0  0  0  0  0  0  0  0  0  0  0
   35.1500   21.3570   32.3510 C   0  0  0  0  0  0  0  0  0  0  0  0
   34.5220   21.9250   33.0370 H   0  0  0  0  0  0  0  0  0  0  0  0
   34.8650   20.0180   32.0840 C   0  0  0  0  0  0  0  0  0  0  0  0
   34.0240   19.5080   32.5450 H   0  0  0  0  0  0  0  0  0  0  0  0
   35.6940   19.3460   31.2070 C   0  0  0  0  0  3  0  0  0  0  0  0
   36.7760   19.9590   30.5980 C   0  0  0  0  0  3  0  0  0  0  0  0
   38.4080   25.8030   33.9790 C   0  0  0  0  0  0  0  0  0  0  0  0
   39.4390   25.4160   33.9850 H   0  0  0  0  0  0  0  0  0  0  0  0
   38.3740   26.8480   33.5890 H   0  0  0  0  0  0  0  0  0  0  0  0
   37.7620   25.8050   35.3340 C   0  0  0  0  0  0  0  0  0  0  0  0
   36.6470   25.6570   35.2750 H   0  0  0  0  0  0  0  0  0  0  0  0
   37.9300   26.7880   35.8490 H   0  0  0  0  0  0  0  0  0  0  0  0
   38.4860   23.5210   38.1440 C   0  0  0  0  0  0  0  0  0  0  0  0
   39.6650   22.8880   37.7390 C   0  0  0  0  0  0  0  0  0  0  0  0
   40.2010   23.2620   36.4830 C   0  0  0  0  0  0  0  0  0  0  0  0
   39.5530   24.2040   35.7480 N   0  0  0  0  0  0  0  0  0  0  0  0
   38.4140   24.7800   36.2010 C   0  0  0  0  0  0  0  0  0  0  0  0
   37.9120   24.4310   37.3730 N   0  0  0  0  0  0  0  0  0  0  0  0
   38.1380   23.1860   39.1080 H   0  0  0  0  0  0  0  0  0  0  0  0
   40.2500   22.1330   38.2470 H   0  0  0  0  0  0  0  0  0  0  0  0
   41.0970   22.8700   36.0310 H   0  0  0  0  0  0  0  0  0  0  0  0
  1 17  1  0  0  0  0
  2  1  1  0  0  0  0
  3  4  1  0  0  0  0
  3  2  2  0  0  0  0
  4  5  1  0  0  0  0
  5  1  2  0  0  0  0
  6  2  1  0  0  0  0
  7  3  1  0  0  0  0
  8  9  1  0  0  0  0
  9 10  1  0  0  0  0
 10  4  1  0  0  0  0
 10 11  2  0  0  0  0
 11 12  1  0  0  0  0
 13 11  1  0  0  0  0
 13 14  1  0  0  0  0
 15 13  2  0  0  0  0
 16  9  2  0  0  0  0
 16 15  1  0  0  0  0
 17 18  1  0  0  0  0
 17 20  1  0  0  0  0
 19 17  1  0  0  0  0
 20 22  1  0  0  0  0
 20 27  1  0  0  0  0
 21 20  1  0  0  0  0
 23 29  1  0  0  0  0
 24 23  1  0  0  0  0
 24 30  1  0  0  0  0
 25 24  2  0  0  0  0
 26 27  2  0  0  0  0
 26 25  1  0  0  0  0
 27 28  1  0  0  0  0
 28 23  2  0  0  0  0
 31 25  1  0  0  0  0
M  END
>  <minimizedAffinity>
-5.16171598

$$$$

 OpenBabel03272501593D

 31 33  0  0  0  0  0  0  0  0999 V2000
   36.9580   27.5740   33.4900 C   0  0  0  0  0  0  0  0  0  0  0  0
   36.6070   28.2360   32.3470 C   0  0  0  0  0  0  0  0  0  0  0  0
   35.8650   29.3730   32.6270 C   0  0  0  0  0  0  0  0  0  0  0  0
   35.7960   29.3470   33.9900 N   0  0  0  0  0  0  0  0  0  0  0  0
   36.4330   28.2960   34.5010 N   0  0  0  0  0  0  0  0  0  0  0  0
   36.8470   27.9640   31.3120 H   0  0  0  0  0  0  0  0  0  0  0  0
   35.4180   30.1360   32.0050 H   0  0  0  0  0  0  0  0  0  0  0  0
   33.0590   29.3420   34.3530 F   0  0  0  0  0  0  0  0  0  0  0  0
   33.7820   30.2480   35.0590 C   0  0  0  0  0  0  0  0  0  0  0  0
   35.1600   30.2560   34.8820 C   0  0  0  0  0  0  0  0  0  0  0  0
   35.9210   31.1790   35.5990 C   0  0  0  0  0  0  0  0  0  0  0  0
   37.0010   31.1760   35.4510 H   0  0  0  0  0  0  0  0  0  0  0  0
   35.3360   32.0870   36.4810 C   0  0  0  0  0  0  0  0  0  0  0  0
   35.9290   32.8070   37.0400 H   0  0  0  0  0  0  0  0  0  0  0  0
   33.9640   32.0470   36.6310 C   0  0  0  0  0  3  0  0  0  0  0  0
   33.1720   31.1460   35.9380 C   0  0  0  0  0  3  0  0  0  0  0  0
   37.7590   26.3080   33.5770 C   0  0  0  0  0  0  0  0  0  0  0  0
   37.1350   25.4250   33.7860 H   0  0  0  0  0  0  0  0  0  0  0  0
   38.2730   26.2110   32.5910 H   0  0  0  0  0  0  0  0  0  0  0  0
   38.8150   26.5540   34.6150 C   0  0  0  0  0  0  0  0  0  0  0  0
   38.6330   27.5030   35.1930 H   0  0  0  0  0  0  0  0  0  0  0  0
   39.8240   26.6570   34.1340 H   0  0  0  0  0  0  0  0  0  0  0  0
   39.9890   23.4280   36.1930 C   0  0  0  0  0  0  0  0  0  0  0  0
   39.0460   23.2120   37.2020 C   0  0  0  0  0  0  0  0  0  0  0  0
   38.0030   24.1620   37.3270 C   0  0  0  0  0  0  0  0  0  0  0  0
   37.9720   25.2170   36.4720 N   0  0  0  0  0  0  0  0  0  0  0  0
   38.9180   25.3670   35.5140 C   0  0  0  0  0  0  0  0  0  0  0  0
   39.8930   24.4810   35.3970 N   0  0  0  0  0  0  0  0  0  0  0  0
   40.7510   22.6660   36.1590 H   0  0  0  0  0  0  0  0  0  0  0  0
   38.9840   22.4100   37.9270 H   0  0  0  0  0  0  0  0  0  0  0  0
   37.2030   24.1380   38.0490 H   0  0  0  0  0  0  0  0  0  0  0  0
  1 17  1  0  0  0  0
  1  5  2  0  0  0  0
  2  3  2  0  0  0  0
  2  1  1  0  0  0  0
  3  4  1  0  0  0  0
  4  5  1  0  0  0  0
  4 10  1  0  0  0  0
  6  2  1  0  0  0  0
  7  3  1  0  0  0  0
  8  9  1  0  0  0  0
  9 16  1  0  0  0  0
 10  9  2  0  0  0  0
 10 11  1  0  0  0  0
 11 13  2  0  0  0  0
 12 11  1  0  0  0  0
 13 15  1  0  0  0  0
 13 14  1  0  0  0  0
 16 15  2  0  0  0  0
 17 18  1  0  0  0  0
 17 20  1  0  0  0  0
 19 17  1  0  0  0  0
 20 21  1  0  0  0  0
 20 27  1  0  0  0  0
 22 20  1  0  0  0  0
 23 24  1  0  0  0  0
 24 25  2  0  0  0  0
 24 30  1  0  0  0  0
 25 31  1  0  0  0  0
 26 25  1  0  0  0  0
 27 26  2  0  0  0  0
 28 27  1  0  0  0  0
 28 23  2  0  0  0  0
 29 23  1  0  0  0  0
M  END
>  <minimizedAffinity>
-5.14654541

$$$$

 OpenBabel03272501593D

 31 33  0  0  0  0  0  0  0  0999 V2000
   36.4760   28.3050   33.4120 C   0  0  0  0  0  0  0  0  0  0  0  0
   36.1730   29.1920   32.4180 C   0  0  0  0  0  0  0  0  0  0  0  0
   35.4290   30.2580   32.8990 C   0  0  0  0  0  0  0  0  0  0  0  0
   35.3080   29.9530   34.2240 N   0  0  0  0  0  0  0  0  0  0  0  0
   35.9180   28.8120   34.5300 N   0  0  0  0  0  0  0  0  0  0  0  0
   36.4510   29.1340   31.3580 H   0  0  0  0  0  0  0  0  0  0  0  0
   35.0110   31.1390   32.4320 H   0  0  0  0  0  0  0  0  0  0  0  0
   36.6620   31.7190   35.8600 F   0  0  0  0  0  0  0  0  0  0  0  0
   35.3320   31.5560   36.0790 C   0  0  0  0  0  0  0  0  0  0  0  0
   34.6440   30.6690   35.2600 C   0  0  0  0  0  0  0  0  0  0  0  0
   33.2770   30.4890   35.4690 C   0  0  0  0  0  0  0  0  0  0  0  0
   32.7480   29.7900   34.8210 H   0  0  0  0  0  0  0  0  0  0  0  0
   32.5900   31.1700   36.4740 C   0  0  0  0  0  0  0  0  0  0  0  0
   31.5250   31.0300   36.6370 H   0  0  0  0  0  0  0  0  0  0  0  0
   33.3090   32.0440   37.2660 C   0  0  0  0  0  3  0  0  0  0  0  0
   34.6670   32.2520   37.0920 C   0  0  0  0  0  3  0  0  0  0  0  0
   37.2650   27.0360   33.2650 C   0  0  0  0  0  0  0  0  0  0  0  0
   36.6240   26.1430   33.2060 H   0  0  0  0  0  0  0  0  0  0  0  0
   37.8640   27.1630   32.3320 H   0  0  0  0  0  0  0  0  0  0  0  0
   38.2260   27.0080   34.4190 C   0  0  0  0  0  0  0  0  0  0  0  0
   38.0440   27.8470   35.1470 H   0  0  0  0  0  0  0  0  0  0  0  0
   39.2820   27.1190   34.0550 H   0  0  0  0  0  0  0  0  0  0  0  0
   38.0130   24.3660   36.9900 C   0  0  0  0  0  0  0  0  0  0  0  0
   38.0660   23.1890   36.2380 C   0  0  0  0  0  0  0  0  0  0  0  0
   38.1760   23.3250   34.8330 C   0  0  0  0  0  0  0  0  0  0  0  0
   38.2240   24.5720   34.2960 N   0  0  0  0  0  0  0  0  0  0  0  0
   38.1690   25.6730   35.0840 C   0  0  0  0  0  0  0  0  0  0  0  0
   38.0660   25.5480   36.3970 N   0  0  0  0  0  0  0  0  0  0  0  0
   37.9300   24.1850   38.0510 H   0  0  0  0  0  0  0  0  0  0  0  0
   38.0360   22.1590   36.5690 H   0  0  0  0  0  0  0  0  0  0  0  0
   38.2280   22.5200   34.1180 H   0  0  0  0  0  0  0  0  0  0  0  0
  1  5  2  0  0  0  0
  2  3  2  0  0  0  0
  2  1  1  0  0  0  0
  3  4  1  0  0  0  0
  4  5  1  0  0  0  0
  4 10  1  0  0  0  0
  6  2  1  0  0  0  0
  7  3  1  0  0  0  0
  8  9  1  0  0  0  0
  9 16  1  0  0  0  0
 10 11  1  0  0  0  0
 10  9  2  0  0  0  0
 11 13  2  0  0  0  0
 12 11  1  0  0  0  0
 13 14  1  0  0  0  0
 13 15  1  0  0  0  0
 16 15  2  0  0  0  0
 17  1  1  0  0  0  0
 17 20  1  0  0  0  0
 18 17  1  0  0  0  0
 19 17  1  0  0  0  0
 20 27  1  0  0  0  0
 20 21  1  0  0  0  0
 22 20  1  0  0  0  0
 23 29  1  0  0  0  0
 24 30  1  0  0  0  0
 24 23  2  0  0  0  0
 25 24  1  0  0  0  0
 26 25  2  0  0  0  0
 26 27  1  0  0  0  0
 27 28  2  0  0  0  0
 28 23  1  0  0  0  0
 31 25  1  0  0  0  0
M  END
>  <minimizedAffinity>
-5.1461792

$$$$

 OpenBabel03272501593D

 31 33  0  0  0  0  0  0  0  0999 V2000
   37.3550   24.3140   32.5600 C   0  0  0  0  0  0  0  0  0  0  0  0
   37.2920   25.5810   33.0670 C   0  0  0  0  0  0  0  0  0  0  0  0
   37.8820   25.6550   34.3190 C   0  0  0  0  0  0  0  0  0  0  0  0
   38.2930   24.3700   34.5250 N   0  0  0  0  0  0  0  0  0  0  0  0
   37.9870   23.5800   33.4990 N   0  0  0  0  0  0  0  0  0  0  0  0
   36.8520   26.4700   32.6000 H   0  0  0  0  0  0  0  0  0  0  0  0
   38.0270   26.4650   35.0220 H   0  0  0  0  0  0  0  0  0  0  0  0
   37.0980   24.1970   37.0080 F   0  0  0  0  0  0  0  0  0  0  0  0
   38.3630   23.7200   36.8880 C   0  0  0  0  0  0  0  0  0  0  0  0
   38.9710   23.8040   35.6410 C   0  0  0  0  0  0  0  0  0  0  0  0
   40.2710   23.3190   35.4960 C   0  0  0  0  0  0  0  0  0  0  0  0
   40.7380   23.3910   34.5140 H   0  0  0  0  0  0  0  0  0  0  0  0
   40.9700   22.7590   36.5650 C   0  0  0  0  0  0  0  0  0  0  0  0
   41.9830   22.3810   36.4530 H   0  0  0  0  0  0  0  0  0  0  0  0
   40.3320   22.6920   37.7880 C   0  0  0  0  0  3  0  0  0  0  0  0
   39.0420   23.1620   37.9740 C   0  0  0  0  0  3  0  0  0  0  0  0
   36.8220   23.8560   31.2330 C   0  0  0  0  0  0  0  0  0  0  0  0
   36.7350   24.6780   30.5060 H   0  0  0  0  0  0  0  0  0  0  0  0
   37.5380   23.0790   30.8760 H   0  0  0  0  0  0  0  0  0  0  0  0
   35.5170   23.1720   31.5220 C   0  0  0  0  0  0  0  0  0  0  0  0
   34.6930   23.5190   30.8380 H   0  0  0  0  0  0  0  0  0  0  0  0
   35.1810   23.3910   32.5700 H   0  0  0  0  0  0  0  0  0  0  0  0
   36.8970   19.8300   30.7720 C   0  0  0  0  0  0  0  0  0  0  0  0
   35.9870   18.9680   31.3900 C   0  0  0  0  0  0  0  0  0  0  0  0
   34.8940   19.5600   32.0680 C   0  0  0  0  0  0  0  0  0  0  0  0
   34.7870   20.9140   32.0820 N   0  0  0  0  0  0  0  0  0  0  0  0
   35.7050   21.6920   31.4610 C   0  0  0  0  0  0  0  0  0  0  0  0
   36.7260   21.1410   30.8270 N   0  0  0  0  0  0  0  0  0  0  0  0
   37.7010   19.3090   30.2760 H   0  0  0  0  0  0  0  0  0  0  0  0
   35.9850   17.8860   31.4360 H   0  0  0  0  0  0  0  0  0  0  0  0
   34.1110   19.0360   32.5920 H   0  0  0  0  0  0  0  0  0  0  0  0
  1  2  1  0  0  0  0
  1  5  2  0  0  0  0
  2  3  2  0  0  0  0
  3  4  1  0  0  0  0
  3  7  1  0  0  0  0
  4 10  1  0  0  0  0
  5  4  1  0  0  0  0
  6  2  1  0  0  0  0
  9  8  1  0  0  0  0
  9 16  1  0  0  0  0
 10  9  2  0  0  0  0
 11 10  1  0  0  0  0
 11 13  2  0  0  0  0
 12 11  1  0  0  0  0
 13 15  1  0  0  0  0
 14 13  1  0  0  0  0
 15 16  2  0  0  0  0
 17 20  1  0  0  0  0
 17  1  1  0  0  0  0
 18 17  1  0  0  0  0
 19 17  1  0  0  0  0
 20 22  1  0  0  0  0
 21 20  1  0  0  0  0
 23 28  2  0  0  0  0
 23 24  1  0  0  0  0
 24 30  1  0  0  0  0
 24 25  2  0  0  0  0
 25 26  1  0  0  0  0
 25 31  1  0  0  0  0
 27 20  1  0  0  0  0
 27 26  2  0  0  0  0
 28 27  1  0  0  0  0
 29 23  1  0  0  0  0
M  END
>  <minimizedAffinity>
-5.14290762

$$$$

 OpenBabel03272501593D

 31 33  0  0  0  0  0  0  0  0999 V2000
   36.3260   28.4140   33.2260 C   0  0  0  0  0  0  0  0  0  0  0  0
   36.1320   29.4080   32.3090 C   0  0  0  0  0  0  0  0  0  0  0  0
   35.4530   30.4830   32.8630 C   0  0  0  0  0  0  0  0  0  0  0  0
   35.2570   30.0720   34.1500 N   0  0  0  0  0  0  0  0  0  0  0  0
   35.7650   28.8620   34.3680 N   0  0  0  0  0  0  0  0  0  0  0  0
   36.4450   29.4230   31.2580 H   0  0  0  0  0  0  0  0  0  0  0  0
   35.1230   31.4330   32.4650 H   0  0  0  0  0  0  0  0  0  0  0  0
   36.6440   31.7430   35.8550 F   0  0  0  0  0  0  0  0  0  0  0  0
   35.3150   31.5830   36.0790 C   0  0  0  0  0  0  0  0  0  0  0  0
   34.6100   30.7430   35.2250 C   0  0  0  0  0  0  0  0  0  0  0  0
   33.2430   30.5660   35.4390 C   0  0  0  0  0  0  0  0  0  0  0  0
   32.7010   29.9050   34.7630 H   0  0  0  0  0  0  0  0  0  0  0  0
   32.5730   31.2050   36.4820 C   0  0  0  0  0  0  0  0  0  0  0  0
   31.5080   31.0670   36.6480 H   0  0  0  0  0  0  0  0  0  0  0  0
   33.3080   32.0320   37.3080 C   0  0  0  0  0  3  0  0  0  0  0  0
   34.6660   32.2350   37.1310 C   0  0  0  0  0  3  0  0  0  0  0  0
   37.0200   27.1040   32.9890 C   0  0  0  0  0  0  0  0  0  0  0  0
   38.1080   27.2190   32.8640 H   0  0  0  0  0  0  0  0  0  0  0  0
   36.7820   26.4750   33.8790 H   0  0  0  0  0  0  0  0  0  0  0  0
   36.3440   26.4840   31.8010 C   0  0  0  0  0  0  0  0  0  0  0  0
   36.7730   26.8490   30.8260 H   0  0  0  0  0  0  0  0  0  0  0  0
   35.2520   26.7420   31.7900 H   0  0  0  0  0  0  0  0  0  0  0  0
   35.6220   22.8910   31.3460 C   0  0  0  0  0  0  0  0  0  0  0  0
   36.5730   22.2730   32.1620 C   0  0  0  0  0  0  0  0  0  0  0  0
   37.4650   23.1170   32.8680 C   0  0  0  0  0  0  0  0  0  0  0  0
   37.3510   24.4620   32.7200 N   0  0  0  0  0  0  0  0  0  0  0  0
   36.4040   24.9970   31.9120 C   0  0  0  0  0  0  0  0  0  0  0  0
   35.5700   24.2100   31.2510 N   0  0  0  0  0  0  0  0  0  0  0  0
   34.9790   22.1870   30.8400 H   0  0  0  0  0  0  0  0  0  0  0  0
   36.7430   21.2200   32.3450 H   0  0  0  0  0  0  0  0  0  0  0  0
   38.2500   22.7980   33.5340 H   0  0  0  0  0  0  0  0  0  0  0  0
  1  5  2  0  0  0  0
  2  3  2  0  0  0  0
  2  1  1  0  0  0  0
  3  4  1  0  0  0  0
  4  5  1  0  0  0  0
  4 10  1  0  0  0  0
  6  2  1  0  0  0  0
  7  3  1  0  0  0  0
  8  9  1  0  0  0  0
  9 16  1  0  0  0  0
 10 11  1  0  0  0  0
 10  9  2  0  0  0  0
 11 13  2  0  0  0  0
 12 11  1  0  0  0  0
 13 14  1  0  0  0  0
 13 15  1  0  0  0  0
 16 15  2  0  0  0  0
 17  1  1  0  0  0  0
 17 19  1  0  0  0  0
 18 17  1  0  0  0  0
 20 27  1  0  0  0  0
 20 17  1  0  0  0  0
 21 20  1  0  0  0  0
 22 20  1  0  0  0  0
 23 24  1  0  0  0  0
 24 30  1  0  0  0  0
 24 25  2  0  0  0  0
 25 31  1  0  0  0  0
 26 25  1  0  0  0  0
 27 26  2  0  0  0  0
 28 23  2  0  0  0  0
 28 27  1  0  0  0  0
 29 23  1  0  0  0  0
M  END
>  <minimizedAffinity>
-5.11134529

$$$$

 OpenBabel03272501593D

 31 33  0  0  0  0  0  0  0  0999 V2000
   36.8970   27.1960   34.2240 C   0  0  0  0  0  0  0  0  0  0  0  0
   37.0640   26.3280   33.1820 C   0  0  0  0  0  0  0  0  0  0  0  0
   37.6890   25.1600   33.5910 C   0  0  0  0  0  0  0  0  0  0  0  0
   37.8820   25.3840   34.9240 N   0  0  0  0  0  0  0  0  0  0  0  0
   37.4200   26.5740   35.3000 N   0  0  0  0  0  0  0  0  0  0  0  0
   36.7670   26.4690   32.1360 H   0  0  0  0  0  0  0  0  0  0  0  0
   37.9860   24.2590   33.0710 H   0  0  0  0  0  0  0  0  0  0  0  0
   40.3420   24.2030   34.5060 F   0  0  0  0  0  0  0  0  0  0  0  0
   39.7220   23.9550   35.6870 C   0  0  0  0  0  0  0  0  0  0  0  0
   38.4830   24.5460   35.9040 C   0  0  0  0  0  0  0  0  0  0  0  0
   37.8290   24.3040   37.1130 C   0  0  0  0  0  0  0  0  0  0  0  0
   36.8580   24.7720   37.2710 H   0  0  0  0  0  0  0  0  0  0  0  0
   38.3830   23.4880   38.0990 C   0  0  0  0  0  0  0  0  0  0  0  0
   37.8740   23.2990   39.0400 H   0  0  0  0  0  0  0  0  0  0  0  0
   39.6160   22.9200   37.8460 C   0  0  0  0  0  3  0  0  0  0  0  0
   40.2990   23.1350   36.6600 C   0  0  0  0  0  3  0  0  0  0  0  0
   36.2610   28.5550   34.1600 C   0  0  0  0  0  0  0  0  0  0  0  0
   35.2940   28.5940   34.6850 H   0  0  0  0  0  0  0  0  0  0  0  0
   36.9980   29.2520   34.6240 H   0  0  0  0  0  0  0  0  0  0  0  0
   36.1650   28.9010   32.7020 C   0  0  0  0  0  0  0  0  0  0  0  0
   36.3210   28.0040   32.0400 H   0  0  0  0  0  0  0  0  0  0  0  0
   36.9530   29.6500   32.4230 H   0  0  0  0  0  0  0  0  0  0  0  0
   32.5780   29.7750   32.7810 C   0  0  0  0  0  0  0  0  0  0  0  0
   32.4970   30.8510   31.8920 C   0  0  0  0  0  0  0  0  0  0  0  0
   33.6980   31.2660   31.2680 C   0  0  0  0  0  0  0  0  0  0  0  0
   34.8510   30.6090   31.5610 N   0  0  0  0  0  0  0  0  0  0  0  0
   34.8590   29.5720   32.4330 C   0  0  0  0  0  0  0  0  0  0  0  0
   33.7380   29.1820   33.0160 N   0  0  0  0  0  0  0  0  0  0  0  0
   31.6260   29.5150   33.2160 H   0  0  0  0  0  0  0  0  0  0  0  0
   31.6350   31.4350   31.5950 H   0  0  0  0  0  0  0  0  0  0  0  0
   33.8030   32.0740   30.5630 H   0  0  0  0  0  0  0  0  0  0  0  0
  1  5  2  0  0  0  0
  2  3  2  0  0  0  0
  2  1  1  0  0  0  0
  3  4  1  0  0  0  0
  4  5  1  0  0  0  0
  4 10  1  0  0  0  0
  6  2  1  0  0  0  0
  7  3  1  0  0  0  0
  8  9  1  0  0  0  0
  9 10  2  0  0  0  0
  9 16  1  0  0  0  0
 10 11  1  0  0  0  0
 11 12  1  0  0  0  0
 11 13  2  0  0  0  0
 13 14  1  0  0  0  0
 15 13  1  0  0  0  0
 16 15  2  0  0  0  0
 17  1  1  0  0  0  0
 17 19  1  0  0  0  0
 17 18  1  0  0  0  0
 20 17  1  0  0  0  0
 21 20  1  0  0  0  0
 22 20  1  0  0  0  0
 23 28  1  0  0  0  0
 23 29  1  0  0  0  0
 24 23  2  0  0  0  0
 25 26  2  0  0  0  0
 25 24  1  0  0  0  0
 26 27  1  0  0  0  0
 27 20  1  0  0  0  0
 27 28  2  0  0  0  0
 30 24  1  0  0  0  0
 31 25  1  0  0  0  0
M  END
>  <minimizedAffinity>
-4.95036888

$$$$

 OpenBabel03272501593D

 31 33  0  0  0  0  0  0  0  0999 V2000
   36.5550   27.7090   32.5420 C   0  0  0  0  0  0  0  0  0  0  0  0
   37.1260   27.1980   33.6730 C   0  0  0  0  0  0  0  0  0  0  0  0
   36.8020   27.9530   34.7900 C   0  0  0  0  0  0  0  0  0  0  0  0
   36.0120   28.9320   34.2600 N   0  0  0  0  0  0  0  0  0  0  0  0
   35.8650   28.7950   32.9450 N   0  0  0  0  0  0  0  0  0  0  0  0
   37.7670   26.3120   33.7620 H   0  0  0  0  0  0  0  0  0  0  0  0
   37.0550   27.8700   35.8380 H   0  0  0  0  0  0  0  0  0  0  0  0
   33.2610   29.1570   34.3110 F   0  0  0  0  0  0  0  0  0  0  0  0
   33.9790   30.1280   34.9290 C   0  0  0  0  0  0  0  0  0  0  0  0
   35.3650   30.0220   34.9070 C   0  0  0  0  0  0  0  0  0  0  0  0
   36.1220   31.0100   35.5370 C   0  0  0  0  0  0  0  0  0  0  0  0
   37.2070   30.9160   35.5130 H   0  0  0  0  0  0  0  0  0  0  0  0
   35.5260   32.0940   36.1820 C   0  0  0  0  0  0  0  0  0  0  0  0
   36.1150   32.8640   36.6720 H   0  0  0  0  0  0  0  0  0  0  0  0
   34.1470   32.1640   36.1830 C   0  0  0  0  0  3  0  0  0  0  0  0
   33.3590   31.2040   35.5690 C   0  0  0  0  0  3  0  0  0  0  0  0
   36.6840   27.1580   31.1510 C   0  0  0  0  0  0  0  0  0  0  0  0
   36.6600   27.9440   30.3810 H   0  0  0  0  0  0  0  0  0  0  0  0
   37.6560   26.6110   31.1360 H   0  0  0  0  0  0  0  0  0  0  0  0
   35.5900   26.1410   31.0020 C   0  0  0  0  0  0  0  0  0  0  0  0
   34.9690   26.3150   30.0790 H   0  0  0  0  0  0  0  0  0  0  0  0
   34.8870   26.1880   31.8760 H   0  0  0  0  0  0  0  0  0  0  0  0
   37.9460   23.3170   30.6830 C   0  0  0  0  0  0  0  0  0  0  0  0
   37.1860   22.2230   31.1060 C   0  0  0  0  0  0  0  0  0  0  0  0
   35.8510   22.4780   31.5030 C   0  0  0  0  0  0  0  0  0  0  0  0
   35.3840   23.7530   31.4510 N   0  0  0  0  0  0  0  0  0  0  0  0
   36.1750   24.7690   31.0290 C   0  0  0  0  0  0  0  0  0  0  0  0
   37.4230   24.5320   30.6590 N   0  0  0  0  0  0  0  0  0  0  0  0
   38.9510   23.0460   30.3980 H   0  0  0  0  0  0  0  0  0  0  0  0
   37.4640   21.1800   31.1830 H   0  0  0  0  0  0  0  0  0  0  0  0
   35.1390   21.7480   31.8510 H   0  0  0  0  0  0  0  0  0  0  0  0
  1  5  2  0  0  0  0
  1  2  1  0  0  0  0
  2  6  1  0  0  0  0
  2  3  2  0  0  0  0
  3  7  1  0  0  0  0
  4  3  1  0  0  0  0
  4 10  1  0  0  0  0
  5  4  1  0  0  0  0
  8  9  1  0  0  0  0
  9 16  1  0  0  0  0
 10  9  2  0  0  0  0
 10 11  1  0  0  0  0
 11 13  2  0  0  0  0
 12 11  1  0  0  0  0
 13 15  1  0  0  0  0
 13 14  1  0  0  0  0
 16 15  2  0  0  0  0
 17  1  1  0  0  0  0
 18 17  1  0  0  0  0
 19 17  1  0  0  0  0
 20 27  1  0  0  0  0
 20 17  1  0  0  0  0
 20 22  1  0  0  0  0
 21 20  1  0  0  0  0
 23 24  1  0  0  0  0
 24 30  1  0  0  0  0
 24 25  2  0  0  0  0
 25 31  1  0  0  0  0
 26 25  1  0  0  0  0
 27 26  2  0  0  0  0
 28 23  2  0  0  0  0
 28 27  1  0  0  0  0
 29 23  1  0  0  0  0
M  END
>  <minimizedAffinity>
-4.89886284

$$$$

 OpenBabel03272501593D

 31 33  0  0  0  0  0  0  0  0999 V2000
   37.9970   25.2820   35.1010 C   0  0  0  0  0  0  0  0  0  0  0  0
   38.2970   26.3110   35.9480 C   0  0  0  0  0  0  0  0  0  0  0  0
   37.9480   27.5360   35.4020 C   0  0  0  0  0  0  0  0  0  0  0  0
   37.4290   27.1780   34.1910 N   0  0  0  0  0  0  0  0  0  0  0  0
   37.4550   25.8600   34.0090 N   0  0  0  0  0  0  0  0  0  0  0  0
   38.7520   26.2500   36.9440 H   0  0  0  0  0  0  0  0  0  0  0  0
   38.0250   28.5540   35.7590 H   0  0  0  0  0  0  0  0  0  0  0  0
   35.1960   28.7500   34.6020 F   0  0  0  0  0  0  0  0  0  0  0  0
   35.7700   28.7860   33.3720 C   0  0  0  0  0  0  0  0  0  0  0  0
   36.8930   27.9970   33.1580 C   0  0  0  0  0  0  0  0  0  0  0  0
   37.4980   28.0210   31.9010 C   0  0  0  0  0  0  0  0  0  0  0  0
   38.3780   27.3980   31.7450 H   0  0  0  0  0  0  0  0  0  0  0  0
   37.0040   28.8090   30.8620 C   0  0  0  0  0  0  0  0  0  0  0  0
   37.4740   28.8270   29.8820 H   0  0  0  0  0  0  0  0  0  0  0  0
   35.8860   29.5790   31.1140 C   0  0  0  0  0  3  0  0  0  0  0  0
   35.2560   29.5850   32.3480 C   0  0  0  0  0  3  0  0  0  0  0  0
   38.2320   23.8210   35.3530 C   0  0  0  0  0  0  0  0  0  0  0  0
   37.3170   23.2190   35.2390 H   0  0  0  0  0  0  0  0  0  0  0  0
   39.0100   23.5120   34.6150 H   0  0  0  0  0  0  0  0  0  0  0  0
   38.8430   23.7280   36.7210 C   0  0  0  0  0  0  0  0  0  0  0  0
   38.1870   23.1650   37.4430 H   0  0  0  0  0  0  0  0  0  0  0  0
   38.9960   24.7510   37.1550 H   0  0  0  0  0  0  0  0  0  0  0  0
   42.3460   23.0990   35.7390 C   0  0  0  0  0  0  0  0  0  0  0  0
   42.6850   21.9680   36.4870 C   0  0  0  0  0  0  0  0  0  0  0  0
   41.6850   21.4300   37.3340 C   0  0  0  0  0  0  0  0  0  0  0  0
   40.4670   22.0300   37.3740 N   0  0  0  0  0  0  0  0  0  0  0  0
   40.2040   23.1250   36.6210 C   0  0  0  0  0  0  0  0  0  0  0  0
   41.1370   23.6290   35.8300 N   0  0  0  0  0  0  0  0  0  0  0  0
   43.1560   23.4510   35.1190 H   0  0  0  0  0  0  0  0  0  0  0  0
   43.6180   21.4210   36.5250 H   0  0  0  0  0  0  0  0  0  0  0  0
   41.7870   20.5660   37.9700 H   0  0  0  0  0  0  0  0  0  0  0  0
  1 17  1  0  0  0  0
  1  2  1  0  0  0  0
  2  6  1  0  0  0  0
  3  7  1  0  0  0  0
  3  2  2  0  0  0  0
  4  3  1  0  0  0  0
  5  4  1  0  0  0  0
  5  1  2  0  0  0  0
  9  8  1  0  0  0  0
 10  9  1  0  0  0  0
 10  4  1  0  0  0  0
 11 10  2  0  0  0  0
 12 11  1  0  0  0  0
 13 15  2  0  0  0  0
 13 11  1  0  0  0  0
 14 13  1  0  0  0  0
 15 16  1  0  0  0  0
 16  9  2  0  0  0  0
 17 20  1  0  0  0  0
 18 17  1  0  0  0  0
 19 17  1  0  0  0  0
 20 22  1  0  0  0  0
 20 21  1  0  0  0  0
 23 28  2  0  0  0  0
 23 24  1  0  0  0  0
 24 30  1  0  0  0  0
 24 25  2  0  0  0  0
 25 26  1  0  0  0  0
 25 31  1  0  0  0  0
 27 20  1  0  0  0  0
 27 26  2  0  0  0  0
 28 27  1  0  0  0  0
 29 23  1  0  0  0  0
M  END
>  <minimizedAffinity>
-4.89013004

$$$$
