
 OpenBabel03272509423D

 38 40  0  0  1  0  0  0  0  0999 V2000
   37.0250   30.9110   49.0830 C   0  0  0  0  0  0  0  0  0  0  0  0
   36.7070   31.8210   50.0940 C   0  0  0  0  0  0  0  0  0  0  0  0
   37.2780   33.0810   50.1500 C   0  0  0  0  0  0  0  0  0  0  0  0
   38.2010   33.4610   49.1690 C   0  0  0  0  0  0  0  0  0  0  0  0
   38.5040   32.5620   48.1860 C   0  0  0  0  0  0  0  0  0  0  0  0
   37.9110   31.3080   48.1640 C   0  0  0  0  0  0  0  0  0  0  0  0
   35.9870   31.5190   50.8550 H   0  0  0  0  0  0  0  0  0  0  0  0
   36.9740   33.7060   50.9590 H   0  0  0  0  0  0  0  0  0  0  0  0
   38.5830   34.4450   49.2980 H   0  0  0  0  0  0  0  0  0  0  0  0
   39.2320   32.9990   47.5040 H   0  0  0  0  0  0  0  0  0  0  0  0
   36.4530   29.5820   49.0440 C   0  0  2  0  0  0  0  0  0  0  0  0
   36.9550   29.0620   48.1400 H   0  0  0  0  0  0  0  0  0  0  0  0
   33.5970   29.9100   46.8210 C   0  0  0  0  0  0  0  0  0  0  0  0
   32.8490   28.7710   47.0670 C   0  0  0  0  0  0  0  0  0  0  0  0
   33.2890   27.9040   48.0490 C   0  0  0  0  0  0  0  0  0  0  0  0
   34.4430   28.1970   48.7410 N   0  0  0  0  0  0  0  0  0  0  0  0
   35.1110   29.2950   48.4600 C   0  0  0  0  0  0  0  0  0  0  0  0
   34.6970   30.1580   47.5030 N   0  0  0  0  0  0  0  0  0  0  0  0
   33.2190   30.5640   46.0440 H   0  0  0  0  0  0  0  0  0  0  0  0
   31.9410   28.4600   46.5810 H   0  0  0  0  0  0  0  0  0  0  0  0
   32.8300   26.9670   48.3770 H   0  0  0  0  0  0  0  0  0  0  0  0
   36.9360   28.8110   49.9510 O   0  0  0  0  0  0  0  0  0  0  0  0
   36.7170   28.9100   50.9070 H   0  0  0  0  0  0  0  0  0  0  0  0
   38.3450   30.4470   47.0870 C   0  0  0  0  0  3  0  0  0  0  0  0
   38.6090   30.8770   45.8490 C   0  0  0  0  0  3  0  0  0  0  0  0
   39.0990   30.0940   44.6900 C   0  0  0  0  0  0  0  0  0  0  0  0
   38.3100   29.8520   43.9590 H   0  0  0  0  0  0  0  0  0  0  0  0
   39.4750   29.0950   45.0570 H   0  0  0  0  0  0  0  0  0  0  0  0
   40.5000   30.9360   43.9450 S   0  0  0  0  0  0  0  0  0  0  0  0
   39.6270   32.2140   41.4760 F   0  0  0  0  0  0  0  0  0  0  0  0
   40.2980   31.0630   41.3050 C   0  0  0  0  0  0  0  0  0  0  0  0
   40.8200   30.2620   42.3240 C   0  0  0  0  0  0  0  0  0  0  0  0
   41.4910   29.1010   42.0060 C   0  0  0  0  0  0  0  0  0  0  0  0
   41.8500   28.5630   42.8580 H   0  0  0  0  0  0  0  0  0  0  0  0
   41.6420   28.7370   40.6840 C   0  0  0  0  0  0  0  0  0  0  0  0
   42.1620   27.8370   40.4650 H   0  0  0  0  0  0  0  0  0  0  0  0
   41.1280   29.5200   39.6460 C   0  0  0  0  0  3  0  0  0  0  0  0
   40.4630   30.6740   39.9780 C   0  0  0  0  0  3  0  0  0  0  0  0
  1  2  1  0  0  0  0
  2  3  2  0  0  0  0
  2  7  1  0  0  0  0
  3  8  1  0  0  0  0
  4  9  1  0  0  0  0
  4  3  1  0  0  0  0
  5  4  2  0  0  0  0
  6  5  1  0  0  0  0
  6  1  2  0  0  0  0
 10  5  1  0  0  0  0
 11 12  1  6  0  0  0
 11  1  1  0  0  0  0
 11 22  1  0  0  0  0
 13 14  2  0  0  0  0
 13 18  1  0  0  0  0
 14 15  1  0  0  0  0
 15 21  1  0  0  0  0
 15 16  2  0  0  0  0
 17 16  1  0  0  0  0
 17 11  1  0  0  0  0
 18 17  2  0  0  0  0
 19 13  1  0  0  0  0
 20 14  1  0  0  0  0
 22 23  1  0  0  0  0
 24  6  1  0  0  0  0
 25 24  2  0  0  0  0
 26 28  1  0  0  0  0
 26 25  1  0  0  0  0
 27 26  1  0  0  0  0
 29 26  1  0  0  0  0
 31 30  1  0  0  0  0
 31 32  1  0  0  0  0
 32 29  1  0  0  0  0
 33 32  2  0  0  0  0
 33 34  1  0  0  0  0
 35 33  1  0  0  0  0
 36 35  1  0  0  0  0
 37 38  1  0  0  0  0
 37 35  2  0  0  0  0
 38 31  2  0  0  0  0
M  END
>  <minimizedAffinity>
-6.17019558

>  <minimizedRMSD>
0.978497982

$$$$
