
 OpenBabel03272509423D

 38 40  0  0  1  0  0  0  0  0999 V2000
   37.0210   30.9120   49.0900 C   0  0  0  0  0  0  0  0  0  0  0  0
   36.7000   31.8220   50.0990 C   0  0  0  0  0  0  0  0  0  0  0  0
   37.2700   33.0830   50.1550 C   0  0  0  0  0  0  0  0  0  0  0  0
   38.1960   33.4620   49.1770 C   0  0  0  0  0  0  0  0  0  0  0  0
   38.5030   32.5630   48.1950 C   0  0  0  0  0  0  0  0  0  0  0  0
   37.9100   31.3080   48.1730 C   0  0  0  0  0  0  0  0  0  0  0  0
   35.9780   31.5220   50.8570 H   0  0  0  0  0  0  0  0  0  0  0  0
   36.9630   33.7090   50.9620 H   0  0  0  0  0  0  0  0  0  0  0  0
   38.5770   34.4470   49.3050 H   0  0  0  0  0  0  0  0  0  0  0  0
   39.2330   32.9990   47.5160 H   0  0  0  0  0  0  0  0  0  0  0  0
   36.4510   29.5820   49.0500 C   0  0  2  0  0  0  0  0  0  0  0  0
   36.9540   29.0630   48.1480 H   0  0  0  0  0  0  0  0  0  0  0  0
   33.5970   29.9080   46.8240 C   0  0  0  0  0  0  0  0  0  0  0  0
   32.8500   28.7690   47.0690 C   0  0  0  0  0  0  0  0  0  0  0  0
   33.2880   27.9020   48.0510 C   0  0  0  0  0  0  0  0  0  0  0  0
   34.4410   28.1960   48.7450 N   0  0  0  0  0  0  0  0  0  0  0  0
   35.1100   29.2950   48.4640 C   0  0  0  0  0  0  0  0  0  0  0  0
   34.6960   30.1570   47.5070 N   0  0  0  0  0  0  0  0  0  0  0  0
   33.2200   30.5620   46.0460 H   0  0  0  0  0  0  0  0  0  0  0  0
   31.9430   28.4570   46.5820 H   0  0  0  0  0  0  0  0  0  0  0  0
   32.8300   26.9650   48.3790 H   0  0  0  0  0  0  0  0  0  0  0  0
   36.9330   28.8120   49.9590 O   0  0  0  0  0  0  0  0  0  0  0  0
   36.7120   28.9110   50.9140 H   0  0  0  0  0  0  0  0  0  0  0  0
   38.3480   30.4460   47.0990 C   0  0  0  0  0  3  0  0  0  0  0  0
   38.5790   30.8670   45.8510 C   0  0  0  0  0  3  0  0  0  0  0  0
   39.0690   30.0850   44.6920 C   0  0  0  0  0  0  0  0  0  0  0  0
   38.2830   29.8560   43.9540 H   0  0  0  0  0  0  0  0  0  0  0  0
   39.4290   29.0790   45.0580 H   0  0  0  0  0  0  0  0  0  0  0  0
   40.4860   30.9120   43.9640 S   0  0  0  0  0  0  0  0  0  0  0  0
   41.9590   29.0240   42.3020 F   0  0  0  0  0  0  0  0  0  0  0  0
   41.1690   29.8730   41.6230 C   0  0  0  0  0  0  0  0  0  0  0  0
   40.3650   30.8680   42.1840 C   0  0  0  0  0  0  0  0  0  0  0  0
   39.6010   31.6730   41.3670 C   0  0  0  0  0  0  0  0  0  0  0  0
   39.0240   32.4010   41.8960 H   0  0  0  0  0  0  0  0  0  0  0  0
   39.6360   31.4900   39.9990 C   0  0  0  0  0  0  0  0  0  0  0  0
   39.0370   32.1230   39.3910 H   0  0  0  0  0  0  0  0  0  0  0  0
   40.4320   30.5020   39.4140 C   0  0  0  0  0  3  0  0  0  0  0  0
   41.1870   29.7070   40.2400 C   0  0  0  0  0  3  0  0  0  0  0  0
  1  2  1  0  0  0  0
  2  3  2  0  0  0  0
  2  7  1  0  0  0  0
  3  8  1  0  0  0  0
  4  9  1  0  0  0  0
  4  3  1  0  0  0  0
  5  4  2  0  0  0  0
  6  5  1  0  0  0  0
  6  1  2  0  0  0  0
 10  5  1  0  0  0  0
 11 12  1  6  0  0  0
 11  1  1  0  0  0  0
 11 22  1  0  0  0  0
 13 14  2  0  0  0  0
 13 18  1  0  0  0  0
 14 15  1  0  0  0  0
 15 21  1  0  0  0  0
 15 16  2  0  0  0  0
 17 16  1  0  0  0  0
 17 11  1  0  0  0  0
 18 17  2  0  0  0  0
 19 13  1  0  0  0  0
 20 14  1  0  0  0  0
 22 23  1  0  0  0  0
 24  6  1  0  0  0  0
 25 24  2  0  0  0  0
 26 28  1  0  0  0  0
 26 25  1  0  0  0  0
 27 26  1  0  0  0  0
 29 26  1  0  0  0  0
 31 32  1  0  0  0  0
 31 30  1  0  0  0  0
 32 29  1  0  0  0  0
 33 34  1  0  0  0  0
 33 32  2  0  0  0  0
 35 33  1  0  0  0  0
 36 35  1  0  0  0  0
 37 35  2  0  0  0  0
 37 38  1  0  0  0  0
 38 31  2  0  0  0  0
M  END
>  <minimizedAffinity>
-6.07611036

>  <minimizedRMSD>
0.96507287

$$$$
