
 OpenBabel03272509443D

 38 40  0  0  1  0  0  0  0  0999 V2000
   36.4060   28.3000   31.8780 C   0  0  0  0  0  0  0  0  0  0  0  0
   35.4580   29.3270   31.8810 C   0  0  0  0  0  0  0  0  0  0  0  0
   34.9930   29.8890   33.0580 C   0  0  0  0  0  0  0  0  0  0  0  0
   35.4820   29.4210   34.2830 C   0  0  0  0  0  0  0  0  0  0  0  0
   36.4080   28.4170   34.2670 C   0  0  0  0  0  0  0  0  0  0  0  0
   36.8500   27.8790   33.0670 C   0  0  0  0  0  0  0  0  0  0  0  0
   35.0820   29.6870   30.9240 H   0  0  0  0  0  0  0  0  0  0  0  0
   34.2700   30.6670   32.9610 H   0  0  0  0  0  0  0  0  0  0  0  0
   35.0660   29.9150   35.1280 H   0  0  0  0  0  0  0  0  0  0  0  0
   36.6880   28.1630   35.2880 H   0  0  0  0  0  0  0  0  0  0  0  0
   36.8670   27.6900   30.6500 C   0  0  2  0  0  0  0  0  0  0  0  0
   37.6090   26.8670   30.9800 H   0  0  0  0  0  0  0  0  0  0  0  0
   38.3210   29.6950   27.9910 C   0  0  0  0  0  0  0  0  0  0  0  0
   39.6710   29.7260   28.2950 C   0  0  0  0  0  0  0  0  0  0  0  0
   40.1080   29.0020   29.3880 C   0  0  0  0  0  0  0  0  0  0  0  0
   39.1970   28.2850   30.1310 N   0  0  0  0  0  0  0  0  0  0  0  0
   37.9250   28.2970   29.7920 C   0  0  0  0  0  0  0  0  0  0  0  0
   37.4770   28.9970   28.7240 N   0  0  0  0  0  0  0  0  0  0  0  0
   38.0190   30.2740   27.1260 H   0  0  0  0  0  0  0  0  0  0  0  0
   40.4530   30.2530   27.7780 H   0  0  0  0  0  0  0  0  0  0  0  0
   41.1280   28.9090   29.7730 H   0  0  0  0  0  0  0  0  0  0  0  0
   35.9900   26.9060   30.1300 O   0  0  0  0  0  0  0  0  0  0  0  0
   35.1710   27.2370   29.6940 H   0  0  0  0  0  0  0  0  0  0  0  0
   37.8050   26.8020   33.1960 C   0  0  0  0  0  3  0  0  0  0  0  0
   39.0210   26.9450   33.7360 C   0  0  0  0  0  3  0  0  0  0  0  0
   40.0560   25.9080   33.9570 C   0  0  0  0  0  0  0  0  0  0  0  0
   40.7470   26.1480   34.7810 H   0  0  0  0  0  0  0  0  0  0  0  0
   40.7070   25.8420   33.0370 H   0  0  0  0  0  0  0  0  0  0  0  0
   39.2700   24.3060   34.1540 S   0  0  0  0  0  0  0  0  0  0  0  0
   37.2760   25.3360   36.0130 F   0  0  0  0  0  0  0  0  0  0  0  0
   38.1680   24.4920   36.5580 C   0  0  0  0  0  0  0  0  0  0  0  0
   39.2180   23.8650   35.8820 C   0  0  0  0  0  0  0  0  0  0  0  0
   40.0640   23.0170   36.5660 C   0  0  0  0  0  0  0  0  0  0  0  0
   40.8330   22.5910   35.9570 H   0  0  0  0  0  0  0  0  0  0  0  0
   39.8680   22.7960   37.9140 C   0  0  0  0  0  0  0  0  0  0  0  0
   40.5330   22.1380   38.4180 H   0  0  0  0  0  0  0  0  0  0  0  0
   38.8240   23.4110   38.6130 C   0  0  0  0  0  3  0  0  0  0  0  0
   37.9900   24.2520   37.9180 C   0  0  0  0  0  3  0  0  0  0  0  0
  1  2  2  0  0  0  0
  1  6  1  0  0  0  0
  2  3  1  0  0  0  0
  3  4  2  0  0  0  0
  4  9  1  0  0  0  0
  5  4  1  0  0  0  0
  5 10  1  0  0  0  0
  6 24  1  0  0  0  0
  6  5  2  0  0  0  0
  7  2  1  0  0  0  0
  8  3  1  0  0  0  0
 11 12  1  1  0  0  0
 11  1  1  0  0  0  0
 13 14  2  0  0  0  0
 13 18  1  0  0  0  0
 14 15  1  0  0  0  0
 15 21  1  0  0  0  0
 15 16  2  0  0  0  0
 17 16  1  0  0  0  0
 17 11  1  0  0  0  0
 18 17  2  0  0  0  0
 19 13  1  0  0  0  0
 20 14  1  0  0  0  0
 22 11  1  0  0  0  0
 23 22  1  0  0  0  0
 24 25  2  0  0  0  0
 25 26  1  0  0  0  0
 26 29  1  0  0  0  0
 26 27  1  0  0  0  0
 28 26  1  0  0  0  0
 29 32  1  0  0  0  0
 30 31  1  0  0  0  0
 31 38  1  0  0  0  0
 32 31  2  0  0  0  0
 32 33  1  0  0  0  0
 33 35  2  0  0  0  0
 34 33  1  0  0  0  0
 35 36  1  0  0  0  0
 35 37  1  0  0  0  0
 38 37  2  0  0  0  0
M  END
>  <minimizedAffinity>
-5.94207096

$$$$

 OpenBabel03272509443D

 38 40  0  0  1  0  0  0  0  0999 V2000
   36.1530   27.6920   32.1060 C   0  0  0  0  0  0  0  0  0  0  0  0
   35.0410   28.5350   32.1720 C   0  0  0  0  0  0  0  0  0  0  0  0
   34.7590   29.2840   33.3020 C   0  0  0  0  0  0  0  0  0  0  0  0
   35.6060   29.2000   34.4120 C   0  0  0  0  0  0  0  0  0  0  0  0
   36.6900   28.3720   34.3350 C   0  0  0  0  0  0  0  0  0  0  0  0
   36.9410   27.6370   33.1860 C   0  0  0  0  0  0  0  0  0  0  0  0
   34.3860   28.5960   31.3050 H   0  0  0  0  0  0  0  0  0  0  0  0
   33.8880   29.8990   33.2600 H   0  0  0  0  0  0  0  0  0  0  0  0
   35.3060   29.8120   35.2290 H   0  0  0  0  0  0  0  0  0  0  0  0
   37.2470   28.4130   35.2690 H   0  0  0  0  0  0  0  0  0  0  0  0
   36.4310   26.8830   30.9380 C   0  0  2  0  0  0  0  0  0  0  0  0
   35.4440   26.8710   30.3360 H   0  0  0  0  0  0  0  0  0  0  0  0
   37.7390   23.4980   30.7480 C   0  0  0  0  0  0  0  0  0  0  0  0
   36.7150   22.7150   31.2520 C   0  0  0  0  0  0  0  0  0  0  0  0
   35.5340   23.3380   31.6070 C   0  0  0  0  0  0  0  0  0  0  0  0
   35.4170   24.7010   31.4510 N   0  0  0  0  0  0  0  0  0  0  0  0
   36.4270   25.3920   30.9670 C   0  0  0  0  0  0  0  0  0  0  0  0
   37.5910   24.8010   30.6120 N   0  0  0  0  0  0  0  0  0  0  0  0
   38.6480   22.9720   30.4810 H   0  0  0  0  0  0  0  0  0  0  0  0
   36.7150   21.6510   31.4100 H   0  0  0  0  0  0  0  0  0  0  0  0
   34.6270   22.8840   32.0170 H   0  0  0  0  0  0  0  0  0  0  0  0
   37.1370   27.5060   30.0640 O   0  0  0  0  0  0  0  0  0  0  0  0
   38.0940   27.7030   30.1930 H   0  0  0  0  0  0  0  0  0  0  0  0
   38.1020   26.7790   33.2510 C   0  0  0  0  0  3  0  0  0  0  0  0
   39.1780   27.0370   34.0010 C   0  0  0  0  0  3  0  0  0  0  0  0
   40.3960   26.2110   34.1760 C   0  0  0  0  0  0  0  0  0  0  0  0
   41.0340   26.5430   35.0120 H   0  0  0  0  0  0  0  0  0  0  0  0
   41.0420   26.3130   33.2550 H   0  0  0  0  0  0  0  0  0  0  0  0
   39.9360   24.4800   34.2990 S   0  0  0  0  0  0  0  0  0  0  0  0
   41.2250   22.5930   36.1070 F   0  0  0  0  0  0  0  0  0  0  0  0
   40.1270   23.1880   36.6050 C   0  0  0  0  0  0  0  0  0  0  0  0
   39.3350   24.1270   35.9410 C   0  0  0  0  0  0  0  0  0  0  0  0
   38.2310   24.6610   36.5730 C   0  0  0  0  0  0  0  0  0  0  0  0
   37.6940   25.3690   35.9770 H   0  0  0  0  0  0  0  0  0  0  0  0
   37.9180   24.2640   37.8560 C   0  0  0  0  0  0  0  0  0  0  0  0
   37.0630   24.6900   38.3210 H   0  0  0  0  0  0  0  0  0  0  0  0
   38.6960   23.3250   38.5420 C   0  0  0  0  0  3  0  0  0  0  0  0
   39.7910   22.8030   37.9000 C   0  0  0  0  0  3  0  0  0  0  0  0
  1  2  2  0  0  0  0
  1  6  1  0  0  0  0
  2  3  1  0  0  0  0
  3  4  2  0  0  0  0
  4  9  1  0  0  0  0
  5  4  1  0  0  0  0
  5 10  1  0  0  0  0
  6 24  1  0  0  0  0
  6  5  2  0  0  0  0
  7  2  1  0  0  0  0
  8  3  1  0  0  0  0
 11 12  1  6  0  0  0
 11 17  1  0  0  0  0
 11  1  1  0  0  0  0
 13 14  1  0  0  0  0
 14 20  1  0  0  0  0
 14 15  2  0  0  0  0
 15 21  1  0  0  0  0
 16 15  1  0  0  0  0
 17 16  2  0  0  0  0
 18 13  2  0  0  0  0
 18 17  1  0  0  0  0
 19 13  1  0  0  0  0
 22 23  1  0  0  0  0
 22 11  1  0  0  0  0
 24 25  2  0  0  0  0
 25 26  1  0  0  0  0
 26 29  1  0  0  0  0
 26 27  1  0  0  0  0
 28 26  1  0  0  0  0
 29 32  1  0  0  0  0
 30 31  1  0  0  0  0
 31 38  1  0  0  0  0
 32 33  1  0  0  0  0
 32 31  2  0  0  0  0
 33 35  2  0  0  0  0
 34 33  1  0  0  0  0
 35 36  1  0  0  0  0
 35 37  1  0  0  0  0
 38 37  2  0  0  0  0
M  END
>  <minimizedAffinity>
-5.93224382

$$$$

 OpenBabel03272509443D

 38 40  0  0  1  0  0  0  0  0999 V2000
   37.4880   21.8810   33.4260 C   0  0  0  0  0  0  0  0  0  0  0  0
   36.4380   20.9700   33.5640 C   0  0  0  0  0  0  0  0  0  0  0  0
   35.3050   21.0340   32.7710 C   0  0  0  0  0  0  0  0  0  0  0  0
   35.2010   22.0380   31.8010 C   0  0  0  0  0  0  0  0  0  0  0  0
   36.2340   22.9230   31.6760 C   0  0  0  0  0  0  0  0  0  0  0  0
   37.3540   22.8270   32.4890 C   0  0  0  0  0  0  0  0  0  0  0  0
   36.5260   20.1900   34.3200 H   0  0  0  0  0  0  0  0  0  0  0  0
   34.5570   20.2960   32.9490 H   0  0  0  0  0  0  0  0  0  0  0  0
   34.2960   22.0040   31.2440 H   0  0  0  0  0  0  0  0  0  0  0  0
   36.0070   23.6390   30.8880 H   0  0  0  0  0  0  0  0  0  0  0  0
   38.6580   21.8340   34.2770 C   0  0  2  0  0  0  0  0  0  0  0  0
   38.6930   20.7530   34.6860 H   0  0  0  0  0  0  0  0  0  0  0  0
   39.9560   22.6630   37.5680 C   0  0  0  0  0  0  0  0  0  0  0  0
   38.9900   23.4930   38.1100 C   0  0  0  0  0  0  0  0  0  0  0  0
   37.8460   23.7280   37.3710 C   0  0  0  0  0  0  0  0  0  0  0  0
   37.7080   23.1380   36.1350 N   0  0  0  0  0  0  0  0  0  0  0  0
   38.6640   22.3600   35.6730 C   0  0  0  0  0  0  0  0  0  0  0  0
   39.7900   22.1160   36.3810 N   0  0  0  0  0  0  0  0  0  0  0  0
   40.8380   22.5040   38.1780 H   0  0  0  0  0  0  0  0  0  0  0  0
   39.0090   23.9960   39.0610 H   0  0  0  0  0  0  0  0  0  0  0  0
   36.9850   24.3480   37.6380 H   0  0  0  0  0  0  0  0  0  0  0  0
   39.7520   21.7810   33.6060 O   0  0  0  0  0  0  0  0  0  0  0  0
   40.1100   22.5500   33.1060 H   0  0  0  0  0  0  0  0  0  0  0  0
   38.3560   23.8450   32.2720 C   0  0  0  0  0  3  0  0  0  0  0  0
   38.5560   24.4550   31.0990 C   0  0  0  0  0  3  0  0  0  0  0  0
   39.5180   25.5360   30.7780 C   0  0  0  0  0  0  0  0  0  0  0  0
   39.8160   25.5570   29.7170 H   0  0  0  0  0  0  0  0  0  0  0  0
   40.4750   25.3540   31.3480 H   0  0  0  0  0  0  0  0  0  0  0  0
   38.8660   27.1100   31.3470 S   0  0  0  0  0  0  0  0  0  0  0  0
   36.3350   27.3680   32.7680 F   0  0  0  0  0  0  0  0  0  0  0  0
   37.4130   27.2430   33.5610 C   0  0  0  0  0  0  0  0  0  0  0  0
   38.7340   27.1040   33.1260 C   0  0  0  0  0  0  0  0  0  0  0  0
   39.7500   26.9830   34.0520 C   0  0  0  0  0  0  0  0  0  0  0  0
   40.7210   26.8830   33.6150 H   0  0  0  0  0  0  0  0  0  0  0  0
   39.4550   27.0010   35.3990 C   0  0  0  0  0  0  0  0  0  0  0  0
   40.2550   26.9060   36.0920 H   0  0  0  0  0  0  0  0  0  0  0  0
   38.1410   27.1390   35.8590 C   0  0  0  0  0  3  0  0  0  0  0  0
   37.1410   27.2580   34.9260 C   0  0  0  0  0  3  0  0  0  0  0  0
  1  2  1  0  0  0  0
  1 11  1  0  0  0  0
  2  7  1  0  0  0  0
  3  8  1  0  0  0  0
  3  2  2  0  0  0  0
  4  3  1  0  0  0  0
  5  4  2  0  0  0  0
  5  6  1  0  0  0  0
  6  1  2  0  0  0  0
  9  4  1  0  0  0  0
 10  5  1  0  0  0  0
 11 12  1  1  0  0  0
 11 17  1  0  0  0  0
 13 14  1  0  0  0  0
 13 19  1  0  0  0  0
 14 20  1  0  0  0  0
 15 21  1  0  0  0  0
 15 14  2  0  0  0  0
 16 15  1  0  0  0  0
 17 16  2  0  0  0  0
 17 18  1  0  0  0  0
 18 13  2  0  0  0  0
 22 11  1  0  0  0  0
 23 22  1  0  0  0  0
 24  6  1  0  0  0  0
 25 24  2  0  0  0  0
 26 25  1  0  0  0  0
 26 29  1  0  0  0  0
 26 28  1  0  0  0  0
 27 26  1  0  0  0  0
 29 32  1  0  0  0  0
 30 31  1  0  0  0  0
 31 38  1  0  0  0  0
 32 31  2  0  0  0  0
 32 33  1  0  0  0  0
 33 35  2  0  0  0  0
 34 33  1  0  0  0  0
 35 37  1  0  0  0  0
 35 36  1  0  0  0  0
 38 37  2  0  0  0  0
M  END
>  <minimizedAffinity>
-5.84333897

$$$$

 OpenBabel03272509443D

 38 40  0  0  1  0  0  0  0  0999 V2000
   36.7440   28.1310   32.2780 C   0  0  0  0  0  0  0  0  0  0  0  0
   36.2640   29.1050   31.4000 C   0  0  0  0  0  0  0  0  0  0  0  0
   35.5250   30.1890   31.8440 C   0  0  0  0  0  0  0  0  0  0  0  0
   35.2470   30.3180   33.2100 C   0  0  0  0  0  0  0  0  0  0  0  0
   35.7220   29.3580   34.0580 C   0  0  0  0  0  0  0  0  0  0  0  0
   36.4590   28.2870   33.5760 C   0  0  0  0  0  0  0  0  0  0  0  0
   36.4850   29.0000   30.3390 H   0  0  0  0  0  0  0  0  0  0  0  0
   35.2010   30.8810   31.1000 H   0  0  0  0  0  0  0  0  0  0  0  0
   34.6740   31.1810   33.4520 H   0  0  0  0  0  0  0  0  0  0  0  0
   35.4250   29.5940   35.0780 H   0  0  0  0  0  0  0  0  0  0  0  0
   37.4880   26.9810   31.8110 C   0  0  2  0  0  0  0  0  0  0  0  0
   37.3480   26.9740   30.6630 H   0  0  0  0  0  0  0  0  0  0  0  0
   35.2830   24.1700   31.1440 C   0  0  0  0  0  0  0  0  0  0  0  0
   35.9760   23.0770   31.6340 C   0  0  0  0  0  0  0  0  0  0  0  0
   37.1880   23.3030   32.2580 C   0  0  0  0  0  0  0  0  0  0  0  0
   37.6610   24.5910   32.3690 N   0  0  0  0  0  0  0  0  0  0  0  0
   36.9560   25.5900   31.8810 C   0  0  0  0  0  0  0  0  0  0  0  0
   35.7660   25.3900   31.2680 N   0  0  0  0  0  0  0  0  0  0  0  0
   34.3370   23.9520   30.6610 H   0  0  0  0  0  0  0  0  0  0  0  0
   35.6890   22.0420   31.5930 H   0  0  0  0  0  0  0  0  0  0  0  0
   37.8650   22.5680   32.7030 H   0  0  0  0  0  0  0  0  0  0  0  0
   38.7570   27.1830   31.8090 O   0  0  0  0  0  0  0  0  0  0  0  0
   39.2910   27.2300   32.6350 H   0  0  0  0  0  0  0  0  0  0  0  0
   36.8720   27.3300   34.5770 C   0  0  0  0  0  3  0  0  0  0  0  0
   37.9050   27.5160   35.4050 C   0  0  0  0  0  3  0  0  0  0  0  0
   38.3850   26.6280   36.4900 C   0  0  0  0  0  0  0  0  0  0  0  0
   38.0580   26.9460   37.4940 H   0  0  0  0  0  0  0  0  0  0  0  0
   39.5130   26.6700   36.5230 H   0  0  0  0  0  0  0  0  0  0  0  0
   37.9380   24.9290   36.1190 S   0  0  0  0  0  0  0  0  0  0  0  0
   40.2560   24.8000   34.3580 F   0  0  0  0  0  0  0  0  0  0  0  0
   40.3140   23.9820   35.4230 C   0  0  0  0  0  0  0  0  0  0  0  0
   39.3340   23.8580   36.4110 C   0  0  0  0  0  0  0  0  0  0  0  0
   39.5220   22.9750   37.4540 C   0  0  0  0  0  0  0  0  0  0  0  0
   38.7130   22.9570   38.1550 H   0  0  0  0  0  0  0  0  0  0  0  0
   40.6760   22.2210   37.5140 C   0  0  0  0  0  0  0  0  0  0  0  0
   40.7970   21.5490   38.3280 H   0  0  0  0  0  0  0  0  0  0  0  0
   41.6710   22.3280   36.5370 C   0  0  0  0  0  3  0  0  0  0  0  0
   41.4700   23.2100   35.5050 C   0  0  0  0  0  3  0  0  0  0  0  0
  1  6  1  0  0  0  0
  2  3  1  0  0  0  0
  2  1  2  0  0  0  0
  3  4  2  0  0  0  0
  4  9  1  0  0  0  0
  4  5  1  0  0  0  0
  5 10  1  0  0  0  0
  6  5  2  0  0  0  0
  6 24  1  0  0  0  0
  7  2  1  0  0  0  0
  8  3  1  0  0  0  0
 11 12  1  6  0  0  0
 11 17  1  0  0  0  0
 11  1  1  0  0  0  0
 13 18  2  0  0  0  0
 13 14  1  0  0  0  0
 14 15  2  0  0  0  0
 15 16  1  0  0  0  0
 15 21  1  0  0  0  0
 17 16  2  0  0  0  0
 18 17  1  0  0  0  0
 19 13  1  0  0  0  0
 20 14  1  0  0  0  0
 22 11  1  0  0  0  0
 22 23  1  0  0  0  0
 24 25  2  0  0  0  0
 25 26  1  0  0  0  0
 26 28  1  0  0  0  0
 26 27  1  0  0  0  0
 29 32  1  0  0  0  0
 29 26  1  0  0  0  0
 30 31  1  0  0  0  0
 31 38  2  0  0  0  0
 31 32  1  0  0  0  0
 32 33  2  0  0  0  0
 33 35  1  0  0  0  0
 33 34  1  0  0  0  0
 35 36  1  0  0  0  0
 37 35  2  0  0  0  0
 38 37  1  0  0  0  0
M  END
>  <minimizedAffinity>
-5.84304333

$$$$

 OpenBabel03272509443D

 38 40  0  0  1  0  0  0  0  0999 V2000
   37.3090   21.8210   33.0070 C   0  0  0  0  0  0  0  0  0  0  0  0
   36.9240   20.5220   33.3470 C   0  0  0  0  0  0  0  0  0  0  0  0
   35.7120   19.9900   32.9410 C   0  0  0  0  0  0  0  0  0  0  0  0
   34.8430   20.7690   32.1680 C   0  0  0  0  0  0  0  0  0  0  0  0
   35.2320   22.0370   31.8430 C   0  0  0  0  0  0  0  0  0  0  0  0
   36.4540   22.5360   32.2680 C   0  0  0  0  0  0  0  0  0  0  0  0
   37.6040   19.9200   33.9480 H   0  0  0  0  0  0  0  0  0  0  0  0
   35.5040   18.9900   33.2480 H   0  0  0  0  0  0  0  0  0  0  0  0
   33.9400   20.2730   31.9060 H   0  0  0  0  0  0  0  0  0  0  0  0
   34.4560   22.5140   31.2460 H   0  0  0  0  0  0  0  0  0  0  0  0
   38.5610   22.3890   33.4600 C   0  0  2  0  0  0  0  0  0  0  0  0
   39.2620   21.4850   33.6280 H   0  0  0  0  0  0  0  0  0  0  0  0
   37.8970   24.0110   36.6440 C   0  0  0  0  0  0  0  0  0  0  0  0
   38.8580   23.4890   37.4920 C   0  0  0  0  0  0  0  0  0  0  0  0
   39.7890   22.6160   36.9610 C   0  0  0  0  0  0  0  0  0  0  0  0
   39.7290   22.2970   35.6230 N   0  0  0  0  0  0  0  0  0  0  0  0
   38.7900   22.8260   34.8680 C   0  0  0  0  0  0  0  0  0  0  0  0
   37.8700   23.6830   35.3670 N   0  0  0  0  0  0  0  0  0  0  0  0
   37.1860   24.6910   37.0970 H   0  0  0  0  0  0  0  0  0  0  0  0
   38.9830   23.6770   38.5430 H   0  0  0  0  0  0  0  0  0  0  0  0
   40.6130   22.1130   37.4750 H   0  0  0  0  0  0  0  0  0  0  0  0
   39.2310   22.9270   32.5040 O   0  0  0  0  0  0  0  0  0  0  0  0
   38.9660   23.7740   32.0770 H   0  0  0  0  0  0  0  0  0  0  0  0
   36.7250   23.9020   31.8810 C   0  0  0  0  0  3  0  0  0  0  0  0
   35.7780   24.7810   31.5360 C   0  0  0  0  0  3  0  0  0  0  0  0
   35.9380   26.2070   31.1670 C   0  0  0  0  0  0  0  0  0  0  0  0
   35.2400   26.8770   31.6960 H   0  0  0  0  0  0  0  0  0  0  0  0
   35.6900   26.3310   30.0730 H   0  0  0  0  0  0  0  0  0  0  0  0
   37.6550   26.6920   31.3700 S   0  0  0  0  0  0  0  0  0  0  0  0
   40.2450   26.1520   32.5900 F   0  0  0  0  0  0  0  0  0  0  0  0
   39.3180   26.6390   33.4330 C   0  0  0  0  0  0  0  0  0  0  0  0
   38.0050   26.9770   33.0950 C   0  0  0  0  0  0  0  0  0  0  0  0
   37.1540   27.4690   34.0630 C   0  0  0  0  0  0  0  0  0  0  0  0
   36.1730   27.6950   33.7010 H   0  0  0  0  0  0  0  0  0  0  0  0
   37.6050   27.6220   35.3580 C   0  0  0  0  0  0  0  0  0  0  0  0
   36.9310   28.0030   36.0850 H   0  0  0  0  0  0  0  0  0  0  0  0
   38.9150   27.2910   35.7200 C   0  0  0  0  0  3  0  0  0  0  0  0
   39.7500   26.8030   34.7460 C   0  0  0  0  0  3  0  0  0  0  0  0
  1  2  1  0  0  0  0
  1 11  1  0  0  0  0
  2  7  1  0  0  0  0
  3  8  1  0  0  0  0
  3  2  2  0  0  0  0
  4  3  1  0  0  0  0
  5  4  2  0  0  0  0
  5  6  1  0  0  0  0
  6  1  2  0  0  0  0
  9  4  1  0  0  0  0
 10  5  1  0  0  0  0
 11 12  1  1  0  0  0
 11 17  1  0  0  0  0
 13 19  1  0  0  0  0
 13 14  1  0  0  0  0
 14 20  1  0  0  0  0
 15 21  1  0  0  0  0
 15 14  2  0  0  0  0
 16 15  1  0  0  0  0
 17 18  1  0  0  0  0
 17 16  2  0  0  0  0
 18 13  2  0  0  0  0
 22 11  1  0  0  0  0
 23 22  1  0  0  0  0
 24  6  1  0  0  0  0
 25 24  2  0  0  0  0
 26 29  1  0  0  0  0
 26 25  1  0  0  0  0
 26 27  1  0  0  0  0
 28 26  1  0  0  0  0
 29 32  1  0  0  0  0
 30 31  1  0  0  0  0
 31 38  1  0  0  0  0
 32 31  2  0  0  0  0
 32 33  1  0  0  0  0
 33 35  2  0  0  0  0
 34 33  1  0  0  0  0
 35 37  1  0  0  0  0
 35 36  1  0  0  0  0
 38 37  2  0  0  0  0
M  END
>  <minimizedAffinity>
-5.66840887

$$$$

 OpenBabel03272509443D

 38 40  0  0  1  0  0  0  0  0999 V2000
   36.8310   23.1440   31.8150 C   0  0  0  0  0  0  0  0  0  0  0  0
   35.5240   22.7480   31.5200 C   0  0  0  0  0  0  0  0  0  0  0  0
   34.9920   21.5650   32.0040 C   0  0  0  0  0  0  0  0  0  0  0  0
   35.7790   20.7380   32.8130 C   0  0  0  0  0  0  0  0  0  0  0  0
   37.0550   21.1360   33.0950 C   0  0  0  0  0  0  0  0  0  0  0  0
   37.5530   22.3290   32.5910 C   0  0  0  0  0  0  0  0  0  0  0  0
   34.9160   23.3960   30.8900 H   0  0  0  0  0  0  0  0  0  0  0  0
   33.9860   21.3460   31.7250 H   0  0  0  0  0  0  0  0  0  0  0  0
   35.2820   19.8540   33.1350 H   0  0  0  0  0  0  0  0  0  0  0  0
   37.5370   20.3930   33.7280 H   0  0  0  0  0  0  0  0  0  0  0  0
   37.3990   24.3640   31.2820 C   0  0  2  0  0  0  0  0  0  0  0  0
   38.4740   24.4090   31.7040 H   0  0  0  0  0  0  0  0  0  0  0  0
   35.9290   27.6740   31.5810 C   0  0  0  0  0  0  0  0  0  0  0  0
   36.2450   28.0650   32.8710 C   0  0  0  0  0  0  0  0  0  0  0  0
   37.0240   27.2180   33.6350 C   0  0  0  0  0  0  0  0  0  0  0  0
   37.4530   26.0260   33.0950 N   0  0  0  0  0  0  0  0  0  0  0  0
   37.1180   25.7090   31.8630 C   0  0  0  0  0  0  0  0  0  0  0  0
   36.3570   26.5250   31.0980 N   0  0  0  0  0  0  0  0  0  0  0  0
   35.3160   28.3660   31.0150 H   0  0  0  0  0  0  0  0  0  0  0  0
   35.9570   28.9700   33.3750 H   0  0  0  0  0  0  0  0  0  0  0  0
   37.3710   27.3610   34.6620 H   0  0  0  0  0  0  0  0  0  0  0  0
   37.7250   24.2550   30.0440 O   0  0  0  0  0  0  0  0  0  0  0  0
   37.0590   24.2120   29.3190 H   0  0  0  0  0  0  0  0  0  0  0  0
   38.9270   22.6130   32.9400 C   0  0  0  0  0  3  0  0  0  0  0  0
   39.6460   21.8770   33.7950 C   0  0  0  0  0  3  0  0  0  0  0  0
   41.0640   22.0500   34.1880 C   0  0  0  0  0  0  0  0  0  0  0  0
   41.7650   21.9890   33.3400 H   0  0  0  0  0  0  0  0  0  0  0  0
   41.3580   21.2020   34.8740 H   0  0  0  0  0  0  0  0  0  0  0  0
   41.2460   23.5680   35.1310 S   0  0  0  0  0  0  0  0  0  0  0  0
   41.0120   22.1510   37.6660 F   0  0  0  0  0  0  0  0  0  0  0  0
   39.9870   22.9740   37.3870 C   0  0  0  0  0  0  0  0  0  0  0  0
   39.8630   23.7630   36.2400 C   0  0  0  0  0  0  0  0  0  0  0  0
   38.7540   24.5670   36.0790 C   0  0  0  0  0  0  0  0  0  0  0  0
   38.7560   25.1270   35.1680 H   0  0  0  0  0  0  0  0  0  0  0  0
   37.7760   24.5870   37.0510 C   0  0  0  0  0  0  0  0  0  0  0  0
   36.9310   25.2150   36.9040 H   0  0  0  0  0  0  0  0  0  0  0  0
   37.8780   23.8080   38.2090 C   0  0  0  0  0  3  0  0  0  0  0  0
   38.9870   23.0120   38.3540 C   0  0  0  0  0  3  0  0  0  0  0  0
  1  6  1  0  0  0  0
  2  1  2  0  0  0  0
  2  3  1  0  0  0  0
  3  4  2  0  0  0  0
  4  5  1  0  0  0  0
  4  9  1  0  0  0  0
  5 10  1  0  0  0  0
  6 24  1  0  0  0  0
  6  5  2  0  0  0  0
  7  2  1  0  0  0  0
  8  3  1  0  0  0  0
 11 12  1  1  0  0  0
 11  1  1  0  0  0  0
 11 17  1  0  0  0  0
 13 14  1  0  0  0  0
 14 20  1  0  0  0  0
 14 15  2  0  0  0  0
 15 21  1  0  0  0  0
 16 15  1  0  0  0  0
 17 16  2  0  0  0  0
 18 13  2  0  0  0  0
 18 17  1  0  0  0  0
 19 13  1  0  0  0  0
 22 11  1  0  0  0  0
 23 22  1  0  0  0  0
 24 25  2  0  0  0  0
 25 26  1  0  0  0  0
 26 28  1  0  0  0  0
 26 29  1  0  0  0  0
 27 26  1  0  0  0  0
 29 32  1  0  0  0  0
 31 30  1  0  0  0  0
 31 38  1  0  0  0  0
 32 31  2  0  0  0  0
 33 32  1  0  0  0  0
 33 35  2  0  0  0  0
 34 33  1  0  0  0  0
 35 37  1  0  0  0  0
 36 35  1  0  0  0  0
 37 38  2  0  0  0  0
M  END
>  <minimizedAffinity>
-5.57256842

$$$$

 OpenBabel03272509443D

 38 40  0  0  1  0  0  0  0  0999 V2000
   36.4460   28.4620   31.7770 C   0  0  0  0  0  0  0  0  0  0  0  0
   35.5780   29.5560   31.7440 C   0  0  0  0  0  0  0  0  0  0  0  0
   35.0960   30.1420   32.9010 C   0  0  0  0  0  0  0  0  0  0  0  0
   35.4850   29.6310   34.1450 C   0  0  0  0  0  0  0  0  0  0  0  0
   36.3340   28.5600   34.1640 C   0  0  0  0  0  0  0  0  0  0  0  0
   36.7960   27.9990   32.9830 C   0  0  0  0  0  0  0  0  0  0  0  0
   35.2800   29.9500   30.7730 H   0  0  0  0  0  0  0  0  0  0  0  0
   34.4390   30.9730   32.7770 H   0  0  0  0  0  0  0  0  0  0  0  0
   35.0630   30.1470   34.9730 H   0  0  0  0  0  0  0  0  0  0  0  0
   36.5410   28.2780   35.1950 H   0  0  0  0  0  0  0  0  0  0  0  0
   36.9240   27.8270   30.5670 C   0  0  2  0  0  0  0  0  0  0  0  0
   37.6700   27.0190   30.9220 H   0  0  0  0  0  0  0  0  0  0  0  0
   38.3850   29.7890   27.8790 C   0  0  0  0  0  0  0  0  0  0  0  0
   39.7320   29.8350   28.1930 C   0  0  0  0  0  0  0  0  0  0  0  0
   40.1650   29.1370   29.3030 C   0  0  0  0  0  0  0  0  0  0  0  0
   39.2540   28.4280   30.0540 N   0  0  0  0  0  0  0  0  0  0  0  0
   37.9840   28.4240   29.7050 C   0  0  0  0  0  0  0  0  0  0  0  0
   37.5400   29.1000   28.6200 N   0  0  0  0  0  0  0  0  0  0  0  0
   38.0850   30.3490   27.0010 H   0  0  0  0  0  0  0  0  0  0  0  0
   40.5140   30.3580   27.6710 H   0  0  0  0  0  0  0  0  0  0  0  0
   41.1830   29.0580   29.6980 H   0  0  0  0  0  0  0  0  0  0  0  0
   36.0590   27.0250   30.0580 O   0  0  0  0  0  0  0  0  0  0  0  0
   35.2410   27.3380   29.6080 H   0  0  0  0  0  0  0  0  0  0  0  0
   37.6610   26.8540   33.1480 C   0  0  0  0  0  3  0  0  0  0  0  0
   37.4070   25.8420   33.9840 C   0  0  0  0  0  3  0  0  0  0  0  0
   38.1960   24.6060   34.1990 C   0  0  0  0  0  0  0  0  0  0  0  0
   39.0430   24.5000   33.5010 H   0  0  0  0  0  0  0  0  0  0  0  0
   37.5360   23.7120   33.9970 H   0  0  0  0  0  0  0  0  0  0  0  0
   38.6980   24.5040   35.9200 S   0  0  0  0  0  0  0  0  0  0  0  0
   39.1670   22.8880   38.2990 F   0  0  0  0  0  0  0  0  0  0  0  0
   40.0720   22.7220   37.3200 C   0  0  0  0  0  0  0  0  0  0  0  0
   40.0700   23.3760   36.0850 C   0  0  0  0  0  0  0  0  0  0  0  0
   41.0640   23.1100   35.1670 C   0  0  0  0  0  0  0  0  0  0  0  0
   40.9710   23.6640   34.2570 H   0  0  0  0  0  0  0  0  0  0  0  0
   42.0540   22.1990   35.4740 C   0  0  0  0  0  0  0  0  0  0  0  0
   42.8080   22.0110   34.7500 H   0  0  0  0  0  0  0  0  0  0  0  0
   42.0770   21.5300   36.7030 C   0  0  0  0  0  3  0  0  0  0  0  0
   41.0810   21.8060   37.6060 C   0  0  0  0  0  3  0  0  0  0  0  0
  1  6  1  0  0  0  0
  2  1  2  0  0  0  0
  2  3  1  0  0  0  0
  3  4  2  0  0  0  0
  4  5  1  0  0  0  0
  4  9  1  0  0  0  0
  5 10  1  0  0  0  0
  6 24  1  0  0  0  0
  6  5  2  0  0  0  0
  7  2  1  0  0  0  0
  8  3  1  0  0  0  0
 11 12  1  1  0  0  0
 11  1  1  0  0  0  0
 13 14  2  0  0  0  0
 13 18  1  0  0  0  0
 14 15  1  0  0  0  0
 15 21  1  0  0  0  0
 15 16  2  0  0  0  0
 17 16  1  0  0  0  0
 17 11  1  0  0  0  0
 18 17  2  0  0  0  0
 19 13  1  0  0  0  0
 20 14  1  0  0  0  0
 22 11  1  0  0  0  0
 23 22  1  0  0  0  0
 24 25  2  0  0  0  0
 25 26  1  0  0  0  0
 26 29  1  0  0  0  0
 27 26  1  0  0  0  0
 28 26  1  0  0  0  0
 29 32  1  0  0  0  0
 31 38  1  0  0  0  0
 31 30  1  0  0  0  0
 32 31  2  0  0  0  0
 33 35  2  0  0  0  0
 33 32  1  0  0  0  0
 34 33  1  0  0  0  0
 35 37  1  0  0  0  0
 36 35  1  0  0  0  0
 37 38  2  0  0  0  0
M  END
>  <minimizedAffinity>
-5.5261178

$$$$

 OpenBabel03272509443D

 38 40  0  0  1  0  0  0  0  0999 V2000
   37.4620   27.2370   33.9840 C   0  0  0  0  0  0  0  0  0  0  0  0
   36.7490   28.2050   34.6970 C   0  0  0  0  0  0  0  0  0  0  0  0
   35.7770   28.9870   34.0960 C   0  0  0  0  0  0  0  0  0  0  0  0
   35.4950   28.8090   32.7370 C   0  0  0  0  0  0  0  0  0  0  0  0
   36.1990   27.8600   32.0510 C   0  0  0  0  0  0  0  0  0  0  0  0
   37.1660   27.0960   32.6880 C   0  0  0  0  0  0  0  0  0  0  0  0
   36.9720   28.3370   35.7550 H   0  0  0  0  0  0  0  0  0  0  0  0
   35.2860   29.6990   34.7200 H   0  0  0  0  0  0  0  0  0  0  0  0
   34.7350   29.4550   32.3680 H   0  0  0  0  0  0  0  0  0  0  0  0
   35.8710   27.8430   31.0130 H   0  0  0  0  0  0  0  0  0  0  0  0
   38.5010   26.4430   34.6040 C   0  0  2  0  0  0  0  0  0  0  0  0
   38.9040   25.7610   33.7620 H   0  0  0  0  0  0  0  0  0  0  0  0
   38.1620   22.9260   35.4540 C   0  0  0  0  0  0  0  0  0  0  0  0
   38.0190   22.9260   36.8310 C   0  0  0  0  0  0  0  0  0  0  0  0
   37.9750   24.1460   37.4790 C   0  0  0  0  0  0  0  0  0  0  0  0
   38.0750   25.3060   36.7440 N   0  0  0  0  0  0  0  0  0  0  0  0
   38.2110   25.2400   35.4360 C   0  0  0  0  0  0  0  0  0  0  0  0
   38.2550   24.0560   34.7820 N   0  0  0  0  0  0  0  0  0  0  0  0
   38.1920   21.9500   34.9830 H   0  0  0  0  0  0  0  0  0  0  0  0
   37.9340   22.0780   37.4860 H   0  0  0  0  0  0  0  0  0  0  0  0
   37.8660   24.3380   38.5500 H   0  0  0  0  0  0  0  0  0  0  0  0
   39.5830   27.1090   34.7940 O   0  0  0  0  0  0  0  0  0  0  0  0
   39.6650   27.8090   35.4820 H   0  0  0  0  0  0  0  0  0  0  0  0
   37.8560   26.1530   31.8380 C   0  0  0  0  0  3  0  0  0  0  0  0
   37.2810   25.0670   31.3090 C   0  0  0  0  0  3  0  0  0  0  0  0
   37.8780   24.0640   30.3960 C   0  0  0  0  0  0  0  0  0  0  0  0
   38.6610   24.4800   29.7400 H   0  0  0  0  0  0  0  0  0  0  0  0
   37.0770   23.6880   29.6940 H   0  0  0  0  0  0  0  0  0  0  0  0
   38.4460   22.6490   31.3430 S   0  0  0  0  0  0  0  0  0  0  0  0
   37.8890   20.2820   29.7370 F   0  0  0  0  0  0  0  0  0  0  0  0
   37.0310   20.4870   30.7510 C   0  0  0  0  0  0  0  0  0  0  0  0
   37.0810   21.5450   31.6620 C   0  0  0  0  0  0  0  0  0  0  0  0
   36.1330   21.6350   32.6600 C   0  0  0  0  0  0  0  0  0  0  0  0
   36.2610   22.4810   33.3010 H   0  0  0  0  0  0  0  0  0  0  0  0
   35.1420   20.6800   32.7500 C   0  0  0  0  0  0  0  0  0  0  0  0
   34.4230   20.7710   33.5280 H   0  0  0  0  0  0  0  0  0  0  0  0
   35.0700   19.6110   31.8510 C   0  0  0  0  0  3  0  0  0  0  0  0
   36.0210   19.5350   30.8630 C   0  0  0  0  0  3  0  0  0  0  0  0
  1 11  1  0  0  0  0
  1  2  1  0  0  0  0
  2  7  1  0  0  0  0
  3  2  2  0  0  0  0
  3  8  1  0  0  0  0
  4  3  1  0  0  0  0
  5  6  1  0  0  0  0
  5  4  2  0  0  0  0
  6  1  2  0  0  0  0
  9  4  1  0  0  0  0
 10  5  1  0  0  0  0
 11 12  1  6  0  0  0
 11 22  1  0  0  0  0
 11 17  1  0  0  0  0
 13 14  1  0  0  0  0
 14 15  2  0  0  0  0
 14 20  1  0  0  0  0
 15 21  1  0  0  0  0
 16 15  1  0  0  0  0
 17 16  2  0  0  0  0
 18 17  1  0  0  0  0
 18 13  2  0  0  0  0
 19 13  1  0  0  0  0
 22 23  1  0  0  0  0
 24  6  1  0  0  0  0
 25 24  2  0  0  0  0
 26 25  1  0  0  0  0
 26 29  1  0  0  0  0
 27 26  1  0  0  0  0
 28 26  1  0  0  0  0
 29 32  1  0  0  0  0
 30 31  1  0  0  0  0
 31 38  2  0  0  0  0
 31 32  1  0  0  0  0
 32 33  2  0  0  0  0
 33 35  1  0  0  0  0
 33 34  1  0  0  0  0
 35 36  1  0  0  0  0
 37 35  2  0  0  0  0
 38 37  1  0  0  0  0
M  END
>  <minimizedAffinity>
-5.52585316

$$$$

 OpenBabel03272509443D

 38 40  0  0  1  0  0  0  0  0999 V2000
   39.3180   26.2300   34.7260 C   0  0  0  0  0  0  0  0  0  0  0  0
   38.8790   27.1470   35.6850 C   0  0  0  0  0  0  0  0  0  0  0  0
   37.6990   27.8550   35.5330 C   0  0  0  0  0  0  0  0  0  0  0  0
   36.9180   27.6520   34.3890 C   0  0  0  0  0  0  0  0  0  0  0  0
   37.3580   26.7530   33.4590 C   0  0  0  0  0  0  0  0  0  0  0  0
   38.5460   26.0630   33.6470 C   0  0  0  0  0  0  0  0  0  0  0  0
   39.4900   27.3000   36.5730 H   0  0  0  0  0  0  0  0  0  0  0  0
   37.4460   28.5330   36.3170 H   0  0  0  0  0  0  0  0  0  0  0  0
   36.0320   28.2400   34.3640 H   0  0  0  0  0  0  0  0  0  0  0  0
   36.6500   26.7080   32.6330 H   0  0  0  0  0  0  0  0  0  0  0  0
   40.5680   25.5150   34.8690 C   0  0  2  0  0  0  0  0  0  0  0  0
   40.7120   24.9530   33.8690 H   0  0  0  0  0  0  0  0  0  0  0  0
   42.1610   22.7060   36.5360 C   0  0  0  0  0  0  0  0  0  0  0  0
   41.1170   22.0640   37.1810 C   0  0  0  0  0  0  0  0  0  0  0  0
   39.8390   22.5550   36.9970 C   0  0  0  0  0  0  0  0  0  0  0  0
   39.6480   23.6550   36.1910 N   0  0  0  0  0  0  0  0  0  0  0  0
   40.6810   24.2240   35.6070 C   0  0  0  0  0  0  0  0  0  0  0  0
   41.9400   23.7570   35.7720 N   0  0  0  0  0  0  0  0  0  0  0  0
   43.1470   22.2910   36.7060 H   0  0  0  0  0  0  0  0  0  0  0  0
   41.1690   21.2050   37.8250 H   0  0  0  0  0  0  0  0  0  0  0  0
   38.9030   22.1790   37.4200 H   0  0  0  0  0  0  0  0  0  0  0  0
   41.5910   26.2850   34.7610 O   0  0  0  0  0  0  0  0  0  0  0  0
   41.8470   26.9320   35.4580 H   0  0  0  0  0  0  0  0  0  0  0  0
   38.9080   25.1680   32.5710 C   0  0  0  0  0  3  0  0  0  0  0  0
   38.1410   24.9410   31.4990 C   0  0  0  0  0  3  0  0  0  0  0  0
   38.4320   24.0850   30.3250 C   0  0  0  0  0  0  0  0  0  0  0  0
   39.2110   24.4980   29.6630 H   0  0  0  0  0  0  0  0  0  0  0  0
   37.5060   24.0200   29.6840 H   0  0  0  0  0  0  0  0  0  0  0  0
   38.8030   22.4160   30.8750 S   0  0  0  0  0  0  0  0  0  0  0  0
   38.5540   22.0200   33.7510 F   0  0  0  0  0  0  0  0  0  0  0  0
   37.4910   21.6160   33.0350 C   0  0  0  0  0  0  0  0  0  0  0  0
   37.3630   21.6980   31.6460 C   0  0  0  0  0  0  0  0  0  0  0  0
   36.2120   21.2450   31.0360 C   0  0  0  0  0  0  0  0  0  0  0  0
   36.2170   21.3520   29.9720 H   0  0  0  0  0  0  0  0  0  0  0  0
   35.1950   20.7140   31.8020 C   0  0  0  0  0  0  0  0  0  0  0  0
   34.3180   20.3720   31.3090 H   0  0  0  0  0  0  0  0  0  0  0  0
   35.2990   20.6220   33.1940 C   0  0  0  0  0  3  0  0  0  0  0  0
   36.4500   21.0770   33.7870 C   0  0  0  0  0  3  0  0  0  0  0  0
  1 11  1  0  0  0  0
  1  2  1  0  0  0  0
  2  7  1  0  0  0  0
  3  2  2  0  0  0  0
  3  8  1  0  0  0  0
  4  3  1  0  0  0  0
  5  6  1  0  0  0  0
  5  4  2  0  0  0  0
  6  1  2  0  0  0  0
  9  4  1  0  0  0  0
 10  5  1  0  0  0  0
 11 12  1  6  0  0  0
 11 17  1  0  0  0  0
 13 19  1  0  0  0  0
 13 14  1  0  0  0  0
 14 20  1  0  0  0  0
 15 14  2  0  0  0  0
 15 21  1  0  0  0  0
 16 15  1  0  0  0  0
 17 18  1  0  0  0  0
 17 16  2  0  0  0  0
 18 13  2  0  0  0  0
 22 11  1  0  0  0  0
 22 23  1  0  0  0  0
 24  6  1  0  0  0  0
 25 24  2  0  0  0  0
 26 29  1  0  0  0  0
 26 25  1  0  0  0  0
 27 26  1  0  0  0  0
 28 26  1  0  0  0  0
 29 32  1  0  0  0  0
 31 30  1  0  0  0  0
 31 38  1  0  0  0  0
 32 31  2  0  0  0  0
 33 32  1  0  0  0  0
 33 35  2  0  0  0  0
 34 33  1  0  0  0  0
 35 37  1  0  0  0  0
 36 35  1  0  0  0  0
 37 38  2  0  0  0  0
M  END
>  <minimizedAffinity>
-5.52399254

$$$$
