
 OpenBabel03272505483D

 40 44  0  0  0  0  0  0  0  0999 V2000
   36.1200   30.3100   45.9460 C   0  0  0  0  0  0  0  0  0  0  0  0
   36.6440   30.5960   47.1660 C   0  0  0  0  0  0  0  0  0  0  0  0
   35.9280   30.3370   48.3270 C   0  0  0  0  0  0  0  0  0  0  0  0
   34.6630   29.7790   48.2030 C   0  0  0  0  0  0  0  0  0  0  0  0
   34.1210   29.4840   46.9620 C   0  0  0  0  0  0  0  0  0  0  0  0
   34.8820   29.7670   45.8810 N   0  0  0  0  0  0  0  0  0  0  0  0
   37.6270   31.0300   47.2510 H   0  0  0  0  0  0  0  0  0  0  0  0
   36.3290   30.5580   49.3170 H   0  0  0  0  0  0  0  0  0  0  0  0
   34.0370   29.5440   49.0530 H   0  0  0  0  0  0  0  0  0  0  0  0
   36.8830   30.5850   44.6830 C   0  0  0  0  0  0  0  0  0  0  0  0
   36.6720   29.6960   43.5180 C   0  0  0  0  0  0  0  0  0  0  0  0
   36.1000   31.0940   43.5070 C   0  0  0  0  0  0  0  0  0  0  0  0
   37.4960   29.5770   42.7770 H   0  0  0  0  0  0  0  0  0  0  0  0
   35.9400   28.8640   43.6230 H   0  0  0  0  0  0  0  0  0  0  0  0
   35.0150   31.2030   43.6800 H   0  0  0  0  0  0  0  0  0  0  0  0
   36.5240   31.8670   42.8620 H   0  0  0  0  0  0  0  0  0  0  0  0
   39.4820   33.1930   45.0600 C   0  0  0  0  0  0  0  0  0  0  0  0
   40.6070   32.4380   45.4770 C   0  0  0  0  0  0  0  0  0  0  0  0
   40.4430   31.0480   45.6180 C   0  0  0  0  0  0  0  0  0  0  0  0
   39.2330   30.5030   45.3530 N   0  0  0  0  0  0  0  0  0  0  0  0
   38.1730   31.2500   44.9550 C   0  0  0  0  0  0  0  0  0  0  0  0
   38.2930   32.5870   44.8090 N   0  0  0  0  0  0  0  0  0  0  0  0
   39.4730   34.2580   44.9150 H   0  0  0  0  0  0  0  0  0  0  0  0
   41.4980   33.0170   45.6490 H   0  0  0  0  0  0  0  0  0  0  0  0
   41.3130   30.5250   45.9320 H   0  0  0  0  0  0  0  0  0  0  0  0
   32.8010   28.8980   46.7700 C   0  0  0  0  0  0  0  0  0  0  0  0
   32.1200   28.5610   45.6410 N   0  0  0  0  0  0  0  0  0  0  0  0
   30.9140   28.0440   45.9770 C   0  0  0  0  0  0  0  0  0  0  0  0
   30.8430   28.0600   47.3370 N   0  0  0  0  0  0  0  0  0  0  0  0
   31.9760   28.5720   47.8020 N   0  0  0  0  0  0  0  0  0  0  0  0
   30.1400   27.6800   45.3080 H   0  0  0  0  0  0  0  0  0  0  0  0
   31.1270   28.2190   50.0700 F   0  0  0  0  0  0  0  0  0  0  0  0
   29.9990   27.7340   49.4970 C   0  0  0  0  0  0  0  0  0  0  0  0
   29.7810   27.6220   48.1400 C   0  0  0  0  0  0  0  0  0  0  0  0
   28.5770   27.1070   47.7160 C   0  0  0  0  0  0  0  0  0  0  0  0
   28.4370   27.0330   46.6580 H   0  0  0  0  0  0  0  0  0  0  0  0
   27.6100   26.7110   48.6130 C   0  0  0  0  0  0  0  0  0  0  0  0
   26.6610   26.3050   48.2820 H   0  0  0  0  0  0  0  0  0  0  0  0
   27.8070   26.8140   49.9820 C   0  0  0  0  0  0  0  0  0  0  0  0
   29.0300   27.3370   50.4160 C   0  0  0  0  0  0  0  0  0  0  0  0
  1  2  1  0  0  0  0
  2  7  1  0  0  0  0
  2  3  2  0  0  0  0
  3  8  1  0  0  0  0
  4  3  1  0  0  0  0
  4  9  1  0  0  0  0
  5  4  2  0  0  0  0
  6  1  2  0  0  0  0
  6  5  1  0  0  0  0
 10 21  1  0  0  0  0
 10  1  1  0  0  0  0
 11 14  1  0  0  0  0
 11 10  1  0  0  0  0
 12 11  1  0  0  0  0
 12 15  1  0  0  0  0
 12 10  1  0  0  0  0
 13 11  1  0  0  0  0
 16 12  1  0  0  0  0
 17 18  1  0  0  0  0
 18 19  2  0  0  0  0
 18 24  1  0  0  0  0
 19 25  1  0  0  0  0
 20 19  1  0  0  0  0
 21 20  2  0  0  0  0
 22 21  1  0  0  0  0
 22 17  2  0  0  0  0
 23 17  1  0  0  0  0
 26  5  1  0  0  0  0
 26 30  2  0  0  0  0
 27 28  2  0  0  0  0
 27 26  1  0  0  0  0
 28 29  1  0  0  0  0
 29 30  1  0  0  0  0
 29 34  1  0  0  0  0
 31 28  1  0  0  0  0
 33 32  1  0  0  0  0
 33 40  1  0  0  0  0
 34 33  2  0  0  0  0
 35 34  1  0  0  0  0
 35 37  2  0  0  0  0
 36 35  1  0  0  0  0
 37 39  1  0  0  0  0
 38 37  1  0  0  0  0
 39 40  2  0  0  0  0
M  END
>  <minimizedAffinity>
-6.35313511

>  <minimizedRMSD>
1.14979887

$$$$
