
 OpenBabel03272509423D

 38 40  0  0  1  0  0  0  0  0999 V2000
   36.9990   30.9200   49.1680 C   0  0  0  0  0  0  0  0  0  0  0  0
   36.5990   31.8140   50.1640 C   0  0  0  0  0  0  0  0  0  0  0  0
   37.0900   33.1060   50.2270 C   0  0  0  0  0  0  0  0  0  0  0  0
   38.0150   33.5380   49.2690 C   0  0  0  0  0  0  0  0  0  0  0  0
   38.3990   32.6540   48.3000 C   0  0  0  0  0  0  0  0  0  0  0  0
   37.8840   31.3660   48.2700 C   0  0  0  0  0  0  0  0  0  0  0  0
   35.8780   31.4730   50.9060 H   0  0  0  0  0  0  0  0  0  0  0  0
   36.7270   33.7160   51.0230 H   0  0  0  0  0  0  0  0  0  0  0  0
   38.3330   34.5440   49.4010 H   0  0  0  0  0  0  0  0  0  0  0  0
   39.1170   33.1320   47.6360 H   0  0  0  0  0  0  0  0  0  0  0  0
   36.5110   29.5580   49.1220 C   0  0  2  0  0  0  0  0  0  0  0  0
   37.0080   29.0890   48.1890 H   0  0  0  0  0  0  0  0  0  0  0  0
   33.6160   29.6510   46.9270 C   0  0  0  0  0  0  0  0  0  0  0  0
   32.8990   28.5190   47.2710 C   0  0  0  0  0  0  0  0  0  0  0  0
   33.3720   27.7400   48.3100 C   0  0  0  0  0  0  0  0  0  0  0  0
   34.5290   28.1110   48.9590 N   0  0  0  0  0  0  0  0  0  0  0  0
   35.1680   29.1980   48.5830 C   0  0  0  0  0  0  0  0  0  0  0  0
   34.7200   29.9750   47.5700 N   0  0  0  0  0  0  0  0  0  0  0  0
   33.2130   30.2350   46.1080 H   0  0  0  0  0  0  0  0  0  0  0  0
   31.9910   28.1510   46.8250 H   0  0  0  0  0  0  0  0  0  0  0  0
   32.9400   26.8210   48.7170 H   0  0  0  0  0  0  0  0  0  0  0  0
   37.0770   28.8030   49.9940 O   0  0  0  0  0  0  0  0  0  0  0  0
   36.8900   28.8690   50.9590 H   0  0  0  0  0  0  0  0  0  0  0  0
   38.3990   30.5280   47.2120 C   0  0  0  0  0  3  0  0  0  0  0  0
   39.1310   30.9830   46.1890 C   0  0  0  0  0  3  0  0  0  0  0  0
   39.7430   30.2120   45.0820 C   0  0  0  0  0  0  0  0  0  0  0  0
   39.8530   29.1370   45.3040 H   0  0  0  0  0  0  0  0  0  0  0  0
   40.7950   30.5860   44.9140 H   0  0  0  0  0  0  0  0  0  0  0  0
   38.8350   30.5160   43.5630 S   0  0  0  0  0  0  0  0  0  0  0  0
   39.8760   27.8660   42.9460 F   0  0  0  0  0  0  0  0  0  0  0  0
   40.2410   28.8270   42.0810 C   0  0  0  0  0  0  0  0  0  0  0  0
   39.8760   30.1740   42.1550 C   0  0  0  0  0  0  0  0  0  0  0  0
   40.3230   31.0580   41.1960 C   0  0  0  0  0  0  0  0  0  0  0  0
   39.9860   32.0630   41.3460 H   0  0  0  0  0  0  0  0  0  0  0  0
   41.1280   30.6070   40.1710 C   0  0  0  0  0  0  0  0  0  0  0  0
   41.4600   31.3090   39.4450 H   0  0  0  0  0  0  0  0  0  0  0  0
   41.5080   29.2650   40.0750 C   0  0  0  0  0  3  0  0  0  0  0  0
   41.0550   28.3960   41.0360 C   0  0  0  0  0  3  0  0  0  0  0  0
  1  2  1  0  0  0  0
  2  3  2  0  0  0  0
  2  7  1  0  0  0  0
  3  8  1  0  0  0  0
  4  9  1  0  0  0  0
  4  3  1  0  0  0  0
  5  4  2  0  0  0  0
  6  5  1  0  0  0  0
  6  1  2  0  0  0  0
 10  5  1  0  0  0  0
 11 12  1  6  0  0  0
 11  1  1  0  0  0  0
 11 22  1  0  0  0  0
 13 14  2  0  0  0  0
 13 18  1  0  0  0  0
 14 15  1  0  0  0  0
 15 21  1  0  0  0  0
 15 16  2  0  0  0  0
 17 16  1  0  0  0  0
 17 11  1  0  0  0  0
 18 17  2  0  0  0  0
 19 13  1  0  0  0  0
 20 14  1  0  0  0  0
 22 23  1  0  0  0  0
 24  6  1  0  0  0  0
 25 24  2  0  0  0  0
 26 27  1  0  0  0  0
 26 25  1  0  0  0  0
 28 26  1  0  0  0  0
 29 26  1  0  0  0  0
 31 32  1  0  0  0  0
 31 30  1  0  0  0  0
 32 29  1  0  0  0  0
 33 34  1  0  0  0  0
 33 32  2  0  0  0  0
 35 33  1  0  0  0  0
 36 35  1  0  0  0  0
 37 35  2  0  0  0  0
 37 38  1  0  0  0  0
 38 31  2  0  0  0  0
M  END
>  <minimizedAffinity>
-5.74662352

>  <minimizedRMSD>
0.632558584

$$$$
