
 OpenBabel03272504583D

 33 35  0  0  1  0  0  0  0  0999 V2000
   37.7870   25.6380   35.1700 C   0  0  1  0  0  0  0  0  0  0  0  0
   38.3850   26.8470   34.6470 C   0  0  0  0  0  0  0  0  0  0  0  0
   37.9550   25.7790   33.7220 C   0  0  2  0  0  0  0  0  0  0  0  0
   36.6960   25.5680   35.5010 H   0  0  0  0  0  0  0  0  0  0  0  0
   37.9010   27.6660   35.1290 H   0  0  0  0  0  0  0  0  0  0  0  0
   39.4880   26.9360   34.7900 H   0  0  0  0  0  0  0  0  0  0  0  0
   38.7670   25.4480   33.1030 H   0  0  0  0  0  0  0  0  0  0  0  0
   38.6330   24.6060   35.8570 C   0  0  0  0  0  0  0  0  0  0  0  0
   39.7900   24.1850   35.1560 C   0  0  0  0  0  0  0  0  0  0  0  0
   40.5430   23.2420   35.8140 C   0  0  0  0  0  0  0  0  0  0  0  0
   40.1550   22.7830   37.0480 N   0  0  0  0  0  0  0  0  0  0  0  0
   39.0410   23.2160   37.6770 C   0  0  0  0  0  0  0  0  0  0  0  0
   38.2670   24.1550   37.0500 N   0  0  0  0  0  0  0  0  0  0  0  0
   38.6510   22.7540   38.9360 N   0  0  0  0  0  0  0  0  0  0  0  0
   40.0880   24.5440   34.1970 H   0  0  0  0  0  0  0  0  0  0  0  0
   41.4440   22.8270   35.4120 H   0  0  0  0  0  0  0  0  0  0  0  0
   37.7980   23.0760   39.3990 H   0  0  0  0  0  0  0  0  0  0  0  0
   39.2640   22.0510   39.4150 H   0  0  0  0  0  0  0  0  0  0  0  0
   36.7820   26.0080   32.9960 O   0  0  0  0  0  0  0  0  0  0  0  0
   35.1630   24.8420   31.3690 O   0  0  0  0  0  0  0  0  0  0  0  0
   36.5930   24.8380   31.8190 P   0  0  1  0  0  0  0  0  0  0  0  0
   37.4940   25.2690   30.4420 O   0  0  0  0  0  0  0  0  0  0  0  0
   38.3060   25.7440   30.5680 H   0  0  0  0  0  0  0  0  0  0  0  0
   37.0770   23.3460   32.4110 O   0  0  0  0  0  0  0  0  0  0  0  0
   37.0790   21.9740   34.7290 F   0  0  0  0  0  0  0  0  0  0  0  0
   36.4680   21.4880   33.6020 C   0  0  0  0  0  0  0  0  0  0  0  0
   36.4310   22.1500   32.3670 C   0  0  0  0  0  0  0  0  0  0  0  0
   35.7710   21.5130   31.3370 C   0  0  0  0  0  0  0  0  0  0  0  0
   35.7870   22.0890   30.4190 H   0  0  0  0  0  0  0  0  0  0  0  0
   35.1730   20.2860   31.5020 C   0  0  0  0  0  0  0  0  0  0  0  0
   34.6720   19.8410   30.6520 H   0  0  0  0  0  0  0  0  0  0  0  0
   35.2040   19.6320   32.7020 C   0  0  0  0  0  3  0  0  0  0  0  0
   35.8570   20.2410   33.7550 C   0  0  0  0  0  3  0  0  0  0  0  0
  1  4  1  1  0  0  0
  1  8  1  0  0  0  0
  2  6  1  0  0  0  0
  2  5  1  0  0  0  0
  2  1  1  0  0  0  0
  3  7  1  6  0  0  0
  3  2  1  0  0  0  0
  3  1  1  0  0  0  0
  8 13  1  0  0  0  0
  9 10  1  0  0  0  0
  9  8  2  0  0  0  0
 10 11  2  0  0  0  0
 11 12  1  0  0  0  0
 12 14  1  0  0  0  0
 13 12  2  0  0  0  0
 14 17  1  0  0  0  0
 14 18  1  0  0  0  0
 15  9  1  0  0  0  0
 16 10  1  0  0  0  0
 19  3  1  0  0  0  0
 21 20  2  6  0  0  0
 21 24  1  0  0  0  0
 21 19  1  0  0  0  0
 22 23  1  0  0  0  0
 22 21  1  0  0  0  0
 26 33  1  0  0  0  0
 26 25  1  0  0  0  0
 27 24  1  0  0  0  0
 27 26  2  0  0  0  0
 28 30  2  0  0  0  0
 28 27  1  0  0  0  0
 29 28  1  0  0  0  0
 30 32  1  0  0  0  0
 31 30  1  0  0  0  0
 32 33  2  0  0  0  0
M  END
>  <minimizedAffinity>
-5.79957819

$$$$

 OpenBabel03272504583D

 33 35  0  0  1  0  0  0  0  0999 V2000
   37.5430   26.1220   35.3950 C   0  0  1  0  0  0  0  0  0  0  0  0
   38.3960   27.2840   35.5190 C   0  0  0  0  0  0  0  0  0  0  0  0
   38.0300   26.7780   34.1810 C   0  0  2  0  0  0  0  0  0  0  0  0
   36.4070   26.1600   35.5130 H   0  0  0  0  0  0  0  0  0  0  0  0
   37.9360   27.9310   36.2310 H   0  0  0  0  0  0  0  0  0  0  0  0
   39.4450   27.0760   35.8350 H   0  0  0  0  0  0  0  0  0  0  0  0
   38.9020   26.5530   33.5970 H   0  0  0  0  0  0  0  0  0  0  0  0
   38.0770   24.7500   35.6900 C   0  0  0  0  0  0  0  0  0  0  0  0
   38.2570   23.9020   34.5700 C   0  0  0  0  0  0  0  0  0  0  0  0
   38.7500   22.6550   34.8730 C   0  0  0  0  0  0  0  0  0  0  0  0
   39.0260   22.3170   36.1750 N   0  0  0  0  0  0  0  0  0  0  0  0
   38.8360   23.1630   37.2100 C   0  0  0  0  0  0  0  0  0  0  0  0
   38.3460   24.4130   36.9440 N   0  0  0  0  0  0  0  0  0  0  0  0
   39.1240   22.8210   38.5340 N   0  0  0  0  0  0  0  0  0  0  0  0
   38.0420   24.1680   33.5600 H   0  0  0  0  0  0  0  0  0  0  0  0
   38.9390   21.9040   34.1350 H   0  0  0  0  0  0  0  0  0  0  0  0
   38.9630   23.4630   39.3140 H   0  0  0  0  0  0  0  0  0  0  0  0
   39.5190   21.8680   38.7220 H   0  0  0  0  0  0  0  0  0  0  0  0
   37.0790   27.5150   33.4670 O   0  0  0  0  0  0  0  0  0  0  0  0
   37.1980   29.0000   31.3670 O   0  0  0  0  0  0  0  0  0  0  0  0
   37.5190   27.6210   31.8590 P   0  0  1  0  0  0  0  0  0  0  0  0
   39.2100   27.4840   31.7250 O   0  0  0  0  0  0  0  0  0  0  0  0
   39.6660   26.9310   32.3470 H   0  0  0  0  0  0  0  0  0  0  0  0
   36.7480   26.4250   30.9730 O   0  0  0  0  0  0  0  0  0  0  0  0
   34.4900   25.0300   31.4310 F   0  0  0  0  0  0  0  0  0  0  0  0
   35.7010   24.4100   31.2640 C   0  0  0  0  0  0  0  0  0  0  0  0
   36.9100   25.0750   31.0230 C   0  0  0  0  0  0  0  0  0  0  0  0
   38.0360   24.2910   30.8790 C   0  0  0  0  0  0  0  0  0  0  0  0
   38.9280   24.8800   30.6950 H   0  0  0  0  0  0  0  0  0  0  0  0
   37.9860   22.9200   30.9650 C   0  0  0  0  0  0  0  0  0  0  0  0
   38.9060   22.3640   30.8420 H   0  0  0  0  0  0  0  0  0  0  0  0
   36.8110   22.2620   31.1990 C   0  0  0  0  0  3  0  0  0  0  0  0
   35.6640   23.0150   31.3490 C   0  0  0  0  0  3  0  0  0  0  0  0
  1  4  1  1  0  0  0
  1  2  1  0  0  0  0
  1  8  1  0  0  0  0
  2  6  1  0  0  0  0
  2  5  1  0  0  0  0
  3  7  1  6  0  0  0
  3  1  1  0  0  0  0
  3  2  1  0  0  0  0
  8 13  1  0  0  0  0
  9 10  1  0  0  0  0
  9  8  2  0  0  0  0
 10 11  2  0  0  0  0
 11 12  1  0  0  0  0
 12 14  1  0  0  0  0
 13 12  2  0  0  0  0
 14 18  1  0  0  0  0
 14 17  1  0  0  0  0
 15  9  1  0  0  0  0
 16 10  1  0  0  0  0
 19  3  1  0  0  0  0
 21 20  2  6  0  0  0
 21 19  1  0  0  0  0
 22 21  1  0  0  0  0
 22 23  1  0  0  0  0
 24 27  1  0  0  0  0
 24 21  1  0  0  0  0
 26 33  1  0  0  0  0
 26 25  1  0  0  0  0
 27 26  2  0  0  0  0
 28 30  2  0  0  0  0
 28 27  1  0  0  0  0
 29 28  1  0  0  0  0
 30 32  1  0  0  0  0
 31 30  1  0  0  0  0
 32 33  2  0  0  0  0
M  END
>  <minimizedAffinity>
-5.67503881

$$$$

 OpenBabel03272504583D

 33 35  0  0  1  0  0  0  0  0999 V2000
   38.6570   23.4000   36.6290 C   0  0  1  0  0  0  0  0  0  0  0  0
   38.0840   23.8670   37.8720 C   0  0  0  0  0  0  0  0  0  0  0  0
   38.4320   24.8350   36.8130 C   0  0  2  0  0  0  0  0  0  0  0  0
   38.0390   22.9440   35.7830 H   0  0  0  0  0  0  0  0  0  0  0  0
   37.2420   23.2460   38.0770 H   0  0  0  0  0  0  0  0  0  0  0  0
   38.7710   23.8560   38.7500 H   0  0  0  0  0  0  0  0  0  0  0  0
   39.1110   25.5830   37.1760 H   0  0  0  0  0  0  0  0  0  0  0  0
   40.0830   22.9360   36.5750 C   0  0  0  0  0  0  0  0  0  0  0  0
   40.9430   23.6690   35.7190 C   0  0  0  0  0  0  0  0  0  0  0  0
   42.2420   23.2210   35.6950 C   0  0  0  0  0  0  0  0  0  0  0  0
   42.6160   22.1440   36.4610 N   0  0  0  0  0  0  0  0  0  0  0  0
   41.7590   21.4760   37.2620 C   0  0  0  0  0  0  0  0  0  0  0  0
   40.4570   21.8970   37.3100 N   0  0  0  0  0  0  0  0  0  0  0  0
   42.1430   20.3860   38.0450 N   0  0  0  0  0  0  0  0  0  0  0  0
   40.6470   24.5050   35.1270 H   0  0  0  0  0  0  0  0  0  0  0  0
   43.0070   23.6710   35.0980 H   0  0  0  0  0  0  0  0  0  0  0  0
   41.4830   19.8760   38.6380 H   0  0  0  0  0  0  0  0  0  0  0  0
   43.1480   20.0880   38.0160 H   0  0  0  0  0  0  0  0  0  0  0  0
   37.3700   25.3810   36.0840 O   0  0  0  0  0  0  0  0  0  0  0  0
   36.9550   27.6540   34.9480 O   0  0  0  0  0  0  0  0  0  0  0  0
   37.9380   26.5220   35.0040 P   0  0  1  0  0  0  0  0  0  0  0  0
   39.3720   27.2090   35.6090 O   0  0  0  0  0  0  0  0  0  0  0  0
   39.9480   26.6610   36.1270 H   0  0  0  0  0  0  0  0  0  0  0  0
   38.1940   25.8170   33.5060 O   0  0  0  0  0  0  0  0  0  0  0  0
   38.5380   23.1470   33.4090 F   0  0  0  0  0  0  0  0  0  0  0  0
   37.5490   23.7750   32.6960 C   0  0  0  0  0  0  0  0  0  0  0  0
   37.3170   25.1570   32.7030 C   0  0  0  0  0  0  0  0  0  0  0  0
   36.2760   25.6180   31.9240 C   0  0  0  0  0  0  0  0  0  0  0  0
   36.1620   26.6950   31.9840 H   0  0  0  0  0  0  0  0  0  0  0  0
   35.4960   24.7710   31.1730 C   0  0  0  0  0  0  0  0  0  0  0  0
   34.6950   25.1980   30.5840 H   0  0  0  0  0  0  0  0  0  0  0  0
   35.7140   23.4210   31.1600 C   0  0  0  0  0  3  0  0  0  0  0  0
   36.7490   22.9250   31.9280 C   0  0  0  0  0  3  0  0  0  0  0  0
  1  4  1  6  0  0  0
  1  3  1  0  0  0  0
  1  2  1  0  0  0  0
  2  5  1  0  0  0  0
  2  6  1  0  0  0  0
  3  7  1  1  0  0  0
  3  2  1  0  0  0  0
  8  1  1  0  0  0  0
  8 13  1  0  0  0  0
  9  8  2  0  0  0  0
 10  9  1  0  0  0  0
 10 11  2  0  0  0  0
 11 12  1  0  0  0  0
 12 13  2  0  0  0  0
 12 14  1  0  0  0  0
 14 17  1  0  0  0  0
 15  9  1  0  0  0  0
 16 10  1  0  0  0  0
 18 14  1  0  0  0  0
 19  3  1  0  0  0  0
 21 20  2  6  0  0  0
 21 22  1  0  0  0  0
 21 19  1  0  0  0  0
 22 23  1  0  0  0  0
 24 21  1  0  0  0  0
 26 27  1  0  0  0  0
 26 25  1  0  0  0  0
 27 24  1  0  0  0  0
 28 29  1  0  0  0  0
 28 27  2  0  0  0  0
 30 28  1  0  0  0  0
 31 30  1  0  0  0  0
 32 30  2  0  0  0  0
 32 33  1  0  0  0  0
 33 26  2  0  0  0  0
M  END
>  <minimizedAffinity>
-5.53384113

$$$$

 OpenBabel03272504583D

 33 35  0  0  1  0  0  0  0  0999 V2000
   36.8390   28.6310   32.0270 C   0  0  1  0  0  0  0  0  0  0  0  0
   35.5490   28.0090   32.2340 C   0  0  0  0  0  0  0  0  0  0  0  0
   36.7400   27.4830   32.9320 C   0  0  2  0  0  0  0  0  0  0  0  0
   37.1630   29.5970   32.5450 H   0  0  0  0  0  0  0  0  0  0  0  0
   34.8530   28.7950   32.4210 H   0  0  0  0  0  0  0  0  0  0  0  0
   35.1790   27.3830   31.3900 H   0  0  0  0  0  0  0  0  0  0  0  0
   36.8900   26.4420   32.7180 H   0  0  0  0  0  0  0  0  0  0  0  0
   37.5870   28.4230   30.7430 C   0  0  0  0  0  0  0  0  0  0  0  0
   37.1700   29.2180   29.6460 C   0  0  0  0  0  0  0  0  0  0  0  0
   37.8770   29.0060   28.4870 C   0  0  0  0  0  0  0  0  0  0  0  0
   38.8950   28.0850   28.4550 N   0  0  0  0  0  0  0  0  0  0  0  0
   39.2560   27.3500   29.5290 C   0  0  0  0  0  0  0  0  0  0  0  0
   38.5720   27.5360   30.7000 N   0  0  0  0  0  0  0  0  0  0  0  0
   40.2960   26.4180   29.4970 N   0  0  0  0  0  0  0  0  0  0  0  0
   36.3790   29.9330   29.6760 H   0  0  0  0  0  0  0  0  0  0  0  0
   37.6790   29.5300   27.5750 H   0  0  0  0  0  0  0  0  0  0  0  0
   40.5530   25.8550   30.3110 H   0  0  0  0  0  0  0  0  0  0  0  0
   40.8250   26.3020   28.6000 H   0  0  0  0  0  0  0  0  0  0  0  0
   36.8520   27.7760   34.2950 O   0  0  0  0  0  0  0  0  0  0  0  0
   39.3290   27.1470   33.9760 O   0  0  0  0  0  0  0  0  0  0  0  0
   38.1900   27.0100   34.9410 P   0  0  1  0  0  0  0  0  0  0  0  0
   38.6920   27.8360   36.3410 O   0  0  0  0  0  0  0  0  0  0  0  0
   38.0300   28.2530   36.8780 H   0  0  0  0  0  0  0  0  0  0  0  0
   37.8250   25.4110   35.2850 O   0  0  0  0  0  0  0  0  0  0  0  0
   40.0130   24.0550   34.4930 F   0  0  0  0  0  0  0  0  0  0  0  0
   39.4930   23.9140   35.7530 C   0  0  0  0  0  0  0  0  0  0  0  0
   38.3590   24.5880   36.2280 C   0  0  0  0  0  0  0  0  0  0  0  0
   37.9740   24.3250   37.5260 C   0  0  0  0  0  0  0  0  0  0  0  0
   37.0920   24.8850   37.8150 H   0  0  0  0  0  0  0  0  0  0  0  0
   38.6620   23.4450   38.3270 C   0  0  0  0  0  0  0  0  0  0  0  0
   38.3060   23.2830   39.3360 H   0  0  0  0  0  0  0  0  0  0  0  0
   39.7690   22.7820   37.8730 C   0  0  0  0  0  3  0  0  0  0  0  0
   40.1820   23.0210   36.5780 C   0  0  0  0  0  3  0  0  0  0  0  0
  1  2  1  0  0  0  0
  1  4  1  1  0  0  0
  1  3  1  0  0  0  0
  2  5  1  0  0  0  0
  2  3  1  0  0  0  0
  3  7  1  6  0  0  0
  3 19  1  0  0  0  0
  6  2  1  0  0  0  0
  8  1  1  0  0  0  0
  9 15  1  0  0  0  0
  9  8  2  0  0  0  0
 10  9  1  0  0  0  0
 11 10  2  0  0  0  0
 11 12  1  0  0  0  0
 12 13  2  0  0  0  0
 13  8  1  0  0  0  0
 14 12  1  0  0  0  0
 14 17  1  0  0  0  0
 16 10  1  0  0  0  0
 18 14  1  0  0  0  0
 19 21  1  0  0  0  0
 21 20  2  6  0  0  0
 21 24  1  0  0  0  0
 21 22  1  0  0  0  0
 22 23  1  0  0  0  0
 24 27  1  0  0  0  0
 25 26  1  0  0  0  0
 26 27  2  0  0  0  0
 26 33  1  0  0  0  0
 27 28  1  0  0  0  0
 28 29  1  0  0  0  0
 28 30  2  0  0  0  0
 30 31  1  0  0  0  0
 32 30  1  0  0  0  0
 33 32  2  0  0  0  0
M  END
>  <minimizedAffinity>
-5.48846912

$$$$

 OpenBabel03272504583D

 33 35  0  0  1  0  0  0  0  0999 V2000
   38.6680   23.2780   36.4840 C   0  0  1  0  0  0  0  0  0  0  0  0
   37.9640   23.5420   37.7200 C   0  0  0  0  0  0  0  0  0  0  0  0
   38.3680   24.6640   36.8490 C   0  0  2  0  0  0  0  0  0  0  0  0
   38.1500   22.9330   35.5260 H   0  0  0  0  0  0  0  0  0  0  0  0
   37.1330   22.8750   37.7520 H   0  0  0  0  0  0  0  0  0  0  0  0
   38.5680   23.4210   38.6500 H   0  0  0  0  0  0  0  0  0  0  0  0
   38.9800   25.3690   37.3790 H   0  0  0  0  0  0  0  0  0  0  0  0
   40.1110   22.8660   36.5020 C   0  0  0  0  0  0  0  0  0  0  0  0
   40.9890   23.6440   35.7080 C   0  0  0  0  0  0  0  0  0  0  0  0
   42.3030   23.2430   35.7490 C   0  0  0  0  0  0  0  0  0  0  0  0
   42.6740   22.1660   36.5170 N   0  0  0  0  0  0  0  0  0  0  0  0
   41.7980   21.4540   37.2580 C   0  0  0  0  0  0  0  0  0  0  0  0
   40.4810   21.8270   37.2390 N   0  0  0  0  0  0  0  0  0  0  0  0
   42.1780   20.3630   38.0440 N   0  0  0  0  0  0  0  0  0  0  0  0
   40.6960   24.4800   35.1140 H   0  0  0  0  0  0  0  0  0  0  0  0
   43.0830   23.7310   35.2030 H   0  0  0  0  0  0  0  0  0  0  0  0
   41.5050   19.8200   38.5900 H   0  0  0  0  0  0  0  0  0  0  0  0
   43.1930   20.1020   38.0660 H   0  0  0  0  0  0  0  0  0  0  0  0
   37.3560   25.2810   36.1060 O   0  0  0  0  0  0  0  0  0  0  0  0
   36.8410   27.3630   34.6820 O   0  0  0  0  0  0  0  0  0  0  0  0
   37.9820   26.5570   35.2270 P   0  0  1  0  0  0  0  0  0  0  0  0
   38.8120   27.6110   36.2720 O   0  0  0  0  0  0  0  0  0  0  0  0
   39.2550   27.2390   37.0250 H   0  0  0  0  0  0  0  0  0  0  0  0
   38.9960   25.9810   34.0230 O   0  0  0  0  0  0  0  0  0  0  0  0
   38.6280   26.6990   31.4540 F   0  0  0  0  0  0  0  0  0  0  0  0
   39.8110   26.9300   32.1050 C   0  0  0  0  0  0  0  0  0  0  0  0
   40.0680   26.5820   33.4390 C   0  0  0  0  0  0  0  0  0  0  0  0
   41.3170   26.8900   33.9340 C   0  0  0  0  0  0  0  0  0  0  0  0
   41.4350   26.5900   34.9700 H   0  0  0  0  0  0  0  0  0  0  0  0
   42.2750   27.5090   33.1670 C   0  0  0  0  0  0  0  0  0  0  0  0
   43.2350   27.7220   33.6170 H   0  0  0  0  0  0  0  0  0  0  0  0
   42.0340   27.8520   31.8650 C   0  0  0  0  0  3  0  0  0  0  0  0
   40.7940   27.5580   31.3360 C   0  0  0  0  0  3  0  0  0  0  0  0
  1  4  1  6  0  0  0
  1  8  1  0  0  0  0
  1  3  1  0  0  0  0
  1  2  1  0  0  0  0
  2  5  1  0  0  0  0
  2  6  1  0  0  0  0
  3  7  1  1  0  0  0
  3  2  1  0  0  0  0
  8 13  1  0  0  0  0
  9 10  1  0  0  0  0
  9  8  2  0  0  0  0
 10 11  2  0  0  0  0
 11 12  1  0  0  0  0
 12 14  1  0  0  0  0
 13 12  2  0  0  0  0
 14 18  1  0  0  0  0
 14 17  1  0  0  0  0
 15  9  1  0  0  0  0
 16 10  1  0  0  0  0
 19  3  1  0  0  0  0
 21 20  2  6  0  0  0
 21 19  1  0  0  0  0
 21 22  1  0  0  0  0
 22 23  1  0  0  0  0
 24 21  1  0  0  0  0
 25 26  1  0  0  0  0
 26 27  1  0  0  0  0
 27 28  2  0  0  0  0
 27 24  1  0  0  0  0
 28 29  1  0  0  0  0
 30 31  1  0  0  0  0
 30 28  1  0  0  0  0
 32 30  2  0  0  0  0
 33 32  1  0  0  0  0
 33 26  2  0  0  0  0
M  END
>  <minimizedAffinity>
-5.44761705

$$$$

 OpenBabel03272504583D

 33 35  0  0  1  0  0  0  0  0999 V2000
   38.5040   26.8130   34.5400 C   0  0  1  0  0  0  0  0  0  0  0  0
   38.4710   26.9780   35.9760 C   0  0  0  0  0  0  0  0  0  0  0  0
   38.2480   25.6440   35.3840 C   0  0  2  0  0  0  0  0  0  0  0  0
   39.4710   26.7410   33.9360 H   0  0  0  0  0  0  0  0  0  0  0  0
   39.3310   27.5510   36.2420 H   0  0  0  0  0  0  0  0  0  0  0  0
   37.5590   27.4770   36.3800 H   0  0  0  0  0  0  0  0  0  0  0  0
   37.3080   25.2310   35.6950 H   0  0  0  0  0  0  0  0  0  0  0  0
   37.3660   27.3020   33.6910 C   0  0  0  0  0  0  0  0  0  0  0  0
   36.5340   28.2880   34.2760 C   0  0  0  0  0  0  0  0  0  0  0  0
   35.5050   28.7160   33.4720 C   0  0  0  0  0  0  0  0  0  0  0  0
   35.3470   28.1930   32.2120 N   0  0  0  0  0  0  0  0  0  0  0  0
   36.1690   27.2530   31.6980 C   0  0  0  0  0  0  0  0  0  0  0  0
   37.2040   26.8040   32.4720 N   0  0  0  0  0  0  0  0  0  0  0  0
   36.0110   26.7270   30.4130 N   0  0  0  0  0  0  0  0  0  0  0  0
   36.6600   28.6910   35.2550 H   0  0  0  0  0  0  0  0  0  0  0  0
   34.7930   29.4550   33.7740 H   0  0  0  0  0  0  0  0  0  0  0  0
   36.6300   26.0040   30.0370 H   0  0  0  0  0  0  0  0  0  0  0  0
   35.2280   27.0960   29.8220 H   0  0  0  0  0  0  0  0  0  0  0  0
   39.3000   24.7270   35.4830 O   0  0  0  0  0  0  0  0  0  0  0  0
   39.6580   22.6950   37.0230 O   0  0  0  0  0  0  0  0  0  0  0  0
   38.7250   23.2410   35.9840 P   0  0  1  0  0  0  0  0  0  0  0  0
   37.2400   23.4510   36.7870 O   0  0  0  0  0  0  0  0  0  0  0  0
   36.6690   24.1520   36.4980 H   0  0  0  0  0  0  0  0  0  0  0  0
   38.5570   22.2180   34.6680 O   0  0  0  0  0  0  0  0  0  0  0  0
   38.5150   23.8790   32.5490 F   0  0  0  0  0  0  0  0  0  0  0  0
   37.5330   22.9460   32.7540 C   0  0  0  0  0  0  0  0  0  0  0  0
   37.4950   22.0530   33.8340 C   0  0  0  0  0  0  0  0  0  0  0  0
   36.4290   21.1790   33.8840 C   0  0  0  0  0  0  0  0  0  0  0  0
   36.4740   20.5230   34.7460 H   0  0  0  0  0  0  0  0  0  0  0  0
   35.4440   21.1740   32.9250 C   0  0  0  0  0  0  0  0  0  0  0  0
   34.6340   20.4620   33.0240 H   0  0  0  0  0  0  0  0  0  0  0  0
   35.4710   22.0410   31.8680 C   0  0  0  0  0  3  0  0  0  0  0  0
   36.5240   22.9300   31.7870 C   0  0  0  0  0  3  0  0  0  0  0  0
  1  4  1  6  0  0  0
  1  3  1  0  0  0  0
  1  2  1  0  0  0  0
  2  5  1  0  0  0  0
  2  6  1  0  0  0  0
  3 19  1  0  0  0  0
  3  7  1  1  0  0  0
  3  2  1  0  0  0  0
  8  9  1  0  0  0  0
  8  1  1  0  0  0  0
  9 15  1  0  0  0  0
 10 16  1  0  0  0  0
 10  9  2  0  0  0  0
 11 10  1  0  0  0  0
 12 11  2  0  0  0  0
 12 13  1  0  0  0  0
 13  8  2  0  0  0  0
 14 12  1  0  0  0  0
 17 14  1  0  0  0  0
 18 14  1  0  0  0  0
 19 21  1  0  0  0  0
 21 22  1  0  0  0  0
 21 20  2  1  0  0  0
 23 22  1  0  0  0  0
 24 21  1  0  0  0  0
 25 26  1  0  0  0  0
 26 27  1  0  0  0  0
 27 28  2  0  0  0  0
 27 24  1  0  0  0  0
 28 29  1  0  0  0  0
 30 31  1  0  0  0  0
 30 28  1  0  0  0  0
 32 30  2  0  0  0  0
 33 32  1  0  0  0  0
 33 26  2  0  0  0  0
M  END
>  <minimizedAffinity>
-5.42104959

$$$$

 OpenBabel03272504583D

 33 35  0  0  1  0  0  0  0  0999 V2000
   36.4540   23.0110   31.1350 C   0  0  1  0  0  0  0  0  0  0  0  0
   35.5250   24.1200   31.1270 C   0  0  0  0  0  0  0  0  0  0  0  0
   36.7150   24.1640   32.0000 C   0  0  2  0  0  0  0  0  0  0  0  0
   37.2500   22.8510   30.3310 H   0  0  0  0  0  0  0  0  0  0  0  0
   35.3320   24.3550   30.1050 H   0  0  0  0  0  0  0  0  0  0  0  0
   34.5580   23.9380   31.6520 H   0  0  0  0  0  0  0  0  0  0  0  0
   36.4410   24.3110   33.0270 H   0  0  0  0  0  0  0  0  0  0  0  0
   36.0940   21.7200   31.8110 C   0  0  0  0  0  0  0  0  0  0  0  0
   35.9320   20.5990   30.9600 C   0  0  0  0  0  0  0  0  0  0  0  0
   35.6060   19.4330   31.6090 C   0  0  0  0  0  0  0  0  0  0  0  0
   35.4610   19.4180   32.9750 N   0  0  0  0  0  0  0  0  0  0  0  0
   35.6260   20.5150   33.7440 C   0  0  0  0  0  0  0  0  0  0  0  0
   35.9510   21.6940   33.1290 N   0  0  0  0  0  0  0  0  0  0  0  0
   35.4860   20.4970   35.1340 N   0  0  0  0  0  0  0  0  0  0  0  0
   36.0450   20.6150   29.9000 H   0  0  0  0  0  0  0  0  0  0  0  0
   35.4500   18.5030   31.1030 H   0  0  0  0  0  0  0  0  0  0  0  0
   35.5980   21.3370   35.7080 H   0  0  0  0  0  0  0  0  0  0  0  0
   35.2580   19.5830   35.5940 H   0  0  0  0  0  0  0  0  0  0  0  0
   37.7620   24.9990   31.5970 O   0  0  0  0  0  0  0  0  0  0  0  0
   38.8600   27.2460   32.2100 O   0  0  0  0  0  0  0  0  0  0  0  0
   38.1440   26.0760   32.8160 P   0  0  1  0  0  0  0  0  0  0  0  0
   36.7120   26.7200   33.4700 O   0  0  0  0  0  0  0  0  0  0  0  0
   35.9420   26.1660   33.4960 H   0  0  0  0  0  0  0  0  0  0  0  0
   39.0510   25.3070   33.9970 O   0  0  0  0  0  0  0  0  0  0  0  0
   38.5650   26.7170   36.2400 F   0  0  0  0  0  0  0  0  0  0  0  0
   38.3990   25.3580   36.1910 C   0  0  0  0  0  0  0  0  0  0  0  0
   38.6330   24.5660   35.0590 C   0  0  0  0  0  0  0  0  0  0  0  0
   38.4140   23.2100   35.1890 C   0  0  0  0  0  0  0  0  0  0  0  0
   38.6180   22.6700   34.2700 H   0  0  0  0  0  0  0  0  0  0  0  0
   37.9850   22.6500   36.3680 C   0  0  0  0  0  0  0  0  0  0  0  0
   37.8330   21.5790   36.4030 H   0  0  0  0  0  0  0  0  0  0  0  0
   37.7530   23.4140   37.4790 C   0  0  0  0  0  3  0  0  0  0  0  0
   37.9630   24.7750   37.3840 C   0  0  0  0  0  3  0  0  0  0  0  0
  1  4  1  6  0  0  0
  1  8  1  0  0  0  0
  1  3  1  0  0  0  0
  2  1  1  0  0  0  0
  2  6  1  0  0  0  0
  2  3  1  0  0  0  0
  3  7  1  1  0  0  0
  5  2  1  0  0  0  0
  8 13  1  0  0  0  0
  9 10  1  0  0  0  0
  9  8  2  0  0  0  0
 10 11  2  0  0  0  0
 11 12  1  0  0  0  0
 12 14  1  0  0  0  0
 13 12  2  0  0  0  0
 14 18  1  0  0  0  0
 14 17  1  0  0  0  0
 15  9  1  0  0  0  0
 16 10  1  0  0  0  0
 19  3  1  0  0  0  0
 19 21  1  0  0  0  0
 21 20  2  6  0  0  0
 21 22  1  0  0  0  0
 21 24  1  0  0  0  0
 22 23  1  0  0  0  0
 24 27  1  0  0  0  0
 26 25  1  0  0  0  0
 26 33  1  0  0  0  0
 27 28  1  0  0  0  0
 27 26  2  0  0  0  0
 28 30  2  0  0  0  0
 29 28  1  0  0  0  0
 30 31  1  0  0  0  0
 30 32  1  0  0  0  0
 33 32  2  0  0  0  0
M  END
>  <minimizedAffinity>
-5.40887833

$$$$

 OpenBabel03272504583D

 33 35  0  0  1  0  0  0  0  0999 V2000
   37.7960   25.5720   35.1580 C   0  0  1  0  0  0  0  0  0  0  0  0
   38.5760   26.5440   34.4230 C   0  0  0  0  0  0  0  0  0  0  0  0
   37.9890   25.3870   33.7180 C   0  0  2  0  0  0  0  0  0  0  0  0
   36.7060   25.7360   35.4570 H   0  0  0  0  0  0  0  0  0  0  0  0
   38.2230   27.5070   34.7140 H   0  0  0  0  0  0  0  0  0  0  0  0
   39.6790   26.4920   34.5840 H   0  0  0  0  0  0  0  0  0  0  0  0
   38.7420   24.8180   33.2070 H   0  0  0  0  0  0  0  0  0  0  0  0
   38.4690   24.5850   36.0670 C   0  0  0  0  0  0  0  0  0  0  0  0
   37.9080   24.4520   37.3620 C   0  0  0  0  0  0  0  0  0  0  0  0
   38.5450   23.5390   38.1680 C   0  0  0  0  0  0  0  0  0  0  0  0
   39.6320   22.8430   37.7000 N   0  0  0  0  0  0  0  0  0  0  0  0
   40.1310   23.0060   36.4570 C   0  0  0  0  0  0  0  0  0  0  0  0
   39.5200   23.9070   35.6270 N   0  0  0  0  0  0  0  0  0  0  0  0
   41.2330   22.2910   35.9800 N   0  0  0  0  0  0  0  0  0  0  0  0
   37.0630   24.9950   37.7200 H   0  0  0  0  0  0  0  0  0  0  0  0
   38.2380   23.3290   39.1710 H   0  0  0  0  0  0  0  0  0  0  0  0
   41.6130   22.4320   35.0410 H   0  0  0  0  0  0  0  0  0  0  0  0
   41.6770   21.5880   36.6180 H   0  0  0  0  0  0  0  0  0  0  0  0
   36.8680   25.6380   32.9190 O   0  0  0  0  0  0  0  0  0  0  0  0
   35.1700   24.3020   31.5190 O   0  0  0  0  0  0  0  0  0  0  0  0
   36.6320   24.3820   31.8440 P   0  0  1  0  0  0  0  0  0  0  0  0
   37.3970   24.7490   30.3690 O   0  0  0  0  0  0  0  0  0  0  0  0
   38.1950   25.2620   30.3930 H   0  0  0  0  0  0  0  0  0  0  0  0
   37.2270   22.9550   32.4900 O   0  0  0  0  0  0  0  0  0  0  0  0
   37.7230   21.5200   30.2660 F   0  0  0  0  0  0  0  0  0  0  0  0
   36.9740   21.0170   31.2970 C   0  0  0  0  0  0  0  0  0  0  0  0
   36.6790   21.7090   32.4790 C   0  0  0  0  0  0  0  0  0  0  0  0
   35.9080   21.0490   33.4130 C   0  0  0  0  0  0  0  0  0  0  0  0
   35.7260   21.6510   34.2970 H   0  0  0  0  0  0  0  0  0  0  0  0
   35.4460   19.7710   33.2060 C   0  0  0  0  0  0  0  0  0  0  0  0
   34.8460   19.3100   33.9800 H   0  0  0  0  0  0  0  0  0  0  0  0
   35.7280   19.0870   32.0560 C   0  0  0  0  0  3  0  0  0  0  0  0
   36.4970   19.7180   31.0990 C   0  0  0  0  0  3  0  0  0  0  0  0
  1  4  1  1  0  0  0
  1  8  1  0  0  0  0
  2  6  1  0  0  0  0
  2  5  1  0  0  0  0
  2  1  1  0  0  0  0
  3  7  1  6  0  0  0
  3  2  1  0  0  0  0
  3  1  1  0  0  0  0
  8  9  1  0  0  0  0
  9 15  1  0  0  0  0
  9 10  2  0  0  0  0
 10 16  1  0  0  0  0
 11 10  1  0  0  0  0
 12 11  2  0  0  0  0
 13  8  2  0  0  0  0
 13 12  1  0  0  0  0
 14 12  1  0  0  0  0
 14 18  1  0  0  0  0
 17 14  1  0  0  0  0
 19  3  1  0  0  0  0
 21 20  2  6  0  0  0
 21 24  1  0  0  0  0
 21 19  1  0  0  0  0
 22 23  1  0  0  0  0
 22 21  1  0  0  0  0
 25 26  1  0  0  0  0
 26 27  1  0  0  0  0
 27 24  1  0  0  0  0
 27 28  2  0  0  0  0
 28 29  1  0  0  0  0
 30 28  1  0  0  0  0
 30 31  1  0  0  0  0
 32 30  2  0  0  0  0
 33 26  2  0  0  0  0
 33 32  1  0  0  0  0
M  END
>  <minimizedAffinity>
-5.39534187

$$$$

 OpenBabel03272504583D

 33 35  0  0  1  0  0  0  0  0999 V2000
   37.3680   25.8910   32.0800 C   0  0  1  0  0  0  0  0  0  0  0  0
   36.2940   26.8460   31.9190 C   0  0  0  0  0  0  0  0  0  0  0  0
   36.8530   26.5860   33.2610 C   0  0  2  0  0  0  0  0  0  0  0  0
   38.4620   26.1280   31.8480 H   0  0  0  0  0  0  0  0  0  0  0  0
   36.5600   27.4770   31.1020 H   0  0  0  0  0  0  0  0  0  0  0  0
   35.2860   26.4060   31.7320 H   0  0  0  0  0  0  0  0  0  0  0  0
   36.0910   26.2730   33.9480 H   0  0  0  0  0  0  0  0  0  0  0  0
   37.0980   24.4170   31.9850 C   0  0  0  0  0  0  0  0  0  0  0  0
   35.9160   24.0460   31.2970 C   0  0  0  0  0  0  0  0  0  0  0  0
   35.7000   22.6910   31.2250 C   0  0  0  0  0  0  0  0  0  0  0  0
   36.5940   21.8160   31.7930 N   0  0  0  0  0  0  0  0  0  0  0  0
   37.7080   22.2200   32.4400 C   0  0  0  0  0  0  0  0  0  0  0  0
   37.9540   23.5630   32.5300 N   0  0  0  0  0  0  0  0  0  0  0  0
   38.6200   21.3290   33.0110 N   0  0  0  0  0  0  0  0  0  0  0  0
   35.2250   24.7290   30.8570 H   0  0  0  0  0  0  0  0  0  0  0  0
   34.8520   22.2570   30.7390 H   0  0  0  0  0  0  0  0  0  0  0  0
   39.4540   21.6430   33.5120 H   0  0  0  0  0  0  0  0  0  0  0  0
   38.4310   20.3020   32.9160 H   0  0  0  0  0  0  0  0  0  0  0  0
   37.6900   27.5710   33.7970 O   0  0  0  0  0  0  0  0  0  0  0  0
   40.1100   26.9950   34.4580 O   0  0  0  0  0  0  0  0  0  0  0  0
   38.6970   26.9080   34.9520 P   0  0  1  0  0  0  0  0  0  0  0  0
   38.6570   27.8670   36.3560 O   0  0  0  0  0  0  0  0  0  0  0  0
   37.8460   28.3080   36.5750 H   0  0  0  0  0  0  0  0  0  0  0  0
   38.2280   25.3340   35.2860 O   0  0  0  0  0  0  0  0  0  0  0  0
   40.3500   23.8240   34.5990 F   0  0  0  0  0  0  0  0  0  0  0  0
   39.7720   23.7360   35.8390 C   0  0  0  0  0  0  0  0  0  0  0  0
   38.6690   24.4910   36.2590 C   0  0  0  0  0  0  0  0  0  0  0  0
   38.2160   24.2720   37.5430 C   0  0  0  0  0  0  0  0  0  0  0  0
   37.3630   24.8940   37.7900 H   0  0  0  0  0  0  0  0  0  0  0  0
   38.8110   23.3600   38.3820 C   0  0  0  0  0  0  0  0  0  0  0  0
   38.4060   23.2370   39.3780 H   0  0  0  0  0  0  0  0  0  0  0  0
   39.8880   22.6180   37.9810 C   0  0  0  0  0  3  0  0  0  0  0  0
   40.3670   22.8110   36.7010 C   0  0  0  0  0  3  0  0  0  0  0  0
  1  4  1  6  0  0  0
  1  3  1  0  0  0  0
  2  1  1  0  0  0  0
  2  3  1  0  0  0  0
  3 19  1  0  0  0  0
  3  7  1  1  0  0  0
  5  2  1  0  0  0  0
  6  2  1  0  0  0  0
  8  1  1  0  0  0  0
  8 13  1  0  0  0  0
  9  8  2  0  0  0  0
 10  9  1  0  0  0  0
 10 11  2  0  0  0  0
 11 12  1  0  0  0  0
 12 13  2  0  0  0  0
 12 14  1  0  0  0  0
 14 17  1  0  0  0  0
 15  9  1  0  0  0  0
 16 10  1  0  0  0  0
 18 14  1  0  0  0  0
 19 21  1  0  0  0  0
 21 20  2  6  0  0  0
 21 24  1  0  0  0  0
 21 22  1  0  0  0  0
 22 23  1  0  0  0  0
 24 27  1  0  0  0  0
 25 26  1  0  0  0  0
 26 27  2  0  0  0  0
 26 33  1  0  0  0  0
 27 28  1  0  0  0  0
 28 29  1  0  0  0  0
 28 30  2  0  0  0  0
 30 31  1  0  0  0  0
 32 30  1  0  0  0  0
 33 32  2  0  0  0  0
M  END
>  <minimizedAffinity>
-5.3601923

$$$$
