REMARK  Name = 
REMARK  7 active torsions:
REMARK  status: ('A' for Active; 'I' for Inactive)
REMARK    1  A    between atoms: C_1  and  C_7
REMARK    2  A    between atoms: C_6  and  C_15
REMARK    3  A    between atoms: C_7  and  O_8
REMARK    4  A    between atoms: C_7  and  C_13
REMARK    5  A    between atoms: C_16  and  C_17
REMARK    6  A    between atoms: C_17  and  S_18
REMARK    7  A    between atoms: S_18  and  C_34
REMARK                            x       y       z     vdW  Elec       q    Type
REMARK                         _______ _______ _______ _____ _____    ______ ____
ROOT
ATOM      1  C   UNL     1      37.080  30.948  49.029  0.00  0.00    +0.000 A 
ATOM      2  C   UNL     1      36.811  31.879  50.035  0.00  0.00    +0.000 A 
ATOM      3  C   UNL     1      37.422  33.121  50.064  0.00  0.00    +0.000 A 
ATOM      4  C   UNL     1      38.336  33.461  49.060  0.00  0.00    +0.000 A 
ATOM      5  C   UNL     1      38.591  32.542  48.082  0.00  0.00    +0.000 A 
ATOM      6  C   UNL     1      37.959  31.307  48.087  0.00  0.00    +0.000 A 
ATOM      7  H   UNL     1      36.098  31.609  50.813  0.00  0.00    +0.000 HD
ATOM      8  H   UNL     1      37.154  33.765  50.871  0.00  0.00    +0.000 HD
ATOM      9  H   UNL     1      38.751  34.434  49.169  0.00  0.00    +0.000 HD
ATOM     10  H   UNL     1      39.318  32.948  47.381  0.00  0.00    +0.000 HD
ENDROOT
BRANCH   1  11
ATOM     11  C   UNL     1      36.467  29.637  49.017  0.00  0.00    +0.000 C 
ATOM     12  H   UNL     1      37.007  29.057  48.175  0.00  0.00    +0.000 HD
BRANCH  11  17
ATOM     13  C   UNL     1      33.614  30.150  46.825  0.00  0.00    +0.000 A 
ATOM     14  C   UNL     1      32.953  28.934  46.846  0.00  0.00    +0.000 A 
ATOM     15  C   UNL     1      33.448  27.939  47.667  0.00  0.00    +0.000 A 
ATOM     16  N   UNL     1      34.570  28.186  48.426  0.00  0.00    +0.000 NA
ATOM     17  C   UNL     1      35.156  29.363  48.361  0.00  0.00    +0.000 A 
ATOM     18  N   UNL     1      34.686  30.351  47.565  0.00  0.00    +0.000 NA
ATOM     19  H   UNL     1      33.195  30.904  46.169  0.00  0.00    +0.000 HD
ATOM     20  H   UNL     1      32.076  28.650  46.292  0.00  0.00    +0.000 HD
ATOM     21  H   UNL     1      33.059  26.927  47.812  0.00  0.00    +0.000 HD
ENDBRANCH  11  17
BRANCH  11  22
ATOM     22  O   UNL     1      36.864  28.899  49.991  0.00  0.00    +0.000 OA
ATOM     23  H   UNL     1      36.588  29.053  50.924  0.00  0.00    +0.000 HD
ENDBRANCH  11  22
ENDBRANCH   1  11
BRANCH   6  24
ATOM     24  C   UNL     1      38.344  30.420  47.013  0.00  0.00    +0.000 C 
ATOM     25  C   UNL     1      38.822  30.838  45.836  0.00  0.00    +0.000 C 
BRANCH  25  26
ATOM     26  C   UNL     1      39.286  30.021  44.690  0.00  0.00    +0.000 C 
ATOM     27  H   UNL     1      38.772  29.049  44.608  0.00  0.00    +0.000 HD
ATOM     28  H   UNL     1      40.375  29.765  44.842  0.00  0.00    +0.000 HD
BRANCH  26  29
ATOM     29  S   UNL     1      39.185  30.989  43.181  0.00  0.00    +0.000 S 
BRANCH  29  32
ATOM     30  F   UNL     1      41.991  30.390  42.667  0.00  0.00    +0.000 F 
ATOM     31  C   UNL     1      41.133  29.871  41.773  0.00  0.00    +0.000 A 
ATOM     32  C   UNL     1      39.743  30.013  41.796  0.00  0.00    +0.000 A 
ATOM     33  C   UNL     1      38.978  29.424  40.811  0.00  0.00    +0.000 A 
ATOM     34  H   UNL     1      37.928  29.594  40.922  0.00  0.00    +0.000 HD
ATOM     35  C   UNL     1      39.591  28.699  39.810  0.00  0.00    +0.000 A 
ATOM     36  H   UNL     1      38.980  28.255  39.063  0.00  0.00    +0.000 HD
ATOM     37  C   UNL     1      40.980  28.542  39.765  0.00  0.00    +0.000 A 
ATOM     38  C   UNL     1      41.728  29.134  40.752  0.00  0.00    +0.000 A 
ENDBRANCH  29  32
ENDBRANCH  26  29
ENDBRANCH  25  26
ENDBRANCH   6  24
TORSDOF 7
