
 OpenBabel03272509423D

 38 40  0  0  1  0  0  0  0  0999 V2000
   37.0250   30.9160   49.0850 C   0  0  0  0  0  0  0  0  0  0  0  0
   36.7030   31.8250   50.0960 C   0  0  0  0  0  0  0  0  0  0  0  0
   37.2740   33.0850   50.1550 C   0  0  0  0  0  0  0  0  0  0  0  0
   38.2000   33.4670   49.1780 C   0  0  0  0  0  0  0  0  0  0  0  0
   38.5070   32.5690   48.1950 C   0  0  0  0  0  0  0  0  0  0  0  0
   37.9150   31.3150   48.1690 C   0  0  0  0  0  0  0  0  0  0  0  0
   35.9810   31.5220   50.8530 H   0  0  0  0  0  0  0  0  0  0  0  0
   36.9660   33.7090   50.9640 H   0  0  0  0  0  0  0  0  0  0  0  0
   38.5810   34.4510   49.3090 H   0  0  0  0  0  0  0  0  0  0  0  0
   39.2380   33.0070   47.5170 H   0  0  0  0  0  0  0  0  0  0  0  0
   36.4550   29.5870   49.0420 C   0  0  2  0  0  0  0  0  0  0  0  0
   36.9570   29.0700   48.1380 H   0  0  0  0  0  0  0  0  0  0  0  0
   33.6010   29.9170   46.8160 C   0  0  0  0  0  0  0  0  0  0  0  0
   32.8530   28.7780   47.0600 C   0  0  0  0  0  0  0  0  0  0  0  0
   33.2910   27.9110   48.0420 C   0  0  0  0  0  0  0  0  0  0  0  0
   34.4440   28.2030   48.7360 N   0  0  0  0  0  0  0  0  0  0  0  0
   35.1130   29.3010   48.4560 C   0  0  0  0  0  0  0  0  0  0  0  0
   34.7010   30.1640   47.4990 N   0  0  0  0  0  0  0  0  0  0  0  0
   33.2250   30.5720   46.0380 H   0  0  0  0  0  0  0  0  0  0  0  0
   31.9460   28.4680   46.5730 H   0  0  0  0  0  0  0  0  0  0  0  0
   32.8310   26.9740   48.3690 H   0  0  0  0  0  0  0  0  0  0  0  0
   36.9370   28.8140   49.9480 O   0  0  0  0  0  0  0  0  0  0  0  0
   36.7170   28.9110   50.9030 H   0  0  0  0  0  0  0  0  0  0  0  0
   38.3530   30.4550   47.0940 C   0  0  0  0  0  3  0  0  0  0  0  0
   38.5370   30.8690   45.8350 C   0  0  0  0  0  3  0  0  0  0  0  0
   39.0230   30.0900   44.6730 C   0  0  0  0  0  0  0  0  0  0  0  0
   38.2390   29.8830   43.9250 H   0  0  0  0  0  0  0  0  0  0  0  0
   39.3620   29.0740   45.0310 H   0  0  0  0  0  0  0  0  0  0  0  0
   40.4610   30.8990   43.9650 S   0  0  0  0  0  0  0  0  0  0  0  0
   41.9590   29.0270   42.3060 F   0  0  0  0  0  0  0  0  0  0  0  0
   41.1730   29.8770   41.6240 C   0  0  0  0  0  0  0  0  0  0  0  0
   40.3600   30.8660   42.1840 C   0  0  0  0  0  0  0  0  0  0  0  0
   39.6010   31.6740   41.3630 C   0  0  0  0  0  0  0  0  0  0  0  0
   39.0150   32.3960   41.8920 H   0  0  0  0  0  0  0  0  0  0  0  0
   39.6510   31.5010   39.9960 C   0  0  0  0  0  0  0  0  0  0  0  0
   39.0570   32.1350   39.3850 H   0  0  0  0  0  0  0  0  0  0  0  0
   40.4570   30.5180   39.4120 C   0  0  0  0  0  3  0  0  0  0  0  0
   41.2070   29.7210   40.2410 C   0  0  0  0  0  3  0  0  0  0  0  0
  1  2  1  0  0  0  0
  2  3  2  0  0  0  0
  2  7  1  0  0  0  0
  3  8  1  0  0  0  0
  4  9  1  0  0  0  0
  4  3  1  0  0  0  0
  5  4  2  0  0  0  0
  6  5  1  0  0  0  0
  6  1  2  0  0  0  0
 10  5  1  0  0  0  0
 11 12  1  6  0  0  0
 11  1  1  0  0  0  0
 11 22  1  0  0  0  0
 13 14  2  0  0  0  0
 13 18  1  0  0  0  0
 14 15  1  0  0  0  0
 15 21  1  0  0  0  0
 15 16  2  0  0  0  0
 17 16  1  0  0  0  0
 17 11  1  0  0  0  0
 18 17  2  0  0  0  0
 19 13  1  0  0  0  0
 20 14  1  0  0  0  0
 22 23  1  0  0  0  0
 24  6  1  0  0  0  0
 25 24  2  0  0  0  0
 26 28  1  0  0  0  0
 26 25  1  0  0  0  0
 27 26  1  0  0  0  0
 29 26  1  0  0  0  0
 31 32  1  0  0  0  0
 31 30  1  0  0  0  0
 32 29  1  0  0  0  0
 33 34  1  0  0  0  0
 33 32  2  0  0  0  0
 35 33  1  0  0  0  0
 36 35  1  0  0  0  0
 37 35  2  0  0  0  0
 37 38  1  0  0  0  0
 38 31  2  0  0  0  0
M  END
>  <minimizedAffinity>
-6.07316637

>  <minimizedRMSD>
1.05500591

$$$$
