
 OpenBabel03272500243D

 31 33  0  0  0  0  0  0  0  0999 V2000
   37.4910   23.9940   32.5560 C   0  0  0  0  0  0  0  0  0  0  0  0
   37.7880   25.3090   32.8600 C   0  0  0  0  0  0  0  0  0  0  0  0
   38.2170   25.3630   34.1580 C   0  0  0  0  0  0  0  0  0  0  0  0
   38.1770   24.1110   34.6220 N   0  0  0  0  0  0  0  0  0  0  0  0
   37.7470   23.3230   33.6670 N   0  0  0  0  0  0  0  0  0  0  0  0
   37.7160   26.1750   32.2300 H   0  0  0  0  0  0  0  0  0  0  0  0
   38.5280   26.2640   34.6960 H   0  0  0  0  0  0  0  0  0  0  0  0
   40.3770   22.5130   35.3470 F   0  0  0  0  0  0  0  0  0  0  0  0
   39.6400   23.0150   36.3430 C   0  0  0  0  0  0  0  0  0  0  0  0
   38.5640   23.7970   35.9630 C   0  0  0  0  0  0  0  0  0  0  0  0
   37.7540   24.3520   36.9620 C   0  0  0  0  0  0  0  0  0  0  0  0
   36.8910   24.9770   36.7240 H   0  0  0  0  0  0  0  0  0  0  0  0
   38.0300   24.1160   38.2950 C   0  0  0  0  0  0  0  0  0  0  0  0
   37.3760   24.5650   39.0550 H   0  0  0  0  0  0  0  0  0  0  0  0
   39.1000   23.3390   38.6760 C   0  0  0  0  0  3  0  0  0  0  0  0
   39.8930   22.7970   37.6840 C   0  0  0  0  0  3  0  0  0  0  0  0
   36.9980   23.6070   31.2160 C   0  0  0  0  0  0  0  0  0  0  0  0
   36.7960   24.5340   30.5900 H   0  0  0  0  0  0  0  0  0  0  0  0
   37.8490   23.1560   30.6930 H   0  0  0  0  0  0  0  0  0  0  0  0
   35.7230   22.8570   31.2430 C   0  0  0  0  0  0  0  0  0  0  0  0
   35.0630   23.0660   30.3460 H   0  0  0  0  0  0  0  0  0  0  0  0
   35.1170   23.3130   32.0860 H   0  0  0  0  0  0  0  0  0  0  0  0
   35.7490   21.4350   31.4270 C   0  0  0  0  0  0  0  0  0  0  0  0
   35.2210   20.8590   32.5500 C   0  0  0  0  0  0  0  0  0  0  0  0
   35.2510   19.4590   32.7330 C   0  0  0  0  0  0  0  0  0  0  0  0
   35.8420   18.7400   31.7050 N   0  0  0  0  0  0  0  0  0  0  0  0
   36.3510   19.3540   30.6140 C   0  0  0  0  0  0  0  0  0  0  0  0
   36.3010   20.6930   30.4800 N   0  0  0  0  0  0  0  0  0  0  0  0
   34.7400   21.3070   33.4020 H   0  0  0  0  0  0  0  0  0  0  0  0
   34.8640   18.9160   33.5780 H   0  0  0  0  0  0  0  0  0  0  0  0
   36.7910   18.7160   29.8670 H   0  0  0  0  0  0  0  0  0  0  0  0
  1  2  1  0  0  0  0
  1  5  2  0  0  0  0
  2  3  2  0  0  0  0
  3  4  1  0  0  0  0
  3  7  1  0  0  0  0
  4 10  1  0  0  0  0
  5  4  1  0  0  0  0
  6  2  1  0  0  0  0
  8  9  1  0  0  0  0
  9 16  1  0  0  0  0
 10  9  2  0  0  0  0
 10 11  1  0  0  0  0
 11 13  2  0  0  0  0
 12 11  1  0  0  0  0
 13 15  1  0  0  0  0
 13 14  1  0  0  0  0
 16 15  2  0  0  0  0
 17 20  1  0  0  0  0
 17  1  1  0  0  0  0
 18 17  1  0  0  0  0
 19 17  1  0  0  0  0
 20 23  1  0  0  0  0
 20 22  1  0  0  0  0
 21 20  1  0  0  0  0
 23 24  1  0  0  0  0
 24 25  2  0  0  0  0
 24 29  1  0  0  0  0
 25 30  1  0  0  0  0
 26 25  1  0  0  0  0
 27 26  2  0  0  0  0
 28 27  1  0  0  0  0
 28 23  2  0  0  0  0
 31 27  1  0  0  0  0
M  END
>  <minimizedAffinity>
-5.24064016

$$$$

 OpenBabel03272500243D

 31 33  0  0  0  0  0  0  0  0999 V2000
   36.4530   28.3170   33.2770 C   0  0  0  0  0  0  0  0  0  0  0  0
   36.0170   29.2560   32.3610 C   0  0  0  0  0  0  0  0  0  0  0  0
   35.3460   30.2370   33.0400 C   0  0  0  0  0  0  0  0  0  0  0  0
   35.3780   29.8940   34.3300 N   0  0  0  0  0  0  0  0  0  0  0  0
   36.0310   28.7630   34.4480 N   0  0  0  0  0  0  0  0  0  0  0  0
   36.1520   29.2660   31.2960 H   0  0  0  0  0  0  0  0  0  0  0  0
   34.8800   31.1220   32.5960 H   0  0  0  0  0  0  0  0  0  0  0  0
   36.7140   31.7740   35.9420 F   0  0  0  0  0  0  0  0  0  0  0  0
   35.4000   31.6350   36.1380 C   0  0  0  0  0  0  0  0  0  0  0  0
   34.7630   30.7050   35.3350 C   0  0  0  0  0  0  0  0  0  0  0  0
   33.3850   30.5150   35.4940 C   0  0  0  0  0  0  0  0  0  0  0  0
   32.8280   29.7960   34.8900 H   0  0  0  0  0  0  0  0  0  0  0  0
   32.6850   31.2430   36.4360 C   0  0  0  0  0  0  0  0  0  0  0  0
   31.6040   31.0710   36.5370 H   0  0  0  0  0  0  0  0  0  0  0  0
   33.3140   32.1690   37.2370 C   0  0  0  0  0  3  0  0  0  0  0  0
   34.6730   32.3500   37.0720 C   0  0  0  0  0  3  0  0  0  0  0  0
   37.2160   27.1230   32.8500 C   0  0  0  0  0  0  0  0  0  0  0  0
   36.5360   26.2130   32.8170 H   0  0  0  0  0  0  0  0  0  0  0  0
   37.4530   27.2720   31.7900 H   0  0  0  0  0  0  0  0  0  0  0  0
   38.3220   26.7640   33.7650 C   0  0  0  0  0  0  0  0  0  0  0  0
   38.6380   27.6170   34.4400 H   0  0  0  0  0  0  0  0  0  0  0  0
   39.2360   26.6400   33.1060 H   0  0  0  0  0  0  0  0  0  0  0  0
   38.1990   25.5960   34.5890 C   0  0  0  0  0  0  0  0  0  0  0  0
   38.0110   25.7030   35.9390 C   0  0  0  0  0  0  0  0  0  0  0  0
   37.8950   24.5530   36.7520 C   0  0  0  0  0  0  0  0  0  0  0  0
   37.9830   23.3440   36.0800 N   0  0  0  0  0  0  0  0  0  0  0  0
   38.1690   23.2880   34.7430 C   0  0  0  0  0  0  0  0  0  0  0  0
   38.2760   24.4110   34.0070 N   0  0  0  0  0  0  0  0  0  0  0  0
   37.9250   26.5760   36.5640 H   0  0  0  0  0  0  0  0  0  0  0  0
   37.7470   24.5360   37.8180 H   0  0  0  0  0  0  0  0  0  0  0  0
   38.2260   22.3050   34.3080 H   0  0  0  0  0  0  0  0  0  0  0  0
  1  5  2  0  0  0  0
  2  3  2  0  0  0  0
  2  1  1  0  0  0  0
  3  4  1  0  0  0  0
  4  5  1  0  0  0  0
  4 10  1  0  0  0  0
  6  2  1  0  0  0  0
  7  3  1  0  0  0  0
  8  9  1  0  0  0  0
  9 16  1  0  0  0  0
 10 11  1  0  0  0  0
 10  9  2  0  0  0  0
 11 13  2  0  0  0  0
 12 11  1  0  0  0  0
 13 14  1  0  0  0  0
 13 15  1  0  0  0  0
 16 15  2  0  0  0  0
 17  1  1  0  0  0  0
 17 20  1  0  0  0  0
 18 17  1  0  0  0  0
 19 17  1  0  0  0  0
 20 21  1  0  0  0  0
 20 23  1  0  0  0  0
 22 20  1  0  0  0  0
 23 24  1  0  0  0  0
 24 29  1  0  0  0  0
 24 25  2  0  0  0  0
 25 30  1  0  0  0  0
 26 25  1  0  0  0  0
 27 26  2  0  0  0  0
 28 23  2  0  0  0  0
 28 27  1  0  0  0  0
 31 27  1  0  0  0  0
M  END
>  <minimizedAffinity>
-5.15357447

$$$$

 OpenBabel03272500243D

 31 33  0  0  0  0  0  0  0  0999 V2000
   36.1660   29.0090   32.3570 C   0  0  0  0  0  0  0  0  0  0  0  0
   36.1700   30.3080   31.8830 C   0  0  0  0  0  0  0  0  0  0  0  0
   35.6290   31.1160   32.8470 C   0  0  0  0  0  0  0  0  0  0  0  0
   35.3090   30.3220   33.8720 N   0  0  0  0  0  0  0  0  0  0  0  0
   35.6320   29.0890   33.5640 N   0  0  0  0  0  0  0  0  0  0  0  0
   36.5210   30.6760   30.9390 H   0  0  0  0  0  0  0  0  0  0  0  0
   35.4930   32.1990   32.7740 H   0  0  0  0  0  0  0  0  0  0  0  0
   36.6460   31.8430   35.8260 F   0  0  0  0  0  0  0  0  0  0  0  0
   35.3510   31.5910   36.0370 C   0  0  0  0  0  0  0  0  0  0  0  0
   34.7130   30.8420   35.0640 C   0  0  0  0  0  0  0  0  0  0  0  0
   33.3550   30.5470   35.2290 C   0  0  0  0  0  0  0  0  0  0  0  0
   32.7980   29.9600   34.4960 H   0  0  0  0  0  0  0  0  0  0  0  0
   32.6740   30.9960   36.3430 C   0  0  0  0  0  0  0  0  0  0  0  0
   31.6080   30.7480   36.4440 H   0  0  0  0  0  0  0  0  0  0  0  0
   33.3030   31.7420   37.3140 C   0  0  0  0  0  3  0  0  0  0  0  0
   34.6440   32.0290   37.1420 C   0  0  0  0  0  3  0  0  0  0  0  0
   36.6910   27.8920   31.5410 C   0  0  0  0  0  0  0  0  0  0  0  0
   36.9440   28.2570   30.4940 H   0  0  0  0  0  0  0  0  0  0  0  0
   37.6810   27.6530   31.9460 H   0  0  0  0  0  0  0  0  0  0  0  0
   35.7290   26.7840   31.3580 C   0  0  0  0  0  0  0  0  0  0  0  0
   35.2860   26.7450   30.3160 H   0  0  0  0  0  0  0  0  0  0  0  0
   34.8240   27.0580   31.9830 H   0  0  0  0  0  0  0  0  0  0  0  0
   36.1240   25.4480   31.7000 C   0  0  0  0  0  0  0  0  0  0  0  0
   35.4630   24.3650   31.1880 C   0  0  0  0  0  0  0  0  0  0  0  0
   35.8490   23.0490   31.5290 C   0  0  0  0  0  0  0  0  0  0  0  0
   36.9250   22.9550   32.3980 N   0  0  0  0  0  0  0  0  0  0  0  0
   37.5470   24.0540   32.8770 C   0  0  0  0  0  0  0  0  0  0  0  0
   37.1450   25.2910   32.5270 N   0  0  0  0  0  0  0  0  0  0  0  0
   34.6270   24.3140   30.5110 H   0  0  0  0  0  0  0  0  0  0  0  0
   35.3930   22.1390   31.1800 H   0  0  0  0  0  0  0  0  0  0  0  0
   38.3720   23.8850   33.5470 H   0  0  0  0  0  0  0  0  0  0  0  0
  1  5  2  0  0  0  0
  2  1  1  0  0  0  0
  2  3  2  0  0  0  0
  3  4  1  0  0  0  0
  4 10  1  0  0  0  0
  5  4  1  0  0  0  0
  6  2  1  0  0  0  0
  7  3  1  0  0  0  0
  8  9  1  0  0  0  0
  9 16  1  0  0  0  0
 10 11  1  0  0  0  0
 10  9  2  0  0  0  0
 11 13  2  0  0  0  0
 12 11  1  0  0  0  0
 13 14  1  0  0  0  0
 13 15  1  0  0  0  0
 16 15  2  0  0  0  0
 17 19  1  0  0  0  0
 17  1  1  0  0  0  0
 18 17  1  0  0  0  0
 20 17  1  0  0  0  0
 20 23  1  0  0  0  0
 20 22  1  0  0  0  0
 21 20  1  0  0  0  0
 23 28  1  0  0  0  0
 24 25  1  0  0  0  0
 24 23  2  0  0  0  0
 25 26  2  0  0  0  0
 26 27  1  0  0  0  0
 27 31  1  0  0  0  0
 28 27  2  0  0  0  0
 29 24  1  0  0  0  0
 30 25  1  0  0  0  0
M  END
>  <minimizedAffinity>
-5.10819197

$$$$

 OpenBabel03272500243D

 31 33  0  0  0  0  0  0  0  0999 V2000
   36.0540   28.7480   32.8260 C   0  0  0  0  0  0  0  0  0  0  0  0
   36.0230   29.9640   32.1690 C   0  0  0  0  0  0  0  0  0  0  0  0
   35.4730   30.8920   33.0120 C   0  0  0  0  0  0  0  0  0  0  0  0
   35.1820   30.2480   34.1450 N   0  0  0  0  0  0  0  0  0  0  0  0
   35.5290   28.9900   34.0160 N   0  0  0  0  0  0  0  0  0  0  0  0
   36.3570   30.1980   31.1770 H   0  0  0  0  0  0  0  0  0  0  0  0
   35.3120   31.9500   32.7850 H   0  0  0  0  0  0  0  0  0  0  0  0
   36.5640   31.8330   36.0140 F   0  0  0  0  0  0  0  0  0  0  0  0
   35.2460   31.7070   36.1880 C   0  0  0  0  0  0  0  0  0  0  0  0
   34.5860   30.9230   35.2570 C   0  0  0  0  0  0  0  0  0  0  0  0
   33.2020   30.7530   35.3860 C   0  0  0  0  0  0  0  0  0  0  0  0
   32.6270   30.1460   34.6830 H   0  0  0  0  0  0  0  0  0  0  0  0
   32.5180   31.3570   36.4230 C   0  0  0  0  0  0  0  0  0  0  0  0
   31.4330   31.2050   36.4960 H   0  0  0  0  0  0  0  0  0  0  0  0
   33.1700   32.1380   37.3500 C   0  0  0  0  0  3  0  0  0  0  0  0
   34.5350   32.3000   37.2150 C   0  0  0  0  0  3  0  0  0  0  0  0
   36.5970   27.5360   32.1740 C   0  0  0  0  0  0  0  0  0  0  0  0
   35.9320   26.6400   32.3940 H   0  0  0  0  0  0  0  0  0  0  0  0
   36.4480   27.6730   31.0960 H   0  0  0  0  0  0  0  0  0  0  0  0
   37.9470   27.1580   32.6460 C   0  0  0  0  0  0  0  0  0  0  0  0
   38.6870   28.0140   32.6100 H   0  0  0  0  0  0  0  0  0  0  0  0
   38.3630   26.4600   31.8550 H   0  0  0  0  0  0  0  0  0  0  0  0
   38.0910   26.5250   33.9250 C   0  0  0  0  0  0  0  0  0  0  0  0
   38.3770   27.2570   35.0450 C   0  0  0  0  0  0  0  0  0  0  0  0
   38.5240   26.6340   36.3040 C   0  0  0  0  0  0  0  0  0  0  0  0
   38.3560   25.2580   36.3060 N   0  0  0  0  0  0  0  0  0  0  0  0
   38.0740   24.5780   35.1730 C   0  0  0  0  0  0  0  0  0  0  0  0
   37.9430   25.2120   33.9930 N   0  0  0  0  0  0  0  0  0  0  0  0
   38.5240   28.3170   35.1660 H   0  0  0  0  0  0  0  0  0  0  0  0
   38.7470   27.1230   37.2370 H   0  0  0  0  0  0  0  0  0  0  0  0
   37.9610   23.5110   35.2700 H   0  0  0  0  0  0  0  0  0  0  0  0
  1  5  2  0  0  0  0
  2  1  1  0  0  0  0
  2  3  2  0  0  0  0
  3  4  1  0  0  0  0
  4 10  1  0  0  0  0
  5  4  1  0  0  0  0
  6  2  1  0  0  0  0
  7  3  1  0  0  0  0
  8  9  1  0  0  0  0
  9 16  1  0  0  0  0
 10 11  1  0  0  0  0
 10  9  2  0  0  0  0
 11 13  2  0  0  0  0
 12 11  1  0  0  0  0
 13 14  1  0  0  0  0
 13 15  1  0  0  0  0
 16 15  2  0  0  0  0
 17 18  1  0  0  0  0
 17 20  1  0  0  0  0
 17  1  1  0  0  0  0
 19 17  1  0  0  0  0
 20 23  1  0  0  0  0
 21 20  1  0  0  0  0
 22 20  1  0  0  0  0
 23 28  2  0  0  0  0
 23 24  1  0  0  0  0
 24 29  1  0  0  0  0
 24 25  2  0  0  0  0
 25 26  1  0  0  0  0
 25 30  1  0  0  0  0
 27 31  1  0  0  0  0
 27 26  2  0  0  0  0
 28 27  1  0  0  0  0
M  END
>  <minimizedAffinity>
-5.0337224

$$$$

 OpenBabel03272500243D

 31 33  0  0  0  0  0  0  0  0999 V2000
   37.2060   27.0060   34.2160 C   0  0  0  0  0  0  0  0  0  0  0  0
   37.7450   27.7690   35.2360 C   0  0  0  0  0  0  0  0  0  0  0  0
   38.4460   26.9380   36.0680 C   0  0  0  0  0  0  0  0  0  0  0  0
   38.3300   25.7080   35.5600 N   0  0  0  0  0  0  0  0  0  0  0  0
   37.5980   25.7690   34.4740 N   0  0  0  0  0  0  0  0  0  0  0  0
   37.6620   28.8270   35.3970 H   0  0  0  0  0  0  0  0  0  0  0  0
   38.9900   27.2400   36.9680 H   0  0  0  0  0  0  0  0  0  0  0  0
   37.4320   24.4670   37.9200 F   0  0  0  0  0  0  0  0  0  0  0  0
   38.5240   23.9540   37.3450 C   0  0  0  0  0  0  0  0  0  0  0  0
   38.9480   24.5790   36.1860 C   0  0  0  0  0  0  0  0  0  0  0  0
   40.0860   24.0870   35.5370 C   0  0  0  0  0  0  0  0  0  0  0  0
   40.4690   24.5390   34.6190 H   0  0  0  0  0  0  0  0  0  0  0  0
   40.7660   23.0000   36.0500 C   0  0  0  0  0  0  0  0  0  0  0  0
   41.6570   22.6370   35.5180 H   0  0  0  0  0  0  0  0  0  0  0  0
   40.3480   22.3740   37.2020 C   0  0  0  0  0  3  0  0  0  0  0  0
   39.2240   22.8670   37.8360 C   0  0  0  0  0  3  0  0  0  0  0  0
   36.3870   27.6190   33.1480 C   0  0  0  0  0  0  0  0  0  0  0  0
   36.9500   27.5980   32.1610 H   0  0  0  0  0  0  0  0  0  0  0  0
   35.5600   26.9260   32.9570 H   0  0  0  0  0  0  0  0  0  0  0  0
   36.0590   29.0410   33.3910 C   0  0  0  0  0  0  0  0  0  0  0  0
   36.4390   29.7320   32.5780 H   0  0  0  0  0  0  0  0  0  0  0  0
   36.6940   29.3550   34.2760 H   0  0  0  0  0  0  0  0  0  0  0  0
   34.6990   29.4120   33.6600 C   0  0  0  0  0  0  0  0  0  0  0  0
   34.3530   30.0150   34.8370 C   0  0  0  0  0  0  0  0  0  0  0  0
   33.0130   30.3760   35.1040 C   0  0  0  0  0  0  0  0  0  0  0  0
   32.1090   30.0760   34.0970 N   0  0  0  0  0  0  0  0  0  0  0  0
   32.4990   29.4790   32.9490 C   0  0  0  0  0  0  0  0  0  0  0  0
   33.7880   29.1510   32.7370 N   0  0  0  0  0  0  0  0  0  0  0  0
   34.9590   30.2970   35.6810 H   0  0  0  0  0  0  0  0  0  0  0  0
   32.6450   30.8520   35.9960 H   0  0  0  0  0  0  0  0  0  0  0  0
   31.7270   29.2840   32.2240 H   0  0  0  0  0  0  0  0  0  0  0  0
  1  5  2  0  0  0  0
  1  2  1  0  0  0  0
  2  6  1  0  0  0  0
  2  3  2  0  0  0  0
  3  7  1  0  0  0  0
  4  3  1  0  0  0  0
  4 10  1  0  0  0  0
  5  4  1  0  0  0  0
  9 16  1  0  0  0  0
  9  8  1  0  0  0  0
 10  9  2  0  0  0  0
 11 13  2  0  0  0  0
 11 10  1  0  0  0  0
 12 11  1  0  0  0  0
 13 15  1  0  0  0  0
 14 13  1  0  0  0  0
 15 16  2  0  0  0  0
 17 20  1  0  0  0  0
 17  1  1  0  0  0  0
 18 17  1  0  0  0  0
 19 17  1  0  0  0  0
 20 23  1  0  0  0  0
 20 22  1  0  0  0  0
 21 20  1  0  0  0  0
 23 24  1  0  0  0  0
 24 25  2  0  0  0  0
 24 29  1  0  0  0  0
 25 30  1  0  0  0  0
 26 25  1  0  0  0  0
 27 26  2  0  0  0  0
 28 27  1  0  0  0  0
 28 23  2  0  0  0  0
 31 27  1  0  0  0  0
M  END
>  <minimizedAffinity>
-5.0166173

$$$$

 OpenBabel03272500243D

 31 33  0  0  0  0  0  0  0  0999 V2000
   37.9390   25.4450   35.9780 C   0  0  0  0  0  0  0  0  0  0  0  0
   38.4250   26.6580   36.4310 C   0  0  0  0  0  0  0  0  0  0  0  0
   38.1850   27.6020   35.4700 C   0  0  0  0  0  0  0  0  0  0  0  0
   37.5710   26.9710   34.4650 N   0  0  0  0  0  0  0  0  0  0  0  0
   37.4370   25.7060   34.7830 N   0  0  0  0  0  0  0  0  0  0  0  0
   38.9120   26.8780   37.3620 H   0  0  0  0  0  0  0  0  0  0  0  0
   38.4500   28.6610   35.5290 H   0  0  0  0  0  0  0  0  0  0  0  0
   35.2980   28.6130   34.2350 F   0  0  0  0  0  0  0  0  0  0  0  0
   36.0570   28.4770   33.1450 C   0  0  0  0  0  0  0  0  0  0  0  0
   37.1700   27.6660   33.2800 C   0  0  0  0  0  0  0  0  0  0  0  0
   38.0050   27.4840   32.1720 C   0  0  0  0  0  0  0  0  0  0  0  0
   38.8970   26.8550   32.2180 H   0  0  0  0  0  0  0  0  0  0  0  0
   37.7170   28.1050   30.9720 C   0  0  0  0  0  0  0  0  0  0  0  0
   38.3920   27.9430   30.1200 H   0  0  0  0  0  0  0  0  0  0  0  0
   36.6120   28.9130   30.8330 C   0  0  0  0  0  3  0  0  0  0  0  0
   35.7940   29.0870   31.9320 C   0  0  0  0  0  3  0  0  0  0  0  0
   38.0500   24.2180   36.7970 C   0  0  0  0  0  0  0  0  0  0  0  0
   38.8210   24.3640   37.6190 H   0  0  0  0  0  0  0  0  0  0  0  0
   37.1160   24.1440   37.3680 H   0  0  0  0  0  0  0  0  0  0  0  0
   38.4950   23.0310   36.0360 C   0  0  0  0  0  0  0  0  0  0  0  0
   39.1850   22.3540   36.6280 H   0  0  0  0  0  0  0  0  0  0  0  0
   39.1920   23.4260   35.2340 H   0  0  0  0  0  0  0  0  0  0  0  0
   37.5160   22.1920   35.4080 C   0  0  0  0  0  0  0  0  0  0  0  0
   36.5610   21.5490   36.1460 C   0  0  0  0  0  0  0  0  0  0  0  0
   35.5990   20.7190   35.5280 C   0  0  0  0  0  0  0  0  0  0  0  0
   35.7040   20.6180   34.1490 N   0  0  0  0  0  0  0  0  0  0  0  0
   36.6650   21.2740   33.4620 C   0  0  0  0  0  0  0  0  0  0  0  0
   37.5630   22.0550   34.0920 N   0  0  0  0  0  0  0  0  0  0  0  0
   36.3810   21.5520   37.2070 H   0  0  0  0  0  0  0  0  0  0  0  0
   34.8130   20.1740   36.0210 H   0  0  0  0  0  0  0  0  0  0  0  0
   36.6700   21.1360   32.3940 H   0  0  0  0  0  0  0  0  0  0  0  0
  1  2  1  0  0  0  0
  1 17  1  0  0  0  0
  2  6  1  0  0  0  0
  3  7  1  0  0  0  0
  3  2  2  0  0  0  0
  4  5  1  0  0  0  0
  4  3  1  0  0  0  0
  5  1  2  0  0  0  0
  9 10  1  0  0  0  0
  9  8  1  0  0  0  0
 10  4  1  0  0  0  0
 11 12  1  0  0  0  0
 11 10  2  0  0  0  0
 13 11  1  0  0  0  0
 14 13  1  0  0  0  0
 15 13  2  0  0  0  0
 15 16  1  0  0  0  0
 16  9  2  0  0  0  0
 17 19  1  0  0  0  0
 17 18  1  0  0  0  0
 20 21  1  0  0  0  0
 20 17  1  0  0  0  0
 22 20  1  0  0  0  0
 23 20  1  0  0  0  0
 23 24  1  0  0  0  0
 24 29  1  0  0  0  0
 25 30  1  0  0  0  0
 25 24  2  0  0  0  0
 26 25  1  0  0  0  0
 27 28  1  0  0  0  0
 27 26  2  0  0  0  0
 28 23  2  0  0  0  0
 31 27  1  0  0  0  0
M  END
>  <minimizedAffinity>
-4.96048021

$$$$

 OpenBabel03272500243D

 31 33  0  0  0  0  0  0  0  0999 V2000
   37.3690   25.2560   33.0650 C   0  0  0  0  0  0  0  0  0  0  0  0
   36.5950   25.6050   31.9740 C   0  0  0  0  0  0  0  0  0  0  0  0
   36.1500   24.4550   31.3800 C   0  0  0  0  0  0  0  0  0  0  0  0
   36.6460   23.4420   32.0970 N   0  0  0  0  0  0  0  0  0  0  0  0
   37.3590   23.9340   33.0810 N   0  0  0  0  0  0  0  0  0  0  0  0
   36.3520   26.5850   31.6100 H   0  0  0  0  0  0  0  0  0  0  0  0
   35.5140   24.3940   30.4920 H   0  0  0  0  0  0  0  0  0  0  0  0
   38.2020   21.8680   30.3600 F   0  0  0  0  0  0  0  0  0  0  0  0
   37.1280   21.2880   30.9020 C   0  0  0  0  0  0  0  0  0  0  0  0
   36.3770   22.0800   31.7530 C   0  0  0  0  0  0  0  0  0  0  0  0
   35.2380   21.5270   32.3520 C   0  0  0  0  0  0  0  0  0  0  0  0
   34.6060   22.1030   33.0310 H   0  0  0  0  0  0  0  0  0  0  0  0
   34.8790   20.2190   32.0920 C   0  0  0  0  0  0  0  0  0  0  0  0
   33.9800   19.8140   32.5770 H   0  0  0  0  0  0  0  0  0  0  0  0
   35.6230   19.4270   31.2470 C   0  0  0  0  0  3  0  0  0  0  0  0
   36.7450   19.9810   30.6610 C   0  0  0  0  0  3  0  0  0  0  0  0
   37.9980   26.2860   33.9210 C   0  0  0  0  0  0  0  0  0  0  0  0
   38.3460   27.1630   33.2870 H   0  0  0  0  0  0  0  0  0  0  0  0
   37.1890   26.7350   34.5100 H   0  0  0  0  0  0  0  0  0  0  0  0
   39.2000   25.8110   34.6410 C   0  0  0  0  0  0  0  0  0  0  0  0
   39.8770   26.6520   34.9830 H   0  0  0  0  0  0  0  0  0  0  0  0
   39.8430   25.3000   33.8590 H   0  0  0  0  0  0  0  0  0  0  0  0
   39.0450   24.9150   35.7500 C   0  0  0  0  0  0  0  0  0  0  0  0
   38.1380   25.1710   36.7410 C   0  0  0  0  0  0  0  0  0  0  0  0
   37.9880   24.2900   37.8360 C   0  0  0  0  0  0  0  0  0  0  0  0
   38.8140   23.1770   37.8170 N   0  0  0  0  0  0  0  0  0  0  0  0
   39.6960   22.9670   36.8150 C   0  0  0  0  0  0  0  0  0  0  0  0
   39.8060   23.8330   35.7900 N   0  0  0  0  0  0  0  0  0  0  0  0
   37.4480   25.9890   36.8610 H   0  0  0  0  0  0  0  0  0  0  0  0
   37.3050   24.4060   38.6600 H   0  0  0  0  0  0  0  0  0  0  0  0
   40.2960   22.0760   36.8840 H   0  0  0  0  0  0  0  0  0  0  0  0
  1  5  2  0  0  0  0
  1 17  1  0  0  0  0
  2  1  1  0  0  0  0
  3  2  2  0  0  0  0
  3  4  1  0  0  0  0
  4  5  1  0  0  0  0
  6  2  1  0  0  0  0
  7  3  1  0  0  0  0
  8  9  1  0  0  0  0
  9 10  1  0  0  0  0
 10  4  1  0  0  0  0
 10 11  2  0  0  0  0
 11 12  1  0  0  0  0
 13 11  1  0  0  0  0
 13 14  1  0  0  0  0
 15 13  2  0  0  0  0
 16  9  2  0  0  0  0
 16 15  1  0  0  0  0
 17 19  1  0  0  0  0
 17 20  1  0  0  0  0
 18 17  1  0  0  0  0
 20 21  1  0  0  0  0
 20 23  1  0  0  0  0
 22 20  1  0  0  0  0
 23 28  2  0  0  0  0
 23 24  1  0  0  0  0
 24 29  1  0  0  0  0
 24 25  2  0  0  0  0
 25 30  1  0  0  0  0
 26 25  1  0  0  0  0
 27 31  1  0  0  0  0
 27 26  2  0  0  0  0
 28 27  1  0  0  0  0
M  END
>  <minimizedAffinity>
-4.93176889

$$$$

 OpenBabel03272500243D

 31 33  0  0  0  0  0  0  0  0999 V2000
   36.5440   28.6130   32.6920 C   0  0  0  0  0  0  0  0  0  0  0  0
   35.9660   29.5780   31.8890 C   0  0  0  0  0  0  0  0  0  0  0  0
   35.2120   30.4010   32.6830 C   0  0  0  0  0  0  0  0  0  0  0  0
   35.3360   29.9390   33.9300 N   0  0  0  0  0  0  0  0  0  0  0  0
   36.1200   28.8890   33.9140 N   0  0  0  0  0  0  0  0  0  0  0  0
   36.0560   29.7100   30.8280 H   0  0  0  0  0  0  0  0  0  0  0  0
   34.6290   31.2630   32.3450 H   0  0  0  0  0  0  0  0  0  0  0  0
   32.6470   29.5300   34.6530 F   0  0  0  0  0  0  0  0  0  0  0  0
   33.3510   30.3820   35.4030 C   0  0  0  0  0  0  0  0  0  0  0  0
   34.6710   30.5690   35.0300 C   0  0  0  0  0  0  0  0  0  0  0  0
   35.4610   31.4500   35.7780 C   0  0  0  0  0  0  0  0  0  0  0  0
   36.5070   31.6380   35.5320 H   0  0  0  0  0  0  0  0  0  0  0  0
   34.9250   32.1170   36.8630 C   0  0  0  0  0  0  0  0  0  0  0  0
   35.5710   32.8020   37.4300 H   0  0  0  0  0  0  0  0  0  0  0  0
   33.6140   31.9340   37.2380 C   0  0  0  0  0  3  0  0  0  0  0  0
   32.8430   31.0620   36.4940 C   0  0  0  0  0  3  0  0  0  0  0  0
   37.4230   27.5670   32.1240 C   0  0  0  0  0  0  0  0  0  0  0  0
   36.9940   27.1830   31.1450 H   0  0  0  0  0  0  0  0  0  0  0  0
   38.3340   28.0790   31.7910 H   0  0  0  0  0  0  0  0  0  0  0  0
   37.5710   26.3770   32.9910 C   0  0  0  0  0  0  0  0  0  0  0  0
   37.1690   26.5350   34.0380 H   0  0  0  0  0  0  0  0  0  0  0  0
   38.6840   26.2760   33.1830 H   0  0  0  0  0  0  0  0  0  0  0  0
   37.0770   25.1110   32.5340 C   0  0  0  0  0  0  0  0  0  0  0  0
   37.6580   23.9400   32.9370 C   0  0  0  0  0  0  0  0  0  0  0  0
   37.1740   22.6930   32.4830 C   0  0  0  0  0  0  0  0  0  0  0  0
   36.0890   22.7570   31.6230 N   0  0  0  0  0  0  0  0  0  0  0  0
   35.5480   23.9390   31.2530 C   0  0  0  0  0  0  0  0  0  0  0  0
   36.0420   25.1060   31.7090 N   0  0  0  0  0  0  0  0  0  0  0  0
   38.4920   23.7670   33.5960 H   0  0  0  0  0  0  0  0  0  0  0  0
   37.5630   21.7230   32.7430 H   0  0  0  0  0  0  0  0  0  0  0  0
   34.7080   23.8920   30.5810 H   0  0  0  0  0  0  0  0  0  0  0  0
  1  5  2  0  0  0  0
  2  3  2  0  0  0  0
  2  1  1  0  0  0  0
  3  4  1  0  0  0  0
  4 10  1  0  0  0  0
  5  4  1  0  0  0  0
  6  2  1  0  0  0  0
  7  3  1  0  0  0  0
  8  9  1  0  0  0  0
  9 16  1  0  0  0  0
 10  9  2  0  0  0  0
 10 11  1  0  0  0  0
 11 13  2  0  0  0  0
 12 11  1  0  0  0  0
 13 15  1  0  0  0  0
 13 14  1  0  0  0  0
 16 15  2  0  0  0  0
 17  1  1  0  0  0  0
 17 20  1  0  0  0  0
 18 17  1  0  0  0  0
 19 17  1  0  0  0  0
 20 22  1  0  0  0  0
 20 21  1  0  0  0  0
 23 24  1  0  0  0  0
 23 20  1  0  0  0  0
 24 29  1  0  0  0  0
 25 30  1  0  0  0  0
 25 24  2  0  0  0  0
 26 25  1  0  0  0  0
 27 26  2  0  0  0  0
 27 28  1  0  0  0  0
 28 23  2  0  0  0  0
 31 27  1  0  0  0  0
M  END
>  <minimizedAffinity>
-4.90086842

$$$$

 OpenBabel03272500243D

 31 33  0  0  0  0  0  0  0  0999 V2000
   37.1580   24.6050   32.3950 C   0  0  0  0  0  0  0  0  0  0  0  0
   36.0780   24.6910   31.5360 C   0  0  0  0  0  0  0  0  0  0  0  0
   35.5940   23.4270   31.3290 C   0  0  0  0  0  0  0  0  0  0  0  0
   36.3650   22.6050   32.0450 N   0  0  0  0  0  0  0  0  0  0  0  0
   37.2770   23.3160   32.6630 N   0  0  0  0  0  0  0  0  0  0  0  0
   35.6500   25.5640   31.0820 H   0  0  0  0  0  0  0  0  0  0  0  0
   34.7420   23.1610   30.6960 H   0  0  0  0  0  0  0  0  0  0  0  0
   35.4050   21.1360   34.2440 F   0  0  0  0  0  0  0  0  0  0  0  0
   35.6690   20.4500   33.1290 C   0  0  0  0  0  0  0  0  0  0  0  0
   36.1400   21.1920   32.0600 C   0  0  0  0  0  0  0  0  0  0  0  0
   36.4350   20.5290   30.8620 C   0  0  0  0  0  0  0  0  0  0  0  0
   36.8100   21.0610   29.9860 H   0  0  0  0  0  0  0  0  0  0  0  0
   36.2580   19.1630   30.7590 C   0  0  0  0  0  0  0  0  0  0  0  0
   36.4980   18.6720   29.8060 H   0  0  0  0  0  0  0  0  0  0  0  0
   35.7890   18.4210   31.8200 C   0  0  0  0  0  3  0  0  0  0  0  0
   35.5010   19.0840   32.9970 C   0  0  0  0  0  3  0  0  0  0  0  0
   37.9030   25.8130   32.8150 C   0  0  0  0  0  0  0  0  0  0  0  0
   38.9040   25.5190   33.2660 H   0  0  0  0  0  0  0  0  0  0  0  0
   38.2050   26.3240   31.8940 H   0  0  0  0  0  0  0  0  0  0  0  0
   37.2130   26.6060   33.8560 C   0  0  0  0  0  0  0  0  0  0  0  0
   37.8350   26.7500   34.7920 H   0  0  0  0  0  0  0  0  0  0  0  0
   36.3720   25.9480   34.2370 H   0  0  0  0  0  0  0  0  0  0  0  0
   36.6620   27.8850   33.5140 C   0  0  0  0  0  0  0  0  0  0  0  0
   36.7430   28.3680   32.2360 C   0  0  0  0  0  0  0  0  0  0  0  0
   36.2050   29.6300   31.8990 C   0  0  0  0  0  0  0  0  0  0  0  0
   35.6030   30.3140   32.9440 N   0  0  0  0  0  0  0  0  0  0  0  0
   35.5470   29.7960   34.1910 C   0  0  0  0  0  0  0  0  0  0  0  0
   36.0750   28.5880   34.4680 N   0  0  0  0  0  0  0  0  0  0  0  0
   37.1780   27.9330   31.3520 H   0  0  0  0  0  0  0  0  0  0  0  0
   36.2200   30.0930   30.9280 H   0  0  0  0  0  0  0  0  0  0  0  0
   35.0620   30.3990   34.9390 H   0  0  0  0  0  0  0  0  0  0  0  0
  1  5  2  0  0  0  0
  1 17  1  0  0  0  0
  2  1  1  0  0  0  0
  3  2  2  0  0  0  0
  3  4  1  0  0  0  0
  4 10  1  0  0  0  0
  4  5  1  0  0  0  0
  6  2  1  0  0  0  0
  7  3  1  0  0  0  0
  9  8  1  0  0  0  0
 10  9  2  0  0  0  0
 11 10  1  0  0  0  0
 12 11  1  0  0  0  0
 13 11  2  0  0  0  0
 13 15  1  0  0  0  0
 14 13  1  0  0  0  0
 15 16  2  0  0  0  0
 16  9  1  0  0  0  0
 17 18  1  0  0  0  0
 17 20  1  0  0  0  0
 19 17  1  0  0  0  0
 20 22  1  0  0  0  0
 20 21  1  0  0  0  0
 23 20  1  0  0  0  0
 23 28  1  0  0  0  0
 24 23  2  0  0  0  0
 25 24  1  0  0  0  0
 25 26  2  0  0  0  0
 26 27  1  0  0  0  0
 27 28  2  0  0  0  0
 27 31  1  0  0  0  0
 29 24  1  0  0  0  0
 30 25  1  0  0  0  0
M  END
>  <minimizedAffinity>
-4.89427423

$$$$
