
     RDKit          3D

 37 40  0  0  0  0  0  0  0  0999 V2000
   33.8393   28.7785   48.2830 C   0  0  0  0  0  0  0  0  0  0  0  0
   34.4478   28.4117   49.4297 C   0  0  0  0  0  0  0  0  0  0  0  0
   35.7127   28.7814   49.7996 C   0  0  0  0  0  0  0  0  0  0  0  0
   36.4605   29.5754   48.9951 C   0  0  0  0  0  0  0  0  0  0  0  0
   35.8461   29.9691   47.7958 C   0  0  0  0  0  0  0  0  0  0  0  0
   34.5970   29.5778   47.4772 N   0  0  0  0  0  0  0  0  0  0  0  0
   31.6411   27.6590   48.6978 C   0  0  0  0  0  0  0  0  0  0  0  0
   32.5130   28.3984   47.8818 C   0  0  0  0  0  0  0  0  0  0  0  0
   32.0311   28.7567   46.6408 C   0  0  0  0  0  0  0  0  0  0  0  0
   30.7710   28.3936   46.2641 N   0  0  0  0  0  0  0  0  0  0  0  0
   29.9843   27.6839   47.0943 C   0  0  0  0  0  0  0  0  0  0  0  0
   30.4061   27.3049   48.3246 N   0  0  0  0  0  0  0  0  0  0  0  0
   37.7597   30.0444   49.2164 O   0  0  0  0  0  0  0  0  0  0  0  0
   38.1602   31.3008   48.7872 C   0  0  0  0  0  0  0  0  0  0  0  0
   37.8674   32.3449   49.6688 C   0  0  0  0  0  0  0  0  0  0  0  0
   38.3275   33.5263   49.1001 C   0  0  0  0  0  0  0  0  0  0  0  0
   38.8674   33.1678   47.9278 N   0  0  0  0  0  0  0  0  0  0  0  0
   38.7748   31.8747   47.7369 N   0  0  0  0  0  0  0  0  0  0  0  0
   33.9252   27.7775   50.1329 H   0  0  0  0  0  0  0  0  0  0  0  0
   36.1895   28.4755   50.7310 H   0  0  0  0  0  0  0  0  0  0  0  0
   36.3247   30.5998   47.0631 H   0  0  0  0  0  0  0  0  0  0  0  0
   31.9803   27.3552   49.6851 H   0  0  0  0  0  0  0  0  0  0  0  0
   32.6794   29.3248   45.9935 H   0  0  0  0  0  0  0  0  0  0  0  0
   29.0217   27.4779   46.6489 H   0  0  0  0  0  0  0  0  0  0  0  0
   37.3834   32.4025   50.6435 H   0  0  0  0  0  0  0  0  0  0  0  0
   38.3131   34.5580   49.4271 H   0  0  0  0  0  0  0  0  0  0  0  0
   40.0635   32.0986   45.6588 F   0  0  0  0  0  0  0  0  0  0  0  0
   40.0826   33.4473   45.8065 C   0  0  0  0  0  0  0  0  0  0  0  0
   39.4939   33.9887   46.9252 C   0  0  0  0  0  0  0  0  0  0  0  0
   39.5041   35.3599   47.0918 C   0  0  0  0  0  0  0  0  0  0  0  0
   39.0646   35.8680   47.9410 H   0  0  0  0  0  0  0  0  0  0  0  0
   40.1053   36.1449   46.1294 C   0  0  0  0  0  0  0  0  0  0  0  0
   40.1202   37.2326   46.2494 H   0  0  0  0  0  0  0  0  0  0  0  0
   40.7028   35.6393   44.9997 C   0  0  0  0  0  0  0  0  0  0  0  0
   40.6785   34.2710   44.8587 C   0  0  0  0  0  0  0  0  0  0  0  0
   41.1632   36.3025   44.2712 H   0  0  0  0  0  0  0  0  0  0  0  0
   41.1386   33.8399   43.9833 H   0  0  0  0  0  0  0  0  0  0  0  0
  1  2  2  0
  2  3  1  0
  4 13  1  0
  4  3  2  0
  5  4  1  0
  6  5  2  0
  6  1  1  0
  8  1  1  0
  8  7  2  0
  9  8  1  0
 10  9  2  0
 10 11  1  0
 11 12  2  0
 12  7  1  0
 14 13  1  0
 14 15  1  0
 16 15  2  0
 17 16  1  0
 18 17  1  0
 18 14  2  0
  2 19  1  0
  3 20  1  0
  5 21  1  0
  7 22  1  0
  9 23  1  0
 11 24  1  0
 15 25  1  0
 16 26  1  0
 27 28  1  0
 28 29  2  0
 29 30  1  0
 30 31  1  0
 30 32  2  0
 32 33  1  0
 32 34  1  0
 34 35  2  0
 35 28  1  0
 34 36  1  0
 35 37  1  0
 17 29  1  0
M  ISO  8  19  14  20  14  21  14  22  14  23  14  24  14  25  14  26  14
M  ISO  2  31  15  33  16
M  END
>  <DihAtoms>  (1) 
15,16,28,27

>  <DihDeg>  (1) 
145.53925405670253

$$$$
