REMARK  Name = 
REMARK  3 active torsions:
REMARK  status: ('A' for Active; 'I' for Inactive)
REMARK    1  A    between atoms: C_1  and  N_9
REMARK    2  A    between atoms: C_2  and  N_10
REMARK    3  A    between atoms: N_15  and  C_26
REMARK                            x       y       z     vdW  Elec       q    Type
REMARK                         _______ _______ _______ _____ _____    ______ ____
ROOT
ATOM      1  N   UNL     1      36.712  31.329  48.964  0.00  0.00    +0.000 N 
ATOM      2  C   UNL     1      36.558  32.334  49.817  0.00  0.00    +0.000 A 
ATOM      3  C   UNL     1      37.535  33.322  49.927  0.00  0.00    +0.000 A 
ATOM      4  C   UNL     1      38.607  33.149  49.105  0.00  0.00    +0.000 A 
ATOM      5  O   UNL     1      39.497  34.050  49.206  0.00  0.00    +0.000 OA
ATOM      6  N   UNL     1      38.803  32.161  48.238  0.00  0.00    +0.000 N 
ATOM      7  C   UNL     1      37.821  31.236  48.178  0.00  0.00    +0.000 A 
ATOM      8  O   UNL     1      37.995  30.286  47.353  0.00  0.00    +0.000 OA
ATOM      9  H   UNL     1      35.664  32.389  50.436  0.00  0.00    +0.000 HD
ATOM     10  H   UNL     1      37.432  34.154  50.617  0.00  0.00    +0.000 HD
ENDROOT
BRANCH   6  13
ATOM     11  F   UNL     1      40.077  34.334  46.959  0.00  0.00    +0.000 F 
ATOM     12  C   UNL     1      40.596  33.102  46.777  0.00  0.00    +0.000 A 
ATOM     13  C   UNL     1      39.961  32.053  47.408  0.00  0.00    +0.000 A 
ATOM     14  C   UNL     1      40.387  30.758  47.303  0.00  0.00    +0.000 A 
ATOM     15  H   UNL     1      39.946  29.885  47.765  0.00  0.00    +0.000 HD
ATOM     16  C   UNL     1      41.508  30.441  46.535  0.00  0.00    +0.000 A 
ATOM     17  H   UNL     1      41.894  29.433  46.413  0.00  0.00    +0.000 HD
ATOM     18  C   UNL     1      42.159  31.493  45.890  0.00  0.00    +0.000 A 
ATOM     19  C   UNL     1      41.718  32.791  46.006  0.00  0.00    +0.000 A 
ENDBRANCH   6  13
BRANCH   1  21
ATOM     20  C   UNL     1      35.651  29.327  49.838  0.00  0.00    +0.000 A 
ATOM     21  C   UNL     1      35.744  30.279  48.806  0.00  0.00    +0.000 A 
ATOM     22  C   UNL     1      34.902  30.162  47.690  0.00  0.00    +0.000 A 
ATOM     23  N   UNL     1      34.037  29.127  47.663  0.00  0.00    +0.000 NA
ATOM     24  C   UNL     1      33.949  28.230  48.632  0.00  0.00    +0.000 A 
ATOM     25  N   UNL     1      34.749  28.331  49.707  0.00  0.00    +0.000 NA
ATOM     26  H   UNL     1      35.077  30.944  46.991  0.00  0.00    +0.000 HD
ATOM     27  H   UNL     1      33.233  27.419  48.555  0.00  0.00    +0.000 HD
BRANCH  20  30
ATOM     28  C   UNL     1      37.639  30.064  51.354  0.00  0.00    +0.000 C 
ATOM     29  O   UNL     1      38.206  30.829  50.545  0.00  0.00    +0.000 OA
ATOM     30  N   UNL     1      36.436  29.357  51.011  0.00  0.00    +0.000 N 
ATOM     31  H   UNL     1      38.112  29.973  52.317  0.00  0.00    +0.000 HD
ATOM     32  H   UNL     1      36.120  28.760  51.833  0.00  0.00    +0.000 HD
ENDBRANCH  20  30
ENDBRANCH   1  21
TORSDOF 3
