
 OpenBabel03272508023D

 28 30  0  0  0  0  0  0  0  0999 V2000
   38.7890   30.8400   45.6620 C   0  0  0  0  0  0  0  0  0  0  0  0
   40.0410   31.3700   45.8820 C   0  0  0  0  0  0  0  0  0  0  0  0
   40.7910   31.2910   44.6940 C   0  0  0  0  0  0  0  0  0  0  0  0
   39.9410   30.7070   43.8010 N   0  0  0  0  0  0  0  0  0  0  0  0
   38.7860   30.4510   44.3700 N   0  0  0  0  0  0  0  0  0  0  0  0
   40.3440   31.7690   46.8400 H   0  0  0  0  0  0  0  0  0  0  0  0
   41.8100   31.6440   44.6160 H   0  0  0  0  0  0  0  0  0  0  0  0
   39.3760   32.3180   41.5460 F   0  0  0  0  0  0  0  0  0  0  0  0
   40.1660   31.2490   41.3590 C   0  0  0  0  0  0  0  0  0  0  0  0
   40.4190   30.4870   42.4790 C   0  0  0  0  0  0  0  0  0  0  0  0
   41.2310   29.3540   42.3830 C   0  0  0  0  0  0  0  0  0  0  0  0
   41.4970   28.6940   43.1710 H   0  0  0  0  0  0  0  0  0  0  0  0
   41.7580   29.0380   41.1360 C   0  0  0  0  0  0  0  0  0  0  0  0
   42.3950   28.1700   41.0010 H   0  0  0  0  0  0  0  0  0  0  0  0
   41.5170   29.7920   39.9850 C   0  0  0  0  0  0  0  0  0  0  0  0
   40.7080   30.9020   40.1360 C   0  0  0  0  0  0  0  0  0  0  0  0
   37.7010   30.7240   46.6150 C   0  0  0  0  0  0  0  0  0  0  0  0
   37.9750   30.9830   47.9760 C   0  0  0  0  0  0  0  0  0  0  0  0
   36.9320   30.8740   48.9060 C   0  0  0  0  0  0  0  0  0  0  0  0
   35.7090   30.5200   48.4250 N   0  0  0  0  0  0  0  0  0  0  0  0
   35.4620   30.2760   47.1250 C   0  0  0  0  0  0  0  0  0  0  0  0
   36.4690   30.3840   46.2420 N   0  0  0  0  0  0  0  0  0  0  0  0
   38.9690   31.2600   48.2930 H   0  0  0  0  0  0  0  0  0  0  0  0
   34.4490   30.0020   46.8550 H   0  0  0  0  0  0  0  0  0  0  0  0
   37.2120   31.1450   50.3380 C   0  0  0  0  0  0  0  0  0  0  0  0
   36.6980   32.3930   50.5860 F   0  0  0  0  0  0  0  0  0  0  0  0
   36.5750   30.2360   51.1750 F   0  0  0  0  0  0  0  0  0  0  0  0
   38.5670   31.1700   50.6090 F   0  0  0  0  0  0  0  0  0  0  0  0
  1  2  1  0  0  0  0
  1 17  1  0  0  0  0
  2  6  1  0  0  0  0
  3  2  2  0  0  0  0
  4  5  1  0  0  0  0
  4  3  1  0  0  0  0
  5  1  2  0  0  0  0
  7  3  1  0  0  0  0
  9  8  1  0  0  0  0
  9 10  1  0  0  0  0
 10  4  1  0  0  0  0
 11 10  2  0  0  0  0
 11 12  1  0  0  0  0
 13 11  1  0  0  0  0
 14 13  1  0  0  0  0
 15 16  1  0  0  0  0
 15 13  2  0  0  0  0
 16  9  2  0  0  0  0
 17 18  1  0  0  0  0
 18 23  1  0  0  0  0
 18 19  2  0  0  0  0
 19 25  1  0  0  0  0
 20 19  1  0  0  0  0
 21 20  2  0  0  0  0
 22 17  2  0  0  0  0
 22 21  1  0  0  0  0
 24 21  1  0  0  0  0
 25 26  1  0  0  0  0
 25 28  1  0  0  0  0
 25 27  1  0  0  0  0
M  END
>  <minimizedAffinity>
-6.31919146

>  <minimizedRMSD>
1.24067748

$$$$
