
 OpenBabel03262522583D

 25 27  0  0  0  0  0  0  0  0999 V2000
   38.0160   24.8370   34.7440 C   0  0  0  0  0  0  0  0  0  0  0  0
   37.9510   24.2190   33.5190 C   0  0  0  0  0  0  0  0  0  0  0  0
   37.5120   25.0980   32.5900 C   0  0  0  0  0  0  0  0  0  0  0  0
   37.3000   26.2870   33.2460 N   0  0  0  0  0  0  0  0  0  0  0  0
   37.6130   26.0930   34.5350 N   0  0  0  0  0  0  0  0  0  0  0  0
   38.1900   23.2130   33.2670 H   0  0  0  0  0  0  0  0  0  0  0  0
   37.3040   25.0900   31.5280 H   0  0  0  0  0  0  0  0  0  0  0  0
   39.8350   22.8610   37.2510 C   0  0  0  0  0  0  0  0  0  0  0  0
   39.1380   23.2240   38.4490 C   0  0  0  0  0  0  0  0  0  0  0  0
   38.0630   24.1370   38.3650 C   0  0  0  0  0  0  0  0  0  0  0  0
   37.7510   24.6210   37.1380 N   0  0  0  0  0  0  0  0  0  0  0  0
   38.4420   24.2510   36.0110 C   0  0  0  0  0  0  0  0  0  0  0  0
   39.4500   23.3960   36.0850 N   0  0  0  0  0  0  0  0  0  0  0  0
   40.6540   22.1670   37.3180 H   0  0  0  0  0  0  0  0  0  0  0  0
   39.4030   22.8290   39.4020 H   0  0  0  0  0  0  0  0  0  0  0  0
   37.5370   24.4120   39.2540 H   0  0  0  0  0  0  0  0  0  0  0  0
   38.0970   27.3050   30.8440 F   0  0  0  0  0  0  0  0  0  0  0  0
   37.2970   28.0480   31.6610 C   0  0  0  0  0  0  0  0  0  0  0  0
   36.8550   27.5920   32.8980 C   0  0  0  0  0  0  0  0  0  0  0  0
   36.0420   28.3920   33.6890 C   0  0  0  0  0  0  0  0  0  0  0  0
   35.7310   27.9810   34.6370 H   0  0  0  0  0  0  0  0  0  0  0  0
   35.7040   29.6390   33.1910 C   0  0  0  0  0  0  0  0  0  0  0  0
   35.0690   30.2470   33.8260 H   0  0  0  0  0  0  0  0  0  0  0  0
   36.1460   30.0880   31.9640 C   0  0  0  0  0  3  0  0  0  0  0  0
   36.9590   29.2820   31.1770 C   0  0  0  0  0  3  0  0  0  0  0  0
  1 12  1  0  0  0  0
  2  1  1  0  0  0  0
  3  4  1  0  0  0  0
  3  2  2  0  0  0  0
  4  5  1  0  0  0  0
  5  1  2  0  0  0  0
  6  2  1  0  0  0  0
  7  3  1  0  0  0  0
  8 14  1  0  0  0  0
  8  9  1  0  0  0  0
  9 15  1  0  0  0  0
 10  9  2  0  0  0  0
 10 16  1  0  0  0  0
 11 10  1  0  0  0  0
 12 13  1  0  0  0  0
 12 11  2  0  0  0  0
 13  8  2  0  0  0  0
 17 18  1  0  0  0  0
 18 19  1  0  0  0  0
 19  4  1  0  0  0  0
 19 20  2  0  0  0  0
 20 21  1  0  0  0  0
 22 20  1  0  0  0  0
 22 23  1  0  0  0  0
 24 22  2  0  0  0  0
 25 18  2  0  0  0  0
 25 24  1  0  0  0  0
M  END
>  <minimizedAffinity>
-4.91741657

$$$$

 OpenBabel03262522583D

 25 27  0  0  0  0  0  0  0  0999 V2000
   35.9880   28.3050   32.6320 C   0  0  0  0  0  0  0  0  0  0  0  0
   36.1550   29.3850   31.7990 C   0  0  0  0  0  0  0  0  0  0  0  0
   35.8110   30.5180   32.4500 C   0  0  0  0  0  0  0  0  0  0  0  0
   35.4220   30.1410   33.7140 N   0  0  0  0  0  0  0  0  0  0  0  0
   35.5420   28.8070   33.7870 N   0  0  0  0  0  0  0  0  0  0  0  0
   36.4950   29.4020   30.7910 H   0  0  0  0  0  0  0  0  0  0  0  0
   35.7710   31.5770   32.2310 H   0  0  0  0  0  0  0  0  0  0  0  0
   37.3930   24.9110   32.7000 C   0  0  0  0  0  0  0  0  0  0  0  0
   36.6400   24.2790   31.6580 C   0  0  0  0  0  0  0  0  0  0  0  0
   35.6700   25.0330   30.9590 C   0  0  0  0  0  0  0  0  0  0  0  0
   35.5090   26.3280   31.3240 N   0  0  0  0  0  0  0  0  0  0  0  0
   36.2480   26.9020   32.3270 C   0  0  0  0  0  0  0  0  0  0  0  0
   37.1570   26.1990   32.9850 N   0  0  0  0  0  0  0  0  0  0  0  0
   38.1290   24.3340   33.2300 H   0  0  0  0  0  0  0  0  0  0  0  0
   36.7850   23.2570   31.3910 H   0  0  0  0  0  0  0  0  0  0  0  0
   35.1040   24.5690   30.1810 H   0  0  0  0  0  0  0  0  0  0  0  0
   32.7630   29.9580   34.2950 F   0  0  0  0  0  0  0  0  0  0  0  0
   33.5890   30.6600   35.1230 C   0  0  0  0  0  0  0  0  0  0  0  0
   34.9530   30.7940   34.8870 C   0  0  0  0  0  0  0  0  0  0  0  0
   35.7470   31.5190   35.7640 C   0  0  0  0  0  0  0  0  0  0  0  0
   36.7980   31.5860   35.5260 H   0  0  0  0  0  0  0  0  0  0  0  0
   35.1210   32.0900   36.8600 C   0  0  0  0  0  0  0  0  0  0  0  0
   35.7610   32.6530   37.5310 H   0  0  0  0  0  0  0  0  0  0  0  0
   33.7690   31.9550   37.0900 C   0  0  0  0  0  3  0  0  0  0  0  0
   32.9790   31.2270   36.2080 C   0  0  0  0  0  3  0  0  0  0  0  0
  1  5  2  0  0  0  0
  2  3  2  0  0  0  0
  2  1  1  0  0  0  0
  3  4  1  0  0  0  0
  4  5  1  0  0  0  0
  4 19  1  0  0  0  0
  6  2  1  0  0  0  0
  7  3  1  0  0  0  0
  8 13  1  0  0  0  0
  8 14  1  0  0  0  0
  9  8  2  0  0  0  0
 10 11  2  0  0  0  0
 10  9  1  0  0  0  0
 11 12  1  0  0  0  0
 12  1  1  0  0  0  0
 12 13  2  0  0  0  0
 15  9  1  0  0  0  0
 16 10  1  0  0  0  0
 17 18  1  0  0  0  0
 18 25  1  0  0  0  0
 19 18  2  0  0  0  0
 19 20  1  0  0  0  0
 20 22  2  0  0  0  0
 21 20  1  0  0  0  0
 22 24  1  0  0  0  0
 22 23  1  0  0  0  0
 25 24  2  0  0  0  0
M  END
>  <minimizedAffinity>
-4.88071442

$$$$

 OpenBabel03262522583D

 25 27  0  0  0  0  0  0  0  0999 V2000
   38.1040   25.4980   33.6590 C   0  0  0  0  0  0  0  0  0  0  0  0
   38.6610   26.6070   34.2480 C   0  0  0  0  0  0  0  0  0  0  0  0
   39.6220   26.2260   35.1190 C   0  0  0  0  0  0  0  0  0  0  0  0
   39.6680   24.8530   35.0740 N   0  0  0  0  0  0  0  0  0  0  0  0
   38.7440   24.4510   34.1880 N   0  0  0  0  0  0  0  0  0  0  0  0
   38.4230   27.6330   34.0930 H   0  0  0  0  0  0  0  0  0  0  0  0
   40.3160   26.7090   35.7950 H   0  0  0  0  0  0  0  0  0  0  0  0
   35.5240   26.5300   31.2570 C   0  0  0  0  0  0  0  0  0  0  0  0
   35.0510   25.2590   30.7950 C   0  0  0  0  0  0  0  0  0  0  0  0
   35.6300   24.0810   31.3190 C   0  0  0  0  0  0  0  0  0  0  0  0
   36.6120   24.2290   32.2420 N   0  0  0  0  0  0  0  0  0  0  0  0
   37.0410   25.4630   32.6610 C   0  0  0  0  0  0  0  0  0  0  0  0
   36.5010   26.5690   32.1720 N   0  0  0  0  0  0  0  0  0  0  0  0
   35.0820   27.4240   30.8550 H   0  0  0  0  0  0  0  0  0  0  0  0
   34.2770   25.1710   30.0680 H   0  0  0  0  0  0  0  0  0  0  0  0
   35.2830   23.1300   30.9810 H   0  0  0  0  0  0  0  0  0  0  0  0
   38.5880   23.6610   37.2770 F   0  0  0  0  0  0  0  0  0  0  0  0
   39.8100   23.2600   36.8220 C   0  0  0  0  0  0  0  0  0  0  0  0
   40.4190   23.8240   35.7070 C   0  0  0  0  0  0  0  0  0  0  0  0
   41.6640   23.3770   35.2890 C   0  0  0  0  0  0  0  0  0  0  0  0
   42.0840   23.8540   34.4160 H   0  0  0  0  0  0  0  0  0  0  0  0
   42.2530   22.3640   36.0260 C   0  0  0  0  0  0  0  0  0  0  0  0
   43.2260   22.0300   35.6820 H   0  0  0  0  0  0  0  0  0  0  0  0
   41.6460   21.8080   37.1320 C   0  0  0  0  0  3  0  0  0  0  0  0
   40.3990   22.2590   37.5460 C   0  0  0  0  0  3  0  0  0  0  0  0
  1  5  2  0  0  0  0
  1  2  1  0  0  0  0
  2  3  2  0  0  0  0
  3  7  1  0  0  0  0
  4  3  1  0  0  0  0
  4 19  1  0  0  0  0
  5  4  1  0  0  0  0
  6  2  1  0  0  0  0
  8 13  1  0  0  0  0
  9  8  2  0  0  0  0
  9 10  1  0  0  0  0
 10 11  2  0  0  0  0
 11 12  1  0  0  0  0
 12  1  1  0  0  0  0
 13 12  2  0  0  0  0
 14  8  1  0  0  0  0
 15  9  1  0  0  0  0
 16 10  1  0  0  0  0
 18 17  1  0  0  0  0
 18 25  1  0  0  0  0
 19 18  2  0  0  0  0
 20 19  1  0  0  0  0
 20 22  2  0  0  0  0
 21 20  1  0  0  0  0
 22 24  1  0  0  0  0
 23 22  1  0  0  0  0
 24 25  2  0  0  0  0
M  END
>  <minimizedAffinity>
-4.86364889

$$$$

 OpenBabel03262522583D

 25 27  0  0  0  0  0  0  0  0999 V2000
   37.3560   25.6190   33.0100 C   0  0  0  0  0  0  0  0  0  0  0  0
   37.4250   24.3710   32.4410 C   0  0  0  0  0  0  0  0  0  0  0  0
   37.8050   23.4670   33.3720 C   0  0  0  0  0  0  0  0  0  0  0  0
   37.9770   24.1640   34.5450 N   0  0  0  0  0  0  0  0  0  0  0  0
   37.6990   25.4500   34.2900 N   0  0  0  0  0  0  0  0  0  0  0  0
   37.2260   24.0860   31.4350 H   0  0  0  0  0  0  0  0  0  0  0  0
   37.9920   22.4020   33.4120 H   0  0  0  0  0  0  0  0  0  0  0  0
   36.2020   29.0610   32.4450 C   0  0  0  0  0  0  0  0  0  0  0  0
   36.3120   29.1600   31.0200 C   0  0  0  0  0  0  0  0  0  0  0  0
   36.7800   28.0440   30.2900 C   0  0  0  0  0  0  0  0  0  0  0  0
   37.1000   26.9310   30.9940 N   0  0  0  0  0  0  0  0  0  0  0  0
   36.9830   26.8710   32.3600 C   0  0  0  0  0  0  0  0  0  0  0  0
   36.5450   27.9150   33.0470 N   0  0  0  0  0  0  0  0  0  0  0  0
   35.8470   29.9120   32.9970 H   0  0  0  0  0  0  0  0  0  0  0  0
   36.0540   30.0480   30.4900 H   0  0  0  0  0  0  0  0  0  0  0  0
   36.8650   28.1090   29.2270 H   0  0  0  0  0  0  0  0  0  0  0  0
   40.3770   22.9270   34.9330 F   0  0  0  0  0  0  0  0  0  0  0  0
   39.5900   23.2280   36.0060 C   0  0  0  0  0  0  0  0  0  0  0  0
   38.3560   23.8560   35.8810 C   0  0  0  0  0  0  0  0  0  0  0  0
   37.5970   24.1390   37.0070 C   0  0  0  0  0  0  0  0  0  0  0  0
   36.6490   24.6280   36.8440 H   0  0  0  0  0  0  0  0  0  0  0  0
   38.1220   23.7680   38.2340 C   0  0  0  0  0  0  0  0  0  0  0  0
   37.5120   23.9980   39.1000 H   0  0  0  0  0  0  0  0  0  0  0  0
   39.3460   23.1440   38.3540 C   0  0  0  0  0  3  0  0  0  0  0  0
   40.1020   22.8650   37.2220 C   0  0  0  0  0  3  0  0  0  0  0  0
  1  5  2  0  0  0  0
  2  1  1  0  0  0  0
  2  3  2  0  0  0  0
  3  7  1  0  0  0  0
  3  4  1  0  0  0  0
  4 19  1  0  0  0  0
  5  4  1  0  0  0  0
  6  2  1  0  0  0  0
  8 14  1  0  0  0  0
  8 13  1  0  0  0  0
  9  8  2  0  0  0  0
 10 11  2  0  0  0  0
 10  9  1  0  0  0  0
 11 12  1  0  0  0  0
 12  1  1  0  0  0  0
 12 13  2  0  0  0  0
 15  9  1  0  0  0  0
 16 10  1  0  0  0  0
 17 18  1  0  0  0  0
 18 25  1  0  0  0  0
 19 18  2  0  0  0  0
 19 20  1  0  0  0  0
 20 22  2  0  0  0  0
 21 20  1  0  0  0  0
 22 24  1  0  0  0  0
 22 23  1  0  0  0  0
 25 24  2  0  0  0  0
M  END
>  <minimizedAffinity>
-4.85644388

$$$$

 OpenBabel03262522583D

 25 27  0  0  0  0  0  0  0  0999 V2000
   37.0480   24.8220   32.7640 C   0  0  0  0  0  0  0  0  0  0  0  0
   36.2820   25.2570   31.7110 C   0  0  0  0  0  0  0  0  0  0  0  0
   35.7360   24.1950   31.0760 C   0  0  0  0  0  0  0  0  0  0  0  0
   36.1690   23.0750   31.7460 N   0  0  0  0  0  0  0  0  0  0  0  0
   36.9530   23.4890   32.7520 N   0  0  0  0  0  0  0  0  0  0  0  0
   36.1020   26.2540   31.3850 H   0  0  0  0  0  0  0  0  0  0  0  0
   35.0860   24.0270   30.2280 H   0  0  0  0  0  0  0  0  0  0  0  0
   39.7890   26.2040   34.7830 C   0  0  0  0  0  0  0  0  0  0  0  0
   39.1080   27.2360   35.5050 C   0  0  0  0  0  0  0  0  0  0  0  0
   37.7260   27.4320   35.2810 C   0  0  0  0  0  0  0  0  0  0  0  0
   37.1210   26.6180   34.3830 N   0  0  0  0  0  0  0  0  0  0  0  0
   37.8050   25.6380   33.7070 C   0  0  0  0  0  0  0  0  0  0  0  0
   39.1000   25.4520   33.9140 N   0  0  0  0  0  0  0  0  0  0  0  0
   40.8400   26.0590   34.9540 H   0  0  0  0  0  0  0  0  0  0  0  0
   39.6080   27.8640   36.2070 H   0  0  0  0  0  0  0  0  0  0  0  0
   37.2110   28.1990   35.8160 H   0  0  0  0  0  0  0  0  0  0  0  0
   37.9830   21.6810   30.2600 F   0  0  0  0  0  0  0  0  0  0  0  0
   36.9500   21.0210   30.8590 C   0  0  0  0  0  0  0  0  0  0  0  0
   35.9900   21.6690   31.6280 C   0  0  0  0  0  0  0  0  0  0  0  0
   34.9590   20.9470   32.2140 C   0  0  0  0  0  0  0  0  0  0  0  0
   34.2460   21.5060   32.8000 H   0  0  0  0  0  0  0  0  0  0  0  0
   34.9390   19.5800   31.9940 C   0  0  0  0  0  0  0  0  0  0  0  0
   34.1250   19.0360   32.4600 H   0  0  0  0  0  0  0  0  0  0  0  0
   35.8930   18.9420   31.2290 C   0  0  0  0  0  3  0  0  0  0  0  0
   36.9230   19.6700   30.6460 C   0  0  0  0  0  3  0  0  0  0  0  0
  1 12  1  0  0  0  0
  2  1  1  0  0  0  0
  3  2  2  0  0  0  0
  3  4  1  0  0  0  0
  4  5  1  0  0  0  0
  5  1  2  0  0  0  0
  6  2  1  0  0  0  0
  7  3  1  0  0  0  0
  8 14  1  0  0  0  0
  8  9  1  0  0  0  0
  9 15  1  0  0  0  0
 10  9  2  0  0  0  0
 10 16  1  0  0  0  0
 11 10  1  0  0  0  0
 12 13  1  0  0  0  0
 12 11  2  0  0  0  0
 13  8  2  0  0  0  0
 17 18  1  0  0  0  0
 18 19  1  0  0  0  0
 19  4  1  0  0  0  0
 19 20  2  0  0  0  0
 20 21  1  0  0  0  0
 22 20  1  0  0  0  0
 22 23  1  0  0  0  0
 24 22  2  0  0  0  0
 25 18  2  0  0  0  0
 25 24  1  0  0  0  0
M  END
>  <minimizedAffinity>
-4.83732557

$$$$

 OpenBabel03262522583D

 25 27  0  0  0  0  0  0  0  0999 V2000
   37.3210   26.0290   33.5290 C   0  0  0  0  0  0  0  0  0  0  0  0
   37.2180   24.9350   32.7040 C   0  0  0  0  0  0  0  0  0  0  0  0
   37.8630   23.8850   33.2590 C   0  0  0  0  0  0  0  0  0  0  0  0
   38.3780   24.3300   34.4540 N   0  0  0  0  0  0  0  0  0  0  0  0
   38.0330   25.6190   34.5820 N   0  0  0  0  0  0  0  0  0  0  0  0
   36.7270   24.8550   31.7630 H   0  0  0  0  0  0  0  0  0  0  0  0
   38.0570   22.8510   33.0070 H   0  0  0  0  0  0  0  0  0  0  0  0
   36.1370   29.1030   31.9030 C   0  0  0  0  0  0  0  0  0  0  0  0
   35.7110   29.8690   33.0360 C   0  0  0  0  0  0  0  0  0  0  0  0
   35.8400   29.3110   34.3280 C   0  0  0  0  0  0  0  0  0  0  0  0
   36.3680   28.0660   34.4170 N   0  0  0  0  0  0  0  0  0  0  0  0
   36.7660   27.3600   33.3100 C   0  0  0  0  0  0  0  0  0  0  0  0
   36.6460   27.8790   32.0980 N   0  0  0  0  0  0  0  0  0  0  0  0
   36.0360   29.5300   30.9220 H   0  0  0  0  0  0  0  0  0  0  0  0
   35.2980   30.8470   32.9380 H   0  0  0  0  0  0  0  0  0  0  0  0
   35.5250   29.8760   35.1780 H   0  0  0  0  0  0  0  0  0  0  0  0
   37.1490   24.0000   36.8670 F   0  0  0  0  0  0  0  0  0  0  0  0
   38.4550   23.6350   36.7180 C   0  0  0  0  0  0  0  0  0  0  0  0
   39.1430   23.7760   35.5180 C   0  0  0  0  0  0  0  0  0  0  0  0
   40.4720   23.3880   35.4230 C   0  0  0  0  0  0  0  0  0  0  0  0
   40.9500   23.5220   34.4650 H   0  0  0  0  0  0  0  0  0  0  0  0
   41.0610   22.8660   36.5620 C   0  0  0  0  0  0  0  0  0  0  0  0
   42.1000   22.5700   36.4660 H   0  0  0  0  0  0  0  0  0  0  0  0
   40.3760   22.7290   37.7510 C   0  0  0  0  0  3  0  0  0  0  0  0
   39.0450   23.1190   37.8390 C   0  0  0  0  0  3  0  0  0  0  0  0
  1  5  2  0  0  0  0
  2  3  2  0  0  0  0
  2  1  1  0  0  0  0
  3  4  1  0  0  0  0
  4  5  1  0  0  0  0
  4 19  1  0  0  0  0
  6  2  1  0  0  0  0
  7  3  1  0  0  0  0
  8 13  2  0  0  0  0
  8  9  1  0  0  0  0
  9 10  2  0  0  0  0
 10 11  1  0  0  0  0
 10 16  1  0  0  0  0
 12  1  1  0  0  0  0
 12 11  2  0  0  0  0
 13 12  1  0  0  0  0
 14  8  1  0  0  0  0
 15  9  1  0  0  0  0
 18 17  1  0  0  0  0
 18 25  1  0  0  0  0
 19 18  2  0  0  0  0
 20 19  1  0  0  0  0
 20 22  2  0  0  0  0
 21 20  1  0  0  0  0
 22 24  1  0  0  0  0
 23 22  1  0  0  0  0
 24 25  2  0  0  0  0
M  END
>  <minimizedAffinity>
-4.82341862

$$$$

 OpenBabel03262522583D

 25 27  0  0  0  0  0  0  0  0999 V2000
   36.3010   28.2490   33.5090 C   0  0  0  0  0  0  0  0  0  0  0  0
   36.2440   29.1600   32.4840 C   0  0  0  0  0  0  0  0  0  0  0  0
   35.5780   30.2640   32.8930 C   0  0  0  0  0  0  0  0  0  0  0  0
   35.2130   30.0380   34.1990 N   0  0  0  0  0  0  0  0  0  0  0  0
   35.6640   28.8200   34.5350 N   0  0  0  0  0  0  0  0  0  0  0  0
   36.6360   29.0790   31.4980 H   0  0  0  0  0  0  0  0  0  0  0  0
   35.2850   31.2150   32.4690 H   0  0  0  0  0  0  0  0  0  0  0  0
   37.6120   25.0100   32.3700 C   0  0  0  0  0  0  0  0  0  0  0  0
   38.1310   24.4760   33.5940 C   0  0  0  0  0  0  0  0  0  0  0  0
   38.0180   25.2400   34.7780 C   0  0  0  0  0  0  0  0  0  0  0  0
   37.4170   26.4510   34.6810 N   0  0  0  0  0  0  0  0  0  0  0  0
   36.9310   26.9320   33.4910 C   0  0  0  0  0  0  0  0  0  0  0  0
   37.0340   26.2200   32.3800 N   0  0  0  0  0  0  0  0  0  0  0  0
   37.7000   24.4270   31.4720 H   0  0  0  0  0  0  0  0  0  0  0  0
   38.6000   23.5210   33.6430 H   0  0  0  0  0  0  0  0  0  0  0  0
   38.4030   24.8490   35.6940 H   0  0  0  0  0  0  0  0  0  0  0  0
   36.6650   31.6410   35.8610 F   0  0  0  0  0  0  0  0  0  0  0  0
   35.3140   31.5470   36.0230 C   0  0  0  0  0  0  0  0  0  0  0  0
   34.5140   30.7490   35.2130 C   0  0  0  0  0  0  0  0  0  0  0  0
   33.1430   30.6910   35.4220 C   0  0  0  0  0  0  0  0  0  0  0  0
   32.5760   30.0540   34.7610 H   0  0  0  0  0  0  0  0  0  0  0  0
   32.6290   31.4520   36.4590 C   0  0  0  0  0  0  0  0  0  0  0  0
   31.5560   31.3920   36.6050 H   0  0  0  0  0  0  0  0  0  0  0  0
   33.4260   32.2420   37.2600 C   0  0  0  0  0  3  0  0  0  0  0  0
   34.7980   32.2960   37.0450 C   0  0  0  0  0  3  0  0  0  0  0  0
  1  5  2  0  0  0  0
  2  3  2  0  0  0  0
  2  1  1  0  0  0  0
  3  4  1  0  0  0  0
  4  5  1  0  0  0  0
  4 19  1  0  0  0  0
  6  2  1  0  0  0  0
  7  3  1  0  0  0  0
  8 13  2  0  0  0  0
  8  9  1  0  0  0  0
  9 15  1  0  0  0  0
  9 10  2  0  0  0  0
 10 16  1  0  0  0  0
 11 10  1  0  0  0  0
 12  1  1  0  0  0  0
 12 11  2  0  0  0  0
 13 12  1  0  0  0  0
 14  8  1  0  0  0  0
 17 18  1  0  0  0  0
 18 25  1  0  0  0  0
 19 20  1  0  0  0  0
 19 18  2  0  0  0  0
 20 22  2  0  0  0  0
 21 20  1  0  0  0  0
 22 23  1  0  0  0  0
 22 24  1  0  0  0  0
 25 24  2  0  0  0  0
M  END
>  <minimizedAffinity>
-4.81677389

$$$$

 OpenBabel03262522583D

 25 27  0  0  0  0  0  0  0  0999 V2000
   36.7190   27.4980   33.5960 C   0  0  0  0  0  0  0  0  0  0  0  0
   36.5740   28.2010   32.4240 C   0  0  0  0  0  0  0  0  0  0  0  0
   35.9970   29.3970   32.6800 C   0  0  0  0  0  0  0  0  0  0  0  0
   35.7770   29.4430   34.0360 N   0  0  0  0  0  0  0  0  0  0  0  0
   36.2230   28.2880   34.5520 N   0  0  0  0  0  0  0  0  0  0  0  0
   36.8480   27.9130   31.4370 H   0  0  0  0  0  0  0  0  0  0  0  0
   35.6890   30.2650   32.1120 H   0  0  0  0  0  0  0  0  0  0  0  0
   37.9830   24.1160   32.9150 C   0  0  0  0  0  0  0  0  0  0  0  0
   38.3950   23.7060   34.2240 C   0  0  0  0  0  0  0  0  0  0  0  0
   38.2290   24.6000   35.3070 C   0  0  0  0  0  0  0  0  0  0  0  0
   37.6810   25.8100   35.0350 N   0  0  0  0  0  0  0  0  0  0  0  0
   37.2980   26.1700   33.7680 C   0  0  0  0  0  0  0  0  0  0  0  0
   37.4520   25.3360   32.7510 N   0  0  0  0  0  0  0  0  0  0  0  0
   38.1110   23.4340   32.0950 H   0  0  0  0  0  0  0  0  0  0  0  0
   38.8230   22.7480   34.4110 H   0  0  0  0  0  0  0  0  0  0  0  0
   38.5330   24.3020   36.2860 H   0  0  0  0  0  0  0  0  0  0  0  0
   33.0740   29.4200   34.3960 F   0  0  0  0  0  0  0  0  0  0  0  0
   33.8410   30.3050   35.0960 C   0  0  0  0  0  0  0  0  0  0  0  0
   35.2230   30.3710   34.9610 C   0  0  0  0  0  0  0  0  0  0  0  0
   35.9550   31.2910   35.6980 C   0  0  0  0  0  0  0  0  0  0  0  0
   37.0240   31.2930   35.5490 H   0  0  0  0  0  0  0  0  0  0  0  0
   35.2500   32.1210   36.5530 C   0  0  0  0  0  0  0  0  0  0  0  0
   35.8420   32.8320   37.1190 H   0  0  0  0  0  0  0  0  0  0  0  0
   33.8790   32.0520   36.6840 C   0  0  0  0  0  3  0  0  0  0  0  0
   33.1520   31.1280   35.9430 C   0  0  0  0  0  3  0  0  0  0  0  0
  1 12  1  0  0  0  0
  1  5  2  0  0  0  0
  2  3  2  0  0  0  0
  2  1  1  0  0  0  0
  3  4  1  0  0  0  0
  4  5  1  0  0  0  0
  4 19  1  0  0  0  0
  6  2  1  0  0  0  0
  7  3  1  0  0  0  0
  8  9  1  0  0  0  0
  9 15  1  0  0  0  0
  9 10  2  0  0  0  0
 10 16  1  0  0  0  0
 11 10  1  0  0  0  0
 12 11  2  0  0  0  0
 13  8  2  0  0  0  0
 13 12  1  0  0  0  0
 14  8  1  0  0  0  0
 17 18  1  0  0  0  0
 18 25  1  0  0  0  0
 19 18  2  0  0  0  0
 19 20  1  0  0  0  0
 20 22  2  0  0  0  0
 21 20  1  0  0  0  0
 22 24  1  0  0  0  0
 22 23  1  0  0  0  0
 25 24  2  0  0  0  0
M  END
>  <minimizedAffinity>
-4.80724669

$$$$

 OpenBabel03262522583D

 25 27  0  0  0  0  0  0  0  0999 V2000
   36.3790   22.9050   32.0040 C   0  0  0  0  0  0  0  0  0  0  0  0
   35.8370   23.8890   31.2150 C   0  0  0  0  0  0  0  0  0  0  0  0
   36.2600   25.1000   31.6420 C   0  0  0  0  0  0  0  0  0  0  0  0
   37.0830   24.8680   32.7190 N   0  0  0  0  0  0  0  0  0  0  0  0
   37.1310   23.5420   32.9070 N   0  0  0  0  0  0  0  0  0  0  0  0
   35.1790   23.7900   30.3830 H   0  0  0  0  0  0  0  0  0  0  0  0
   36.1170   26.1350   31.3590 H   0  0  0  0  0  0  0  0  0  0  0  0
   36.2680   19.4870   30.6600 C   0  0  0  0  0  0  0  0  0  0  0  0
   35.7720   18.7610   31.7910 C   0  0  0  0  0  0  0  0  0  0  0  0
   35.4890   19.4620   32.9850 C   0  0  0  0  0  0  0  0  0  0  0  0
   35.7070   20.8000   32.9870 N   0  0  0  0  0  0  0  0  0  0  0  0
   36.1840   21.4640   31.8850 C   0  0  0  0  0  0  0  0  0  0  0  0
   36.4510   20.8110   30.7640 N   0  0  0  0  0  0  0  0  0  0  0  0
   36.4840   18.9510   29.7540 H   0  0  0  0  0  0  0  0  0  0  0  0
   35.6100   17.7080   31.7630 H   0  0  0  0  0  0  0  0  0  0  0  0
   35.1180   18.9280   33.8320 H   0  0  0  0  0  0  0  0  0  0  0  0
   39.6900   25.3610   32.0870 F   0  0  0  0  0  0  0  0  0  0  0  0
   39.1660   25.8700   33.2380 C   0  0  0  0  0  0  0  0  0  0  0  0
   37.8470   25.6580   33.6220 C   0  0  0  0  0  0  0  0  0  0  0  0
   37.3660   26.2000   34.8060 C   0  0  0  0  0  0  0  0  0  0  0  0
   36.3340   26.0000   35.0480 H   0  0  0  0  0  0  0  0  0  0  0  0
   38.2520   26.9460   35.5660 C   0  0  0  0  0  0  0  0  0  0  0  0
   37.8550   27.3590   36.4860 H   0  0  0  0  0  0  0  0  0  0  0  0
   39.5600   27.1530   35.1820 C   0  0  0  0  0  3  0  0  0  0  0  0
   40.0350   26.6080   33.9950 C   0  0  0  0  0  3  0  0  0  0  0  0
  1  5  2  0  0  0  0
  2  3  2  0  0  0  0
  2  1  1  0  0  0  0
  3  4  1  0  0  0  0
  4  5  1  0  0  0  0
  4 19  1  0  0  0  0
  6  2  1  0  0  0  0
  7  3  1  0  0  0  0
  8 13  2  0  0  0  0
  8  9  1  0  0  0  0
  9 10  2  0  0  0  0
 10 11  1  0  0  0  0
 10 16  1  0  0  0  0
 12  1  1  0  0  0  0
 12 11  2  0  0  0  0
 13 12  1  0  0  0  0
 14  8  1  0  0  0  0
 15  9  1  0  0  0  0
 17 18  1  0  0  0  0
 18 19  2  0  0  0  0
 18 25  1  0  0  0  0
 19 20  1  0  0  0  0
 20 21  1  0  0  0  0
 20 22  2  0  0  0  0
 22 23  1  0  0  0  0
 24 22  1  0  0  0  0
 25 24  2  0  0  0  0
M  END
>  <minimizedAffinity>
-4.76030016

$$$$
