
 OpenBabel03272503293D

 34 36  0  0  1  0  0  0  0  0999 V2000
   34.4740   29.1780   48.0560 C   0  0  0  0  0  0  0  0  0  0  0  0
   34.1340   30.1050   47.0630 C   0  0  0  0  0  0  0  0  0  0  0  0
   32.9150   29.9230   46.4050 C   0  0  0  0  0  0  0  0  0  0  0  0
   32.1460   28.8430   46.7850 N   0  0  0  0  0  0  0  0  0  0  0  0
   32.5080   27.9890   47.7310 C   0  0  0  0  0  0  0  0  0  0  0  0
   33.6730   28.1430   48.3780 N   0  0  0  0  0  0  0  0  0  0  0  0
   34.7710   30.9400   46.7970 H   0  0  0  0  0  0  0  0  0  0  0  0
   32.5970   30.5960   45.6380 H   0  0  0  0  0  0  0  0  0  0  0  0
   35.7280   29.3740   48.7260 N   0  0  0  0  0  0  0  0  0  0  0  0
   36.8640   30.1040   48.2430 C   0  0  0  0  0  0  0  0  0  0  0  0
   37.5190   30.5850   49.5290 C   0  0  2  0  0  0  0  0  0  0  0  0
   36.5980   30.1570   50.6530 C   0  0  0  0  0  0  0  0  0  0  0  0
   36.0800   28.8650   50.0340 C   0  0  0  0  0  0  0  0  0  0  0  0
   37.5550   29.3820   47.7590 H   0  0  0  0  0  0  0  0  0  0  0  0
   36.5930   30.9590   47.5950 H   0  0  0  0  0  0  0  0  0  0  0  0
   38.4830   30.0790   49.7190 H   0  0  0  0  0  0  0  0  0  0  0  0
   37.1450   29.8820   51.5640 H   0  0  0  0  0  0  0  0  0  0  0  0
   35.7490   30.8470   50.8070 H   0  0  0  0  0  0  0  0  0  0  0  0
   36.9250   28.1470   49.9780 H   0  0  0  0  0  0  0  0  0  0  0  0
   35.2050   28.5050   50.5940 H   0  0  0  0  0  0  0  0  0  0  0  0
   37.7730   32.0710   49.5400 C   0  0  0  0  0  0  0  0  0  0  0  0
   36.6810   32.6550   50.1500 F   0  0  0  0  0  0  0  0  0  0  0  0
   37.7520   32.4810   48.2170 F   0  0  0  0  0  0  0  0  0  0  0  0
   38.9600   32.4210   50.1090 F   0  0  0  0  0  0  0  0  0  0  0  0
   31.4630   26.6130   48.1670 S   0  0  0  0  0  0  0  0  0  0  0  0
   30.5270   28.3110   50.3510 F   0  0  0  0  0  0  0  0  0  0  0  0
   29.5400   27.8970   49.4990 C   0  0  0  0  0  0  0  0  0  0  0  0
   29.7540   27.0810   48.3870 C   0  0  0  0  0  0  0  0  0  0  0  0
   28.6950   26.7150   47.5840 C   0  0  0  0  0  0  0  0  0  0  0  0
   28.9500   26.0900   46.7550 H   0  0  0  0  0  0  0  0  0  0  0  0
   27.4150   27.1490   47.8670 C   0  0  0  0  0  0  0  0  0  0  0  0
   26.5960   26.8520   47.2270 H   0  0  0  0  0  0  0  0  0  0  0  0
   27.2100   27.9640   48.9820 C   0  0  0  0  0  0  0  0  0  0  0  0
   28.2570   28.3560   49.8190 C   0  0  0  0  0  0  0  0  0  0  0  0
  1  6  1  0  0  0  0
  1  9  1  0  0  0  0
  2  1  2  0  0  0  0
  3  4  2  0  0  0  0
  3  2  1  0  0  0  0
  4  5  1  0  0  0  0
  5 25  1  0  0  0  0
  5  6  2  0  0  0  0
  7  2  1  0  0  0  0
  8  3  1  0  0  0  0
  9 13  1  0  0  0  0
 10  9  1  0  0  0  0
 10 11  1  0  0  0  0
 11 21  1  0  0  0  0
 11 16  1  1  0  0  0
 11 12  1  0  0  0  0
 12 18  1  0  0  0  0
 12 17  1  0  0  0  0
 13 20  1  0  0  0  0
 13 12  1  0  0  0  0
 14 10  1  0  0  0  0
 15 10  1  0  0  0  0
 19 13  1  0  0  0  0
 21 24  1  0  0  0  0
 21 22  1  0  0  0  0
 23 21  1  0  0  0  0
 25 28  1  0  0  0  0
 27 34  1  0  0  0  0
 27 26  1  0  0  0  0
 28 27  2  0  0  0  0
 29 31  2  0  0  0  0
 29 28  1  0  0  0  0
 30 29  1  0  0  0  0
 31 33  1  0  0  0  0
 32 31  1  0  0  0  0
 33 34  2  0  0  0  0
M  END
>  <minimizedAffinity>
-6.59345484

>  <minimizedRMSD>
1.74538612

$$$$
