
 OpenBabel03262521103D

 24 25  0  0  0  0  0  0  0  0999 V2000
   41.0800   26.4300   34.9330 O   0  0  0  0  0  0  0  0  0  0  0  0
   39.5810   26.6160   34.7310 P   0  0  1  0  0  0  0  0  0  0  0  0
   38.9740   27.7090   35.8840 O   0  0  0  0  0  0  0  0  0  0  0  0
   38.7090   27.2760   36.7190 H   0  0  0  0  0  0  0  0  0  0  0  0
   39.2190   27.2880   33.1960 O   0  0  0  0  0  0  0  0  0  0  0  0
   37.9900   27.1380   32.5890 C   0  0  0  0  0  0  0  0  0  0  0  0
   36.9050   28.0160   32.7110 C   0  0  0  0  0  0  0  0  0  0  0  0
   35.7200   27.7280   32.0330 C   0  0  0  0  0  0  0  0  0  0  0  0
   35.6680   26.5880   31.2710 N   0  0  0  0  0  0  0  0  0  0  0  0
   36.7430   25.7570   31.1740 C   0  0  0  0  0  0  0  0  0  0  0  0
   37.9030   26.0260   31.8290 N   0  0  0  0  0  0  0  0  0  0  0  0
   37.0500   28.8710   33.3270 H   0  0  0  0  0  0  0  0  0  0  0  0
   34.8850   28.4020   32.1260 H   0  0  0  0  0  0  0  0  0  0  0  0
   36.6740   24.8570   30.5600 H   0  0  0  0  0  0  0  0  0  0  0  0
   38.8870   25.0940   34.8930 O   0  0  0  0  0  0  0  0  0  0  0  0
   40.6760   23.1650   35.4580 F   0  0  0  0  0  0  0  0  0  0  0  0
   39.7370   23.5490   36.3520 C   0  0  0  0  0  0  0  0  0  0  0  0
   38.7650   24.5360   36.1610 C   0  0  0  0  0  0  0  0  0  0  0  0
   37.8630   24.8300   37.1620 C   0  0  0  0  0  0  0  0  0  0  0  0
   37.1660   25.6090   36.8900 H   0  0  0  0  0  0  0  0  0  0  0  0
   37.9370   24.1340   38.3560 C   0  0  0  0  0  0  0  0  0  0  0  0
   37.1980   24.4120   39.1030 H   0  0  0  0  0  0  0  0  0  0  0  0
   38.8960   23.1590   38.5470 C   0  0  0  0  0  3  0  0  0  0  0  0
   39.8150   22.8470   37.5500 C   0  0  0  0  0  3  0  0  0  0  0  0
  2 15  1  0  0  0  0
  2  1  2  1  0  0  0
  2  3  1  0  0  0  0
  3  4  1  0  0  0  0
  5  2  1  0  0  0  0
  6  7  1  0  0  0  0
  6  5  1  0  0  0  0
  7 12  1  0  0  0  0
  8 13  1  0  0  0  0
  8  7  2  0  0  0  0
  9  8  1  0  0  0  0
 10  9  2  0  0  0  0
 10 11  1  0  0  0  0
 11  6  2  0  0  0  0
 14 10  1  0  0  0  0
 15 18  1  0  0  0  0
 16 17  1  0  0  0  0
 17 24  1  0  0  0  0
 18 17  2  0  0  0  0
 18 19  1  0  0  0  0
 19 21  2  0  0  0  0
 20 19  1  0  0  0  0
 21 23  1  0  0  0  0
 21 22  1  0  0  0  0
 24 23  2  0  0  0  0
M  END
>  <minimizedAffinity>
-5.02460766

$$$$

 OpenBabel03262521103D

 24 25  0  0  0  0  0  0  0  0999 V2000
   39.3600   26.5920   34.3110 O   0  0  0  0  0  0  0  0  0  0  0  0
   38.1680   26.6700   35.2570 P   0  0  1  0  0  0  0  0  0  0  0  0
   38.5970   27.5350   36.6570 O   0  0  0  0  0  0  0  0  0  0  0  0
   38.9880   26.9700   37.3520 H   0  0  0  0  0  0  0  0  0  0  0  0
   36.8480   27.5120   34.5590 O   0  0  0  0  0  0  0  0  0  0  0  0
   36.6610   27.6010   33.1960 C   0  0  0  0  0  0  0  0  0  0  0  0
   36.5520   28.7890   32.4600 C   0  0  0  0  0  0  0  0  0  0  0  0
   36.3630   28.7170   31.0800 C   0  0  0  0  0  0  0  0  0  0  0  0
   36.2900   27.4770   30.4970 N   0  0  0  0  0  0  0  0  0  0  0  0
   36.4010   26.3420   31.2430 C   0  0  0  0  0  0  0  0  0  0  0  0
   36.5850   26.3970   32.5880 N   0  0  0  0  0  0  0  0  0  0  0  0
   36.6210   29.6970   33.0090 H   0  0  0  0  0  0  0  0  0  0  0  0
   36.2790   29.6300   30.5140 H   0  0  0  0  0  0  0  0  0  0  0  0
   36.3410   25.3680   30.7530 H   0  0  0  0  0  0  0  0  0  0  0  0
   37.7410   25.0840   35.6150 O   0  0  0  0  0  0  0  0  0  0  0  0
   37.4200   24.5450   38.2310 F   0  0  0  0  0  0  0  0  0  0  0  0
   38.4380   24.0170   37.5160 C   0  0  0  0  0  0  0  0  0  0  0  0
   38.6950   24.2310   36.1580 C   0  0  0  0  0  0  0  0  0  0  0  0
   39.7750   23.6270   35.5490 C   0  0  0  0  0  0  0  0  0  0  0  0
   39.8640   23.8710   34.5010 H   0  0  0  0  0  0  0  0  0  0  0  0
   40.5980   22.8070   36.3030 C   0  0  0  0  0  0  0  0  0  0  0  0
   41.4300   22.3620   35.7640 H   0  0  0  0  0  0  0  0  0  0  0  0
   40.3460   22.5940   37.6430 C   0  0  0  0  0  3  0  0  0  0  0  0
   39.2620   23.1950   38.2770 C   0  0  0  0  0  3  0  0  0  0  0  0
  2  1  2  6  0  0  0
  2 15  1  0  0  0  0
  2  3  1  0  0  0  0
  3  4  1  0  0  0  0
  5  2  1  0  0  0  0
  6  5  1  0  0  0  0
  7 12  1  0  0  0  0
  7  6  2  0  0  0  0
  8  7  1  0  0  0  0
  9  8  2  0  0  0  0
  9 10  1  0  0  0  0
 10 11  2  0  0  0  0
 11  6  1  0  0  0  0
 13  8  1  0  0  0  0
 14 10  1  0  0  0  0
 15 18  1  0  0  0  0
 17 16  1  0  0  0  0
 17 24  1  0  0  0  0
 18 17  2  0  0  0  0
 19 18  1  0  0  0  0
 19 21  2  0  0  0  0
 20 19  1  0  0  0  0
 21 23  1  0  0  0  0
 22 21  1  0  0  0  0
 23 24  2  0  0  0  0
M  END
>  <minimizedAffinity>
-5.01857328

$$$$

 OpenBabel03262521103D

 24 25  0  0  0  0  0  0  0  0999 V2000
   39.1920   27.1710   35.6340 O   0  0  0  0  0  0  0  0  0  0  0  0
   37.9620   26.5330   35.0000 P   0  0  1  0  0  0  0  0  0  0  0  0
   36.7170   27.6850   34.8690 O   0  0  0  0  0  0  0  0  0  0  0  0
   36.1580   27.7370   35.6690 H   0  0  0  0  0  0  0  0  0  0  0  0
   38.2730   25.9800   33.4080 O   0  0  0  0  0  0  0  0  0  0  0  0
   37.2870   25.4670   32.5930 C   0  0  0  0  0  0  0  0  0  0  0  0
   37.0690   24.1080   32.3270 C   0  0  0  0  0  0  0  0  0  0  0  0
   36.0260   23.7420   31.4770 C   0  0  0  0  0  0  0  0  0  0  0  0
   35.2510   24.7360   30.9320 N   0  0  0  0  0  0  0  0  0  0  0  0
   35.4910   26.0470   31.2130 C   0  0  0  0  0  0  0  0  0  0  0  0
   36.5040   26.4180   32.0390 N   0  0  0  0  0  0  0  0  0  0  0  0
   37.7270   23.4200   32.7990 H   0  0  0  0  0  0  0  0  0  0  0  0
   35.8580   22.6980   31.2720 H   0  0  0  0  0  0  0  0  0  0  0  0
   34.8580   26.8170   30.7670 H   0  0  0  0  0  0  0  0  0  0  0  0
   37.5210   25.2550   35.9990 O   0  0  0  0  0  0  0  0  0  0  0  0
   37.5060   24.6190   38.6140 F   0  0  0  0  0  0  0  0  0  0  0  0
   38.3930   24.0700   37.7530 C   0  0  0  0  0  0  0  0  0  0  0  0
   38.4870   24.3300   36.3820 C   0  0  0  0  0  0  0  0  0  0  0  0
   39.4430   23.6980   35.6160 C   0  0  0  0  0  0  0  0  0  0  0  0
   39.4120   23.9840   34.5750 H   0  0  0  0  0  0  0  0  0  0  0  0
   40.3070   22.8040   36.2260 C   0  0  0  0  0  0  0  0  0  0  0  0
   41.0370   22.3410   35.5680 H   0  0  0  0  0  0  0  0  0  0  0  0
   40.2160   22.5450   37.5790 C   0  0  0  0  0  3  0  0  0  0  0  0
   39.2590   23.1730   38.3690 C   0  0  0  0  0  3  0  0  0  0  0  0
  2  1  2  1  0  0  0
  2 15  1  0  0  0  0
  3  2  1  0  0  0  0
  3  4  1  0  0  0  0
  5  2  1  0  0  0  0
  6  5  1  0  0  0  0
  7  6  1  0  0  0  0
  7 12  1  0  0  0  0
  8  7  2  0  0  0  0
  9 10  2  0  0  0  0
  9  8  1  0  0  0  0
 10 11  1  0  0  0  0
 11  6  2  0  0  0  0
 13  8  1  0  0  0  0
 14 10  1  0  0  0  0
 15 18  1  0  0  0  0
 17 24  1  0  0  0  0
 17 16  1  0  0  0  0
 18 17  2  0  0  0  0
 19 21  2  0  0  0  0
 19 18  1  0  0  0  0
 20 19  1  0  0  0  0
 21 23  1  0  0  0  0
 22 21  1  0  0  0  0
 23 24  2  0  0  0  0
M  END
>  <minimizedAffinity>
-4.97599888

$$$$

 OpenBabel03262521103D

 24 25  0  0  0  0  0  0  0  0999 V2000
   39.2600   27.1580   34.1150 O   0  0  0  0  0  0  0  0  0  0  0  0
   38.1030   26.9900   35.0920 P   0  0  1  0  0  0  0  0  0  0  0  0
   38.5480   27.5830   36.6230 O   0  0  0  0  0  0  0  0  0  0  0  0
   38.9880   26.9120   37.1800 H   0  0  0  0  0  0  0  0  0  0  0  0
   36.7240   27.8890   34.6130 O   0  0  0  0  0  0  0  0  0  0  0  0
   36.4860   28.2420   33.3010 C   0  0  0  0  0  0  0  0  0  0  0  0
   36.6650   27.4140   32.1850 C   0  0  0  0  0  0  0  0  0  0  0  0
   36.3800   27.9160   30.9150 C   0  0  0  0  0  0  0  0  0  0  0  0
   35.9330   29.2100   30.8120 N   0  0  0  0  0  0  0  0  0  0  0  0
   35.7700   29.9860   31.9200 C   0  0  0  0  0  0  0  0  0  0  0  0
   36.0440   29.5100   33.1620 N   0  0  0  0  0  0  0  0  0  0  0  0
   37.0160   26.4280   32.3750 H   0  0  0  0  0  0  0  0  0  0  0  0
   36.5180   27.2800   30.0570 H   0  0  0  0  0  0  0  0  0  0  0  0
   35.4130   31.0120   31.8090 H   0  0  0  0  0  0  0  0  0  0  0  0
   37.7560   25.3460   35.1410 O   0  0  0  0  0  0  0  0  0  0  0  0
   40.0330   24.0780   34.4720 F   0  0  0  0  0  0  0  0  0  0  0  0
   39.4840   23.9540   35.7010 C   0  0  0  0  0  0  0  0  0  0  0  0
   38.3090   24.5660   36.1500 C   0  0  0  0  0  0  0  0  0  0  0  0
   37.8580   24.3530   37.4360 C   0  0  0  0  0  0  0  0  0  0  0  0
   36.9430   24.8810   37.6590 H   0  0  0  0  0  0  0  0  0  0  0  0
   38.5870   23.5240   38.2730 C   0  0  0  0  0  0  0  0  0  0  0  0
   38.1780   23.3980   39.2710 H   0  0  0  0  0  0  0  0  0  0  0  0
   39.7470   22.9190   37.8320 C   0  0  0  0  0  3  0  0  0  0  0  0
   40.2180   23.1210   36.5390 C   0  0  0  0  0  3  0  0  0  0  0  0
  2  1  2  6  0  0  0
  2 15  1  0  0  0  0
  2  3  1  0  0  0  0
  3  4  1  0  0  0  0
  5  2  1  0  0  0  0
  6  5  1  0  0  0  0
  7 12  1  0  0  0  0
  7  6  2  0  0  0  0
  8  7  1  0  0  0  0
  9  8  2  0  0  0  0
  9 10  1  0  0  0  0
 10 11  2  0  0  0  0
 11  6  1  0  0  0  0
 13  8  1  0  0  0  0
 14 10  1  0  0  0  0
 15 18  1  0  0  0  0
 16 17  1  0  0  0  0
 17 18  2  0  0  0  0
 17 24  1  0  0  0  0
 18 19  1  0  0  0  0
 19 20  1  0  0  0  0
 19 21  2  0  0  0  0
 21 22  1  0  0  0  0
 23 21  1  0  0  0  0
 24 23  2  0  0  0  0
M  END
>  <minimizedAffinity>
-4.93550348

$$$$

 OpenBabel03262521103D

 24 25  0  0  0  0  0  0  0  0999 V2000
   37.0290   28.0520   34.9420 O   0  0  0  0  0  0  0  0  0  0  0  0
   37.9830   26.8640   34.9140 P   0  0  1  0  0  0  0  0  0  0  0  0
   39.4230   27.2600   35.7300 O   0  0  0  0  0  0  0  0  0  0  0  0
   40.0870   27.6820   35.1510 H   0  0  0  0  0  0  0  0  0  0  0  0
   37.3330   25.5010   35.7250 O   0  0  0  0  0  0  0  0  0  0  0  0
   38.1120   24.6290   36.4550 C   0  0  0  0  0  0  0  0  0  0  0  0
   37.8840   24.2430   37.7830 C   0  0  0  0  0  0  0  0  0  0  0  0
   38.7640   23.3480   38.3900 C   0  0  0  0  0  0  0  0  0  0  0  0
   39.8250   22.8800   37.6560 N   0  0  0  0  0  0  0  0  0  0  0  0
   40.0160   23.2760   36.3660 C   0  0  0  0  0  0  0  0  0  0  0  0
   39.1670   24.1470   35.7630 N   0  0  0  0  0  0  0  0  0  0  0  0
   37.0330   24.6640   38.2620 H   0  0  0  0  0  0  0  0  0  0  0  0
   38.5900   23.0510   39.4110 H   0  0  0  0  0  0  0  0  0  0  0  0
   40.8690   22.8880   35.8050 H   0  0  0  0  0  0  0  0  0  0  0  0
   38.2630   26.5160   33.2940 O   0  0  0  0  0  0  0  0  0  0  0  0
   36.3960   27.8700   31.9090 F   0  0  0  0  0  0  0  0  0  0  0  0
   36.4320   26.5190   31.9210 C   0  0  0  0  0  0  0  0  0  0  0  0
   37.3550   25.7210   32.6050 C   0  0  0  0  0  0  0  0  0  0  0  0
   37.2780   24.3460   32.5310 C   0  0  0  0  0  0  0  0  0  0  0  0
   38.0460   23.8460   33.1020 H   0  0  0  0  0  0  0  0  0  0  0  0
   36.2730   23.7710   31.7710 C   0  0  0  0  0  0  0  0  0  0  0  0
   36.2670   22.6840   31.7560 H   0  0  0  0  0  0  0  0  0  0  0  0
   35.3610   24.5560   31.0960 C   0  0  0  0  0  3  0  0  0  0  0  0
   35.4210   25.9450   31.1570 C   0  0  0  0  0  3  0  0  0  0  0  0
  2  1  2  1  0  0  0
  2  5  1  0  0  0  0
  2  3  1  0  0  0  0
  4  3  1  0  0  0  0
  5  6  1  0  0  0  0
  6  7  1  0  0  0  0
  7 12  1  0  0  0  0
  7  8  2  0  0  0  0
  8 13  1  0  0  0  0
  9  8  1  0  0  0  0
 10  9  2  0  0  0  0
 11 10  1  0  0  0  0
 11  6  2  0  0  0  0
 14 10  1  0  0  0  0
 15  2  1  0  0  0  0
 16 17  1  0  0  0  0
 17 18  1  0  0  0  0
 18 15  1  0  0  0  0
 19 18  2  0  0  0  0
 19 20  1  0  0  0  0
 21 19  1  0  0  0  0
 22 21  1  0  0  0  0
 23 24  1  0  0  0  0
 23 21  2  0  0  0  0
 24 17  2  0  0  0  0
M  END
>  <minimizedAffinity>
-4.92201233

$$$$

 OpenBabel03262521103D

 24 25  0  0  0  0  0  0  0  0999 V2000
   42.4660   25.0800   35.2790 O   0  0  0  0  0  0  0  0  0  0  0  0
   41.2840   25.2330   34.3300 P   0  0  1  0  0  0  0  0  0  0  0  0
   41.8070   25.0510   32.7210 O   0  0  0  0  0  0  0  0  0  0  0  0
   42.1120   25.8890   32.3210 H   0  0  0  0  0  0  0  0  0  0  0  0
   40.0950   24.0250   34.5860 O   0  0  0  0  0  0  0  0  0  0  0  0
   39.5500   23.7700   35.8270 C   0  0  0  0  0  0  0  0  0  0  0  0
   38.2760   24.1620   36.2580 C   0  0  0  0  0  0  0  0  0  0  0  0
   37.8630   23.8290   37.5470 C   0  0  0  0  0  0  0  0  0  0  0  0
   38.7300   23.1250   38.3460 N   0  0  0  0  0  0  0  0  0  0  0  0
   39.9610   22.7590   37.8940 C   0  0  0  0  0  0  0  0  0  0  0  0
   40.3760   23.0780   36.6410 N   0  0  0  0  0  0  0  0  0  0  0  0
   37.6840   24.7040   35.5600 H   0  0  0  0  0  0  0  0  0  0  0  0
   36.8840   24.1310   37.8790 H   0  0  0  0  0  0  0  0  0  0  0  0
   40.6310   22.1990   38.5510 H   0  0  0  0  0  0  0  0  0  0  0  0
   40.6480   26.7640   34.6060 O   0  0  0  0  0  0  0  0  0  0  0  0
   38.8330   27.4160   36.4830 F   0  0  0  0  0  0  0  0  0  0  0  0
   38.5200   27.3940   35.1680 C   0  0  0  0  0  0  0  0  0  0  0  0
   39.3830   27.0710   34.1160 C   0  0  0  0  0  0  0  0  0  0  0  0
   38.9310   27.0880   32.8130 C   0  0  0  0  0  0  0  0  0  0  0  0
   39.6930   26.8200   32.0960 H   0  0  0  0  0  0  0  0  0  0  0  0
   37.6120   27.4300   32.5650 C   0  0  0  0  0  0  0  0  0  0  0  0
   37.3200   27.4240   31.5190 H   0  0  0  0  0  0  0  0  0  0  0  0
   36.7590   27.7500   33.6020 C   0  0  0  0  0  3  0  0  0  0  0  0
   37.1950   27.7380   34.9230 C   0  0  0  0  0  3  0  0  0  0  0  0
  2  5  1  0  0  0  0
  2 15  1  0  0  0  0
  2  1  2  1  0  0  0
  3  2  1  0  0  0  0
  4  3  1  0  0  0  0
  5  6  1  0  0  0  0
  6  7  2  0  0  0  0
  6 11  1  0  0  0  0
  7  8  1  0  0  0  0
  8 13  1  0  0  0  0
  8  9  2  0  0  0  0
 10  9  1  0  0  0  0
 10 14  1  0  0  0  0
 11 10  2  0  0  0  0
 12  7  1  0  0  0  0
 17 16  1  0  0  0  0
 18 15  1  0  0  0  0
 18 17  2  0  0  0  0
 19 18  1  0  0  0  0
 20 19  1  0  0  0  0
 21 19  2  0  0  0  0
 21 23  1  0  0  0  0
 22 21  1  0  0  0  0
 23 24  2  0  0  0  0
 24 17  1  0  0  0  0
M  END
>  <minimizedAffinity>
-4.64407635

$$$$

 OpenBabel03262521103D

 24 25  0  0  0  0  0  0  0  0999 V2000
   35.1300   24.5810   30.8760 O   0  0  0  0  0  0  0  0  0  0  0  0
   36.4730   24.9000   31.5220 P   0  0  1  0  0  0  0  0  0  0  0  0
   37.6250   25.2480   30.3200 O   0  0  0  0  0  0  0  0  0  0  0  0
   38.0840   24.4510   29.9880 H   0  0  0  0  0  0  0  0  0  0  0  0
   36.3890   26.2900   32.5220 O   0  0  0  0  0  0  0  0  0  0  0  0
   37.3530   26.5890   33.4610 C   0  0  0  0  0  0  0  0  0  0  0  0
   37.1150   26.9210   34.8020 C   0  0  0  0  0  0  0  0  0  0  0  0
   38.1980   27.2010   35.6340 C   0  0  0  0  0  0  0  0  0  0  0  0
   39.4610   27.1380   35.1020 N   0  0  0  0  0  0  0  0  0  0  0  0
   39.6560   26.8110   33.7940 C   0  0  0  0  0  0  0  0  0  0  0  0
   38.6110   26.5370   32.9710 N   0  0  0  0  0  0  0  0  0  0  0  0
   36.0980   26.9420   35.1130 H   0  0  0  0  0  0  0  0  0  0  0  0
   38.0150   27.4560   36.6650 H   0  0  0  0  0  0  0  0  0  0  0  0
   40.6730   26.7680   33.3960 H   0  0  0  0  0  0  0  0  0  0  0  0
   36.9020   23.5450   32.4200 O   0  0  0  0  0  0  0  0  0  0  0  0
   38.4250   22.2110   30.6470 F   0  0  0  0  0  0  0  0  0  0  0  0
   37.2710   21.6930   31.1260 C   0  0  0  0  0  0  0  0  0  0  0  0
   36.4100   22.3000   32.0460 C   0  0  0  0  0  0  0  0  0  0  0  0
   35.2590   21.6580   32.4520 C   0  0  0  0  0  0  0  0  0  0  0  0
   34.6810   22.2300   33.1620 H   0  0  0  0  0  0  0  0  0  0  0  0
   34.9730   20.4050   31.9360 C   0  0  0  0  0  0  0  0  0  0  0  0
   34.0520   19.9540   32.2960 H   0  0  0  0  0  0  0  0  0  0  0  0
   35.8220   19.8040   31.0290 C   0  0  0  0  0  3  0  0  0  0  0  0
   36.9870   20.4350   30.6060 C   0  0  0  0  0  3  0  0  0  0  0  0
  2  1  2  6  0  0  0
  2 15  1  0  0  0  0
  2  5  1  0  0  0  0
  3  2  1  0  0  0  0
  4  3  1  0  0  0  0
  5  6  1  0  0  0  0
  6  7  1  0  0  0  0
  7 12  1  0  0  0  0
  7  8  2  0  0  0  0
  8 13  1  0  0  0  0
  9  8  1  0  0  0  0
 10  9  2  0  0  0  0
 11  6  2  0  0  0  0
 11 10  1  0  0  0  0
 14 10  1  0  0  0  0
 16 17  1  0  0  0  0
 17 18  1  0  0  0  0
 18 15  1  0  0  0  0
 18 19  2  0  0  0  0
 19 20  1  0  0  0  0
 21 22  1  0  0  0  0
 21 19  1  0  0  0  0
 23 21  2  0  0  0  0
 24 23  1  0  0  0  0
 24 17  2  0  0  0  0
M  END
>  <minimizedAffinity>
-4.56171703

$$$$

 OpenBabel03262521103D

 24 25  0  0  0  0  0  0  0  0999 V2000
   38.3340   26.5120   31.1630 O   0  0  0  0  0  0  0  0  0  0  0  0
   37.0050   25.7650   31.1770 P   0  0  1  0  0  0  0  0  0  0  0  0
   35.8950   26.5420   30.1480 O   0  0  0  0  0  0  0  0  0  0  0  0
   35.3910   27.2500   30.5940 H   0  0  0  0  0  0  0  0  0  0  0  0
   37.1640   24.1630   30.5890 O   0  0  0  0  0  0  0  0  0  0  0  0
   36.8540   23.0570   31.3520 C   0  0  0  0  0  0  0  0  0  0  0  0
   35.5890   22.4620   31.4560 C   0  0  0  0  0  0  0  0  0  0  0  0
   35.4310   21.3420   32.2710 C   0  0  0  0  0  0  0  0  0  0  0  0
   36.5290   20.8670   32.9440 N   0  0  0  0  0  0  0  0  0  0  0  0
   37.7440   21.4700   32.8190 C   0  0  0  0  0  0  0  0  0  0  0  0
   37.9130   22.5610   32.0280 N   0  0  0  0  0  0  0  0  0  0  0  0
   34.8050   22.9100   30.8930 H   0  0  0  0  0  0  0  0  0  0  0  0
   34.4590   20.8850   32.3520 H   0  0  0  0  0  0  0  0  0  0  0  0
   38.6020   21.0700   33.3640 H   0  0  0  0  0  0  0  0  0  0  0  0
   36.4770   25.7650   32.7730 O   0  0  0  0  0  0  0  0  0  0  0  0
   36.0470   28.1000   34.0380 F   0  0  0  0  0  0  0  0  0  0  0  0
   37.0710   27.2860   34.3770 C   0  0  0  0  0  0  0  0  0  0  0  0
   37.3820   26.0570   33.7860 C   0  0  0  0  0  0  0  0  0  0  0  0
   38.4620   25.3230   34.2320 C   0  0  0  0  0  0  0  0  0  0  0  0
   38.5960   24.3950   33.6960 H   0  0  0  0  0  0  0  0  0  0  0  0
   39.2300   25.8230   35.2700 C   0  0  0  0  0  0  0  0  0  0  0  0
   40.0650   25.1970   35.5730 H   0  0  0  0  0  0  0  0  0  0  0  0
   38.9240   27.0360   35.8540 C   0  0  0  0  0  3  0  0  0  0  0  0
   37.8400   27.7920   35.4200 C   0  0  0  0  0  3  0  0  0  0  0  0
  2  1  2  6  0  0  0
  2 15  1  0  0  0  0
  3  4  1  0  0  0  0
  3  2  1  0  0  0  0
  5  2  1  0  0  0  0
  5  6  1  0  0  0  0
  6  7  2  0  0  0  0
  6 11  1  0  0  0  0
  7  8  1  0  0  0  0
  8 13  1  0  0  0  0
  8  9  2  0  0  0  0
 10  9  1  0  0  0  0
 10 14  1  0  0  0  0
 11 10  2  0  0  0  0
 12  7  1  0  0  0  0
 15 18  1  0  0  0  0
 16 17  1  0  0  0  0
 17 24  1  0  0  0  0
 18 19  1  0  0  0  0
 18 17  2  0  0  0  0
 19 21  2  0  0  0  0
 20 19  1  0  0  0  0
 21 22  1  0  0  0  0
 21 23  1  0  0  0  0
 24 23  2  0  0  0  0
M  END
>  <minimizedAffinity>
-4.54417944

$$$$

 OpenBabel03262521103D

 24 25  0  0  0  0  0  0  0  0999 V2000
   35.4170   23.7210   31.3370 O   0  0  0  0  0  0  0  0  0  0  0  0
   36.9390   23.7810   31.3880 P   0  0  1  0  0  0  0  0  0  0  0  0
   37.5260   24.6910   30.0760 O   0  0  0  0  0  0  0  0  0  0  0  0
   37.6710   24.1540   29.2730 H   0  0  0  0  0  0  0  0  0  0  0  0
   37.5030   24.5630   32.8050 O   0  0  0  0  0  0  0  0  0  0  0  0
   37.1450   25.8540   33.1340 C   0  0  0  0  0  0  0  0  0  0  0  0
   37.1960   26.4160   34.4170 C   0  0  0  0  0  0  0  0  0  0  0  0
   36.7990   27.7410   34.5930 C   0  0  0  0  0  0  0  0  0  0  0  0
   36.3700   28.4430   33.4950 N   0  0  0  0  0  0  0  0  0  0  0  0
   36.3340   27.8650   32.2620 C   0  0  0  0  0  0  0  0  0  0  0  0
   36.7180   26.5750   32.0760 N   0  0  0  0  0  0  0  0  0  0  0  0
   37.5440   25.7850   35.1990 H   0  0  0  0  0  0  0  0  0  0  0  0
   36.8380   28.1730   35.5790 H   0  0  0  0  0  0  0  0  0  0  0  0
   35.9890   28.4470   31.4050 H   0  0  0  0  0  0  0  0  0  0  0  0
   37.4800   22.1900   31.3310 O   0  0  0  0  0  0  0  0  0  0  0  0
   36.8090   20.0770   29.8060 F   0  0  0  0  0  0  0  0  0  0  0  0
   36.4560   20.1550   31.1090 C   0  0  0  0  0  0  0  0  0  0  0  0
   36.7530   21.2030   31.9860 C   0  0  0  0  0  0  0  0  0  0  0  0
   36.3300   21.1550   33.2990 C   0  0  0  0  0  0  0  0  0  0  0  0
   36.6220   22.0230   33.8710 H   0  0  0  0  0  0  0  0  0  0  0  0
   35.6100   20.0540   33.7310 C   0  0  0  0  0  0  0  0  0  0  0  0
   35.3070   20.0780   34.7740 H   0  0  0  0  0  0  0  0  0  0  0  0
   35.3170   19.0180   32.8670 C   0  0  0  0  0  3  0  0  0  0  0  0
   35.7330   19.0480   31.5400 C   0  0  0  0  0  3  0  0  0  0  0  0
  2  1  2  6  0  0  0
  2  5  1  0  0  0  0
  3  2  1  0  0  0  0
  4  3  1  0  0  0  0
  5  6  1  0  0  0  0
  6  7  1  0  0  0  0
  7  8  2  0  0  0  0
  7 12  1  0  0  0  0
  8 13  1  0  0  0  0
  9  8  1  0  0  0  0
 10  9  2  0  0  0  0
 11 10  1  0  0  0  0
 11  6  2  0  0  0  0
 14 10  1  0  0  0  0
 15  2  1  0  0  0  0
 15 18  1  0  0  0  0
 16 17  1  0  0  0  0
 17 24  2  0  0  0  0
 17 18  1  0  0  0  0
 18 19  2  0  0  0  0
 19 21  1  0  0  0  0
 19 20  1  0  0  0  0
 21 22  1  0  0  0  0
 23 21  2  0  0  0  0
 24 23  1  0  0  0  0
M  END
>  <minimizedAffinity>
-4.54152393

$$$$
