
 OpenBabel03272503293D

 34 36  0  0  1  0  0  0  0  0999 V2000
   35.2480   29.3930   47.9000 C   0  0  0  0  0  0  0  0  0  0  0  0
   35.1140   30.0360   46.6630 C   0  0  0  0  0  0  0  0  0  0  0  0
   34.0000   29.7080   45.8860 C   0  0  0  0  0  0  0  0  0  0  0  0
   33.1240   28.7750   46.4000 N   0  0  0  0  0  0  0  0  0  0  0  0
   33.2910   28.1910   47.5770 C   0  0  0  0  0  0  0  0  0  0  0  0
   34.3520   28.4900   48.3420 N   0  0  0  0  0  0  0  0  0  0  0  0
   35.8300   30.7640   46.3000 H   0  0  0  0  0  0  0  0  0  0  0  0
   33.8400   30.1630   44.9330 H   0  0  0  0  0  0  0  0  0  0  0  0
   36.3960   29.7390   48.6900 N   0  0  0  0  0  0  0  0  0  0  0  0
   37.5420   30.4930   48.2720 C   0  0  0  0  0  0  0  0  0  0  0  0
   38.0030   31.1410   49.5690 C   0  0  2  0  0  0  0  0  0  0  0  0
   36.9740   30.7630   50.6140 C   0  0  0  0  0  0  0  0  0  0  0  0
   36.6090   29.3850   50.0770 C   0  0  0  0  0  0  0  0  0  0  0  0
   38.3260   29.7750   47.9520 H   0  0  0  0  0  0  0  0  0  0  0  0
   37.3070   31.2610   47.5100 H   0  0  0  0  0  0  0  0  0  0  0  0
   38.9620   30.7210   49.9240 H   0  0  0  0  0  0  0  0  0  0  0  0
   37.4160   30.6160   51.6070 H   0  0  0  0  0  0  0  0  0  0  0  0
   36.0750   31.4060   50.5930 H   0  0  0  0  0  0  0  0  0  0  0  0
   37.4920   28.7240   50.1980 H   0  0  0  0  0  0  0  0  0  0  0  0
   35.6920   29.0220   50.5630 H   0  0  0  0  0  0  0  0  0  0  0  0
   38.1710   32.6340   49.4540 C   0  0  0  0  0  0  0  0  0  0  0  0
   37.0210   33.2030   49.9620 F   0  0  0  0  0  0  0  0  0  0  0  0
   38.1880   32.9220   48.0990 F   0  0  0  0  0  0  0  0  0  0  0  0
   39.3080   33.1050   50.0360 F   0  0  0  0  0  0  0  0  0  0  0  0
   32.1170   26.9910   48.1740 S   0  0  0  0  0  0  0  0  0  0  0  0
   30.1550   27.8660   46.1970 F   0  0  0  0  0  0  0  0  0  0  0  0
   29.7670   28.0560   47.4950 C   0  0  0  0  0  0  0  0  0  0  0  0
   30.5420   27.7130   48.6040 C   0  0  0  0  0  0  0  0  0  0  0  0
   30.0660   27.9430   49.8770 C   0  0  0  0  0  0  0  0  0  0  0  0
   30.7250   27.6490   50.6670 H   0  0  0  0  0  0  0  0  0  0  0  0
   28.8230   28.5110   50.0720 C   0  0  0  0  0  0  0  0  0  0  0  0
   28.4660   28.6840   51.0780 H   0  0  0  0  0  0  0  0  0  0  0  0
   28.0550   28.8510   48.9570 C   0  0  0  0  0  3  0  0  0  0  0  0
   28.5020   28.6340   47.6510 C   0  0  0  0  0  3  0  0  0  0  0  0
  1  6  1  0  0  0  0
  1  9  1  0  0  0  0
  2  1  2  0  0  0  0
  3  4  2  0  0  0  0
  3  2  1  0  0  0  0
  4  5  1  0  0  0  0
  5 25  1  0  0  0  0
  5  6  2  0  0  0  0
  7  2  1  0  0  0  0
  8  3  1  0  0  0  0
  9 13  1  0  0  0  0
 10  9  1  0  0  0  0
 10 11  1  0  0  0  0
 11 16  1  1  0  0  0
 11 12  1  0  0  0  0
 12 17  1  0  0  0  0
 13 19  1  0  0  0  0
 13 20  1  0  0  0  0
 13 12  1  0  0  0  0
 14 10  1  0  0  0  0
 15 10  1  0  0  0  0
 18 12  1  0  0  0  0
 21 11  1  0  0  0  0
 21 22  1  0  0  0  0
 21 24  1  0  0  0  0
 23 21  1  0  0  0  0
 25 28  1  0  0  0  0
 26 27  1  0  0  0  0
 27 34  2  0  0  0  0
 27 28  1  0  0  0  0
 28 29  2  0  0  0  0
 29 31  1  0  0  0  0
 29 30  1  0  0  0  0
 31 32  1  0  0  0  0
 33 31  2  0  0  0  0
 34 33  1  0  0  0  0
M  END
>  <minimizedAffinity>
-6.44185019

>  <minimizedRMSD>
1.03070354

$$$$
