
 OpenBabel03272500443D

 25 27  0  0  0  0  0  0  0  0999 V2000
   36.2320   30.3690   47.5820 C   0  0  0  0  0  0  0  0  0  0  0  0
   35.5750   29.9550   46.4200 C   0  0  0  0  0  0  0  0  0  0  0  0
   36.2490   30.5190   45.3300 C   0  0  0  0  0  0  0  0  0  0  0  0
   37.2680   31.2400   45.8390 N   0  0  0  0  0  0  0  0  0  0  0  0
   37.2220   31.1260   47.1540 N   0  0  0  0  0  0  0  0  0  0  0  0
   34.7030   29.3190   46.2900 H   0  0  0  0  0  0  0  0  0  0  0  0
   36.0620   30.4460   44.2690 H   0  0  0  0  0  0  0  0  0  0  0  0
   36.6970   29.7720   49.9600 C   0  0  0  0  0  0  0  0  0  0  0  0
   35.8210   29.9850   48.8980 C   0  0  0  0  0  0  0  0  0  0  0  0
   34.4490   29.8050   49.1590 C   0  0  0  0  0  0  0  0  0  0  0  0
   34.0660   29.4400   50.4150 N   0  0  0  0  0  0  0  0  0  0  0  0
   34.9760   29.2480   51.4120 C   0  0  0  0  0  0  0  0  0  0  0  0
   36.2970   29.4160   51.1820 N   0  0  0  0  0  0  0  0  0  0  0  0
   37.7600   29.9110   49.7620 H   0  0  0  0  0  0  0  0  0  0  0  0
   33.7250   29.9570   48.3710 H   0  0  0  0  0  0  0  0  0  0  0  0
   34.4650   28.9650   52.3180 H   0  0  0  0  0  0  0  0  0  0  0  0
   39.3760   32.2740   47.3230 F   0  0  0  0  0  0  0  0  0  0  0  0
   39.3220   32.5320   45.9790 C   0  0  0  0  0  0  0  0  0  0  0  0
   38.2830   32.0270   45.2260 C   0  0  0  0  0  0  0  0  0  0  0  0
   38.2630   32.3100   43.8770 C   0  0  0  0  0  0  0  0  0  0  0  0
   37.4670   31.9370   43.2350 H   0  0  0  0  0  0  0  0  0  0  0  0
   39.2590   33.0830   43.2710 C   0  0  0  0  0  0  0  0  0  0  0  0
   39.2580   33.3150   42.2020 H   0  0  0  0  0  0  0  0  0  0  0  0
   40.2940   33.5750   44.0720 C   0  0  0  0  0  0  0  0  0  0  0  0
   40.3350   33.3020   45.4430 C   0  0  0  0  0  0  0  0  0  0  0  0
  1  9  1  0  0  0  0
  2  1  1  0  0  0  0
  3  4  1  0  0  0  0
  3  2  2  0  0  0  0
  4  5  1  0  0  0  0
  5  1  2  0  0  0  0
  6  2  1  0  0  0  0
  7  3  1  0  0  0  0
  8 13  1  0  0  0  0
  9 10  1  0  0  0  0
  9  8  2  0  0  0  0
 10 11  2  0  0  0  0
 11 12  1  0  0  0  0
 12 16  1  0  0  0  0
 13 12  2  0  0  0  0
 14  8  1  0  0  0  0
 15 10  1  0  0  0  0
 18 17  1  0  0  0  0
 19  4  1  0  0  0  0
 19 18  2  0  0  0  0
 20 19  1  0  0  0  0
 21 20  1  0  0  0  0
 22 20  2  0  0  0  0
 22 24  1  0  0  0  0
 23 22  1  0  0  0  0
 24 25  2  0  0  0  0
 25 18  1  0  0  0  0
M  END
>  <minimizedAffinity>
-4.97362852

>  <minimizedRMSD>
3.99725771

$$$$
