
     RDKit          3D

 36 38  0  0  0  0  0  0  0  0999 V2000
   36.4690   29.8871   48.6833 N   0  0  0  0  0  0  0  0  0  0  0  0
   37.5954   30.6506   48.2295 C   0  0  0  0  0  0  0  0  0  0  0  0
   38.1009   31.2875   49.5155 C   0  0  2  0  0  0  0  0  0  0  0  0
   37.1145   30.8944   50.5954 C   0  0  0  0  0  0  0  0  0  0  0  0
   36.7365   29.5203   50.0574 C   0  0  0  0  0  0  0  0  0  0  0  0
   35.2945   29.5440   47.9327 C   0  0  0  0  0  0  0  0  0  0  0  0
   35.2306   30.0011   46.6110 C   0  0  0  0  0  0  0  0  0  0  0  0
   34.0913   29.6726   45.8724 C   0  0  0  0  0  0  0  0  0  0  0  0
   33.1217   28.9245   46.5054 N   0  0  0  0  0  0  0  0  0  0  0  0
   33.2240   28.5125   47.7604 C   0  0  0  0  0  0  0  0  0  0  0  0
   34.3084   28.8153   48.4901 N   0  0  0  0  0  0  0  0  0  0  0  0
   31.9303   27.5427   48.5103 S   0  0  0  0  0  0  0  0  0  0  0  0
   38.2580   32.7827   49.4103 C   0  0  0  0  0  0  0  0  0  0  0  0
   37.0883   33.3390   49.8861 F   0  0  0  0  0  0  0  0  0  0  0  0
   38.3124   33.0760   48.0572 F   0  0  0  0  0  0  0  0  0  0  0  0
   39.3732   33.2638   50.0270 F   0  0  0  0  0  0  0  0  0  0  0  0
   38.3703   29.9409   47.8734 H   0  0  0  0  0  0  0  0  0  0  0  0
   37.3276   31.4256   47.4857 H   0  0  0  0  0  0  0  0  0  0  0  0
   39.0754   30.8702   49.8304 H   0  0  0  0  0  0  0  0  0  0  0  0
   37.5941   30.7390   51.5688 H   0  0  0  0  0  0  0  0  0  0  0  0
   36.2115   31.5332   50.6137 H   0  0  0  0  0  0  0  0  0  0  0  0
   37.6255   28.8624   50.1376 H   0  0  0  0  0  0  0  0  0  0  0  0
   35.8394   29.1477   50.5735 H   0  0  0  0  0  0  0  0  0  0  0  0
   36.0193   30.5877   46.1548 H   0  0  0  0  0  0  0  0  0  0  0  0
   33.9818   29.9914   44.8578 H   0  0  0  0  0  0  0  0  0  0  0  0
   31.3014   27.3703   51.3574 F   0  0  0  0  0  0  0  0  0  0  0  0
   30.5567   28.2908   50.6720 C   0  0  0  0  0  0  0  0  0  0  0  0
   30.6842   28.5444   49.3062 C   0  0  0  0  0  0  0  0  0  0  0  0
   29.8876   29.4937   48.7009 C   0  0  0  0  0  0  0  0  0  0  0  0
   30.0531   29.6221   47.6523 H   0  0  0  0  0  0  0  0  0  0  0  0
   28.9583   30.2017   49.4350 C   0  0  0  0  0  0  0  0  0  0  0  0
   28.3413   30.9430   48.9445 H   0  0  0  0  0  0  0  0  0  0  0  0
   28.8368   29.9421   50.8012 C   0  0  0  0  0  0  0  0  0  0  0  0
   29.6255   28.9885   51.4502 C   0  0  0  0  0  0  0  0  0  0  0  0
   28.1055   30.4942   51.3970 H   0  0  0  0  0  0  0  0  0  0  0  0
   29.5159   28.8022   52.5103 H   0  0  0  0  0  0  0  0  0  0  0  0
  1  5  1  0
  2  1  1  0
  2  3  1  0
  3  4  1  0
  5  4  1  0
  6 11  1  0
  6  1  1  0
  7  6  2  0
  8  9  2  0
  8  7  1  0
  9 10  1  0
 10 11  2  0
 10 12  1  0
 13  3  1  0
 13 14  1  0
 13 16  1  0
 15 13  1  0
  2 17  1  0
  2 18  1  0
  3 19  1  1
  4 20  1  0
  4 21  1  0
  5 22  1  0
  5 23  1  0
  7 24  1  0
  8 25  1  0
 26 27  1  0
 27 28  2  0
 28 29  1  0
 29 30  1  0
 29 31  2  0
 31 32  1  0
 31 33  1  0
 33 34  2  0
 34 27  1  0
 33 35  1  0
 34 36  1  0
 12 28  1  0
M  ISO  8  17  13  18  13  19  13  20  13  21  13  22  13  23  13  24  14
M  ISO  3  25  14  30  15  32  16
M  END
>  <DihAtoms>  (1) 
9,11,27,26

>  <DihDeg>  (1) 
90.01060863101665

$$$$
