
     RDKit          3D

 35 36  0  0  1  0  0  0  0  0999 V2000
   65.1340   56.9230   26.9930 C   0  0  0  0  0  0  0  0  0  0  0  0
   64.9580   56.0490   25.8750 C   0  0  0  0  0  0  0  0  0  0  0  0
   63.7290   55.9750   25.2220 C   0  0  0  0  0  0  0  0  0  0  0  0
   62.7440   56.7680   25.7060 N   0  0  0  0  0  0  0  0  0  0  0  0
   62.9140   57.5860   26.7540 C   0  0  0  0  0  0  0  0  0  0  0  0
   64.0820   57.6750   27.3980 N   0  0  0  0  0  0  0  0  0  0  0  0
   61.8170   58.3920   27.1860 N   0  0  0  0  0  0  0  0  0  0  0  0
   61.6250   59.0320   28.3750 N   0  0  0  0  0  0  0  0  0  0  0  0
   60.4410   59.6860   28.3140 C   0  0  0  0  0  0  0  0  0  0  0  0
   59.9020   59.4400   27.0610 C   0  0  0  0  0  0  0  0  0  0  0  0
   60.7900   58.6180   26.3640 C   0  0  0  0  0  0  0  0  0  0  0  0
   60.4700   58.2200   25.0290 N   0  0  0  0  0  0  0  0  0  0  0  0
   60.6380   59.0600   23.8560 C   0  0  0  0  0  0  0  0  0  0  0  0
   61.6340   59.8890   23.8910 N   0  0  0  0  0  0  0  0  0  0  0  0
   59.7290   58.9440   22.7450 N   0  0  0  0  0  0  0  0  0  0  0  0
   61.8220   60.5430   23.1040 H   0  0  0  0  0  0  0  0  0  0  0  0
   58.5670   59.9840   26.7880 C   0  0  2  0  0  0  0  0  0  0  0  0
   58.7030   61.3510   26.0770 C   0  0  0  0  0  0  0  0  0  0  0  0
   57.7280   60.2050   28.0050 C   0  0  0  0  0  0  0  0  0  0  0  0
   57.2380   61.5380   28.0580 N   0  0  0  0  0  0  0  0  0  0  0  0
   66.1017   56.9835   27.5126 H   0  0  0  0  0  0  0  0  0  0  0  0
   65.7988   55.4305   25.5278 H   0  0  0  0  0  0  0  0  0  0  0  0
   63.5681   55.3093   24.3612 H   0  0  0  0  0  0  0  0  0  0  0  0
   59.9912   60.2979   29.1098 H   0  0  0  0  0  0  0  0  0  0  0  0
   60.0940   57.2713   24.8890 H   0  0  0  0  0  0  0  0  0  0  0  0
   58.9564   58.2637   22.7806 H   0  0  0  0  0  0  0  0  0  0  0  0
   59.8515   59.5413   21.9149 H   0  0  0  0  0  0  0  0  0  0  0  0
   58.0663   59.2259   26.1678 H   0  0  0  0  0  0  0  0  0  0  0  0
   58.7824   62.1494   26.8295 H   0  0  0  0  0  0  0  0  0  0  0  0
   59.6054   61.3489   25.4479 H   0  0  0  0  0  0  0  0  0  0  0  0
   57.8179   61.5268   25.4479 H   0  0  0  0  0  0  0  0  0  0  0  0
   56.8755   59.5102   27.9837 H   0  0  0  0  0  0  0  0  0  0  0  0
   58.3514   60.0281   28.8939 H   0  0  0  0  0  0  0  0  0  0  0  0
   57.1321   61.8260   29.0412 H   0  0  0  0  0  0  0  0  0  0  0  0
   57.9027   62.1672   27.5856 H   0  0  0  0  0  0  0  0  0  0  0  0
  1  6  2  0
  2  1  1  0
  3  4  1  0
  3  2  2  0
  4  5  2  0
  5  7  1  0
  5  6  1  0
  7  8  1  0
  9  8  2  0
 10  9  1  0
 11 10  2  0
 11  7  1  0
 12 11  1  0
 13 14  2  0
 13 12  1  0
 15 13  1  0
 16 14  1  0
 17 10  1  0
 17 19  1  0
 18 17  1  0
 19 20  1  0
  1 21  1  0
  2 22  1  0
  3 23  1  0
  9 24  1  0
 12 25  1  0
 15 26  1  0
 15 27  1  0
 17 28  1  6
 18 29  1  0
 18 30  1  0
 18 31  1  0
 19 32  1  0
 19 33  1  0
 20 34  1  0
 20 35  1  0
M  ISO  8  21  14  22  14  23  14  24  14  28   8  29   8  30   8  31   8
M  ISO  4  32   8  33   8  34   5  35   5
M  END
>  <minimizedAffinity>  (1) 
-4.45277214

>  <minimizedRMSD>  (1) 
0.354987472

$$$$
