
     RDKit          3D

 47 51  0  0  0  0  0  0  0  0999 V2000
   37.7410   27.3680   35.3380 C   0  0  0  0  0  0  0  0  0  0  0  0
   38.9280   26.5380   35.1470 C   0  0  0  0  0  0  0  0  0  0  0  0
   40.0000   26.9980   34.3840 C   0  0  0  0  0  0  0  0  0  0  0  0
   41.1280   26.2390   34.2030 C   0  0  0  0  0  0  0  0  0  0  0  0
   41.2320   24.9710   34.7830 C   0  0  0  0  0  0  0  0  0  0  0  0
   40.1610   24.5040   35.5480 C   0  0  0  0  0  0  0  0  0  0  0  0
   40.2540   23.2610   36.1230 C   0  0  0  0  0  0  0  0  0  0  0  0
   39.2280   22.7550   36.8870 C   0  0  0  0  0  0  0  0  0  0  0  0
   38.0900   23.5240   37.0680 C   0  0  0  0  0  0  0  0  0  0  0  0
   38.0250   24.7830   36.4710 C   0  0  0  0  0  0  0  0  0  0  0  0
   39.0420   25.3070   35.7030 C   0  0  0  0  0  0  0  0  0  0  0  0
   35.6140   28.9680   32.8320 C   0  0  0  0  0  0  0  0  0  0  0  0
   35.4030   27.9920   31.8710 C   0  0  0  0  0  0  0  0  0  0  0  0
   36.0080   26.7400   32.0880 C   0  0  0  0  0  0  0  0  0  0  0  0
   36.7580   26.5540   33.2140 N   0  0  0  0  0  0  0  0  0  0  0  0
   36.9250   27.5220   34.0960 C   0  0  0  0  0  0  0  0  0  0  0  0
   36.3580   28.7280   33.9140 N   0  0  0  0  0  0  0  0  0  0  0  0
   35.8390   25.6580   31.1180 C   0  0  0  0  0  0  0  0  0  0  0  0
   34.7440   25.5910   30.4910 O   0  0  0  0  0  0  0  0  0  0  0  0
   36.9910   24.7710   30.9960 C   0  0  0  0  0  0  0  0  0  0  0  0
   38.2810   25.2320   30.7920 C   0  0  0  0  0  0  0  0  0  0  0  0
   39.3950   24.4330   30.6760 C   0  0  0  0  0  0  0  0  0  0  0  0
   39.2460   23.0770   30.7640 C   0  0  0  0  0  0  0  0  0  0  0  0
   37.9900   22.5450   30.9680 C   0  0  0  0  0  0  0  0  0  0  0  0
   37.8530   21.1630   31.0550 C   0  0  0  0  0  0  0  0  0  0  0  0
   36.6140   20.6010   31.2560 C   0  0  0  0  0  0  0  0  0  0  0  0
   35.5050   21.4300   31.3690 C   0  0  0  0  0  0  0  0  0  0  0  0
   35.6980   22.7970   31.2750 C   0  0  0  0  0  0  0  0  0  0  0  0
   36.9110   23.3990   31.0760 C   0  0  0  0  0  0  0  0  0  0  0  0
   37.1128   26.9065   36.1142 H   0  0  0  0  0  0  0  0  0  0  0  0
   38.0866   28.3710   35.6288 H   0  0  0  0  0  0  0  0  0  0  0  0
   39.9400   27.9919   33.9166 H   0  0  0  0  0  0  0  0  0  0  0  0
   41.9577   26.6311   33.5965 H   0  0  0  0  0  0  0  0  0  0  0  0
   42.1337   24.3574   34.6405 H   0  0  0  0  0  0  0  0  0  0  0  0
   41.1628   22.6604   35.9705 H   0  0  0  0  0  0  0  0  0  0  0  0
   39.3097   21.7585   37.3456 H   0  0  0  0  0  0  0  0  0  0  0  0
   37.2515   23.1480   37.6725 H   0  0  0  0  0  0  0  0  0  0  0  0
   37.1178   25.3869   36.6206 H   0  0  0  0  0  0  0  0  0  0  0  0
   35.1590   29.9608   32.7004 H   0  0  0  0  0  0  0  0  0  0  0  0
   34.7901   28.1871   30.9786 H   0  0  0  0  0  0  0  0  0  0  0  0
   38.4259   26.3198   30.7170 H   0  0  0  0  0  0  0  0  0  0  0  0
   40.3882   24.8776   30.5152 H   0  0  0  0  0  0  0  0  0  0  0  0
   40.1204   22.4158   30.6729 H   0  0  0  0  0  0  0  0  0  0  0  0
   38.7390   20.5176   30.9627 H   0  0  0  0  0  0  0  0  0  0  0  0
   36.5025   19.5089   31.3264 H   0  0  0  0  0  0  0  0  0  0  0  0
   34.5006   21.0110   31.5289 H   0  0  0  0  0  0  0  0  0  0  0  0
   34.8143   23.4456   31.3667 H   0  0  0  0  0  0  0  0  0  0  0  0
  2  1  1  0
  2 11  1  0
  3  2  2  0
  4  3  1  0
  4  5  2  0
  5  6  1  0
  6 11  2  0
  6  7  1  0
  7  8  2  0
  8  9  1  0
 10  9  2  0
 11 10  1  0
 12 17  2  0
 13 14  2  0
 13 12  1  0
 14 15  1  0
 15 16  2  0
 16  1  1  0
 17 16  1  0
 18 14  1  0
 19 18  2  0
 20 29  1  0
 20 18  1  0
 21 20  2  0
 22 23  2  0
 22 21  1  0
 23 24  1  0
 24 25  1  0
 24 29  2  0
 25 26  2  0
 26 27  1  0
 28 27  2  0
 29 28  1  0
  1 30  1  0
  1 31  1  0
  3 32  1  0
  4 33  1  0
  5 34  1  0
  7 35  1  0
  8 36  1  0
  9 37  1  0
 10 38  1  0
 12 39  1  0
 13 40  1  0
 21 41  1  0
 22 42  1  0
 23 43  1  0
 25 44  1  0
 26 45  1  0
 27 46  1  0
 28 47  1  0
M  END
>  <Score>  (1) 
-7.01221

$$$$
