
     RDKit          3D

 47 52  0  0  0  0  0  0  0  0999 V2000
   40.6910   22.3630   36.8760 C   0  0  0  0  0  0  0  0  0  0  0  0
   40.0310   23.3510   36.1220 C   0  0  0  0  0  0  0  0  0  0  0  0
   40.8450   24.2930   35.5120 C   0  0  0  0  0  0  0  0  0  0  0  0
   42.1670   24.1680   35.7020 N   0  0  0  0  0  0  0  0  0  0  0  0
   42.7970   23.2360   36.4150 C   0  0  0  0  0  0  0  0  0  0  0  0
   42.0120   22.3230   37.0070 N   0  0  0  0  0  0  0  0  0  0  0  0
   44.2470   23.4010   36.4090 C   0  0  0  0  0  0  0  0  0  0  0  0
   45.0500   22.6210   35.6000 C   0  0  0  0  0  0  0  0  0  0  0  0
   46.4200   22.7360   35.5550 C   0  0  0  0  0  0  0  0  0  0  0  0
   47.0730   23.6550   36.3320 C   0  0  0  0  0  0  0  0  0  0  0  0
   46.3070   24.4560   37.1570 C   0  0  0  0  0  0  0  0  0  0  0  0
   46.9570   25.3790   37.9370 C   0  0  0  0  0  0  0  0  0  0  0  0
   46.2760   26.2120   38.7820 C   0  0  0  0  0  0  0  0  0  0  0  0
   44.8830   26.0730   38.8070 C   0  0  0  0  0  0  0  0  0  0  0  0
   44.2800   25.1320   38.0040 C   0  0  0  0  0  0  0  0  0  0  0  0
   44.9450   24.2990   37.1610 C   0  0  0  0  0  0  0  0  0  0  0  0
   40.3010   25.3540   34.7130 N   0  0  0  0  0  0  0  0  0  0  0  0
   39.0990   25.2500   34.1440 C   0  0  0  0  0  0  0  0  0  0  0  0
   38.9010   26.4160   33.4730 C   0  0  0  0  0  0  0  0  0  0  0  0
   39.9710   27.2060   33.6390 N   0  0  0  0  0  0  0  0  0  0  0  0
   40.8630   26.5430   34.4230 C   0  0  0  0  0  0  0  0  0  0  0  0
   37.6710   26.6960   32.7020 C   0  0  0  0  0  0  0  0  0  0  0  0
   37.1100   27.9270   32.3840 C   0  0  0  0  0  0  0  0  0  0  0  0
   35.9890   27.7220   31.6670 N   0  0  0  0  0  0  0  0  0  0  0  0
   35.7960   26.3900   31.5040 C   0  0  0  0  0  0  0  0  0  0  0  0
   34.8100   25.6750   30.8570 C   0  0  0  0  0  0  0  0  0  0  0  0
   34.8410   24.2860   30.8340 C   0  0  0  0  0  0  0  0  0  0  0  0
   35.8720   23.6060   31.4670 C   0  0  0  0  0  0  0  0  0  0  0  0
   36.8370   24.3550   32.1020 C   0  0  0  0  0  0  0  0  0  0  0  0
   36.8480   25.7340   32.1510 C   0  0  0  0  0  0  0  0  0  0  0  0
   40.0878   21.5919   37.3776 H   0  0  0  0  0  0  0  0  0  0  0  0
   38.9357   23.3745   36.0226 H   0  0  0  0  0  0  0  0  0  0  0  0
   44.5688   21.8684   34.9581 H   0  0  0  0  0  0  0  0  0  0  0  0
   46.9982   22.0814   34.8863 H   0  0  0  0  0  0  0  0  0  0  0  0
   48.1683   23.7521   36.3005 H   0  0  0  0  0  0  0  0  0  0  0  0
   48.0532   25.4510   37.8815 H   0  0  0  0  0  0  0  0  0  0  0  0
   46.7954   26.9519   39.4087 H   0  0  0  0  0  0  0  0  0  0  0  0
   44.2746   26.7117   39.4642 H   0  0  0  0  0  0  0  0  0  0  0  0
   43.1840   25.0483   38.0475 H   0  0  0  0  0  0  0  0  0  0  0  0
   38.4089   24.3956   34.2051 H   0  0  0  0  0  0  0  0  0  0  0  0
   41.8473   26.9057   34.7542 H   0  0  0  0  0  0  0  0  0  0  0  0
   37.5155   28.9084   32.6711 H   0  0  0  0  0  0  0  0  0  0  0  0
   35.3738   28.4619   31.2995 H   0  0  0  0  0  0  0  0  0  0  0  0
   33.9907   26.2097   30.3541 H   0  0  0  0  0  0  0  0  0  0  0  0
   34.0493   23.7261   30.3147 H   0  0  0  0  0  0  0  0  0  0  0  0
   35.9166   22.5069   31.4616 H   0  0  0  0  0  0  0  0  0  0  0  0
   37.6548   23.8177   32.6044 H   0  0  0  0  0  0  0  0  0  0  0  0
  1  6  2  0
  2  1  1  0
  3  4  1  0
  3  2  2  0
  4  5  2  0
  5  6  1  0
  7  5  1  0
  7 16  1  0
  8  7  2  0
  9  8  1  0
  9 10  2  0
 10 11  1  0
 11 16  2  0
 11 12  1  0
 12 13  2  0
 13 14  1  0
 15 14  2  0
 16 15  1  0
 17  3  1  0
 18 17  1  0
 19 20  1  0
 19 18  2  0
 20 21  2  0
 21 17  1  0
 22 19  1  0
 23 22  2  0
 24 23  1  0
 25 24  1  0
 25 30  2  0
 26 25  1  0
 27 26  2  0
 27 28  1  0
 28 29  2  0
 29 30  1  0
 30 22  1  0
  1 31  1  0
  2 32  1  0
  8 33  1  0
  9 34  1  0
 10 35  1  0
 12 36  1  0
 13 37  1  0
 14 38  1  0
 15 39  1  0
 18 40  1  0
 21 41  1  0
 23 42  1  0
 24 43  1  0
 26 44  1  0
 27 45  1  0
 28 46  1  0
 29 47  1  0
M  END
>  <Score>  (1) 
-7.04101

$$$$
