
     RDKit          3D

 36 40  0  0  0  0  0  0  0  0999 V2000
   37.7000   27.1440   35.3140 C   0  0  0  0  0  0  0  0  0  0  0  0
   37.8720   25.9910   34.5180 C   0  0  0  0  0  0  0  0  0  0  0  0
   37.2640   25.9770   33.2750 C   0  0  0  0  0  0  0  0  0  0  0  0
   36.5310   27.0580   32.8670 N   0  0  0  0  0  0  0  0  0  0  0  0
   36.3920   28.1410   33.6600 C   0  0  0  0  0  0  0  0  0  0  0  0
   36.9710   28.1730   34.8600 N   0  0  0  0  0  0  0  0  0  0  0  0
   35.6450   29.2950   33.2960 N   0  0  0  0  0  0  0  0  0  0  0  0
   34.9810   29.5990   32.1820 C   0  0  0  0  0  0  0  0  0  0  0  0
   34.4250   30.8300   32.3190 N   0  0  0  0  0  0  0  0  0  0  0  0
   34.7450   31.3040   33.5320 C   0  0  0  0  0  0  0  0  0  0  0  0
   34.4580   32.4780   34.1930 C   0  0  0  0  0  0  0  0  0  0  0  0
   34.9250   32.7000   35.4530 N   0  0  0  0  0  0  0  0  0  0  0  0
   35.6690   31.7560   36.0380 C   0  0  0  0  0  0  0  0  0  0  0  0
   35.9670   30.5970   35.4180 N   0  0  0  0  0  0  0  0  0  0  0  0
   35.5240   30.3260   34.1600 C   0  0  0  0  0  0  0  0  0  0  0  0
   38.6520   24.9340   35.0450 N   0  0  0  0  0  0  0  0  0  0  0  0
   39.5790   24.2160   34.3500 C   0  0  0  0  0  0  0  0  0  0  0  0
   40.1280   23.2880   35.1760 N   0  0  0  0  0  0  0  0  0  0  0  0
   39.5560   23.4180   36.3770 C   0  0  0  0  0  0  0  0  0  0  0  0
   39.6750   22.7960   37.5920 C   0  0  0  0  0  0  0  0  0  0  0  0
   38.9430   23.1380   38.6970 N   0  0  0  0  0  0  0  0  0  0  0  0
   38.0420   24.1570   38.5820 C   0  0  0  0  0  0  0  0  0  0  0  0
   37.9020   24.7860   37.4050 N   0  0  0  0  0  0  0  0  0  0  0  0
   38.6290   24.4390   36.3270 C   0  0  0  0  0  0  0  0  0  0  0  0
   40.5940   21.7300   37.7720 N   0  0  0  0  0  0  0  0  0  0  0  0
   33.6650   33.5020   33.5870 N   0  0  0  0  0  0  0  0  0  0  0  0
   38.1654   27.1981   36.3092 H   0  0  0  0  0  0  0  0  0  0  0  0
   37.3695   25.1010   32.6181 H   0  0  0  0  0  0  0  0  0  0  0  0
   34.8967   28.9559   31.2936 H   0  0  0  0  0  0  0  0  0  0  0  0
   36.0492   31.9303   37.0554 H   0  0  0  0  0  0  0  0  0  0  0  0
   39.8401   24.3641   33.2918 H   0  0  0  0  0  0  0  0  0  0  0  0
   37.4351   24.4603   39.4479 H   0  0  0  0  0  0  0  0  0  0  0  0
   40.6752   21.2695   38.6897 H   0  0  0  0  0  0  0  0  0  0  0  0
   41.1799   21.4167   36.9849 H   0  0  0  0  0  0  0  0  0  0  0  0
   33.4646   34.3710   34.1024 H   0  0  0  0  0  0  0  0  0  0  0  0
   33.2942   33.3707   32.6351 H   0  0  0  0  0  0  0  0  0  0  0  0
  2 16  1  0
  2  1  2  0
  3  2  1  0
  4  3  2  0
  4  5  1  0
  5  6  2  0
  6  1  1  0
  7  5  1  0
  7 15  1  0
  8  9  2  0
  8  7  1  0
  9 10  1  0
 10 15  2  0
 10 11  1  0
 11 12  2  0
 12 13  1  0
 14 13  2  0
 15 14  1  0
 16 24  1  0
 17 16  1  0
 17 18  2  0
 18 19  1  0
 19 20  2  0
 20 25  1  0
 20 21  1  0
 22 21  2  0
 23 22  1  0
 24 19  1  0
 24 23  2  0
 26 11  1  0
  1 27  1  0
  3 28  1  0
  8 29  1  0
 13 30  1  0
 17 31  1  0
 22 32  1  0
 25 33  1  0
 25 34  1  0
 26 35  1  0
 26 36  1  0
M  END
>  <Score>  (1) 
-7.04749

$$$$
