
     RDKit          3D

 53 58  0  0  1  0  0  0  0  0999 V2000
   36.2730   26.3290   31.8590 C   0  0  0  0  0  0  0  0  0  0  0  0
   35.6890   25.2780   31.1750 C   0  0  0  0  0  0  0  0  0  0  0  0
   36.3130   24.1670   31.6850 N   0  0  0  0  0  0  0  0  0  0  0  0
   37.1960   24.5920   32.6040 C   0  0  0  0  0  0  0  0  0  0  0  0
   37.2000   25.9200   32.7380 N   0  0  0  0  0  0  0  0  0  0  0  0
   37.9840   26.7320   33.6000 C   0  0  1  0  0  0  0  0  0  0  0  0
   37.3640   26.9330   34.9270 C   0  0  0  0  0  0  0  0  0  0  0  0
   37.8150   25.7180   35.7170 C   0  0  0  0  0  0  0  0  0  0  0  0
   39.2400   25.5760   35.3160 C   0  0  0  0  0  0  0  0  0  0  0  0
   39.3240   26.1110   33.9210 C   0  0  2  0  0  0  0  0  0  0  0  0
   40.3770   27.2060   33.8080 C   0  0  0  0  0  0  0  0  0  0  0  0
   41.2890   27.0140   32.5940 C   0  0  0  0  0  0  0  0  0  0  0  0
   41.8100   26.9460   33.9940 C   0  0  0  0  0  0  0  0  0  0  0  0
   35.9350   27.7370   31.6640 C   0  0  0  0  0  0  0  0  0  0  0  0
   36.5140   28.4630   30.6290 C   0  0  0  0  0  0  0  0  0  0  0  0
   36.1280   29.8220   30.5320 C   0  0  0  0  0  0  0  0  0  0  0  0
   35.2580   30.3290   31.4090 N   0  0  0  0  0  0  0  0  0  0  0  0
   34.7220   29.6090   32.3900 C   0  0  0  0  0  0  0  0  0  0  0  0
   35.0620   28.3210   32.5100 N   0  0  0  0  0  0  0  0  0  0  0  0
   33.7560   30.0030   33.4350 C   0  0  0  0  0  0  0  0  0  0  0  0
   32.3820   29.7500   33.3420 C   0  0  0  0  0  0  0  0  0  0  0  0
   31.4770   30.1080   34.3000 C   0  0  0  0  0  0  0  0  0  0  0  0
   31.8880   30.7560   35.4390 C   0  0  0  0  0  0  0  0  0  0  0  0
   33.2270   31.0330   35.5890 C   0  0  0  0  0  0  0  0  0  0  0  0
   33.6060   31.6840   36.7430 C   0  0  0  0  0  0  0  0  0  0  0  0
   34.9300   31.9960   36.9610 C   0  0  0  0  0  0  0  0  0  0  0  0
   35.8400   31.6240   35.9750 C   0  0  0  0  0  0  0  0  0  0  0  0
   35.3970   30.9750   34.8450 C   0  0  0  0  0  0  0  0  0  0  0  0
   34.0920   30.6500   34.5950 C   0  0  0  0  0  0  0  0  0  0  0  0
   34.9070   25.3223   30.4026 H   0  0  0  0  0  0  0  0  0  0  0  0
   37.8451   23.9187   33.1831 H   0  0  0  0  0  0  0  0  0  0  0  0
   38.0784   27.6742   33.0402 H   0  0  0  0  0  0  0  0  0  0  0  0
   37.7255   27.8614   35.3932 H   0  0  0  0  0  0  0  0  0  0  0  0
   36.2694   27.0298   34.8780 H   0  0  0  0  0  0  0  0  0  0  0  0
   37.7232   25.8924   36.7992 H   0  0  0  0  0  0  0  0  0  0  0  0
   37.2138   24.8192   35.5154 H   0  0  0  0  0  0  0  0  0  0  0  0
   39.8875   26.1571   35.9891 H   0  0  0  0  0  0  0  0  0  0  0  0
   39.5743   24.5294   35.3700 H   0  0  0  0  0  0  0  0  0  0  0  0
   39.5907   25.2923   33.2364 H   0  0  0  0  0  0  0  0  0  0  0  0
   39.7193   27.9687   34.2504 H   0  0  0  0  0  0  0  0  0  0  0  0
   41.2163   26.1018   31.9836 H   0  0  0  0  0  0  0  0  0  0  0  0
   41.5305   27.5912   31.6893 H   0  0  0  0  0  0  0  0  0  0  0  0
   42.4636   27.7466   34.3706 H   0  0  0  0  0  0  0  0  0  0  0  0
   42.3844   26.1984   34.5608 H   0  0  0  0  0  0  0  0  0  0  0  0
   37.2292   28.0088   29.9275 H   0  0  0  0  0  0  0  0  0  0  0  0
   36.5436   30.4581   29.7366 H   0  0  0  0  0  0  0  0  0  0  0  0
   32.0100   29.2329   32.4452 H   0  0  0  0  0  0  0  0  0  0  0  0
   30.4112   29.8757   34.1584 H   0  0  0  0  0  0  0  0  0  0  0  0
   31.1631   31.0468   36.2135 H   0  0  0  0  0  0  0  0  0  0  0  0
   32.8484   31.9555   37.4929 H   0  0  0  0  0  0  0  0  0  0  0  0
   35.2542   32.5164   37.8743 H   0  0  0  0  0  0  0  0  0  0  0  0
   36.9098   31.8481   36.0988 H   0  0  0  0  0  0  0  0  0  0  0  0
   36.1461   30.6978   34.0887 H   0  0  0  0  0  0  0  0  0  0  0  0
  1  5  1  0
  2  3  1  0
  2  1  2  0
  3  4  2  0
  4  5  1  0
  5  6  1  0
  6 10  1  0
  6  7  1  0
  7  8  1  0
  9  8  1  0
 10  9  1  0
 11 10  1  0
 11 13  1  0
 12 11  1  0
 12 13  1  0
 14  1  1  0
 14 19  1  0
 15 14  2  0
 16 15  1  0
 16 17  2  0
 17 18  1  0
 18 19  2  0
 18 20  1  0
 20 29  1  0
 21 20  2  0
 21 22  1  0
 22 23  2  0
 23 24  1  0
 24 25  2  0
 25 26  1  0
 27 26  2  0
 28 27  1  0
 29 28  2  0
 29 24  1  0
  2 30  1  0
  4 31  1  0
  6 32  1  6
  7 33  1  0
  7 34  1  0
  8 35  1  0
  8 36  1  0
  9 37  1  0
  9 38  1  0
 10 39  1  6
 11 40  1  0
 12 41  1  0
 12 42  1  0
 13 43  1  0
 13 44  1  0
 15 45  1  0
 16 46  1  0
 21 47  1  0
 22 48  1  0
 23 49  1  0
 25 50  1  0
 26 51  1  0
 27 52  1  0
 28 53  1  0
M  END
>  <Score>  (1) 
-7.02419

$$$$
