
     RDKit          3D

 58 61  0  0  1  0  0  0  0  0999 V2000
   38.8330   25.9230   34.8450 C   0  0  2  0  0  0  0  0  0  0  0  0
   38.8640   22.9510   37.0120 C   0  0  0  0  0  0  0  0  0  0  0  0
   38.3470   23.4050   38.2080 C   0  0  0  0  0  0  0  0  0  0  0  0
   37.9880   24.7330   38.2530 C   0  0  0  0  0  0  0  0  0  0  0  0
   38.1540   25.5100   37.1530 N   0  0  0  0  0  0  0  0  0  0  0  0
   38.6630   25.0410   35.9950 C   0  0  0  0  0  0  0  0  0  0  0  0
   39.0170   23.7280   35.9520 N   0  0  0  0  0  0  0  0  0  0  0  0
   38.2380   22.4940   39.2830 N   0  0  0  0  0  0  0  0  0  0  0  0
   39.1030   27.3340   35.2960 C   0  0  0  0  0  0  0  0  0  0  0  0
   37.5700   25.8720   34.0400 C   0  0  0  0  0  0  0  0  0  0  0  0
   37.1230   27.0740   33.4340 N   0  0  0  0  0  0  0  0  0  0  0  0
   36.4630   27.9240   34.2520 C   0  0  0  0  0  0  0  0  0  0  0  0
   35.9750   29.1440   33.8120 C   0  0  0  0  0  0  0  0  0  0  0  0
   36.1810   29.4780   32.4900 C   0  0  0  0  0  0  0  0  0  0  0  0
   35.6710   30.7350   32.0660 N   0  0  0  0  0  0  0  0  0  0  0  0
   36.8380   28.6280   31.6790 N   0  0  0  0  0  0  0  0  0  0  0  0
   37.2830   27.4660   32.1690 C   0  0  0  0  0  0  0  0  0  0  0  0
   37.8880   26.6670   31.4280 O   0  0  0  0  0  0  0  0  0  0  0  0
   35.2600   30.0300   34.7420 C   0  0  0  0  0  0  0  0  0  0  0  0
   35.9200   30.9560   35.5020 C   0  0  0  0  0  0  0  0  0  0  0  0
   35.2390   31.7820   36.3760 C   0  0  0  0  0  0  0  0  0  0  0  0
   33.8920   31.6300   36.4400 C   0  0  0  0  0  0  0  0  0  0  0  0
   33.1790   30.7200   35.7020 C   0  0  0  0  0  0  0  0  0  0  0  0
   33.8780   29.8920   34.8250 C   0  0  0  0  0  0  0  0  0  0  0  0
   39.9990   25.4780   33.9690 C   0  0  0  0  0  0  0  0  0  0  0  0
   41.3140   25.8900   34.2700 N   0  0  0  0  0  0  0  0  0  0  0  0
   42.0470   25.0860   35.0990 C   0  0  0  0  0  0  0  0  0  0  0  0
   43.3830   25.3370   35.4280 C   0  0  0  0  0  0  0  0  0  0  0  0
   44.2200   24.4910   36.3230 C   0  0  0  0  0  0  0  0  0  0  0  0
   44.0440   26.4570   34.9070 C   0  0  0  0  0  0  0  0  0  0  0  0
   45.2220   26.7310   35.1590 O   0  0  0  0  0  0  0  0  0  0  0  0
   43.3100   27.2350   34.1000 N   0  0  0  0  0  0  0  0  0  0  0  0
   42.0420   26.9290   33.8360 C   0  0  0  0  0  0  0  0  0  0  0  0
   41.4630   27.7510   33.0790 O   0  0  0  0  0  0  0  0  0  0  0  0
   39.1626   21.8950   36.9363 H   0  0  0  0  0  0  0  0  0  0  0  0
   37.5690   25.1619   39.1752 H   0  0  0  0  0  0  0  0  0  0  0  0
   37.8555   22.8071   40.1866 H   0  0  0  0  0  0  0  0  0  0  0  0
   38.5411   21.5170   39.1628 H   0  0  0  0  0  0  0  0  0  0  0  0
   39.1104   27.3725   36.3953 H   0  0  0  0  0  0  0  0  0  0  0  0
   40.0801   27.6613   34.9111 H   0  0  0  0  0  0  0  0  0  0  0  0
   38.3158   27.9989   34.9111 H   0  0  0  0  0  0  0  0  0  0  0  0
   37.7226   25.1365   33.2364 H   0  0  0  0  0  0  0  0  0  0  0  0
   36.7861   25.6217   34.7700 H   0  0  0  0  0  0  0  0  0  0  0  0
   36.3080   27.6375   35.3027 H   0  0  0  0  0  0  0  0  0  0  0  0
   35.7949   31.0382   31.0895 H   0  0  0  0  0  0  0  0  0  0  0  0
   35.1775   31.3428   32.7353 H   0  0  0  0  0  0  0  0  0  0  0  0
   37.0130   31.0449   35.4160 H   0  0  0  0  0  0  0  0  0  0  0  0
   35.7642   32.5277   36.9909 H   0  0  0  0  0  0  0  0  0  0  0  0
   33.3345   32.2803   37.1301 H   0  0  0  0  0  0  0  0  0  0  0  0
   32.0859   30.6456   35.7994 H   0  0  0  0  0  0  0  0  0  0  0  0
   33.3492   29.1467   34.2127 H   0  0  0  0  0  0  0  0  0  0  0  0
   40.0018   24.3781   33.9816 H   0  0  0  0  0  0  0  0  0  0  0  0
   39.7949   25.9770   33.0102 H   0  0  0  0  0  0  0  0  0  0  0  0
   41.5613   24.1974   35.5285 H   0  0  0  0  0  0  0  0  0  0  0  0
   43.9877   24.7258   37.3722 H   0  0  0  0  0  0  0  0  0  0  0  0
   44.0068   23.4294   36.1290 H   0  0  0  0  0  0  0  0  0  0  0  0
   45.2838   24.6928   36.1290 H   0  0  0  0  0  0  0  0  0  0  0  0
   43.7305   28.0766   33.6806 H   0  0  0  0  0  0  0  0  0  0  0  0
  1 25  1  6
  1  9  1  0
  1  6  1  0
  2  3  2  0
  3  4  1  0
  3  8  1  0
  5  4  2  0
  6  5  1  0
  7  6  2  0
  7  2  1  0
 10  1  1  0
 11 10  1  0
 11 12  1  0
 13 12  2  0
 13 19  1  0
 14 13  1  0
 15 14  1  0
 16 17  1  0
 16 14  2  0
 17 11  1  0
 18 17  2  0
 19 24  1  0
 19 20  2  0
 20 21  1  0
 21 22  2  0
 23 22  1  0
 24 23  2  0
 25 26  1  0
 26 27  1  0
 27 28  2  0
 28 29  1  0
 30 31  2  0
 30 28  1  0
 32 30  1  0
 33 32  1  0
 33 26  1  0
 34 33  2  0
  2 35  1  0
  4 36  1  0
  8 37  1  0
  8 38  1  0
  9 39  1  0
  9 40  1  0
  9 41  1  0
 10 42  1  0
 10 43  1  0
 12 44  1  0
 15 45  1  0
 15 46  1  0
 20 47  1  0
 21 48  1  0
 22 49  1  0
 23 50  1  0
 24 51  1  0
 25 52  1  0
 25 53  1  0
 27 54  1  0
 29 55  1  0
 29 56  1  0
 29 57  1  0
 32 58  1  0
M  END
>  <Score>  (1) 
-7.5515

$$$$
