
     RDKit          3D

 44 49  0  0  0  0  0  0  0  0999 V2000
   40.9470   22.4670   36.3560 C   0  0  0  0  0  0  0  0  0  0  0  0
   40.4320   22.5750   37.6740 C   0  0  0  0  0  0  0  0  0  0  0  0
   39.1660   23.1630   37.8110 C   0  0  0  0  0  0  0  0  0  0  0  0
   38.4910   23.5970   36.7160 N   0  0  0  0  0  0  0  0  0  0  0  0
   39.0300   23.4700   35.4640 C   0  0  0  0  0  0  0  0  0  0  0  0
   40.2470   22.9080   35.2900 N   0  0  0  0  0  0  0  0  0  0  0  0
   38.3510   23.9110   34.3120 N   0  0  0  0  0  0  0  0  0  0  0  0
   38.2050   23.0880   33.2380 C   0  0  0  0  0  0  0  0  0  0  0  0
   37.5150   23.7790   32.2880 N   0  0  0  0  0  0  0  0  0  0  0  0
   37.2300   25.0010   32.7360 C   0  0  0  0  0  0  0  0  0  0  0  0
   36.5770   26.1560   32.2860 C   0  0  0  0  0  0  0  0  0  0  0  0
   36.0930   26.0970   31.1280 O   0  0  0  0  0  0  0  0  0  0  0  0
   36.4990   27.2410   33.0860 N   0  0  0  0  0  0  0  0  0  0  0  0
   37.0230   27.2700   34.3070 C   0  0  0  0  0  0  0  0  0  0  0  0
   36.8400   28.5040   35.0030 N   0  0  0  0  0  0  0  0  0  0  0  0
   37.6630   26.1720   34.7780 N   0  0  0  0  0  0  0  0  0  0  0  0
   37.7580   25.0830   34.0120 C   0  0  0  0  0  0  0  0  0  0  0  0
   35.8120   28.4370   32.5990 C   0  0  0  0  0  0  0  0  0  0  0  0
   36.3130   29.1810   31.5090 C   0  0  0  0  0  0  0  0  0  0  0  0
   35.0810   30.5420   31.3350 S   0  0  0  0  0  0  0  0  0  0  0  0
   34.0860   29.8640   32.7860 C   0  0  0  0  0  0  0  0  0  0  0  0
   34.6990   28.9550   33.0790 N   0  0  0  0  0  0  0  0  0  0  0  0
   32.8350   30.3220   33.4360 N   0  0  0  0  0  0  0  0  0  0  0  0
   31.5580   30.2580   33.0010 C   0  0  0  0  0  0  0  0  0  0  0  0
   30.8570   30.8120   33.9790 N   0  0  0  0  0  0  0  0  0  0  0  0
   31.6500   31.2090   34.9900 C   0  0  0  0  0  0  0  0  0  0  0  0
   31.4360   31.8220   36.2080 C   0  0  0  0  0  0  0  0  0  0  0  0
   30.2790   32.1320   36.5750 O   0  0  0  0  0  0  0  0  0  0  0  0
   32.4400   32.1190   37.0610 N   0  0  0  0  0  0  0  0  0  0  0  0
   33.6930   31.7950   36.6850 C   0  0  0  0  0  0  0  0  0  0  0  0
   34.8790   32.0180   37.4280 N   0  0  0  0  0  0  0  0  0  0  0  0
   33.9190   31.1950   35.5000 N   0  0  0  0  0  0  0  0  0  0  0  0
   32.9460   30.8900   34.6360 C   0  0  0  0  0  0  0  0  0  0  0  0
   41.9374   22.0144   36.2002 H   0  0  0  0  0  0  0  0  0  0  0  0
   40.9982   22.2151   38.5457 H   0  0  0  0  0  0  0  0  0  0  0  0
   38.7183   23.2729   38.8097 H   0  0  0  0  0  0  0  0  0  0  0  0
   38.5756   22.0558   33.1527 H   0  0  0  0  0  0  0  0  0  0  0  0
   37.2130   28.6178   35.9563 H   0  0  0  0  0  0  0  0  0  0  0  0
   36.3350   29.2799   34.5515 H   0  0  0  0  0  0  0  0  0  0  0  0
   37.2167   28.9946   30.9102 H   0  0  0  0  0  0  0  0  0  0  0  0
   31.1859   29.8418   32.0532 H   0  0  0  0  0  0  0  0  0  0  0  0
   32.2550   32.5761   37.9653 H   0  0  0  0  0  0  0  0  0  0  0  0
   35.7897   31.7289   37.0434 H   0  0  0  0  0  0  0  0  0  0  0  0
   34.8303   32.4692   38.3526 H   0  0  0  0  0  0  0  0  0  0  0  0
  1  2  2  0
  2  3  1  0
  4  3  2  0
  5  4  1  0
  6  5  2  0
  6  1  1  0
  7  5  1  0
  8  7  1  0
  9 10  1  0
  9  8  2  0
 10 17  2  0
 11 10  1  0
 11 13  1  0
 12 11  2  0
 13 14  1  0
 14 16  2  0
 14 15  1  0
 17  7  1  0
 17 16  1  0
 18 22  1  0
 18 13  1  0
 19 18  2  0
 20 19  1  0
 20 21  1  0
 21 22  2  0
 21 23  1  0
 23 33  1  0
 24 23  1  0
 24 25  2  0
 25 26  1  0
 26 27  1  0
 27 28  2  0
 27 29  1  0
 30 29  1  0
 30 31  1  0
 32 30  2  0
 33 26  2  0
 33 32  1  0
  1 34  1  0
  2 35  1  0
  3 36  1  0
  8 37  1  0
 15 38  1  0
 15 39  1  0
 19 40  1  0
 24 41  1  0
 29 42  1  0
 31 43  1  0
 31 44  1  0
M  END
>  <Score>  (1) 
-7.95284

$$$$
