
     RDKit          3D

 50 55  0  0  1  0  0  0  0  0999 V2000
   36.0770   20.6060   32.2850 N   0  0  0  0  0  0  0  0  0  0  0  0
   36.0770   19.1890   31.8490 C   0  0  0  0  0  0  0  0  0  0  0  0
   36.3600   19.1740   30.3990 C   0  0  0  0  0  0  0  0  0  0  0  0
   36.6770   20.6360   30.1150 C   0  0  0  0  0  0  0  0  0  0  0  0
   35.7360   21.3250   31.0570 C   0  0  2  0  0  0  0  0  0  0  0  0
   36.1430   22.7170   31.2330 C   0  0  0  0  0  0  0  0  0  0  0  0
   35.3620   23.8020   31.4280 C   0  0  0  0  0  0  0  0  0  0  0  0
   36.2140   24.9110   31.5190 C   0  0  0  0  0  0  0  0  0  0  0  0
   37.4800   24.4360   31.3720 N   0  0  0  0  0  0  0  0  0  0  0  0
   37.4390   23.1110   31.1990 N   0  0  0  0  0  0  0  0  0  0  0  0
   38.5770   25.3450   31.4200 C   0  0  0  0  0  0  0  0  0  0  0  0
   39.1590   25.7400   30.2630 N   0  0  0  0  0  0  0  0  0  0  0  0
   40.1970   26.5950   30.2380 C   0  0  0  0  0  0  0  0  0  0  0  0
   40.6990   27.0920   31.3690 N   0  0  0  0  0  0  0  0  0  0  0  0
   40.1780   26.7500   32.5660 C   0  0  0  0  0  0  0  0  0  0  0  0
   40.6750   27.2470   33.7440 C   0  0  0  0  0  0  0  0  0  0  0  0
   40.1250   26.8830   34.9770 C   0  0  0  0  0  0  0  0  0  0  0  0
   39.0600   26.0030   34.9650 C   0  0  0  0  0  0  0  0  0  0  0  0
   38.5530   25.4970   33.7780 C   0  0  0  0  0  0  0  0  0  0  0  0
   39.1180   25.8760   32.5710 C   0  0  0  0  0  0  0  0  0  0  0  0
   37.1780   21.7710   35.4590 C   0  0  0  0  0  0  0  0  0  0  0  0
   36.0390   21.0420   35.8140 C   0  0  0  0  0  0  0  0  0  0  0  0
   35.4920   20.5150   34.6380 C   0  0  0  0  0  0  0  0  0  0  0  0
   36.3620   20.9770   33.6350 C   0  0  0  0  0  0  0  0  0  0  0  0
   37.2930   21.6800   34.1550 O   0  0  0  0  0  0  0  0  0  0  0  0
   40.0040   22.7580   37.5300 C   0  0  0  0  0  0  0  0  0  0  0  0
   39.4290   23.5860   38.4910 C   0  0  0  0  0  0  0  0  0  0  0  0
   38.0390   23.8080   38.4200 C   0  0  0  0  0  0  0  0  0  0  0  0
   37.3090   23.2220   37.4400 N   0  0  0  0  0  0  0  0  0  0  0  0
   37.9220   22.4170   36.5200 C   0  0  0  0  0  0  0  0  0  0  0  0
   39.2420   22.2000   36.5780 N   0  0  0  0  0  0  0  0  0  0  0  0
   36.8542   18.6290   32.3898 H   0  0  0  0  0  0  0  0  0  0  0  0
   35.1062   18.7171   32.0606 H   0  0  0  0  0  0  0  0  0  0  0  0
   37.2196   18.5278   30.1676 H   0  0  0  0  0  0  0  0  0  0  0  0
   35.5324   18.7770   29.7928 H   0  0  0  0  0  0  0  0  0  0  0  0
   37.7257   20.8737   30.3468 H   0  0  0  0  0  0  0  0  0  0  0  0
   36.5563   20.9282   29.0614 H   0  0  0  0  0  0  0  0  0  0  0  0
   34.6798   21.3233   30.7498 H   0  0  0  0  0  0  0  0  0  0  0  0
   34.2645   23.8129   31.5015 H   0  0  0  0  0  0  0  0  0  0  0  0
   35.9175   25.9583   31.6779 H   0  0  0  0  0  0  0  0  0  0  0  0
   40.6370   26.8877   29.2732 H   0  0  0  0  0  0  0  0  0  0  0  0
   41.5237   27.9463   33.7181 H   0  0  0  0  0  0  0  0  0  0  0  0
   40.5251   27.2822   35.9207 H   0  0  0  0  0  0  0  0  0  0  0  0
   38.6043   25.6971   35.9183 H   0  0  0  0  0  0  0  0  0  0  0  0
   37.7048   24.7968   33.7944 H   0  0  0  0  0  0  0  0  0  0  0  0
   35.6445   20.9071   36.8319 H   0  0  0  0  0  0  0  0  0  0  0  0
   34.5949   19.8885   34.5255 H   0  0  0  0  0  0  0  0  0  0  0  0
   41.0860   22.5612   37.5520 H   0  0  0  0  0  0  0  0  0  0  0  0
   40.0393   24.0512   39.2791 H   0  0  0  0  0  0  0  0  0  0  0  0
   37.5469   24.4566   39.1597 H   0  0  0  0  0  0  0  0  0  0  0  0
  1 24  1  0
  2  1  1  0
  3  2  1  0
  4  3  1  0
  4  5  1  0
  5  6  1  0
  5  1  1  0
  6  7  1  0
  7  8  2  0
  9 11  1  0
  9  8  1  0
 10  6  2  0
 10  9  1  0
 11 20  1  0
 12 11  2  0
 13 12  1  0
 13 14  2  0
 14 15  1  0
 15 20  2  0
 15 16  1  0
 16 17  2  0
 18 17  1  0
 19 18  2  0
 20 19  1  0
 21 22  2  0
 21 30  1  0
 23 22  1  0
 24 25  1  0
 24 23  2  0
 25 21  1  0
 26 27  2  0
 28 27  1  0
 29 28  2  0
 30 31  2  0
 30 29  1  0
 31 26  1  0
  2 32  1  0
  2 33  1  0
  3 34  1  0
  3 35  1  0
  4 36  1  0
  4 37  1  0
  5 38  1  6
  7 39  1  0
  8 40  1  0
 13 41  1  0
 16 42  1  0
 17 43  1  0
 18 44  1  0
 19 45  1  0
 22 46  1  0
 23 47  1  0
 26 48  1  0
 27 49  1  0
 28 50  1  0
M  END
>  <Score>  (1) 
-7.20662

$$$$
