
     RDKit          3D

 48 54  0  0  0  0  0  0  0  0999 V2000
   38.6150   23.8300   31.3780 C   0  0  0  0  0  0  0  0  0  0  0  0
   37.9580   25.0400   31.2000 C   0  0  0  0  0  0  0  0  0  0  0  0
   37.9910   25.8810   32.3030 C   0  0  0  0  0  0  0  0  0  0  0  0
   38.6220   25.4740   33.3850 N   0  0  0  0  0  0  0  0  0  0  0  0
   39.2520   24.3240   33.5660 C   0  0  0  0  0  0  0  0  0  0  0  0
   39.2180   23.5310   32.5200 N   0  0  0  0  0  0  0  0  0  0  0  0
   37.3610   27.1600   32.2790 N   0  0  0  0  0  0  0  0  0  0  0  0
   37.5610   28.1420   31.3910 C   0  0  0  0  0  0  0  0  0  0  0  0
   36.8100   29.1790   31.6790 N   0  0  0  0  0  0  0  0  0  0  0  0
   36.0990   28.8780   32.7770 C   0  0  0  0  0  0  0  0  0  0  0  0
   36.4660   27.6270   33.1170 N   0  0  0  0  0  0  0  0  0  0  0  0
   39.9740   23.7660   34.6930 C   0  0  0  0  0  0  0  0  0  0  0  0
   41.2860   23.3060   34.5630 C   0  0  0  0  0  0  0  0  0  0  0  0
   42.0110   22.7700   35.5980 C   0  0  0  0  0  0  0  0  0  0  0  0
   41.4550   22.6570   36.8560 C   0  0  0  0  0  0  0  0  0  0  0  0
   40.1710   23.0960   37.0240 C   0  0  0  0  0  0  0  0  0  0  0  0
   39.6050   22.9900   38.2780 C   0  0  0  0  0  0  0  0  0  0  0  0
   38.3320   23.3980   38.5520 C   0  0  0  0  0  0  0  0  0  0  0  0
   37.6120   23.9380   37.4950 C   0  0  0  0  0  0  0  0  0  0  0  0
   38.2010   24.0320   36.2620 C   0  0  0  0  0  0  0  0  0  0  0  0
   39.4640   23.6290   35.9760 C   0  0  0  0  0  0  0  0  0  0  0  0
   35.1090   29.5880   33.5780 C   0  0  0  0  0  0  0  0  0  0  0  0
   33.8110   29.4070   33.8700 N   0  0  0  0  0  0  0  0  0  0  0  0
   33.4100   30.3740   34.6580 O   0  0  0  0  0  0  0  0  0  0  0  0
   34.4250   31.1810   34.8850 C   0  0  0  0  0  0  0  0  0  0  0  0
   35.5100   30.7260   34.2270 N   0  0  0  0  0  0  0  0  0  0  0  0
   34.2720   32.3250   35.7140 N   0  0  0  0  0  0  0  0  0  0  0  0
   34.7370   32.3390   36.9780 C   0  0  0  0  0  0  0  0  0  0  0  0
   34.4630   33.5450   37.5510 N   0  0  0  0  0  0  0  0  0  0  0  0
   33.8160   34.3090   36.6460 C   0  0  0  0  0  0  0  0  0  0  0  0
   33.2720   35.5950   36.5780 C   0  0  0  0  0  0  0  0  0  0  0  0
   32.6860   35.9990   35.4450 N   0  0  0  0  0  0  0  0  0  0  0  0
   32.5870   35.2310   34.3420 C   0  0  0  0  0  0  0  0  0  0  0  0
   33.1060   33.9890   34.3910 N   0  0  0  0  0  0  0  0  0  0  0  0
   33.7110   33.5310   35.5170 C   0  0  0  0  0  0  0  0  0  0  0  0
   38.6356   23.1030   30.5527 H   0  0  0  0  0  0  0  0  0  0  0  0
   37.4525   25.3099   30.2611 H   0  0  0  0  0  0  0  0  0  0  0  0
   38.2564   28.0873   30.5404 H   0  0  0  0  0  0  0  0  0  0  0  0
   41.7655   23.3772   33.5756 H   0  0  0  0  0  0  0  0  0  0  0  0
   43.0419   22.4283   35.4235 H   0  0  0  0  0  0  0  0  0  0  0  0
   42.0247   22.2289   37.6940 H   0  0  0  0  0  0  0  0  0  0  0  0
   40.2059   22.5580   39.0918 H   0  0  0  0  0  0  0  0  0  0  0  0
   37.8986   23.3039   39.5586 H   0  0  0  0  0  0  0  0  0  0  0  0
   36.5797   24.2866   37.6461 H   0  0  0  0  0  0  0  0  0  0  0  0
   37.6065   24.4658   35.4444 H   0  0  0  0  0  0  0  0  0  0  0  0
   35.2578   31.5054   37.4719 H   0  0  0  0  0  0  0  0  0  0  0  0
   33.3251   36.2676   37.4468 H   0  0  0  0  0  0  0  0  0  0  0  0
   32.0981   35.6064   33.4309 H   0  0  0  0  0  0  0  0  0  0  0  0
  1  6  2  0
  2  1  1  0
  2  3  2  0
  3  4  1  0
  4  5  2  0
  5 12  1  0
  6  5  1  0
  7  3  1  0
  7 11  1  0
  8  9  2  0
  8  7  1  0
  9 10  1  0
 10 11  2  0
 10 22  1  0
 12 21  1  0
 13 12  2  0
 13 14  1  0
 14 15  2  0
 15 16  1  0
 16 17  2  0
 17 18  1  0
 19 18  2  0
 20 19  1  0
 21 20  2  0
 21 16  1  0
 22 23  2  0
 22 26  1  0
 23 24  1  0
 24 25  1  0
 25 27  1  0
 26 25  2  0
 27 28  1  0
 28 29  2  0
 30 29  1  0
 31 30  2  0
 32 31  1  0
 33 34  1  0
 33 32  2  0
 34 35  2  0
 35 27  1  0
 35 30  1  0
  1 36  1  0
  2 37  1  0
  8 38  1  0
 13 39  1  0
 14 40  1  0
 15 41  1  0
 17 42  1  0
 18 43  1  0
 19 44  1  0
 20 45  1  0
 28 46  1  0
 31 47  1  0
 33 48  1  0
M  END
>  <Score>  (1) 
-7.28535

$$$$
