
     RDKit          3D

 54 60  0  0  0  0  0  0  0  0999 V2000
   39.0000   23.5580   36.1050 C   0  0  0  0  0  0  0  0  0  0  0  0
   40.4110   23.6740   35.9810 C   0  0  0  0  0  0  0  0  0  0  0  0
   40.8910   24.7580   35.2960 C   0  0  0  0  0  0  0  0  0  0  0  0
   39.9720   25.6020   34.8090 N   0  0  0  0  0  0  0  0  0  0  0  0
   38.6820   25.5200   34.9060 C   0  0  0  0  0  0  0  0  0  0  0  0
   38.1850   24.4630   35.5760 N   0  0  0  0  0  0  0  0  0  0  0  0
   37.9480   26.5540   34.3040 N   0  0  0  0  0  0  0  0  0  0  0  0
   37.2490   27.4010   35.1060 C   0  0  0  0  0  0  0  0  0  0  0  0
   36.6040   28.3320   34.3190 C   0  0  0  0  0  0  0  0  0  0  0  0
   36.9190   28.0400   33.0560 N   0  0  0  0  0  0  0  0  0  0  0  0
   37.7520   26.9370   33.0410 C   0  0  0  0  0  0  0  0  0  0  0  0
   38.2630   26.3380   31.8520 C   0  0  0  0  0  0  0  0  0  0  0  0
   38.6910   27.1050   30.7500 C   0  0  0  0  0  0  0  0  0  0  0  0
   39.1020   26.2640   29.7460 N   0  0  0  0  0  0  0  0  0  0  0  0
   38.9230   24.9650   30.2380 C   0  0  0  0  0  0  0  0  0  0  0  0
   38.4380   25.0980   31.4640 N   0  0  0  0  0  0  0  0  0  0  0  0
   38.3610   23.7750   31.9110 C   0  0  0  0  0  0  0  0  0  0  0  0
   39.5160   23.3520   32.4340 N   0  0  0  0  0  0  0  0  0  0  0  0
   39.6320   22.0690   32.8630 C   0  0  0  0  0  0  0  0  0  0  0  0
   38.6440   21.1750   32.7970 N   0  0  0  0  0  0  0  0  0  0  0  0
   37.4600   21.5570   32.2770 C   0  0  0  0  0  0  0  0  0  0  0  0
   36.3690   20.7430   32.1460 C   0  0  0  0  0  0  0  0  0  0  0  0
   35.1980   21.1820   31.6070 C   0  0  0  0  0  0  0  0  0  0  0  0
   35.1010   22.5010   31.1730 C   0  0  0  0  0  0  0  0  0  0  0  0
   36.1630   23.3650   31.2790 C   0  0  0  0  0  0  0  0  0  0  0  0
   37.3160   22.8750   31.8280 C   0  0  0  0  0  0  0  0  0  0  0  0
   35.7560   29.4200   34.6760 N   0  0  0  0  0  0  0  0  0  0  0  0
   36.1350   30.4660   35.4500 C   0  0  0  0  0  0  0  0  0  0  0  0
   35.1410   31.3440   35.6260 N   0  0  0  0  0  0  0  0  0  0  0  0
   34.0860   30.8660   34.9540 C   0  0  0  0  0  0  0  0  0  0  0  0
   32.7870   31.3560   34.7840 C   0  0  0  0  0  0  0  0  0  0  0  0
   32.4110   32.4280   35.3010 O   0  0  0  0  0  0  0  0  0  0  0  0
   31.9710   30.5910   34.0220 N   0  0  0  0  0  0  0  0  0  0  0  0
   32.3510   29.4190   33.4450 C   0  0  0  0  0  0  0  0  0  0  0  0
   31.3330   28.7650   32.6790 N   0  0  0  0  0  0  0  0  0  0  0  0
   33.6040   28.9680   33.6230 N   0  0  0  0  0  0  0  0  0  0  0  0
   34.4720   29.6760   34.3680 C   0  0  0  0  0  0  0  0  0  0  0  0
   38.4560   22.4350   36.8340 N   0  0  0  0  0  0  0  0  0  0  0  0
   41.0885   22.9249   36.4167 H   0  0  0  0  0  0  0  0  0  0  0  0
   41.9688   24.9260   35.1539 H   0  0  0  0  0  0  0  0  0  0  0  0
   37.2051   27.3516   36.2040 H   0  0  0  0  0  0  0  0  0  0  0  0
   38.6951   28.2039   30.7020 H   0  0  0  0  0  0  0  0  0  0  0  0
   39.1411   24.0236   29.7124 H   0  0  0  0  0  0  0  0  0  0  0  0
   40.5944   21.7488   33.2888 H   0  0  0  0  0  0  0  0  0  0  0  0
   36.4396   19.6996   32.4871 H   0  0  0  0  0  0  0  0  0  0  0  0
   34.3383   20.5018   31.5156 H   0  0  0  0  0  0  0  0  0  0  0  0
   34.1562   22.8578   30.7371 H   0  0  0  0  0  0  0  0  0  0  0  0
   36.0895   24.4078   30.9367 H   0  0  0  0  0  0  0  0  0  0  0  0
   37.1402   30.5796   35.8821 H   0  0  0  0  0  0  0  0  0  0  0  0
   31.0053   30.9153   33.8699 H   0  0  0  0  0  0  0  0  0  0  0  0
   30.3973   29.1880   32.5986 H   0  0  0  0  0  0  0  0  0  0  0  0
   31.5365   27.8716   32.2085 H   0  0  0  0  0  0  0  0  0  0  0  0
   37.4362   22.3322   36.9356 H   0  0  0  0  0  0  0  0  0  0  0  0
   39.0881   21.7374   37.2520 H   0  0  0  0  0  0  0  0  0  0  0  0
  1 38  1  0
  2  1  2  0
  3  2  1  0
  4  5  1  0
  4  3  2  0
  5  6  2  0
  6  1  1  0
  7  5  1  0
  7  8  1  0
  9 27  1  0
  9  8  2  0
 10  9  1  0
 11 10  2  0
 11  7  1  0
 12 11  1  0
 13 12  2  0
 14 15  2  0
 14 13  1  0
 15 16  1  0
 16 12  1  0
 16 17  1  0
 17 18  2  0
 18 19  1  0
 20 19  2  0
 21 20  1  0
 22 21  2  0
 23 22  1  0
 24 25  1  0
 24 23  2  0
 25 26  2  0
 26 17  1  0
 26 21  1  0
 27 28  1  0
 28 29  2  0
 30 29  1  0
 31 30  1  0
 31 32  2  0
 33 31  1  0
 34 36  2  0
 34 33  1  0
 35 34  1  0
 36 37  1  0
 37 27  1  0
 37 30  2  0
  2 39  1  0
  3 40  1  0
  8 41  1  0
 13 42  1  0
 15 43  1  0
 19 44  1  0
 22 45  1  0
 23 46  1  0
 24 47  1  0
 25 48  1  0
 28 49  1  0
 33 50  1  0
 35 51  1  0
 35 52  1  0
 38 53  1  0
 38 54  1  0
M  END
>  <Score>  (1) 
-7.61672

$$$$
