
     RDKit          3D

 56 59  0  0  1  0  0  0  0  0999 V2000
   38.7070   25.9700   34.8120 C   0  0  2  0  0  0  0  0  0  0  0  0
   38.9050   23.0050   37.0190 C   0  0  0  0  0  0  0  0  0  0  0  0
   38.3560   23.4260   38.2050 C   0  0  0  0  0  0  0  0  0  0  0  0
   37.9210   24.7310   38.2350 C   0  0  0  0  0  0  0  0  0  0  0  0
   38.0450   25.5220   37.1410 N   0  0  0  0  0  0  0  0  0  0  0  0
   38.5920   25.0730   35.9860 C   0  0  0  0  0  0  0  0  0  0  0  0
   39.0210   23.7840   35.9530 N   0  0  0  0  0  0  0  0  0  0  0  0
   38.2770   22.5190   39.2840 N   0  0  0  0  0  0  0  0  0  0  0  0
   39.0680   27.3430   35.2530 C   0  0  0  0  0  0  0  0  0  0  0  0
   37.3460   25.9580   34.1540 C   0  0  0  0  0  0  0  0  0  0  0  0
   36.9320   27.1900   33.5510 N   0  0  0  0  0  0  0  0  0  0  0  0
   36.3300   28.0750   34.3780 C   0  0  0  0  0  0  0  0  0  0  0  0
   35.8740   29.3060   33.9480 C   0  0  0  0  0  0  0  0  0  0  0  0
   36.0490   29.6230   32.6200 C   0  0  0  0  0  0  0  0  0  0  0  0
   35.5720   30.8920   32.1980 N   0  0  0  0  0  0  0  0  0  0  0  0
   36.6470   28.7400   31.7990 N   0  0  0  0  0  0  0  0  0  0  0  0
   37.0660   27.5650   32.2800 C   0  0  0  0  0  0  0  0  0  0  0  0
   37.6160   26.7530   31.5190 O   0  0  0  0  0  0  0  0  0  0  0  0
   35.2250   30.2230   34.8950 C   0  0  0  0  0  0  0  0  0  0  0  0
   35.9500   31.1260   35.6260 C   0  0  0  0  0  0  0  0  0  0  0  0
   35.3270   31.9850   36.5150 C   0  0  0  0  0  0  0  0  0  0  0  0
   33.9700   31.8850   36.6210 C   0  0  0  0  0  0  0  0  0  0  0  0
   33.2020   31.0010   35.9140 C   0  0  0  0  0  0  0  0  0  0  0  0
   33.8370   30.1400   35.0210 C   0  0  0  0  0  0  0  0  0  0  0  0
   39.6960   25.4030   33.8260 C   0  0  0  0  0  0  0  0  0  0  0  0
   40.8300   26.1830   33.4460 N   0  0  0  0  0  0  0  0  0  0  0  0
   41.1140   27.1520   32.5810 C   0  0  0  0  0  0  0  0  0  0  0  0
   42.2980   27.8020   32.4030 C   0  0  0  0  0  0  0  0  0  0  0  0
   43.3690   27.4730   33.1730 C   0  0  0  0  0  0  0  0  0  0  0  0
   44.5570   28.1930   32.9250 N   0  0  0  0  0  0  0  0  0  0  0  0
   43.1590   26.4870   34.0890 N   0  0  0  0  0  0  0  0  0  0  0  0
   41.9460   25.8870   34.2040 C   0  0  0  0  0  0  0  0  0  0  0  0
   42.1260   25.0470   35.1360 O   0  0  0  0  0  0  0  0  0  0  0  0
   39.2669   21.9685   36.9501 H   0  0  0  0  0  0  0  0  0  0  0  0
   37.4695   25.1353   39.1530 H   0  0  0  0  0  0  0  0  0  0  0  0
   37.8679   22.8193   40.1803 H   0  0  0  0  0  0  0  0  0  0  0  0
   38.6284   21.5570   39.1749 H   0  0  0  0  0  0  0  0  0  0  0  0
   39.0788   27.3841   36.3522 H   0  0  0  0  0  0  0  0  0  0  0  0
   40.0648   27.6020   34.8666 H   0  0  0  0  0  0  0  0  0  0  0  0
   38.3275   28.0588   34.8666 H   0  0  0  0  0  0  0  0  0  0  0  0
   37.3572   25.1862   33.3703 H   0  0  0  0  0  0  0  0  0  0  0  0
   36.6258   25.7655   34.9629 H   0  0  0  0  0  0  0  0  0  0  0  0
   36.1982   27.8035   35.4358 H   0  0  0  0  0  0  0  0  0  0  0  0
   35.6769   31.1807   31.2149 H   0  0  0  0  0  0  0  0  0  0  0  0
   35.1211   31.5238   32.8750 H   0  0  0  0  0  0  0  0  0  0  0  0
   37.0425   31.1694   35.5051 H   0  0  0  0  0  0  0  0  0  0  0  0
   35.8988   32.7139   37.1081 H   0  0  0  0  0  0  0  0  0  0  0  0
   33.4593   32.5611   37.3225 H   0  0  0  0  0  0  0  0  0  0  0  0
   32.1105   30.9705   36.0470 H   0  0  0  0  0  0  0  0  0  0  0  0
   33.2594   29.4136   34.4305 H   0  0  0  0  0  0  0  0  0  0  0  0
   40.0805   24.4678   34.2591 H   0  0  0  0  0  0  0  0  0  0  0  0
   39.1157   25.3170   32.8955 H   0  0  0  0  0  0  0  0  0  0  0  0
   40.2887   27.4689   31.9264 H   0  0  0  0  0  0  0  0  0  0  0  0
   42.3870   28.5893   31.6399 H   0  0  0  0  0  0  0  0  0  0  0  0
   45.4050   27.9922   33.4740 H   0  0  0  0  0  0  0  0  0  0  0  0
   44.5761   28.9193   32.1949 H   0  0  0  0  0  0  0  0  0  0  0  0
  1 25  1  6
  1  9  1  0
  1  6  1  0
  2  3  2  0
  3  4  1  0
  3  8  1  0
  5  4  2  0
  6  5  1  0
  7  6  2  0
  7  2  1  0
 10  1  1  0
 11 10  1  0
 11 12  1  0
 13 12  2  0
 13 19  1  0
 14 13  1  0
 15 14  1  0
 16 17  1  0
 16 14  2  0
 17 11  1  0
 18 17  2  0
 19 24  1  0
 19 20  2  0
 20 21  1  0
 21 22  2  0
 23 22  1  0
 24 23  2  0
 26 25  1  0
 26 32  1  0
 27 26  1  0
 28 27  2  0
 28 29  1  0
 29 31  2  0
 30 29  1  0
 31 32  1  0
 32 33  2  0
  2 34  1  0
  4 35  1  0
  8 36  1  0
  8 37  1  0
  9 38  1  0
  9 39  1  0
  9 40  1  0
 10 41  1  0
 10 42  1  0
 12 43  1  0
 15 44  1  0
 15 45  1  0
 20 46  1  0
 21 47  1  0
 22 48  1  0
 23 49  1  0
 24 50  1  0
 25 51  1  0
 25 52  1  0
 27 53  1  0
 28 54  1  0
 30 55  1  0
 30 56  1  0
M  END
>  <Score>  (1) 
-7.02812

$$$$
