
     RDKit          3D

 43 46  0  0  0  0  0  0  0  0999 V2000
   45.4030   33.1710   41.1060 F   0  0  0  0  0  0  0  0  0  0  0  0
   46.5330   33.9060   40.9460 C   0  0  0  0  0  0  0  0  0  0  0  0
   46.9770   34.7300   41.9220 C   0  0  0  0  0  0  0  0  0  0  0  0
   48.1350   35.4380   41.6720 C   0  0  0  0  0  0  0  0  0  0  0  0
   48.8250   35.3300   40.4930 C   0  0  0  0  0  0  0  0  0  0  0  0
   48.3130   34.4760   39.5540 C   0  0  0  0  0  0  0  0  0  0  0  0
   47.1800   33.7530   39.7410 C   0  0  0  0  0  0  0  0  0  0  0  0
   46.7420   32.8850   38.6730 C   0  0  0  0  0  0  0  0  0  0  0  0
   46.3540   31.5840   38.9600 C   0  0  0  0  0  0  0  0  0  0  0  0
   45.9410   30.7810   37.9400 C   0  0  0  0  0  0  0  0  0  0  0  0
   45.9020   31.2490   36.6210 C   0  0  0  0  0  0  0  0  0  0  0  0
   46.3030   32.5660   36.3920 C   0  0  0  0  0  0  0  0  0  0  0  0
   46.7190   33.3770   37.4100 C   0  0  0  0  0  0  0  0  0  0  0  0
   47.0590   34.6180   36.9250 O   0  0  0  0  0  0  0  0  0  0  0  0
   44.5190   35.8120   44.5900 C   0  0  0  0  0  0  0  0  0  0  0  0
   45.2330   35.7670   43.3900 C   0  0  0  0  0  0  0  0  0  0  0  0
   46.2020   34.8110   43.1730 C   0  0  0  0  0  0  0  0  0  0  0  0
   46.4020   33.9420   44.1910 N   0  0  0  0  0  0  0  0  0  0  0  0
   45.7210   33.9890   45.3310 C   0  0  0  0  0  0  0  0  0  0  0  0
   44.7750   34.9260   45.5320 N   0  0  0  0  0  0  0  0  0  0  0  0
   45.4500   32.9830   47.6050 C   0  0  0  0  0  0  0  0  0  0  0  0
   46.0300   32.9920   46.3520 C   0  0  0  0  0  0  0  0  0  0  0  0
   46.9510   32.0090   46.0530 C   0  0  0  0  0  0  0  0  0  0  0  0
   47.3130   31.0190   46.9510 C   0  0  0  0  0  0  0  0  0  0  0  0
   46.7200   31.0200   48.2140 C   0  0  0  0  0  0  0  0  0  0  0  0
   45.8010   32.0040   48.5110 C   0  0  0  0  0  0  0  0  0  0  0  0
   44.5240   33.9770   47.8990 O   0  0  0  0  0  0  0  0  0  0  0  0
   45.2390   31.9730   49.7590 O   0  0  0  0  0  0  0  0  0  0  0  0
   48.5189   36.1152   42.4492 H   0  0  0  0  0  0  0  0  0  0  0  0
   49.7464   35.9023   40.3100 H   0  0  0  0  0  0  0  0  0  0  0  0
   48.8475   34.3703   38.5984 H   0  0  0  0  0  0  0  0  0  0  0  0
   46.3795   31.2076   39.9933 H   0  0  0  0  0  0  0  0  0  0  0  0
   45.6329   29.7474   38.1563 H   0  0  0  0  0  0  0  0  0  0  0  0
   45.5678   30.6027   35.7960 H   0  0  0  0  0  0  0  0  0  0  0  0
   46.2837   32.9613   35.3657 H   0  0  0  0  0  0  0  0  0  0  0  0
   47.3811   35.3202   37.5441 H   0  0  0  0  0  0  0  0  0  0  0  0
   43.7487   36.5813   44.7477 H   0  0  0  0  0  0  0  0  0  0  0  0
   45.0182   36.5070   42.6050 H   0  0  0  0  0  0  0  0  0  0  0  0
   47.4183   32.0119   45.0572 H   0  0  0  0  0  0  0  0  0  0  0  0
   48.0501   30.2505   46.6753 H   0  0  0  0  0  0  0  0  0  0  0  0
   46.9802   30.2519   48.9572 H   0  0  0  0  0  0  0  0  0  0  0  0
   44.3001   34.6615   47.2197 H   0  0  0  0  0  0  0  0  0  0  0  0
   45.4984   31.2657   50.4013 H   0  0  0  0  0  0  0  0  0  0  0  0
  2  1  1  0
  2  3  2  0
  3 17  1  0
  4  3  1  0
  5  4  2  0
  6  7  2  0
  6  5  1  0
  7  2  1  0
  8  9  2  0
  8  7  1  0
 10  9  1  0
 11 10  2  0
 12 11  1  0
 12 13  2  0
 13  8  1  0
 14 13  1  0
 15 20  2  0
 16 15  1  0
 17 16  2  0
 17 18  1  0
 18 19  2  0
 19 20  1  0
 19 22  1  0
 21 27  1  0
 21 26  2  0
 22 21  1  0
 23 22  2  0
 23 24  1  0
 24 25  2  0
 25 26  1  0
 26 28  1  0
  4 29  1  0
  5 30  1  0
  6 31  1  0
  9 32  1  0
 10 33  1  0
 11 34  1  0
 12 35  1  0
 14 36  1  0
 15 37  1  0
 16 38  1  0
 23 39  1  0
 24 40  1  0
 25 41  1  0
 27 42  1  0
 28 43  1  0
M  END
>  <Score>  (1) 
-9.00159

>  <Score_dual>  (1) 
-8.08

>  <Choices>  (1) 
[None, 8, ['9-18', 90], 19, ['1-25', 135], 29, ['2-1', 0], 30, ['35-26', 345]]

$$$$
