
     RDKit          3D

 50 54  0  0  0  0  0  0  0  0999 V2000
   45.4050   33.3830   46.0150 C   0  0  0  0  0  0  0  0  0  0  0  0
   44.9220   34.6400   46.2370 C   0  0  0  0  0  0  0  0  0  0  0  0
   44.5940   35.5270   45.2370 C   0  0  0  0  0  0  0  0  0  0  0  0
   44.7790   35.0830   43.9770 N   0  0  0  0  0  0  0  0  0  0  0  0
   45.2540   33.8500   43.7560 C   0  0  0  0  0  0  0  0  0  0  0  0
   45.5780   32.9730   44.7330 N   0  0  0  0  0  0  0  0  0  0  0  0
   45.4520   33.3770   42.3590 C   0  0  0  0  0  0  0  0  0  0  0  0
   44.4770   32.6220   41.7630 C   0  0  0  0  0  0  0  0  0  0  0  0
   44.5530   32.1290   40.4730 C   0  0  0  0  0  0  0  0  0  0  0  0
   45.7040   32.4330   39.7550 C   0  0  0  0  0  0  0  0  0  0  0  0
   46.6760   33.1840   40.3450 C   0  0  0  0  0  0  0  0  0  0  0  0
   46.5860   33.6710   41.6370 C   0  0  0  0  0  0  0  0  0  0  0  0
   47.5440   34.4290   42.2600 O   0  0  0  0  0  0  0  0  0  0  0  0
   49.9180   35.3640   42.8130 O   0  0  0  0  0  0  0  0  0  0  0  0
   49.1160   34.6970   41.6990 P   0  0  0  0  0  0  0  0  0  0  0  0
   49.9100   33.3270   41.1530 O   0  0  0  0  0  0  0  0  0  0  0  0
   49.0480   35.8160   40.4270 O   0  0  0  0  0  0  0  0  0  0  0  0
   45.1550   31.5090   49.1430 C   0  0  0  0  0  0  0  0  0  0  0  0
   46.3720   30.8260   49.1620 C   0  0  0  0  0  0  0  0  0  0  0  0
   47.2880   30.9820   48.1250 C   0  0  0  0  0  0  0  0  0  0  0  0
   46.9110   31.8420   47.1060 N   0  0  0  0  0  0  0  0  0  0  0  0
   45.7370   32.4880   47.1100 C   0  0  0  0  0  0  0  0  0  0  0  0
   44.8870   32.3120   48.1160 N   0  0  0  0  0  0  0  0  0  0  0  0
   48.5990   30.4390   47.9880 C   0  0  0  0  0  0  0  0  0  0  0  0
   48.8000   29.5130   46.9490 C   0  0  0  0  0  0  0  0  0  0  0  0
   49.9770   28.8780   46.6670 C   0  0  0  0  0  0  0  0  0  0  0  0
   51.0720   29.1380   47.4360 C   0  0  0  0  0  0  0  0  0  0  0  0
   50.9730   30.0290   48.4810 C   0  0  0  0  0  0  0  0  0  0  0  0
   52.0480   30.2920   49.3050 C   0  0  0  0  0  0  0  0  0  0  0  0
   51.9680   31.1580   50.3940 C   0  0  0  0  0  0  0  0  0  0  0  0
   50.7170   31.7520   50.6030 C   0  0  0  0  0  0  0  0  0  0  0  0
   49.6770   31.4690   49.7650 C   0  0  0  0  0  0  0  0  0  0  0  0
   49.7560   30.6190   48.6930 C   0  0  0  0  0  0  0  0  0  0  0  0
   44.7865   34.9642   47.2794 H   0  0  0  0  0  0  0  0  0  0  0  0
   44.2058   36.5336   45.4517 H   0  0  0  0  0  0  0  0  0  0  0  0
   43.5745   32.3927   42.3486 H   0  0  0  0  0  0  0  0  0  0  0  0
   43.7429   31.5262   40.0367 H   0  0  0  0  0  0  0  0  0  0  0  0
   45.8285   32.0718   38.7235 H   0  0  0  0  0  0  0  0  0  0  0  0
   47.5804   33.4154   39.7631 H   0  0  0  0  0  0  0  0  0  0  0  0
   50.2190   32.7938   41.9278 H   0  0  0  0  0  0  0  0  0  0  0  0
   48.9923   36.7327   40.7966 H   0  0  0  0  0  0  0  0  0  0  0  0
   44.4307   31.3859   49.9617 H   0  0  0  0  0  0  0  0  0  0  0  0
   46.6096   30.1586   50.0035 H   0  0  0  0  0  0  0  0  0  0  0  0
   47.9365   29.2799   46.3087 H   0  0  0  0  0  0  0  0  0  0  0  0
   50.0398   28.1665   45.8305 H   0  0  0  0  0  0  0  0  0  0  0  0
   52.0289   28.6390   47.2230 H   0  0  0  0  0  0  0  0  0  0  0  0
   53.0077   29.7978   49.0937 H   0  0  0  0  0  0  0  0  0  0  0  0
   52.8302   31.3615   51.0461 H   0  0  0  0  0  0  0  0  0  0  0  0
   50.5723   32.4472   51.4431 H   0  0  0  0  0  0  0  0  0  0  0  0
   48.7109   31.9559   49.9636 H   0  0  0  0  0  0  0  0  0  0  0  0
  1  2  2  0
  1 22  1  0
  3  2  1  0
  4  3  2  0
  5  4  1  0
  5  6  2  0
  6  1  1  0
  7  5  1  0
  8  7  2  0
  9  8  1  0
 10 11  1  0
 10  9  2  0
 11 12  2  0
 12 13  1  0
 12  7  1  0
 15 13  1  0
 15 14  2  0
 16 15  1  0
 17 15  1  0
 18 19  2  0
 20 19  1  0
 21 22  1  0
 21 20  2  0
 22 23  2  0
 23 18  1  0
 24 20  1  0
 24 33  1  0
 25 24  2  0
 26 25  1  0
 26 27  2  0
 27 28  1  0
 28 33  2  0
 28 29  1  0
 29 30  2  0
 30 31  1  0
 32 31  2  0
 33 32  1  0
  2 34  1  0
  3 35  1  0
  8 36  1  0
  9 37  1  0
 10 38  1  0
 11 39  1  0
 16 40  1  0
 17 41  1  0
 18 42  1  0
 19 43  1  0
 25 44  1  0
 26 45  1  0
 27 46  1  0
 29 47  1  0
 30 48  1  0
 31 49  1  0
 32 50  1  0
M  END
>  <Score>  (1) 
-7.0737

>  <Score_dual>  (1) 
-8.09

>  <Choices>  (1) 
[None, 9, ['19-20', 195], 17, ['1-25', 240], 27, ['10-2', 0], 33, ['26-25', 240]]

$$$$
