
     RDKit          3D

 45 47  0  0  1  0  0  0  0  0999 V2000
   45.1750   33.3380   41.1090 F   0  0  0  0  0  0  0  0  0  0  0  0
   46.3530   33.9560   40.9680 C   0  0  0  0  0  0  0  0  0  0  0  0
   46.8470   34.7290   42.0050 C   0  0  0  0  0  0  0  0  0  0  0  0
   48.0590   35.4010   41.9390 C   0  0  0  0  0  0  0  0  0  0  0  0
   48.8260   35.3010   40.7770 C   0  0  0  0  0  0  0  0  0  0  0  0
   48.3010   34.5200   39.7630 C   0  0  0  0  0  0  0  0  0  0  0  0
   47.1170   33.8570   39.8120 C   0  0  0  0  0  0  0  0  0  0  0  0
   45.4800   33.9940   45.3310 C   0  0  0  0  0  0  0  0  0  0  0  0
   44.6390   35.1160   45.5530 C   0  0  0  0  0  0  0  0  0  0  0  0
   44.5520   36.1190   44.5530 C   0  0  0  0  0  0  0  0  0  0  0  0
   45.2970   35.9280   43.4220 N   0  0  0  0  0  0  0  0  0  0  0  0
   46.0770   34.8610   43.2460 C   0  0  0  0  0  0  0  0  0  0  0  0
   46.1630   33.9090   44.1910 N   0  0  0  0  0  0  0  0  0  0  0  0
   45.5490   33.0150   46.3400 N   0  0  0  0  0  0  0  0  0  0  0  0
   46.6970   33.1120   38.7440 O   0  0  0  0  0  0  0  0  0  0  0  0
   47.8280   34.6360   36.8960 O   0  0  0  0  0  0  0  0  0  0  0  0
   46.8350   33.5170   37.1170 P   0  0  2  0  0  0  0  0  0  0  0  0
   45.2910   33.9780   36.5470 O   0  0  0  0  0  0  0  0  0  0  0  0
   47.2850   32.2070   36.1580 O   0  0  0  0  0  0  0  0  0  0  0  0
   45.9380   31.7200   34.2200 C   0  0  1  0  0  0  0  0  0  0  0  0
   46.2510   31.4610   35.6730 C   0  0  2  0  0  0  0  0  0  0  0  0
   45.0660   31.5860   36.3810 O   0  0  0  0  0  0  0  0  0  0  0  0
   44.3340   30.4160   36.1120 C   0  0  0  0  0  0  0  0  0  0  0  0
   43.9890   30.2850   34.6600 C   0  0  2  0  0  0  0  0  0  0  0  0
   45.1280   30.5350   33.7310 C   0  0  2  0  0  0  0  0  0  0  0  0
   45.1210   32.8480   34.0410 O   0  0  0  0  0  0  0  0  0  0  0  0
   42.8720   31.0330   34.3730 O   0  0  0  0  0  0  0  0  0  0  0  0
   45.9250   29.4200   33.4860 O   0  0  0  0  0  0  0  0  0  0  0  0
   48.4103   36.0036   42.7896 H   0  0  0  0  0  0  0  0  0  0  0  0
   49.7934   35.8143   40.6734 H   0  0  0  0  0  0  0  0  0  0  0  0
   48.8921   34.4284   38.8399 H   0  0  0  0  0  0  0  0  0  0  0  0
   44.0635   35.2065   46.4861 H   0  0  0  0  0  0  0  0  0  0  0  0
   43.9160   37.0073   44.6812 H   0  0  0  0  0  0  0  0  0  0  0  0
   46.1486   32.1871   46.2141 H   0  0  0  0  0  0  0  0  0  0  0  0
   44.9999   33.1266   47.2042 H   0  0  0  0  0  0  0  0  0  0  0  0
   44.6946   34.1561   37.3169 H   0  0  0  0  0  0  0  0  0  0  0  0
   46.8861   31.8764   33.6845 H   0  0  0  0  0  0  0  0  0  0  0  0
   46.6361   30.4379   35.7954 H   0  0  0  0  0  0  0  0  0  0  0  0
   44.9348   29.5452   36.4132 H   0  0  0  0  0  0  0  0  0  0  0  0
   43.3929   30.4688   36.6791 H   0  0  0  0  0  0  0  0  0  0  0  0
   43.7486   29.2271   34.4783 H   0  0  0  0  0  0  0  0  0  0  0  0
   44.6912   30.7734   32.7500 H   0  0  0  0  0  0  0  0  0  0  0  0
   44.8592   33.2094   34.9247 H   0  0  0  0  0  0  0  0  0  0  0  0
   42.4419   31.3210   35.2169 H   0  0  0  0  0  0  0  0  0  0  0  0
   46.2094   29.0221   34.3467 H   0  0  0  0  0  0  0  0  0  0  0  0
  2  1  1  0
  2  3  2  0
  3 12  1  0
  4  3  1  0
  5  4  2  0
  6  7  2  0
  6  5  1  0
  7  2  1  0
  8  9  2  0
  8 14  1  0
 10  9  1  0
 11 10  2  0
 12 11  1  0
 12 13  2  0
 13  8  1  0
 15  7  1  0
 17 16  2  0
 17 15  1  1
 18 17  1  0
 19 17  1  0
 20 26  1  0
 20 21  1  0
 21 19  1  0
 21 22  1  0
 23 22  1  0
 24 27  1  0
 24 23  1  0
 25 28  1  0
 25 20  1  0
 25 24  1  0
  4 29  1  0
  5 30  1  0
  6 31  1  0
  9 32  1  0
 10 33  1  0
 14 34  1  0
 14 35  1  0
 18 36  1  0
 20 37  1  6
 21 38  1  6
 23 39  1  0
 23 40  1  0
 24 41  1  1
 25 42  1  6
 26 43  1  0
 27 44  1  0
 28 45  1  0
M  END
>  <Score>  (1) 
-7.81829

>  <Score_dual>  (1) 
-7.44

>  <Choices>  (1) 
[None, 6, ['0-3', 105], 9, ['9-17', 255], 21, ['10-2', 180], 27, ['21-16', 210]]

$$$$
