
     RDKit          3D

 40 44  0  0  0  0  0  0  0  0999 V2000
   45.6970   34.7880   43.5020 C   0  0  0  0  0  0  0  0  0  0  0  0
   46.4040   33.7250   44.1110 C   0  0  0  0  0  0  0  0  0  0  0  0
   46.1520   33.4860   45.4520 C   0  0  0  0  0  0  0  0  0  0  0  0
   45.2620   34.2590   46.1110 N   0  0  0  0  0  0  0  0  0  0  0  0
   44.5970   35.2750   45.5000 C   0  0  0  0  0  0  0  0  0  0  0  0
   44.8180   35.5250   44.2230 N   0  0  0  0  0  0  0  0  0  0  0  0
   47.0340   32.6590   47.5670 C   0  0  0  0  0  0  0  0  0  0  0  0
   46.7980   32.4260   46.2210 C   0  0  0  0  0  0  0  0  0  0  0  0
   47.1840   31.2220   45.6930 C   0  0  0  0  0  0  0  0  0  0  0  0
   47.7910   30.2430   46.4490 C   0  0  0  0  0  0  0  0  0  0  0  0
   48.2440   28.9990   46.1400 N   0  0  0  0  0  0  0  0  0  0  0  0
   48.7630   28.4630   47.3060 C   0  0  0  0  0  0  0  0  0  0  0  0
   48.6170   29.3780   48.2920 N   0  0  0  0  0  0  0  0  0  0  0  0
   48.0280   30.4580   47.7740 C   0  0  0  0  0  0  0  0  0  0  0  0
   47.6510   31.6650   48.3340 C   0  0  0  0  0  0  0  0  0  0  0  0
   45.9310   35.0480   42.1630 O   0  0  0  0  0  0  0  0  0  0  0  0
   45.0530   34.5970   41.1850 C   0  0  0  0  0  0  0  0  0  0  0  0
   45.8200   33.7090   40.4840 C   0  0  0  0  0  0  0  0  0  0  0  0
   44.5900   33.1190   39.1670 S   0  0  0  0  0  0  0  0  0  0  0  0
   43.2720   34.2520   39.8960 C   0  0  0  0  0  0  0  0  0  0  0  0
   43.8290   34.7160   40.7300 N   0  0  0  0  0  0  0  0  0  0  0  0
   41.3570   32.6900   41.4390 Cl  0  0  0  0  0  0  0  0  0  0  0  0
   40.9110   33.6310   40.0330 C   0  0  0  0  0  0  0  0  0  0  0  0
   41.8560   34.3570   39.3320 C   0  0  0  0  0  0  0  0  0  0  0  0
   41.6770   35.1360   38.2250 C   0  0  0  0  0  0  0  0  0  0  0  0
   40.3730   35.1800   37.7770 C   0  0  0  0  0  0  0  0  0  0  0  0
   39.3520   34.4940   38.4000 C   0  0  0  0  0  0  0  0  0  0  0  0
   39.6530   33.7380   39.5130 C   0  0  0  0  0  0  0  0  0  0  0  0
   38.4110   32.8360   40.3640 Cl  0  0  0  0  0  0  0  0  0  0  0  0
   47.1227   33.1147   43.5444 H   0  0  0  0  0  0  0  0  0  0  0  0
   43.8786   35.8855   46.0667 H   0  0  0  0  0  0  0  0  0  0  0  0
   46.7396   33.6141   48.0265 H   0  0  0  0  0  0  0  0  0  0  0  0
   47.0024   31.0297   44.6253 H   0  0  0  0  0  0  0  0  0  0  0  0
   48.2080   28.5435   45.2169 H   0  0  0  0  0  0  0  0  0  0  0  0
   49.2156   27.4661   47.4125 H   0  0  0  0  0  0  0  0  0  0  0  0
   47.8398   31.8468   49.4023 H   0  0  0  0  0  0  0  0  0  0  0  0
   46.8684   33.4156   40.6414 H   0  0  0  0  0  0  0  0  0  0  0  0
   42.4983   35.6793   37.7348 H   0  0  0  0  0  0  0  0  0  0  0  0
   40.1388   35.7854   36.8889 H   0  0  0  0  0  0  0  0  0  0  0  0
   38.3219   34.5486   38.0181 H   0  0  0  0  0  0  0  0  0  0  0  0
  1  2  2  0
  1  6  1  0
  2  3  1  0
  3  4  2  0
  3  8  1  0
  5  4  1  0
  6  5  2  0
  7 15  2  0
  8  7  1  0
  9  8  2  0
  9 10  1  0
 10 14  2  0
 11 10  1  0
 11 12  1  0
 12 13  2  0
 14 13  1  0
 14 15  1  0
 16  1  1  0
 17 16  1  0
 18 17  2  0
 19 20  1  0
 19 18  1  0
 20 21  2  0
 21 17  1  0
 23 22  1  0
 24 20  1  0
 24 23  2  0
 25 24  1  0
 26 25  2  0
 26 27  1  0
 27 28  2  0
 28 23  1  0
 28 29  1  0
  2 30  1  0
  5 31  1  0
  7 32  1  0
  9 33  1  0
 11 34  1  0
 12 35  1  0
 15 36  1  0
 18 37  1  0
 25 38  1  0
 26 39  1  0
 27 40  1  0
M  END
>  <Score>  (1) 
-7.33711

>  <Score_dual>  (1) 
-7.33

>  <Choices>  (1) 
[None, 8, ['34-20', 300], 20, ['2-1', 315], 23, ['33-13', 75], 29, ['51-24', 255]]

$$$$
