
     RDKit          3D

 47 51  0  0  1  0  0  0  0  0999 V2000
   45.5730   34.8170   43.4530 C   0  0  0  0  0  0  0  0  0  0  0  0
   46.2770   33.7390   44.0540 C   0  0  0  0  0  0  0  0  0  0  0  0
   46.0620   33.5190   45.4050 C   0  0  0  0  0  0  0  0  0  0  0  0
   45.2090   34.3270   46.0750 N   0  0  0  0  0  0  0  0  0  0  0  0
   44.5480   35.3500   45.4810 C   0  0  0  0  0  0  0  0  0  0  0  0
   44.7340   35.5850   44.1860 N   0  0  0  0  0  0  0  0  0  0  0  0
   46.9890   32.7070   47.5000 C   0  0  0  0  0  0  0  0  0  0  0  0
   46.7060   32.4570   46.1650 C   0  0  0  0  0  0  0  0  0  0  0  0
   47.0430   31.2390   45.6530 C   0  0  0  0  0  0  0  0  0  0  0  0
   47.6520   30.2450   46.3940 C   0  0  0  0  0  0  0  0  0  0  0  0
   48.0640   28.9950   46.1010 N   0  0  0  0  0  0  0  0  0  0  0  0
   48.6080   28.4580   47.2540 C   0  0  0  0  0  0  0  0  0  0  0  0
   48.5160   29.3840   48.2150 N   0  0  0  0  0  0  0  0  0  0  0  0
   47.9350   30.4800   47.7080 C   0  0  0  0  0  0  0  0  0  0  0  0
   47.6050   31.7100   48.2630 C   0  0  0  0  0  0  0  0  0  0  0  0
   45.7880   35.0390   42.0950 O   0  0  0  0  0  0  0  0  0  0  0  0
   44.7720   34.7780   41.1790 C   0  0  0  0  0  0  0  0  0  0  0  0
   45.3050   33.7340   40.5130 C   0  0  0  0  0  0  0  0  0  0  0  0
   43.9390   33.3410   39.2440 S   0  0  0  0  0  0  0  0  0  0  0  0
   42.9080   34.7630   39.9570 C   0  0  0  0  0  0  0  0  0  0  0  0
   43.5900   35.1200   40.7450 N   0  0  0  0  0  0  0  0  0  0  0  0
   40.9180   34.2760   38.6010 C   0  0  1  0  0  0  0  0  0  0  0  0
   41.5070   35.2640   39.5370 C   0  0  1  0  0  0  0  0  0  0  0  0
   40.7800   35.5810   40.6420 O   0  0  0  0  0  0  0  0  0  0  0  0
   40.1170   34.5250   41.2370 C   0  0  0  0  0  0  0  0  0  0  0  0
   39.0400   34.0790   40.2690 C   0  0  1  0  0  0  0  0  0  0  0  0
   39.7930   33.4570   39.1020 C   0  0  2  0  0  0  0  0  0  0  0  0
   40.4430   34.9440   37.4480 O   0  0  0  0  0  0  0  0  0  0  0  0
   38.1820   33.1460   40.8180 O   0  0  0  0  0  0  0  0  0  0  0  0
   40.2230   32.1910   39.5350 O   0  0  0  0  0  0  0  0  0  0  0  0
   46.9631   33.1064   43.4718 H   0  0  0  0  0  0  0  0  0  0  0  0
   43.8628   35.9811   46.0660 H   0  0  0  0  0  0  0  0  0  0  0  0
   46.7323   33.6763   47.9522 H   0  0  0  0  0  0  0  0  0  0  0  0
   46.8183   31.0376   44.5952 H   0  0  0  0  0  0  0  0  0  0  0  0
   47.9877   28.5263   45.1870 H   0  0  0  0  0  0  0  0  0  0  0  0
   49.0384   27.4514   47.3612 H   0  0  0  0  0  0  0  0  0  0  0  0
   47.8323   31.9032   49.3218 H   0  0  0  0  0  0  0  0  0  0  0  0
   46.2754   33.2383   40.6631 H   0  0  0  0  0  0  0  0  0  0  0  0
   41.7499   33.5804   38.4167 H   0  0  0  0  0  0  0  0  0  0  0  0
   41.5388   36.2076   38.9726 H   0  0  0  0  0  0  0  0  0  0  0  0
   40.8175   33.6992   41.4300 H   0  0  0  0  0  0  0  0  0  0  0  0
   39.6798   34.8274   42.2000 H   0  0  0  0  0  0  0  0  0  0  0  0
   38.4090   34.9317   39.9781 H   0  0  0  0  0  0  0  0  0  0  0  0
   39.1197   33.3844   38.2351 H   0  0  0  0  0  0  0  0  0  0  0  0
   39.8913   35.7198   37.7198 H   0  0  0  0  0  0  0  0  0  0  0  0
   38.2281   33.1962   41.8057 H   0  0  0  0  0  0  0  0  0  0  0  0
   40.2315   32.1660   40.5246 H   0  0  0  0  0  0  0  0  0  0  0  0
  1  2  2  0
  1  6  1  0
  2  3  1  0
  3  4  2  0
  3  8  1  0
  5  4  1  0
  6  5  2  0
  7 15  2  0
  8  7  1  0
  9  8  2  0
  9 10  1  0
 10 14  2  0
 11 10  1  0
 11 12  1  0
 12 13  2  0
 14 13  1  0
 14 15  1  0
 16  1  1  0
 17 16  1  0
 18 17  2  0
 19 20  1  0
 19 18  1  0
 20 21  2  0
 21 17  1  0
 22 28  1  0
 22 27  1  0
 22 23  1  0
 23 20  1  0
 23 24  1  0
 24 25  1  0
 26 29  1  0
 26 25  1  0
 27 30  1  0
 27 26  1  0
  2 31  1  0
  5 32  1  0
  7 33  1  0
  9 34  1  0
 11 35  1  0
 12 36  1  0
 15 37  1  0
 18 38  1  0
 22 39  1  6
 23 40  1  6
 25 41  1  0
 25 42  1  0
 26 43  1  6
 27 44  1  6
 28 45  1  0
 29 46  1  0
 30 47  1  0
M  END
>  <Score>  (1) 
-7.67055

>  <Score_dual>  (1) 
-7.69

>  <Choices>  (1) 
[None, 8, ['34-20', 300], 20, ['2-1', 315], 23, ['33-13', 75], 29, ['21-23', 0]]

$$$$
