
     RDKit          3D

 50 54  0  0  0  0  0  0  0  0999 V2000
   44.7790   35.9260   43.3950 Cl  0  0  0  0  0  0  0  0  0  0  0  0
   45.5430   34.6780   44.3420 C   0  0  0  0  0  0  0  0  0  0  0  0
   46.6460   34.0030   43.8560 C   0  0  0  0  0  0  0  0  0  0  0  0
   47.1690   33.0430   44.6810 C   0  0  0  0  0  0  0  0  0  0  0  0
   46.6850   32.7120   45.9250 C   0  0  0  0  0  0  0  0  0  0  0  0
   45.5800   33.4060   46.3780 C   0  0  0  0  0  0  0  0  0  0  0  0
   44.9900   32.9590   47.9640 Cl  0  0  0  0  0  0  0  0  0  0  0  0
   45.0250   34.3730   45.5910 C   0  0  0  0  0  0  0  0  0  0  0  0
   47.3850   31.6550   46.6480 C   0  0  0  0  0  0  0  0  0  0  0  0
   47.4990   30.3720   46.1810 C   0  0  0  0  0  0  0  0  0  0  0  0
   48.1560   29.3530   46.8430 C   0  0  0  0  0  0  0  0  0  0  0  0
   48.7430   29.6310   48.0600 C   0  0  0  0  0  0  0  0  0  0  0  0
   49.3810   28.6310   48.6990 N   0  0  0  0  0  0  0  0  0  0  0  0
   49.9860   28.8050   49.8940 C   0  0  0  0  0  0  0  0  0  0  0  0
   49.9150   30.0750   50.4310 C   0  0  0  0  0  0  0  0  0  0  0  0
   49.2680   31.0860   49.7840 C   0  0  0  0  0  0  0  0  0  0  0  0
   48.6600   30.8930   48.5720 C   0  0  0  0  0  0  0  0  0  0  0  0
   47.9950   31.8930   47.8840 C   0  0  0  0  0  0  0  0  0  0  0  0
   48.7710   35.4960   41.2900 C   0  0  0  0  0  0  0  0  0  0  0  0
   48.3250   34.9030   40.1150 C   0  0  0  0  0  0  0  0  0  0  0  0
   47.2670   33.9610   40.1890 C   0  0  0  0  0  0  0  0  0  0  0  0
   46.7650   33.7120   41.4230 N   0  0  0  0  0  0  0  0  0  0  0  0
   47.2160   34.3020   42.5450 C   0  0  0  0  0  0  0  0  0  0  0  0
   48.2250   35.2020   42.4890 N   0  0  0  0  0  0  0  0  0  0  0  0
   46.7300   33.2920   39.0570 N   0  0  0  0  0  0  0  0  0  0  0  0
   47.5820   32.8970   37.9570 C   0  0  0  0  0  0  0  0  0  0  0  0
   46.9390   32.9610   36.6140 C   0  0  0  0  0  0  0  0  0  0  0  0
   45.4460   33.1330   36.6310 C   0  0  0  0  0  0  0  0  0  0  0  0
   44.9190   32.2660   37.7810 C   0  0  0  0  0  0  0  0  0  0  0  0
   45.2990   33.0190   39.0400 C   0  0  0  0  0  0  0  0  0  0  0  0
   48.0489   32.4911   44.3187 H   0  0  0  0  0  0  0  0  0  0  0  0
   44.1456   34.9235   45.9566 H   0  0  0  0  0  0  0  0  0  0  0  0
   47.0352   30.1370   45.2116 H   0  0  0  0  0  0  0  0  0  0  0  0
   48.2098   28.3433   46.4098 H   0  0  0  0  0  0  0  0  0  0  0  0
   50.5048   27.9831   50.4091 H   0  0  0  0  0  0  0  0  0  0  0  0
   50.3909   30.2757   51.4022 H   0  0  0  0  0  0  0  0  0  0  0  0
   49.2335   32.0829   50.2477 H   0  0  0  0  0  0  0  0  0  0  0  0
   47.9449   32.9014   48.3207 H   0  0  0  0  0  0  0  0  0  0  0  0
   49.5925   36.2259   41.2416 H   0  0  0  0  0  0  0  0  0  0  0  0
   48.7827   35.1587   39.1480 H   0  0  0  0  0  0  0  0  0  0  0  0
   48.4593   33.5606   37.9483 H   0  0  0  0  0  0  0  0  0  0  0  0
   47.8382   31.8409   38.1276 H   0  0  0  0  0  0  0  0  0  0  0  0
   47.1686   32.0265   36.0811 H   0  0  0  0  0  0  0  0  0  0  0  0
   47.3456   33.8566   36.1214 H   0  0  0  0  0  0  0  0  0  0  0  0
   45.1873   34.1884   36.8018 H   0  0  0  0  0  0  0  0  0  0  0  0
   45.0008   32.8326   35.6710 H   0  0  0  0  0  0  0  0  0  0  0  0
   43.8270   32.1529   37.7119 H   0  0  0  0  0  0  0  0  0  0  0  0
   45.3407   31.2502   37.7618 H   0  0  0  0  0  0  0  0  0  0  0  0
   44.7482   33.9706   39.0732 H   0  0  0  0  0  0  0  0  0  0  0  0
   45.0432   32.4030   39.9147 H   0  0  0  0  0  0  0  0  0  0  0  0
  1  2  1  0
  2  8  2  0
  3  2  1  0
  3  4  2  0
  4  5  1  0
  5  6  2  0
  5  9  1  0
  6  7  1  0
  8  6  1  0
  9 18  1  0
 10  9  2  0
 10 11  1  0
 11 12  2  0
 12 17  1  0
 12 13  1  0
 13 14  2  0
 14 15  1  0
 16 15  2  0
 17 16  1  0
 18 17  2  0
 19 24  2  0
 20 21  2  0
 20 19  1  0
 21 22  1  0
 22 23  2  0
 23  3  1  0
 24 23  1  0
 25 21  1  0
 26 25  1  0
 27 28  1  0
 27 26  1  0
 28 29  1  0
 29 30  1  0
 30 25  1  0
  4 31  1  0
  8 32  1  0
 10 33  1  0
 11 34  1  0
 14 35  1  0
 15 36  1  0
 16 37  1  0
 18 38  1  0
 19 39  1  0
 20 40  1  0
 26 41  1  0
 26 42  1  0
 27 43  1  0
 27 44  1  0
 28 45  1  0
 28 46  1  0
 29 47  1  0
 29 48  1  0
 30 49  1  0
 30 50  1  0
M  END
>  <Score>  (1) 
-7.21353

>  <Score_dual>  (1) 
-7.24

>  <Choices>  (1) 
[None, 9, ['29-22', 180], 15, ['36-25', 120], 34, ['8-3', 240]]

$$$$
