
     RDKit          3D

 53 58  0  0  1  0  0  0  0  0999 V2000
   45.0310   34.7430   44.9730 C   0  0  0  0  0  0  0  0  0  0  0  0
   45.6990   34.6620   43.7600 C   0  0  0  0  0  0  0  0  0  0  0  0
   46.7790   33.7670   43.6720 C   0  0  0  0  0  0  0  0  0  0  0  0
   47.1030   33.0490   44.7610 N   0  0  0  0  0  0  0  0  0  0  0  0
   46.4360   33.1480   45.9300 C   0  0  0  0  0  0  0  0  0  0  0  0
   45.3900   34.0120   46.0190 N   0  0  0  0  0  0  0  0  0  0  0  0
   46.7500   32.3920   47.1310 C   0  0  0  0  0  0  0  0  0  0  0  0
   45.8130   32.2540   48.1650 C   0  0  0  0  0  0  0  0  0  0  0  0
   46.3950   31.4890   49.1650 C   0  0  0  0  0  0  0  0  0  0  0  0
   47.6530   31.1830   48.7220 N   0  0  0  0  0  0  0  0  0  0  0  0
   47.8330   31.7310   47.5160 N   0  0  0  0  0  0  0  0  0  0  0  0
   48.6060   30.3890   49.4700 C   0  0  0  0  0  0  0  0  0  0  0  0
   49.9930   30.8990   49.3200 C   0  0  0  0  0  0  0  0  0  0  0  0
   50.9100   30.2710   48.6100 C   0  0  0  0  0  0  0  0  0  0  0  0
   52.2180   30.7970   48.4980 N   0  0  0  0  0  0  0  0  0  0  0  0
   53.3470   31.0460   47.6770 C   0  0  0  0  0  0  0  0  0  0  0  0
   53.7000   30.7800   46.4770 O   0  0  0  0  0  0  0  0  0  0  0  0
   54.0190   31.7780   48.7800 C   0  0  0  0  0  0  0  0  0  0  0  0
   52.8730   31.4080   49.6670 C   0  0  1  0  0  0  0  0  0  0  0  0
   51.7950   32.7890   50.1370 S   0  0  0  0  0  0  0  0  0  0  0  0
   50.0980   32.1630   50.0780 C   0  0  0  0  0  0  0  0  0  0  0  0
   50.5890   29.0270   47.9310 C   0  0  0  0  0  0  0  0  0  0  0  0
   51.2600   27.9750   48.0690 O   0  0  0  0  0  0  0  0  0  0  0  0
   50.0170   28.0570   47.1610 O   0  0  0  0  0  0  0  0  0  0  0  0
   45.3870   35.3900   42.6250 O   0  0  0  0  0  0  0  0  0  0  0  0
   44.4340   35.0210   41.6770 C   0  0  0  0  0  0  0  0  0  0  0  0
   44.6220   34.1610   40.6210 C   0  0  0  0  0  0  0  0  0  0  0  0
   43.5660   33.8990   39.7650 C   0  0  0  0  0  0  0  0  0  0  0  0
   42.3230   34.4730   39.9350 C   0  0  0  0  0  0  0  0  0  0  0  0
   41.3480   34.1780   39.0750 N   0  0  0  0  0  0  0  0  0  0  0  0
   40.1200   34.7030   39.1870 C   0  0  0  0  0  0  0  0  0  0  0  0
   39.9000   35.5660   40.2320 C   0  0  0  0  0  0  0  0  0  0  0  0
   40.9190   35.8880   41.1520 C   0  0  0  0  0  0  0  0  0  0  0  0
   42.1580   35.3230   40.9910 C   0  0  0  0  0  0  0  0  0  0  0  0
   43.2020   35.6170   41.8840 C   0  0  0  0  0  0  0  0  0  0  0  0
   44.1798   35.4330   45.0696 H   0  0  0  0  0  0  0  0  0  0  0  0
   47.3450   33.6569   42.7352 H   0  0  0  0  0  0  0  0  0  0  0  0
   44.7977   32.6769   48.1804 H   0  0  0  0  0  0  0  0  0  0  0  0
   45.9383   31.1893   50.1198 H   0  0  0  0  0  0  0  0  0  0  0  0
   48.3313   30.4143   50.5349 H   0  0  0  0  0  0  0  0  0  0  0  0
   48.5766   29.3623   49.0763 H   0  0  0  0  0  0  0  0  0  0  0  0
   54.9867   31.3532   49.0852 H   0  0  0  0  0  0  0  0  0  0  0  0
   54.3342   32.8252   48.6614 H   0  0  0  0  0  0  0  0  0  0  0  0
   53.1033   30.9068   50.6187 H   0  0  0  0  0  0  0  0  0  0  0  0
   49.4589   32.9181   49.5971 H   0  0  0  0  0  0  0  0  0  0  0  0
   49.7765   31.9638   51.1109 H   0  0  0  0  0  0  0  0  0  0  0  0
   49.2104   28.2621   46.6249 H   0  0  0  0  0  0  0  0  0  0  0  0
   45.6008   33.6863   40.4580 H   0  0  0  0  0  0  0  0  0  0  0  0
   43.7231   33.2105   38.9216 H   0  0  0  0  0  0  0  0  0  0  0  0
   39.3222   34.4531   38.4721 H   0  0  0  0  0  0  0  0  0  0  0  0
   38.9044   36.0173   40.3545 H   0  0  0  0  0  0  0  0  0  0  0  0
   40.7234   36.5803   41.9842 H   0  0  0  0  0  0  0  0  0  0  0  0
   43.0440   36.3047   42.7279 H   0  0  0  0  0  0  0  0  0  0  0  0
  1  6  2  0
  2  1  1  0
  3  2  2  0
  3  4  1  0
  4  5  2  0
  5  6  1  0
  5  7  1  0
  7 11  2  0
  7  8  1  0
  8  9  2  0
 10  9  1  0
 10 12  1  0
 11 10  1  0
 13 12  1  0
 13 21  1  0
 14 13  2  0
 15 14  1  0
 15 19  1  0
 16 15  1  0
 16 18  1  0
 17 16  2  0
 19 18  1  0
 19 20  1  0
 21 20  1  0
 22 23  2  0
 22 14  1  0
 24 22  1  0
 25  2  1  0
 26 35  1  0
 26 25  1  0
 27 26  2  0
 28 29  2  0
 28 27  1  0
 29 34  1  0
 30 31  2  0
 30 29  1  0
 31 32  1  0
 32 33  2  0
 34 33  1  0
 34 35  2  0
  1 36  1  0
  3 37  1  0
  8 38  1  0
  9 39  1  0
 12 40  1  0
 12 41  1  0
 18 42  1  0
 18 43  1  0
 19 44  1  1
 21 45  1  0
 21 46  1  0
 24 47  1  0
 27 48  1  0
 28 49  1  0
 31 50  1  0
 32 51  1  0
 33 52  1  0
 35 53  1  0
M  END
>  <Score>  (1) 
-7.16476

>  <Score_dual>  (1) 
-7.81

>  <Choices>  (1) 
[None, 7, ['2-1', 0], 10, ['36-22', 315], 25, ['22-8', 345], 32, ['55-4', 270]]

$$$$
