
     RDKit          3D

 47 50  0  0  0  0  0  0  0  0999 V2000
   44.2010   34.4700   40.7990 C   0  0  0  0  0  0  0  0  0  0  0  0
   44.4250   33.2960   41.2790 O   0  0  0  0  0  0  0  0  0  0  0  0
   44.7830   35.5080   41.5990 N   0  0  0  0  0  0  0  0  0  0  0  0
   45.4230   34.9010   42.7520 C   0  0  0  0  0  0  0  0  0  0  0  0
   44.9650   34.9190   44.0320 C   0  0  0  0  0  0  0  0  0  0  0  0
   45.7150   34.2850   44.9890 C   0  0  0  0  0  0  0  0  0  0  0  0
   46.8560   33.6850   44.6010 N   0  0  0  0  0  0  0  0  0  0  0  0
   47.2940   33.6790   43.3210 C   0  0  0  0  0  0  0  0  0  0  0  0
   46.5630   34.3010   42.3680 N   0  0  0  0  0  0  0  0  0  0  0  0
   49.5910   35.4850   42.4550 Cl  0  0  0  0  0  0  0  0  0  0  0  0
   49.6270   33.7540   42.5760 C   0  0  0  0  0  0  0  0  0  0  0  0
   48.5570   32.9980   42.9720 C   0  0  0  0  0  0  0  0  0  0  0  0
   48.6170   31.6230   43.0580 C   0  0  0  0  0  0  0  0  0  0  0  0
   49.7580   30.9370   42.7490 C   0  0  0  0  0  0  0  0  0  0  0  0
   50.8570   31.6630   42.3460 C   0  0  0  0  0  0  0  0  0  0  0  0
   50.7930   33.0530   42.2600 C   0  0  0  0  0  0  0  0  0  0  0  0
   43.7460   35.5950   44.2720 N   0  0  0  0  0  0  0  0  0  0  0  0
   43.4890   34.7940   39.6460 O   0  0  0  0  0  0  0  0  0  0  0  0
   42.5760   32.1510   38.6340 Cl  0  0  0  0  0  0  0  0  0  0  0  0
   41.5700   33.4530   39.2300 C   0  0  0  0  0  0  0  0  0  0  0  0
   42.0890   34.6620   39.6850 C   0  0  0  0  0  0  0  0  0  0  0  0
   41.2620   35.6490   40.1390 C   0  0  0  0  0  0  0  0  0  0  0  0
   39.8870   35.5120   40.1750 C   0  0  0  0  0  0  0  0  0  0  0  0
   39.3340   34.3000   39.7200 C   0  0  0  0  0  0  0  0  0  0  0  0
   37.5960   34.0410   39.7280 Cl  0  0  0  0  0  0  0  0  0  0  0  0
   40.2050   33.3270   39.2680 C   0  0  0  0  0  0  0  0  0  0  0  0
   39.8430   31.2630   41.0070 F   0  0  0  0  0  0  0  0  0  0  0  0
   39.4720   31.0350   39.7000 C   0  0  0  0  0  0  0  0  0  0  0  0
   39.6430   32.0650   38.7940 C   0  0  0  0  0  0  0  0  0  0  0  0
   39.2570   31.7980   37.4760 C   0  0  0  0  0  0  0  0  0  0  0  0
   38.7360   30.5550   37.1580 C   0  0  0  0  0  0  0  0  0  0  0  0
   38.5900   29.5600   38.1240 C   0  0  0  0  0  0  0  0  0  0  0  0
   38.9640   29.7890   39.4450 C   0  0  0  0  0  0  0  0  0  0  0  0
   44.7521   36.5162   41.3904 H   0  0  0  0  0  0  0  0  0  0  0  0
   45.3943   34.2672   46.0411 H   0  0  0  0  0  0  0  0  0  0  0  0
   47.7261   31.0655   43.3828 H   0  0  0  0  0  0  0  0  0  0  0  0
   49.7974   29.8400   42.8199 H   0  0  0  0  0  0  0  0  0  0  0  0
   51.7917   31.1424   42.0902 H   0  0  0  0  0  0  0  0  0  0  0  0
   51.6831   33.6117   41.9351 H   0  0  0  0  0  0  0  0  0  0  0  0
   43.3588   35.6357   45.2256 H   0  0  0  0  0  0  0  0  0  0  0  0
   43.2455   36.0465   43.4932 H   0  0  0  0  0  0  0  0  0  0  0  0
   41.7079   36.5912   40.4903 H   0  0  0  0  0  0  0  0  0  0  0  0
   39.2453   36.3242   40.5473 H   0  0  0  0  0  0  0  0  0  0  0  0
   39.3664   32.5689   36.6990 H   0  0  0  0  0  0  0  0  0  0  0  0
   38.4309   30.3482   36.1216 H   0  0  0  0  0  0  0  0  0  0  0  0
   38.1743   28.5824   37.8386 H   0  0  0  0  0  0  0  0  0  0  0  0
   38.8590   29.0238   40.2282 H   0  0  0  0  0  0  0  0  0  0  0  0
  1  2  2  0
  1  3  1  0
  3  4  1  0
  4  5  2  0
  5 17  1  0
  5  6  1  0
  7  6  2  0
  8  7  1  0
  9  4  1  0
  9  8  2  0
 10 11  1  0
 11 12  2  0
 12 13  1  0
 12  8  1  0
 14 13  2  0
 15 14  1  0
 16 15  2  0
 16 11  1  0
 18 21  1  0
 18  1  1  0
 19 20  1  0
 20 26  2  0
 20 21  1  0
 21 22  2  0
 22 23  1  0
 24 25  1  0
 24 23  2  0
 26 24  1  0
 28 27  1  0
 29 26  1  0
 29 28  2  0
 30 29  1  0
 31 30  2  0
 31 32  1  0
 32 33  2  0
 33 28  1  0
  3 34  1  0
  6 35  1  0
 13 36  1  0
 14 37  1  0
 15 38  1  0
 16 39  1  0
 17 40  1  0
 17 41  1  0
 22 42  1  0
 23 43  1  0
 30 44  1  0
 31 45  1  0
 32 46  1  0
 33 47  1  0
M  END
>  <Score>  (1) 
-7.08842

>  <Score_dual>  (1) 
-7.44

>  <Choices>  (1) 
[None, 7, ['0-3', 0], 7, ['12-5', 315], 12, ['2-18', 0], 14, ['29-15', 30], 26, ['9-16', 60], 34, ['7-16', 195]]

$$$$
