
     RDKit          3D

 43 47  0  0  0  0  0  0  0  0999 V2000
   45.6520   32.5880   40.2950 Cl  0  0  0  0  0  0  0  0  0  0  0  0
   46.9640   33.7130   40.0980 C   0  0  0  0  0  0  0  0  0  0  0  0
   47.4730   34.3650   41.1800 C   0  0  0  0  0  0  0  0  0  0  0  0
   48.5320   35.2790   41.0550 C   0  0  0  0  0  0  0  0  0  0  0  0
   49.0190   35.4700   39.7720 C   0  0  0  0  0  0  0  0  0  0  0  0
   48.4890   34.7980   38.6940 C   0  0  0  0  0  0  0  0  0  0  0  0
   47.4810   33.9330   38.8400 C   0  0  0  0  0  0  0  0  0  0  0  0
   46.7600   32.8040   44.4380 C   0  0  0  0  0  0  0  0  0  0  0  0
   45.8380   33.7000   45.0150 C   0  0  0  0  0  0  0  0  0  0  0  0
   45.4750   34.8300   44.2730 C   0  0  0  0  0  0  0  0  0  0  0  0
   46.0260   35.0060   43.0390 N   0  0  0  0  0  0  0  0  0  0  0  0
   46.9110   34.1190   42.5190 C   0  0  0  0  0  0  0  0  0  0  0  0
   47.2650   33.0350   43.2220 N   0  0  0  0  0  0  0  0  0  0  0  0
   44.5070   35.8510   44.7780 C   0  0  0  0  0  0  0  0  0  0  0  0
   44.9790   37.1170   44.5540 F   0  0  0  0  0  0  0  0  0  0  0  0
   43.3140   35.6920   44.1010 F   0  0  0  0  0  0  0  0  0  0  0  0
   44.3160   35.6030   46.1080 F   0  0  0  0  0  0  0  0  0  0  0  0
   46.9060   33.2110   37.7030 C   0  0  0  0  0  0  0  0  0  0  0  0
   45.5640   32.8720   37.5690 C   0  0  0  0  0  0  0  0  0  0  0  0
   45.3860   32.1990   36.3760 C   0  0  0  0  0  0  0  0  0  0  0  0
   46.6520   32.1660   35.8390 C   0  0  0  0  0  0  0  0  0  0  0  0
   47.5160   32.7640   36.6370 O   0  0  0  0  0  0  0  0  0  0  0  0
   46.8940   30.2110   34.3830 C   0  0  0  0  0  0  0  0  0  0  0  0
   47.0620   31.5660   34.5620 C   0  0  0  0  0  0  0  0  0  0  0  0
   47.6100   32.3700   33.5630 C   0  0  0  0  0  0  0  0  0  0  0  0
   47.9870   31.7680   32.3670 C   0  0  0  0  0  0  0  0  0  0  0  0
   48.5360   32.2510   31.2260 N   0  0  0  0  0  0  0  0  0  0  0  0
   48.6970   31.2380   30.3810 N   0  0  0  0  0  0  0  0  0  0  0  0
   48.2610   30.0780   30.9460 C   0  0  0  0  0  0  0  0  0  0  0  0
   47.8030   30.4090   32.2240 C   0  0  0  0  0  0  0  0  0  0  0  0
   47.2670   29.5950   33.1910 C   0  0  0  0  0  0  0  0  0  0  0  0
   48.9493   35.8108   41.9228 H   0  0  0  0  0  0  0  0  0  0  0  0
   49.8481   36.1748   39.6112 H   0  0  0  0  0  0  0  0  0  0  0  0
   48.9040   34.9768   37.6911 H   0  0  0  0  0  0  0  0  0  0  0  0
   47.0672   31.9057   44.9936 H   0  0  0  0  0  0  0  0  0  0  0  0
   45.4177   33.5175   46.0150 H   0  0  0  0  0  0  0  0  0  0  0  0
   44.7716   33.1027   38.2962 H   0  0  0  0  0  0  0  0  0  0  0  0
   44.4558   31.7883   35.9564 H   0  0  0  0  0  0  0  0  0  0  0  0
   46.4591   29.6068   35.1928 H   0  0  0  0  0  0  0  0  0  0  0  0
   47.7406   33.4514   33.7167 H   0  0  0  0  0  0  0  0  0  0  0  0
   48.7855   33.2338   31.0449 H   0  0  0  0  0  0  0  0  0  0  0  0
   48.2680   29.0783   30.4871 H   0  0  0  0  0  0  0  0  0  0  0  0
   47.1390   28.5140   33.0327 H   0  0  0  0  0  0  0  0  0  0  0  0
  2  1  1  0
  2  3  2  0
  3 12  1  0
  4  3  1  0
  5  4  2  0
  6  7  2  0
  6  5  1  0
  7  2  1  0
  8  9  2  0
 10 14  1  0
 10  9  1  0
 11 10  2  0
 12 11  1  0
 12 13  2  0
 13  8  1  0
 14 17  1  0
 15 14  1  0
 16 14  1  0
 18  7  1  0
 19 18  2  0
 20 19  1  0
 21 20  2  0
 21 22  1  0
 22 18  1  0
 23 24  2  0
 24 21  1  0
 25 24  1  0
 26 25  2  0
 27 26  1  0
 28 29  2  0
 28 27  1  0
 29 30  1  0
 30 26  1  0
 30 31  2  0
 31 23  1  0
  4 32  1  0
  5 33  1  0
  6 34  1  0
  8 35  1  0
  9 36  1  0
 19 37  1  0
 20 38  1  0
 23 39  1  0
 25 40  1  0
 27 41  1  0
 29 42  1  0
 31 43  1  0
M  END
>  <Score>  (1) 
-7.10337

>  <Score_dual>  (1) 
-7.74

>  <Choices>  (1) 
[None, 9, ['7-18', 75], 15, ['11-13', 270], 22, ['43-21', 225], 29, ['54-10', 120]]

$$$$
