
     RDKit          3D

 51 56  0  0  0  0  0  0  0  0999 V2000
   49.7910   30.1090   49.6510 C   0  0  0  0  0  0  0  0  0  0  0  0
   49.9670   31.3750   50.1420 N   0  0  0  0  0  0  0  0  0  0  0  0
   50.7120   31.6590   51.2050 C   0  0  0  0  0  0  0  0  0  0  0  0
   51.3190   30.6380   51.8210 N   0  0  0  0  0  0  0  0  0  0  0  0
   51.1990   29.3690   51.4070 C   0  0  0  0  0  0  0  0  0  0  0  0
   51.8290   28.2980   52.0370 C   0  0  0  0  0  0  0  0  0  0  0  0
   51.6940   27.0230   51.5970 C   0  0  0  0  0  0  0  0  0  0  0  0
   50.9230   26.7650   50.5090 C   0  0  0  0  0  0  0  0  0  0  0  0
   50.2630   27.7990   49.8320 C   0  0  0  0  0  0  0  0  0  0  0  0
   50.4130   29.0720   50.2860 C   0  0  0  0  0  0  0  0  0  0  0  0
   49.4330   27.3880   48.6800 C   0  0  0  0  0  0  0  0  0  0  0  0
   47.5510   25.6400   48.9170 C   0  0  0  0  0  0  0  0  0  0  0  0
   48.9120   25.9760   48.8990 C   0  0  0  0  0  0  0  0  0  0  0  0
   49.7590   24.8970   49.0950 C   0  0  0  0  0  0  0  0  0  0  0  0
   49.3730   23.5920   49.2960 C   0  0  0  0  0  0  0  0  0  0  0  0
   50.0500   22.4480   49.4980 N   0  0  0  0  0  0  0  0  0  0  0  0
   49.1470   21.4810   49.6300 N   0  0  0  0  0  0  0  0  0  0  0  0
   47.9010   21.9870   49.5150 C   0  0  0  0  0  0  0  0  0  0  0  0
   48.0170   23.3450   49.2990 C   0  0  0  0  0  0  0  0  0  0  0  0
   47.1000   24.3560   49.1120 C   0  0  0  0  0  0  0  0  0  0  0  0
   48.8500   29.8170   48.2380 S   0  0  0  0  0  0  0  0  0  0  0  0
   46.2200   32.5200   46.9070 C   0  0  0  0  0  0  0  0  0  0  0  0
   47.3010   31.6700   47.0300 C   0  0  0  0  0  0  0  0  0  0  0  0
   47.4390   30.8510   48.1300 C   0  0  0  0  0  0  0  0  0  0  0  0
   46.4970   30.8640   49.1310 C   0  0  0  0  0  0  0  0  0  0  0  0
   45.4130   31.6860   49.0560 C   0  0  0  0  0  0  0  0  0  0  0  0
   45.2900   32.4960   47.9530 C   0  0  0  0  0  0  0  0  0  0  0  0
   44.9170   35.1570   44.7510 C   0  0  0  0  0  0  0  0  0  0  0  0
   45.7340   35.0600   43.5920 C   0  0  0  0  0  0  0  0  0  0  0  0
   46.7220   34.0910   43.5660 C   0  0  0  0  0  0  0  0  0  0  0  0
   46.8980   33.2500   44.6380 N   0  0  0  0  0  0  0  0  0  0  0  0
   46.0780   33.3870   45.7360 C   0  0  0  0  0  0  0  0  0  0  0  0
   45.0920   34.3300   45.8020 N   0  0  0  0  0  0  0  0  0  0  0  0
   50.8252   32.6925   51.5643 H   0  0  0  0  0  0  0  0  0  0  0  0
   52.4559   28.4932   52.9195 H   0  0  0  0  0  0  0  0  0  0  0  0
   52.2064   26.2012   52.1186 H   0  0  0  0  0  0  0  0  0  0  0  0
   50.8152   25.7294   50.1543 H   0  0  0  0  0  0  0  0  0  0  0  0
   50.0409   27.4151   47.7636 H   0  0  0  0  0  0  0  0  0  0  0  0
   48.5822   28.0780   48.5804 H   0  0  0  0  0  0  0  0  0  0  0  0
   46.8106   26.4398   48.7684 H   0  0  0  0  0  0  0  0  0  0  0  0
   50.8395   25.1029   49.0893 H   0  0  0  0  0  0  0  0  0  0  0  0
   51.0735   22.3411   49.5421 H   0  0  0  0  0  0  0  0  0  0  0  0
   46.9615   21.4187   49.5815 H   0  0  0  0  0  0  0  0  0  0  0  0
   46.0217   24.1388   49.1186 H   0  0  0  0  0  0  0  0  0  0  0  0
   48.0639   31.6460   46.2379 H   0  0  0  0  0  0  0  0  0  0  0  0
   46.6197   30.2036   50.0021 H   0  0  0  0  0  0  0  0  0  0  0  0
   44.6578   31.7007   49.8557 H   0  0  0  0  0  0  0  0  0  0  0  0
   44.4154   33.1600   47.8886 H   0  0  0  0  0  0  0  0  0  0  0  0
   44.1268   35.9212   44.7916 H   0  0  0  0  0  0  0  0  0  0  0  0
   45.5850   35.7372   42.7381 H   0  0  0  0  0  0  0  0  0  0  0  0
   47.3697   33.9938   42.6823 H   0  0  0  0  0  0  0  0  0  0  0  0
  1  2  2  0
  1 10  1  0
  2  3  1  0
  3  4  2  0
  5  4  1  0
  5  6  2  0
  7  6  1  0
  8  7  2  0
  9 10  2  0
  9  8  1  0
 10  5  1  0
 11 13  1  0
 11  9  1  0
 12 20  2  0
 13 12  1  0
 13 14  2  0
 14 15  1  0
 15 19  2  0
 15 16  1  0
 16 17  1  0
 18 17  2  0
 19 18  1  0
 20 19  1  0
 21  1  1  0
 22 23  2  0
 22 27  1  0
 23 24  1  0
 24 21  1  0
 24 25  2  0
 26 25  1  0
 27 26  2  0
 28 33  2  0
 29 28  1  0
 30 29  2  0
 30 31  1  0
 31 32  2  0
 32 33  1  0
 32 22  1  0
  3 34  1  0
  6 35  1  0
  7 36  1  0
  8 37  1  0
 11 38  1  0
 11 39  1  0
 12 40  1  0
 14 41  1  0
 16 42  1  0
 18 43  1  0
 20 44  1  0
 23 45  1  0
 25 46  1  0
 26 47  1  0
 27 48  1  0
 28 49  1  0
 29 50  1  0
 30 51  1  0
M  END
>  <Score>  (1) 
-7.10811

>  <Score_dual>  (1) 
-7.6

>  <Choices>  (1) 
[None, 9, ['1-28', 75], 16, ['17-16', 0], 20, ['47-13', 30], 34, ['3-10', 0], 37, ['54-9', 240]]

$$$$
