
     RDKit          3D

 46 49  0  0  0  0  0  0  0  0999 V2000
   45.3890   33.1560   41.1450 F   0  0  0  0  0  0  0  0  0  0  0  0
   46.5150   33.9020   40.9820 C   0  0  0  0  0  0  0  0  0  0  0  0
   46.9480   34.7220   41.9650 C   0  0  0  0  0  0  0  0  0  0  0  0
   48.1050   35.4450   41.7130 C   0  0  0  0  0  0  0  0  0  0  0  0
   48.7910   35.3460   40.5310 C   0  0  0  0  0  0  0  0  0  0  0  0
   48.2850   34.4930   39.5890 C   0  0  0  0  0  0  0  0  0  0  0  0
   47.1520   33.7540   39.7760 C   0  0  0  0  0  0  0  0  0  0  0  0
   46.7290   32.8960   38.7040 C   0  0  0  0  0  0  0  0  0  0  0  0
   46.3300   31.6030   38.9890 C   0  0  0  0  0  0  0  0  0  0  0  0
   45.9300   30.7970   37.9680 C   0  0  0  0  0  0  0  0  0  0  0  0
   45.9190   31.2550   36.6500 C   0  0  0  0  0  0  0  0  0  0  0  0
   46.3320   32.5690   36.4120 C   0  0  0  0  0  0  0  0  0  0  0  0
   46.7350   33.3850   37.4400 C   0  0  0  0  0  0  0  0  0  0  0  0
   47.0910   34.6220   36.9560 O   0  0  0  0  0  0  0  0  0  0  0  0
   44.5810   35.8300   44.6830 C   0  0  0  0  0  0  0  0  0  0  0  0
   45.2830   35.8040   43.4830 C   0  0  0  0  0  0  0  0  0  0  0  0
   46.1820   34.7970   43.2100 C   0  0  0  0  0  0  0  0  0  0  0  0
   46.2970   33.8930   44.1800 N   0  0  0  0  0  0  0  0  0  0  0  0
   45.6480   33.8830   45.3340 C   0  0  0  0  0  0  0  0  0  0  0  0
   44.7750   34.8810   45.5720 N   0  0  0  0  0  0  0  0  0  0  0  0
   46.4140   31.6740   46.2130 C   0  0  0  0  0  0  0  0  0  0  0  0
   45.7910   32.8800   46.3830 C   0  0  0  0  0  0  0  0  0  0  0  0
   45.2900   33.0890   47.6490 C   0  0  0  0  0  0  0  0  0  0  0  0
   45.4250   32.1410   48.6370 C   0  0  0  0  0  0  0  0  0  0  0  0
   46.0590   30.9380   48.4280 C   0  0  0  0  0  0  0  0  0  0  0  0
   46.5690   30.7020   47.1710 C   0  0  0  0  0  0  0  0  0  0  0  0
   47.9570   31.2630   44.0930 N   0  0  0  0  0  0  0  0  0  0  0  0
   47.0000   31.3220   44.9400 C   0  0  0  0  0  0  0  0  0  0  0  0
   46.2330   30.6640   43.9210 N   0  0  0  0  0  0  0  0  0  0  0  0
   47.6970   30.8030   43.1740 H   0  0  0  0  0  0  0  0  0  0  0  0
   48.4858   36.1229   42.4911 H   0  0  0  0  0  0  0  0  0  0  0  0
   49.7073   35.9263   40.3479 H   0  0  0  0  0  0  0  0  0  0  0  0
   48.8182   34.3974   38.6316 H   0  0  0  0  0  0  0  0  0  0  0  0
   46.3358   31.2319   40.0245 H   0  0  0  0  0  0  0  0  0  0  0  0
   45.6100   29.7673   38.1854 H   0  0  0  0  0  0  0  0  0  0  0  0
   45.5958   30.6031   35.8250 H   0  0  0  0  0  0  0  0  0  0  0  0
   46.3342   32.9563   35.3824 H   0  0  0  0  0  0  0  0  0  0  0  0
   47.4053   35.3252   37.5779 H   0  0  0  0  0  0  0  0  0  0  0  0
   43.8665   36.6410   44.8876 H   0  0  0  0  0  0  0  0  0  0  0  0
   45.1179   36.5992   42.7411 H   0  0  0  0  0  0  0  0  0  0  0  0
   44.7717   34.0326   47.8746 H   0  0  0  0  0  0  0  0  0  0  0  0
   45.0097   32.3533   49.6332 H   0  0  0  0  0  0  0  0  0  0  0  0
   46.1546   30.1944   49.2329 H   0  0  0  0  0  0  0  0  0  0  0  0
   47.0871   29.7595   46.9400 H   0  0  0  0  0  0  0  0  0  0  0  0
   45.2439   30.4316   44.0902 H   0  0  0  0  0  0  0  0  0  0  0  0
   46.6716   30.4241   43.0205 H   0  0  0  0  0  0  0  0  0  0  0  0
  2  1  1  0
  2  3  2  0
  3 17  1  0
  4  3  1  0
  5  4  2  0
  6  7  2  0
  6  5  1  0
  7  2  1  0
  8  9  2  0
  8  7  1  0
 10  9  1  0
 11 10  2  0
 12 11  1  0
 12 13  2  0
 13  8  1  0
 14 13  1  0
 15 20  2  0
 16 15  1  0
 17 16  2  0
 17 18  1  0
 18 19  2  0
 19 20  1  0
 19 22  1  0
 21 22  2  0
 21 26  1  0
 22 23  1  0
 23 24  2  0
 25 24  1  0
 26 25  2  0
 27 28  2  0
 28 21  1  0
 29 28  1  0
 30 27  1  0
  4 31  1  0
  5 32  1  0
  6 33  1  0
  9 34  1  0
 10 35  1  0
 11 36  1  0
 12 37  1  0
 14 38  1  0
 15 39  1  0
 16 40  1  0
 23 41  1  0
 24 42  1  0
 25 43  1  0
 26 44  1  0
 29 45  1  0
 29 46  1  0
M  END
>  <Score>  (1) 
-7.54097

>  <Score_dual>  (1) 
-7.66

>  <Choices>  (1) 
[None, 8, ['9-18', 90], 19, ['1-25', 135], 29, ['2-1', 0], 30, ['44-21', 0]]

$$$$
