
     RDKit          3D

 50 53  0  0  0  0  0  0  0  0999 V2000
   51.0970   31.9880   51.3630 C   0  0  0  0  0  0  0  0  0  0  0  0
   51.2360   30.7480   52.0460 C   0  0  0  0  0  0  0  0  0  0  0  0
   50.5410   29.6370   51.5950 C   0  0  0  0  0  0  0  0  0  0  0  0
   49.7680   29.8110   50.5230 N   0  0  0  0  0  0  0  0  0  0  0  0
   49.6320   30.9860   49.8740 C   0  0  0  0  0  0  0  0  0  0  0  0
   50.2950   32.0780   50.2890 N   0  0  0  0  0  0  0  0  0  0  0  0
   52.0970   30.8140   53.1890 C   0  0  0  0  0  0  0  0  0  0  0  0
   51.8190   31.3860   54.4210 C   0  0  0  0  0  0  0  0  0  0  0  0
   52.7190   31.3980   55.4630 C   0  0  0  0  0  0  0  0  0  0  0  0
   53.9410   30.8300   55.2970 C   0  0  0  0  0  0  0  0  0  0  0  0
   54.7910   30.8640   56.3450 N   0  0  0  0  0  0  0  0  0  0  0  0
   56.0280   30.3330   56.2950 C   0  0  0  0  0  0  0  0  0  0  0  0
   56.3950   29.7340   55.0910 C   0  0  0  0  0  0  0  0  0  0  0  0
   55.5340   29.6930   54.0150 C   0  0  0  0  0  0  0  0  0  0  0  0
   54.2760   30.2450   54.0930 C   0  0  0  0  0  0  0  0  0  0  0  0
   53.3540   30.2470   53.0680 C   0  0  0  0  0  0  0  0  0  0  0  0
   48.7480   31.0840   48.7100 C   0  0  0  0  0  0  0  0  0  0  0  0
   47.6120   31.7420   48.7420 C   0  0  0  0  0  0  0  0  0  0  0  0
   46.7370   31.8220   47.5460 C   0  0  0  0  0  0  0  0  0  0  0  0
   46.6570   32.6090   45.3460 C   0  0  0  0  0  0  0  0  0  0  0  0
   45.8410   31.8050   44.8430 O   0  0  0  0  0  0  0  0  0  0  0  0
   47.1850   32.7770   46.6230 N   0  0  0  0  0  0  0  0  0  0  0  0
   44.9700   35.0280   44.5740 Cl  0  0  0  0  0  0  0  0  0  0  0  0
   46.3490   34.5320   43.6510 C   0  0  0  0  0  0  0  0  0  0  0  0
   46.9720   33.4230   44.1640 C   0  0  0  0  0  0  0  0  0  0  0  0
   48.1070   32.8920   43.5360 C   0  0  0  0  0  0  0  0  0  0  0  0
   48.6120   33.4860   42.3840 C   0  0  0  0  0  0  0  0  0  0  0  0
   47.9640   34.6080   41.8810 C   0  0  0  0  0  0  0  0  0  0  0  0
   48.5480   35.3990   40.4360 Cl  0  0  0  0  0  0  0  0  0  0  0  0
   46.8510   35.1130   42.5130 C   0  0  0  0  0  0  0  0  0  0  0  0
   50.6420   28.4360   52.2070 O   0  0  0  0  0  0  0  0  0  0  0  0
   51.4910   27.4530   51.5950 C   0  0  0  0  0  0  0  0  0  0  0  0
   52.1770   28.0410   50.5170 F   0  0  0  0  0  0  0  0  0  0  0  0
   52.4430   27.1000   52.5530 F   0  0  0  0  0  0  0  0  0  0  0  0
   50.8120   26.3130   51.1950 F   0  0  0  0  0  0  0  0  0  0  0  0
   51.6465   32.8737   51.7144 H   0  0  0  0  0  0  0  0  0  0  0  0
   50.8341   31.8517   54.5730 H   0  0  0  0  0  0  0  0  0  0  0  0
   52.4501   31.8641   56.4224 H   0  0  0  0  0  0  0  0  0  0  0  0
   56.7108   30.3700   57.1567 H   0  0  0  0  0  0  0  0  0  0  0  0
   57.3943   29.2838   54.9973 H   0  0  0  0  0  0  0  0  0  0  0  0
   55.8575   29.2118   53.0802 H   0  0  0  0  0  0  0  0  0  0  0  0
   53.6293   29.7774   52.1121 H   0  0  0  0  0  0  0  0  0  0  0  0
   49.0468   30.5881   47.7747 H   0  0  0  0  0  0  0  0  0  0  0  0
   47.3036   32.2427   49.6716 H   0  0  0  0  0  0  0  0  0  0  0  0
   46.7173   30.8377   47.0554 H   0  0  0  0  0  0  0  0  0  0  0  0
   45.7338   32.1230   47.8821 H   0  0  0  0  0  0  0  0  0  0  0  0
   47.8425   33.5315   46.8665 H   0  0  0  0  0  0  0  0  0  0  0  0
   48.6000   32.0026   43.9555 H   0  0  0  0  0  0  0  0  0  0  0  0
   49.5024   33.0778   41.8834 H   0  0  0  0  0  0  0  0  0  0  0  0
   46.3528   36.0013   42.0975 H   0  0  0  0  0  0  0  0  0  0  0  0
  1  2  2  0
  2  7  1  0
  3  2  1  0
  3 31  1  0
  4  3  2  0
  5  6  2  0
  5  4  1  0
  6  1  1  0
  7  8  2  0
  8  9  1  0
 10  9  2  0
 10 11  1  0
 12 11  2  0
 13 12  1  0
 14 15  1  0
 14 13  2  0
 15 10  1  0
 16  7  1  0
 16 15  2  0
 17 18  2  0
 17  5  1  0
 19 18  1  0
 20 22  1  0
 21 20  2  0
 22 19  1  0
 24 25  2  0
 24 23  1  0
 25 20  1  0
 26 25  1  0
 27 26  2  0
 28 27  1  0
 28 30  2  0
 29 28  1  0
 30 24  1  0
 32 31  1  0
 32 34  1  0
 33 32  1  0
 35 32  1  0
  1 36  1  0
  8 37  1  0
  9 38  1  0
 12 39  1  0
 13 40  1  0
 14 41  1  0
 16 42  1  0
 17 43  1  0
 18 44  1  0
 19 45  1  0
 19 46  1  0
 22 47  1  0
 26 48  1  0
 27 49  1  0
 30 50  1  0
M  END
>  <Score>  (1) 
-7.83494

>  <Score_dual>  (1) 
-7.49

>  <Choices>  (1) 
[None, 8, ['2-1', 0], 10, ['11-5', 0], 13, ['42-14', 225], 20, ['12-4', 45], 23, ['29-9', 315], 34, ['36-27', 345]]

$$$$
