
     RDKit          3D

 46 49  0  0  0  0  0  0  0  0999 V2000
   44.5100   35.7130   43.0270 C   0  0  0  0  0  0  0  0  0  0  0  0
   43.7310   34.9080   42.1590 C   0  0  0  0  0  0  0  0  0  0  0  0
   43.9690   33.5580   42.1530 C   0  0  0  0  0  0  0  0  0  0  0  0
   44.9400   33.0790   42.9840 N   0  0  0  0  0  0  0  0  0  0  0  0
   45.6660   33.8540   43.7960 C   0  0  0  0  0  0  0  0  0  0  0  0
   45.4360   35.1670   43.8030 N   0  0  0  0  0  0  0  0  0  0  0  0
   46.7090   33.3660   44.6920 C   0  0  0  0  0  0  0  0  0  0  0  0
   46.1850   33.2910   46.1250 C   0  0  0  0  0  0  0  0  0  0  0  0
   47.2250   30.9820   46.1200 C   0  0  0  0  0  0  0  0  0  0  0  0
   46.9870   32.1800   46.7560 C   0  0  0  0  0  0  0  0  0  0  0  0
   47.5260   32.3350   48.0320 C   0  0  0  0  0  0  0  0  0  0  0  0
   48.2560   31.3280   48.6120 C   0  0  0  0  0  0  0  0  0  0  0  0
   48.8540   31.2810   49.8210 N   0  0  0  0  0  0  0  0  0  0  0  0
   49.4460   30.1090   49.9540 N   0  0  0  0  0  0  0  0  0  0  0  0
   49.2410   29.3770   48.8330 C   0  0  0  0  0  0  0  0  0  0  0  0
   48.4800   30.1370   47.9540 C   0  0  0  0  0  0  0  0  0  0  0  0
   47.9530   29.9620   46.6830 C   0  0  0  0  0  0  0  0  0  0  0  0
   42.7060   35.5200   41.3020 C   0  0  0  0  0  0  0  0  0  0  0  0
   41.4290   35.5910   41.5920 C   0  0  0  0  0  0  0  0  0  0  0  0
   40.4150   36.2190   40.7010 C   0  0  0  0  0  0  0  0  0  0  0  0
   41.1000   36.0370   37.9900 F   0  0  0  0  0  0  0  0  0  0  0  0
   40.1770   35.1860   38.4740 C   0  0  0  0  0  0  0  0  0  0  0  0
   39.8040   35.2400   39.8140 C   0  0  0  0  0  0  0  0  0  0  0  0
   38.8530   34.3160   40.1690 C   0  0  0  0  0  0  0  0  0  0  0  0
   38.2540   33.3720   39.3470 C   0  0  0  0  0  0  0  0  0  0  0  0
   38.6850   33.3880   38.0240 C   0  0  0  0  0  0  0  0  0  0  0  0
   39.6330   34.2730   37.5620 C   0  0  0  0  0  0  0  0  0  0  0  0
   44.3450   36.8001   43.0572 H   0  0  0  0  0  0  0  0  0  0  0  0
   43.3963   32.8830   41.5000 H   0  0  0  0  0  0  0  0  0  0  0  0
   47.0254   32.3634   44.3684 H   0  0  0  0  0  0  0  0  0  0  0  0
   47.5622   34.0595   44.6590 H   0  0  0  0  0  0  0  0  0  0  0  0
   46.3538   34.2416   46.6521 H   0  0  0  0  0  0  0  0  0  0  0  0
   45.1017   33.1047   46.1677 H   0  0  0  0  0  0  0  0  0  0  0  0
   46.8118   30.8345   45.1113 H   0  0  0  0  0  0  0  0  0  0  0  0
   47.3645   33.2749   48.5802 H   0  0  0  0  0  0  0  0  0  0  0  0
   48.8492   32.0346   50.5232 H   0  0  0  0  0  0  0  0  0  0  0  0
   49.6126   28.3579   48.6504 H   0  0  0  0  0  0  0  0  0  0  0  0
   48.1153   29.0222   46.1349 H   0  0  0  0  0  0  0  0  0  0  0  0
   43.0347   35.9511   40.3449 H   0  0  0  0  0  0  0  0  0  0  0  0
   41.0883   35.1629   42.5463 H   0  0  0  0  0  0  0  0  0  0  0  0
   39.6307   36.6785   41.3204 H   0  0  0  0  0  0  0  0  0  0  0  0
   40.9203   36.9760   40.0833 H   0  0  0  0  0  0  0  0  0  0  0  0
   38.5303   34.3248   41.2206 H   0  0  0  0  0  0  0  0  0  0  0  0
   37.4957   32.6645   39.7136 H   0  0  0  0  0  0  0  0  0  0  0  0
   38.2506   32.6642   37.3187 H   0  0  0  0  0  0  0  0  0  0  0  0
   39.9531   34.2633   36.5096 H   0  0  0  0  0  0  0  0  0  0  0  0
  1  6  2  0
  2  1  1  0
  3  2  2  0
  3  4  1  0
  4  5  2  0
  5  6  1  0
  5  7  1  0
  7  8  1  0
  8 10  1  0
  9 17  2  0
  9 10  1  0
 10 11  2  0
 11 12  1  0
 12 13  1  0
 13 14  1  0
 15 14  2  0
 16 12  2  0
 16 15  1  0
 17 16  1  0
 18 19  2  0
 18  2  1  0
 20 19  1  0
 21 22  1  0
 22 23  2  0
 23 24  1  0
 23 20  1  0
 25 24  2  0
 26 25  1  0
 27 26  2  0
 27 22  1  0
  1 28  1  0
  3 29  1  0
  7 30  1  0
  7 31  1  0
  8 32  1  0
  8 33  1  0
  9 34  1  0
 11 35  1  0
 13 36  1  0
 15 37  1  0
 17 38  1  0
 18 39  1  0
 19 40  1  0
 20 41  1  0
 20 42  1  0
 24 43  1  0
 25 44  1  0
 26 45  1  0
 27 46  1  0
M  END
>  <Score>  (1) 
-7.52394

>  <Score_dual>  (1) 
-7.19

>  <Choices>  (1) 
[None, 7, ['42-13', 90], 16, ['9-11', 120], 26, ['4-12', 225], 32, ['54-8', 255]]

$$$$
