
 OpenBabel10282417072D

 29 29  0  0  1  0  0  0  0  0999 V2000
    0.7145   -3.7125    0.0000 C   0  0  0  0  0  0  0  0  0  0  0  0
    1.4289   -3.3000    0.0000 C   0  0  0  0  0  0  0  0  0  0  0  0
    2.1434   -3.7125    0.0000 O   0  0  0  0  0  0  0  0  0  0  0  0
    1.4289   -2.4750    0.0000 N   0  0  0  0  0  0  0  0  0  0  0  0
    2.1434   -2.0625    0.0000 C   0  0  1  0  0  0  0  0  0  0  0  0
    2.1434   -1.2375    0.0000 C   0  0  0  0  0  0  0  0  0  0  0  0
    2.8579   -0.8250    0.0000 C   0  0  0  0  0  0  0  0  0  0  0  0
    2.8579    0.0000    0.0000 C   0  0  0  0  0  0  0  0  0  0  0  0
    3.5724    0.4125    0.0000 C   0  0  0  0  0  0  0  0  0  0  0  0
    4.2868    0.0000    0.0000 C   0  0  0  0  0  0  0  0  0  0  0  0
    4.2868   -0.8250    0.0000 C   0  0  0  0  0  0  0  0  0  0  0  0
    3.5724   -1.2375    0.0000 C   0  0  0  0  0  0  0  0  0  0  0  0
    5.0013    0.4125    0.0000 O   0  0  0  0  0  0  0  0  0  0  0  0
    2.8579   -2.4750    0.0000 C   0  0  0  0  0  0  0  0  0  0  0  0
    3.5724   -2.0625    0.0000 O   0  0  0  0  0  0  0  0  0  0  0  0
    2.8579   -3.3000    0.0000 O   0  0  0  0  0  0  0  0  0  0  0  0
   -0.2122   -3.1775    0.0000 H   0  0  0  0  0  0  0  0  0  0  0  0
    0.7145   -4.7825    0.0000 H   0  0  0  0  0  0  0  0  0  0  0  0
   -0.2121   -4.2475    0.0000 H   0  0  0  0  0  0  0  0  0  0  0  0
    0.5763   -1.9827    0.0000 H   0  0  0  0  0  0  0  0  0  0  0  0
    1.2168   -1.5275    0.0000 H   0  0  0  0  0  0  0  0  0  0  0  0
    1.2168   -0.7025    0.0000 H   0  0  0  0  0  0  0  0  0  0  0  0
    2.1434   -0.1675    0.0000 H   0  0  0  0  0  0  0  0  0  0  0  0
    1.9642    0.5160    0.0000 H   0  0  0  0  0  0  0  0  0  0  0  0
    3.5724    1.4445    0.0000 H   0  0  0  0  0  0  0  0  0  0  0  0
    5.1805   -1.3410    0.0000 H   0  0  0  0  0  0  0  0  0  0  0  0
    3.5724   -2.2695    0.0000 H   0  0  0  0  0  0  0  0  0  0  0  0
    5.8128   -0.0560    0.0000 H   0  0  0  0  0  0  0  0  0  0  0  0
    2.0464   -3.7685    0.0000 H   0  0  0  0  0  0  0  0  0  0  0  0
  1  2  1  0  0  0  0
  1 17  1  0  0  0  0
  1 18  1  0  0  0  0
  1 19  1  0  0  0  0
  2  3  2  0  0  0  0
  2  4  1  0  0  0  0
  4 20  1  0  0  0  0
  5  4  1  0  0  0  0
  5  6  1  0  0  0  0
  5 14  1  0  0  0  0
  5 21  1  6  0  0  0
  6  7  1  0  0  0  0
  6 22  1  0  0  0  0
  6 23  1  0  0  0  0
  7  8  2  0  0  0  0
  7 12  1  0  0  0  0
  8  9  1  0  0  0  0
  8 24  1  0  0  0  0
  9 10  2  0  0  0  0
  9 25  1  0  0  0  0
 10 11  1  0  0  0  0
 10 13  1  0  0  0  0
 11 12  2  0  0  0  0
 11 26  1  0  0  0  0
 12 27  1  0  0  0  0
 13 28  1  0  0  0  0
 14 15  2  0  0  0  0
 14 16  1  0  0  0  0
 16 29  1  0  0  0  0
M  END
>  <DRUGBANK_ID>
DB11102

>  <COMMON_NAME>
N-acetyltyrosine

>  <CAS_NUMBER>
537-55-3

>  <UNII>
DA8G610ZO5

>  <SYNONYMS>
(+)-(2s)-2-(acetylamino)-3-(4-hydroxyphenyl)propanoic acid; (2s)-2-acetylamino-3-(4-hydroxyphenyl)propanoic acid; Acetyl tyrosine; L-N-acetyltyrosine; Melanowhite-A; N-acetyl-L-tyrosine; N-acetyl-tyrosine; N-acetyltyrosin

$$$$
