
 OpenBabel10282417072D

 51 55  0  0  0  0  0  0  0  0999 V2000
    1.7956    1.6568    0.0000 C   0  0  0  0  0  0  0  0  0  0  0  0
   -4.6535   -1.5173    0.0000 C   0  0  0  0  0  0  0  0  0  0  0  0
   -4.0404   -2.0693    0.0000 C   0  0  0  0  0  0  0  0  0  0  0  0
    1.0811    2.0693    0.0000 C   0  0  0  0  0  0  0  0  0  0  0  0
    3.9390    0.4193    0.0000 C   0  0  0  0  0  0  0  0  0  0  0  0
    3.2245    1.6568    0.0000 C   0  0  0  0  0  0  0  0  0  0  0  0
    4.6535    0.8318    0.0000 C   0  0  0  0  0  0  0  0  0  0  0  0
    3.9390    2.0693    0.0000 C   0  0  0  0  0  0  0  0  0  0  0  0
    1.0811    0.4193    0.0000 C   0  0  0  0  0  0  0  0  0  0  0  0
   -2.9974    0.8318    0.0000 C   0  0  0  0  0  0  0  0  0  0  0  0
    2.5100    0.4193    0.0000 C   0  0  0  0  0  0  0  0  0  0  0  0
    1.7956    0.8318    0.0000 C   0  0  0  0  0  0  0  0  0  0  0  0
   -3.8688   -1.2623    0.0000 C   0  0  0  0  0  0  0  0  0  0  0  0
    0.3666    1.6568    0.0000 C   0  0  0  0  0  0  0  0  0  0  0  0
    0.3666    0.8318    0.0000 C   0  0  0  0  0  0  0  0  0  0  0  0
   -2.2127    0.5769    0.0000 C   0  0  0  0  0  0  0  0  0  0  0  0
   -1.7278    1.2443    0.0000 C   0  0  0  0  0  0  0  0  0  0  0  0
   -0.9028    1.2443    0.0000 C   0  0  0  0  0  0  0  0  0  0  0  0
   -2.5098   -0.8208    0.0000 C   0  0  0  0  0  0  0  0  0  0  0  0
   -2.9974    1.6568    0.0000 N   0  0  0  0  0  0  0  0  0  0  0  0
   -3.3168   -0.6492    0.0000 N   0  0  0  0  0  0  0  0  0  0  0  0
   -0.4179    1.9117    0.0000 N   0  0  0  0  0  0  0  0  0  0  0  0
   -0.4179    0.5769    0.0000 N   0  0  0  0  0  0  0  0  0  0  0  0
   -1.9578   -0.2077    0.0000 N   0  0  0  0  0  0  0  0  0  0  0  0
   -2.2127    1.9117    0.0000 N   0  0  0  0  0  0  0  0  0  0  0  0
    3.2245    0.8318    0.0000 N   0  0  0  0  0  0  0  0  0  0  0  0
   -2.2549   -1.6054    0.0000 O   0  0  0  0  0  0  0  0  0  0  0  0
    4.6535    1.6568    0.0000 O   0  0  0  0  0  0  0  0  0  0  0  0
    2.6893    2.1728    0.0000 H   0  0  0  0  0  0  0  0  0  0  0  0
   -5.7001   -1.2949    0.0000 H   0  0  0  0  0  0  0  0  0  0  0  0
   -4.7095   -0.4488    0.0000 H   0  0  0  0  0  0  0  0  0  0  0  0
   -3.7098   -3.0869    0.0000 H   0  0  0  0  0  0  0  0  0  0  0  0
   -2.9719   -2.0134    0.0000 H   0  0  0  0  0  0  0  0  0  0  0  0
    1.0811    3.1013    0.0000 H   0  0  0  0  0  0  0  0  0  0  0  0
    3.9390   -0.6507    0.0000 H   0  0  0  0  0  0  0  0  0  0  0  0
    3.0124   -0.1157    0.0000 H   0  0  0  0  0  0  0  0  0  0  0  0
    2.2979    2.1918    0.0000 H   0  0  0  0  0  0  0  0  0  0  0  0
    2.2979    1.1218    0.0000 H   0  0  0  0  0  0  0  0  0  0  0  0
    5.5801    0.2968    0.0000 H   0  0  0  0  0  0  0  0  0  0  0  0
    5.5801    1.3668    0.0000 H   0  0  0  0  0  0  0  0  0  0  0  0
    3.9390    3.1393    0.0000 H   0  0  0  0  0  0  0  0  0  0  0  0
    4.8656    2.6043    0.0000 H   0  0  0  0  0  0  0  0  0  0  0  0
    1.0811   -0.6127    0.0000 H   0  0  0  0  0  0  0  0  0  0  0  0
   -3.8323    0.2252    0.0000 H   0  0  0  0  0  0  0  0  0  0  0  0
    2.5100   -0.6507    0.0000 H   0  0  0  0  0  0  0  0  0  0  0  0
    3.4366   -0.1157    0.0000 H   0  0  0  0  0  0  0  0  0  0  0  0
   -2.9154   -1.7481    0.0000 H   0  0  0  0  0  0  0  0  0  0  0  0
   -3.7939    2.2355    0.0000 H   0  0  0  0  0  0  0  0  0  0  0  0
   -0.7221    2.8480    0.0000 H   0  0  0  0  0  0  0  0  0  0  0  0
   -0.9948   -0.4124    0.0000 H   0  0  0  0  0  0  0  0  0  0  0  0
   -2.8819   -2.3017    0.0000 H   0  0  0  0  0  0  0  0  0  0  0  0
  1 29  1  0  0  0  0
  2 30  1  0  0  0  0
  2 31  1  0  0  0  0
  3  2  1  0  0  0  0
  3 32  1  0  0  0  0
  3 33  1  0  0  0  0
  4  1  2  0  0  0  0
  4 34  1  0  0  0  0
  5 35  1  0  0  0  0
  5 36  1  0  0  0  0
  6 37  1  0  0  0  0
  6 38  1  0  0  0  0
  7  5  1  0  0  0  0
  7 39  1  0  0  0  0
  7 40  1  0  0  0  0
  8  6  1  0  0  0  0
  8 41  1  0  0  0  0
  8 42  1  0  0  0  0
  9 43  1  0  0  0  0
 10 44  1  0  0  0  0
 11 45  1  0  0  0  0
 11 46  1  0  0  0  0
 12  1  1  0  0  0  0
 12  9  2  0  0  0  0
 12 11  1  0  0  0  0
 13  2  1  0  0  0  0
 13  3  1  0  0  0  0
 13 47  1  0  0  0  0
 14  4  1  0  0  0  0
 15  9  1  0  0  0  0
 15 14  2  0  0  0  0
 16 10  2  0  0  0  0
 17 16  1  0  0  0  0
 18 17  1  0  0  0  0
 20 10  1  0  0  0  0
 20 48  1  0  0  0  0
 21 13  1  0  0  0  0
 21 19  2  3  0  0  0
 22 14  1  0  0  0  0
 22 18  1  0  0  0  0
 22 49  1  0  0  0  0
 23 15  1  0  0  0  0
 23 18  2  0  0  0  0
 24 16  1  0  0  0  0
 24 19  1  0  0  0  0
 24 50  1  0  0  0  0
 25 17  2  0  0  0  0
 25 20  1  0  0  0  0
 26  5  1  0  0  0  0
 26  6  1  0  0  0  0
 26 11  1  0  0  0  0
 27 19  1  0  0  0  0
 27 51  1  0  0  0  0
 28  7  1  0  0  0  0
 28  8  1  0  0  0  0
M  END
>  <DRUGBANK_ID>
DB05169

>  <COMMON_NAME>
AT9283

>  <CAS_NUMBER>
896466-04-9

>  <UNII>
XAV9KYN9WL

>  <SYNONYMS>
1-Cyclopropyl-3-[3-(5-morpholin-4-ylmethyl-1H-benzoimidazol-2-yl)-1H-pyrazol-4-yl]-urea

$$$$
