
 OpenBabel10282417072D

 42 42  0  0  0  0  0  0  0  0999 V2000
   -1.4256    0.2036    0.0000 C   0  0  0  0  0  0  0  0  0  0  0  0
   -1.4280   -0.6169    0.0000 C   0  0  0  0  0  0  0  0  0  0  0  0
   -2.1375    0.6119    0.0000 C   0  0  0  0  0  0  0  0  0  0  0  0
   -0.7110    0.6162    0.0000 C   0  0  0  0  0  0  0  0  0  0  0  0
   -2.1425   -1.0295    0.0000 C   0  0  0  0  0  0  0  0  0  0  0  0
   -2.8520    0.1993    0.0000 C   0  0  0  0  0  0  0  0  0  0  0  0
   -2.8546   -0.6213    0.0000 C   0  0  0  0  0  0  0  0  0  0  0  0
   -0.7134    1.4341    0.0000 O   0  0  0  0  0  0  0  0  0  0  0  0
   -0.0039    0.2052    0.0000 N   0  0  0  0  0  0  0  0  0  0  0  0
   -3.5690   -1.0338    0.0000 N   0  0  0  0  0  0  0  0  0  0  0  0
   -3.5668    0.6123    0.0000 Cl  0  0  0  0  0  0  0  0  0  0  0  0
   -0.7134   -1.0299    0.0000 O   0  0  0  0  0  0  0  0  0  0  0  0
    2.1397    0.6173    0.0000 N   0  0  0  0  0  0  0  0  0  0  0  0
    0.7106    0.6178    0.0000 C   0  0  0  0  0  0  0  0  0  0  0  0
    1.4252    0.2047    0.0000 C   0  0  0  0  0  0  0  0  0  0  0  0
    2.1395    1.4428    0.0000 C   0  0  0  0  0  0  0  0  0  0  0  0
    2.8545    0.2044    0.0000 C   0  0  0  0  0  0  0  0  0  0  0  0
   -0.7130   -1.8553    0.0000 C   0  0  0  0  0  0  0  0  0  0  0  0
    2.8540    1.8553    0.0000 C   0  0  0  0  0  0  0  0  0  0  0  0
    3.5690    0.6169    0.0000 C   0  0  0  0  0  0  0  0  0  0  0  0
   -2.1390    1.6439    0.0000 H   0  0  0  0  0  0  0  0  0  0  0  0
   -2.1409   -2.0615    0.0000 H   0  0  0  0  0  0  0  0  0  0  0  0
   -0.0053   -0.7793    0.0000 H   0  0  0  0  0  0  0  0  0  0  0  0
   -4.4216   -0.5416    0.0000 H   0  0  0  0  0  0  0  0  0  0  0  0
   -3.5690   -2.0183    0.0000 H   0  0  0  0  0  0  0  0  0  0  0  0
    0.7108    1.6878    0.0000 H   0  0  0  0  0  0  0  0  0  0  0  0
    1.6375    1.1524    0.0000 H   0  0  0  0  0  0  0  0  0  0  0  0
    1.4250   -0.8653    0.0000 H   0  0  0  0  0  0  0  0  0  0  0  0
    0.4983   -0.3299    0.0000 H   0  0  0  0  0  0  0  0  0  0  0  0
    1.2128    1.9777    0.0000 H   0  0  0  0  0  0  0  0  0  0  0  0
    2.1394    2.5128    0.0000 H   0  0  0  0  0  0  0  0  0  0  0  0
    2.8544   -0.8656    0.0000 H   0  0  0  0  0  0  0  0  0  0  0  0
    3.7811   -0.3307    0.0000 H   0  0  0  0  0  0  0  0  0  0  0  0
   -1.6394   -2.3907    0.0000 H   0  0  0  0  0  0  0  0  0  0  0  0
    0.2139   -2.3899    0.0000 H   0  0  0  0  0  0  0  0  0  0  0  0
   -0.7125   -2.9253    0.0000 H   0  0  0  0  0  0  0  0  0  0  0  0
    3.7806    1.3203    0.0000 H   0  0  0  0  0  0  0  0  0  0  0  0
    2.8540    2.9253    0.0000 H   0  0  0  0  0  0  0  0  0  0  0  0
    3.7807    2.3903    0.0000 H   0  0  0  0  0  0  0  0  0  0  0  0
    4.4956    0.0819    0.0000 H   0  0  0  0  0  0  0  0  0  0  0  0
    3.5690    1.6869    0.0000 H   0  0  0  0  0  0  0  0  0  0  0  0
    4.4957    1.1519    0.0000 H   0  0  0  0  0  0  0  0  0  0  0  0
  2  1  1  0  0  0  0
  3  1  2  0  0  0  0
  3 21  1  0  0  0  0
  4  1  1  0  0  0  0
  5  2  2  0  0  0  0
  5 22  1  0  0  0  0
  6  3  1  0  0  0  0
  7  5  1  0  0  0  0
  7  6  2  0  0  0  0
  8  4  2  0  0  0  0
  9  4  1  0  0  0  0
  9 23  1  0  0  0  0
 10  7  1  0  0  0  0
 10 24  1  0  0  0  0
 10 25  1  0  0  0  0
 11  6  1  0  0  0  0
 12  2  1  0  0  0  0
 14  9  1  0  0  0  0
 14 26  1  0  0  0  0
 14 27  1  0  0  0  0
 15 13  1  0  0  0  0
 15 14  1  0  0  0  0
 15 28  1  0  0  0  0
 15 29  1  0  0  0  0
 16 13  1  0  0  0  0
 16 30  1  0  0  0  0
 16 31  1  0  0  0  0
 17 13  1  0  0  0  0
 17 32  1  0  0  0  0
 17 33  1  0  0  0  0
 18 12  1  0  0  0  0
 18 34  1  0  0  0  0
 18 35  1  0  0  0  0
 18 36  1  0  0  0  0
 19 16  1  0  0  0  0
 19 37  1  0  0  0  0
 19 38  1  0  0  0  0
 19 39  1  0  0  0  0
 20 17  1  0  0  0  0
 20 40  1  0  0  0  0
 20 41  1  0  0  0  0
 20 42  1  0  0  0  0
M  END
>  <DRUGBANK_ID>
DB01233

>  <SECONDARY_ACCESSION_NUMBERS>
APRD00665

>  <COMMON_NAME>
Metoclopramide

>  <CAS_NUMBER>
364-62-5

>  <UNII>
L4YEB44I46

>  <SYNONYMS>
2-methoxy-4-amino-5-chloro-N,N-(dimethylaminoethyl)benzamide; 2-methoxy-5-chloroprocainamide; 4-amino-5-chloro-2-methoxy-N-(Î²-diethylaminoethyl)benzamide; 4-amino-5-chloro-N-(2-(diethylamino)ethyl)-o-anisamide; Metoclopramida; Metoclopramide; Metoclopramidum

$$$$
