
 OpenBabel10282417072D

150157  0  0  1  0  0  0  0  0999 V2000
  -11.3248   -1.0098    0.0000 C   0  0  0  0  0  0  0  0  0  0  0  0
  -10.6104   -1.4223    0.0000 C   0  0  0  0  0  0  0  0  0  0  0  0
   -9.8959   -1.0098    0.0000 C   0  0  0  0  0  0  0  0  0  0  0  0
  -10.6104   -2.2473    0.0000 N   0  0  0  0  0  0  0  0  0  0  0  0
   -9.9429   -2.7322    0.0000 C   0  0  0  0  0  0  0  0  0  0  0  0
   -9.1583   -2.4773    0.0000 C   0  0  0  0  0  0  0  0  0  0  0  0
  -10.1979   -3.5169    0.0000 C   0  0  0  0  0  0  0  0  0  0  0  0
  -11.0229   -3.5169    0.0000 C   0  0  0  0  0  0  0  0  0  0  0  0
  -11.2778   -2.7322    0.0000 C   0  0  0  0  0  0  0  0  0  0  0  0
  -12.0624   -2.4773    0.0000 C   0  0  0  0  0  0  0  0  0  0  0  0
  -12.6755   -3.0293    0.0000 C   0  0  0  0  0  0  0  0  0  0  0  0
  -13.4601   -2.7744    0.0000 C   0  0  0  0  0  0  0  0  0  0  0  0
  -13.6317   -1.9674    0.0000 C   0  0  0  0  0  0  0  0  0  0  0  0
  -14.4163   -1.7125    0.0000 Cl  0  0  0  0  0  0  0  0  0  0  0  0
  -13.0186   -1.4154    0.0000 C   0  0  0  0  0  0  0  0  0  0  0  0
  -12.2339   -1.6703    0.0000 C   0  0  0  0  0  0  0  0  0  0  0  0
  -11.5078   -4.1843    0.0000 C   0  0  0  0  0  0  0  0  0  0  0  0
  -11.1722   -4.9380    0.0000 C   0  0  0  0  0  0  0  0  0  0  0  0
  -11.6571   -5.6054    0.0000 C   0  0  0  0  0  0  0  0  0  0  0  0
  -12.4776   -5.5192    0.0000 C   0  0  0  0  0  0  0  0  0  0  0  0
  -12.8132   -4.7655    0.0000 C   0  0  0  0  0  0  0  0  0  0  0  0
  -13.6337   -4.6793    0.0000 F   0  0  0  0  0  0  0  0  0  0  0  0
  -12.3283   -4.0981    0.0000 C   0  0  0  0  0  0  0  0  0  0  0  0
  -11.3216   -6.3591    0.0000 N   0  0  0  0  0  0  0  0  0  0  0  0
  -10.5011   -6.4453    0.0000 C   0  0  0  0  0  0  0  0  0  0  0  0
  -10.1656   -7.1990    0.0000 C   0  0  0  0  0  0  0  0  0  0  0  0
  -10.6505   -7.8664    0.0000 N   0  0  0  0  0  0  0  0  0  0  0  0
  -11.4710   -7.7802    0.0000 C   0  0  0  0  0  0  0  0  0  0  0  0
  -11.8065   -7.0265    0.0000 C   0  0  0  0  0  0  0  0  0  0  0  0
  -10.3149   -8.6201    0.0000 C   0  0  0  0  0  0  0  0  0  0  0  0
   -9.4944   -8.7064    0.0000 C   0  0  0  0  0  0  0  0  0  0  0  0
   -9.1589   -9.4600    0.0000 C   0  0  0  0  0  0  0  0  0  0  0  0
   -9.6438  -10.1275    0.0000 C   0  0  0  0  0  0  0  0  0  0  0  0
   -9.3082  -10.8811    0.0000 N   0  0  0  0  0  0  0  0  0  0  0  0
   -9.7932  -11.5486    0.0000 S   0  0  0  0  0  0  0  0  0  0  0  0
  -10.4606  -11.0637    0.0000 O   0  0  0  0  0  0  0  0  0  0  0  0
   -9.1257  -12.0335    0.0000 O   0  0  0  0  0  0  0  0  0  0  0  0
  -10.2781  -12.2160    0.0000 C   0  0  0  0  0  0  0  0  0  0  0  0
   -9.9425  -12.9697    0.0000 C   0  0  0  0  0  0  0  0  0  0  0  0
  -10.4275  -13.6371    0.0000 C   0  0  0  0  0  0  0  0  0  0  0  0
  -11.2479  -13.5509    0.0000 C   0  0  0  0  0  0  0  0  0  0  0  0
  -11.7329  -14.2183    0.0000 N   0  0  0  0  0  0  0  0  0  0  0  0
  -11.3973  -14.9720    0.0000 C   0  0  2  0  0  0  0  0  0  0  0  0
  -11.8822  -15.6395    0.0000 C   0  0  0  0  0  0  0  0  0  0  0  0
  -11.5467  -16.3931    0.0000 C   0  0  0  0  0  0  0  0  0  0  0  0
  -12.0316  -17.0606    0.0000 N   0  0  0  0  0  0  0  0  0  0  0  0
  -11.6960  -17.8142    0.0000 C   0  0  0  0  0  0  0  0  0  0  0  0
  -12.1810  -18.4817    0.0000 C   0  0  0  0  0  0  0  0  0  0  0  0
  -13.0014  -18.3954    0.0000 C   0  0  3  0  0  0  0  0  0  0  0  0
  -13.3370  -17.6418    0.0000 C   0  0  0  0  0  0  0  0  0  0  0  0
  -12.8521  -16.9743    0.0000 C   0  0  0  0  0  0  0  0  0  0  0  0
  -13.4864  -19.0629    0.0000 C   0  0  0  0  0  0  0  0  0  0  0  0
  -14.3068  -18.9766    0.0000 O   0  0  0  0  0  0  0  0  0  0  0  0
  -13.1508  -19.8166    0.0000 O   0  0  0  0  0  0  0  0  0  0  0  0
  -13.6357  -20.4840    0.0000 C   0  0  0  0  0  0  0  0  0  0  0  0
  -13.3002  -21.2377    0.0000 C   0  0  0  0  0  0  0  0  0  0  0  0
  -13.7851  -21.9051    0.0000 C   0  0  0  0  0  0  0  0  0  0  0  0
  -13.4495  -22.6588    0.0000 P   0  0  0  0  0  0  0  0  0  0  0  0
  -13.1140  -23.4125    0.0000 O   0  0  0  0  0  0  0  0  0  0  0  0
  -14.2032  -22.9943    0.0000 O   0  0  0  0  0  0  0  0  0  0  0  0
  -12.6959  -22.3232    0.0000 O   0  0  0  0  0  0  0  0  0  0  0  0
  -10.5768  -15.0582    0.0000 C   0  0  0  0  0  0  0  0  0  0  0  0
  -10.0919  -14.3908    0.0000 S   0  0  0  0  0  0  0  0  0  0  0  0
   -9.2714  -14.4770    0.0000 C   0  0  0  0  0  0  0  0  0  0  0  0
   -8.7865  -13.8096    0.0000 C   0  0  0  0  0  0  0  0  0  0  0  0
   -7.9660  -13.8958    0.0000 C   0  0  0  0  0  0  0  0  0  0  0  0
   -7.6305  -14.6495    0.0000 C   0  0  0  0  0  0  0  0  0  0  0  0
   -8.1154  -15.3170    0.0000 C   0  0  0  0  0  0  0  0  0  0  0  0
   -8.9359  -15.2307    0.0000 C   0  0  0  0  0  0  0  0  0  0  0  0
  -11.5835  -12.7972    0.0000 C   0  0  0  0  0  0  0  0  0  0  0  0
  -11.0986  -12.1298    0.0000 C   0  0  0  0  0  0  0  0  0  0  0  0
  -12.4040  -12.7110    0.0000 S   0  0  0  0  0  0  0  0  0  0  0  0
  -12.3177  -11.8905    0.0000 O   0  0  0  0  0  0  0  0  0  0  0  0
  -12.4902  -13.5315    0.0000 O   0  0  0  0  0  0  0  0  0  0  0  0
  -13.2245  -12.6248    0.0000 C   0  0  0  0  0  0  0  0  0  0  0  0
  -13.1382  -11.8043    0.0000 F   0  0  0  0  0  0  0  0  0  0  0  0
  -13.3107  -13.4452    0.0000 F   0  0  0  0  0  0  0  0  0  0  0  0
  -14.0449  -12.5385    0.0000 F   0  0  0  0  0  0  0  0  0  0  0  0
  -10.4643  -10.0412    0.0000 C   0  0  0  0  0  0  0  0  0  0  0  0
  -10.7998   -9.2876    0.0000 C   0  0  0  0  0  0  0  0  0  0  0  0
   -9.7129   -4.1843    0.0000 S   0  0  0  0  0  0  0  0  0  0  0  0
   -9.2280   -4.8517    0.0000 C   0  0  0  0  0  0  0  0  0  0  0  0
  -10.3804   -4.6692    0.0000 O   0  0  0  0  0  0  0  0  0  0  0  0
   -9.0455   -3.6994    0.0000 O   0  0  0  0  0  0  0  0  0  0  0  0
  -11.3248    0.0602    0.0000 H   0  0  0  0  0  0  0  0  0  0  0  0
  -12.2515   -1.5448    0.0000 H   0  0  0  0  0  0  0  0  0  0  0  0
  -12.2514   -0.4748    0.0000 H   0  0  0  0  0  0  0  0  0  0  0  0
   -9.6838   -1.9573    0.0000 H   0  0  0  0  0  0  0  0  0  0  0  0
   -8.9693   -1.5448    0.0000 H   0  0  0  0  0  0  0  0  0  0  0  0
   -9.8959    0.0602    0.0000 H   0  0  0  0  0  0  0  0  0  0  0  0
   -8.9692   -0.4748    0.0000 H   0  0  0  0  0  0  0  0  0  0  0  0
   -8.3632   -3.1933    0.0000 H   0  0  0  0  0  0  0  0  0  0  0  0
   -8.9358   -1.4307    0.0000 H   0  0  0  0  0  0  0  0  0  0  0  0
   -8.1407   -2.1467    0.0000 H   0  0  0  0  0  0  0  0  0  0  0  0
  -12.4609   -4.0387    0.0000 H   0  0  0  0  0  0  0  0  0  0  0  0
  -14.2270   -3.4650    0.0000 H   0  0  0  0  0  0  0  0  0  0  0  0
  -13.2332   -0.4060    0.0000 H   0  0  0  0  0  0  0  0  0  0  0  0
  -11.4670   -0.9797    0.0000 H   0  0  0  0  0  0  0  0  0  0  0  0
  -10.1459   -5.0459    0.0000 H   0  0  0  0  0  0  0  0  0  0  0  0
  -13.0842   -6.3541    0.0000 H   0  0  0  0  0  0  0  0  0  0  0  0
  -12.7481   -3.1553    0.0000 H   0  0  0  0  0  0  0  0  0  0  0  0
   -9.8722   -5.5797    0.0000 H   0  0  0  0  0  0  0  0  0  0  0  0
   -9.4370   -6.5572    0.0000 H   0  0  0  0  0  0  0  0  0  0  0  0
   -9.1015   -7.3109    0.0000 H   0  0  0  0  0  0  0  0  0  0  0  0
   -9.7304   -8.1765    0.0000 H   0  0  0  0  0  0  0  0  0  0  0  0
  -12.0999   -8.6458    0.0000 H   0  0  0  0  0  0  0  0  0  0  0  0
  -12.5351   -7.6683    0.0000 H   0  0  0  0  0  0  0  0  0  0  0  0
  -12.8706   -6.9146    0.0000 H   0  0  0  0  0  0  0  0  0  0  0  0
  -12.2417   -6.0490    0.0000 H   0  0  0  0  0  0  0  0  0  0  0  0
   -8.8878   -7.8715    0.0000 H   0  0  0  0  0  0  0  0  0  0  0  0
   -8.1326   -9.5679    0.0000 H   0  0  0  0  0  0  0  0  0  0  0  0
   -8.3291  -10.9840    0.0000 H   0  0  0  0  0  0  0  0  0  0  0  0
   -8.9162  -13.0776    0.0000 H   0  0  0  0  0  0  0  0  0  0  0  0
  -10.0078  -14.5799    0.0000 H   0  0  0  0  0  0  0  0  0  0  0  0
  -12.7120  -14.1154    0.0000 H   0  0  0  0  0  0  0  0  0  0  0  0
  -12.4614  -14.8602    0.0000 H   0  0  0  0  0  0  0  0  0  0  0  0
  -12.9463  -15.5277    0.0000 H   0  0  0  0  0  0  0  0  0  0  0  0
  -12.5111  -16.5051    0.0000 H   0  0  0  0  0  0  0  0  0  0  0  0
  -10.4826  -16.5049    0.0000 H   0  0  0  0  0  0  0  0  0  0  0  0
  -11.1115  -17.3706    0.0000 H   0  0  0  0  0  0  0  0  0  0  0  0
  -10.6319  -17.9260    0.0000 H   0  0  0  0  0  0  0  0  0  0  0  0
  -11.2608  -18.7917    0.0000 H   0  0  0  0  0  0  0  0  0  0  0  0
  -11.7459  -19.4592    0.0000 H   0  0  0  0  0  0  0  0  0  0  0  0
  -12.8100  -19.3473    0.0000 H   0  0  0  0  0  0  0  0  0  0  0  0
  -12.3725  -17.5298    0.0000 H   0  0  0  0  0  0  0  0  0  0  0  0
  -14.4011  -17.5300    0.0000 H   0  0  0  0  0  0  0  0  0  0  0  0
  -13.7723  -16.6643    0.0000 H   0  0  0  0  0  0  0  0  0  0  0  0
  -13.2873  -15.9968    0.0000 H   0  0  0  0  0  0  0  0  0  0  0  0
  -12.2231  -16.1087    0.0000 H   0  0  0  0  0  0  0  0  0  0  0  0
  -14.6998  -20.3721    0.0000 H   0  0  0  0  0  0  0  0  0  0  0  0
  -14.2647  -21.3496    0.0000 H   0  0  0  0  0  0  0  0  0  0  0  0
  -12.2361  -21.3496    0.0000 H   0  0  0  0  0  0  0  0  0  0  0  0
  -12.8650  -22.2152    0.0000 H   0  0  0  0  0  0  0  0  0  0  0  0
  -14.8492  -21.7933    0.0000 H   0  0  0  0  0  0  0  0  0  0  0  0
  -14.4140  -22.7708    0.0000 H   0  0  0  0  0  0  0  0  0  0  0  0
  -13.6842  -24.1972    0.0000 H   0  0  0  0  0  0  0  0  0  0  0  0
  -14.9879  -22.4241    0.0000 H   0  0  0  0  0  0  0  0  0  0  0  0
  -10.1416  -16.0357    0.0000 H   0  0  0  0  0  0  0  0  0  0  0  0
   -9.5127  -15.1700    0.0000 H   0  0  0  0  0  0  0  0  0  0  0  0
   -9.2063  -12.8668    0.0000 H   0  0  0  0  0  0  0  0  0  0  0  0
   -7.3594  -13.0609    0.0000 H   0  0  0  0  0  0  0  0  0  0  0  0
   -6.6042  -14.7574    0.0000 H   0  0  0  0  0  0  0  0  0  0  0  0
   -7.6957  -16.2598    0.0000 H   0  0  0  0  0  0  0  0  0  0  0  0
   -9.5426  -16.0656    0.0000 H   0  0  0  0  0  0  0  0  0  0  0  0
  -11.5184  -11.1870    0.0000 H   0  0  0  0  0  0  0  0  0  0  0  0
  -11.0709  -10.8761    0.0000 H   0  0  0  0  0  0  0  0  0  0  0  0
  -11.8261   -9.1797    0.0000 H   0  0  0  0  0  0  0  0  0  0  0  0
   -9.6632   -5.8292    0.0000 H   0  0  0  0  0  0  0  0  0  0  0  0
   -8.1639   -4.7398    0.0000 H   0  0  0  0  0  0  0  0  0  0  0  0
   -8.5991   -5.7173    0.0000 H   0  0  0  0  0  0  0  0  0  0  0  0
  1  2  1  0  0  0  0
  1 85  1  0  0  0  0
  1 86  1  0  0  0  0
  1 87  1  0  0  0  0
  2  3  1  0  0  0  0
  2  4  1  0  0  0  0
  2 88  1  0  0  0  0
  3 89  1  0  0  0  0
  3 90  1  0  0  0  0
  3 91  1  0  0  0  0
  4  5  1  0  0  0  0
  4  9  1  0  0  0  0
  5  6  1  0  0  0  0
  5  7  2  0  0  0  0
  6 92  1  0  0  0  0
  6 93  1  0  0  0  0
  6 94  1  0  0  0  0
  7  8  1  0  0  0  0
  7 81  1  0  0  0  0
  8  9  2  0  0  0  0
  8 17  1  0  0  0  0
  9 10  1  0  0  0  0
 10 11  2  0  0  0  0
 10 16  1  0  0  0  0
 11 12  1  0  0  0  0
 11 95  1  0  0  0  0
 12 13  2  0  0  0  0
 12 96  1  0  0  0  0
 13 14  1  0  0  0  0
 13 15  1  0  0  0  0
 15 16  2  0  0  0  0
 15 97  1  0  0  0  0
 16 98  1  0  0  0  0
 17 18  2  0  0  0  0
 17 23  1  0  0  0  0
 18 19  1  0  0  0  0
 18 99  1  0  0  0  0
 19 20  2  0  0  0  0
 19 24  1  0  0  0  0
 20 21  1  0  0  0  0
 20100  1  0  0  0  0
 21 22  1  0  0  0  0
 21 23  2  0  0  0  0
 23101  1  0  0  0  0
 24 25  1  0  0  0  0
 24 29  1  0  0  0  0
 25 26  1  0  0  0  0
 25102  1  0  0  0  0
 25103  1  0  0  0  0
 26 27  1  0  0  0  0
 26104  1  0  0  0  0
 26105  1  0  0  0  0
 27 28  1  0  0  0  0
 27 30  1  0  0  0  0
 28 29  1  0  0  0  0
 28106  1  0  0  0  0
 28107  1  0  0  0  0
 29108  1  0  0  0  0
 29109  1  0  0  0  0
 30 31  2  0  0  0  0
 30 80  1  0  0  0  0
 31 32  1  0  0  0  0
 31110  1  0  0  0  0
 32 33  2  0  0  0  0
 32111  1  0  0  0  0
 33 34  1  0  0  0  0
 33 79  1  0  0  0  0
 34 35  1  0  0  0  0
 34112  1  0  0  0  0
 35 36  2  0  0  0  0
 35 37  2  0  0  0  0
 35 38  1  0  0  0  0
 38 39  2  0  0  0  0
 38 71  1  0  0  0  0
 39 40  1  0  0  0  0
 39113  1  0  0  0  0
 40 41  2  0  0  0  0
 40114  1  0  0  0  0
 41 42  1  0  0  0  0
 41 70  1  0  0  0  0
 42115  1  0  0  0  0
 43 42  1  0  0  0  0
 43 44  1  0  0  0  0
 43 62  1  0  0  0  0
 43116  1  6  0  0  0
 44 45  1  0  0  0  0
 44117  1  0  0  0  0
 44118  1  0  0  0  0
 45 46  1  0  0  0  0
 45119  1  0  0  0  0
 45120  1  0  0  0  0
 46 47  1  0  0  0  0
 46 51  1  0  0  0  0
 47 48  1  0  0  0  0
 47121  1  0  0  0  0
 47122  1  0  0  0  0
 48 49  1  0  0  0  0
 48123  1  0  0  0  0
 48124  1  0  0  0  0
 49 50  1  0  0  0  0
 49 52  1  0  0  0  0
 49125  1  0  0  0  0
 50 51  1  0  0  0  0
 50126  1  0  0  0  0
 50127  1  0  0  0  0
 51128  1  0  0  0  0
 51129  1  0  0  0  0
 52 53  2  0  0  0  0
 52 54  1  0  0  0  0
 54 55  1  0  0  0  0
 55 56  1  0  0  0  0
 55130  1  0  0  0  0
 55131  1  0  0  0  0
 56 57  1  0  0  0  0
 56132  1  0  0  0  0
 56133  1  0  0  0  0
 57 58  1  0  0  0  0
 57134  1  0  0  0  0
 57135  1  0  0  0  0
 58 59  1  0  0  0  0
 58 60  1  0  0  0  0
 58 61  2  0  0  0  0
 59136  1  0  0  0  0
 60137  1  0  0  0  0
 62 63  1  0  0  0  0
 62138  1  0  0  0  0
 62139  1  0  0  0  0
 63 64  1  0  0  0  0
 64 65  2  0  0  0  0
 64 69  1  0  0  0  0
 65 66  1  0  0  0  0
 65140  1  0  0  0  0
 66 67  2  0  0  0  0
 66141  1  0  0  0  0
 67 68  1  0  0  0  0
 67142  1  0  0  0  0
 68 69  2  0  0  0  0
 68143  1  0  0  0  0
 69144  1  0  0  0  0
 70 71  2  0  0  0  0
 70 72  1  0  0  0  0
 71145  1  0  0  0  0
 72 73  2  0  0  0  0
 72 74  2  0  0  0  0
 72 75  1  0  0  0  0
 75 76  1  0  0  0  0
 75 77  1  0  0  0  0
 75 78  1  0  0  0  0
 79 80  2  0  0  0  0
 79146  1  0  0  0  0
 80147  1  0  0  0  0
 81 82  1  0  0  0  0
 81 83  2  0  0  0  0
 81 84  2  0  0  0  0
 82148  1  0  0  0  0
 82149  1  0  0  0  0
 82150  1  0  0  0  0
M  END
>  <DRUGBANK_ID>
DB16285

>  <COMMON_NAME>
Pelcitoclax

>  <CAS_NUMBER>
1619923-36-2

>  <UNII>
317UBD60ML

>  <SYNONYMS>
Pelcitoclax

$$$$
