
 OpenBabel10282417072D

 42 43  0  0  0  0  0  0  0  0999 V2000
    1.4289   -1.6500    0.0000 C   0  0  0  0  0  0  0  0  0  0  0  0
    1.4289   -2.4750    0.0000 C   0  0  0  0  0  0  0  0  0  0  0  0
    2.1434   -2.8875    0.0000 C   0  0  0  0  0  0  0  0  0  0  0  0
    2.1434   -3.7125    0.0000 C   0  0  0  0  0  0  0  0  0  0  0  0
    2.8579   -4.1250    0.0000 C   0  0  0  0  0  0  0  0  0  0  0  0
    1.4289   -4.1250    0.0000 N   0  3  0  0  0  0  0  0  0  0  0  0
    1.4289   -4.9500    0.0000 C   0  0  0  0  0  0  0  0  0  0  0  0
    2.1434   -5.3625    0.0000 C   0  0  0  0  0  0  0  0  0  0  0  0
    2.1434   -6.1875    0.0000 C   0  0  0  0  0  0  0  0  0  0  0  0
    2.8579   -6.6000    0.0000 C   0  0  0  0  0  0  0  0  0  0  0  0
    2.8579   -7.4250    0.0000 C   0  0  0  0  0  0  0  0  0  0  0  0
    2.1434   -7.8375    0.0000 C   0  0  0  0  0  0  0  0  0  0  0  0
    1.4289   -7.4250    0.0000 C   0  0  0  0  0  0  0  0  0  0  0  0
    1.4289   -6.6000    0.0000 C   0  0  0  0  0  0  0  0  0  0  0  0
    2.1434   -8.6625    0.0000 S   0  0  0  0  0  0  0  0  0  0  0  0
    2.1434   -9.4875    0.0000 N   0  0  0  0  0  0  0  0  0  0  0  0
    1.3184   -8.6625    0.0000 O   0  0  0  0  0  0  0  0  0  0  0  0
    2.9684   -8.6625    0.0000 O   0  0  0  0  0  0  0  0  0  0  0  0
    0.7145   -3.7125    0.0000 C   0  0  0  0  0  0  0  0  0  0  0  0
    0.0000   -4.1250    0.0000 C   0  0  0  0  0  0  0  0  0  0  0  0
    0.7145   -2.8875    0.0000 C   0  0  0  0  0  0  0  0  0  0  0  0
    2.3555   -1.1150    0.0000 H   0  0  0  0  0  0  0  0  0  0  0  0
    0.5023   -1.1150    0.0000 H   0  0  0  0  0  0  0  0  0  0  0  0
    1.4289   -0.5800    0.0000 H   0  0  0  0  0  0  0  0  0  0  0  0
    3.0371   -2.3715    0.0000 H   0  0  0  0  0  0  0  0  0  0  0  0
    2.8579   -5.1950    0.0000 H   0  0  0  0  0  0  0  0  0  0  0  0
    3.7845   -3.5900    0.0000 H   0  0  0  0  0  0  0  0  0  0  0  0
    3.7846   -4.6600    0.0000 H   0  0  0  0  0  0  0  0  0  0  0  0
    0.5023   -5.4850    0.0000 H   0  0  0  0  0  0  0  0  0  0  0  0
    1.4289   -6.0200    0.0000 H   0  0  0  0  0  0  0  0  0  0  0  0
    3.0700   -4.8275    0.0000 H   0  0  0  0  0  0  0  0  0  0  0  0
    3.0700   -5.8975    0.0000 H   0  0  0  0  0  0  0  0  0  0  0  0
    3.7516   -6.0840    0.0000 H   0  0  0  0  0  0  0  0  0  0  0  0
    3.7516   -7.9410    0.0000 H   0  0  0  0  0  0  0  0  0  0  0  0
    0.5352   -7.9410    0.0000 H   0  0  0  0  0  0  0  0  0  0  0  0
    0.5352   -6.0840    0.0000 H   0  0  0  0  0  0  0  0  0  0  0  0
    1.2601   -9.9975    0.0000 H   0  0  0  0  0  0  0  0  0  0  0  0
    3.0267   -9.9975    0.0000 H   0  0  0  0  0  0  0  0  0  0  0  0
   -0.9266   -3.5900    0.0000 H   0  0  0  0  0  0  0  0  0  0  0  0
   -0.0000   -5.1950    0.0000 H   0  0  0  0  0  0  0  0  0  0  0  0
   -0.9267   -4.6600    0.0000 H   0  0  0  0  0  0  0  0  0  0  0  0
   -0.1792   -2.3715    0.0000 H   0  0  0  0  0  0  0  0  0  0  0  0
  1  2  1  0  0  0  0
  1 22  1  0  0  0  0
  1 23  1  0  0  0  0
  1 24  1  0  0  0  0
  2  3  2  0  0  0  0
  2 21  1  0  0  0  0
  3  4  1  0  0  0  0
  3 25  1  0  0  0  0
  4  5  1  0  0  0  0
  4  6  2  0  0  0  0
  5 26  1  0  0  0  0
  5 27  1  0  0  0  0
  5 28  1  0  0  0  0
  6  7  1  0  0  0  0
  6 19  1  0  0  0  0
  7  8  1  0  0  0  0
  7 29  1  0  0  0  0
  7 30  1  0  0  0  0
  8  9  1  0  0  0  0
  8 31  1  0  0  0  0
  8 32  1  0  0  0  0
  9 10  2  0  0  0  0
  9 14  1  0  0  0  0
 10 11  1  0  0  0  0
 10 33  1  0  0  0  0
 11 12  2  0  0  0  0
 11 34  1  0  0  0  0
 12 13  1  0  0  0  0
 12 15  1  0  0  0  0
 13 14  2  0  0  0  0
 13 35  1  0  0  0  0
 14 36  1  0  0  0  0
 15 16  1  0  0  0  0
 15 17  2  0  0  0  0
 15 18  2  0  0  0  0
 16 37  1  0  0  0  0
 16 38  1  0  0  0  0
 19 20  1  0  0  0  0
 19 21  2  0  0  0  0
 20 39  1  0  0  0  0
 20 40  1  0  0  0  0
 20 41  1  0  0  0  0
 21 42  1  0  0  0  0
M  CHG  1   6   1
M  END
>  <DRUGBANK_ID>
DB04763

>  <COMMON_NAME>
1-N-(4-SULFAMOYLPHENYL-ETHYL)-2,4,6-TRIMETHYLPYRIDINIUM

$$$$
