
 OpenBabel10282417072D

 14 14  0  0  0  0  0  0  0  0999 V2000
   16.7886  -10.1525    0.0000 O   0  0  0  0  0  0  0  0  0  0  0  0
   16.7886   -6.8525    0.0000 O   0  0  0  0  0  0  0  0  0  0  0  0
   16.7886   -9.3275    0.0000 C   0  0  0  0  0  0  0  0  0  0  0  0
   16.7886   -7.6775    0.0000 C   0  0  0  0  0  0  0  0  0  0  0  0
   17.5032   -8.9150    0.0000 C   0  0  0  0  0  0  0  0  0  0  0  0
   17.5032   -8.0900    0.0000 C   0  0  0  0  0  0  0  0  0  0  0  0
   16.0742   -8.9150    0.0000 C   0  0  0  0  0  0  0  0  0  0  0  0
   16.0742   -8.0900    0.0000 C   0  0  0  0  0  0  0  0  0  0  0  0
   15.9771  -10.6210    0.0000 H   0  0  0  0  0  0  0  0  0  0  0  0
   17.6001   -6.3840    0.0000 H   0  0  0  0  0  0  0  0  0  0  0  0
   18.3969   -9.4310    0.0000 H   0  0  0  0  0  0  0  0  0  0  0  0
   18.3969   -7.5740    0.0000 H   0  0  0  0  0  0  0  0  0  0  0  0
   15.1805   -9.4310    0.0000 H   0  0  0  0  0  0  0  0  0  0  0  0
   15.1805   -7.5740    0.0000 H   0  0  0  0  0  0  0  0  0  0  0  0
  1  3  1  0  0  0  0
  1  9  1  0  0  0  0
  2  4  1  0  0  0  0
  2 10  1  0  0  0  0
  3  5  1  0  0  0  0
  3  7  2  0  0  0  0
  4  6  1  0  0  0  0
  4  8  2  0  0  0  0
  5  6  2  0  0  0  0
  5 11  1  0  0  0  0
  6 12  1  0  0  0  0
  7  8  1  0  0  0  0
  7 13  1  0  0  0  0
  8 14  1  0  0  0  0
M  END
>  <DRUGBANK_ID>
DB09526

>  <COMMON_NAME>
Hydroquinone

>  <CAS_NUMBER>
123-31-9

>  <UNII>
XV74C1N1AE

>  <SYNONYMS>
1,4-benzenediol; 1,4-dihydroxybenzene; 4-Hydroxyphenol; benzene-1,4-diol; Hydroquinone; p-Benzenediol; p-Hydroquinone; p-hydroxyphenol; Quinol

$$$$
