FIL
 OpenBabel10282417072D

 41 42  0  0  0  0  0  0  0  0999 V2000
   -4.3570    0.1969    0.0000 O   0  0  0  0  0  0  0  0  0  0  0  0
   -3.6426    0.6094    0.0000 C   0  0  0  0  0  0  0  0  0  0  0  0
   -3.6426    1.4344    0.0000 N   0  0  0  0  0  0  0  0  0  0  0  0
   -2.9281    0.1969    0.0000 O   0  0  0  0  0  0  0  0  0  0  0  0
   -2.2136    0.6094    0.0000 N   0  0  0  0  0  0  0  0  0  0  0  0
   -1.4991    0.1969    0.0000 C   0  0  0  0  0  0  0  0  0  0  0  0
   -1.4991   -0.6281    0.0000 C   0  0  0  0  0  0  0  0  0  0  0  0
   -0.7847    0.6094    0.0000 C   0  0  0  0  0  0  0  0  0  0  0  0
   -0.7847    1.4344    0.0000 C   0  0  0  0  0  0  0  0  0  0  0  0
   -0.0702    1.8469    0.0000 C   0  0  0  0  0  0  0  0  0  0  0  0
    0.6443    1.4344    0.0000 C   0  0  0  0  0  0  0  0  0  0  0  0
    1.3587    1.8469    0.0000 O   0  0  0  0  0  0  0  0  0  0  0  0
    2.0732    1.4344    0.0000 C   0  0  0  0  0  0  0  0  0  0  0  0
    0.6443    0.6094    0.0000 C   0  0  0  0  0  0  0  0  0  0  0  0
   -0.0702    0.1969    0.0000 C   0  0  0  0  0  0  0  0  0  0  0  0
    1.3587    0.1969    0.0000 O   0  0  0  0  0  0  0  0  0  0  0  0
    1.3587   -0.6281    0.0000 C   0  0  0  0  0  0  0  0  0  0  0  0
    2.0262   -1.1130    0.0000 C   0  0  0  0  0  0  0  0  0  0  0  0
    1.7712   -1.8976    0.0000 C   0  0  0  0  0  0  0  0  0  0  0  0
    0.9462   -1.8976    0.0000 C   0  0  0  0  0  0  0  0  0  0  0  0
    0.6913   -1.1130    0.0000 C   0  0  0  0  0  0  0  0  0  0  0  0
   -2.7900    1.9266    0.0000 H   0  0  0  0  0  0  0  0  0  0  0  0
   -4.4952    1.9266    0.0000 H   0  0  0  0  0  0  0  0  0  0  0  0
   -2.4257   -1.1631    0.0000 H   0  0  0  0  0  0  0  0  0  0  0  0
   -0.5725   -1.1631    0.0000 H   0  0  0  0  0  0  0  0  0  0  0  0
   -1.4991   -1.6981    0.0000 H   0  0  0  0  0  0  0  0  0  0  0  0
   -1.6784    1.9504    0.0000 H   0  0  0  0  0  0  0  0  0  0  0  0
   -0.0702    2.8789    0.0000 H   0  0  0  0  0  0  0  0  0  0  0  0
    2.0732    0.3644    0.0000 H   0  0  0  0  0  0  0  0  0  0  0  0
    2.9998    1.9694    0.0000 H   0  0  0  0  0  0  0  0  0  0  0  0
    2.9999    0.8994    0.0000 H   0  0  0  0  0  0  0  0  0  0  0  0
   -0.0702   -0.8351    0.0000 H   0  0  0  0  0  0  0  0  0  0  0  0
    1.3587   -1.6981    0.0000 H   0  0  0  0  0  0  0  0  0  0  0  0
    3.0438   -0.7824    0.0000 H   0  0  0  0  0  0  0  0  0  0  0  0
    2.7828   -1.8696    0.0000 H   0  0  0  0  0  0  0  0  0  0  0  0
    2.4001   -2.7633    0.0000 H   0  0  0  0  0  0  0  0  0  0  0  0
    1.2854   -2.8510    0.0000 H   0  0  0  0  0  0  0  0  0  0  0  0
    0.3173   -2.7632    0.0000 H   0  0  0  0  0  0  0  0  0  0  0  0
   -0.1106   -1.7302    0.0000 H   0  0  0  0  0  0  0  0  0  0  0  0
   -0.3263   -0.7823    0.0000 H   0  0  0  0  0  0  0  0  0  0  0  0
   -0.0653   -1.8696    0.0000 H   0  0  0  0  0  0  0  0  0  0  0  0
  1  2  2  0  0  0  0
  2  3  1  0  0  0  0
  2  4  1  0  0  0  0
  3 22  1  0  0  0  0
  3 23  1  0  0  0  0
  4  5  1  0  0  0  0
  5  6  2  0  0  0  0
  6  7  1  0  0  0  0
  6  8  1  0  0  0  0
  7 24  1  0  0  0  0
  7 25  1  0  0  0  0
  7 26  1  0  0  0  0
  8  9  2  0  0  0  0
  8 15  1  0  0  0  0
  9 10  1  0  0  0  0
  9 27  1  0  0  0  0
 10 11  2  0  0  0  0
 10 28  1  0  0  0  0
 11 12  1  0  0  0  0
 11 14  1  0  0  0  0
 12 13  1  0  0  0  0
 13 29  1  0  0  0  0
 13 30  1  0  0  0  0
 13 31  1  0  0  0  0
 14 15  2  0  0  0  0
 14 16  1  0  0  0  0
 15 32  1  0  0  0  0
 16 17  1  0  0  0  0
 17 18  1  0  0  0  0
 17 21  1  0  0  0  0
 17 33  1  0  0  0  0
 18 19  1  0  0  0  0
 18 34  1  0  0  0  0
 18 35  1  0  0  0  0
 19 20  1  0  0  0  0
 19 36  1  0  0  0  0
 19 37  1  0  0  0  0
 20 21  1  0  0  0  0
 20 38  1  0  0  0  0
 20 39  1  0  0  0  0
 21 40  1  0  0  0  0
 21 41  1  0  0  0  0
M  END
>  <DRUGBANK_ID>
DB02660

>  <SECONDARY_ACCESSION_NUMBERS>
EXPT01434

>  <COMMON_NAME>
Filaminast

>  <CAS_NUMBER>
141184-34-1

>  <UNII>
CDD69JC61J

>  <SYNONYMS>
Filaminast

$$$$
