
 OpenBabel10282417072D

 19 18  0  0  0  0  0  0  0  0999 V2000
   -1.0801    0.2152    0.0000 C   0  0  0  0  0  0  0  0  0  0  0  0
   -0.3686   -0.2178    0.0000 C   0  0  0  0  0  0  0  0  0  0  0  0
   -1.0801    1.0376    0.0000 O   0  0  0  0  0  0  0  0  0  0  0  0
   -0.3686   -1.0376    0.0000 O   0  0  0  0  0  0  0  0  0  0  0  0
    0.3351    0.1946    0.0000 C   0  0  2  0  0  0  0  0  0  0  0  0
   -1.7865   -0.1946    0.0000 O   0  0  0  0  0  0  0  0  0  0  0  0
    1.0466   -0.2101    0.0000 C   0  0  0  0  0  0  0  0  0  0  0  0
    0.3351    1.0196    0.0000 C   0  0  0  0  0  0  0  0  0  0  0  0
    1.7865    0.1765    0.0000 C   0  0  0  0  0  0  0  0  0  0  0  0
   -0.5933    0.7266    0.0000 H   0  0  0  0  0  0  0  0  0  0  0  0
   -2.5989    0.2722    0.0000 H   0  0  0  0  0  0  0  0  0  0  0  0
    1.0275   -1.2799    0.0000 H   0  0  0  0  0  0  0  0  0  0  0  0
    1.9568   -0.7726    0.0000 H   0  0  0  0  0  0  0  0  0  0  0  0
    1.2617    1.5546    0.0000 H   0  0  0  0  0  0  0  0  0  0  0  0
   -0.5915    1.5546    0.0000 H   0  0  0  0  0  0  0  0  0  0  0  0
    0.3351    2.0896    0.0000 H   0  0  0  0  0  0  0  0  0  0  0  0
    2.6898   -0.3970    0.0000 H   0  0  0  0  0  0  0  0  0  0  0  0
    1.8315    1.2456    0.0000 H   0  0  0  0  0  0  0  0  0  0  0  0
    2.7348    0.6720    0.0000 H   0  0  0  0  0  0  0  0  0  0  0  0
  2  1  1  0  0  0  0
  3  1  2  0  0  0  0
  4  2  2  0  0  0  0
  5  2  1  0  0  0  0
  5  8  1  0  0  0  0
  5 10  1  6  0  0  0
  6  1  1  0  0  0  0
  6 11  1  0  0  0  0
  7  5  1  0  0  0  0
  7 12  1  0  0  0  0
  7 13  1  0  0  0  0
  8 14  1  0  0  0  0
  8 15  1  0  0  0  0
  8 16  1  0  0  0  0
  9  7  1  0  0  0  0
  9 17  1  0  0  0  0
  9 18  1  0  0  0  0
  9 19  1  0  0  0  0
M  END
>  <DRUGBANK_ID>
DB15833

>  <COMMON_NAME>
alpha-Keto-isoleucine

>  <CAS_NUMBER>
24809-08-3

>  <UNII>
XQL9PAO004

>  <SYNONYMS>
L-2-Keto-3-methylvalerate

$$$$
