IHZ
 OpenBabel10282417072D

 47 49  0  0  0  0  0  0  0  0999 V2000
   -3.1818    3.2417    0.0000 F   0  0  0  0  0  0  0  0  0  0  0  0
   -3.1818    2.4167    0.0000 C   0  0  0  0  0  0  0  0  0  0  0  0
   -4.0068    2.4167    0.0000 F   0  0  0  0  0  0  0  0  0  0  0  0
   -2.3568    2.4167    0.0000 F   0  0  0  0  0  0  0  0  0  0  0  0
   -3.1818    1.5917    0.0000 C   0  0  0  0  0  0  0  0  0  0  0  0
   -2.4673    1.1792    0.0000 C   0  0  0  0  0  0  0  0  0  0  0  0
   -3.8963    1.1792    0.0000 C   0  0  0  0  0  0  0  0  0  0  0  0
   -3.8963    0.3542    0.0000 C   0  0  0  0  0  0  0  0  0  0  0  0
   -3.1818   -0.0583    0.0000 C   0  0  0  0  0  0  0  0  0  0  0  0
   -2.4673    0.3542    0.0000 C   0  0  0  0  0  0  0  0  0  0  0  0
   -1.7529   -0.0583    0.0000 N   0  0  0  0  0  0  0  0  0  0  0  0
   -1.0384    0.3542    0.0000 C   0  0  0  0  0  0  0  0  0  0  0  0
   -1.0384    1.1792    0.0000 O   0  0  0  0  0  0  0  0  0  0  0  0
   -0.3239   -0.0583    0.0000 C   0  0  0  0  0  0  0  0  0  0  0  0
    0.3906    0.3542    0.0000 C   0  0  0  0  0  0  0  0  0  0  0  0
   -0.3239   -0.8833    0.0000 C   0  0  0  0  0  0  0  0  0  0  0  0
    0.3906   -1.2958    0.0000 C   0  0  0  0  0  0  0  0  0  0  0  0
    1.1050   -0.8833    0.0000 C   0  0  0  0  0  0  0  0  0  0  0  0
    1.8195   -1.2958    0.0000 C   0  0  0  0  0  0  0  0  0  0  0  0
    1.1050   -0.0583    0.0000 C   0  0  0  0  0  0  0  0  0  0  0  0
    1.8195    0.3542    0.0000 N   0  0  0  0  0  0  0  0  0  0  0  0
    2.5340   -0.0583    0.0000 C   0  0  0  0  0  0  0  0  0  0  0  0
    3.2484    0.3542    0.0000 C   0  0  0  0  0  0  0  0  0  0  0  0
    2.5340   -0.8833    0.0000 C   0  0  0  0  0  0  0  0  0  0  0  0
    3.2484   -1.2958    0.0000 N   0  0  0  0  0  0  0  0  0  0  0  0
    3.9629   -0.8833    0.0000 C   0  0  0  0  0  0  0  0  0  0  0  0
    3.9629   -0.0583    0.0000 C   0  0  0  0  0  0  0  0  0  0  0  0
    4.6774    0.3542    0.0000 C   0  0  0  0  0  0  0  0  0  0  0  0
    4.6774    1.1792    0.0000 O   0  0  0  0  0  0  0  0  0  0  0  0
    5.3919   -0.0583    0.0000 N   0  0  0  0  0  0  0  0  0  0  0  0
   -1.5736    1.6952    0.0000 H   0  0  0  0  0  0  0  0  0  0  0  0
   -4.7900    1.6952    0.0000 H   0  0  0  0  0  0  0  0  0  0  0  0
   -4.7900   -0.1618    0.0000 H   0  0  0  0  0  0  0  0  0  0  0  0
   -3.1818   -1.0903    0.0000 H   0  0  0  0  0  0  0  0  0  0  0  0
   -1.7529   -1.0428    0.0000 H   0  0  0  0  0  0  0  0  0  0  0  0
    0.3906    1.3862    0.0000 H   0  0  0  0  0  0  0  0  0  0  0  0
   -1.2176   -1.3993    0.0000 H   0  0  0  0  0  0  0  0  0  0  0  0
    0.3906   -2.3278    0.0000 H   0  0  0  0  0  0  0  0  0  0  0  0
    1.8195   -2.3658    0.0000 H   0  0  0  0  0  0  0  0  0  0  0  0
    2.7461   -0.7608    0.0000 H   0  0  0  0  0  0  0  0  0  0  0  0
    2.7462   -1.8308    0.0000 H   0  0  0  0  0  0  0  0  0  0  0  0
    1.8195    1.3387    0.0000 H   0  0  0  0  0  0  0  0  0  0  0  0
    3.2484    1.3862    0.0000 H   0  0  0  0  0  0  0  0  0  0  0  0
    1.6403   -1.3993    0.0000 H   0  0  0  0  0  0  0  0  0  0  0  0
    4.8566   -1.3993    0.0000 H   0  0  0  0  0  0  0  0  0  0  0  0
    5.3919   -1.0428    0.0000 H   0  0  0  0  0  0  0  0  0  0  0  0
    6.2445    0.4340    0.0000 H   0  0  0  0  0  0  0  0  0  0  0  0
  1  2  1  0  0  0  0
  2  3  1  0  0  0  0
  2  4  1  0  0  0  0
  2  5  1  0  0  0  0
  5  6  2  0  0  0  0
  5  7  1  0  0  0  0
  6 10  1  0  0  0  0
  6 31  1  0  0  0  0
  7  8  2  0  0  0  0
  7 32  1  0  0  0  0
  8  9  1  0  0  0  0
  8 33  1  0  0  0  0
  9 10  2  0  0  0  0
  9 34  1  0  0  0  0
 10 11  1  0  0  0  0
 11 12  1  0  0  0  0
 11 35  1  0  0  0  0
 12 13  2  0  0  0  0
 12 14  1  0  0  0  0
 14 15  2  0  0  0  0
 14 16  1  0  0  0  0
 15 20  1  0  0  0  0
 15 36  1  0  0  0  0
 16 17  2  0  0  0  0
 16 37  1  0  0  0  0
 17 18  1  0  0  0  0
 17 38  1  0  0  0  0
 18 19  1  0  0  0  0
 18 20  2  0  0  0  0
 19 39  1  0  0  0  0
 19 40  1  0  0  0  0
 19 41  1  0  0  0  0
 20 21  1  0  0  0  0
 21 22  1  0  0  0  0
 21 42  1  0  0  0  0
 22 23  2  0  0  0  0
 22 24  1  0  0  0  0
 23 27  1  0  0  0  0
 23 43  1  0  0  0  0
 24 25  2  0  0  0  0
 24 44  1  0  0  0  0
 25 26  1  0  0  0  0
 26 27  2  0  0  0  0
 26 45  1  0  0  0  0
 27 28  1  0  0  0  0
 28 29  2  0  0  0  0
 28 30  1  0  0  0  0
 30 46  1  0  0  0  0
 30 47  1  0  0  0  0
M  END
>  <DRUGBANK_ID>
DB07970

>  <COMMON_NAME>
5-[(2-methyl-5-{[3-(trifluoromethyl)phenyl]carbamoyl}phenyl)amino]pyridine-3-carboxamide

$$$$
