W42
 OpenBabel10282417072D

 57 59  0  0  0  0  0  0  0  0999 V2000
   -6.6881    3.8164    0.0000 O   0  0  0  0  0  0  0  0  0  0  0  0
   -6.3525    3.0627    0.0000 C   0  0  0  0  0  0  0  0  0  0  0  0
   -5.5320    2.9765    0.0000 C   0  0  0  0  0  0  0  0  0  0  0  0
   -5.1965    2.2228    0.0000 O   0  0  0  0  0  0  0  0  0  0  0  0
   -4.3760    2.1366    0.0000 C   0  0  0  0  0  0  0  0  0  0  0  0
   -4.0404    1.3829    0.0000 O   0  0  0  0  0  0  0  0  0  0  0  0
   -2.7448   -0.7846    0.0000 O   0  0  0  0  0  0  0  0  0  0  0  0
   -3.2969   -0.1715    0.0000 N   0  0  0  0  0  0  0  0  0  0  0  0
   -2.8844    0.5430    0.0000 C   0  0  0  0  0  0  0  0  0  0  0  0
   -3.2199    1.2967    0.0000 C   0  0  0  0  0  0  0  0  0  0  0  0
   -2.0774    0.3715    0.0000 C   0  0  0  0  0  0  0  0  0  0  0  0
   -1.9912   -0.4490    0.0000 C   0  0  0  0  0  0  0  0  0  0  0  0
   -1.2767   -0.8615    0.0000 C   0  0  0  0  0  0  0  0  0  0  0  0
   -0.5622   -0.4490    0.0000 C   0  0  0  0  0  0  0  0  0  0  0  0
    0.1522   -0.8615    0.0000 C   0  0  0  0  0  0  0  0  0  0  0  0
    0.8667   -0.4490    0.0000 C   0  0  0  0  0  0  0  0  0  0  0  0
    1.5812   -0.8615    0.0000 C   0  0  0  0  0  0  0  0  0  0  0  0
    2.2957   -0.4490    0.0000 O   0  0  0  0  0  0  0  0  0  0  0  0
    3.0101   -0.8615    0.0000 C   0  0  0  0  0  0  0  0  0  0  0  0
    3.7246   -0.4490    0.0000 C   0  0  0  0  0  0  0  0  0  0  0  0
    4.4391   -0.8615    0.0000 C   0  0  0  0  0  0  0  0  0  0  0  0
    4.4391   -1.6865    0.0000 C   0  0  0  0  0  0  0  0  0  0  0  0
    3.7246   -2.0990    0.0000 C   0  0  0  0  0  0  0  0  0  0  0  0
    3.0101   -1.6865    0.0000 C   0  0  0  0  0  0  0  0  0  0  0  0
    2.2957   -2.0990    0.0000 Cl  0  0  0  0  0  0  0  0  0  0  0  0
    3.7246    0.3760    0.0000 Cl  0  0  0  0  0  0  0  0  0  0  0  0
    5.1535   -2.0990    0.0000 C   0  0  0  0  0  0  0  0  0  0  0  0
    5.9072   -1.7634    0.0000 N   0  0  0  0  0  0  0  0  0  0  0  0
    6.4592   -2.3765    0.0000 C   0  0  0  0  0  0  0  0  0  0  0  0
    6.0467   -3.0910    0.0000 C   0  0  0  0  0  0  0  0  0  0  0  0
    5.2398   -2.9195    0.0000 O   0  0  0  0  0  0  0  0  0  0  0  0
   -6.1180    4.6012    0.0000 H   0  0  0  0  0  0  0  0  0  0  0  0
   -6.9814    2.1970    0.0000 H   0  0  0  0  0  0  0  0  0  0  0  0
   -5.9172    2.0852    0.0000 H   0  0  0  0  0  0  0  0  0  0  0  0
   -4.9031    3.8421    0.0000 H   0  0  0  0  0  0  0  0  0  0  0  0
   -4.4679    2.8646    0.0000 H   0  0  0  0  0  0  0  0  0  0  0  0
   -3.7471    3.0023    0.0000 H   0  0  0  0  0  0  0  0  0  0  0  0
   -3.3119    2.0248    0.0000 H   0  0  0  0  0  0  0  0  0  0  0  0
   -2.5910    2.1623    0.0000 H   0  0  0  0  0  0  0  0  0  0  0  0
   -2.1558    1.1848    0.0000 H   0  0  0  0  0  0  0  0  0  0  0  0
   -1.3105    1.0620    0.0000 H   0  0  0  0  0  0  0  0  0  0  0  0
   -1.2767   -1.9315    0.0000 H   0  0  0  0  0  0  0  0  0  0  0  0
   -0.3501   -1.3965    0.0000 H   0  0  0  0  0  0  0  0  0  0  0  0
   -0.5622    0.6210    0.0000 H   0  0  0  0  0  0  0  0  0  0  0  0
    0.3645    0.0860    0.0000 H   0  0  0  0  0  0  0  0  0  0  0  0
    0.1522   -1.9315    0.0000 H   0  0  0  0  0  0  0  0  0  0  0  0
    1.0788   -1.3965    0.0000 H   0  0  0  0  0  0  0  0  0  0  0  0
    0.8667    0.6210    0.0000 H   0  0  0  0  0  0  0  0  0  0  0  0
    1.7933    0.0860    0.0000 H   0  0  0  0  0  0  0  0  0  0  0  0
    1.5812   -1.9315    0.0000 H   0  0  0  0  0  0  0  0  0  0  0  0
    2.5078   -1.3965    0.0000 H   0  0  0  0  0  0  0  0  0  0  0  0
    5.3328   -0.3455    0.0000 H   0  0  0  0  0  0  0  0  0  0  0  0
    3.7246   -3.1310    0.0000 H   0  0  0  0  0  0  0  0  0  0  0  0
    7.5233   -2.2647    0.0000 H   0  0  0  0  0  0  0  0  0  0  0  0
    7.0420   -3.2739    0.0000 H   0  0  0  0  0  0  0  0  0  0  0  0
    6.4819   -4.0685    0.0000 H   0  0  0  0  0  0  0  0  0  0  0  0
    5.3733   -3.9226    0.0000 H   0  0  0  0  0  0  0  0  0  0  0  0
  1  2  1  0  0  0  0
  1 32  1  0  0  0  0
  2  3  1  0  0  0  0
  2 33  1  0  0  0  0
  2 34  1  0  0  0  0
  3  4  1  0  0  0  0
  3 35  1  0  0  0  0
  3 36  1  0  0  0  0
  4  5  1  0  0  0  0
  5  6  1  0  0  0  0
  5 37  1  0  0  0  0
  5 38  1  0  0  0  0
  6 10  1  0  0  0  0
  7  8  1  0  0  0  0
  7 12  1  0  0  0  0
  8  9  2  0  0  0  0
  9 10  1  0  0  0  0
  9 11  1  0  0  0  0
 10 39  1  0  0  0  0
 10 40  1  0  0  0  0
 11 12  2  0  0  0  0
 11 41  1  0  0  0  0
 12 13  1  0  0  0  0
 13 14  1  0  0  0  0
 13 42  1  0  0  0  0
 13 43  1  0  0  0  0
 14 15  1  0  0  0  0
 14 44  1  0  0  0  0
 14 45  1  0  0  0  0
 15 16  1  0  0  0  0
 15 46  1  0  0  0  0
 15 47  1  0  0  0  0
 16 17  1  0  0  0  0
 16 48  1  0  0  0  0
 16 49  1  0  0  0  0
 17 18  1  0  0  0  0
 17 50  1  0  0  0  0
 17 51  1  0  0  0  0
 18 19  1  0  0  0  0
 19 20  2  0  0  0  0
 19 24  1  0  0  0  0
 20 21  1  0  0  0  0
 20 26  1  0  0  0  0
 21 22  2  0  0  0  0
 21 52  1  0  0  0  0
 22 23  1  0  0  0  0
 22 27  1  0  0  0  0
 23 24  2  0  0  0  0
 23 53  1  0  0  0  0
 24 25  1  0  0  0  0
 27 28  2  0  0  0  0
 27 31  1  0  0  0  0
 28 29  1  0  0  0  0
 29 30  1  0  0  0  0
 29 54  1  0  0  0  0
 29 55  1  0  0  0  0
 30 31  1  0  0  0  0
 30 56  1  0  0  0  0
 30 57  1  0  0  0  0
M  END
>  <DRUGBANK_ID>
DB08721

>  <COMMON_NAME>
5-(5-(2,6-dichloro-4-(4,5-dihydro-2-oxazolyl)phenoxy)pentyl)-3-(hydroxyethyl oxymethyleneoxymethyl) isoxazole

$$$$
