
 OpenBabel10282417072D

 35 31  0  0  0  0  0  0  0  0999 V2000
    0.2062    0.3572    0.0000 C   0  0  0  0  0  0  0  0  0  0  0  0
   -0.2062   -0.3572    0.0000 C   0  0  0  0  0  0  0  0  0  0  0  0
    1.4437    1.0717    0.0000 C   0  0  0  0  0  0  0  0  0  0  0  0
    1.4437   -0.3572    0.0000 C   0  0  0  0  0  0  0  0  0  0  0  0
   -1.4437   -1.0717    0.0000 C   0  0  0  0  0  0  0  0  0  0  0  0
   -1.4437    0.3572    0.0000 C   0  0  0  0  0  0  0  0  0  0  0  0
    1.0312    1.7861    0.0000 C   0  0  0  0  0  0  0  0  0  0  0  0
    2.2687   -0.3572    0.0000 C   0  0  0  0  0  0  0  0  0  0  0  0
   -2.2687   -1.0717    0.0000 C   0  0  0  0  0  0  0  0  0  0  0  0
   -1.0312    1.0717    0.0000 C   0  0  0  0  0  0  0  0  0  0  0  0
    1.0312    0.3572    0.0000 N   0  0  0  0  0  0  0  0  0  0  0  0
   -1.0312   -0.3572    0.0000 N   0  0  0  0  0  0  0  0  0  0  0  0
    1.4437    2.5006    0.0000 O   0  0  0  0  0  0  0  0  0  0  0  0
    0.2062    1.7861    0.0000 O   0  5  0  0  0  0  0  0  0  0  0  0
    2.6812    0.3572    0.0000 O   0  0  0  0  0  0  0  0  0  0  0  0
    2.6812   -1.0717    0.0000 O   0  5  0  0  0  0  0  0  0  0  0  0
   -2.6812   -0.3572    0.0000 O   0  0  0  0  0  0  0  0  0  0  0  0
   -2.6812   -1.7861    0.0000 O   0  5  0  0  0  0  0  0  0  0  0  0
   -1.4437    1.7861    0.0000 O   0  0  0  0  0  0  0  0  0  0  0  0
   -0.2062    1.0717    0.0000 O   0  5  0  0  0  0  0  0  0  0  0  0
   -0.6187    1.7861    0.0000 Cu  0  2  0  0  0  0  0  0  0  0  0  0
    3.0937   -1.7861    0.0000 Na  0  3  0  0  0  0  0  0  0  0  0  0
   -3.0937   -2.5006    0.0000 Na  0  3  0  0  0  0  0  0  0  0  0  0
   -0.3288    1.2838    0.0000 H   0  0  0  0  0  0  0  0  0  0  0  0
    0.7412    1.2839    0.0000 H   0  0  0  0  0  0  0  0  0  0  0  0
    0.3288   -1.2838    0.0000 H   0  0  0  0  0  0  0  0  0  0  0  0
   -0.7412   -1.2839    0.0000 H   0  0  0  0  0  0  0  0  0  0  0  0
    2.5137    1.0717    0.0000 H   0  0  0  0  0  0  0  0  0  0  0  0
    1.9787    0.1451    0.0000 H   0  0  0  0  0  0  0  0  0  0  0  0
    0.9087   -1.2839    0.0000 H   0  0  0  0  0  0  0  0  0  0  0  0
    0.3737   -0.3572    0.0000 H   0  0  0  0  0  0  0  0  0  0  0  0
   -0.9087   -1.9983    0.0000 H   0  0  0  0  0  0  0  0  0  0  0  0
   -0.3737   -1.0717    0.0000 H   0  0  0  0  0  0  0  0  0  0  0  0
   -2.5137    0.3572    0.0000 H   0  0  0  0  0  0  0  0  0  0  0  0
   -1.9787   -0.5695    0.0000 H   0  0  0  0  0  0  0  0  0  0  0  0
  1 24  1  0  0  0  0
  1 25  1  0  0  0  0
  2  1  1  0  0  0  0
  2 26  1  0  0  0  0
  2 27  1  0  0  0  0
  3 28  1  0  0  0  0
  3 29  1  0  0  0  0
  4 30  1  0  0  0  0
  4 31  1  0  0  0  0
  5 32  1  0  0  0  0
  5 33  1  0  0  0  0
  6 34  1  0  0  0  0
  6 35  1  0  0  0  0
  7  3  1  0  0  0  0
  8  4  1  0  0  0  0
  9  5  1  0  0  0  0
 10  6  1  0  0  0  0
 11  1  1  0  0  0  0
 11  3  1  0  0  0  0
 11  4  1  0  0  0  0
 12  2  1  0  0  0  0
 12  5  1  0  0  0  0
 12  6  1  0  0  0  0
 13  7  2  0  0  0  0
 14  7  1  0  0  0  0
 15  8  2  0  0  0  0
 16  8  1  0  0  0  0
 17  9  2  0  0  0  0
 18  9  1  0  0  0  0
 19 10  2  0  0  0  0
 20 10  1  0  0  0  0
M  CHG  7  14  -1  16  -1  18  -1  20  -1  21   2  22   1  23   1
M  END
>  <DRUGBANK_ID>
DB14599

>  <SECONDARY_ACCESSION_NUMBERS>
DBSALT001713

>  <COMMON_NAME>
Edetate copper disodium

>  <CAS_NUMBER>
14025-15-1

>  <UNII>
6V475AX06U

>  <SYNONYMS>
Copper disodium edetate; Copper disodium ethylenediaminetetraacetate; Copper versenate; EDTA copper disodium salt

$$$$
