
 OpenBabel10282417072D

 17 16  0  0  1  0  0  0  0  0999 V2000
    0.5230    1.1270    0.0000 C   0  0  0  0  0  0  0  0  0  0  0  0
    1.2375    0.7145    0.0000 C   0  0  2  0  0  0  0  0  0  0  0  0
    1.9520    1.1270    0.0000 C   0  0  0  0  0  0  0  0  0  0  0  0
    2.6664    0.7145    0.0000 P   0  0  3  0  0  0  0  0  0  0  0  0
    3.3809    1.1270    0.0000 O   0  0  0  0  0  0  0  0  0  0  0  0
    2.6664   -0.1105    0.0000 O   0  0  0  0  0  0  0  0  0  0  0  0
    1.2375   -0.1105    0.0000 F   0  0  0  0  0  0  0  0  0  0  0  0
   -0.1914    0.7145    0.0000 N   0  0  0  0  0  0  0  0  0  0  0  0
    0.5230    2.1970    0.0000 H   0  0  0  0  0  0  0  0  0  0  0  0
   -0.4037    1.6620    0.0000 H   0  0  0  0  0  0  0  0  0  0  0  0
    0.3109    0.1795    0.0000 H   0  0  0  0  0  0  0  0  0  0  0  0
    1.9520    2.1970    0.0000 H   0  0  0  0  0  0  0  0  0  0  0  0
    2.8787    1.6620    0.0000 H   0  0  0  0  0  0  0  0  0  0  0  0
    2.6664    2.0945    0.0000 H   0  0  0  0  0  0  0  0  0  0  0  0
    1.8264   -0.5955    0.0000 H   0  0  0  0  0  0  0  0  0  0  0  0
   -1.0748    1.2245    0.0000 H   0  0  0  0  0  0  0  0  0  0  0  0
   -0.1914   -0.3055    0.0000 H   0  0  0  0  0  0  0  0  0  0  0  0
  1  2  1  0  0  0  0
  1  8  1  0  0  0  0
  1  9  1  0  0  0  0
  1 10  1  0  0  0  0
  2  3  1  0  0  0  0
  2  7  1  0  0  0  0
  2 11  1  1  0  0  0
  3  4  1  0  0  0  0
  3 12  1  0  0  0  0
  3 13  1  0  0  0  0
  4  5  2  0  0  0  0
  4  6  1  0  0  0  0
  4 14  1  0  0  0  0
  6 15  1  0  0  0  0
  8 16  1  0  0  0  0
  8 17  1  0  0  0  0
M  END
>  <DRUGBANK_ID>
DB11920

>  <COMMON_NAME>
Lesogaberan

>  <CAS_NUMBER>
344413-67-8

>  <UNII>
4D6Q6HGC7Z

>  <SYNONYMS>
Lesogaberan

$$$$
