
 OpenBabel10282417072D

 23 24  0  0  0  0  0  0  0  0999 V2000
    1.3556   -2.3479    0.0000 C   0  0  0  0  0  0  0  0  0  0  0  0
    2.7845    0.1271    0.0000 C   0  0  0  0  0  0  0  0  0  0  0  0
    0.6411   -0.2854    0.0000 C   0  0  0  0  0  0  0  0  0  0  0  0
    0.6411   -1.1104    0.0000 C   0  0  0  0  0  0  0  0  0  0  0  0
    1.3556    0.1271    0.0000 C   0  0  0  0  0  0  0  0  0  0  0  0
   -0.6284   -0.6979    0.0000 C   0  0  0  0  0  0  0  0  0  0  0  0
    2.0701   -1.1104    0.0000 C   0  0  0  0  0  0  0  0  0  0  0  0
   -1.4534   -0.6979    0.0000 N   0  0  0  0  0  0  0  0  0  0  0  0
   -0.1435   -0.0305    0.0000 N   0  0  0  0  0  0  0  0  0  0  0  0
   -0.1435   -1.3654    0.0000 N   0  0  0  0  0  0  0  0  0  0  0  0
    1.3556   -1.5229    0.0000 N   0  0  0  0  0  0  0  0  0  0  0  0
    2.0701   -0.2854    0.0000 N   0  0  0  0  0  0  0  0  0  0  0  0
    1.3556    0.9521    0.0000 O   0  0  0  0  0  0  0  0  0  0  0  0
    2.7845   -1.5229    0.0000 O   0  0  0  0  0  0  0  0  0  0  0  0
    0.4290   -2.8829    0.0000 H   0  0  0  0  0  0  0  0  0  0  0  0
    2.2822   -2.8829    0.0000 H   0  0  0  0  0  0  0  0  0  0  0  0
    1.3556   -3.4179    0.0000 H   0  0  0  0  0  0  0  0  0  0  0  0
    3.7112   -0.4079    0.0000 H   0  0  0  0  0  0  0  0  0  0  0  0
    2.7845    1.1971    0.0000 H   0  0  0  0  0  0  0  0  0  0  0  0
    3.7111    0.6621    0.0000 H   0  0  0  0  0  0  0  0  0  0  0  0
   -1.9457    0.1547    0.0000 H   0  0  0  0  0  0  0  0  0  0  0  0
   -0.4477    0.9058    0.0000 H   0  0  0  0  0  0  0  0  0  0  0  0
   -0.4477   -2.3017    0.0000 H   0  0  0  0  0  0  0  0  0  0  0  0
  1 15  1  0  0  0  0
  1 16  1  0  0  0  0
  1 17  1  0  0  0  0
  2 18  1  0  0  0  0
  2 19  1  0  0  0  0
  2 20  1  0  0  0  0
  4  3  2  0  0  0  0
  5  3  1  0  0  0  0
  8  6  2  0  0  0  0
  8 21  1  0  0  0  0
  9  3  1  0  0  0  0
  9  6  1  0  0  0  0
  9 22  1  0  0  0  0
 10  4  1  0  0  0  0
 10  6  1  0  0  0  0
 10 23  1  0  0  0  0
 11  1  1  0  0  0  0
 11  4  1  0  0  0  0
 11  7  1  0  0  0  0
 12  2  1  0  0  0  0
 12  5  1  0  0  0  0
 12  7  1  0  0  0  0
 13  5  2  0  0  0  0
 14  7  2  0  0  0  0
M  END
>  <DRUGBANK_ID>
DB01778

>  <SECONDARY_ACCESSION_NUMBERS>
EXPT00087

>  <COMMON_NAME>
8-Aminotheophylline

>  <CAS_NUMBER>
19410-53-8

>  <SYNONYMS>
8-Amino-1,3-dimethyl-3,7-dihydropurine-2,6-dione

$$$$
