
 OpenBabel10282417072D

 18 17  0  0  0  0  0  0  0  0999 V2000
    2.7770   -0.3020    0.0000 C   0  0  0  0  0  0  0  0  0  0  0  0
    0.1105    0.4125    0.0000 C   0  0  0  0  0  0  0  0  0  0  0  0
    0.3020    1.1270    0.0000 C   0  0  0  0  0  0  0  0  0  0  0  0
   -0.1105    1.8414    0.0000 C   0  0  0  0  0  0  0  0  0  0  0  0
   -0.9355    1.8414    0.0000 Cl  0  0  0  0  0  0  0  0  0  0  0  0
    0.3020    2.5559    0.0000 Cl  0  0  0  0  0  0  0  0  0  0  0  0
    2.2539    0.8250    0.0000 O   0  0  0  0  0  0  0  0  0  0  0  0
    1.9520   -0.3020    0.0000 O   0  0  0  0  0  0  0  0  0  0  0  0
    0.8250    0.0000    0.0000 O   0  0  0  0  0  0  0  0  0  0  0  0
    1.1270    1.1270    0.0000 O   0  0  0  0  0  0  0  0  0  0  0  0
    1.5395    0.4125    0.0000 P   0  0  0  0  0  0  0  0  0  0  0  0
    3.3120   -1.2286    0.0000 H   0  0  0  0  0  0  0  0  0  0  0  0
    3.3120    0.6246    0.0000 H   0  0  0  0  0  0  0  0  0  0  0  0
    3.8470   -0.3020    0.0000 H   0  0  0  0  0  0  0  0  0  0  0  0
    0.1105    1.4825    0.0000 H   0  0  0  0  0  0  0  0  0  0  0  0
   -0.8161   -0.1225    0.0000 H   0  0  0  0  0  0  0  0  0  0  0  0
   -0.8162    0.9475    0.0000 H   0  0  0  0  0  0  0  0  0  0  0  0
   -0.2140    0.2333    0.0000 H   0  0  0  0  0  0  0  0  0  0  0  0
  1 12  1  0  0  0  0
  1 13  1  0  0  0  0
  1 14  1  0  0  0  0
  2 15  1  0  0  0  0
  2 16  1  0  0  0  0
  2 17  1  0  0  0  0
  3 18  1  0  0  0  0
  4  3  2  0  0  0  0
  5  4  1  0  0  0  0
  6  4  1  0  0  0  0
  8  1  1  0  0  0  0
  9  2  1  0  0  0  0
 10  3  1  0  0  0  0
 11  7  2  0  0  0  0
 11  8  1  0  0  0  0
 11  9  1  0  0  0  0
 11 10  1  0  0  0  0
M  END
>  <DRUGBANK_ID>
DB11397

>  <COMMON_NAME>
Dichlorvos

>  <CAS_NUMBER>
62-73-7

>  <UNII>
7U370BPS14

>  <SYNONYMS>
2,2-Dichloroethenyl dimethyl phosphate; DDVP; Dichlorvos; Dimethyl 2,2-dichlorovinyl phosphate; Dimethyl-2,2-dichlorovinyl phosphate; Phosphoric acid, 2,2-dichloroethenyl dimethyl ester; Phosphoric acid, 2,2-dichlorovinyl dimethyl ester

$$$$
