PGJ
 OpenBabel10282417072D

 49 52  0  0  0  0  0  0  0  0999 V2000
   -0.6226   -1.1311    0.0000 C   0  0  0  0  0  0  0  0  0  0  0  0
    0.0448   -1.6160    0.0000 N   0  0  0  0  0  0  0  0  0  0  0  0
   -0.2101   -2.4006    0.0000 O   0  0  0  0  0  0  0  0  0  0  0  0
   -1.0351   -2.4006    0.0000 C   0  0  0  0  0  0  0  0  0  0  0  0
   -1.2901   -1.6160    0.0000 C   0  0  0  0  0  0  0  0  0  0  0  0
    0.8294   -1.3611    0.0000 C   0  0  0  0  0  0  0  0  0  0  0  0
    1.4425   -1.9131    0.0000 O   0  0  0  0  0  0  0  0  0  0  0  0
    2.2272   -1.6582    0.0000 C   0  0  0  0  0  0  0  0  0  0  0  0
    2.8403   -2.2102    0.0000 C   0  0  0  0  0  0  0  0  0  0  0  0
   -0.6226   -0.3061    0.0000 C   0  0  0  0  0  0  0  0  0  0  0  0
   -1.3371    0.1064    0.0000 C   0  0  0  0  0  0  0  0  0  0  0  0
   -1.3371    0.9314    0.0000 C   0  0  0  0  0  0  0  0  0  0  0  0
   -0.6226    1.3439    0.0000 N   0  0  0  0  0  0  0  0  0  0  0  0
    0.0919    0.9314    0.0000 C   0  0  0  0  0  0  0  0  0  0  0  0
    0.0919    0.1064    0.0000 N   0  0  0  0  0  0  0  0  0  0  0  0
    0.8063    1.3439    0.0000 O   0  0  0  0  0  0  0  0  0  0  0  0
    0.8063    2.1689    0.0000 C   0  0  0  0  0  0  0  0  0  0  0  0
    0.0919    2.5814    0.0000 C   0  0  0  0  0  0  0  0  0  0  0  0
    0.0919    3.4064    0.0000 C   0  0  0  0  0  0  0  0  0  0  0  0
    0.8063    3.8189    0.0000 C   0  0  0  0  0  0  0  0  0  0  0  0
    1.5208    3.4064    0.0000 C   0  0  0  0  0  0  0  0  0  0  0  0
    1.5208    2.5814    0.0000 C   0  0  0  0  0  0  0  0  0  0  0  0
    2.2353    2.1689    0.0000 O   0  0  0  0  0  0  0  0  0  0  0  0
   -2.0747   -1.3611    0.0000 C   0  0  0  0  0  0  0  0  0  0  0  0
   -2.6878   -1.9131    0.0000 C   0  0  0  0  0  0  0  0  0  0  0  0
   -3.4724   -1.6582    0.0000 C   0  0  0  0  0  0  0  0  0  0  0  0
   -3.6439   -0.8512    0.0000 C   0  0  0  0  0  0  0  0  0  0  0  0
   -3.0308   -0.2992    0.0000 C   0  0  0  0  0  0  0  0  0  0  0  0
   -2.2462   -0.5541    0.0000 C   0  0  0  0  0  0  0  0  0  0  0  0
   -4.4285   -0.5963    0.0000 F   0  0  0  0  0  0  0  0  0  0  0  0
   -1.5200   -3.0681    0.0000 O   0  0  0  0  0  0  0  0  0  0  0  0
    1.0519   -0.3145    0.0000 H   0  0  0  0  0  0  0  0  0  0  0  0
    1.8470   -1.0304    0.0000 H   0  0  0  0  0  0  0  0  0  0  0  0
    2.4497   -0.6116    0.0000 H   0  0  0  0  0  0  0  0  0  0  0  0
    3.2448   -1.3275    0.0000 H   0  0  0  0  0  0  0  0  0  0  0  0
    2.6179   -3.2568    0.0000 H   0  0  0  0  0  0  0  0  0  0  0  0
    3.8579   -1.8795    0.0000 H   0  0  0  0  0  0  0  0  0  0  0  0
    3.6355   -2.9261    0.0000 H   0  0  0  0  0  0  0  0  0  0  0  0
   -2.2308   -0.4096    0.0000 H   0  0  0  0  0  0  0  0  0  0  0  0
   -2.2308    1.4474    0.0000 H   0  0  0  0  0  0  0  0  0  0  0  0
   -0.8018    2.0654    0.0000 H   0  0  0  0  0  0  0  0  0  0  0  0
   -0.8018    3.9224    0.0000 H   0  0  0  0  0  0  0  0  0  0  0  0
    0.8063    4.8509    0.0000 H   0  0  0  0  0  0  0  0  0  0  0  0
    2.4145    3.9224    0.0000 H   0  0  0  0  0  0  0  0  0  0  0  0
    2.2353    1.2319    0.0000 H   0  0  0  0  0  0  0  0  0  0  0  0
   -2.4732   -2.9225    0.0000 H   0  0  0  0  0  0  0  0  0  0  0  0
   -4.2393   -2.3487    0.0000 H   0  0  0  0  0  0  0  0  0  0  0  0
   -3.2454    0.7102    0.0000 H   0  0  0  0  0  0  0  0  0  0  0  0
   -1.4793    0.1364    0.0000 H   0  0  0  0  0  0  0  0  0  0  0  0
  1  2  1  0  0  0  0
  1  5  2  0  0  0  0
  1 10  1  0  0  0  0
  2  3  1  0  0  0  0
  2  6  1  0  0  0  0
  3  4  1  0  0  0  0
  4  5  1  0  0  0  0
  4 31  2  0  0  0  0
  5 24  1  0  0  0  0
  6  7  1  0  0  0  0
  6 32  1  0  0  0  0
  6 33  1  0  0  0  0
  7  8  1  0  0  0  0
  8  9  1  0  0  0  0
  8 34  1  0  0  0  0
  8 35  1  0  0  0  0
  9 36  1  0  0  0  0
  9 37  1  0  0  0  0
  9 38  1  0  0  0  0
 10 11  2  0  0  0  0
 10 15  1  0  0  0  0
 11 12  1  0  0  0  0
 11 39  1  0  0  0  0
 12 13  2  0  0  0  0
 12 40  1  0  0  0  0
 13 14  1  0  0  0  0
 14 15  2  0  0  0  0
 14 16  1  0  0  0  0
 16 17  1  0  0  0  0
 17 18  2  0  0  0  0
 17 22  1  0  0  0  0
 18 19  1  0  0  0  0
 18 41  1  0  0  0  0
 19 20  2  0  0  0  0
 19 42  1  0  0  0  0
 20 21  1  0  0  0  0
 20 43  1  0  0  0  0
 21 22  2  0  0  0  0
 21 44  1  0  0  0  0
 22 23  1  0  0  0  0
 23 45  1  0  0  0  0
 24 25  2  0  0  0  0
 24 29  1  0  0  0  0
 25 26  1  0  0  0  0
 25 46  1  0  0  0  0
 26 27  2  0  0  0  0
 26 47  1  0  0  0  0
 27 28  1  0  0  0  0
 27 30  1  0  0  0  0
 28 29  2  0  0  0  0
 28 48  1  0  0  0  0
 29 49  1  0  0  0  0
M  END
>  <DRUGBANK_ID>
DB08395

>  <COMMON_NAME>
2-(ETHOXYMETHYL)-4-(4-FLUOROPHENYL)-3-[2-(2-HYDROXYPHENOXY)PYRIMIDIN-4-YL]ISOXAZOL-5(2H)-ONE

$$$$
