FEP
 OpenBabel10282417072D

 50 51  0  0  0  0  0  0  0  0999 V2000
   -1.0706   -0.2055    0.0000 C   0  0  0  0  0  0  0  0  0  0  0  0
   -0.3561    0.2070    0.0000 C   0  0  0  0  0  0  0  0  0  0  0  0
    0.3584   -0.2055    0.0000 C   0  0  0  0  0  0  0  0  0  0  0  0
    1.0728    0.2070    0.0000 C   0  0  0  0  0  0  0  0  0  0  0  0
   -3.9285    1.4445    0.0000 C   0  0  0  0  0  0  0  0  0  0  0  0
   -1.7851    0.2070    0.0000 C   0  0  0  0  0  0  0  0  0  0  0  0
   -2.4995   -0.2055    0.0000 C   0  0  0  0  0  0  0  0  0  0  0  0
   -3.2140    0.2070    0.0000 C   0  0  0  0  0  0  0  0  0  0  0  0
   -3.2140    1.0320    0.0000 C   0  0  0  0  0  0  0  0  0  0  0  0
   -2.4995    1.4445    0.0000 C   0  0  0  0  0  0  0  0  0  0  0  0
   -1.7851    1.0320    0.0000 C   0  0  0  0  0  0  0  0  0  0  0  0
    3.9307   -1.4430    0.0000 C   0  0  0  0  0  0  0  0  0  0  0  0
    1.7873   -0.2055    0.0000 C   0  0  0  0  0  0  0  0  0  0  0  0
    2.5018    0.2070    0.0000 C   0  0  0  0  0  0  0  0  0  0  0  0
    3.2162   -0.2055    0.0000 C   0  0  0  0  0  0  0  0  0  0  0  0
    3.2162   -1.0305    0.0000 C   0  0  0  0  0  0  0  0  0  0  0  0
    2.5018   -1.4430    0.0000 C   0  0  0  0  0  0  0  0  0  0  0  0
    1.7873   -1.0305    0.0000 C   0  0  0  0  0  0  0  0  0  0  0  0
   -4.3410    0.7301    0.0000 F   0  0  0  0  0  0  0  0  0  0  0  0
   -3.5160    2.1590    0.0000 F   0  0  0  0  0  0  0  0  0  0  0  0
   -4.6429    1.8570    0.0000 P   0  0  0  0  0  0  0  0  0  0  0  0
   -5.3574    2.2695    0.0000 O   0  0  0  0  0  0  0  0  0  0  0  0
   -5.0554    1.1426    0.0000 O   0  0  0  0  0  0  0  0  0  0  0  0
   -4.2304    2.5715    0.0000 O   0  0  0  0  0  0  0  0  0  0  0  0
    3.5182   -2.1574    0.0000 F   0  0  0  0  0  0  0  0  0  0  0  0
    4.3432   -0.7285    0.0000 F   0  0  0  0  0  0  0  0  0  0  0  0
    4.6452   -1.8555    0.0000 P   0  0  0  0  0  0  0  0  0  0  0  0
    5.3597   -2.2680    0.0000 O   0  0  0  0  0  0  0  0  0  0  0  0
    4.2327   -2.5699    0.0000 O   0  0  0  0  0  0  0  0  0  0  0  0
    5.0577   -1.1410    0.0000 O   0  0  0  0  0  0  0  0  0  0  0  0
   -1.0706   -1.2755    0.0000 H   0  0  0  0  0  0  0  0  0  0  0  0
   -1.9972   -0.7405    0.0000 H   0  0  0  0  0  0  0  0  0  0  0  0
   -0.3561    1.2770    0.0000 H   0  0  0  0  0  0  0  0  0  0  0  0
    0.5705    0.7420    0.0000 H   0  0  0  0  0  0  0  0  0  0  0  0
    0.3584   -1.2755    0.0000 H   0  0  0  0  0  0  0  0  0  0  0  0
    1.2851   -0.7405    0.0000 H   0  0  0  0  0  0  0  0  0  0  0  0
    1.0728    1.2770    0.0000 H   0  0  0  0  0  0  0  0  0  0  0  0
    1.9994    0.7420    0.0000 H   0  0  0  0  0  0  0  0  0  0  0  0
   -2.4995   -1.2375    0.0000 H   0  0  0  0  0  0  0  0  0  0  0  0
   -4.1077   -0.3090    0.0000 H   0  0  0  0  0  0  0  0  0  0  0  0
   -2.4995    2.4765    0.0000 H   0  0  0  0  0  0  0  0  0  0  0  0
   -0.8914    1.5480    0.0000 H   0  0  0  0  0  0  0  0  0  0  0  0
    2.5018    1.2390    0.0000 H   0  0  0  0  0  0  0  0  0  0  0  0
    4.1099    0.3105    0.0000 H   0  0  0  0  0  0  0  0  0  0  0  0
    2.5018   -2.4750    0.0000 H   0  0  0  0  0  0  0  0  0  0  0  0
    0.8936   -1.5465    0.0000 H   0  0  0  0  0  0  0  0  0  0  0  0
   -6.0254    1.1426    0.0000 H   0  0  0  0  0  0  0  0  0  0  0  0
   -3.2604    2.5715    0.0000 H   0  0  0  0  0  0  0  0  0  0  0  0
    3.2627   -2.5699    0.0000 H   0  0  0  0  0  0  0  0  0  0  0  0
    6.0277   -1.1410    0.0000 H   0  0  0  0  0  0  0  0  0  0  0  0
  1  2  1  0  0  0  0
  1  6  1  0  0  0  0
  1 31  1  0  0  0  0
  1 32  1  0  0  0  0
  2  3  1  0  0  0  0
  2 33  1  0  0  0  0
  2 34  1  0  0  0  0
  3  4  1  0  0  0  0
  3 35  1  0  0  0  0
  3 36  1  0  0  0  0
  4 13  1  0  0  0  0
  4 37  1  0  0  0  0
  4 38  1  0  0  0  0
  5  9  1  0  0  0  0
  5 19  1  0  0  0  0
  5 20  1  0  0  0  0
  5 21  1  0  0  0  0
  6  7  2  0  0  0  0
  6 11  1  0  0  0  0
  7  8  1  0  0  0  0
  7 39  1  0  0  0  0
  8  9  2  0  0  0  0
  8 40  1  0  0  0  0
  9 10  1  0  0  0  0
 10 11  2  0  0  0  0
 10 41  1  0  0  0  0
 11 42  1  0  0  0  0
 12 16  1  0  0  0  0
 12 25  1  0  0  0  0
 12 26  1  0  0  0  0
 12 27  1  0  0  0  0
 13 14  2  0  0  0  0
 13 18  1  0  0  0  0
 14 15  1  0  0  0  0
 14 43  1  0  0  0  0
 15 16  2  0  0  0  0
 15 44  1  0  0  0  0
 16 17  1  0  0  0  0
 17 18  2  0  0  0  0
 17 45  1  0  0  0  0
 18 46  1  0  0  0  0
 21 22  2  0  0  0  0
 21 23  1  0  0  0  0
 21 24  1  0  0  0  0
 23 47  1  0  0  0  0
 24 48  1  0  0  0  0
 27 28  2  0  0  0  0
 27 29  1  0  0  0  0
 27 30  1  0  0  0  0
 29 49  1  0  0  0  0
 30 50  1  0  0  0  0
M  END
>  <DRUGBANK_ID>
DB04204

>  <SECONDARY_ACCESSION_NUMBERS>
EXPT01422

>  <COMMON_NAME>
[(4-{4-[4-(Difluoro-Phosphono-Methyl)-Phenyl]-Butyl}-Phenyl)-Difluoro-Methyl]-Phosphonic Acid

$$$$
