
 OpenBabel10282417072D

 33 34  0  0  1  0  0  0  0  0999 V2000
   -0.7056   -1.6180    0.0000 C   0  0  0  0  0  0  0  0  0  0  0  0
   -0.7056   -0.7930    0.0000 C   0  0  1  0  0  0  0  0  0  0  0  0
   -1.4201   -0.3805    0.0000 C   0  0  0  0  0  0  0  0  0  0  0  0
   -2.1345   -0.7930    0.0000 N   0  0  0  0  0  0  0  0  0  0  0  0
   -2.8882   -0.4574    0.0000 C   0  0  0  0  0  0  0  0  0  0  0  0
   -3.4402   -1.0705    0.0000 N   0  0  0  0  0  0  0  0  0  0  0  0
   -3.0277   -1.7850    0.0000 C   0  0  0  0  0  0  0  0  0  0  0  0
   -2.2208   -1.6135    0.0000 C   0  0  0  0  0  0  0  0  0  0  0  0
   -1.6687   -2.2266    0.0000 N   0  0  0  0  0  0  0  0  0  0  0  0
   -1.9237   -3.0112    0.0000 C   0  0  0  0  0  0  0  0  0  0  0  0
   -1.3716   -3.6243    0.0000 N   0  0  0  0  0  0  0  0  0  0  0  0
   -2.7307   -3.1827    0.0000 N   0  0  0  0  0  0  0  0  0  0  0  0
   -3.2827   -2.5696    0.0000 C   0  0  0  0  0  0  0  0  0  0  0  0
   -4.0897   -2.7412    0.0000 N   0  0  0  0  0  0  0  0  0  0  0  0
    0.0089   -0.3805    0.0000 O   0  0  0  0  0  0  0  0  0  0  0  0
    0.7233   -0.7930    0.0000 C   0  0  0  0  0  0  0  0  0  0  0  0
    1.4378   -0.3805    0.0000 P   0  0  0  0  0  0  0  0  0  0  0  0
    2.1523    0.0320    0.0000 O   0  5  0  0  0  0  0  0  0  0  0  0
    1.8503   -1.0950    0.0000 O   0  5  0  0  0  0  0  0  0  0  0  0
    1.0253    0.3340    0.0000 O   0  0  0  0  0  0  0  0  0  0  0  0
   -1.6322   -2.1530    0.0000 H   0  0  0  0  0  0  0  0  0  0  0  0
    0.2210   -2.1530    0.0000 H   0  0  0  0  0  0  0  0  0  0  0  0
   -0.7056   -2.6880    0.0000 H   0  0  0  0  0  0  0  0  0  0  0  0
   -1.6322   -1.3280    0.0000 H   0  0  0  0  0  0  0  0  0  0  0  0
   -1.4201    0.6895    0.0000 H   0  0  0  0  0  0  0  0  0  0  0  0
   -2.3468    0.1545    0.0000 H   0  0  0  0  0  0  0  0  0  0  0  0
   -3.1028    0.5520    0.0000 H   0  0  0  0  0  0  0  0  0  0  0  0
   -1.6758   -4.5606    0.0000 H   0  0  0  0  0  0  0  0  0  0  0  0
   -0.4086   -3.4196    0.0000 H   0  0  0  0  0  0  0  0  0  0  0  0
   -4.7485   -2.0096    0.0000 H   0  0  0  0  0  0  0  0  0  0  0  0
   -4.3939   -3.6775    0.0000 H   0  0  0  0  0  0  0  0  0  0  0  0
    0.7233   -1.8630    0.0000 H   0  0  0  0  0  0  0  0  0  0  0  0
    1.6499   -1.3280    0.0000 H   0  0  0  0  0  0  0  0  0  0  0  0
  1 21  1  0  0  0  0
  1 22  1  0  0  0  0
  1 23  1  0  0  0  0
  2  1  1  0  0  0  0
  2  3  1  0  0  0  0
  2 15  1  0  0  0  0
  2 24  1  6  0  0  0
  3  4  1  0  0  0  0
  3 25  1  0  0  0  0
  3 26  1  0  0  0  0
  4  5  1  0  0  0  0
  4  8  1  0  0  0  0
  5  6  2  0  0  0  0
  5 27  1  0  0  0  0
  6  7  1  0  0  0  0
  7  8  2  0  0  0  0
  7 13  1  0  0  0  0
  8  9  1  0  0  0  0
  9 10  2  0  0  0  0
 10 11  1  0  0  0  0
 10 12  1  0  0  0  0
 11 28  1  0  0  0  0
 11 29  1  0  0  0  0
 12 13  2  0  0  0  0
 13 14  1  0  0  0  0
 14 30  1  0  0  0  0
 14 31  1  0  0  0  0
 15 16  1  0  0  0  0
 16 17  1  0  0  0  0
 16 32  1  0  0  0  0
 16 33  1  0  0  0  0
 17 18  1  0  0  0  0
 17 19  1  0  0  0  0
 17 20  2  0  0  0  0
M  CHG  2  18  -1  19  -1
M  END
>  <DRUGBANK_ID>
DB02222

>  <SECONDARY_ACCESSION_NUMBERS>
EXPT00361

>  <COMMON_NAME>
2,6-Diamino-(S)-9-[2-(Phosphonomethoxy)Propyl]Purine

$$$$
