
 OpenBabel10282417072D

 50 52  0  0  1  0  0  0  0  0999 V2000
    4.2868   -4.9500    0.0000 C   0  0  0  0  0  0  0  0  0  0  0  0
    3.5724   -4.5375    0.0000 C   0  0  0  0  0  0  0  0  0  0  0  0
    2.8579   -4.1250    0.0000 C   0  0  0  0  0  0  0  0  0  0  0  0
    2.1434   -3.7125    0.0000 C   0  0  0  0  0  0  0  0  0  0  0  0
    1.4289   -4.1250    0.0000 O   0  0  0  0  0  0  0  0  0  0  0  0
    2.1434   -2.8875    0.0000 N   0  0  0  0  0  0  0  0  0  0  0  0
    1.4289   -2.4750    0.0000 C   0  0  1  0  0  0  0  0  0  0  0  0
    0.7145   -2.8875    0.0000 C   0  0  0  0  0  0  0  0  0  0  0  0
    0.0000   -2.4750    0.0000 C   0  0  0  0  0  0  0  0  0  0  0  0
    0.0000   -1.6500    0.0000 C   0  0  0  0  0  0  0  0  0  0  0  0
    0.7145   -1.2375    0.0000 N   0  0  0  0  0  0  0  0  0  0  0  0
    1.4289   -1.6500    0.0000 C   0  0  0  0  0  0  0  0  0  0  0  0
    0.7145   -0.4125    0.0000 C   0  0  0  0  0  0  0  0  0  0  0  0
    0.0000    0.0000    0.0000 C   0  0  0  0  0  0  0  0  0  0  0  0
   -0.7846   -0.2549    0.0000 C   0  0  0  0  0  0  0  0  0  0  0  0
   -1.0396   -1.0396    0.0000 C   0  0  0  0  0  0  0  0  0  0  0  0
   -1.2695    0.4125    0.0000 C   0  0  0  0  0  0  0  0  0  0  0  0
   -2.0945    0.4125    0.0000 C   0  0  0  0  0  0  0  0  0  0  0  0
   -0.7846    1.0799    0.0000 N   0  0  0  0  0  0  0  0  0  0  0  0
    0.0000    0.8250    0.0000 C   0  0  0  0  0  0  0  0  0  0  0  0
    0.7145    1.2375    0.0000 C   0  0  0  0  0  0  0  0  0  0  0  0
    1.4289    0.8250    0.0000 C   0  0  0  0  0  0  0  0  0  0  0  0
    1.4289    0.0000    0.0000 C   0  0  0  0  0  0  0  0  0  0  0  0
    2.1434   -0.4125    0.0000 F   0  0  0  0  0  0  0  0  0  0  0  0
    0.7145    2.0625    0.0000 C   0  0  0  0  0  0  0  0  0  0  0  0
   -0.0000    2.4750    0.0000 N   0  0  0  0  0  0  0  0  0  0  0  0
    1.4289    2.4750    0.0000 O   0  0  0  0  0  0  0  0  0  0  0  0
    4.2868   -6.0200    0.0000 H   0  0  0  0  0  0  0  0  0  0  0  0
    5.2135   -4.4150    0.0000 H   0  0  0  0  0  0  0  0  0  0  0  0
    5.2134   -5.4850    0.0000 H   0  0  0  0  0  0  0  0  0  0  0  0
    2.9960   -2.3952    0.0000 H   0  0  0  0  0  0  0  0  0  0  0  0
    1.4289   -3.5450    0.0000 H   0  0  0  0  0  0  0  0  0  0  0  0
    0.7145   -3.9575    0.0000 H   0  0  0  0  0  0  0  0  0  0  0  0
   -0.2121   -3.4225    0.0000 H   0  0  0  0  0  0  0  0  0  0  0  0
   -0.9266   -3.0100    0.0000 H   0  0  0  0  0  0  0  0  0  0  0  0
   -0.9266   -1.9400    0.0000 H   0  0  0  0  0  0  0  0  0  0  0  0
   -0.9266   -1.1150    0.0000 H   0  0  0  0  0  0  0  0  0  0  0  0
    0.0000   -0.5800    0.0000 H   0  0  0  0  0  0  0  0  0  0  0  0
    2.3556   -1.1150    0.0000 H   0  0  0  0  0  0  0  0  0  0  0  0
    2.3555   -2.1850    0.0000 H   0  0  0  0  0  0  0  0  0  0  0  0
   -2.0862   -1.2620    0.0000 H   0  0  0  0  0  0  0  0  0  0  0  0
   -0.3237   -1.8348    0.0000 H   0  0  0  0  0  0  0  0  0  0  0  0
   -1.3703   -2.0572    0.0000 H   0  0  0  0  0  0  0  0  0  0  0  0
   -2.6295    1.3391    0.0000 H   0  0  0  0  0  0  0  0  0  0  0  0
   -2.6295   -0.5141    0.0000 H   0  0  0  0  0  0  0  0  0  0  0  0
   -3.1645    0.4125    0.0000 H   0  0  0  0  0  0  0  0  0  0  0  0
   -1.0888    2.0162    0.0000 H   0  0  0  0  0  0  0  0  0  0  0  0
    2.3226    1.3410    0.0000 H   0  0  0  0  0  0  0  0  0  0  0  0
   -0.0000    3.4595    0.0000 H   0  0  0  0  0  0  0  0  0  0  0  0
   -0.8526    1.9827    0.0000 H   0  0  0  0  0  0  0  0  0  0  0  0
  1  2  1  0  0  0  0
  1 28  1  0  0  0  0
  1 29  1  0  0  0  0
  1 30  1  0  0  0  0
  2  3  3  0  0  0  0
  3  4  1  0  0  0  0
  4  5  2  0  0  0  0
  4  6  1  0  0  0  0
  6 31  1  0  0  0  0
  7  6  1  0  0  0  0
  7  8  1  0  0  0  0
  7 12  1  0  0  0  0
  7 32  1  6  0  0  0
  8  9  1  0  0  0  0
  8 33  1  0  0  0  0
  8 34  1  0  0  0  0
  9 10  1  0  0  0  0
  9 35  1  0  0  0  0
  9 36  1  0  0  0  0
 10 11  1  0  0  0  0
 10 37  1  0  0  0  0
 10 38  1  0  0  0  0
 11 12  1  0  0  0  0
 11 13  1  0  0  0  0
 12 39  1  0  0  0  0
 12 40  1  0  0  0  0
 13 14  2  0  0  0  0
 13 23  1  0  0  0  0
 14 15  1  0  0  0  0
 14 20  1  0  0  0  0
 15 16  1  0  0  0  0
 15 17  2  0  0  0  0
 16 41  1  0  0  0  0
 16 42  1  0  0  0  0
 16 43  1  0  0  0  0
 17 18  1  0  0  0  0
 17 19  1  0  0  0  0
 18 44  1  0  0  0  0
 18 45  1  0  0  0  0
 18 46  1  0  0  0  0
 19 20  1  0  0  0  0
 19 47  1  0  0  0  0
 20 21  2  0  0  0  0
 21 22  1  0  0  0  0
 21 25  1  0  0  0  0
 22 23  2  0  0  0  0
 22 48  1  0  0  0  0
 23 24  1  0  0  0  0
 25 26  1  0  0  0  0
 25 27  2  0  0  0  0
 26 49  1  0  0  0  0
 26 50  1  0  0  0  0
M  END
>  <DRUGBANK_ID>
DB15347

>  <COMMON_NAME>
Branebrutinib

>  <CAS_NUMBER>
1912445-55-6

>  <UNII>
7LBRZUYSHU

>  <SYNONYMS>
BMS-986195; Branebrutinib

$$$$
