
 OpenBabel10282417072D

 49 50  0  0  1  0  0  0  0  0999 V2000
   -6.8473   -2.1729    0.0000 C   0  0  0  0  0  0  0  0  0  0  0  0
   -6.0372   -2.3288    0.0000 C   0  0  0  0  0  0  0  0  0  0  0  0
   -5.7671   -3.1084    0.0000 C   0  0  0  0  0  0  0  0  0  0  0  0
   -5.4971   -1.7052    0.0000 C   0  0  1  0  0  0  0  0  0  0  0  0
   -4.6869   -1.8611    0.0000 C   0  0  0  0  0  0  0  0  0  0  0  0
   -4.4169   -2.6407    0.0000 O   0  0  0  0  0  0  0  0  0  0  0  0
   -4.1469   -1.2375    0.0000 O   0  0  0  0  0  0  0  0  0  0  0  0
   -3.3367   -1.3934    0.0000 C   0  0  0  0  0  0  0  0  0  0  0  0
   -2.7966   -0.7697    0.0000 C   0  0  0  0  0  0  0  0  0  0  0  0
   -1.9865   -0.9257    0.0000 C   0  0  2  0  0  0  0  0  0  0  0  0
   -1.4464   -0.3020    0.0000 C   0  0  0  0  0  0  0  0  0  0  0  0
   -0.6363   -0.4579    0.0000 N   0  0  0  0  0  0  0  0  0  0  0  0
   -0.2862   -1.2050    0.0000 C   0  0  0  0  0  0  0  0  0  0  0  0
    0.5324   -1.1029    0.0000 N   0  0  0  0  0  0  0  0  0  0  0  0
    0.6883   -0.2928    0.0000 C   0  0  0  0  0  0  0  0  0  0  0  0
   -0.0340    0.1058    0.0000 C   0  0  0  0  0  0  0  0  0  0  0  0
   -0.0499    0.9307    0.0000 N   0  0  0  0  0  0  0  0  0  0  0  0
    0.6565    1.3569    0.0000 C   0  0  0  0  0  0  0  0  0  0  0  0
    1.3788    0.9583    0.0000 N   0  0  0  0  0  0  0  0  0  0  0  0
    1.3947    0.1334    0.0000 C   0  0  0  0  0  0  0  0  0  0  0  0
    2.1170   -0.2652    0.0000 O   0  0  0  0  0  0  0  0  0  0  0  0
    0.6405    2.1818    0.0000 N   0  0  0  0  0  0  0  0  0  0  0  0
   -1.7165   -1.7052    0.0000 C   0  0  0  0  0  0  0  0  0  0  0  0
   -2.2565   -2.3288    0.0000 O   0  0  0  0  0  0  0  0  0  0  0  0
   -5.7671   -0.9257    0.0000 N   0  0  0  0  0  0  0  0  0  0  0  0
   -7.1975   -1.1618    0.0000 H   0  0  0  0  0  0  0  0  0  0  0  0
   -7.5478   -2.9817    0.0000 H   0  0  0  0  0  0  0  0  0  0  0  0
   -7.8980   -1.9707    0.0000 H   0  0  0  0  0  0  0  0  0  0  0  0
   -4.9865   -2.5310    0.0000 H   0  0  0  0  0  0  0  0  0  0  0  0
   -6.4675   -3.9173    0.0000 H   0  0  0  0  0  0  0  0  0  0  0  0
   -4.7164   -3.3106    0.0000 H   0  0  0  0  0  0  0  0  0  0  0  0
   -5.4168   -4.1194    0.0000 H   0  0  0  0  0  0  0  0  0  0  0  0
   -6.5478   -1.5030    0.0000 H   0  0  0  0  0  0  0  0  0  0  0  0
   -2.9864   -2.4044    0.0000 H   0  0  0  0  0  0  0  0  0  0  0  0
   -2.2860   -1.5956    0.0000 H   0  0  0  0  0  0  0  0  0  0  0  0
   -3.1468    0.2414    0.0000 H   0  0  0  0  0  0  0  0  0  0  0  0
   -2.0961    0.0391    0.0000 H   0  0  0  0  0  0  0  0  0  0  0  0
   -2.3367    0.0854    0.0000 H   0  0  0  0  0  0  0  0  0  0  0  0
   -1.7967    0.7090    0.0000 H   0  0  0  0  0  0  0  0  0  0  0  0
   -0.7459    0.5069    0.0000 H   0  0  0  0  0  0  0  0  0  0  0  0
   -0.7848   -2.1086    0.0000 H   0  0  0  0  0  0  0  0  0  0  0  0
    2.2217    1.4669    0.0000 H   0  0  0  0  0  0  0  0  0  0  0  0
    1.4834    2.6905    0.0000 H   0  0  0  0  0  0  0  0  0  0  0  0
   -0.2215    2.6574    0.0000 H   0  0  0  0  0  0  0  0  0  0  0  0
   -0.6658   -1.9074    0.0000 H   0  0  0  0  0  0  0  0  0  0  0  0
   -1.3662   -2.7162    0.0000 H   0  0  0  0  0  0  0  0  0  0  0  0
   -3.2090   -2.1455    0.0000 H   0  0  0  0  0  0  0  0  0  0  0  0
   -5.0993   -0.1547    0.0000 H   0  0  0  0  0  0  0  0  0  0  0  0
   -6.7687   -0.7329    0.0000 H   0  0  0  0  0  0  0  0  0  0  0  0
  1  2  1  0  0  0  0
  1 26  1  0  0  0  0
  1 27  1  0  0  0  0
  1 28  1  0  0  0  0
  2  3  1  0  0  0  0
  2  4  1  0  0  0  0
  2 29  1  0  0  0  0
  3 30  1  0  0  0  0
  3 31  1  0  0  0  0
  3 32  1  0  0  0  0
  4  5  1  0  0  0  0
  4 25  1  0  0  0  0
  4 33  1  1  0  0  0
  5  6  2  0  0  0  0
  5  7  1  0  0  0  0
  7  8  1  0  0  0  0
  8  9  1  0  0  0  0
  8 34  1  0  0  0  0
  8 35  1  0  0  0  0
  9 36  1  0  0  0  0
  9 37  1  0  0  0  0
 10  9  1  0  0  0  0
 10 11  1  0  0  0  0
 10 23  1  0  0  0  0
 10 38  1  1  0  0  0
 11 12  1  0  0  0  0
 11 39  1  0  0  0  0
 11 40  1  0  0  0  0
 12 13  1  0  0  0  0
 12 16  1  0  0  0  0
 13 14  2  0  0  0  0
 13 41  1  0  0  0  0
 14 15  1  0  0  0  0
 15 16  2  0  0  0  0
 15 20  1  0  0  0  0
 16 17  1  0  0  0  0
 17 18  2  0  0  0  0
 18 19  1  0  0  0  0
 18 22  1  0  0  0  0
 19 20  1  0  0  0  0
 19 42  1  0  0  0  0
 20 21  2  0  0  0  0
 22 43  1  0  0  0  0
 22 44  1  0  0  0  0
 23 24  1  0  0  0  0
 23 45  1  0  0  0  0
 23 46  1  0  0  0  0
 24 47  1  0  0  0  0
 25 48  1  0  0  0  0
 25 49  1  0  0  0  0
M  END
>  <DRUGBANK_ID>
DB06575

>  <COMMON_NAME>
Valomaciclovir

>  <CAS_NUMBER>
195157-34-7

>  <UNII>
F094Y61748

>  <SYNONYMS>
Valomaciclovir

$$$$
