
 OpenBabel10282417072D

 53 56  0  0  0  0  0  0  0  0999 V2000
   -2.5240   -0.6023    0.0000 C   0  0  0  0  0  0  0  0  0  0  0  0
   -2.5240    0.2007    0.0000 C   0  0  0  0  0  0  0  0  0  0  0  0
   -1.8141    0.6164    0.0000 C   0  0  0  0  0  0  0  0  0  0  0  0
   -1.8141    1.4382    0.0000 C   0  0  0  0  0  0  0  0  0  0  0  0
   -2.5240    1.8491    0.0000 C   0  0  0  0  0  0  0  0  0  0  0  0
   -3.2524    1.4475    0.0000 C   0  0  0  0  0  0  0  0  0  0  0  0
   -3.2524    0.6164    0.0000 C   0  0  0  0  0  0  0  0  0  0  0  0
   -3.9107   -0.0233    0.0000 N   0  0  0  0  0  0  0  0  0  0  0  0
   -3.4484   -0.8357    0.0000 C   0  0  0  0  0  0  0  0  0  0  0  0
   -1.1184    0.1821    0.0000 C   0  0  2  0  0  0  0  0  0  0  0  0
   -1.1184   -0.6023    0.0000 C   0  0  1  0  0  0  0  0  0  0  0  0
   -1.8327   -1.0319    0.0000 C   0  0  0  0  0  0  0  0  0  0  0  0
   -0.3993   -1.0319    0.0000 N   0  0  0  0  0  0  0  0  0  0  0  0
    0.3150   -0.6491    0.0000 C   0  0  0  0  0  0  0  0  0  0  0  0
    0.3150    0.1775    0.0000 C   0  0  1  0  0  0  0  0  0  0  0  0
    1.0250    0.5978    0.0000 N   0  0  0  0  0  0  0  0  0  0  0  0
    1.7345    0.1775    0.0000 C   0  0  0  0  0  0  0  0  0  0  0  0
    2.4630    0.5837    0.0000 N   0  0  0  0  0  0  0  0  0  0  0  0
    2.4630    1.4148    0.0000 C   0  0  0  0  0  0  0  0  0  0  0  0
    3.1868    1.7978    0.0000 C   0  0  0  0  0  0  0  0  0  0  0  0
    3.1774    0.1680    0.0000 C   0  0  0  0  0  0  0  0  0  0  0  0
    3.9107    0.5042    0.0000 C   0  0  0  0  0  0  0  0  0  0  0  0
    1.7345   -0.6351    0.0000 O   0  0  0  0  0  0  0  0  0  0  0  0
   -0.3899    0.6070    0.0000 C   0  0  0  0  0  0  0  0  0  0  0  0
   -0.3993   -1.8491    0.0000 C   0  0  0  0  0  0  0  0  0  0  0  0
   -1.1184   -1.4568    0.0000 H   0  0  0  0  0  0  0  0  0  0  0  0
   -1.1184    1.0365    0.0000 H   0  0  0  0  0  0  0  0  0  0  0  0
   -0.9201    1.9537    0.0000 H   0  0  0  0  0  0  0  0  0  0  0  0
   -2.5133    2.8810    0.0000 H   0  0  0  0  0  0  0  0  0  0  0  0
   -4.1410    1.9723    0.0000 H   0  0  0  0  0  0  0  0  0  0  0  0
   -4.8854    0.1152    0.0000 H   0  0  0  0  0  0  0  0  0  0  0  0
   -3.8532   -1.7850    0.0000 H   0  0  0  0  0  0  0  0  0  0  0  0
   -1.8405   -2.1019    0.0000 H   0  0  0  0  0  0  0  0  0  0  0  0
   -2.7698   -1.5484    0.0000 H   0  0  0  0  0  0  0  0  0  0  0  0
    1.2331   -1.1987    0.0000 H   0  0  0  0  0  0  0  0  0  0  0  0
    1.2458   -0.1214    0.0000 H   0  0  0  0  0  0  0  0  0  0  0  0
    1.2445   -0.3524    0.0000 H   0  0  0  0  0  0  0  0  0  0  0  0
    1.0252    1.5823    0.0000 H   0  0  0  0  0  0  0  0  0  0  0  0
    1.5464    1.9668    0.0000 H   0  0  0  0  0  0  0  0  0  0  0  0
    2.4926    2.4844    0.0000 H   0  0  0  0  0  0  0  0  0  0  0  0
    4.0931    1.2290    0.0000 H   0  0  0  0  0  0  0  0  0  0  0  0
    3.2263    2.8671    0.0000 H   0  0  0  0  0  0  0  0  0  0  0  0
    4.1326    2.2982    0.0000 H   0  0  0  0  0  0  0  0  0  0  0  0
    3.1255   -0.9007    0.0000 H   0  0  0  0  0  0  0  0  0  0  0  0
    4.0637   -0.4315    0.0000 H   0  0  0  0  0  0  0  0  0  0  0  0
    4.7832   -0.1152    0.0000 H   0  0  0  0  0  0  0  0  0  0  0  0
    4.0108    1.5695    0.0000 H   0  0  0  0  0  0  0  0  0  0  0  0
    4.8833    0.9501    0.0000 H   0  0  0  0  0  0  0  0  0  0  0  0
   -0.3796    1.6770    0.0000 H   0  0  0  0  0  0  0  0  0  0  0  0
   -1.3152    1.1444    0.0000 H   0  0  0  0  0  0  0  0  0  0  0  0
   -1.3259   -2.3841    0.0000 H   0  0  0  0  0  0  0  0  0  0  0  0
    0.5273   -2.3841    0.0000 H   0  0  0  0  0  0  0  0  0  0  0  0
   -0.3993   -2.9191    0.0000 H   0  0  0  0  0  0  0  0  0  0  0  0
  2  1  1  0  0  0  0
  3  2  2  0  0  0  0
  3 10  1  0  0  0  0
  4  3  1  0  0  0  0
  4 28  1  0  0  0  0
  5  4  2  0  0  0  0
  5  6  1  0  0  0  0
  5 29  1  0  0  0  0
  6  7  2  0  0  0  0
  6 30  1  0  0  0  0
  7  2  1  0  0  0  0
  7  8  1  0  0  0  0
  8  9  1  0  0  0  0
  8 31  1  0  0  0  0
  9  1  2  0  0  0  0
  9 32  1  0  0  0  0
 10 11  1  0  0  0  0
 10 27  1  6  0  0  0
 11 12  1  0  0  0  0
 11 26  1  1  0  0  0
 12  1  1  0  0  0  0
 12 33  1  0  0  0  0
 12 34  1  0  0  0  0
 13 11  1  0  0  0  0
 14 13  1  0  0  0  0
 14 15  1  0  0  0  0
 14 35  1  0  0  0  0
 14 36  1  0  0  0  0
 15 16  1  0  0  0  0
 15 24  1  0  0  0  0
 15 37  1  1  0  0  0
 16 38  1  0  0  0  0
 17 16  1  0  0  0  0
 18 17  1  0  0  0  0
 19 18  1  0  0  0  0
 19 39  1  0  0  0  0
 19 40  1  0  0  0  0
 20 19  1  0  0  0  0
 20 41  1  0  0  0  0
 20 42  1  0  0  0  0
 20 43  1  0  0  0  0
 21 18  1  0  0  0  0
 21 44  1  0  0  0  0
 21 45  1  0  0  0  0
 22 21  1  0  0  0  0
 22 46  1  0  0  0  0
 22 47  1  0  0  0  0
 22 48  1  0  0  0  0
 23 17  2  0  0  0  0
 24 10  1  0  0  0  0
 24 49  1  0  0  0  0
 24 50  1  0  0  0  0
 25 13  1  0  0  0  0
 25 51  1  0  0  0  0
 25 52  1  0  0  0  0
 25 53  1  0  0  0  0
M  END
>  <DRUGBANK_ID>
DB13399

>  <COMMON_NAME>
Terguride

>  <CAS_NUMBER>
37686-84-3

>  <UNII>
21OJT43Q88

>  <SYNONYMS>
Tergurida; Terguride; Terguridum

$$$$
