
 OpenBabel10282417072D

 26 27  0  0  0  0  0  0  0  0999 V2000
   -0.4561    0.6549    0.0000 C   0  0  3  0  0  0  0  0  0  0  0  0
    0.2561    0.2384    0.0000 C   0  0  0  0  0  0  0  0  0  0  0  0
   -0.8309    1.3859    0.0000 C   0  0  0  0  0  0  0  0  0  0  0  0
   -1.1849    0.2384    0.0000 C   0  0  0  0  0  0  0  0  0  0  0  0
    0.2561   -0.5862    0.0000 C   0  0  0  0  0  0  0  0  0  0  0  0
    1.1849    0.2384    0.0000 C   0  0  0  0  0  0  0  0  0  0  0  0
    0.7247    1.0485    0.0000 C   0  0  0  0  0  0  0  0  0  0  0  0
   -0.4602   -0.1926    0.0000 C   0  0  3  0  0  0  0  0  0  0  0  0
   -1.1849   -0.5862    0.0000 C   0  0  0  0  0  0  0  0  0  0  0  0
    0.7372   -1.3859    0.0000 C   0  0  0  0  0  0  0  0  0  0  0  0
    0.3212    1.3903    0.0000 H   0  0  0  0  0  0  0  0  0  0  0  0
   -1.2000    2.3902    0.0000 H   0  0  0  0  0  0  0  0  0  0  0  0
   -1.8558    1.0785    0.0000 H   0  0  0  0  0  0  0  0  0  0  0  0
   -2.1104    0.7754    0.0000 H   0  0  0  0  0  0  0  0  0  0  0  0
   -2.1121   -0.2956    0.0000 H   0  0  0  0  0  0  0  0  0  0  0  0
    1.7199   -0.6882    0.0000 H   0  0  0  0  0  0  0  0  0  0  0  0
    1.7199    1.1650    0.0000 H   0  0  0  0  0  0  0  0  0  0  0  0
    2.2549    0.2384    0.0000 H   0  0  0  0  0  0  0  0  0  0  0  0
    1.7947    1.0476    0.0000 H   0  0  0  0  0  0  0  0  0  0  0  0
    0.1905    1.9756    0.0000 H   0  0  0  0  0  0  0  0  0  0  0  0
    1.2605    1.9747    0.0000 H   0  0  0  0  0  0  0  0  0  0  0  0
    0.3919    0.4545    0.0000 H   0  0  0  0  0  0  0  0  0  0  0  0
   -1.7319   -1.5058    0.0000 H   0  0  0  0  0  0  0  0  0  0  0  0
   -0.4432   -1.3574    0.0000 H   0  0  0  0  0  0  0  0  0  0  0  0
    0.2374   -2.2888    0.0000 H   0  0  0  0  0  0  0  0  0  0  0  0
    1.7690   -1.3673    0.0000 H   0  0  0  0  0  0  0  0  0  0  0  0
  1  2  1  0  0  0  0
  1  3  1  0  0  0  0
  1  4  1  0  0  0  0
  1 11  1  0  0  0  0
  2  5  1  0  0  0  0
  2  6  1  0  0  0  0
  2  7  1  0  0  0  0
  3  8  1  0  0  0  0
  3 12  1  0  0  0  0
  3 13  1  0  0  0  0
  4  9  1  0  0  0  0
  4 14  1  0  0  0  0
  4 15  1  0  0  0  0
  5 10  2  0  0  0  0
  5  8  1  0  0  0  0
  6 16  1  0  0  0  0
  6 17  1  0  0  0  0
  6 18  1  0  0  0  0
  7 19  1  0  0  0  0
  7 20  1  0  0  0  0
  7 21  1  0  0  0  0
  8  9  1  0  0  0  0
  8 22  1  0  0  0  0
  9 23  1  0  0  0  0
  9 24  1  0  0  0  0
 10 25  1  0  0  0  0
 10 26  1  0  0  0  0
M  END
>  <DRUGBANK_ID>
DB15917

>  <COMMON_NAME>
Camphene

>  <CAS_NUMBER>
79-92-5

>  <UNII>
G3VG94Z26E

>  <SYNONYMS>
DL-Camphene

$$$$
