
 OpenBabel10282417072D

 40 42  0  0  1  0  0  0  0  0999 V2000
   -0.8846    1.5991    0.0000 N   0  0  0  0  0  0  0  0  0  0  0  0
   -0.0877    1.8126    0.0000 C   0  0  1  0  0  0  0  0  0  0  0  0
    0.4956    1.2293    0.0000 C   0  0  0  0  0  0  0  0  0  0  0  0
    1.2925    1.4428    0.0000 O   0  0  0  0  0  0  0  0  0  0  0  0
    0.2821    0.4324    0.0000 N   0  0  0  0  0  0  0  0  0  0  0  0
    0.8655   -0.1510    0.0000 C   0  0  2  0  0  0  0  0  0  0  0  0
    1.6905   -0.1510    0.0000 C   0  0  1  0  0  0  0  0  0  0  0  0
    2.4049    0.2615    0.0000 C   0  0  0  0  0  0  0  0  0  0  0  0
    3.1194   -0.1510    0.0000 C   0  0  0  0  0  0  0  0  0  0  0  0
    3.1194   -0.9760    0.0000 C   0  0  0  0  0  0  0  0  0  0  0  0
    3.8339   -1.3885    0.0000 Cl  0  0  0  0  0  0  0  0  0  0  0  0
    2.4049   -1.3885    0.0000 C   0  0  0  0  0  0  0  0  0  0  0  0
    1.6905   -0.9760    0.0000 N   0  0  0  0  0  0  0  0  0  0  0  0
    0.8655   -0.9760    0.0000 C   0  0  0  0  0  0  0  0  0  0  0  0
    0.2821   -1.5593    0.0000 O   0  0  0  0  0  0  0  0  0  0  0  0
    2.4049   -2.2135    0.0000 C   0  0  0  0  0  0  0  0  0  0  0  0
    1.6905   -2.6260    0.0000 O   0  0  0  0  0  0  0  0  0  0  0  0
    3.1194   -2.6260    0.0000 O   0  0  0  0  0  0  0  0  0  0  0  0
    0.1258    2.6095    0.0000 C   0  0  0  0  0  0  0  0  0  0  0  0
   -0.4576    3.1929    0.0000 C   0  0  0  0  0  0  0  0  0  0  0  0
   -0.2441    3.9898    0.0000 C   0  0  0  0  0  0  0  0  0  0  0  0
    0.5528    4.2033    0.0000 C   0  0  0  0  0  0  0  0  0  0  0  0
    1.1362    3.6199    0.0000 C   0  0  0  0  0  0  0  0  0  0  0  0
    0.9227    2.8230    0.0000 C   0  0  0  0  0  0  0  0  0  0  0  0
   -1.6058    2.3204    0.0000 H   0  0  0  0  0  0  0  0  0  0  0  0
   -1.1486    0.6139    0.0000 H   0  0  0  0  0  0  0  0  0  0  0  0
   -0.3647    0.7791    0.0000 H   0  0  0  0  0  0  0  0  0  0  0  0
   -0.6688    0.1776    0.0000 H   0  0  0  0  0  0  0  0  0  0  0  0
    1.2750    0.8376    0.0000 H   0  0  0  0  0  0  0  0  0  0  0  0
    0.9339   -0.9076    0.0000 H   0  0  0  0  0  0  0  0  0  0  0  0
    2.4049    1.3315    0.0000 H   0  0  0  0  0  0  0  0  0  0  0  0
    3.3315    0.7965    0.0000 H   0  0  0  0  0  0  0  0  0  0  0  0
    4.0460    0.3840    0.0000 H   0  0  0  0  0  0  0  0  0  0  0  0
    4.0460   -0.6860    0.0000 H   0  0  0  0  0  0  0  0  0  0  0  0
    0.8790   -2.1575    0.0000 H   0  0  0  0  0  0  0  0  0  0  0  0
   -1.4544    2.9258    0.0000 H   0  0  0  0  0  0  0  0  0  0  0  0
   -0.9738    4.7195    0.0000 H   0  0  0  0  0  0  0  0  0  0  0  0
    0.8199    5.2001    0.0000 H   0  0  0  0  0  0  0  0  0  0  0  0
    2.1330    3.8870    0.0000 H   0  0  0  0  0  0  0  0  0  0  0  0
    1.6524    2.0933    0.0000 H   0  0  0  0  0  0  0  0  0  0  0  0
  1 25  1  0  0  0  0
  1 26  1  0  0  0  0
  2  1  1  0  0  0  0
  2  3  1  0  0  0  0
  2 19  1  0  0  0  0
  2 27  1  1  0  0  0
  3  4  2  0  0  0  0
  3  5  1  0  0  0  0
  5 28  1  0  0  0  0
  6  5  1  0  0  0  0
  6  7  1  0  0  0  0
  6 14  1  0  0  0  0
  6 29  1  1  0  0  0
  7  8  1  0  0  0  0
  7 13  1  0  0  0  0
  7 30  1  6  0  0  0
  8  9  1  0  0  0  0
  8 31  1  0  0  0  0
  8 32  1  0  0  0  0
  9 10  1  0  0  0  0
  9 33  1  0  0  0  0
  9 34  1  0  0  0  0
 10 11  1  0  0  0  0
 10 12  2  0  0  0  0
 12 13  1  0  0  0  0
 12 16  1  0  0  0  0
 13 14  1  0  0  0  0
 14 15  2  0  0  0  0
 16 17  1  0  0  0  0
 16 18  2  0  0  0  0
 17 35  1  0  0  0  0
 19 20  2  0  0  0  0
 19 24  1  0  0  0  0
 20 21  1  0  0  0  0
 20 36  1  0  0  0  0
 21 22  2  0  0  0  0
 21 37  1  0  0  0  0
 22 23  1  0  0  0  0
 22 38  1  0  0  0  0
 23 24  2  0  0  0  0
 23 39  1  0  0  0  0
 24 40  1  0  0  0  0
M  END
>  <DRUGBANK_ID>
DB04293

>  <SECONDARY_ACCESSION_NUMBERS>
EXPT02052

>  <COMMON_NAME>
7-(2-Amino-2-Phenyl-Acetylamino)-3-Chloro-8-Oxo-1-Aza-Bicyclo[4.2.0]Oct-2-Ene-2-Carboxylic Acid

$$$$
