
 OpenBabel10282417072D

 30 32  0  0  0  0  0  0  0  0999 V2000
    0.9920   -2.4122    0.0000 C   0  0  0  0  0  0  0  0  0  0  0  0
   -0.4369   -2.4122    0.0000 C   0  0  0  0  0  0  0  0  0  0  0  0
   -0.4369   -1.5872    0.0000 C   0  0  0  0  0  0  0  0  0  0  0  0
   -0.4369    0.8877    0.0000 C   0  0  2  0  0  0  0  0  0  0  0  0
   -0.0244    2.1573    0.0000 C   0  0  0  0  0  0  0  0  0  0  0  0
    0.2305    1.3727    0.0000 C   0  0  0  0  0  0  0  0  0  0  0  0
   -1.2215   -2.6671    0.0000 N   0  0  0  0  0  0  0  0  0  0  0  0
    0.2775   -2.8247    0.0000 N   0  0  0  0  0  0  0  0  0  0  0  0
    1.7064   -2.8247    0.0000 N   0  0  0  0  0  0  0  0  0  0  0  0
    0.9920   -1.5872    0.0000 N   0  0  0  0  0  0  0  0  0  0  0  0
    0.2775   -1.1747    0.0000 C   0  0  0  0  0  0  0  0  0  0  0  0
    0.2775   -0.3497    0.0000 O   0  0  0  0  0  0  0  0  0  0  0  0
   -0.4369    0.0627    0.0000 C   0  0  0  0  0  0  0  0  0  0  0  0
   -0.8494    2.1573    0.0000 C   0  0  0  0  0  0  0  0  0  0  0  0
   -1.2215   -1.3322    0.0000 N   0  0  0  0  0  0  0  0  0  0  0  0
   -1.7064   -1.9997    0.0000 C   0  0  0  0  0  0  0  0  0  0  0  0
   -1.3343    2.8247    0.0000 O   0  0  0  0  0  0  0  0  0  0  0  0
   -1.1043    1.3727    0.0000 N   0  0  0  0  0  0  0  0  0  0  0  0
    0.5165    0.4020    0.0000 H   0  0  0  0  0  0  0  0  0  0  0  0
    0.6045    3.0229    0.0000 H   0  0  0  0  0  0  0  0  0  0  0  0
   -0.5102    3.1107    0.0000 H   0  0  0  0  0  0  0  0  0  0  0  0
    1.2481    1.0421    0.0000 H   0  0  0  0  0  0  0  0  0  0  0  0
    0.9871    2.1293    0.0000 H   0  0  0  0  0  0  0  0  0  0  0  0
   -1.5257   -3.6034    0.0000 H   0  0  0  0  0  0  0  0  0  0  0  0
    1.7064   -3.8092    0.0000 H   0  0  0  0  0  0  0  0  0  0  0  0
    2.5590   -2.3325    0.0000 H   0  0  0  0  0  0  0  0  0  0  0  0
   -1.3635   -0.4723    0.0000 H   0  0  0  0  0  0  0  0  0  0  0  0
   -0.4369   -1.0073    0.0000 H   0  0  0  0  0  0  0  0  0  0  0  0
   -2.7384   -1.9997    0.0000 H   0  0  0  0  0  0  0  0  0  0  0  0
   -2.0406    1.0685    0.0000 H   0  0  0  0  0  0  0  0  0  0  0  0
  1  8  2  0  0  0  0
  1  9  1  0  0  0  0
  1 10  1  0  0  0  0
  2  3  2  0  0  0  0
  2  7  1  0  0  0  0
  2  8  1  0  0  0  0
  3 11  1  0  0  0  0
  3 15  1  0  0  0  0
  4 13  1  0  0  0  0
  4 18  1  0  0  0  0
  4 19  1  1  0  0  0
  5 20  1  0  0  0  0
  5 21  1  0  0  0  0
  6  4  1  0  0  0  0
  6  5  1  0  0  0  0
  6 22  1  0  0  0  0
  6 23  1  0  0  0  0
  7 24  1  0  0  0  0
  9 25  1  0  0  0  0
  9 26  1  0  0  0  0
 11 10  2  0  0  0  0
 11 12  1  0  0  0  0
 13 12  1  0  0  0  0
 13 27  1  0  0  0  0
 13 28  1  0  0  0  0
 14  5  1  0  0  0  0
 14 17  2  0  0  0  0
 14 18  1  0  0  0  0
 16  7  1  0  0  0  0
 16 15  2  0  0  0  0
 16 29  1  0  0  0  0
 18 30  1  0  0  0  0
M  END
>  <DRUGBANK_ID>
DB02898

>  <SECONDARY_ACCESSION_NUMBERS>
EXPT03189

>  <COMMON_NAME>
(5R)-5-{[(2-Amino-3H-purin-6-yl)oxy]methyl}-2-pyrrolidinone

$$$$
