
 OpenBabel10282417072D

 21 20  0  0  0  0  0  0  0  0999 V2000
   -2.1425   -0.2107    0.0000 C   0  0  0  0  0  0  0  0  0  0  0  0
   -1.4286    0.2026    0.0000 N   0  0  0  0  0  0  0  0  0  0  0  0
   -0.7146   -0.2065    0.0000 C   0  0  0  0  0  0  0  0  0  0  0  0
   -0.0006    0.2068    0.0000 C   0  0  0  0  0  0  0  0  0  0  0  0
    0.7133   -0.2024    0.0000 C   0  0  0  0  0  0  0  0  0  0  0  0
   -2.1415   -1.0383    0.0000 O   0  0  0  0  0  0  0  0  0  0  0  0
   -1.4304    1.0293    0.0000 O   0  0  0  0  0  0  0  0  0  0  0  0
    1.4280    0.2132    0.0000 P   0  0  0  0  0  0  0  0  0  0  0  0
    1.4280    1.0383    0.0000 O   0  0  0  0  0  0  0  0  0  0  0  0
    2.1425   -0.1992    0.0000 O   0  0  0  0  0  0  0  0  0  0  0  0
    1.6415   -0.5836    0.0000 O   0  0  0  0  0  0  0  0  0  0  0  0
   -3.0369    0.3042    0.0000 H   0  0  0  0  0  0  0  0  0  0  0  0
   -0.7122   -1.2765    0.0000 H   0  0  0  0  0  0  0  0  0  0  0  0
   -1.6398   -0.7440    0.0000 H   0  0  0  0  0  0  0  0  0  0  0  0
   -0.0029    1.2768    0.0000 H   0  0  0  0  0  0  0  0  0  0  0  0
    0.9246    0.7442    0.0000 H   0  0  0  0  0  0  0  0  0  0  0  0
    0.7166   -1.2724    0.0000 H   0  0  0  0  0  0  0  0  0  0  0  0
   -0.2117   -0.7403    0.0000 H   0  0  0  0  0  0  0  0  0  0  0  0
   -0.5914    1.5161    0.0000 H   0  0  0  0  0  0  0  0  0  0  0  0
    2.1426   -1.1692    0.0000 H   0  0  0  0  0  0  0  0  0  0  0  0
    0.9556   -1.2695    0.0000 H   0  0  0  0  0  0  0  0  0  0  0  0
  1  6  2  0  0  0  0
  1  2  1  0  0  0  0
  1 12  1  0  0  0  0
  2  7  1  0  0  0  0
  2  3  1  0  0  0  0
  3  4  1  0  0  0  0
  3 13  1  0  0  0  0
  3 14  1  0  0  0  0
  4  5  1  0  0  0  0
  4 15  1  0  0  0  0
  4 16  1  0  0  0  0
  5  8  1  0  0  0  0
  5 17  1  0  0  0  0
  5 18  1  0  0  0  0
  7 19  1  0  0  0  0
  8  9  2  0  0  0  0
  8 10  1  0  0  0  0
  8 11  1  0  0  0  0
 10 20  1  0  0  0  0
 11 21  1  0  0  0  0
M  END
>  <DRUGBANK_ID>
DB02948

>  <SECONDARY_ACCESSION_NUMBERS>
EXPT01469

>  <COMMON_NAME>
Fosmidomycin

>  <CAS_NUMBER>
66508-53-0

>  <UNII>
5829E3D9I9

>  <SYNONYMS>
Fosmidomycin; Fosmidomycina; Fosmidomycine; Fosmidomycinum

$$$$
