
 OpenBabel10282417072D

 75 78  0  0  1  0  0  0  0  0999 V2000
    6.6262   -2.3490    0.0000 C   0  0  0  0  0  0  0  0  0  0  0  0
    6.3441   -1.5738    0.0000 C   0  0  0  0  0  0  0  0  0  0  0  0
    5.5316   -1.4305    0.0000 C   0  0  0  0  0  0  0  0  0  0  0  0
    5.0013   -2.0625    0.0000 C   0  0  1  0  0  0  0  0  0  0  0  0
    4.4710   -1.4305    0.0000 C   0  0  0  0  0  0  0  0  0  0  0  0
    4.7532   -0.6553    0.0000 C   0  0  0  0  0  0  0  0  0  0  0  0
    5.5656   -0.5120    0.0000 C   0  0  0  0  0  0  0  0  0  0  0  0
    5.8478    0.2632    0.0000 C   0  0  0  0  0  0  0  0  0  0  0  0
    6.6603    0.4065    0.0000 C   0  0  0  0  0  0  0  0  0  0  0  0
    7.1906   -0.2255    0.0000 C   0  0  0  0  0  0  0  0  0  0  0  0
    6.9084   -1.0007    0.0000 C   0  0  0  0  0  0  0  0  0  0  0  0
    6.0959   -1.1440    0.0000 C   0  0  0  0  0  0  0  0  0  0  0  0
    5.7158   -2.4750    0.0000 C   0  0  0  0  0  0  0  0  0  0  0  0
    5.7158   -3.3000    0.0000 C   0  0  0  0  0  0  0  0  0  0  0  0
    6.4302   -3.7125    0.0000 O   0  0  0  0  0  0  0  0  0  0  0  0
    5.0013   -3.7125    0.0000 C   0  0  0  0  0  0  0  0  0  0  0  0
    5.0013   -4.5375    0.0000 C   0  0  2  0  0  0  0  0  0  0  0  0
    4.2868   -4.9500    0.0000 C   0  0  0  0  0  0  0  0  0  0  0  0
    4.2868   -5.7750    0.0000 C   0  0  0  0  0  0  0  0  0  0  0  0
    5.7158   -4.9500    0.0000 C   0  0  0  0  0  0  0  0  0  0  0  0
    6.4302   -4.5375    0.0000 C   0  0  0  0  0  0  0  0  0  0  0  0
    7.1447   -4.9500    0.0000 C   0  0  0  0  0  0  0  0  0  0  0  0
    7.1447   -5.7750    0.0000 C   0  0  0  0  0  0  0  0  0  0  0  0
    6.4302   -6.1875    0.0000 C   0  0  0  0  0  0  0  0  0  0  0  0
    6.4302   -7.0125    0.0000 N   0  0  0  0  0  0  0  0  0  0  0  0
    5.7158   -7.4250    0.0000 S   0  0  0  0  0  0  0  0  0  0  0  0
    5.3033   -6.7105    0.0000 O   0  0  0  0  0  0  0  0  0  0  0  0
    6.1283   -8.1395    0.0000 O   0  0  0  0  0  0  0  0  0  0  0  0
    5.0013   -7.8375    0.0000 C   0  0  0  0  0  0  0  0  0  0  0  0
    5.0013   -8.6625    0.0000 N   0  0  0  0  0  0  0  0  0  0  0  0
    4.2868   -9.0750    0.0000 C   0  0  0  0  0  0  0  0  0  0  0  0
    3.5724   -8.6625    0.0000 C   0  0  0  0  0  0  0  0  0  0  0  0
    3.5724   -7.8375    0.0000 C   0  0  0  0  0  0  0  0  0  0  0  0
    4.2868   -7.4250    0.0000 C   0  0  0  0  0  0  0  0  0  0  0  0
    2.8579   -9.0750    0.0000 C   0  0  0  0  0  0  0  0  0  0  0  0
    2.1434   -9.4875    0.0000 F   0  0  0  0  0  0  0  0  0  0  0  0
    2.4454   -8.3605    0.0000 F   0  0  0  0  0  0  0  0  0  0  0  0
    3.2704   -9.7895    0.0000 F   0  0  0  0  0  0  0  0  0  0  0  0
    5.7158   -5.7750    0.0000 C   0  0  0  0  0  0  0  0  0  0  0  0
    4.2868   -3.3000    0.0000 C   0  0  0  0  0  0  0  0  0  0  0  0
    3.5724   -3.7125    0.0000 O   0  0  0  0  0  0  0  0  0  0  0  0
    4.2868   -2.4750    0.0000 O   0  0  0  0  0  0  0  0  0  0  0  0
    5.9384   -3.1686    0.0000 H   0  0  0  0  0  0  0  0  0  0  0  0
    7.6799   -2.5349    0.0000 H   0  0  0  0  0  0  0  0  0  0  0  0
    6.9921   -3.3545    0.0000 H   0  0  0  0  0  0  0  0  0  0  0  0
    7.0319   -0.7542    0.0000 H   0  0  0  0  0  0  0  0  0  0  0  0
    5.9782   -0.5683    0.0000 H   0  0  0  0  0  0  0  0  0  0  0  0
    5.1657   -0.4250    0.0000 H   0  0  0  0  0  0  0  0  0  0  0  0
    4.4779   -1.2447    0.0000 H   0  0  0  0  0  0  0  0  0  0  0  0
    3.4172   -1.6163    0.0000 H   0  0  0  0  0  0  0  0  0  0  0  0
    3.7833   -0.6108    0.0000 H   0  0  0  0  0  0  0  0  0  0  0  0
    4.0654    0.1644    0.0000 H   0  0  0  0  0  0  0  0  0  0  0  0
    5.1191    0.3502    0.0000 H   0  0  0  0  0  0  0  0  0  0  0  0
    5.1844    1.0538    0.0000 H   0  0  0  0  0  0  0  0  0  0  0  0
    7.0132    1.3763    0.0000 H   0  0  0  0  0  0  0  0  0  0  0  0
    8.2069   -0.0463    0.0000 H   0  0  0  0  0  0  0  0  0  0  0  0
    7.5718   -1.7913    0.0000 H   0  0  0  0  0  0  0  0  0  0  0  0
    5.7430   -2.1138    0.0000 H   0  0  0  0  0  0  0  0  0  0  0  0
    6.6424   -1.9400    0.0000 H   0  0  0  0  0  0  0  0  0  0  0  0
    6.6424   -3.0100    0.0000 H   0  0  0  0  0  0  0  0  0  0  0  0
    6.4302   -4.6495    0.0000 H   0  0  0  0  0  0  0  0  0  0  0  0
    4.0747   -4.0025    0.0000 H   0  0  0  0  0  0  0  0  0  0  0  0
    3.3602   -4.4150    0.0000 H   0  0  0  0  0  0  0  0  0  0  0  0
    3.3602   -5.4850    0.0000 H   0  0  0  0  0  0  0  0  0  0  0  0
    3.3602   -6.3100    0.0000 H   0  0  0  0  0  0  0  0  0  0  0  0
    5.2134   -6.3100    0.0000 H   0  0  0  0  0  0  0  0  0  0  0  0
    4.2868   -6.8450    0.0000 H   0  0  0  0  0  0  0  0  0  0  0  0
    6.4302   -3.5055    0.0000 H   0  0  0  0  0  0  0  0  0  0  0  0
    8.0384   -4.4340    0.0000 H   0  0  0  0  0  0  0  0  0  0  0  0
    8.0384   -6.2910    0.0000 H   0  0  0  0  0  0  0  0  0  0  0  0
    7.2828   -7.5047    0.0000 H   0  0  0  0  0  0  0  0  0  0  0  0
    4.2868  -10.1070    0.0000 H   0  0  0  0  0  0  0  0  0  0  0  0
    2.6787   -7.3215    0.0000 H   0  0  0  0  0  0  0  0  0  0  0  0
    4.2868   -6.3930    0.0000 H   0  0  0  0  0  0  0  0  0  0  0  0
    4.8221   -6.2910    0.0000 H   0  0  0  0  0  0  0  0  0  0  0  0
  1  2  1  0  0  0  0
  1 43  1  0  0  0  0
  1 44  1  0  0  0  0
  1 45  1  0  0  0  0
  2  3  1  0  0  0  0
  2 46  1  0  0  0  0
  2 47  1  0  0  0  0
  3 48  1  0  0  0  0
  3 49  1  0  0  0  0
  4  3  1  1  0  0  0
  4  5  1  0  0  0  0
  4 13  1  0  0  0  0
  4 42  1  0  0  0  0
  5  6  1  0  0  0  0
  5 50  1  0  0  0  0
  5 51  1  0  0  0  0
  6  7  1  0  0  0  0
  6 52  1  0  0  0  0
  6 53  1  0  0  0  0
  7  8  2  0  0  0  0
  7 12  1  0  0  0  0
  8  9  1  0  0  0  0
  8 54  1  0  0  0  0
  9 10  2  0  0  0  0
  9 55  1  0  0  0  0
 10 11  1  0  0  0  0
 10 56  1  0  0  0  0
 11 12  2  0  0  0  0
 11 57  1  0  0  0  0
 12 58  1  0  0  0  0
 13 14  1  0  0  0  0
 13 59  1  0  0  0  0
 13 60  1  0  0  0  0
 14 15  1  0  0  0  0
 14 16  2  0  0  0  0
 15 61  1  0  0  0  0
 16 40  1  0  0  0  0
 17 16  1  0  0  0  0
 17 18  1  0  0  0  0
 17 20  1  0  0  0  0
 17 62  1  6  0  0  0
 18 19  1  0  0  0  0
 18 63  1  0  0  0  0
 18 64  1  0  0  0  0
 19 65  1  0  0  0  0
 19 66  1  0  0  0  0
 19 67  1  0  0  0  0
 20 21  2  0  0  0  0
 20 39  1  0  0  0  0
 21 22  1  0  0  0  0
 21 68  1  0  0  0  0
 22 23  2  0  0  0  0
 22 69  1  0  0  0  0
 23 24  1  0  0  0  0
 23 70  1  0  0  0  0
 24 25  1  0  0  0  0
 24 39  2  0  0  0  0
 25 26  1  0  0  0  0
 25 71  1  0  0  0  0
 26 27  2  0  0  0  0
 26 28  2  0  0  0  0
 26 29  1  0  0  0  0
 29 30  2  0  0  0  0
 29 34  1  0  0  0  0
 30 31  1  0  0  0  0
 31 32  2  0  0  0  0
 31 72  1  0  0  0  0
 32 33  1  0  0  0  0
 32 35  1  0  0  0  0
 33 34  2  0  0  0  0
 33 73  1  0  0  0  0
 34 74  1  0  0  0  0
 35 36  1  0  0  0  0
 35 37  1  0  0  0  0
 35 38  1  0  0  0  0
 39 75  1  0  0  0  0
 40 41  2  0  0  0  0
 40 42  1  0  0  0  0
M  ISO  1  17  14
M  END
>  <DRUGBANK_ID>
DB15108

>  <COMMON_NAME>
Tipranavir C-14

>  <CAS_NUMBER>
1141509-98-9

>  <UNII>
VU8T5RB4VW

>  <SYNONYMS>
14C-TIPRANAVIR

$$$$
