
 OpenBabel10282417072D

 80 84  0  0  0  0  0  0  0  0999 V2000
    2.4454   14.7395    0.0000 C   0  0  0  0  0  0  0  0  0  0  0  0
    2.4454   13.9145    0.0000 C   0  0  0  0  0  0  0  0  0  0  0  0
    3.1599   13.5020    0.0000 C   0  0  0  0  0  0  0  0  0  0  0  0
    3.1599   12.6770    0.0000 S   0  0  0  0  0  0  0  0  0  0  0  0
    2.3349   12.6770    0.0000 O   0  0  0  0  0  0  0  0  0  0  0  0
    3.9849   12.6770    0.0000 O   0  0  0  0  0  0  0  0  0  0  0  0
    3.1599   11.8520    0.0000 N   0  0  0  0  0  0  0  0  0  0  0  0
    3.8743   11.4395    0.0000 C   0  0  0  0  0  0  0  0  0  0  0  0
    3.8743   10.6145    0.0000 C   0  0  0  0  0  0  0  0  0  0  0  0
    3.1599   10.2020    0.0000 N   0  0  0  0  0  0  0  0  0  0  0  0
    2.4454   10.6145    0.0000 C   0  0  0  0  0  0  0  0  0  0  0  0
    2.4454   11.4395    0.0000 C   0  0  0  0  0  0  0  0  0  0  0  0
    3.1599    9.3770    0.0000 C   0  0  0  0  0  0  0  0  0  0  0  0
    2.4454    8.9645    0.0000 C   0  0  0  0  0  0  0  0  0  0  0  0
    2.4454    8.1395    0.0000 C   0  0  0  0  0  0  0  0  0  0  0  0
    1.7309    7.7270    0.0000 C   0  0  0  0  0  0  0  0  0  0  0  0
    1.0164    8.1395    0.0000 C   0  0  0  0  0  0  0  0  0  0  0  0
    1.0164    8.9645    0.0000 C   0  0  0  0  0  0  0  0  0  0  0  0
    1.7309    9.3770    0.0000 C   0  0  0  0  0  0  0  0  0  0  0  0
    0.3020    7.7270    0.0000 N   0  0  0  0  0  0  0  0  0  0  0  0
    0.3020    6.9020    0.0000 C   0  0  0  0  0  0  0  0  0  0  0  0
    1.0164    6.4895    0.0000 O   0  0  0  0  0  0  0  0  0  0  0  0
   -0.4125    6.4895    0.0000 C   0  0  0  0  0  0  0  0  0  0  0  0
   -0.4125    5.6645    0.0000 C   0  0  0  0  0  0  0  0  0  0  0  0
   -1.1270    5.2520    0.0000 C   0  0  0  0  0  0  0  0  0  0  0  0
   -1.8414    5.6645    0.0000 C   0  0  0  0  0  0  0  0  0  0  0  0
   -1.8414    6.4895    0.0000 C   0  0  0  0  0  0  0  0  0  0  0  0
   -1.1270    6.9020    0.0000 C   0  0  0  0  0  0  0  0  0  0  0  0
   -2.5559    5.2520    0.0000 C   0  0  0  0  0  0  0  0  0  0  0  0
   -2.5559    4.4270    0.0000 C   0  0  0  0  0  0  0  0  0  0  0  0
   -3.2704    4.0145    0.0000 C   0  0  0  0  0  0  0  0  0  0  0  0
   -3.9849    4.4270    0.0000 C   0  0  0  0  0  0  0  0  0  0  0  0
   -3.9849    5.2520    0.0000 C   0  0  0  0  0  0  0  0  0  0  0  0
   -3.2704    5.6645    0.0000 C   0  0  0  0  0  0  0  0  0  0  0  0
   -3.2704    6.4895    0.0000 O   0  0  0  0  0  0  0  0  0  0  0  0
   -3.9849    6.9020    0.0000 C   0  0  0  0  0  0  0  0  0  0  0  0
   -3.5724    7.6164    0.0000 F   0  0  0  0  0  0  0  0  0  0  0  0
   -4.3974    6.1875    0.0000 F   0  0  0  0  0  0  0  0  0  0  0  0
   -4.6993    7.3145    0.0000 F   0  0  0  0  0  0  0  0  0  0  0  0
   -3.2704    3.1895    0.0000 N   0  0  0  0  0  0  0  0  0  0  0  0
   -2.5559    2.7770    0.0000 C   0  0  0  0  0  0  0  0  0  0  0  0
   -1.8414    3.1895    0.0000 O   0  0  0  0  0  0  0  0  0  0  0  0
   -2.5559    1.9520    0.0000 C   0  0  0  0  0  0  0  0  0  0  0  0
   -2.1434    1.2375    0.0000 C   0  0  0  0  0  0  0  0  0  0  0  0
   -2.9684    1.2375    0.0000 C   0  0  0  0  0  0  0  0  0  0  0  0
    3.3720   15.2745    0.0000 H   0  0  0  0  0  0  0  0  0  0  0  0
    1.5188   15.2745    0.0000 H   0  0  0  0  0  0  0  0  0  0  0  0
    2.4454   15.8095    0.0000 H   0  0  0  0  0  0  0  0  0  0  0  0
    1.5188   13.3795    0.0000 H   0  0  0  0  0  0  0  0  0  0  0  0
    2.4454   12.8445    0.0000 H   0  0  0  0  0  0  0  0  0  0  0  0
    4.0865   14.0370    0.0000 H   0  0  0  0  0  0  0  0  0  0  0  0
    4.0865   12.9670    0.0000 H   0  0  0  0  0  0  0  0  0  0  0  0
    4.8010   11.9745    0.0000 H   0  0  0  0  0  0  0  0  0  0  0  0
    4.8009   10.9045    0.0000 H   0  0  0  0  0  0  0  0  0  0  0  0
    4.8010   10.0795    0.0000 H   0  0  0  0  0  0  0  0  0  0  0  0
    3.8743    9.5445    0.0000 H   0  0  0  0  0  0  0  0  0  0  0  0
    1.5188   10.0795    0.0000 H   0  0  0  0  0  0  0  0  0  0  0  0
    1.5188   11.1495    0.0000 H   0  0  0  0  0  0  0  0  0  0  0  0
    1.5188   11.9745    0.0000 H   0  0  0  0  0  0  0  0  0  0  0  0
    2.4454   12.5095    0.0000 H   0  0  0  0  0  0  0  0  0  0  0  0
    4.0865    8.8420    0.0000 H   0  0  0  0  0  0  0  0  0  0  0  0
    3.1599    8.3070    0.0000 H   0  0  0  0  0  0  0  0  0  0  0  0
    3.3391    7.6235    0.0000 H   0  0  0  0  0  0  0  0  0  0  0  0
    1.7309    6.6950    0.0000 H   0  0  0  0  0  0  0  0  0  0  0  0
    0.1227    9.4805    0.0000 H   0  0  0  0  0  0  0  0  0  0  0  0
    1.7309   10.4090    0.0000 H   0  0  0  0  0  0  0  0  0  0  0  0
   -0.5506    8.2192    0.0000 H   0  0  0  0  0  0  0  0  0  0  0  0
    0.4812    5.1485    0.0000 H   0  0  0  0  0  0  0  0  0  0  0  0
   -1.1270    4.2200    0.0000 H   0  0  0  0  0  0  0  0  0  0  0  0
   -2.7351    7.0055    0.0000 H   0  0  0  0  0  0  0  0  0  0  0  0
   -1.1270    7.9340    0.0000 H   0  0  0  0  0  0  0  0  0  0  0  0
   -1.6622    3.9110    0.0000 H   0  0  0  0  0  0  0  0  0  0  0  0
   -4.8786    3.9110    0.0000 H   0  0  0  0  0  0  0  0  0  0  0  0
   -4.8786    5.7680    0.0000 H   0  0  0  0  0  0  0  0  0  0  0  0
   -4.1230    2.6972    0.0000 H   0  0  0  0  0  0  0  0  0  0  0  0
   -2.5559    0.8820    0.0000 H   0  0  0  0  0  0  0  0  0  0  0  0
   -1.2168    0.7025    0.0000 H   0  0  0  0  0  0  0  0  0  0  0  0
   -2.4203    0.2040    0.0000 H   0  0  0  0  0  0  0  0  0  0  0  0
   -3.8950    0.7025    0.0000 H   0  0  0  0  0  0  0  0  0  0  0  0
   -3.7250    1.9941    0.0000 H   0  0  0  0  0  0  0  0  0  0  0  0
  1  2  1  0  0  0  0
  1 46  1  0  0  0  0
  1 47  1  0  0  0  0
  1 48  1  0  0  0  0
  2  3  1  0  0  0  0
  2 49  1  0  0  0  0
  2 50  1  0  0  0  0
  3  4  1  0  0  0  0
  3 51  1  0  0  0  0
  3 52  1  0  0  0  0
  4  5  2  0  0  0  0
  4  6  2  0  0  0  0
  4  7  1  0  0  0  0
  7  8  1  0  0  0  0
  7 12  1  0  0  0  0
  8  9  1  0  0  0  0
  8 53  1  0  0  0  0
  8 54  1  0  0  0  0
  9 10  1  0  0  0  0
  9 55  1  0  0  0  0
  9 56  1  0  0  0  0
 10 11  1  0  0  0  0
 10 13  1  0  0  0  0
 11 12  1  0  0  0  0
 11 57  1  0  0  0  0
 11 58  1  0  0  0  0
 12 59  1  0  0  0  0
 12 60  1  0  0  0  0
 13 14  1  0  0  0  0
 13 61  1  0  0  0  0
 13 62  1  0  0  0  0
 14 15  2  0  0  0  0
 14 19  1  0  0  0  0
 15 16  1  0  0  0  0
 15 63  1  0  0  0  0
 16 17  2  0  0  0  0
 16 64  1  0  0  0  0
 17 18  1  0  0  0  0
 17 20  1  0  0  0  0
 18 19  2  0  0  0  0
 18 65  1  0  0  0  0
 19 66  1  0  0  0  0
 20 21  1  0  0  0  0
 20 67  1  0  0  0  0
 21 22  2  0  0  0  0
 21 23  1  0  0  0  0
 23 24  2  0  0  0  0
 23 28  1  0  0  0  0
 24 25  1  0  0  0  0
 24 68  1  0  0  0  0
 25 26  2  0  0  0  0
 25 69  1  0  0  0  0
 26 27  1  0  0  0  0
 26 29  1  0  0  0  0
 27 28  2  0  0  0  0
 27 70  1  0  0  0  0
 28 71  1  0  0  0  0
 29 30  2  0  0  0  0
 29 34  1  0  0  0  0
 30 31  1  0  0  0  0
 30 72  1  0  0  0  0
 31 32  2  0  0  0  0
 31 40  1  0  0  0  0
 32 33  1  0  0  0  0
 32 73  1  0  0  0  0
 33 34  2  0  0  0  0
 33 74  1  0  0  0  0
 34 35  1  0  0  0  0
 35 36  1  0  0  0  0
 36 37  1  0  0  0  0
 36 38  1  0  0  0  0
 36 39  1  0  0  0  0
 40 41  1  0  0  0  0
 40 75  1  0  0  0  0
 41 42  2  0  0  0  0
 41 43  1  0  0  0  0
 43 44  1  0  0  0  0
 43 45  1  0  0  0  0
 43 76  1  0  0  0  0
 44 45  1  0  0  0  0
 44 77  1  0  0  0  0
 44 78  1  0  0  0  0
 45 79  1  0  0  0  0
 45 80  1  0  0  0  0
M  END
>  <DRUGBANK_ID>
DB12724

>  <COMMON_NAME>
AZD-7295

>  <CAS_NUMBER>
929890-64-2

>  <UNII>
102MC1467J

$$$$
