
 OpenBabel10282417072D

 58 61  0  0  0  0  0  0  0  0999 V2000
    0.1501   -1.1436    0.0000 C   0  0  1  0  0  0  0  0  0  0  0  0
   -0.5491   -1.5534    0.0000 C   0  0  1  0  0  0  0  0  0  0  0  0
    0.1501   -0.3172    0.0000 C   0  0  1  0  0  0  0  0  0  0  0  0
    0.9319   -1.4035    0.0000 C   0  0  0  0  0  0  0  0  0  0  0  0
   -1.2730   -1.1436    0.0000 C   0  0  1  0  0  0  0  0  0  0  0  0
   -0.5491   -2.3797    0.0000 C   0  0  0  0  0  0  0  0  0  0  0  0
    0.9319   -0.0648    0.0000 C   0  0  2  0  0  0  0  0  0  0  0  0
   -0.5491    0.0785    0.0000 C   0  0  0  0  0  0  0  0  0  0  0  0
    0.1671    0.5259    0.0000 C   0  0  0  0  0  0  0  0  0  0  0  0
    1.4239   -0.7308    0.0000 C   0  0  0  0  0  0  0  0  0  0  0  0
   -1.9764   -1.5534    0.0000 C   0  0  0  0  0  0  0  0  0  0  0  0
   -1.2730   -0.3172    0.0000 C   0  0  0  0  0  0  0  0  0  0  0  0
   -1.2730   -2.7891    0.0000 C   0  0  0  0  0  0  0  0  0  0  0  0
    1.1919    0.7102    0.0000 O   0  0  0  0  0  0  0  0  0  0  0  0
   -1.9764   -2.3797    0.0000 C   0  0  0  0  0  0  0  0  0  0  0  0
   -2.6934   -1.1436    0.0000 C   0  0  0  0  0  0  0  0  0  0  0  0
    2.0012    0.8808    0.0000 C   0  0  0  0  0  0  0  0  0  0  0  0
   -2.6934   -2.7891    0.0000 C   0  0  0  0  0  0  0  0  0  0  0  0
   -3.4072   -1.5534    0.0000 C   0  0  0  0  0  0  0  0  0  0  0  0
    2.2468    1.6626    0.0000 C   0  0  0  0  0  0  0  0  0  0  0  0
    2.5401    0.2695    0.0000 O   0  0  0  0  0  0  0  0  0  0  0  0
   -3.4072   -2.3797    0.0000 C   0  0  0  0  0  0  0  0  0  0  0  0
    3.0490    1.8365    0.0000 C   0  0  0  0  0  0  0  0  0  0  0  0
   -4.1176   -2.7891    0.0000 O   0  0  0  0  0  0  0  0  0  0  0  0
    3.3049    2.6184    0.0000 C   0  0  0  0  0  0  0  0  0  0  0  0
    4.1176    2.7891    0.0000 C   0  0  0  0  0  0  0  0  0  0  0  0
    0.1432   -1.9594    0.0000 H   0  0  0  0  0  0  0  0  0  0  0  0
   -0.5559   -0.7308    0.0000 H   0  0  0  0  0  0  0  0  0  0  0  0
   -1.2799   -1.9594    0.0000 H   0  0  0  0  0  0  0  0  0  0  0  0
    1.2575   -2.4228    0.0000 H   0  0  0  0  0  0  0  0  0  0  0  0
    1.9880   -1.5752    0.0000 H   0  0  0  0  0  0  0  0  0  0  0  0
    0.3752   -2.9188    0.0000 H   0  0  0  0  0  0  0  0  0  0  0  0
   -0.5562   -3.4497    0.0000 H   0  0  0  0  0  0  0  0  0  0  0  0
    0.1796    0.6961    0.0000 H   0  0  0  0  0  0  0  0  0  0  0  0
   -0.5412    1.1485    0.0000 H   0  0  0  0  0  0  0  0  0  0  0  0
   -1.4674    0.6277    0.0000 H   0  0  0  0  0  0  0  0  0  0  0  0
    1.1043    1.0421    0.0000 H   0  0  0  0  0  0  0  0  0  0  0  0
   -0.7486    1.0795    0.0000 H   0  0  0  0  0  0  0  0  0  0  0  0
    0.1887    1.5957    0.0000 H   0  0  0  0  0  0  0  0  0  0  0  0
    2.4939   -0.7282    0.0000 H   0  0  0  0  0  0  0  0  0  0  0  0
    1.9047    0.2251    0.0000 H   0  0  0  0  0  0  0  0  0  0  0  0
   -2.1933    0.2286    0.0000 H   0  0  0  0  0  0  0  0  0  0  0  0
   -1.2543    0.7526    0.0000 H   0  0  0  0  0  0  0  0  0  0  0  0
   -1.2796   -3.8591    0.0000 H   0  0  0  0  0  0  0  0  0  0  0  0
   -2.2022   -3.3196    0.0000 H   0  0  0  0  0  0  0  0  0  0  0  0
   -2.6944   -0.1116    0.0000 H   0  0  0  0  0  0  0  0  0  0  0  0
   -2.6944   -3.8211    0.0000 H   0  0  0  0  0  0  0  0  0  0  0  0
   -4.3003   -1.0363    0.0000 H   0  0  0  0  0  0  0  0  0  0  0  0
    1.5254    2.4528    0.0000 H   0  0  0  0  0  0  0  0  0  0  0  0
    2.5719    2.6820    0.0000 H   0  0  0  0  0  0  0  0  0  0  0  0
    3.7657    1.0420    0.0000 H   0  0  0  0  0  0  0  0  0  0  0  0
    4.0957    2.0583    0.0000 H   0  0  0  0  0  0  0  0  0  0  0  0
   -4.9287   -2.3200    0.0000 H   0  0  0  0  0  0  0  0  0  0  0  0
    2.5907    3.4152    0.0000 H   0  0  0  0  0  0  0  0  0  0  0  0
    3.6379    3.6353    0.0000 H   0  0  0  0  0  0  0  0  0  0  0  0
    4.8317    1.9922    0.0000 H   0  0  0  0  0  0  0  0  0  0  0  0
    4.4507    3.8059    0.0000 H   0  0  0  0  0  0  0  0  0  0  0  0
    5.1648    3.0090    0.0000 H   0  0  0  0  0  0  0  0  0  0  0  0
  1  2  1  0  0  0  0
  1  3  1  0  0  0  0
  1  4  1  0  0  0  0
  1 27  1  6  0  0  0
  2  5  1  0  0  0  0
  2  6  1  0  0  0  0
  2 28  1  1  0  0  0
  3  7  1  0  0  0  0
  3  8  1  0  0  0  0
  3  9  1  1  0  0  0
  4 10  1  0  0  0  0
  4 30  1  0  0  0  0
  4 31  1  0  0  0  0
  5 11  1  0  0  0  0
  5 12  1  0  0  0  0
  5 29  1  6  0  0  0
  6 13  1  0  0  0  0
  6 32  1  0  0  0  0
  6 33  1  0  0  0  0
  7 14  1  0  0  0  0
  7 10  1  0  0  0  0
  7 34  1  6  0  0  0
  8 12  1  0  0  0  0
  8 35  1  0  0  0  0
  8 36  1  0  0  0  0
  9 37  1  0  0  0  0
  9 38  1  0  0  0  0
  9 39  1  0  0  0  0
 10 40  1  0  0  0  0
 10 41  1  0  0  0  0
 11 15  2  0  0  0  0
 11 16  1  0  0  0  0
 12 42  1  0  0  0  0
 12 43  1  0  0  0  0
 13 15  1  0  0  0  0
 13 44  1  0  0  0  0
 13 45  1  0  0  0  0
 14 17  1  0  0  0  0
 15 18  1  0  0  0  0
 16 19  2  0  0  0  0
 16 46  1  0  0  0  0
 17 20  1  0  0  0  0
 17 21  2  0  0  0  0
 18 22  2  0  0  0  0
 18 47  1  0  0  0  0
 19 22  1  0  0  0  0
 19 48  1  0  0  0  0
 20 23  1  0  0  0  0
 20 49  1  0  0  0  0
 20 50  1  0  0  0  0
 22 24  1  0  0  0  0
 23 25  1  0  0  0  0
 23 51  1  0  0  0  0
 23 52  1  0  0  0  0
 24 53  1  0  0  0  0
 25 26  1  0  0  0  0
 25 54  1  0  0  0  0
 25 55  1  0  0  0  0
 26 56  1  0  0  0  0
 26 57  1  0  0  0  0
 26 58  1  0  0  0  0
M  END
>  <DRUGBANK_ID>
DB13956

>  <SECONDARY_ACCESSION_NUMBERS>
DBSALT000068

>  <COMMON_NAME>
Estradiol valerate

>  <CAS_NUMBER>
979-32-8

>  <UNII>
OKG364O896

>  <SYNONYMS>
Estradiol valerate

$$$$
