
 OpenBabel10282417072D

 60 63  0  0  0  0  0  0  0  0999 V2000
    1.2083    2.4953    0.0000 C   0  0  0  0  0  0  0  0  0  0  0  0
    2.2188    2.1913    0.0000 C   0  0  0  0  0  0  0  0  0  0  0  0
   -0.8279   -5.1066    0.0000 C   0  0  0  0  0  0  0  0  0  0  0  0
    0.0806    4.3642    0.0000 C   0  0  0  0  0  0  0  0  0  0  0  0
   -0.7039    4.6191    0.0000 C   0  0  0  0  0  0  0  0  0  0  0  0
    0.2522    3.5572    0.0000 C   0  0  0  0  0  0  0  0  0  0  0  0
   -2.1271   -2.4308    0.0000 C   0  0  0  0  0  0  0  0  0  0  0  0
   -1.9556   -3.2377    0.0000 C   0  0  0  0  0  0  0  0  0  0  0  0
    1.8063    0.0967    0.0000 C   0  0  0  0  0  0  0  0  0  0  0  0
    2.6313    0.0967    0.0000 C   0  0  0  0  0  0  0  0  0  0  0  0
   -1.1455    3.2601    0.0000 C   0  0  0  0  0  0  0  0  0  0  0  0
    0.1536    0.5842    0.0000 C   0  0  0  0  0  0  0  0  0  0  0  0
   -1.6855   -1.0718    0.0000 C   0  0  0  0  0  0  0  0  0  0  0  0
   -0.5579   -2.9406    0.0000 C   0  0  0  0  0  0  0  0  0  0  0  0
    0.5952    1.9432    0.0000 C   0  0  0  0  0  0  0  0  0  0  0  0
   -1.3170    4.0671    0.0000 C   0  0  0  0  0  0  0  0  0  0  0  0
   -1.5140   -1.8787    0.0000 C   0  0  0  0  0  0  0  0  0  0  0  0
   -0.3608    3.0052    0.0000 C   0  0  0  0  0  0  0  0  0  0  0  0
   -1.1710   -3.4927    0.0000 C   0  0  0  0  0  0  0  0  0  0  0  0
    0.7667    1.1363    0.0000 C   0  0  0  0  0  0  0  0  0  0  0  0
   -0.6309    0.8392    0.0000 C   0  0  0  0  0  0  0  0  0  0  0  0
    1.5514    0.8813    0.0000 C   0  0  0  0  0  0  0  0  0  0  0  0
   -1.2440    0.2871    0.0000 C   0  0  0  0  0  0  0  0  0  0  0  0
   -0.8024    1.6461    0.0000 C   0  0  0  0  0  0  0  0  0  0  0  0
   -2.1016    4.3220    0.0000 C   0  0  0  0  0  0  0  0  0  0  0  0
   -2.8862    4.5769    0.0000 F   0  0  0  0  0  0  0  0  0  0  0  0
   -1.8467    5.1066    0.0000 F   0  0  0  0  0  0  0  0  0  0  0  0
   -2.3566    3.5374    0.0000 F   0  0  0  0  0  0  0  0  0  0  0  0
   -0.7294   -2.1337    0.0000 N   0  0  0  0  0  0  0  0  0  0  0  0
   -1.0724   -0.5197    0.0000 N   0  0  0  0  0  0  0  0  0  0  0  0
    2.8862    0.8813    0.0000 N   0  0  0  0  0  0  0  0  0  0  0  0
    2.2188    1.3663    0.0000 N   0  0  0  0  0  0  0  0  0  0  0  0
   -0.1893    2.1982    0.0000 N   0  0  0  0  0  0  0  0  0  0  0  0
   -2.0286    0.5421    0.0000 O   0  0  0  0  0  0  0  0  0  0  0  0
   -1.5870    1.9011    0.0000 O   0  0  0  0  0  0  0  0  0  0  0  0
   -0.1925   -4.1281    0.0000 O   0  0  0  0  0  0  0  0  0  0  0  0
   -1.8064   -4.4712    0.0000 O   0  0  0  0  0  0  0  0  0  0  0  0
   -0.9994   -4.2997    0.0000 S   0  0  0  0  0  0  0  0  0  0  0  0
    2.2259    2.1647    0.0000 H   0  0  0  0  0  0  0  0  0  0  0  0
    0.9858    3.5419    0.0000 H   0  0  0  0  0  0  0  0  0  0  0  0
    2.0034    3.2113    0.0000 H   0  0  0  0  0  0  0  0  0  0  0  0
    3.1454    2.7263    0.0000 H   0  0  0  0  0  0  0  0  0  0  0  0
    1.2922    2.7263    0.0000 H   0  0  0  0  0  0  0  0  0  0  0  0
    2.2188    3.2613    0.0000 H   0  0  0  0  0  0  0  0  0  0  0  0
   -1.6231   -5.8226    0.0000 H   0  0  0  0  0  0  0  0  0  0  0  0
    0.1897   -5.4373    0.0000 H   0  0  0  0  0  0  0  0  0  0  0  0
   -0.6054   -6.1532    0.0000 H   0  0  0  0  0  0  0  0  0  0  0  0
    0.8475    5.0548    0.0000 H   0  0  0  0  0  0  0  0  0  0  0  0
   -0.9184    5.6286    0.0000 H   0  0  0  0  0  0  0  0  0  0  0  0
    1.2337    3.2384    0.0000 H   0  0  0  0  0  0  0  0  0  0  0  0
   -3.1086   -2.1119    0.0000 H   0  0  0  0  0  0  0  0  0  0  0  0
   -2.7226   -3.9282    0.0000 H   0  0  0  0  0  0  0  0  0  0  0  0
    1.1997   -0.7382    0.0000 H   0  0  0  0  0  0  0  0  0  0  0  0
    3.2379   -0.7382    0.0000 H   0  0  0  0  0  0  0  0  0  0  0  0
   -1.9124    2.5695    0.0000 H   0  0  0  0  0  0  0  0  0  0  0  0
    0.3681   -0.4253    0.0000 H   0  0  0  0  0  0  0  0  0  0  0  0
   -2.7031   -0.7412    0.0000 H   0  0  0  0  0  0  0  0  0  0  0  0
   -1.9080   -0.0252    0.0000 H   0  0  0  0  0  0  0  0  0  0  0  0
    0.4236   -3.2595    0.0000 H   0  0  0  0  0  0  0  0  0  0  0  0
   -0.1361   -0.8238    0.0000 H   0  0  0  0  0  0  0  0  0  0  0  0
  1 39  1  0  0  0  0
  1 40  1  0  0  0  0
  1 41  1  0  0  0  0
  2 42  1  0  0  0  0
  2 43  1  0  0  0  0
  2 44  1  0  0  0  0
  3 45  1  0  0  0  0
  3 46  1  0  0  0  0
  3 47  1  0  0  0  0
  4 48  1  0  0  0  0
  5  4  2  0  0  0  0
  5 49  1  0  0  0  0
  6  4  1  0  0  0  0
  6 50  1  0  0  0  0
  7 51  1  0  0  0  0
  8  7  2  0  0  0  0
  8 52  1  0  0  0  0
  9 53  1  0  0  0  0
 10  9  1  0  0  0  0
 10 54  1  0  0  0  0
 11 55  1  0  0  0  0
 12 56  1  0  0  0  0
 13 57  1  0  0  0  0
 13 58  1  0  0  0  0
 14 59  1  0  0  0  0
 15  1  1  0  0  0  0
 16  5  1  0  0  0  0
 16 11  2  0  0  0  0
 17  7  1  0  0  0  0
 17 13  1  0  0  0  0
 18  6  2  0  0  0  0
 18 11  1  0  0  0  0
 19  8  1  0  0  0  0
 19 14  2  0  0  0  0
 20 12  1  0  0  0  0
 20 15  2  0  0  0  0
 21 12  2  0  0  0  0
 22  9  2  0  0  0  0
 22 20  1  0  0  0  0
 23 21  1  0  0  0  0
 24 21  1  0  0  0  0
 25 16  1  0  0  0  0
 26 25  1  0  0  0  0
 27 25  1  0  0  0  0
 28 25  1  0  0  0  0
 29 14  1  0  0  0  0
 29 17  2  0  0  0  0
 30 13  1  0  0  0  0
 30 23  1  0  0  0  0
 30 60  1  0  0  0  0
 31 10  2  0  0  0  0
 32  2  1  0  0  0  0
 32 22  1  0  0  0  0
 32 31  1  0  0  0  0
 33 15  1  0  0  0  0
 33 18  1  0  0  0  0
 33 24  1  0  0  0  0
 34 23  2  0  0  0  0
 35 24  2  0  0  0  0
 38  3  1  0  0  0  0
 38 19  1  0  0  0  0
 38 36  2  0  0  0  0
 38 37  2  0  0  0  0
M  END
>  <DRUGBANK_ID>
DB11863

>  <COMMON_NAME>
Alvelestat

>  <CAS_NUMBER>
848141-11-7

>  <UNII>
6Y5629322X

>  <SYNONYMS>
Alvelestat

$$$$
