
 OpenBabel10282417072D

 46 50  0  0  0  0  0  0  0  0999 V2000
   -1.0717    0.4124    0.0000 C   0  0  0  0  0  0  0  0  0  0  0  0
   -1.0717   -0.4125    0.0000 C   0  0  0  0  0  0  0  0  0  0  0  0
   -1.7863    0.8249    0.0000 C   0  0  0  0  0  0  0  0  0  0  0  0
   -1.7863   -0.8250    0.0000 C   0  0  0  0  0  0  0  0  0  0  0  0
   -2.5008    0.4124    0.0000 C   0  0  0  0  0  0  0  0  0  0  0  0
   -2.5008   -0.4125    0.0000 C   0  0  0  0  0  0  0  0  0  0  0  0
    0.3574    0.4124    0.0000 N   0  0  0  0  0  0  0  0  0  0  0  0
    0.3574   -0.4125    0.0000 C   0  0  0  0  0  0  0  0  0  0  0  0
   -0.3573    0.8249    0.0000 C   0  0  0  0  0  0  0  0  0  0  0  0
   -0.3573   -0.8250    0.0000 C   0  0  1  0  0  0  0  0  0  0  0  0
   -0.3573   -1.6500    0.0000 C   0  0  0  0  0  0  0  0  0  0  0  0
   -1.0718   -2.0625    0.0000 C   0  0  0  0  0  0  0  0  0  0  0  0
   -1.7862   -1.6500    0.0000 C   0  0  0  0  0  0  0  0  0  0  0  0
   -0.3573    1.6501    0.0000 O   0  0  0  0  0  0  0  0  0  0  0  0
    1.0718    0.8249    0.0000 C   0  0  2  0  0  0  0  0  0  0  0  0
    1.0718    1.6500    0.0000 C   0  0  0  0  0  0  0  0  0  0  0  0
    1.7864    0.4124    0.0000 C   0  0  3  0  0  0  0  0  0  0  0  0
    1.7864    2.0625    0.0000 N   0  0  3  0  0  0  0  0  0  0  0  0
    2.5008    0.8249    0.0000 C   0  0  0  0  0  0  0  0  0  0  0  0
    2.5008    1.6500    0.0000 C   0  0  0  0  0  0  0  0  0  0  0  0
    1.5080    1.0972    0.0000 C   0  0  0  0  0  0  0  0  0  0  0  0
    2.0962    1.3106    0.0000 C   0  0  0  0  0  0  0  0  0  0  0  0
    0.3573   -1.2375    0.0000 H   0  0  0  0  0  0  0  0  0  0  0  0
   -1.7863    1.8569    0.0000 H   0  0  0  0  0  0  0  0  0  0  0  0
   -3.3945    0.9284    0.0000 H   0  0  0  0  0  0  0  0  0  0  0  0
   -3.3945   -0.9285    0.0000 H   0  0  0  0  0  0  0  0  0  0  0  0
    1.2840   -0.9476    0.0000 H   0  0  0  0  0  0  0  0  0  0  0  0
    0.3573   -1.4825    0.0000 H   0  0  0  0  0  0  0  0  0  0  0  0
    0.5693   -2.1850    0.0000 H   0  0  0  0  0  0  0  0  0  0  0  0
   -0.3573   -2.7200    0.0000 H   0  0  0  0  0  0  0  0  0  0  0  0
   -1.0718   -3.1325    0.0000 H   0  0  0  0  0  0  0  0  0  0  0  0
   -1.9985   -2.5975    0.0000 H   0  0  0  0  0  0  0  0  0  0  0  0
   -2.7128   -2.1850    0.0000 H   0  0  0  0  0  0  0  0  0  0  0  0
   -2.7129   -1.1151    0.0000 H   0  0  0  0  0  0  0  0  0  0  0  0
    0.1451    1.3599    0.0000 H   0  0  0  0  0  0  0  0  0  0  0  0
    0.1452    2.1850    0.0000 H   0  0  0  0  0  0  0  0  0  0  0  0
    1.0719    2.7200    0.0000 H   0  0  0  0  0  0  0  0  0  0  0  0
    1.7863    1.4824    0.0000 H   0  0  0  0  0  0  0  0  0  0  0  0
    3.4275    0.2899    0.0000 H   0  0  0  0  0  0  0  0  0  0  0  0
    3.4274    1.3599    0.0000 H   0  0  0  0  0  0  0  0  0  0  0  0
    3.4275    2.1850    0.0000 H   0  0  0  0  0  0  0  0  0  0  0  0
    3.4274    1.1150    0.0000 H   0  0  0  0  0  0  0  0  0  0  0  0
    0.5303    1.5319    0.0000 H   0  0  0  0  0  0  0  0  0  0  0  0
    1.5456    2.1665    0.0000 H   0  0  0  0  0  0  0  0  0  0  0  0
    3.0750    0.8782    0.0000 H   0  0  0  0  0  0  0  0  0  0  0  0
    2.8623    2.0576    0.0000 H   0  0  0  0  0  0  0  0  0  0  0  0
  1  9  1  0  0  0  0
  2  1  1  0  0  0  0
  2 10  1  0  0  0  0
  3  1  2  0  0  0  0
  3 24  1  0  0  0  0
  4  2  2  0  0  0  0
  5  3  1  0  0  0  0
  5 25  1  0  0  0  0
  6  4  1  0  0  0  0
  6  5  2  0  0  0  0
  6 26  1  0  0  0  0
  8  7  1  0  0  0  0
  8 27  1  0  0  0  0
  8 28  1  0  0  0  0
  9  7  1  0  0  0  0
  9 14  2  0  0  0  0
 10  8  1  0  0  0  0
 10 23  1  6  0  0  0
 11 10  1  0  0  0  0
 11 29  1  0  0  0  0
 11 30  1  0  0  0  0
 12 11  1  0  0  0  0
 12 31  1  0  0  0  0
 12 32  1  0  0  0  0
 13 12  1  0  0  0  0
 13  4  1  0  0  0  0
 13 33  1  0  0  0  0
 13 34  1  0  0  0  0
 15  7  1  0  0  0  0
 15 35  1  1  0  0  0
 16 15  1  0  0  0  0
 16 36  1  0  0  0  0
 16 37  1  0  0  0  0
 17 15  1  0  0  0  0
 17 21  1  0  0  0  0
 17 38  1  0  0  0  0
 18 16  1  0  0  0  0
 19 17  1  0  0  0  0
 19 39  1  0  0  0  0
 19 40  1  0  0  0  0
 20 18  1  0  0  0  0
 20 19  1  0  0  0  0
 20 41  1  0  0  0  0
 20 42  1  0  0  0  0
 21 22  1  0  0  0  0
 21 43  1  0  0  0  0
 21 44  1  0  0  0  0
 22 18  1  0  0  0  0
 22 45  1  0  0  0  0
 22 46  1  0  0  0  0
M  END
>  <DRUGBANK_ID>
DB00377

>  <SECONDARY_ACCESSION_NUMBERS>
APRD00351

>  <COMMON_NAME>
Palonosetron

>  <CAS_NUMBER>
135729-56-5

>  <UNII>
5D06587D6R

>  <SYNONYMS>
(3aS)-2-[(3S)-1-azabicyclo[2.2.2]octan-3-yl]-2,3,3a,4,5,6-hexahydro-1H-benzo[de]isoquinolin-1-one; 2-(1-Azabicyclo(2.2.2)oct-3-yl)-2,3,3a,4,5,6-hexahydro-1H-benz(de)isoquinolin-1-one; Palonosetron; Palonosétron; Palonosetrón; Palonosetronum

$$$$
