
 OpenBabel10282417072D

 41 44  0  0  1  0  0  0  0  0999 V2000
   -0.6955    3.4867    0.0000 O   0  0  0  0  0  0  0  0  0  0  0  0
   -0.1435    2.8736    0.0000 C   0  0  0  0  0  0  0  0  0  0  0  0
   -0.3984    2.0890    0.0000 C   0  0  1  0  0  0  0  0  0  0  0  0
    0.0865    1.4216    0.0000 O   0  0  0  0  0  0  0  0  0  0  0  0
   -0.3984    0.7541    0.0000 C   0  0  2  0  0  0  0  0  0  0  0  0
   -1.1831    1.0091    0.0000 C   0  0  2  0  0  0  0  0  0  0  0  0
   -1.9677    0.7541    0.0000 O   0  0  0  0  0  0  0  0  0  0  0  0
   -2.4526    1.4216    0.0000 C   0  0  2  0  0  0  0  0  0  0  0  0
   -3.2776    1.4216    0.0000 C   0  0  0  0  0  0  0  0  0  0  0  0
   -3.6901    2.1360    0.0000 P   0  0  0  0  0  0  0  0  0  0  0  0
   -4.1026    2.8505    0.0000 O   0  0  0  0  0  0  0  0  0  0  0  0
   -4.4046    1.7235    0.0000 O   0  0  0  0  0  0  0  0  0  0  0  0
   -2.9756    2.5485    0.0000 O   0  0  0  0  0  0  0  0  0  0  0  0
   -1.9677    2.0890    0.0000 O   0  0  0  0  0  0  0  0  0  0  0  0
   -1.1831    1.8341    0.0000 C   0  0  2  0  0  0  0  0  0  0  0  0
   -0.1435   -0.0305    0.0000 C   0  0  0  0  0  0  0  0  0  0  0  0
   -0.6284   -0.6979    0.0000 C   0  0  0  0  0  0  0  0  0  0  0  0
   -0.1435   -1.3654    0.0000 N   0  0  0  0  0  0  0  0  0  0  0  0
    0.6411   -1.1104    0.0000 C   0  0  0  0  0  0  0  0  0  0  0  0
    0.6411   -0.2854    0.0000 C   0  0  0  0  0  0  0  0  0  0  0  0
    1.3556    0.1271    0.0000 N   0  0  0  0  0  0  0  0  0  0  0  0
    2.0701   -0.2854    0.0000 C   0  0  0  0  0  0  0  0  0  0  0  0
    2.0701   -1.1104    0.0000 N   0  0  0  0  0  0  0  0  0  0  0  0
    1.3556   -1.5229    0.0000 C   0  0  0  0  0  0  0  0  0  0  0  0
    1.3556   -2.3479    0.0000 O   0  0  0  0  0  0  0  0  0  0  0  0
   -0.3957    4.4092    0.0000 H   0  0  0  0  0  0  0  0  0  0  0  0
    0.9031    3.0961    0.0000 H   0  0  0  0  0  0  0  0  0  0  0  0
    0.5725    2.0784    0.0000 H   0  0  0  0  0  0  0  0  0  0  0  0
    0.6584    2.2564    0.0000 H   0  0  0  0  0  0  0  0  0  0  0  0
    0.6584    0.5867    0.0000 H   0  0  0  0  0  0  0  0  0  0  0  0
   -1.1831   -0.0609    0.0000 H   0  0  0  0  0  0  0  0  0  0  0  0
   -2.9384    0.4682    0.0000 H   0  0  0  0  0  0  0  0  0  0  0  0
   -3.8126    0.4949    0.0000 H   0  0  0  0  0  0  0  0  0  0  0  0
   -4.3476    1.4216    0.0000 H   0  0  0  0  0  0  0  0  0  0  0  0
   -3.6176    3.6905    0.0000 H   0  0  0  0  0  0  0  0  0  0  0  0
   -5.2446    2.2085    0.0000 H   0  0  0  0  0  0  0  0  0  0  0  0
   -1.1831    2.9041    0.0000 H   0  0  0  0  0  0  0  0  0  0  0  0
   -1.6604   -0.6979    0.0000 H   0  0  0  0  0  0  0  0  0  0  0  0
   -0.4477   -2.3017    0.0000 H   0  0  0  0  0  0  0  0  0  0  0  0
    1.3556    1.1116    0.0000 H   0  0  0  0  0  0  0  0  0  0  0  0
    2.9638    0.2306    0.0000 H   0  0  0  0  0  0  0  0  0  0  0  0
  1  2  1  0  0  0  0
  1 26  1  0  0  0  0
  2 27  1  0  0  0  0
  2 28  1  0  0  0  0
  3  2  1  0  0  0  0
  3  4  1  0  0  0  0
  3 15  1  0  0  0  0
  3 29  1  6  0  0  0
  4  5  1  0  0  0  0
  5  6  1  0  0  0  0
  5 16  1  0  0  0  0
  5 30  1  6  0  0  0
  6  7  1  0  0  0  0
  6 15  1  0  0  0  0
  6 31  1  1  0  0  0
  7  8  1  0  0  0  0
  8  9  1  0  0  0  0
  8 14  1  0  0  0  0
  8 32  1  1  0  0  0
  9 10  1  0  0  0  0
  9 33  1  0  0  0  0
  9 34  1  0  0  0  0
 10 11  1  0  0  0  0
 10 12  1  0  0  0  0
 10 13  2  0  0  0  0
 11 35  1  0  0  0  0
 12 36  1  0  0  0  0
 15 14  1  0  0  0  0
 15 37  1  1  0  0  0
 16 17  2  0  0  0  0
 16 20  1  0  0  0  0
 17 18  1  0  0  0  0
 17 38  1  0  0  0  0
 18 19  1  0  0  0  0
 18 39  1  0  0  0  0
 19 20  2  0  0  0  0
 19 24  1  0  0  0  0
 20 21  1  0  0  0  0
 21 22  1  0  0  0  0
 21 40  1  0  0  0  0
 22 23  2  0  0  0  0
 22 41  1  0  0  0  0
 23 24  1  0  0  0  0
 24 25  2  0  0  0  0
M  END
>  <DRUGBANK_ID>
DB04753

>  <COMMON_NAME>
9-DEAZAINOSINE-2',3'-O-ETHYLIDENEPHOSPHONATE

$$$$
