
 OpenBabel10282417072D

 23 23  0  0  1  0  0  0  0  0999 V2000
    1.4290    2.0625    0.0000 N   0  0  0  0  0  0  0  0  0  0  0  0
    0.7145    2.4750    0.0000 C   0  0  2  0  0  0  0  0  0  0  0  0
    0.0000    2.0625    0.0000 C   0  0  0  0  0  0  0  0  0  0  0  0
    0.0000    1.2375    0.0000 C   0  0  0  0  0  0  0  0  0  0  0  0
   -0.7144    0.8250    0.0000 C   0  0  0  0  0  0  0  0  0  0  0  0
   -0.7144    0.0000    0.0000 C   0  0  0  0  0  0  0  0  0  0  0  0
    0.0000   -0.4125    0.0000 C   0  0  0  0  0  0  0  0  0  0  0  0
    0.7145    0.0000    0.0000 C   0  0  0  0  0  0  0  0  0  0  0  0
    0.7145    0.8250    0.0000 C   0  0  0  0  0  0  0  0  0  0  0  0
    0.7145    3.3000    0.0000 C   0  0  0  0  0  0  0  0  0  0  0  0
    1.4290    3.7125    0.0000 O   0  0  0  0  0  0  0  0  0  0  0  0
    0.0000    3.7125    0.0000 O   0  0  0  0  0  0  0  0  0  0  0  0
    1.4290    1.0425    0.0000 H   0  0  0  0  0  0  0  0  0  0  0  0
    2.3123    2.5725    0.0000 H   0  0  0  0  0  0  0  0  0  0  0  0
    0.7145    1.4050    0.0000 H   0  0  0  0  0  0  0  0  0  0  0  0
   -0.9266    2.5975    0.0000 H   0  0  0  0  0  0  0  0  0  0  0  0
   -0.9266    1.5275    0.0000 H   0  0  0  0  0  0  0  0  0  0  0  0
   -1.6081    1.3410    0.0000 H   0  0  0  0  0  0  0  0  0  0  0  0
   -1.6081   -0.5160    0.0000 H   0  0  0  0  0  0  0  0  0  0  0  0
   -0.0000   -1.4445    0.0000 H   0  0  0  0  0  0  0  0  0  0  0  0
    1.6082   -0.5160    0.0000 H   0  0  0  0  0  0  0  0  0  0  0  0
    1.6082    1.3410    0.0000 H   0  0  0  0  0  0  0  0  0  0  0  0
    2.2405    3.2440    0.0000 H   0  0  0  0  0  0  0  0  0  0  0  0
  1 13  1  0  0  0  0
  1 14  1  0  0  0  0
  2  1  1  0  0  0  0
  2  3  1  0  0  0  0
  2 10  1  0  0  0  0
  2 15  1  1  0  0  0
  3  4  1  0  0  0  0
  3 16  1  0  0  0  0
  3 17  1  0  0  0  0
  4  5  2  0  0  0  0
  4  9  1  0  0  0  0
  5  6  1  0  0  0  0
  5 18  1  0  0  0  0
  6  7  2  0  0  0  0
  6 19  1  0  0  0  0
  7  8  1  0  0  0  0
  7 20  1  0  0  0  0
  8  9  2  0  0  0  0
  8 21  1  0  0  0  0
  9 22  1  0  0  0  0
 10 11  1  0  0  0  0
 10 12  2  0  0  0  0
 11 23  1  0  0  0  0
M  END
>  <DRUGBANK_ID>
DB02556

>  <SECONDARY_ACCESSION_NUMBERS>
EXPT01257

>  <COMMON_NAME>
D-Phenylalanine

>  <CAS_NUMBER>
673-06-3

>  <UNII>
032K16VRCU

$$$$
