
 OpenBabel10282417072D

 29 28  0  0  0  0  0  0  0  0999 V2000
   -0.3757   -0.1910    0.0000 C   0  0  0  0  0  0  0  0  0  0  0  0
   -1.0816    0.2202    0.0000 C   0  0  0  0  0  0  0  0  0  0  0  0
    0.3367    0.2331    0.0000 C   0  0  0  0  0  0  0  0  0  0  0  0
   -0.3757   -1.0201    0.0000 O   0  0  0  0  0  0  0  0  0  0  0  0
   -1.0784    1.0363    0.0000 O   0  0  0  0  0  0  0  0  0  0  0  0
    1.0589   -0.1748    0.0000 O   0  0  0  0  0  0  0  0  0  0  0  0
   -1.0913   -1.4346    0.0000 C   0  0  0  0  0  0  0  0  0  0  0  0
   -1.7844    1.4476    0.0000 C   0  0  0  0  0  0  0  0  0  0  0  0
    1.7714    0.2493    0.0000 C   0  0  0  0  0  0  0  0  0  0  0  0
   -1.0816   -2.2637    0.0000 C   0  0  0  0  0  0  0  0  0  0  0  0
   -1.8070   -1.0234    0.0000 O   0  0  0  0  0  0  0  0  0  0  0  0
   -1.7844    2.2637    0.0000 C   0  0  0  0  0  0  0  0  0  0  0  0
   -2.4904    1.0427    0.0000 O   0  0  0  0  0  0  0  0  0  0  0  0
    2.4904   -0.1554    0.0000 C   0  0  0  0  0  0  0  0  0  0  0  0
    1.7520    1.0784    0.0000 O   0  0  0  0  0  0  0  0  0  0  0  0
    0.5545   -0.7198    0.0000 H   0  0  0  0  0  0  0  0  0  0  0  0
   -2.0103   -0.3112    0.0000 H   0  0  0  0  0  0  0  0  0  0  0  0
   -2.0061    0.7588    0.0000 H   0  0  0  0  0  0  0  0  0  0  0  0
    0.3245    1.3030    0.0000 H   0  0  0  0  0  0  0  0  0  0  0  0
    1.2577    0.7777    0.0000 H   0  0  0  0  0  0  0  0  0  0  0  0
   -2.0019   -2.8095    0.0000 H   0  0  0  0  0  0  0  0  0  0  0  0
   -0.1488   -2.7878    0.0000 H   0  0  0  0  0  0  0  0  0  0  0  0
   -1.0691   -3.3336    0.0000 H   0  0  0  0  0  0  0  0  0  0  0  0
   -0.8578    2.7987    0.0000 H   0  0  0  0  0  0  0  0  0  0  0  0
   -2.7110    2.7987    0.0000 H   0  0  0  0  0  0  0  0  0  0  0  0
   -1.7844    3.3337    0.0000 H   0  0  0  0  0  0  0  0  0  0  0  0
    2.5021   -1.2253    0.0000 H   0  0  0  0  0  0  0  0  0  0  0  0
    3.4111    0.3897    0.0000 H   0  0  0  0  0  0  0  0  0  0  0  0
    3.4228   -0.6802    0.0000 H   0  0  0  0  0  0  0  0  0  0  0  0
  1  2  1  0  0  0  0
  1  3  1  0  0  0  0
  1  4  1  0  0  0  0
  1 16  1  0  0  0  0
  2  5  1  0  0  0  0
  2 17  1  0  0  0  0
  2 18  1  0  0  0  0
  3  6  1  0  0  0  0
  3 19  1  0  0  0  0
  3 20  1  0  0  0  0
  4  7  1  0  0  0  0
  5  8  1  0  0  0  0
  6  9  1  0  0  0  0
  7 10  1  0  0  0  0
  7 11  2  0  0  0  0
  8 12  1  0  0  0  0
  8 13  2  0  0  0  0
  9 14  1  0  0  0  0
  9 15  2  0  0  0  0
 10 21  1  0  0  0  0
 10 22  1  0  0  0  0
 10 23  1  0  0  0  0
 12 24  1  0  0  0  0
 12 25  1  0  0  0  0
 12 26  1  0  0  0  0
 14 27  1  0  0  0  0
 14 28  1  0  0  0  0
 14 29  1  0  0  0  0
M  END
>  <DRUGBANK_ID>
DB16005

>  <COMMON_NAME>
Triacetin

>  <CAS_NUMBER>
102-76-1

>  <UNII>
XHX3C3X673

>  <SYNONYMS>
1,2,3-Propanetriol triacetate; Glyceryl triacetate; Triacetin; Triacetina; Triacetine; Triacetinum

$$$$
