
 OpenBabel10282417072D

 69 72  0  0  0  0  0  0  0  0999 V2000
   -0.2790   -1.3446    0.0000 C   0  0  1  0  0  0  0  0  0  0  0  0
   -0.2790   -0.5195    0.0000 C   0  0  0  0  0  0  0  0  0  0  0  0
    0.4359   -0.1091    0.0000 C   0  0  0  0  0  0  0  0  0  0  0  0
    0.4359   -1.7592    0.0000 C   0  0  0  0  0  0  0  0  0  0  0  0
    1.1510   -1.3446    0.0000 C   0  0  0  0  0  0  0  0  0  0  0  0
    1.8661   -1.7592    0.0000 C   0  0  0  0  0  0  0  0  0  0  0  0
    2.5812   -1.3446    0.0000 C   0  0  0  0  0  0  0  0  0  0  0  0
    2.5812   -0.5195    0.0000 C   0  0  1  0  0  0  0  0  0  0  0  0
    3.2962   -0.1091    0.0000 C   0  0  2  0  0  0  0  0  0  0  0  0
    4.0792   -0.3610    0.0000 C   0  0  0  0  0  0  0  0  0  0  0  0
    4.5652    0.3054    0.0000 C   0  0  0  0  0  0  0  0  0  0  0  0
    4.0792    0.9721    0.0000 C   0  0  0  0  0  0  0  0  0  0  0  0
    3.2962    0.7159    0.0000 C   0  0  2  0  0  0  0  0  0  0  0  0
    3.2962    1.5410    0.0000 C   0  0  0  0  0  0  0  0  0  0  0  0
    2.5812    1.1305    0.0000 C   0  0  0  0  0  0  0  0  0  0  0  0
    1.8661    0.7159    0.0000 C   0  0  0  0  0  0  0  0  0  0  0  0
    1.8661   -0.1091    0.0000 C   0  0  2  0  0  0  0  0  0  0  0  0
    1.1510   -0.5195    0.0000 C   0  0  1  0  0  0  0  0  0  0  0  0
    1.1510    0.3054    0.0000 C   0  0  0  0  0  0  0  0  0  0  0  0
    4.3353    1.7592    0.0000 O   0  0  0  0  0  0  0  0  0  0  0  0
   -0.9897   -1.7592    0.0000 O   0  0  0  0  0  0  0  0  0  0  0  0
   -1.7048   -1.3446    0.0000 C   0  0  0  0  0  0  0  0  0  0  0  0
   -2.4199   -1.7592    0.0000 C   0  0  0  0  0  0  0  0  0  0  0  0
   -3.1350   -1.3446    0.0000 C   0  0  0  0  0  0  0  0  0  0  0  0
   -3.1350   -0.5195    0.0000 C   0  0  0  0  0  0  0  0  0  0  0  0
   -3.8501   -0.1091    0.0000 C   0  0  0  0  0  0  0  0  0  0  0  0
   -3.8501    0.7159    0.0000 C   0  0  0  0  0  0  0  0  0  0  0  0
   -4.5652    1.1305    0.0000 C   0  0  0  0  0  0  0  0  0  0  0  0
   -1.7048   -0.5195    0.0000 O   0  0  0  0  0  0  0  0  0  0  0  0
    1.8661   -0.9341    0.0000 H   0  0  0  0  0  0  0  0  0  0  0  0
    2.5812    0.3054    0.0000 H   0  0  0  0  0  0  0  0  0  0  0  0
    3.2962   -0.9341    0.0000 H   0  0  0  0  0  0  0  0  0  0  0  0
   -1.2068   -0.8117    0.0000 H   0  0  0  0  0  0  0  0  0  0  0  0
   -1.2050    0.0166    0.0000 H   0  0  0  0  0  0  0  0  0  0  0  0
   -0.2770    0.5505    0.0000 H   0  0  0  0  0  0  0  0  0  0  0  0
    0.4358    0.9609    0.0000 H   0  0  0  0  0  0  0  0  0  0  0  0
    1.3618    0.4271    0.0000 H   0  0  0  0  0  0  0  0  0  0  0  0
    0.4358   -2.8292    0.0000 H   0  0  0  0  0  0  0  0  0  0  0  0
    1.3630   -2.2934    0.0000 H   0  0  0  0  0  0  0  0  0  0  0  0
    1.8661   -2.7912    0.0000 H   0  0  0  0  0  0  0  0  0  0  0  0
    3.5083   -1.8788    0.0000 H   0  0  0  0  0  0  0  0  0  0  0  0
    3.5076   -0.8092    0.0000 H   0  0  0  0  0  0  0  0  0  0  0  0
    4.4104   -1.3784    0.0000 H   0  0  0  0  0  0  0  0  0  0  0  0
    5.1359   -0.5290    0.0000 H   0  0  0  0  0  0  0  0  0  0  0  0
    5.6352    0.3053    0.0000 H   0  0  0  0  0  0  0  0  0  0  0  0
    5.0503    1.2591    0.0000 H   0  0  0  0  0  0  0  0  0  0  0  0
    4.2228    2.0760    0.0000 H   0  0  0  0  0  0  0  0  0  0  0  0
    2.3696    2.0760    0.0000 H   0  0  0  0  0  0  0  0  0  0  0  0
    3.2962    2.6110    0.0000 H   0  0  0  0  0  0  0  0  0  0  0  0
    2.5812    2.2005    0.0000 H   0  0  0  0  0  0  0  0  0  0  0  0
    1.6541    1.6647    0.0000 H   0  0  0  0  0  0  0  0  0  0  0  0
    0.9390    1.2501    0.0000 H   0  0  0  0  0  0  0  0  0  0  0  0
    0.9397    0.1805    0.0000 H   0  0  0  0  0  0  0  0  0  0  0  0
    2.0776    0.8404    0.0000 H   0  0  0  0  0  0  0  0  0  0  0  0
    0.2244    0.8404    0.0000 H   0  0  0  0  0  0  0  0  0  0  0  0
    1.1510    1.3754    0.0000 H   0  0  0  0  0  0  0  0  0  0  0  0
   -2.4199   -2.8292    0.0000 H   0  0  0  0  0  0  0  0  0  0  0  0
   -3.3470   -2.2934    0.0000 H   0  0  0  0  0  0  0  0  0  0  0  0
   -4.0621   -1.8788    0.0000 H   0  0  0  0  0  0  0  0  0  0  0  0
   -4.0614   -0.8092    0.0000 H   0  0  0  0  0  0  0  0  0  0  0  0
   -2.2090    0.0167    0.0000 H   0  0  0  0  0  0  0  0  0  0  0  0
   -3.1371    0.5505    0.0000 H   0  0  0  0  0  0  0  0  0  0  0  0
   -4.7761   -0.6453    0.0000 H   0  0  0  0  0  0  0  0  0  0  0  0
   -4.7771    0.4253    0.0000 H   0  0  0  0  0  0  0  0  0  0  0  0
   -2.9230    1.2501    0.0000 H   0  0  0  0  0  0  0  0  0  0  0  0
   -3.8486    1.7859    0.0000 H   0  0  0  0  0  0  0  0  0  0  0  0
   -4.5633    2.2005    0.0000 H   0  0  0  0  0  0  0  0  0  0  0  0
   -5.4928    0.5972    0.0000 H   0  0  0  0  0  0  0  0  0  0  0  0
   -5.4909    1.6672    0.0000 H   0  0  0  0  0  0  0  0  0  0  0  0
  1  2  1  0  0  0  0
  1  4  1  0  0  0  0
  1 21  1  0  0  0  0
  1 33  1  6  0  0  0
  2  3  1  0  0  0  0
  2 34  1  0  0  0  0
  2 35  1  0  0  0  0
  3 18  1  0  0  0  0
  3 36  1  0  0  0  0
  3 37  1  0  0  0  0
  4  5  1  0  0  0  0
  4 38  1  0  0  0  0
  4 39  1  0  0  0  0
  5  6  2  0  0  0  0
  5 18  1  0  0  0  0
  6  7  1  0  0  0  0
  6 40  1  0  0  0  0
  7  8  1  0  0  0  0
  7 41  1  0  0  0  0
  7 42  1  0  0  0  0
  8  9  1  0  0  0  0
  8 17  1  0  0  0  0
  8 31  1  1  0  0  0
  9 10  1  0  0  0  0
  9 13  1  0  0  0  0
  9 32  1  6  0  0  0
 10 11  1  0  0  0  0
 10 43  1  0  0  0  0
 10 44  1  0  0  0  0
 11 12  1  0  0  0  0
 11 45  1  0  0  0  0
 11 46  1  0  0  0  0
 12 13  1  0  0  0  0
 12 20  2  0  0  0  0
 13 14  1  1  0  0  0
 13 15  1  0  0  0  0
 14 47  1  0  0  0  0
 14 48  1  0  0  0  0
 14 49  1  0  0  0  0
 15 16  1  0  0  0  0
 15 50  1  0  0  0  0
 15 51  1  0  0  0  0
 16 17  1  0  0  0  0
 16 52  1  0  0  0  0
 16 53  1  0  0  0  0
 17 18  1  0  0  0  0
 17 30  1  6  0  0  0
 18 19  1  1  0  0  0
 19 54  1  0  0  0  0
 19 55  1  0  0  0  0
 19 56  1  0  0  0  0
 21 22  1  0  0  0  0
 22 23  1  0  0  0  0
 22 29  2  0  0  0  0
 23 24  1  0  0  0  0
 23 57  1  0  0  0  0
 23 58  1  0  0  0  0
 24 25  1  0  0  0  0
 24 59  1  0  0  0  0
 24 60  1  0  0  0  0
 25 26  1  0  0  0  0
 25 61  1  0  0  0  0
 25 62  1  0  0  0  0
 26 27  1  0  0  0  0
 26 63  1  0  0  0  0
 26 64  1  0  0  0  0
 27 28  1  0  0  0  0
 27 65  1  0  0  0  0
 27 66  1  0  0  0  0
 28 67  1  0  0  0  0
 28 68  1  0  0  0  0
 28 69  1  0  0  0  0
M  END
>  <DRUGBANK_ID>
DB16625

>  <COMMON_NAME>
Prasterone enantate

>  <CAS_NUMBER>
23983-43-9

>  <UNII>
2W8I1S6T5L

>  <SYNONYMS>
Dehydroepiandrosterone enanthate; DHEA enantate; DHEA enanthate; Prasterone enanthate

$$$$
