
 OpenBabel10282417072D

 48 50  0  0  0  0  0  0  0  0999 V2000
    2.6737   -3.9055    0.0000 C   0  0  0  0  0  0  0  0  0  0  0  0
    2.1434   -4.5375    0.0000 C   0  0  2  0  0  0  0  0  0  0  0  0
    1.6131   -3.9055    0.0000 O   0  0  0  0  0  0  0  0  0  0  0  0
    2.8579   -4.9500    0.0000 C   0  0  0  0  0  0  0  0  0  0  0  0
    2.8579   -5.7750    0.0000 C   0  0  0  0  0  0  0  0  0  0  0  0
    2.1434   -6.1875    0.0000 C   0  0  1  0  0  0  0  0  0  0  0  0
    1.4289   -5.7750    0.0000 C   0  0  0  0  0  0  0  0  0  0  0  0
    1.4289   -4.9500    0.0000 C   0  0  0  0  0  0  0  0  0  0  0  0
    2.1434   -7.0125    0.0000 N   0  0  0  0  0  0  0  0  0  0  0  0
    1.4289   -7.4250    0.0000 S   0  0  0  0  0  0  0  0  0  0  0  0
    1.0164   -6.7105    0.0000 O   0  0  0  0  0  0  0  0  0  0  0  0
    1.8414   -8.1395    0.0000 O   0  0  0  0  0  0  0  0  0  0  0  0
    0.7145   -7.8375    0.0000 C   0  0  0  0  0  0  0  0  0  0  0  0
    0.7145   -8.6625    0.0000 C   0  0  0  0  0  0  0  0  0  0  0  0
    0.0000   -9.0750    0.0000 C   0  0  0  0  0  0  0  0  0  0  0  0
   -0.7145   -8.6625    0.0000 C   0  0  0  0  0  0  0  0  0  0  0  0
   -0.7145   -7.8375    0.0000 C   0  0  0  0  0  0  0  0  0  0  0  0
    0.0000   -7.4250    0.0000 C   0  0  0  0  0  0  0  0  0  0  0  0
   -1.4289   -9.0750    0.0000 C   0  0  0  0  0  0  0  0  0  0  0  0
   -1.4289   -9.9000    0.0000 C   0  0  0  0  0  0  0  0  0  0  0  0
   -2.1434  -10.3125    0.0000 C   0  0  0  0  0  0  0  0  0  0  0  0
   -2.8579   -9.9000    0.0000 C   0  0  0  0  0  0  0  0  0  0  0  0
   -3.5724  -10.3125    0.0000 Cl  0  0  0  0  0  0  0  0  0  0  0  0
   -2.8579   -9.0750    0.0000 C   0  0  0  0  0  0  0  0  0  0  0  0
   -2.1434   -8.6625    0.0000 C   0  0  0  0  0  0  0  0  0  0  0  0
   -2.1434   -7.8375    0.0000 C   0  0  0  0  0  0  0  0  0  0  0  0
   -2.1434   -7.0125    0.0000 N   0  0  0  0  0  0  0  0  0  0  0  0
    3.7274   -4.0913    0.0000 H   0  0  0  0  0  0  0  0  0  0  0  0
    2.3077   -2.9000    0.0000 H   0  0  0  0  0  0  0  0  0  0  0  0
    3.3615   -3.0858    0.0000 H   0  0  0  0  0  0  0  0  0  0  0  0
    1.9449   -2.9940    0.0000 H   0  0  0  0  0  0  0  0  0  0  0  0
    3.7845   -4.4150    0.0000 H   0  0  0  0  0  0  0  0  0  0  0  0
    3.7845   -5.4850    0.0000 H   0  0  0  0  0  0  0  0  0  0  0  0
    3.7845   -6.3100    0.0000 H   0  0  0  0  0  0  0  0  0  0  0  0
    2.8579   -6.8450    0.0000 H   0  0  0  0  0  0  0  0  0  0  0  0
    3.0700   -6.7225    0.0000 H   0  0  0  0  0  0  0  0  0  0  0  0
    0.5023   -6.3100    0.0000 H   0  0  0  0  0  0  0  0  0  0  0  0
    0.5023   -5.2400    0.0000 H   0  0  0  0  0  0  0  0  0  0  0  0
    0.5023   -4.4150    0.0000 H   0  0  0  0  0  0  0  0  0  0  0  0
    1.4289   -3.8800    0.0000 H   0  0  0  0  0  0  0  0  0  0  0  0
    3.0267   -7.5225    0.0000 H   0  0  0  0  0  0  0  0  0  0  0  0
    1.6082   -9.1785    0.0000 H   0  0  0  0  0  0  0  0  0  0  0  0
    0.0000  -10.1070    0.0000 H   0  0  0  0  0  0  0  0  0  0  0  0
   -1.6082   -7.3215    0.0000 H   0  0  0  0  0  0  0  0  0  0  0  0
    0.0000   -6.3930    0.0000 H   0  0  0  0  0  0  0  0  0  0  0  0
   -0.5352  -10.4160    0.0000 H   0  0  0  0  0  0  0  0  0  0  0  0
   -2.1434  -11.3445    0.0000 H   0  0  0  0  0  0  0  0  0  0  0  0
   -3.7516   -8.5590    0.0000 H   0  0  0  0  0  0  0  0  0  0  0  0
  1 28  1  0  0  0  0
  1 29  1  0  0  0  0
  1 30  1  0  0  0  0
  2  1  1  0  0  0  0
  2  3  1  1  0  0  0
  2  4  1  0  0  0  0
  2  8  1  0  0  0  0
  3 31  1  0  0  0  0
  4  5  1  0  0  0  0
  4 32  1  0  0  0  0
  4 33  1  0  0  0  0
  5 34  1  0  0  0  0
  5 35  1  0  0  0  0
  6  5  1  0  0  0  0
  6  7  1  0  0  0  0
  6  9  1  0  0  0  0
  6 36  1  1  0  0  0
  7  8  1  0  0  0  0
  7 37  1  0  0  0  0
  7 38  1  0  0  0  0
  8 39  1  0  0  0  0
  8 40  1  0  0  0  0
  9 10  1  0  0  0  0
  9 41  1  0  0  0  0
 10 11  2  0  0  0  0
 10 12  2  0  0  0  0
 10 13  1  0  0  0  0
 13 14  2  0  0  0  0
 13 18  1  0  0  0  0
 14 15  1  0  0  0  0
 14 42  1  0  0  0  0
 15 16  2  0  0  0  0
 15 43  1  0  0  0  0
 16 17  1  0  0  0  0
 16 19  1  0  0  0  0
 17 18  2  0  0  0  0
 17 44  1  0  0  0  0
 18 45  1  0  0  0  0
 19 20  2  0  0  0  0
 19 25  1  0  0  0  0
 20 21  1  0  0  0  0
 20 46  1  0  0  0  0
 21 22  2  0  0  0  0
 21 47  1  0  0  0  0
 22 23  1  0  0  0  0
 22 24  1  0  0  0  0
 24 25  2  0  0  0  0
 24 48  1  0  0  0  0
 25 26  1  0  0  0  0
 26 27  3  0  0  0  0
M  END
>  <DRUGBANK_ID>
DB18059

>  <COMMON_NAME>
MBS-2320

>  <CAS_NUMBER>
1642602-54-7

>  <UNII>
38E2HYD3AW

>  <SYNONYMS>
(1,1'-BIPHENYL)-4-SULFONAMIDE, 4'-CHLORO-2'-CYANO-N-(TRANS-4-HYDROXY-4-METHYLCYCLOHEXYL)-; 1-METHYL-TRANS-4-(((4'-CHLORO-2'-CYANO-1,1'-BIPHENYL-4-YL)SULFONYL)AMINO)CYCLOHEXANOL; 4'-chloro-2'-cyano-N-(trans-4-hydroxy-4-methylcyclohexyl)-biphenyl-4-sulfonamide

$$$$
