
 OpenBabel10282417072D

 32 31  0  0  0  0  0  0  0  0999 V2000
    1.2375   -5.0013    0.0000 C   0  0  0  0  0  0  0  0  0  0  0  0
    1.6500   -4.2868    0.0000 C   0  0  0  0  0  0  0  0  0  0  0  0
    1.2375   -3.5724    0.0000 C   0  0  0  0  0  0  0  0  0  0  0  0
    1.6500   -2.8579    0.0000 C   0  0  0  0  0  0  0  0  0  0  0  0
    1.2375   -2.1434    0.0000 S   0  0  3  0  0  0  0  0  0  0  0  0
    1.9520   -1.7309    0.0000 N   0  0  0  0  0  0  0  0  0  0  0  0
    0.5230   -2.5559    0.0000 O   0  0  0  0  0  0  0  0  0  0  0  0
    0.8250   -1.4289    0.0000 C   0  0  0  0  0  0  0  0  0  0  0  0
    1.2375   -0.7145    0.0000 C   0  0  0  0  0  0  0  0  0  0  0  0
    0.8250    0.0000    0.0000 C   0  0  3  0  0  0  0  0  0  0  0  0
    1.2375    0.7145    0.0000 C   0  0  0  0  0  0  0  0  0  0  0  0
    0.8250    1.4289    0.0000 O   0  0  0  0  0  0  0  0  0  0  0  0
    2.0625    0.7145    0.0000 O   0  0  0  0  0  0  0  0  0  0  0  0
    0.0000    0.0000    0.0000 N   0  0  0  0  0  0  0  0  0  0  0  0
    0.1675   -5.0013    0.0000 H   0  0  0  0  0  0  0  0  0  0  0  0
    1.7725   -5.9279    0.0000 H   0  0  0  0  0  0  0  0  0  0  0  0
    0.7025   -5.9280    0.0000 H   0  0  0  0  0  0  0  0  0  0  0  0
    2.7200   -4.2868    0.0000 H   0  0  0  0  0  0  0  0  0  0  0  0
    2.1850   -3.3601    0.0000 H   0  0  0  0  0  0  0  0  0  0  0  0
    0.1675   -3.5724    0.0000 H   0  0  0  0  0  0  0  0  0  0  0  0
    0.7025   -2.6458    0.0000 H   0  0  0  0  0  0  0  0  0  0  0  0
    2.7200   -2.8579    0.0000 H   0  0  0  0  0  0  0  0  0  0  0  0
    2.1850   -1.9313    0.0000 H   0  0  0  0  0  0  0  0  0  0  0  0
    2.8046   -2.2232    0.0000 H   0  0  0  0  0  0  0  0  0  0  0  0
   -0.2450   -1.4289    0.0000 H   0  0  0  0  0  0  0  0  0  0  0  0
    0.2900   -0.5022    0.0000 H   0  0  0  0  0  0  0  0  0  0  0  0
    2.3075   -0.7145    0.0000 H   0  0  0  0  0  0  0  0  0  0  0  0
    1.7725    0.2121    0.0000 H   0  0  0  0  0  0  0  0  0  0  0  0
    1.8950    0.0000    0.0000 H   0  0  0  0  0  0  0  0  0  0  0  0
    2.5310   -0.0970    0.0000 H   0  0  0  0  0  0  0  0  0  0  0  0
   -0.5100    0.8833    0.0000 H   0  0  0  0  0  0  0  0  0  0  0  0
   -0.5100   -0.8833    0.0000 H   0  0  0  0  0  0  0  0  0  0  0  0
  1  2  1  0  0  0  0
  1 15  1  0  0  0  0
  1 16  1  0  0  0  0
  1 17  1  0  0  0  0
  2  3  1  0  0  0  0
  2 18  1  0  0  0  0
  2 19  1  0  0  0  0
  3  4  1  0  0  0  0
  3 20  1  0  0  0  0
  3 21  1  0  0  0  0
  4  5  1  0  0  0  0
  4 22  1  0  0  0  0
  4 23  1  0  0  0  0
  5  6  2  0  0  0  0
  5  7  2  0  0  0  0
  5  8  1  0  0  0  0
  6 24  1  0  0  0  0
  8  9  1  0  0  0  0
  8 25  1  0  0  0  0
  8 26  1  0  0  0  0
  9 10  1  0  0  0  0
  9 27  1  0  0  0  0
  9 28  1  0  0  0  0
 10 11  1  0  0  0  0
 10 14  1  0  0  0  0
 10 29  1  0  0  0  0
 11 12  2  0  0  0  0
 11 13  1  0  0  0  0
 13 30  1  0  0  0  0
 14 31  1  0  0  0  0
 14 32  1  0  0  0  0
M  END
>  <DRUGBANK_ID>
DB12870

>  <COMMON_NAME>
Buthionine sulfoximine

>  <CAS_NUMBER>
5072-26-4

>  <UNII>
LW4108Q0BV

>  <SYNONYMS>
Butanoic acid, 2-amino-4-(S-butylsulfonimidoyl)-; Buthionine sulfoxamine; DL-buthionine-(S,R)-sulfoximine

$$$$
