
 OpenBabel10282417072D

 13  8  0  0  0  0  0  0  0  0999 V2000
    1.5321    0.6464    0.0000 Ca  0  2  0  0  0  0  0  0  0  0  0  0
   -0.7219    1.2503    0.0000 Ca  0  2  0  0  0  0  0  0  0  0  0  0
   -1.3258   -1.0036    0.0000 Ca  0  2  0  0  0  0  0  0  0  0  0  0
    0.8176    0.2339    0.0000 O   0  5  0  0  0  0  0  0  0  0  0  0
   -0.3094    0.5359    0.0000 O   0  5  0  0  0  0  0  0  0  0  0  0
   -0.6113   -0.5911    0.0000 O   0  5  0  0  0  0  0  0  0  0  0  0
    0.5156   -0.8931    0.0000 O   0  0  0  0  0  0  0  0  0  0  0  0
    0.1031   -0.1786    0.0000 P   0  0  0  0  0  0  0  0  0  0  0  0
    4.5964    0.8250    0.0000 O   0  5  0  0  0  0  0  0  0  0  0  0
    4.5964   -0.8250    0.0000 O   0  5  0  0  0  0  0  0  0  0  0  0
    3.7714    0.0000    0.0000 O   0  5  0  0  0  0  0  0  0  0  0  0
    5.4214   -0.0000    0.0000 O   0  0  0  0  0  0  0  0  0  0  0  0
    4.5964   -0.0000    0.0000 P   0  0  0  0  0  0  0  0  0  0  0  0
  8  4  1  0  0  0  0
  8  5  1  0  0  0  0
  8  6  1  0  0  0  0
  8  7  2  0  0  0  0
 13  9  1  0  0  0  0
 13 10  1  0  0  0  0
 13 11  1  0  0  0  0
 13 12  2  0  0  0  0
M  CHG  8   1   2   2   2   3   2   4  -1   5  -1   6  -1   9  -1  10  -1
M  CHG  1  11  -1
M  END
>  <DRUGBANK_ID>
DB11348

>  <SECONDARY_ACCESSION_NUMBERS>
DB11052; DB11053

>  <COMMON_NAME>
Calcium Phosphate

>  <CAS_NUMBER>
10103-46-5

>  <UNII>
97Z1WI3NDX

>  <SYNONYMS>
calcio fosfato; Calcium phosphates; Phosphoric acid, calcium salt

$$$$
