
 OpenBabel10282417072D

 86 91  0  0  1  0  0  0  0  0999 V2000
   -3.5724   -0.4125    0.0000 C   0  0  0  0  0  0  0  0  0  0  0  0
   -2.8579   -0.8250    0.0000 C   0  0  0  0  0  0  0  0  0  0  0  0
   -2.8579   -1.6500    0.0000 C   0  0  0  0  0  0  0  0  0  0  0  0
   -2.1434   -2.0625    0.0000 C   0  0  0  0  0  0  0  0  0  0  0  0
   -1.4289   -1.6500    0.0000 C   0  0  0  0  0  0  0  0  0  0  0  0
   -1.4289   -0.8250    0.0000 C   0  0  0  0  0  0  0  0  0  0  0  0
   -2.1434   -0.4125    0.0000 C   0  0  0  0  0  0  0  0  0  0  0  0
   -2.1434    0.4125    0.0000 C   0  0  0  0  0  0  0  0  0  0  0  0
   -0.7145   -2.0625    0.0000 N   0  0  0  0  0  0  0  0  0  0  0  0
    0.0000   -1.6500    0.0000 C   0  0  0  0  0  0  0  0  0  0  0  0
    0.7145   -2.0625    0.0000 C   0  0  2  0  0  0  0  0  0  0  0  0
    0.7145   -2.8875    0.0000 O   0  0  0  0  0  0  0  0  0  0  0  0
    1.4289   -1.6500    0.0000 C   0  0  2  0  0  0  0  0  0  0  0  0
    1.4289   -0.8250    0.0000 O   0  0  0  0  0  0  0  0  0  0  0  0
    2.1434   -2.0625    0.0000 C   0  0  2  0  0  0  0  0  0  0  0  0
    2.1434   -2.8875    0.0000 O   0  0  0  0  0  0  0  0  0  0  0  0
    2.8579   -1.6500    0.0000 C   0  0  0  0  0  0  0  0  0  0  0  0
    3.5724   -2.0625    0.0000 O   0  0  0  0  0  0  0  0  0  0  0  0
    4.2868   -1.6500    0.0000 P   0  0  2  0  0  0  0  0  0  0  0  0
    4.6993   -2.3645    0.0000 O   0  0  0  0  0  0  0  0  0  0  0  0
    3.8743   -0.9355    0.0000 O   0  0  0  0  0  0  0  0  0  0  0  0
    5.0013   -1.2375    0.0000 O   0  0  0  0  0  0  0  0  0  0  0  0
    5.7158   -1.6500    0.0000 P   0  0  1  0  0  0  0  0  0  0  0  0
    5.3033   -2.3645    0.0000 O   0  0  0  0  0  0  0  0  0  0  0  0
    6.1283   -0.9355    0.0000 O   0  0  0  0  0  0  0  0  0  0  0  0
    6.4302   -2.0625    0.0000 O   0  0  0  0  0  0  0  0  0  0  0  0
    7.1447   -1.6500    0.0000 C   0  0  0  0  0  0  0  0  0  0  0  0
    7.8592   -2.0625    0.0000 C   0  0  1  0  0  0  0  0  0  0  0  0
    8.6129   -1.7269    0.0000 O   0  0  0  0  0  0  0  0  0  0  0  0
    9.1649   -2.3400    0.0000 C   0  0  2  0  0  0  0  0  0  0  0  0
    8.7524   -3.0545    0.0000 C   0  0  2  0  0  0  0  0  0  0  0  0
    9.0879   -3.8082    0.0000 O   0  0  0  0  0  0  0  0  0  0  0  0
    7.9454   -2.8830    0.0000 C   0  0  2  0  0  0  0  0  0  0  0  0
    7.3323   -3.4350    0.0000 O   0  0  0  0  0  0  0  0  0  0  0  0
    9.9854   -2.2538    0.0000 N   0  0  0  0  0  0  0  0  0  0  0  0
   10.5374   -2.8669    0.0000 C   0  0  0  0  0  0  0  0  0  0  0  0
   11.2911   -2.5313    0.0000 N   0  0  0  0  0  0  0  0  0  0  0  0
   11.2048   -1.7109    0.0000 C   0  0  0  0  0  0  0  0  0  0  0  0
   10.3979   -1.5393    0.0000 C   0  0  0  0  0  0  0  0  0  0  0  0
   10.1429   -0.7547    0.0000 N   0  0  0  0  0  0  0  0  0  0  0  0
   10.6950   -0.1416    0.0000 C   0  0  0  0  0  0  0  0  0  0  0  0
   11.5019   -0.3131    0.0000 N   0  0  0  0  0  0  0  0  0  0  0  0
   11.7569   -1.0978    0.0000 C   0  0  0  0  0  0  0  0  0  0  0  0
   12.5638   -1.2693    0.0000 N   0  0  0  0  0  0  0  0  0  0  0  0
   -0.7145   -2.8875    0.0000 C   0  0  0  0  0  0  0  0  0  0  0  0
    0.0000   -3.3000    0.0000 N   0  0  0  0  0  0  0  0  0  0  0  0
    0.0000   -4.1250    0.0000 C   0  0  0  0  0  0  0  0  0  0  0  0
    0.7145   -4.5375    0.0000 O   0  0  0  0  0  0  0  0  0  0  0  0
   -0.7145   -4.5375    0.0000 N   0  0  0  0  0  0  0  0  0  0  0  0
   -1.4289   -4.1250    0.0000 C   0  0  0  0  0  0  0  0  0  0  0  0
   -2.1434   -4.5375    0.0000 O   0  0  0  0  0  0  0  0  0  0  0  0
   -1.4289   -3.3000    0.0000 C   0  0  0  0  0  0  0  0  0  0  0  0
   -2.1434   -2.8875    0.0000 N   0  0  0  0  0  0  0  0  0  0  0  0
   -3.5724    0.6575    0.0000 H   0  0  0  0  0  0  0  0  0  0  0  0
   -4.4990   -0.9475    0.0000 H   0  0  0  0  0  0  0  0  0  0  0  0
   -4.4991    0.1225    0.0000 H   0  0  0  0  0  0  0  0  0  0  0  0
   -3.7516   -2.1660    0.0000 H   0  0  0  0  0  0  0  0  0  0  0  0
   -0.5352   -0.3090    0.0000 H   0  0  0  0  0  0  0  0  0  0  0  0
   -1.2168    0.9475    0.0000 H   0  0  0  0  0  0  0  0  0  0  0  0
   -3.0700    0.9475    0.0000 H   0  0  0  0  0  0  0  0  0  0  0  0
   -2.1434    1.4825    0.0000 H   0  0  0  0  0  0  0  0  0  0  0  0
    0.0000   -0.5800    0.0000 H   0  0  0  0  0  0  0  0  0  0  0  0
    0.9266   -1.1150    0.0000 H   0  0  0  0  0  0  0  0  0  0  0  0
   -0.2121   -2.5975    0.0000 H   0  0  0  0  0  0  0  0  0  0  0  0
   -0.1255   -3.3725    0.0000 H   0  0  0  0  0  0  0  0  0  0  0  0
    0.5022   -1.1150    0.0000 H   0  0  0  0  0  0  0  0  0  0  0  0
    2.2689   -0.3400    0.0000 H   0  0  0  0  0  0  0  0  0  0  0  0
    1.2168   -2.5975    0.0000 H   0  0  0  0  0  0  0  0  0  0  0  0
    1.3034   -3.3725    0.0000 H   0  0  0  0  0  0  0  0  0  0  0  0
    2.8579   -0.5800    0.0000 H   0  0  0  0  0  0  0  0  0  0  0  0
    3.7845   -1.1150    0.0000 H   0  0  0  0  0  0  0  0  0  0  0  0
    4.2143   -3.2045    0.0000 H   0  0  0  0  0  0  0  0  0  0  0  0
    4.3333   -2.3645    0.0000 H   0  0  0  0  0  0  0  0  0  0  0  0
    7.1447   -0.5800    0.0000 H   0  0  0  0  0  0  0  0  0  0  0  0
    8.0713   -1.1150    0.0000 H   0  0  0  0  0  0  0  0  0  0  0  0
    7.9152   -0.9940    0.0000 H   0  0  0  0  0  0  0  0  0  0  0  0
    9.5484   -1.3411    0.0000 H   0  0  0  0  0  0  0  0  0  0  0  0
    9.8209   -3.1105    0.0000 H   0  0  0  0  0  0  0  0  0  0  0  0
    8.5177   -4.5929    0.0000 H   0  0  0  0  0  0  0  0  0  0  0  0
    8.2223   -3.9165    0.0000 H   0  0  0  0  0  0  0  0  0  0  0  0
    6.4098   -3.1352    0.0000 H   0  0  0  0  0  0  0  0  0  0  0  0
   10.3228   -3.8763    0.0000 H   0  0  0  0  0  0  0  0  0  0  0  0
   10.3761    0.8399    0.0000 H   0  0  0  0  0  0  0  0  0  0  0  0
   12.8680   -2.2056    0.0000 H   0  0  0  0  0  0  0  0  0  0  0  0
   13.2225   -0.5377    0.0000 H   0  0  0  0  0  0  0  0  0  0  0  0
   -0.7145   -5.5220    0.0000 H   0  0  0  0  0  0  0  0  0  0  0  0
  1  2  1  0  0  0  0
  1 54  1  0  0  0  0
  1 55  1  0  0  0  0
  1 56  1  0  0  0  0
  2  3  2  0  0  0  0
  2  7  1  0  0  0  0
  3  4  1  0  0  0  0
  3 57  1  0  0  0  0
  4  5  2  0  0  0  0
  4 53  1  0  0  0  0
  5  6  1  0  0  0  0
  5  9  1  0  0  0  0
  6  7  2  0  0  0  0
  6 58  1  0  0  0  0
  7  8  1  0  0  0  0
  8 59  1  0  0  0  0
  8 60  1  0  0  0  0
  8 61  1  0  0  0  0
  9 10  1  0  0  0  0
  9 45  1  0  0  0  0
 10 11  1  0  0  0  0
 10 62  1  0  0  0  0
 10 63  1  0  0  0  0
 11 12  1  0  0  0  0
 11 13  1  0  0  0  0
 11 64  1  6  0  0  0
 12 65  1  0  0  0  0
 13 14  1  0  0  0  0
 13 15  1  0  0  0  0
 13 66  1  1  0  0  0
 14 67  1  0  0  0  0
 15 16  1  0  0  0  0
 15 17  1  0  0  0  0
 15 68  1  6  0  0  0
 16 69  1  0  0  0  0
 17 18  1  0  0  0  0
 17 70  1  0  0  0  0
 17 71  1  0  0  0  0
 19 18  1  0  0  0  0
 19 20  1  0  0  0  0
 19 21  2  1  0  0  0
 19 22  1  0  0  0  0
 20 72  1  0  0  0  0
 23 22  1  0  0  0  0
 23 24  1  0  0  0  0
 23 25  2  6  0  0  0
 23 26  1  0  0  0  0
 24 73  1  0  0  0  0
 26 27  1  0  0  0  0
 27 74  1  0  0  0  0
 27 75  1  0  0  0  0
 28 27  1  0  0  0  0
 28 29  1  0  0  0  0
 28 33  1  0  0  0  0
 28 76  1  6  0  0  0
 29 30  1  0  0  0  0
 30 31  1  0  0  0  0
 30 35  1  0  0  0  0
 30 77  1  6  0  0  0
 31 32  1  0  0  0  0
 31 33  1  0  0  0  0
 31 78  1  1  0  0  0
 32 79  1  0  0  0  0
 33 34  1  0  0  0  0
 33 80  1  1  0  0  0
 34 81  1  0  0  0  0
 35 36  1  0  0  0  0
 35 39  1  0  0  0  0
 36 37  2  0  0  0  0
 36 82  1  0  0  0  0
 37 38  1  0  0  0  0
 38 39  2  0  0  0  0
 38 43  1  0  0  0  0
 39 40  1  0  0  0  0
 40 41  2  0  0  0  0
 41 42  1  0  0  0  0
 41 83  1  0  0  0  0
 42 43  2  0  0  0  0
 43 44  1  0  0  0  0
 44 84  1  0  0  0  0
 44 85  1  0  0  0  0
 45 46  2  0  0  0  0
 45 52  1  0  0  0  0
 46 47  1  0  0  0  0
 47 48  2  0  0  0  0
 47 49  1  0  0  0  0
 49 50  1  0  0  0  0
 49 86  1  0  0  0  0
 50 51  2  0  0  0  0
 50 52  1  0  0  0  0
 52 53  2  0  0  0  0
M  END
>  <DRUGBANK_ID>
DB03147

>  <SECONDARY_ACCESSION_NUMBERS>
EXPT01391

>  <COMMON_NAME>
Flavin adenine dinucleotide

>  <CAS_NUMBER>
146-14-5

>  <UNII>
ZC44YTI8KK

>  <SYNONYMS>
Adenosine 5'-(trihydrogen pyrophosphate), 5'-5'-ester with riboflavine; adenosine 5'-[3-(riboflavin-5'-yl) dihydrogen diphosphate]; FAD; Flavin adenine dinucleotide; Flavin-Adenine Dinucleotide; Flavine adenine dinucleotide; Riboflavin 5'-(trihydrogen diphosphate), 5'-5'-ester with adenosine; Riboflavin 5'-adenosine diphosphate

$$$$
