
 OpenBabel10282417072D

 47 49  0  0  0  0  0  0  0  0999 V2000
   -4.1016   -0.8156    0.0000 C   0  0  0  0  0  0  0  0  0  0  0  0
   -3.3866   -0.4048    0.0000 C   0  0  0  0  0  0  0  0  0  0  0  0
   -2.6717   -0.8156    0.0000 C   0  0  0  0  0  0  0  0  0  0  0  0
   -2.6717   -1.6460    0.0000 C   0  0  0  0  0  0  0  0  0  0  0  0
   -3.3866   -2.0565    0.0000 C   0  0  0  0  0  0  0  0  0  0  0  0
   -4.1016   -1.6460    0.0000 C   0  0  0  0  0  0  0  0  0  0  0  0
   -4.8163   -2.0565    0.0000 C   0  0  0  0  0  0  0  0  0  0  0  0
   -5.5312   -2.4719    0.0000 N   0  0  0  0  0  0  0  0  0  0  0  0
   -1.9522   -0.4048    0.0000 C   0  0  0  0  0  0  0  0  0  0  0  0
   -1.1982   -0.7394    0.0000 N   0  0  0  0  0  0  0  0  0  0  0  0
   -0.6445   -0.1256    0.0000 N   0  0  0  0  0  0  0  0  0  0  0  0
   -1.0595    0.5893    0.0000 C   0  0  0  0  0  0  0  0  0  0  0  0
   -1.8660    0.4183    0.0000 C   0  0  0  0  0  0  0  0  0  0  0  0
    0.1742   -0.2117    0.0000 C   0  0  0  0  0  0  0  0  0  0  0  0
    0.6629    0.4561    0.0000 C   0  0  1  0  0  0  0  0  0  0  0  0
    1.4816    0.3697    0.0000 N   0  0  0  0  0  0  0  0  0  0  0  0
    1.9703    1.0377    0.0000 C   0  0  0  0  0  0  0  0  0  0  0  0
    2.7890    0.9515    0.0000 C   0  0  0  0  0  0  0  0  0  0  0  0
    3.2042    0.2366    0.0000 N   0  0  0  0  0  0  0  0  0  0  0  0
    4.0106    0.4075    0.0000 N   0  0  0  0  0  0  0  0  0  0  0  0
    4.1015    1.2307    0.0000 C   0  0  0  0  0  0  0  0  0  0  0  0
    3.3427    1.5653    0.0000 C   0  0  0  0  0  0  0  0  0  0  0  0
    4.8163    1.6413    0.0000 C   0  0  3  0  0  0  0  0  0  0  0  0
    5.5312    1.2307    0.0000 C   0  0  0  0  0  0  0  0  0  0  0  0
    4.8163    2.4719    0.0000 O   0  0  0  0  0  0  0  0  0  0  0  0
    1.6312    1.7962    0.0000 O   0  0  0  0  0  0  0  0  0  0  0  0
    0.3238    1.2101    0.0000 C   0  0  0  0  0  0  0  0  0  0  0  0
   -4.8163   -0.4048    0.0000 Cl  0  0  0  0  0  0  0  0  0  0  0  0
   -3.3866    0.6272    0.0000 H   0  0  0  0  0  0  0  0  0  0  0  0
   -1.7786   -2.1631    0.0000 H   0  0  0  0  0  0  0  0  0  0  0  0
   -3.3866   -3.0885    0.0000 H   0  0  0  0  0  0  0  0  0  0  0  0
   -0.6406    1.5325    0.0000 H   0  0  0  0  0  0  0  0  0  0  0  0
   -2.6329    1.1089    0.0000 H   0  0  0  0  0  0  0  0  0  0  0  0
    0.6077   -1.1900    0.0000 H   0  0  0  0  0  0  0  0  0  0  0  0
    1.2380   -0.3263    0.0000 H   0  0  0  0  0  0  0  0  0  0  0  0
   -0.4013    0.5678    0.0000 H   0  0  0  0  0  0  0  0  0  0  0  0
    1.8804   -0.5304    0.0000 H   0  0  0  0  0  0  0  0  0  0  0  0
    4.7403   -0.2534    0.0000 H   0  0  0  0  0  0  0  0  0  0  0  0
    3.1268    2.5745    0.0000 H   0  0  0  0  0  0  0  0  0  0  0  0
    4.8163    0.5713    0.0000 H   0  0  0  0  0  0  0  0  0  0  0  0
    5.5336    0.1607    0.0000 H   0  0  0  0  0  0  0  0  0  0  0  0
    6.4566    1.7678    0.0000 H   0  0  0  0  0  0  0  0  0  0  0  0
    6.4591    0.6978    0.0000 H   0  0  0  0  0  0  0  0  0  0  0  0
    5.6563    2.9569    0.0000 H   0  0  0  0  0  0  0  0  0  0  0  0
    0.9495    2.0781    0.0000 H   0  0  0  0  0  0  0  0  0  0  0  0
   -0.7408    1.3179    0.0000 H   0  0  0  0  0  0  0  0  0  0  0  0
   -0.1151    2.1860    0.0000 H   0  0  0  0  0  0  0  0  0  0  0  0
  1  6  1  0  0  0  0
  1 28  1  0  0  0  0
  2  1  2  0  0  0  0
  2 29  1  0  0  0  0
  3  2  1  0  0  0  0
  3  9  1  0  0  0  0
  4  3  2  0  0  0  0
  4 30  1  0  0  0  0
  5  4  1  0  0  0  0
  5 31  1  0  0  0  0
  6  5  2  0  0  0  0
  6  7  1  0  0  0  0
  7  8  3  0  0  0  0
 10  9  2  0  0  0  0
 10 11  1  0  0  0  0
 11 12  1  0  0  0  0
 11 14  1  0  0  0  0
 12 13  2  0  0  0  0
 12 32  1  0  0  0  0
 13  9  1  0  0  0  0
 13 33  1  0  0  0  0
 14 15  1  0  0  0  0
 14 34  1  0  0  0  0
 14 35  1  0  0  0  0
 15 16  1  0  0  0  0
 15 27  1  0  0  0  0
 15 36  1  1  0  0  0
 16 17  1  0  0  0  0
 16 37  1  0  0  0  0
 17 18  1  0  0  0  0
 17 26  2  0  0  0  0
 19 18  2  0  0  0  0
 19 20  1  0  0  0  0
 20 21  1  0  0  0  0
 20 38  1  0  0  0  0
 21 22  2  0  0  0  0
 21 23  1  0  0  0  0
 22 18  1  0  0  0  0
 22 39  1  0  0  0  0
 23 24  1  0  0  0  0
 23 25  1  0  0  0  0
 23 40  1  0  0  0  0
 24 41  1  0  0  0  0
 24 42  1  0  0  0  0
 24 43  1  0  0  0  0
 25 44  1  0  0  0  0
 27 45  1  0  0  0  0
 27 46  1  0  0  0  0
 27 47  1  0  0  0  0
M  END
>  <DRUGBANK_ID>
DB12941

>  <COMMON_NAME>
Darolutamide

>  <CAS_NUMBER>
1297538-32-9

>  <UNII>
X05U0N2RCO

>  <SYNONYMS>
Darolutamide

$$$$
