
 OpenBabel10282417072D

 40 43  0  0  0  0  0  0  0  0999 V2000
   -0.1712   -0.6979    0.0000 C   0  0  0  0  0  0  0  0  0  0  0  0
    0.6538   -0.6979    0.0000 C   0  0  0  0  0  0  0  0  0  0  0  0
    1.1387   -0.0305    0.0000 C   0  0  0  0  0  0  0  0  0  0  0  0
    1.9233   -0.2854    0.0000 C   0  0  0  0  0  0  0  0  0  0  0  0
    2.6378    0.1271    0.0000 C   0  0  0  0  0  0  0  0  0  0  0  0
    3.3523   -0.2854    0.0000 N   0  0  0  0  0  0  0  0  0  0  0  0
    3.3523   -1.1104    0.0000 C   0  0  0  0  0  0  0  0  0  0  0  0
    2.6378   -1.5229    0.0000 N   0  0  0  0  0  0  0  0  0  0  0  0
    1.9233   -1.1104    0.0000 C   0  0  0  0  0  0  0  0  0  0  0  0
    1.1387   -1.3654    0.0000 S   0  0  0  0  0  0  0  0  0  0  0  0
    4.0668   -1.5229    0.0000 N   0  0  0  0  0  0  0  0  0  0  0  0
    4.7812   -1.1104    0.0000 C   0  0  0  0  0  0  0  0  0  0  0  0
    5.4957   -1.5229    0.0000 C   0  0  0  0  0  0  0  0  0  0  0  0
    5.4957   -2.3479    0.0000 N   0  0  0  0  0  0  0  0  0  0  0  0
    4.7812   -2.7604    0.0000 C   0  0  0  0  0  0  0  0  0  0  0  0
    4.0668   -2.3479    0.0000 C   0  0  0  0  0  0  0  0  0  0  0  0
    2.6378    0.9521    0.0000 C   0  0  0  0  0  0  0  0  0  0  0  0
    1.9233    1.3646    0.0000 C   0  0  0  0  0  0  0  0  0  0  0  0
    1.9233    2.1896    0.0000 C   0  0  0  0  0  0  0  0  0  0  0  0
    2.6378    2.6021    0.0000 C   0  0  0  0  0  0  0  0  0  0  0  0
    3.3523    2.1896    0.0000 C   0  0  0  0  0  0  0  0  0  0  0  0
    3.3523    1.3646    0.0000 C   0  0  0  0  0  0  0  0  0  0  0  0
    4.0668    0.9521    0.0000 F   0  0  0  0  0  0  0  0  0  0  0  0
   -0.7062    0.2287    0.0000 H   0  0  0  0  0  0  0  0  0  0  0  0
   -0.7062   -1.6245    0.0000 H   0  0  0  0  0  0  0  0  0  0  0  0
   -1.2412   -0.6979    0.0000 H   0  0  0  0  0  0  0  0  0  0  0  0
    0.8198    0.9510    0.0000 H   0  0  0  0  0  0  0  0  0  0  0  0
    4.7812   -0.0404    0.0000 H   0  0  0  0  0  0  0  0  0  0  0  0
    5.7078   -0.5754    0.0000 H   0  0  0  0  0  0  0  0  0  0  0  0
    6.4223   -0.9879    0.0000 H   0  0  0  0  0  0  0  0  0  0  0  0
    6.4223   -2.0579    0.0000 H   0  0  0  0  0  0  0  0  0  0  0  0
    6.3790   -2.8579    0.0000 H   0  0  0  0  0  0  0  0  0  0  0  0
    4.7812   -3.8304    0.0000 H   0  0  0  0  0  0  0  0  0  0  0  0
    3.8545   -3.2954    0.0000 H   0  0  0  0  0  0  0  0  0  0  0  0
    3.1401   -2.8829    0.0000 H   0  0  0  0  0  0  0  0  0  0  0  0
    3.1402   -1.8129    0.0000 H   0  0  0  0  0  0  0  0  0  0  0  0
    1.0296    0.8486    0.0000 H   0  0  0  0  0  0  0  0  0  0  0  0
    1.0296    2.7056    0.0000 H   0  0  0  0  0  0  0  0  0  0  0  0
    2.6378    3.6341    0.0000 H   0  0  0  0  0  0  0  0  0  0  0  0
    4.2460    2.7056    0.0000 H   0  0  0  0  0  0  0  0  0  0  0  0
  1  2  1  0  0  0  0
  1 24  1  0  0  0  0
  1 25  1  0  0  0  0
  1 26  1  0  0  0  0
  2  3  2  0  0  0  0
  2 10  1  0  0  0  0
  3  4  1  0  0  0  0
  3 27  1  0  0  0  0
  4  5  2  0  0  0  0
  4  9  1  0  0  0  0
  5  6  1  0  0  0  0
  5 17  1  0  0  0  0
  6  7  2  0  0  0  0
  7  8  1  0  0  0  0
  7 11  1  0  0  0  0
  8  9  2  0  0  0  0
  9 10  1  0  0  0  0
 11 12  1  0  0  0  0
 11 16  1  0  0  0  0
 12 13  1  0  0  0  0
 12 28  1  0  0  0  0
 12 29  1  0  0  0  0
 13 14  1  0  0  0  0
 13 30  1  0  0  0  0
 13 31  1  0  0  0  0
 14 15  1  0  0  0  0
 14 32  1  0  0  0  0
 15 16  1  0  0  0  0
 15 33  1  0  0  0  0
 15 34  1  0  0  0  0
 16 35  1  0  0  0  0
 16 36  1  0  0  0  0
 17 18  2  0  0  0  0
 17 22  1  0  0  0  0
 18 19  1  0  0  0  0
 18 37  1  0  0  0  0
 19 20  2  0  0  0  0
 19 38  1  0  0  0  0
 20 21  1  0  0  0  0
 20 39  1  0  0  0  0
 21 22  2  0  0  0  0
 21 40  1  0  0  0  0
 22 23  1  0  0  0  0
M  END
>  <DRUGBANK_ID>
DB18047

>  <COMMON_NAME>
DDP-225 free base anhydrous

>  <CAS_NUMBER>
99487-25-9

>  <UNII>
CU79LWT2HF

>  <SYNONYMS>
Thieno(2,3-d)pyrimidine, 4-(2-fluorophenyl)-6-methyl-2-(1-piperazinyl)-

$$$$
