
 OpenBabel10282417072D

 97102  0  0  1  0  0  0  0  0999 V2000
    4.6705   -5.9554    0.0000 C   0  0  0  0  0  0  0  0  0  0  0  0
    3.8455   -5.9554    0.0000 C   0  0  0  0  0  0  0  0  0  0  0  0
    3.8455   -6.7804    0.0000 C   0  0  0  0  0  0  0  0  0  0  0  0
    3.8455   -5.1304    0.0000 C   0  0  0  0  0  0  0  0  0  0  0  0
    3.0205   -5.9554    0.0000 O   0  0  0  0  0  0  0  0  0  0  0  0
    2.6080   -5.2409    0.0000 C   0  0  0  0  0  0  0  0  0  0  0  0
    3.0205   -4.5264    0.0000 O   0  0  0  0  0  0  0  0  0  0  0  0
    1.7830   -5.2409    0.0000 N   0  0  0  0  0  0  0  0  0  0  0  0
    1.3705   -5.9554    0.0000 C   0  0  1  0  0  0  0  0  0  0  0  0
    1.9836   -6.5074    0.0000 C   0  0  0  0  0  0  0  0  0  0  0  0
    2.3192   -7.2611    0.0000 C   0  0  0  0  0  0  0  0  0  0  0  0
    2.3192   -8.0861    0.0000 C   0  0  0  0  0  0  0  0  0  0  0  0
    1.9836   -8.8398    0.0000 C   0  0  0  0  0  0  0  0  0  0  0  0
    1.3705   -9.3918    0.0000 C   0  0  0  0  0  0  0  0  0  0  0  0
    0.5859   -9.6467    0.0000 C   0  0  0  0  0  0  0  0  0  0  0  0
   -0.2346   -9.5605    0.0000 C   0  0  0  0  0  0  0  0  0  0  0  0
   -0.9490   -9.1480    0.0000 C   0  0  2  0  0  0  0  0  0  0  0  0
   -1.7695   -9.2342    0.0000 C   0  0  0  0  0  0  0  0  0  0  0  0
   -1.4339   -8.4806    0.0000 C   0  0  1  0  0  0  0  0  0  0  0  0
   -1.6055   -7.6736    0.0000 N   0  0  0  0  0  0  0  0  0  0  0  0
   -1.4339   -6.8666    0.0000 C   0  0  0  0  0  0  0  0  0  0  0  0
   -2.1876   -6.5311    0.0000 O   0  0  0  0  0  0  0  0  0  0  0  0
   -0.9490   -6.1992    0.0000 C   0  0  2  0  0  0  0  0  0  0  0  0
   -1.5621   -5.6471    0.0000 C   0  0  0  0  0  0  0  0  0  0  0  0
   -1.2266   -4.8935    0.0000 C   0  0  2  0  0  0  0  0  0  0  0  0
   -0.4061   -4.9797    0.0000 C   0  0  0  0  0  0  0  0  0  0  0  0
   -0.2346   -5.7867    0.0000 N   0  0  0  0  0  0  0  0  0  0  0  0
    0.5859   -5.7004    0.0000 C   0  0  0  0  0  0  0  0  0  0  0  0
    0.6722   -4.8800    0.0000 O   0  0  0  0  0  0  0  0  0  0  0  0
   -1.6391   -4.1790    0.0000 O   0  0  0  0  0  0  0  0  0  0  0  0
   -1.2266   -3.4645    0.0000 C   0  0  0  0  0  0  0  0  0  0  0  0
   -1.6391   -2.7501    0.0000 O   0  0  0  0  0  0  0  0  0  0  0  0
   -0.4016   -3.4645    0.0000 N   0  0  0  0  0  0  0  0  0  0  0  0
    0.0834   -4.1320    0.0000 C   0  0  0  0  0  0  0  0  0  0  0  0
    0.8680   -3.8770    0.0000 C   0  0  0  0  0  0  0  0  0  0  0  0
    1.5825   -4.2895    0.0000 C   0  0  0  0  0  0  0  0  0  0  0  0
    2.2969   -3.8770    0.0000 C   0  0  0  0  0  0  0  0  0  0  0  0
    2.2969   -3.0520    0.0000 C   0  0  0  0  0  0  0  0  0  0  0  0
    1.5825   -2.6395    0.0000 C   0  0  0  0  0  0  0  0  0  0  0  0
    0.8680   -3.0520    0.0000 C   0  0  0  0  0  0  0  0  0  0  0  0
    0.0834   -2.7971    0.0000 C   0  0  0  0  0  0  0  0  0  0  0  0
    1.5825   -1.8145    0.0000 F   0  0  0  0  0  0  0  0  0  0  0  0
   -2.2544   -8.3943    0.0000 C   0  0  0  0  0  0  0  0  0  0  0  0
   -2.5900   -7.6406    0.0000 O   0  0  0  0  0  0  0  0  0  0  0  0
   -2.7394   -9.0618    0.0000 N   0  0  0  0  0  0  0  0  0  0  0  0
   -3.5598   -8.9755    0.0000 S   0  0  0  0  0  0  0  0  0  0  0  0
   -3.4736   -8.1550    0.0000 O   0  0  0  0  0  0  0  0  0  0  0  0
   -3.6461   -9.7960    0.0000 O   0  0  0  0  0  0  0  0  0  0  0  0
   -4.3803   -8.8893    0.0000 C   0  0  0  0  0  0  0  0  0  0  0  0
   -5.1340   -9.2248    0.0000 C   0  0  0  0  0  0  0  0  0  0  0  0
   -5.0478   -8.4044    0.0000 C   0  0  0  0  0  0  0  0  0  0  0  0
    5.2055   -6.8820    0.0000 H   0  0  0  0  0  0  0  0  0  0  0  0
    5.2055   -5.0288    0.0000 H   0  0  0  0  0  0  0  0  0  0  0  0
    5.7405   -5.9554    0.0000 H   0  0  0  0  0  0  0  0  0  0  0  0
    2.9189   -7.3154    0.0000 H   0  0  0  0  0  0  0  0  0  0  0  0
    4.7721   -7.3154    0.0000 H   0  0  0  0  0  0  0  0  0  0  0  0
    3.8455   -7.8504    0.0000 H   0  0  0  0  0  0  0  0  0  0  0  0
    4.7721   -4.5954    0.0000 H   0  0  0  0  0  0  0  0  0  0  0  0
    2.9189   -4.5954    0.0000 H   0  0  0  0  0  0  0  0  0  0  0  0
    3.8455   -4.0604    0.0000 H   0  0  0  0  0  0  0  0  0  0  0  0
    1.2907   -4.3883    0.0000 H   0  0  0  0  0  0  0  0  0  0  0  0
    2.4273   -5.7880    0.0000 H   0  0  0  0  0  0  0  0  0  0  0  0
    2.8492   -5.8784    0.0000 H   0  0  0  0  0  0  0  0  0  0  0  0
    3.0172   -6.7843    0.0000 H   0  0  0  0  0  0  0  0  0  0  0  0
    3.3658   -7.0386    0.0000 H   0  0  0  0  0  0  0  0  0  0  0  0
    3.1508   -7.9345    0.0000 H   0  0  0  0  0  0  0  0  0  0  0  0
    3.3658   -8.3086    0.0000 H   0  0  0  0  0  0  0  0  0  0  0  0
    2.8049   -9.0395    0.0000 H   0  0  0  0  0  0  0  0  0  0  0  0
    2.8492   -9.4688    0.0000 H   0  0  0  0  0  0  0  0  0  0  0  0
    2.0396   -9.9083    0.0000 H   0  0  0  0  0  0  0  0  0  0  0  0
    1.9055  -10.3185    0.0000 H   0  0  0  0  0  0  0  0  0  0  0  0
    0.9870  -10.3907    0.0000 H   0  0  0  0  0  0  0  0  0  0  0  0
    0.6938  -10.6730    0.0000 H   0  0  0  0  0  0  0  0  0  0  0  0
   -0.5535  -10.5420    0.0000 H   0  0  0  0  0  0  0  0  0  0  0  0
   -1.1715  -10.1946    0.0000 H   0  0  0  0  0  0  0  0  0  0  0  0
   -2.6352   -9.8631    0.0000 H   0  0  0  0  0  0  0  0  0  0  0  0
   -2.6010   -8.5608    0.0000 H   0  0  0  0  0  0  0  0  0  0  0  0
   -2.5900   -7.6736    0.0000 H   0  0  0  0  0  0  0  0  0  0  0  0
   -0.2330   -6.9944    0.0000 H   0  0  0  0  0  0  0  0  0  0  0  0
   -2.6087   -5.8696    0.0000 H   0  0  0  0  0  0  0  0  0  0  0  0
   -2.2355   -4.8156    0.0000 H   0  0  0  0  0  0  0  0  0  0  0  0
   -2.2951   -4.9495    0.0000 H   0  0  0  0  0  0  0  0  0  0  0  0
    0.3099   -4.1845    0.0000 H   0  0  0  0  0  0  0  0  0  0  0  0
    0.6274   -5.2567    0.0000 H   0  0  0  0  0  0  0  0  0  0  0  0
   -0.2472   -5.1496    0.0000 H   0  0  0  0  0  0  0  0  0  0  0  0
    0.8401   -4.8886    0.0000 H   0  0  0  0  0  0  0  0  0  0  0  0
    1.5825   -5.3215    0.0000 H   0  0  0  0  0  0  0  0  0  0  0  0
    3.1906   -4.3930    0.0000 H   0  0  0  0  0  0  0  0  0  0  0  0
    3.1906   -2.5360    0.0000 H   0  0  0  0  0  0  0  0  0  0  0  0
   -0.2472   -1.7795    0.0000 H   0  0  0  0  0  0  0  0  0  0  0  0
   -0.9734   -2.6296    0.0000 H   0  0  0  0  0  0  0  0  0  0  0  0
   -2.3390   -9.9612    0.0000 H   0  0  0  0  0  0  0  0  0  0  0  0
   -5.4444   -8.7774    0.0000 H   0  0  0  0  0  0  0  0  0  0  0  0
   -5.7629  -10.0904    0.0000 H   0  0  0  0  0  0  0  0  0  0  0  0
   -6.1329   -8.8414    0.0000 H   0  0  0  0  0  0  0  0  0  0  0  0
   -5.4831   -7.4269    0.0000 H   0  0  0  0  0  0  0  0  0  0  0  0
   -4.2163   -7.7310    0.0000 H   0  0  0  0  0  0  0  0  0  0  0  0
  1  2  1  0  0  0  0
  1 52  1  0  0  0  0
  1 53  1  0  0  0  0
  1 54  1  0  0  0  0
  2  3  1  0  0  0  0
  2  4  1  0  0  0  0
  2  5  1  0  0  0  0
  3 55  1  0  0  0  0
  3 56  1  0  0  0  0
  3 57  1  0  0  0  0
  4 58  1  0  0  0  0
  4 59  1  0  0  0  0
  4 60  1  0  0  0  0
  5  6  1  0  0  0  0
  6  7  2  0  0  0  0
  6  8  1  0  0  0  0
  8 61  1  0  0  0  0
  9  8  1  0  0  0  0
  9 10  1  0  0  0  0
  9 28  1  0  0  0  0
  9 62  1  6  0  0  0
 10 11  1  0  0  0  0
 10 63  1  0  0  0  0
 10 64  1  0  0  0  0
 11 12  1  0  0  0  0
 11 65  1  0  0  0  0
 11 66  1  0  0  0  0
 12 13  1  0  0  0  0
 12 67  1  0  0  0  0
 12 68  1  0  0  0  0
 13 14  1  0  0  0  0
 13 69  1  0  0  0  0
 13 70  1  0  0  0  0
 14 15  1  0  0  0  0
 14 71  1  0  0  0  0
 14 72  1  0  0  0  0
 15 16  2  0  0  0  0
 15 73  1  0  0  0  0
 16 17  1  0  0  0  0
 16 74  1  0  0  0  0
 17 18  1  0  0  0  0
 17 19  1  0  0  0  0
 17 75  1  1  0  0  0
 18 19  1  0  0  0  0
 18 76  1  0  0  0  0
 18 77  1  0  0  0  0
 19 20  1  0  0  0  0
 19 43  1  6  0  0  0
 20 21  1  0  0  0  0
 20 78  1  0  0  0  0
 21 22  2  0  0  0  0
 21 23  1  0  0  0  0
 23 24  1  0  0  0  0
 23 27  1  0  0  0  0
 23 79  1  1  0  0  0
 24 25  1  0  0  0  0
 24 80  1  0  0  0  0
 24 81  1  0  0  0  0
 25 26  1  0  0  0  0
 25 30  1  0  0  0  0
 25 82  1  6  0  0  0
 26 27  1  0  0  0  0
 26 83  1  0  0  0  0
 26 84  1  0  0  0  0
 27 28  1  0  0  0  0
 28 29  2  0  0  0  0
 30 31  1  0  0  0  0
 31 32  2  0  0  0  0
 31 33  1  0  0  0  0
 33 34  1  0  0  0  0
 33 41  1  0  0  0  0
 34 35  1  0  0  0  0
 34 85  1  0  0  0  0
 34 86  1  0  0  0  0
 35 36  2  0  0  0  0
 35 40  1  0  0  0  0
 36 37  1  0  0  0  0
 36 87  1  0  0  0  0
 37 38  2  0  0  0  0
 37 88  1  0  0  0  0
 38 39  1  0  0  0  0
 38 89  1  0  0  0  0
 39 40  2  0  0  0  0
 39 42  1  0  0  0  0
 40 41  1  0  0  0  0
 41 90  1  0  0  0  0
 41 91  1  0  0  0  0
 43 44  2  0  0  0  0
 43 45  1  0  0  0  0
 45 46  1  0  0  0  0
 45 92  1  0  0  0  0
 46 47  2  0  0  0  0
 46 48  2  0  0  0  0
 46 49  1  0  0  0  0
 49 50  1  0  0  0  0
 49 51  1  0  0  0  0
 49 93  1  0  0  0  0
 50 51  1  0  0  0  0
 50 94  1  0  0  0  0
 50 95  1  0  0  0  0
 51 96  1  0  0  0  0
 51 97  1  0  0  0  0
M  END
>  <DRUGBANK_ID>
DB11779

>  <SECONDARY_ACCESSION_NUMBERS>
DB06038

>  <COMMON_NAME>
Danoprevir

>  <CAS_NUMBER>
850876-88-9

>  <UNII>
911Z9PCQ5F

>  <SYNONYMS>
Danoprevir

$$$$
