
 OpenBabel10282417072D

 28 29  0  0  1  0  0  0  0  0999 V2000
    3.3523    1.1104    0.0000 C   0  0  0  0  0  0  0  0  0  0  0  0
    3.3523    1.9354    0.0000 C   0  0  0  0  0  0  0  0  0  0  0  0
    2.6378    0.6979    0.0000 C   0  0  0  0  0  0  0  0  0  0  0  0
    2.6378    2.3479    0.0000 C   0  0  0  0  0  0  0  0  0  0  0  0
    0.8838    0.0709    0.0000 C   0  0  0  0  0  0  0  0  0  0  0  0
    1.9233    1.1104    0.0000 C   0  0  0  0  0  0  0  0  0  0  0  0
    1.1387    0.8555    0.0000 C   0  0  0  0  0  0  0  0  0  0  0  0
    1.4358   -0.5422    0.0000 C   0  0  1  0  0  0  0  0  0  0  0  0
    1.9233    1.9354    0.0000 C   0  0  0  0  0  0  0  0  0  0  0  0
    0.6538    1.5229    0.0000 C   0  0  0  0  0  0  0  0  0  0  0  0
    1.1809   -1.3268    0.0000 C   0  0  0  0  0  0  0  0  0  0  0  0
    2.2428   -0.3707    0.0000 N   0  0  0  0  0  0  0  0  0  0  0  0
    1.1387    2.1904    0.0000 N   0  0  0  0  0  0  0  0  0  0  0  0
   -0.1712    1.5229    0.0000 O   0  0  0  0  0  0  0  0  0  0  0  0
    1.7329   -1.9399    0.0000 O   0  0  0  0  0  0  0  0  0  0  0  0
    0.3739   -1.4984    0.0000 O   0  0  0  0  0  0  0  0  0  0  0  0
    0.6288   -0.7137    0.0000 H   0  0  0  0  0  0  0  0  0  0  0  0
    4.2460    0.5944    0.0000 H   0  0  0  0  0  0  0  0  0  0  0  0
    4.2460    2.4514    0.0000 H   0  0  0  0  0  0  0  0  0  0  0  0
    2.6378   -0.3341    0.0000 H   0  0  0  0  0  0  0  0  0  0  0  0
    2.6378    3.3799    0.0000 H   0  0  0  0  0  0  0  0  0  0  0  0
   -0.1628   -0.1516    0.0000 H   0  0  0  0  0  0  0  0  0  0  0  0
    0.5531   -0.9467    0.0000 H   0  0  0  0  0  0  0  0  0  0  0  0
    2.9253   -1.1287    0.0000 H   0  0  0  0  0  0  0  0  0  0  0  0
    2.5580    0.5994    0.0000 H   0  0  0  0  0  0  0  0  0  0  0  0
    0.8345    3.1267    0.0000 H   0  0  0  0  0  0  0  0  0  0  0  0
   -0.6397    2.3344    0.0000 H   0  0  0  0  0  0  0  0  0  0  0  0
   -0.2531   -0.8021    0.0000 H   0  0  0  0  0  0  0  0  0  0  0  0
  1 18  1  0  0  0  0
  2  1  2  0  0  0  0
  2 19  1  0  0  0  0
  3  1  1  0  0  0  0
  3 20  1  0  0  0  0
  4  2  1  0  0  0  0
  4 21  1  0  0  0  0
  5 22  1  0  0  0  0
  5 23  1  0  0  0  0
  6  3  2  0  0  0  0
  7  5  1  0  0  0  0
  7  6  1  0  0  0  0
  8  5  1  0  0  0  0
  8 12  1  0  0  0  0
  8 17  1  1  0  0  0
  9  4  2  0  0  0  0
  9  6  1  0  0  0  0
 10  7  2  0  0  0  0
 11  8  1  0  0  0  0
 12 24  1  0  0  0  0
 12 25  1  0  0  0  0
 13  9  1  0  0  0  0
 13 10  1  0  0  0  0
 13 26  1  0  0  0  0
 14 10  1  0  0  0  0
 14 27  1  0  0  0  0
 15 11  2  0  0  0  0
 16 11  1  0  0  0  0
 16 28  1  0  0  0  0
M  END
>  <DRUGBANK_ID>
DB03679

>  <SECONDARY_ACCESSION_NUMBERS>
EXPT03112

>  <COMMON_NAME>
2-Hydroxy-Tryptophan

>  <UNII>
TCB9GM9U3X

$$$$
