
 OpenBabel10282417072D

 45 49  0  0  0  0  0  0  0  0999 V2000
   -5.0013   -0.4125    0.0000 F   0  0  0  0  0  0  0  0  0  0  0  0
   -4.2868    0.0000    0.0000 C   0  0  0  0  0  0  0  0  0  0  0  0
   -4.2868    0.8250    0.0000 C   0  0  0  0  0  0  0  0  0  0  0  0
   -3.5724    1.2375    0.0000 C   0  0  0  0  0  0  0  0  0  0  0  0
   -2.8579    0.8250    0.0000 C   0  0  0  0  0  0  0  0  0  0  0  0
   -2.8579    0.0000    0.0000 C   0  0  0  0  0  0  0  0  0  0  0  0
   -2.1434   -0.4125    0.0000 C   0  0  0  0  0  0  0  0  0  0  0  0
   -2.1434   -1.2375    0.0000 C   0  0  0  0  0  0  0  0  0  0  0  0
   -1.4289   -1.6500    0.0000 N   0  0  0  0  0  0  0  0  0  0  0  0
   -1.4289   -2.4750    0.0000 N   0  0  0  0  0  0  0  0  0  0  0  0
   -0.7145   -2.8875    0.0000 N   0  0  0  0  0  0  0  0  0  0  0  0
   -0.0000   -2.4750    0.0000 C   0  0  0  0  0  0  0  0  0  0  0  0
    0.7145   -2.8875    0.0000 C   0  0  0  0  0  0  0  0  0  0  0  0
    1.4289   -2.4750    0.0000 C   0  0  0  0  0  0  0  0  0  0  0  0
    1.4289   -1.6500    0.0000 C   0  0  0  0  0  0  0  0  0  0  0  0
    2.1434   -1.2375    0.0000 O   0  0  0  0  0  0  0  0  0  0  0  0
    2.8579   -1.6500    0.0000 C   0  0  0  0  0  0  0  0  0  0  0  0
    2.8579   -2.4750    0.0000 N   0  0  0  0  0  0  0  0  0  0  0  0
    3.5724   -2.8875    0.0000 C   0  0  0  0  0  0  0  0  0  0  0  0
    4.3974   -2.8875    0.0000 C   0  0  0  0  0  0  0  0  0  0  0  0
    3.9849   -3.6020    0.0000 C   0  0  0  0  0  0  0  0  0  0  0  0
    2.1434   -2.8875    0.0000 C   0  0  0  0  0  0  0  0  0  0  0  0
    2.1434   -3.7125    0.0000 O   0  0  0  0  0  0  0  0  0  0  0  0
    0.7145   -1.2375    0.0000 C   0  0  0  0  0  0  0  0  0  0  0  0
    0.0000   -1.6500    0.0000 C   0  0  0  0  0  0  0  0  0  0  0  0
   -0.7145   -1.2375    0.0000 C   0  0  0  0  0  0  0  0  0  0  0  0
   -0.7145   -0.4125    0.0000 O   0  0  0  0  0  0  0  0  0  0  0  0
   -3.5724   -0.4125    0.0000 C   0  0  0  0  0  0  0  0  0  0  0  0
   -5.1805    1.3410    0.0000 H   0  0  0  0  0  0  0  0  0  0  0  0
   -3.5724    2.2695    0.0000 H   0  0  0  0  0  0  0  0  0  0  0  0
   -1.9642    1.3410    0.0000 H   0  0  0  0  0  0  0  0  0  0  0  0
   -1.2168    0.1225    0.0000 H   0  0  0  0  0  0  0  0  0  0  0  0
   -1.2168   -0.9475    0.0000 H   0  0  0  0  0  0  0  0  0  0  0  0
   -3.0700   -1.7725    0.0000 H   0  0  0  0  0  0  0  0  0  0  0  0
   -2.1434   -2.3075    0.0000 H   0  0  0  0  0  0  0  0  0  0  0  0
    0.7145   -3.9195    0.0000 H   0  0  0  0  0  0  0  0  0  0  0  0
    3.7845   -1.1150    0.0000 H   0  0  0  0  0  0  0  0  0  0  0  0
    3.7845   -2.1850    0.0000 H   0  0  0  0  0  0  0  0  0  0  0  0
    4.4990   -3.4225    0.0000 H   0  0  0  0  0  0  0  0  0  0  0  0
    5.3240   -2.3525    0.0000 H   0  0  0  0  0  0  0  0  0  0  0  0
    5.1540   -3.6441    0.0000 H   0  0  0  0  0  0  0  0  0  0  0  0
    3.9849   -4.6720    0.0000 H   0  0  0  0  0  0  0  0  0  0  0  0
    2.9514   -3.8789    0.0000 H   0  0  0  0  0  0  0  0  0  0  0  0
    0.7145   -0.2055    0.0000 H   0  0  0  0  0  0  0  0  0  0  0  0
   -3.5724   -1.4445    0.0000 H   0  0  0  0  0  0  0  0  0  0  0  0
  1  2  1  0  0  0  0
  2  3  2  0  0  0  0
  2 28  1  0  0  0  0
  3  4  1  0  0  0  0
  3 29  1  0  0  0  0
  4  5  2  0  0  0  0
  4 30  1  0  0  0  0
  5  6  1  0  0  0  0
  5 31  1  0  0  0  0
  6  7  1  0  0  0  0
  6 28  2  0  0  0  0
  7  8  1  0  0  0  0
  7 32  1  0  0  0  0
  7 33  1  0  0  0  0
  8  9  1  0  0  0  0
  8 34  1  0  0  0  0
  8 35  1  0  0  0  0
  9 10  1  0  0  0  0
  9 26  1  0  0  0  0
 10 11  2  0  0  0  0
 11 12  1  0  0  0  0
 12 13  2  0  0  0  0
 12 25  1  0  0  0  0
 13 14  1  0  0  0  0
 13 36  1  0  0  0  0
 14 15  2  0  0  0  0
 14 22  1  0  0  0  0
 15 16  1  0  0  0  0
 15 24  1  0  0  0  0
 16 17  1  0  0  0  0
 17 18  1  0  0  0  0
 17 37  1  0  0  0  0
 17 38  1  0  0  0  0
 18 19  1  0  0  0  0
 18 22  1  0  0  0  0
 19 20  1  0  0  0  0
 19 21  1  0  0  0  0
 19 39  1  0  0  0  0
 20 21  1  0  0  0  0
 20 40  1  0  0  0  0
 20 41  1  0  0  0  0
 21 42  1  0  0  0  0
 21 43  1  0  0  0  0
 22 23  2  0  0  0  0
 24 25  2  0  0  0  0
 24 44  1  0  0  0  0
 25 26  1  0  0  0  0
 26 27  2  0  0  0  0
 28 45  1  0  0  0  0
M  END
>  <DRUGBANK_ID>
DB16344

>  <COMMON_NAME>
Tulrampator

>  <CAS_NUMBER>
1038984-31-4

>  <UNII>
7633T9D4LN

>  <SYNONYMS>
Tulrampator

$$$$
