
 OpenBabel10282417072D

 33 34  0  0  0  0  0  0  0  0999 V2000
    0.1333    1.6763    0.0000 S   0  0  0  0  0  0  0  0  0  0  0  0
    0.0471   -0.7940    0.0000 O   0  0  0  0  0  0  0  0  0  0  0  0
   -0.6673    0.4434    0.0000 N   0  0  0  0  0  0  0  0  0  0  0  0
    0.8007    0.5203    0.0000 N   0  0  0  0  0  0  0  0  0  0  0  0
   -2.0962   -2.8564    0.0000 N   0  0  0  0  0  0  0  0  0  0  0  0
    1.2758    2.6015    0.0000 C   0  0  0  0  0  0  0  0  0  0  0  0
    0.9402    1.8478    0.0000 C   0  0  0  0  0  0  0  0  0  0  0  0
    0.7908    3.2689    0.0000 C   0  0  0  0  0  0  0  0  0  0  0  0
    2.0962    2.6877    0.0000 C   0  0  0  0  0  0  0  0  0  0  0  0
    1.3527    1.1334    0.0000 C   0  0  0  0  0  0  0  0  0  0  0  0
    0.0471    0.8558    0.0000 C   0  0  0  0  0  0  0  0  0  0  0  0
   -1.3818   -0.7940    0.0000 C   0  0  0  0  0  0  0  0  0  0  0  0
   -0.6673   -0.3815    0.0000 C   0  0  0  0  0  0  0  0  0  0  0  0
   -1.3818   -1.6189    0.0000 C   0  0  0  0  0  0  0  0  0  0  0  0
   -0.6673   -2.0314    0.0000 C   0  0  0  0  0  0  0  0  0  0  0  0
   -2.0962   -2.0314    0.0000 C   0  0  0  0  0  0  0  0  0  0  0  0
   -0.6673   -2.8564    0.0000 C   0  0  0  0  0  0  0  0  0  0  0  0
   -1.3818   -3.2689    0.0000 C   0  0  0  0  0  0  0  0  0  0  0  0
   -1.1103    0.6991    0.0000 H   0  0  0  0  0  0  0  0  0  0  0  0
    1.7110    3.5790    0.0000 H   0  0  0  0  0  0  0  0  0  0  0  0
    1.2259    4.2464    0.0000 H   0  0  0  0  0  0  0  0  0  0  0  0
   -0.2733    3.1569    0.0000 H   0  0  0  0  0  0  0  0  0  0  0  0
    0.1618    4.1345    0.0000 H   0  0  0  0  0  0  0  0  0  0  0  0
    2.7251    1.8220    0.0000 H   0  0  0  0  0  0  0  0  0  0  0  0
    2.5314    3.6652    0.0000 H   0  0  0  0  0  0  0  0  0  0  0  0
    3.1603    2.7995    0.0000 H   0  0  0  0  0  0  0  0  0  0  0  0
    2.3791    1.0256    0.0000 H   0  0  0  0  0  0  0  0  0  0  0  0
   -2.3084   -0.2590    0.0000 H   0  0  0  0  0  0  0  0  0  0  0  0
   -2.3084   -1.3290    0.0000 H   0  0  0  0  0  0  0  0  0  0  0  0
    0.2264   -1.5154    0.0000 H   0  0  0  0  0  0  0  0  0  0  0  0
   -2.9899   -1.5154    0.0000 H   0  0  0  0  0  0  0  0  0  0  0  0
    0.2264   -3.3724    0.0000 H   0  0  0  0  0  0  0  0  0  0  0  0
   -1.3818   -4.3009    0.0000 H   0  0  0  0  0  0  0  0  0  0  0  0
  1  7  1  0  0  0  0
  1 11  1  0  0  0  0
  2 13  2  0  0  0  0
  3 11  1  0  0  0  0
  3 13  1  0  0  0  0
  3 19  1  0  0  0  0
  4 10  1  0  0  0  0
  4 11  2  0  0  0  0
  5 16  1  0  0  0  0
  5 18  2  0  0  0  0
  6  7  1  0  0  0  0
  6  8  1  0  0  0  0
  6  9  1  0  0  0  0
  6 20  1  0  0  0  0
  7 10  2  0  0  0  0
  8 21  1  0  0  0  0
  8 22  1  0  0  0  0
  8 23  1  0  0  0  0
  9 24  1  0  0  0  0
  9 25  1  0  0  0  0
  9 26  1  0  0  0  0
 10 27  1  0  0  0  0
 12 13  1  0  0  0  0
 12 14  1  0  0  0  0
 12 28  1  0  0  0  0
 12 29  1  0  0  0  0
 14 15  1  0  0  0  0
 14 16  2  0  0  0  0
 15 17  2  0  0  0  0
 15 30  1  0  0  0  0
 16 31  1  0  0  0  0
 17 18  1  0  0  0  0
 17 32  1  0  0  0  0
 18 33  1  0  0  0  0
M  END
>  <DRUGBANK_ID>
DB08677

>  <COMMON_NAME>
N-(5-Isopropyl-thiazol-2-YL)-2-pyridin-3-YL-acetamide

$$$$
