GF1
 OpenBabel10282417072D

 32 34  0  0  0  0  0  0  0  0999 V2000
   -1.1100   -1.4419    0.0000 O   0  0  0  0  0  0  0  0  0  0  0  0
   -0.5072   -0.8787    0.0000 C   0  0  0  0  0  0  0  0  0  0  0  0
   -0.6085   -0.0599    0.0000 N   0  0  0  0  0  0  0  0  0  0  0  0
   -1.3304    0.3394    0.0000 C   0  0  2  0  0  0  0  0  0  0  0  0
   -1.3456    1.1642    0.0000 C   0  0  0  0  0  0  0  0  0  0  0  0
   -2.0675    1.5635    0.0000 O   0  0  0  0  0  0  0  0  0  0  0  0
   -0.6388    1.5898    0.0000 O   0  0  0  0  0  0  0  0  0  0  0  0
   -2.0372   -0.0862    0.0000 C   0  0  0  0  0  0  0  0  0  0  0  0
    0.3028   -1.0353    0.0000 C   0  0  2  0  0  0  0  0  0  0  0  0
    0.7021   -0.3134    0.0000 C   0  0  2  0  0  0  0  0  0  0  0  0
    0.1389    0.2895    0.0000 C   0  0  0  0  0  0  0  0  0  0  0  0
    0.2955    1.0995    0.0000 O   0  0  0  0  0  0  0  0  0  0  0  0
    1.0783   -0.6450    0.0000 C   0  0  1  0  0  0  0  0  0  0  0  0
    1.8088   -1.0153    0.0000 C   0  0  0  0  0  0  0  0  0  0  0  0
    2.1039   -0.3899    0.0000 C   0  0  0  0  0  0  0  0  0  0  0  0
    1.1484    0.8908    0.0000 C   0  0  0  0  0  0  0  0  0  0  0  0
    1.3084    0.0754    0.0000 C   0  0  2  0  0  0  0  0  0  0  0  0
   -0.8302    0.6406    0.0000 H   0  0  0  0  0  0  0  0  0  0  0  0
    0.3829   -1.6137    0.0000 H   0  0  0  0  0  0  0  0  0  0  0  0
    0.7747    0.2660    0.0000 H   0  0  0  0  0  0  0  0  0  0  0  0
    1.0775   -1.2289    0.0000 H   0  0  0  0  0  0  0  0  0  0  0  0
    1.4969    0.6281    0.0000 H   0  0  0  0  0  0  0  0  0  0  0  0
   -2.0847    2.5003    0.0000 H   0  0  0  0  0  0  0  0  0  0  0  0
   -2.9735    0.4317    0.0000 H   0  0  0  0  0  0  0  0  0  0  0  0
   -2.0175   -1.1560    0.0000 H   0  0  0  0  0  0  0  0  0  0  0  0
   -2.9538   -0.6382    0.0000 H   0  0  0  0  0  0  0  0  0  0  0  0
    2.1559   -2.0274    0.0000 H   0  0  0  0  0  0  0  0  0  0  0  0
    2.8772   -1.0744    0.0000 H   0  0  0  0  0  0  0  0  0  0  0  0
    3.1260   -0.0734    0.0000 H   0  0  0  0  0  0  0  0  0  0  0  0
    2.2261    0.6731    0.0000 H   0  0  0  0  0  0  0  0  0  0  0  0
    1.0692    1.9579    0.0000 H   0  0  0  0  0  0  0  0  0  0  0  0
    2.2088    1.0337    0.0000 H   0  0  0  0  0  0  0  0  0  0  0  0
  1  2  2  0  0  0  0
  2  9  1  0  0  0  0
  3  2  1  0  0  0  0
  3 11  1  0  0  0  0
  4  3  1  0  0  0  0
  4  5  1  0  0  0  0
  4 18  1  6  0  0  0
  4  8  1  0  0  0  0
  5  6  1  0  0  0  0
  6 23  1  0  0  0  0
  7  5  2  0  0  0  0
  8 24  1  0  0  0  0
  8 25  1  0  0  0  0
  8 26  1  0  0  0  0
  9 19  1  1  0  0  0
 10  9  1  0  0  0  0
 10 20  1  1  0  0  0
 11 10  1  0  0  0  0
 12 11  2  0  0  0  0
 13  9  1  0  0  0  0
 13 16  1  0  0  0  0
 13 21  1  1  0  0  0
 14 13  1  0  0  0  0
 14 27  1  0  0  0  0
 14 28  1  0  0  0  0
 15 14  1  0  0  0  0
 15 17  1  0  0  0  0
 15 29  1  0  0  0  0
 15 30  1  0  0  0  0
 16 31  1  0  0  0  0
 16 32  1  0  0  0  0
 17 10  1  0  0  0  0
 17 16  1  0  0  0  0
 17 22  1  6  0  0  0
M  END
>  <DRUGBANK_ID>
DB07823

>  <COMMON_NAME>
(2S)-2-[(3aR,4R,7S,7aS)-1,3-dioxooctahydro-2H-4,7-methanoisoindol-2-yl]propanoic acid

$$$$
