
 OpenBabel10282417072D

 57 59  0  0  0  0  0  0  0  0999 V2000
    2.8998    2.2213    0.0000 C   0  0  0  0  0  0  0  0  0  0  0  0
    2.1673    0.9944    0.0000 N   0  0  0  0  0  0  0  0  0  0  0  0
    2.8877    1.3964    0.0000 C   0  0  1  0  0  0  0  0  0  0  0  0
    3.5961    0.9735    0.0000 C   0  0  0  0  0  0  0  0  0  0  0  0
    4.3166    1.3755    0.0000 C   0  0  0  0  0  0  0  0  0  0  0  0
    5.0249    0.9525    0.0000 C   0  0  0  0  0  0  0  0  0  0  0  0
    5.7454    1.3546    0.0000 O   0  0  0  0  0  0  0  0  0  0  0  0
    5.0128    0.1277    0.0000 O   0  0  0  0  0  0  0  0  0  0  0  0
    2.1915    2.6443    0.0000 O   0  0  0  0  0  0  0  0  0  0  0  0
    3.6202    2.6234    0.0000 O   0  0  0  0  0  0  0  0  0  0  0  0
    2.1552    0.1696    0.0000 C   0  0  0  0  0  0  0  0  0  0  0  0
    1.4348   -0.2324    0.0000 C   0  0  0  0  0  0  0  0  0  0  0  0
    1.4227   -1.0572    0.0000 C   0  0  0  0  0  0  0  0  0  0  0  0
    0.7022   -1.4593    0.0000 C   0  0  0  0  0  0  0  0  0  0  0  0
   -0.0060   -1.0363    0.0000 C   0  0  0  0  0  0  0  0  0  0  0  0
    0.0060   -0.2115    0.0000 C   0  0  0  0  0  0  0  0  0  0  0  0
    0.7264    0.1905    0.0000 C   0  0  0  0  0  0  0  0  0  0  0  0
    2.8636   -0.2533    0.0000 O   0  0  0  0  0  0  0  0  0  0  0  0
   -0.7264   -1.4383    0.0000 C   0  0  0  0  0  0  0  0  0  0  0  0
   -1.4348   -1.0154    0.0000 C   0  0  0  0  0  0  0  0  0  0  0  0
   -5.0249   -2.2004    0.0000 C   0  0  0  0  0  0  0  0  0  0  0  0
   -4.3166   -2.6234    0.0000 N   0  0  0  0  0  0  0  0  0  0  0  0
   -3.5961   -2.2213    0.0000 C   0  0  0  0  0  0  0  0  0  0  0  0
   -3.5840   -1.3965    0.0000 C   0  0  0  0  0  0  0  0  0  0  0  0
   -4.2924   -0.9735    0.0000 C   0  0  0  0  0  0  0  0  0  0  0  0
   -5.0128   -1.3756    0.0000 N   0  0  0  0  0  0  0  0  0  0  0  0
   -2.8636   -0.9944    0.0000 C   0  0  0  0  0  0  0  0  0  0  0  0
   -2.1552   -1.4174    0.0000 C   0  0  2  0  0  0  0  0  0  0  0  0
   -2.1673   -2.2423    0.0000 C   0  0  0  0  0  0  0  0  0  0  0  0
   -2.8877   -2.6443    0.0000 N   0  0  0  0  0  0  0  0  0  0  0  0
   -4.2803   -0.1486    0.0000 O   0  0  0  0  0  0  0  0  0  0  0  0
   -5.7454   -2.6024    0.0000 N   0  0  0  0  0  0  0  0  0  0  0  0
    1.3220    1.4991    0.0000 H   0  0  0  0  0  0  0  0  0  0  0  0
    1.9690    1.9449    0.0000 H   0  0  0  0  0  0  0  0  0  0  0  0
    3.5804   -0.0964    0.0000 H   0  0  0  0  0  0  0  0  0  0  0  0
    4.5148    0.4250    0.0000 H   0  0  0  0  0  0  0  0  0  0  0  0
    4.3323    2.4454    0.0000 H   0  0  0  0  0  0  0  0  0  0  0  0
    5.2510    1.8968    0.0000 H   0  0  0  0  0  0  0  0  0  0  0  0
    4.1945   -0.3288    0.0000 H   0  0  0  0  0  0  0  0  0  0  0  0
    4.4248    2.1432    0.0000 H   0  0  0  0  0  0  0  0  0  0  0  0
    2.3088   -1.5862    0.0000 H   0  0  0  0  0  0  0  0  0  0  0  0
    0.6870   -2.4912    0.0000 H   0  0  0  0  0  0  0  0  0  0  0  0
   -0.8801    0.3175    0.0000 H   0  0  0  0  0  0  0  0  0  0  0  0
    0.7415    1.2224    0.0000 H   0  0  0  0  0  0  0  0  0  0  0  0
   -0.7420   -2.5082    0.0000 H   0  0  0  0  0  0  0  0  0  0  0  0
    0.1923   -1.9868    0.0000 H   0  0  0  0  0  0  0  0  0  0  0  0
   -1.4192    0.0545    0.0000 H   0  0  0  0  0  0  0  0  0  0  0  0
   -2.3535   -0.4669    0.0000 H   0  0  0  0  0  0  0  0  0  0  0  0
   -4.3310   -3.6078    0.0000 H   0  0  0  0  0  0  0  0  0  0  0  0
   -2.8480    0.0755    0.0000 H   0  0  0  0  0  0  0  0  0  0  0  0
   -3.7824   -0.4460    0.0000 H   0  0  0  0  0  0  0  0  0  0  0  0
   -2.1395   -0.3475    0.0000 H   0  0  0  0  0  0  0  0  0  0  0  0
   -1.2486   -2.7908    0.0000 H   0  0  0  0  0  0  0  0  0  0  0  0
   -2.1830   -3.3122    0.0000 H   0  0  0  0  0  0  0  0  0  0  0  0
   -2.9021   -3.6287    0.0000 H   0  0  0  0  0  0  0  0  0  0  0  0
   -6.5907   -2.0977    0.0000 H   0  0  0  0  0  0  0  0  0  0  0  0
   -5.7598   -3.5868    0.0000 H   0  0  0  0  0  0  0  0  0  0  0  0
  1  3  1  0  0  0  0
  1  9  2  0  0  0  0
  1 10  1  0  0  0  0
  2 11  1  0  0  0  0
  2 33  1  0  0  0  0
  3  2  1  0  0  0  0
  3  4  1  0  0  0  0
  3 34  1  1  0  0  0
  4  5  1  0  0  0  0
  4 35  1  0  0  0  0
  4 36  1  0  0  0  0
  5  6  1  0  0  0  0
  5 37  1  0  0  0  0
  5 38  1  0  0  0  0
  6  7  2  0  0  0  0
  6  8  1  0  0  0  0
  8 39  1  0  0  0  0
 10 40  1  0  0  0  0
 11 12  1  0  0  0  0
 11 18  2  0  0  0  0
 12 13  1  0  0  0  0
 12 17  2  0  0  0  0
 13 14  2  0  0  0  0
 13 41  1  0  0  0  0
 14 15  1  0  0  0  0
 14 42  1  0  0  0  0
 15 16  2  0  0  0  0
 15 19  1  0  0  0  0
 16 17  1  0  0  0  0
 16 43  1  0  0  0  0
 17 44  1  0  0  0  0
 19 20  1  0  0  0  0
 19 45  1  0  0  0  0
 19 46  1  0  0  0  0
 20 47  1  0  0  0  0
 20 48  1  0  0  0  0
 21 22  1  0  0  0  0
 21 26  2  0  0  0  0
 21 32  1  0  0  0  0
 22 23  1  0  0  0  0
 22 49  1  0  0  0  0
 23 24  2  0  0  0  0
 23 30  1  0  0  0  0
 24 25  1  0  0  0  0
 24 27  1  0  0  0  0
 25 26  1  0  0  0  0
 25 31  2  0  0  0  0
 27 28  1  0  0  0  0
 27 50  1  0  0  0  0
 27 51  1  0  0  0  0
 28 29  1  0  0  0  0
 28 20  1  0  0  0  0
 28 52  1  6  0  0  0
 29 30  1  0  0  0  0
 29 53  1  0  0  0  0
 29 54  1  0  0  0  0
 30 55  1  0  0  0  0
 32 56  1  0  0  0  0
 32 57  1  0  0  0  0
M  END
>  <DRUGBANK_ID>
DB12769

>  <COMMON_NAME>
Lometrexol

>  <CAS_NUMBER>
106400-81-1

>  <UNII>
6P3AVY8A7Q

>  <SYNONYMS>
Lometrexol; Lometrexolum

$$$$
