
 OpenBabel10282417072D

 36 38  0  0  0  0  0  0  0  0999 V2000
   -2.1433   -0.6187    0.0000 C   0  0  0  0  0  0  0  0  0  0  0  0
   -2.1433   -1.4437    0.0000 C   0  0  0  0  0  0  0  0  0  0  0  0
   -1.4288   -0.2062    0.0000 N   0  0  0  0  0  0  0  0  0  0  0  0
   -2.8577   -0.2062    0.0000 C   0  0  0  0  0  0  0  0  0  0  0  0
   -1.4288   -1.8562    0.0000 N   0  0  0  0  0  0  0  0  0  0  0  0
   -2.8577   -1.8562    0.0000 N   0  3  0  0  0  0  0  0  0  0  0  0
   -0.7143   -0.6187    0.0000 C   0  0  0  0  0  0  0  0  0  0  0  0
   -3.5722   -0.6187    0.0000 N   0  0  0  0  0  0  0  0  0  0  0  0
   -2.8577    0.6187    0.0000 O   0  0  0  0  0  0  0  0  0  0  0  0
   -0.7143   -1.4437    0.0000 C   0  0  0  0  0  0  0  0  0  0  0  0
   -3.5722   -1.4437    0.0000 C   0  0  0  0  0  0  0  0  0  0  0  0
   -4.2867   -1.8562    0.0000 N   0  0  0  0  0  0  0  0  0  0  0  0
    0.0001   -0.2062    0.0000 C   0  0  0  0  0  0  0  0  0  0  0  0
    0.7146   -0.6187    0.0000 N   0  0  0  0  0  0  0  0  0  0  0  0
    1.4289   -0.2062    0.0000 C   0  0  0  0  0  0  0  0  0  0  0  0
    1.4289    0.6187    0.0000 C   0  0  0  0  0  0  0  0  0  0  0  0
    2.1434    1.0311    0.0000 C   0  0  0  0  0  0  0  0  0  0  0  0
    2.8579    0.6187    0.0000 C   0  0  0  0  0  0  0  0  0  0  0  0
    3.5723    1.0311    0.0000 C   0  0  0  0  0  0  0  0  0  0  0  0
    3.5723    1.8562    0.0000 O   0  0  0  0  0  0  0  0  0  0  0  0
    2.1434   -0.6187    0.0000 C   0  0  0  0  0  0  0  0  0  0  0  0
    2.8579   -0.2062    0.0000 C   0  0  0  0  0  0  0  0  0  0  0  0
    4.2867    0.6187    0.0000 O   0  0  0  0  0  0  0  0  0  0  0  0
   -2.8577   -2.8407    0.0000 H   0  0  0  0  0  0  0  0  0  0  0  0
   -2.0462    1.0872    0.0000 H   0  0  0  0  0  0  0  0  0  0  0  0
    0.1794   -1.9597    0.0000 H   0  0  0  0  0  0  0  0  0  0  0  0
   -5.1393   -1.3639    0.0000 H   0  0  0  0  0  0  0  0  0  0  0  0
   -4.2867   -2.8407    0.0000 H   0  0  0  0  0  0  0  0  0  0  0  0
    0.0001    0.8638    0.0000 H   0  0  0  0  0  0  0  0  0  0  0  0
    0.9267    0.3288    0.0000 H   0  0  0  0  0  0  0  0  0  0  0  0
    0.7147   -1.6032    0.0000 H   0  0  0  0  0  0  0  0  0  0  0  0
    0.5352    1.1348    0.0000 H   0  0  0  0  0  0  0  0  0  0  0  0
    2.1434    2.0631    0.0000 H   0  0  0  0  0  0  0  0  0  0  0  0
    2.1434   -1.6507    0.0000 H   0  0  0  0  0  0  0  0  0  0  0  0
    3.7516   -0.7222    0.0000 H   0  0  0  0  0  0  0  0  0  0  0  0
    4.2868   -0.3183    0.0000 H   0  0  0  0  0  0  0  0  0  0  0  0
  1  2  2  0  0  0  0
  1  3  1  0  0  0  0
  1  4  1  0  0  0  0
  2  5  1  0  0  0  0
  2  6  1  0  0  0  0
  3  7  2  0  0  0  0
  4  8  2  0  0  0  0
  4  9  1  0  0  0  0
  5 10  2  0  0  0  0
  6 11  2  0  0  0  0
  6 24  1  0  0  0  0
  7 13  1  0  0  0  0
  7 10  1  0  0  0  0
  8 11  1  0  0  0  0
  9 25  1  0  0  0  0
 10 26  1  0  0  0  0
 11 12  1  0  0  0  0
 12 27  1  0  0  0  0
 12 28  1  0  0  0  0
 13 14  1  0  0  0  0
 13 29  1  0  0  0  0
 13 30  1  0  0  0  0
 14 15  1  0  0  0  0
 14 31  1  0  0  0  0
 15 16  2  0  0  0  0
 15 21  1  0  0  0  0
 16 17  1  0  0  0  0
 16 32  1  0  0  0  0
 17 18  2  0  0  0  0
 17 33  1  0  0  0  0
 18 19  1  0  0  0  0
 19 23  1  0  0  0  0
 19 20  2  0  0  0  0
 21 22  2  0  0  0  0
 21 34  1  0  0  0  0
 22 18  1  0  0  0  0
 22 35  1  0  0  0  0
 23 36  1  0  0  0  0
M  CHG  1   6   1
M  END
>  <DRUGBANK_ID>
DB04357

>  <SECONDARY_ACCESSION_NUMBERS>
EXPT00546

>  <COMMON_NAME>
Pteric acid

$$$$
