
 OpenBabel10282417072D

 63 66  0  0  0  0  0  0  0  0999 V2000
   -3.5724    3.7125    0.0000 C   0  0  0  0  0  0  0  0  0  0  0  0
   -2.8579    3.3000    0.0000 C   0  0  0  0  0  0  0  0  0  0  0  0
   -0.7145    2.0625    0.0000 C   0  0  0  0  0  0  0  0  0  0  0  0
   -0.7145    1.2375    0.0000 C   0  0  0  0  0  0  0  0  0  0  0  0
    0.0000    0.0000    0.0000 C   0  0  0  0  0  0  0  0  0  0  0  0
    0.7145   -0.4125    0.0000 C   0  0  0  0  0  0  0  0  0  0  0  0
    0.0000    4.9500    0.0000 C   0  0  0  0  0  0  0  0  0  0  0  0
   -1.4289    4.9500    0.0000 C   0  0  0  0  0  0  0  0  0  0  0  0
    0.0000    5.7750    0.0000 C   0  0  0  0  0  0  0  0  0  0  0  0
   -1.4289    5.7750    0.0000 C   0  0  0  0  0  0  0  0  0  0  0  0
   -1.5152    8.2455    0.0000 C   0  0  0  0  0  0  0  0  0  0  0  0
   -2.3221    8.4170    0.0000 C   0  0  0  0  0  0  0  0  0  0  0  0
    0.7145    2.0625    0.0000 C   0  0  0  0  0  0  0  0  0  0  0  0
    0.0000    3.3000    0.0000 C   0  0  0  0  0  0  0  0  0  0  0  0
    1.4289    0.8250    0.0000 C   0  0  0  0  0  0  0  0  0  0  0  0
   -2.1826    7.0894    0.0000 C   0  0  0  0  0  0  0  0  0  0  0  0
    0.0000    2.4750    0.0000 C   0  0  0  0  0  0  0  0  0  0  0  0
    0.0000    0.8250    0.0000 C   0  0  0  0  0  0  0  0  0  0  0  0
   -0.7145    4.5375    0.0000 C   0  0  0  0  0  0  0  0  0  0  0  0
    1.4289    0.0000    0.0000 C   0  0  0  0  0  0  0  0  0  0  0  0
    0.7145    1.2375    0.0000 C   0  0  0  0  0  0  0  0  0  0  0  0
   -0.7145    6.1875    0.0000 C   0  0  0  0  0  0  0  0  0  0  0  0
   -1.4289    7.4250    0.0000 C   0  0  3  0  0  0  0  0  0  0  0  0
   -0.7145    3.7125    0.0000 C   0  0  3  0  0  0  0  0  0  0  0  0
    2.1434   -0.4125    0.0000 C   0  0  0  0  0  0  0  0  0  0  0  0
   -1.4289    3.3000    0.0000 C   0  0  0  0  0  0  0  0  0  0  0  0
    2.8579    0.0000    0.0000 N   0  0  0  0  0  0  0  0  0  0  0  0
    2.1434   -1.2375    0.0000 N   0  0  0  0  0  0  0  0  0  0  0  0
   -2.7346    7.7025    0.0000 N   0  0  0  0  0  0  0  0  0  0  0  0
   -1.4289    2.4750    0.0000 O   0  0  0  0  0  0  0  0  0  0  0  0
   -2.1434    3.7125    0.0000 O   0  0  0  0  0  0  0  0  0  0  0  0
   -0.7145    7.0125    0.0000 O   0  0  0  0  0  0  0  0  0  0  0  0
   -3.5724    4.7825    0.0000 H   0  0  0  0  0  0  0  0  0  0  0  0
   -4.4990    3.1775    0.0000 H   0  0  0  0  0  0  0  0  0  0  0  0
   -4.4991    4.2475    0.0000 H   0  0  0  0  0  0  0  0  0  0  0  0
   -2.8579    2.2300    0.0000 H   0  0  0  0  0  0  0  0  0  0  0  0
   -1.9313    2.7650    0.0000 H   0  0  0  0  0  0  0  0  0  0  0  0
   -1.6082    2.5785    0.0000 H   0  0  0  0  0  0  0  0  0  0  0  0
   -1.6082    0.7215    0.0000 H   0  0  0  0  0  0  0  0  0  0  0  0
   -0.8937   -0.5160    0.0000 H   0  0  0  0  0  0  0  0  0  0  0  0
    0.7145   -1.4445    0.0000 H   0  0  0  0  0  0  0  0  0  0  0  0
    0.8937    4.4340    0.0000 H   0  0  0  0  0  0  0  0  0  0  0  0
   -2.3226    4.4340    0.0000 H   0  0  0  0  0  0  0  0  0  0  0  0
    0.8937    6.2910    0.0000 H   0  0  0  0  0  0  0  0  0  0  0  0
   -2.3226    6.2910    0.0000 H   0  0  0  0  0  0  0  0  0  0  0  0
   -0.7201    8.9615    0.0000 H   0  0  0  0  0  0  0  0  0  0  0  0
   -0.5162    7.8621    0.0000 H   0  0  0  0  0  0  0  0  0  0  0  0
   -2.7573    9.3945    0.0000 H   0  0  0  0  0  0  0  0  0  0  0  0
   -3.3906    8.4730    0.0000 H   0  0  0  0  0  0  0  0  0  0  0  0
    1.6082    2.5785    0.0000 H   0  0  0  0  0  0  0  0  0  0  0  0
    0.9266    3.8350    0.0000 H   0  0  0  0  0  0  0  0  0  0  0  0
   -0.0000    4.3700    0.0000 H   0  0  0  0  0  0  0  0  0  0  0  0
    2.3226    1.3410    0.0000 H   0  0  0  0  0  0  0  0  0  0  0  0
   -2.4051    6.0428    0.0000 H   0  0  0  0  0  0  0  0  0  0  0  0
   -3.2161    6.8125    0.0000 H   0  0  0  0  0  0  0  0  0  0  0  0
   -2.3556    7.9599    0.0000 H   0  0  0  0  0  0  0  0  0  0  0  0
    0.2121    4.2475    0.0000 H   0  0  0  0  0  0  0  0  0  0  0  0
    3.0700   -0.9475    0.0000 H   0  0  0  0  0  0  0  0  0  0  0  0
    3.7412   -0.5100    0.0000 H   0  0  0  0  0  0  0  0  0  0  0  0
    2.8579    1.0200    0.0000 H   0  0  0  0  0  0  0  0  0  0  0  0
    1.2601   -1.7475    0.0000 H   0  0  0  0  0  0  0  0  0  0  0  0
    3.0267   -1.7475    0.0000 H   0  0  0  0  0  0  0  0  0  0  0  0
   -3.7490    7.5959    0.0000 H   0  0  0  0  0  0  0  0  0  0  0  0
  1 33  1  0  0  0  0
  1 34  1  0  0  0  0
  1 35  1  0  0  0  0
  2  1  1  0  0  0  0
  2 36  1  0  0  0  0
  2 37  1  0  0  0  0
  3 38  1  0  0  0  0
  4  3  2  0  0  0  0
  4 39  1  0  0  0  0
  5 40  1  0  0  0  0
  6  5  2  0  0  0  0
  6 41  1  0  0  0  0
  7 42  1  0  0  0  0
  8 43  1  0  0  0  0
  9  7  1  0  0  0  0
  9 44  1  0  0  0  0
 10  8  2  0  0  0  0
 10 45  1  0  0  0  0
 11 46  1  0  0  0  0
 11 47  1  0  0  0  0
 12 11  1  0  0  0  0
 12 48  1  0  0  0  0
 12 49  1  0  0  0  0
 13 50  1  0  0  0  0
 14 51  1  0  0  0  0
 14 52  1  0  0  0  0
 15 53  1  0  0  0  0
 16 54  1  0  0  0  0
 16 55  1  0  0  0  0
 17  3  1  0  0  0  0
 17 13  2  0  0  0  0
 17 14  1  0  0  0  0
 18  4  1  0  0  0  0
 18  5  1  0  0  0  0
 19  7  2  0  0  0  0
 19  8  1  0  0  0  0
 20  6  1  0  0  0  0
 20 15  2  0  0  0  0
 21 13  1  0  0  0  0
 21 15  1  0  0  0  0
 21 18  2  0  0  0  0
 22  9  2  0  0  0  0
 22 10  1  0  0  0  0
 23 11  1  0  0  0  0
 23 16  1  0  0  0  0
 23 56  1  0  0  0  0
 24 14  1  0  0  0  0
 24 19  1  0  0  0  0
 24 57  1  0  0  0  0
 25 20  1  0  0  0  0
 25 58  1  0  0  0  0
 26 24  1  0  0  0  0
 27 25  1  0  0  0  0
 27 59  1  0  0  0  0
 27 60  1  0  0  0  0
 28 25  1  0  0  0  0
 28 61  1  0  0  0  0
 28 62  1  0  0  0  0
 29 12  1  0  0  0  0
 29 16  1  0  0  0  0
 29 63  1  0  0  0  0
 30 26  2  0  0  0  0
 31  2  1  0  0  0  0
 31 26  1  0  0  0  0
 32 22  1  0  0  0  0
 32 23  1  0  0  0  0
M  END
>  <DRUGBANK_ID>
DB07639

>  <COMMON_NAME>
3-(7-DIAMINOMETHYL-NAPHTHALEN-2-YL)-PROPIONIC ACID ETHYL ESTER

$$$$
