
 OpenBabel10282417072D

 71 75  0  0  1  0  0  0  0  0999 V2000
   -7.8149   -7.9030    0.0000 C   0  0  0  0  0  0  0  0  0  0  0  0
   -8.6354   -7.9892    0.0000 C   0  0  0  0  0  0  0  0  0  0  0  0
   -9.1203   -7.3218    0.0000 C   0  0  0  0  0  0  0  0  0  0  0  0
   -8.7848   -6.5681    0.0000 N   0  0  0  0  0  0  0  0  0  0  0  0
   -7.9643   -6.4819    0.0000 C   0  0  0  0  0  0  0  0  0  0  0  0
   -7.4794   -7.1493    0.0000 C   0  0  0  0  0  0  0  0  0  0  0  0
   -7.6287   -5.7282    0.0000 C   0  0  1  0  0  0  0  0  0  0  0  0
   -8.0412   -5.0137    0.0000 C   0  0  1  0  0  0  0  0  0  0  0  0
   -7.4892   -4.4007    0.0000 C   0  0  1  0  0  0  0  0  0  0  0  0
   -6.7355   -4.7362    0.0000 C   0  0  2  0  0  0  0  0  0  0  0  0
   -6.8217   -5.5567    0.0000 O   0  0  0  0  0  0  0  0  0  0  0  0
   -6.0210   -4.3237    0.0000 C   0  0  0  0  0  0  0  0  0  0  0  0
   -5.3066   -4.7362    0.0000 O   0  0  0  0  0  0  0  0  0  0  0  0
   -4.5921   -4.3237    0.0000 P   0  0  3  0  0  0  0  0  0  0  0  0
   -5.0046   -3.6092    0.0000 O   0  0  0  0  0  0  0  0  0  0  0  0
   -4.1796   -5.0382    0.0000 O   0  0  0  0  0  0  0  0  0  0  0  0
   -3.8776   -3.9112    0.0000 O   0  0  0  0  0  0  0  0  0  0  0  0
   -3.1632   -4.3237    0.0000 P   0  0  3  0  0  0  0  0  0  0  0  0
   -3.5757   -5.0382    0.0000 O   0  0  0  0  0  0  0  0  0  0  0  0
   -2.7507   -3.6092    0.0000 O   0  0  0  0  0  0  0  0  0  0  0  0
   -2.4487   -4.7362    0.0000 O   0  0  0  0  0  0  0  0  0  0  0  0
   -1.7342   -4.3237    0.0000 C   0  0  0  0  0  0  0  0  0  0  0  0
   -1.0197   -4.7362    0.0000 C   0  0  2  0  0  0  0  0  0  0  0  0
   -0.2661   -4.4007    0.0000 C   0  0  2  0  0  0  0  0  0  0  0  0
    0.2860   -5.0137    0.0000 C   0  0  2  0  0  0  0  0  0  0  0  0
   -0.1265   -5.7282    0.0000 C   0  0  1  0  0  0  0  0  0  0  0  0
   -0.9335   -5.5567    0.0000 O   0  0  0  0  0  0  0  0  0  0  0  0
    0.2090   -6.4819    0.0000 N   0  0  0  0  0  0  0  0  0  0  0  0
   -0.2035   -7.1964    0.0000 C   0  0  0  0  0  0  0  0  0  0  0  0
    0.3486   -7.8095    0.0000 N   0  0  0  0  0  0  0  0  0  0  0  0
    1.1022   -7.4739    0.0000 C   0  0  0  0  0  0  0  0  0  0  0  0
    1.0160   -6.6534    0.0000 C   0  0  0  0  0  0  0  0  0  0  0  0
    1.6834   -6.1685    0.0000 N   0  0  0  0  0  0  0  0  0  0  0  0
    2.4371   -6.5041    0.0000 C   0  0  0  0  0  0  0  0  0  0  0  0
    2.5233   -7.3245    0.0000 N   0  0  0  0  0  0  0  0  0  0  0  0
    1.8559   -7.8095    0.0000 C   0  0  0  0  0  0  0  0  0  0  0  0
    1.9421   -8.6299    0.0000 N   0  0  0  0  0  0  0  0  0  0  0  0
    1.1064   -4.9275    0.0000 O   0  0  0  0  0  0  0  0  0  0  0  0
   -0.0945   -3.5937    0.0000 O   0  0  0  0  0  0  0  0  0  0  0  0
   -7.6607   -3.5937    0.0000 O   0  0  0  0  0  0  0  0  0  0  0  0
   -8.8617   -4.9275    0.0000 O   0  0  0  0  0  0  0  0  0  0  0  0
   -9.9408   -7.4080    0.0000 C   0  0  0  0  0  0  0  0  0  0  0  0
  -10.4257   -6.7406    0.0000 O   0  0  0  0  0  0  0  0  0  0  0  0
  -10.2764   -8.1617    0.0000 N   0  0  0  0  0  0  0  0  0  0  0  0
   -7.2083   -8.7379    0.0000 H   0  0  0  0  0  0  0  0  0  0  0  0
   -9.0552   -8.9320    0.0000 H   0  0  0  0  0  0  0  0  0  0  0  0
   -6.4531   -7.0414    0.0000 H   0  0  0  0  0  0  0  0  0  0  0  0
   -6.9554   -6.5598    0.0000 H   0  0  0  0  0  0  0  0  0  0  0  0
   -8.6240   -5.9111    0.0000 H   0  0  0  0  0  0  0  0  0  0  0  0
   -8.5227   -4.1237    0.0000 H   0  0  0  0  0  0  0  0  0  0  0  0
   -6.7915   -3.6677    0.0000 H   0  0  0  0  0  0  0  0  0  0  0  0
   -6.0210   -3.2537    0.0000 H   0  0  0  0  0  0  0  0  0  0  0  0
   -5.0943   -3.7887    0.0000 H   0  0  0  0  0  0  0  0  0  0  0  0
   -4.6646   -5.8782    0.0000 H   0  0  0  0  0  0  0  0  0  0  0  0
   -1.7807   -3.6092    0.0000 H   0  0  0  0  0  0  0  0  0  0  0  0
   -1.7342   -3.2537    0.0000 H   0  0  0  0  0  0  0  0  0  0  0  0
   -0.8076   -3.7887    0.0000 H   0  0  0  0  0  0  0  0  0  0  0  0
   -0.9637   -3.6677    0.0000 H   0  0  0  0  0  0  0  0  0  0  0  0
   -1.0976   -3.7273    0.0000 H   0  0  0  0  0  0  0  0  0  0  0  0
    0.6694   -4.0147    0.0000 H   0  0  0  0  0  0  0  0  0  0  0  0
   -0.5617   -4.7507    0.0000 H   0  0  0  0  0  0  0  0  0  0  0  0
   -1.2298   -7.3043    0.0000 H   0  0  0  0  0  0  0  0  0  0  0  0
    3.2720   -5.8975    0.0000 H   0  0  0  0  0  0  0  0  0  0  0  0
    1.1456   -9.2085    0.0000 H   0  0  0  0  0  0  0  0  0  0  0  0
    2.8415   -9.0304    0.0000 H   0  0  0  0  0  0  0  0  0  0  0  0
    1.6765   -5.7123    0.0000 H   0  0  0  0  0  0  0  0  0  0  0  0
    0.8280   -3.2940    0.0000 H   0  0  0  0  0  0  0  0  0  0  0  0
   -6.9398   -2.9447    0.0000 H   0  0  0  0  0  0  0  0  0  0  0  0
   -9.2563   -4.0414    0.0000 H   0  0  0  0  0  0  0  0  0  0  0  0
  -11.2555   -8.2646    0.0000 H   0  0  0  0  0  0  0  0  0  0  0  0
   -9.6978   -8.9582    0.0000 H   0  0  0  0  0  0  0  0  0  0  0  0
  1  2  2  0  0  0  0
  1  6  1  0  0  0  0
  1 45  1  0  0  0  0
  2  3  1  0  0  0  0
  2 46  1  0  0  0  0
  3  4  2  0  0  0  0
  3 42  1  0  0  0  0
  4  5  1  0  0  0  0
  5  6  2  0  0  0  0
  5  7  1  0  0  0  0
  6 47  1  0  0  0  0
  7  8  1  0  0  0  0
  7 11  1  0  0  0  0
  7 48  1  6  0  0  0
  8  9  1  0  0  0  0
  8 41  1  0  0  0  0
  8 49  1  1  0  0  0
  9 10  1  0  0  0  0
  9 40  1  0  0  0  0
  9 50  1  1  0  0  0
 10 11  1  0  0  0  0
 10 12  1  0  0  0  0
 10 51  1  6  0  0  0
 12 13  1  0  0  0  0
 12 52  1  0  0  0  0
 12 53  1  0  0  0  0
 13 14  1  0  0  0  0
 14 15  2  0  0  0  0
 14 16  1  0  0  0  0
 14 17  1  0  0  0  0
 16 54  1  0  0  0  0
 17 18  1  0  0  0  0
 18 19  2  0  0  0  0
 18 20  1  0  0  0  0
 18 21  1  0  0  0  0
 20 55  1  0  0  0  0
 21 22  1  0  0  0  0
 22 56  1  0  0  0  0
 22 57  1  0  0  0  0
 23 22  1  0  0  0  0
 23 24  1  0  0  0  0
 23 27  1  0  0  0  0
 23 58  1  1  0  0  0
 24 25  1  0  0  0  0
 24 39  1  0  0  0  0
 24 59  1  6  0  0  0
 25 26  1  0  0  0  0
 25 38  1  0  0  0  0
 25 60  1  6  0  0  0
 26 27  1  0  0  0  0
 26 28  1  0  0  0  0
 26 61  1  1  0  0  0
 28 29  1  0  0  0  0
 28 32  1  0  0  0  0
 29 30  2  0  0  0  0
 29 62  1  0  0  0  0
 30 31  1  0  0  0  0
 31 32  2  0  0  0  0
 31 36  1  0  0  0  0
 32 33  1  0  0  0  0
 33 34  2  0  0  0  0
 34 35  1  0  0  0  0
 34 63  1  0  0  0  0
 35 36  2  0  0  0  0
 36 37  1  0  0  0  0
 37 64  1  0  0  0  0
 37 65  1  0  0  0  0
 38 66  1  0  0  0  0
 39 67  1  0  0  0  0
 40 68  1  0  0  0  0
 41 69  1  0  0  0  0
 42 43  2  0  0  0  0
 42 44  1  0  0  0  0
 44 70  1  0  0  0  0
 44 71  1  0  0  0  0
M  END
>  <DRUGBANK_ID>
DB04071

>  <SECONDARY_ACCESSION_NUMBERS>
EXPT02487

>  <COMMON_NAME>
Cpad

$$$$
