277
 OpenBabel10282417072D

 53 54  0  0  0  0  0  0  0  0999 V2000
    2.3808   -0.4343    0.0000 C   0  0  0  0  0  0  0  0  0  0  0  0
    2.2093   -1.2412    0.0000 C   0  0  0  0  0  0  0  0  0  0  0  0
    1.4247   -1.4962    0.0000 C   0  0  2  0  0  0  0  0  0  0  0  0
    0.8116   -0.9441    0.0000 C   0  0  0  0  0  0  0  0  0  0  0  0
    0.9831   -0.1372    0.0000 C   0  0  0  0  0  0  0  0  0  0  0  0
    1.7677    0.1178    0.0000 C   0  0  2  0  0  0  0  0  0  0  0  0
    1.2531   -2.3031    0.0000 C   0  0  1  0  0  0  0  0  0  0  0  0
    0.4685   -2.5581    0.0000 C   0  0  1  0  0  0  0  0  0  0  0  0
    0.2970   -3.3651    0.0000 C   0  0  0  0  0  0  0  0  0  0  0  0
   -0.4876   -3.6200    0.0000 N   0  0  0  0  0  0  0  0  0  0  0  0
    1.9392    0.9247    0.0000 N   0  0  0  0  0  0  0  0  0  0  0  0
    1.3261    1.4768    0.0000 C   0  0  0  0  0  0  0  0  0  0  0  0
    2.7239    1.1797    0.0000 C   0  0  0  0  0  0  0  0  0  0  0  0
    1.4977    2.2837    0.0000 C   0  0  0  0  0  0  0  0  0  0  0  0
    0.5415    1.2218    0.0000 O   0  0  0  0  0  0  0  0  0  0  0  0
    0.9101   -3.9171    0.0000 O   0  0  0  0  0  0  0  0  0  0  0  0
   -0.1446   -2.0061    0.0000 N   0  0  0  0  0  0  0  0  0  0  0  0
    1.8662   -2.8552    0.0000 C   0  0  0  0  0  0  0  0  0  0  0  0
   -0.7426   -4.4046    0.0000 C   0  0  0  0  0  0  0  0  0  0  0  0
   -1.5676   -4.4046    0.0000 C   0  0  2  0  0  0  0  0  0  0  0  0
   -1.8225   -3.6200    0.0000 C   0  0  0  0  0  0  0  0  0  0  0  0
   -1.1551   -3.1351    0.0000 C   0  0  0  0  0  0  0  0  0  0  0  0
   -2.0525   -5.0721    0.0000 F   0  0  0  0  0  0  0  0  0  0  0  0
    1.8586   -1.8869    0.0000 H   0  0  0  0  0  0  0  0  0  0  0  0
    2.3231    0.2982    0.0000 H   0  0  0  0  0  0  0  0  0  0  0  0
    0.7117   -2.0844    0.0000 H   0  0  0  0  0  0  0  0  0  0  0  0
    0.3872   -1.9798    0.0000 H   0  0  0  0  0  0  0  0  0  0  0  0
   -1.3025   -4.9249    0.0000 H   0  0  0  0  0  0  0  0  0  0  0  0
    3.3984   -0.1037    0.0000 H   0  0  0  0  0  0  0  0  0  0  0  0
    2.6033    0.6123    0.0000 H   0  0  0  0  0  0  0  0  0  0  0  0
    3.0045   -1.9571    0.0000 H   0  0  0  0  0  0  0  0  0  0  0  0
    1.9869   -2.2878    0.0000 H   0  0  0  0  0  0  0  0  0  0  0  0
   -0.2060   -1.2747    0.0000 H   0  0  0  0  0  0  0  0  0  0  0  0
    0.0164   -0.2281    0.0000 H   0  0  0  0  0  0  0  0  0  0  0  0
    0.1879    0.5787    0.0000 H   0  0  0  0  0  0  0  0  0  0  0  0
    1.2055    0.9094    0.0000 H   0  0  0  0  0  0  0  0  0  0  0  0
    3.5191    0.4638    0.0000 H   0  0  0  0  0  0  0  0  0  0  0  0
    2.9463    2.2263    0.0000 H   0  0  0  0  0  0  0  0  0  0  0  0
    3.7415    1.5104    0.0000 H   0  0  0  0  0  0  0  0  0  0  0  0
    2.5154    2.6142    0.0000 H   0  0  0  0  0  0  0  0  0  0  0  0
    0.7026    2.9998    0.0000 H   0  0  0  0  0  0  0  0  0  0  0  0
    1.7203    3.3303    0.0000 H   0  0  0  0  0  0  0  0  0  0  0  0
    0.0674   -1.0084    0.0000 H   0  0  0  0  0  0  0  0  0  0  0  0
   -1.1147   -2.3213    0.0000 H   0  0  0  0  0  0  0  0  0  0  0  0
    1.6437   -3.9018    0.0000 H   0  0  0  0  0  0  0  0  0  0  0  0
    2.8838   -2.5246    0.0000 H   0  0  0  0  0  0  0  0  0  0  0  0
    2.6613   -3.5712    0.0000 H   0  0  0  0  0  0  0  0  0  0  0  0
   -0.1137   -5.2703    0.0000 H   0  0  0  0  0  0  0  0  0  0  0  0
   -1.2284   -5.3580    0.0000 H   0  0  0  0  0  0  0  0  0  0  0  0
   -2.8401   -3.2893    0.0000 H   0  0  0  0  0  0  0  0  0  0  0  0
   -1.9899   -2.5632    0.0000 H   0  0  0  0  0  0  0  0  0  0  0  0
   -1.1551   -2.0651    0.0000 H   0  0  0  0  0  0  0  0  0  0  0  0
   -2.1085   -2.6493    0.0000 H   0  0  0  0  0  0  0  0  0  0  0  0
  1  2  1  0  0  0  0
  1  6  1  0  0  0  0
  1 29  1  0  0  0  0
  1 30  1  0  0  0  0
  2  3  1  0  0  0  0
  2 31  1  0  0  0  0
  2 32  1  0  0  0  0
  3  7  1  0  0  0  0
  3  4  1  0  0  0  0
  3 24  1  6  0  0  0
  4  5  1  0  0  0  0
  4 33  1  0  0  0  0
  4 34  1  0  0  0  0
  5  6  1  0  0  0  0
  5 35  1  0  0  0  0
  5 36  1  0  0  0  0
  6 11  1  0  0  0  0
  6 25  1  1  0  0  0
  7  8  1  0  0  0  0
  7 18  1  0  0  0  0
  7 26  1  1  0  0  0
  8 17  1  0  0  0  0
  8  9  1  0  0  0  0
  8 27  1  6  0  0  0
  9 10  1  0  0  0  0
  9 16  2  0  0  0  0
 10 19  1  0  0  0  0
 10 22  1  0  0  0  0
 11 13  1  0  0  0  0
 11 12  1  0  0  0  0
 12 15  2  0  0  0  0
 12 14  1  0  0  0  0
 13 37  1  0  0  0  0
 13 38  1  0  0  0  0
 13 39  1  0  0  0  0
 14 40  1  0  0  0  0
 14 41  1  0  0  0  0
 14 42  1  0  0  0  0
 17 43  1  0  0  0  0
 17 44  1  0  0  0  0
 18 45  1  0  0  0  0
 18 46  1  0  0  0  0
 18 47  1  0  0  0  0
 19 20  1  0  0  0  0
 19 48  1  0  0  0  0
 19 49  1  0  0  0  0
 20 21  1  0  0  0  0
 20 23  1  0  0  0  0
 20 28  1  6  0  0  0
 21 22  1  0  0  0  0
 21 50  1  0  0  0  0
 21 51  1  0  0  0  0
 22 52  1  0  0  0  0
 22 53  1  0  0  0  0
M  END
>  <DRUGBANK_ID>
DB06939

>  <COMMON_NAME>
N-(TRANS-4-{(1S,2S)-2-AMINO-3-[(3S)-3-FLUOROPYRROLIDIN-1-YL]-1-METHYL-3-OXOPROPYL}CYCLOHEXYL)-N-METHYLACETAMIDE

$$$$
