832
 OpenBabel10282417072D

 25 26  0  0  1  0  0  0  0  0999 V2000
    1.6500    0.4990    0.0000 O   0  0  0  0  0  0  0  0  0  0  0  0
    3.9995    2.2060    0.0000 O   0  0  0  0  0  0  0  0  0  0  0  0
    2.6896    1.5386    0.0000 N   0  0  0  0  0  0  0  0  0  0  0  0
    3.1021    0.2690    0.0000 C   0  0  3  0  0  0  0  0  0  0  0  0
    3.7695    0.7540    0.0000 C   0  0  0  0  0  0  0  0  0  0  0  0
    2.4347    0.7540    0.0000 C   0  0  0  0  0  0  0  0  0  0  0  0
    3.1021   -0.5560    0.0000 C   0  0  0  0  0  0  0  0  0  0  0  0
    3.5146    1.5386    0.0000 C   0  0  0  0  0  0  0  0  0  0  0  0
    2.2047    2.2060    0.0000 C   0  0  0  0  0  0  0  0  0  0  0  0
    3.8166   -0.9685    0.0000 C   0  0  0  0  0  0  0  0  0  0  0  0
    2.3876   -0.9685    0.0000 C   0  0  0  0  0  0  0  0  0  0  0  0
    3.8166   -1.7935    0.0000 C   0  0  0  0  0  0  0  0  0  0  0  0
    2.3876   -1.7935    0.0000 C   0  0  0  0  0  0  0  0  0  0  0  0
    3.1021   -2.2060    0.0000 C   0  0  0  0  0  0  0  0  0  0  0  0
    3.1021    1.3390    0.0000 H   0  0  0  0  0  0  0  0  0  0  0  0
    4.7871    0.4234    0.0000 H   0  0  0  0  0  0  0  0  0  0  0  0
    4.5261    1.5106    0.0000 H   0  0  0  0  0  0  0  0  0  0  0  0
    2.6399    3.1835    0.0000 H   0  0  0  0  0  0  0  0  0  0  0  0
    1.1406    2.0941    0.0000 H   0  0  0  0  0  0  0  0  0  0  0  0
    1.5758    3.0716    0.0000 H   0  0  0  0  0  0  0  0  0  0  0  0
    4.7103   -0.4525    0.0000 H   0  0  0  0  0  0  0  0  0  0  0  0
    1.4939   -0.4525    0.0000 H   0  0  0  0  0  0  0  0  0  0  0  0
    4.7103   -2.3095    0.0000 H   0  0  0  0  0  0  0  0  0  0  0  0
    1.4939   -2.3095    0.0000 H   0  0  0  0  0  0  0  0  0  0  0  0
    3.1021   -3.2380    0.0000 H   0  0  0  0  0  0  0  0  0  0  0  0
  1  6  2  0  0  0  0
  2  8  2  0  0  0  0
  3  6  1  0  0  0  0
  3  8  1  0  0  0  0
  3  9  1  0  0  0  0
  4  5  1  0  0  0  0
  4  6  1  0  0  0  0
  4  7  1  0  0  0  0
  4 15  1  0  0  0  0
  5  8  1  0  0  0  0
  5 16  1  0  0  0  0
  5 17  1  0  0  0  0
  7 10  2  0  0  0  0
  7 11  1  0  0  0  0
  9 18  1  0  0  0  0
  9 19  1  0  0  0  0
  9 20  1  0  0  0  0
 10 12  1  0  0  0  0
 10 21  1  0  0  0  0
 11 13  2  0  0  0  0
 11 22  1  0  0  0  0
 12 14  2  0  0  0  0
 12 23  1  0  0  0  0
 13 14  1  0  0  0  0
 13 24  1  0  0  0  0
 14 25  1  0  0  0  0
M  END
>  <DRUGBANK_ID>
DB00832

>  <SECONDARY_ACCESSION_NUMBERS>
APRD00496

>  <COMMON_NAME>
Phensuximide

>  <CAS_NUMBER>
86-34-0

>  <UNII>
6WVL9C355G

>  <SYNONYMS>
Fensuccimide; Fensuximida; Phensuximide; Phensuximidum

$$$$
