
 OpenBabel10282417072D

 41 41  0  0  0  0  0  0  0  0999 V2000
   -0.7137   -0.0136    0.0000 C   0  0  0  0  0  0  0  0  0  0  0  0
   -1.4241   -0.4324    0.0000 C   0  0  0  0  0  0  0  0  0  0  0  0
   -0.7241    0.8099    0.0000 C   0  0  0  0  0  0  0  0  0  0  0  0
    0.0069   -0.4118    0.0000 O   0  0  0  0  0  0  0  0  0  0  0  0
   -2.1863   -0.0309    0.0000 C   0  0  0  0  0  0  0  0  0  0  0  0
   -1.4448    1.2183    0.0000 C   0  0  0  0  0  0  0  0  0  0  0  0
    0.7174    0.0069    0.0000 C   0  0  0  0  0  0  0  0  0  0  0  0
   -2.1518    0.7962    0.0000 C   0  0  0  0  0  0  0  0  0  0  0  0
    1.4381   -0.3947    0.0000 C   0  0  1  0  0  0  0  0  0  0  0  0
   -2.8658    1.2115    0.0000 C   0  0  0  0  0  0  0  0  0  0  0  0
    2.1485    0.0241    0.0000 C   0  0  0  0  0  0  0  0  0  0  0  0
    1.4483   -1.2183    0.0000 O   0  0  0  0  0  0  0  0  0  0  0  0
   -3.5796    0.7962    0.0000 C   0  0  0  0  0  0  0  0  0  0  0  0
    2.8624   -0.3775    0.0000 N   0  0  0  0  0  0  0  0  0  0  0  0
   -4.2935    1.2115    0.0000 N   0  0  0  0  0  0  0  0  0  0  0  0
   -3.5796   -0.0309    0.0000 O   0  0  0  0  0  0  0  0  0  0  0  0
    3.5729    0.0447    0.0000 C   0  0  0  0  0  0  0  0  0  0  0  0
    4.2935   -0.3569    0.0000 C   0  0  0  0  0  0  0  0  0  0  0  0
    3.5626    0.8683    0.0000 C   0  0  0  0  0  0  0  0  0  0  0  0
   -1.3994   -1.4641    0.0000 H   0  0  0  0  0  0  0  0  0  0  0  0
    0.1643    1.3351    0.0000 H   0  0  0  0  0  0  0  0  0  0  0  0
   -3.0808   -0.5456    0.0000 H   0  0  0  0  0  0  0  0  0  0  0  0
   -1.4565    2.2502    0.0000 H   0  0  0  0  0  0  0  0  0  0  0  0
    0.7045    1.0768    0.0000 H   0  0  0  0  0  0  0  0  0  0  0  0
    1.6367    0.5545    0.0000 H   0  0  0  0  0  0  0  0  0  0  0  0
    0.5189   -0.9424    0.0000 H   0  0  0  0  0  0  0  0  0  0  0  0
   -2.8659    2.2815    0.0000 H   0  0  0  0  0  0  0  0  0  0  0  0
   -3.7934    1.7449    0.0000 H   0  0  0  0  0  0  0  0  0  0  0  0
    2.1377    1.0940    0.0000 H   0  0  0  0  0  0  0  0  0  0  0  0
    3.0694    0.5689    0.0000 H   0  0  0  0  0  0  0  0  0  0  0  0
    0.6143   -1.7137    0.0000 H   0  0  0  0  0  0  0  0  0  0  0  0
    2.8745   -1.3974    0.0000 H   0  0  0  0  0  0  0  0  0  0  0  0
   -4.2903    2.1960    0.0000 H   0  0  0  0  0  0  0  0  0  0  0  0
   -5.1477    0.7221    0.0000 H   0  0  0  0  0  0  0  0  0  0  0  0
    4.4921    0.5925    0.0000 H   0  0  0  0  0  0  0  0  0  0  0  0
    4.3097   -1.4268    0.0000 H   0  0  0  0  0  0  0  0  0  0  0  0
    5.2119    0.1921    0.0000 H   0  0  0  0  0  0  0  0  0  0  0  0
    5.2281   -0.8778    0.0000 H   0  0  0  0  0  0  0  0  0  0  0  0
    4.4825    1.4148    0.0000 H   0  0  0  0  0  0  0  0  0  0  0  0
    2.6293    1.3917    0.0000 H   0  0  0  0  0  0  0  0  0  0  0  0
    3.5492    1.9382    0.0000 H   0  0  0  0  0  0  0  0  0  0  0  0
  1  2  1  0  0  0  0
  1  3  2  0  0  0  0
  1  4  1  0  0  0  0
  2  5  2  0  0  0  0
  2 20  1  0  0  0  0
  3  6  1  0  0  0  0
  3 21  1  0  0  0  0
  4  7  1  0  0  0  0
  5  8  1  0  0  0  0
  5 22  1  0  0  0  0
  6  8  2  0  0  0  0
  6 23  1  0  0  0  0
  7  9  1  0  0  0  0
  7 24  1  0  0  0  0
  7 25  1  0  0  0  0
  8 10  1  0  0  0  0
  9 11  1  0  0  0  0
  9 12  1  0  0  0  0
  9 26  1  6  0  0  0
 10 13  1  0  0  0  0
 10 27  1  0  0  0  0
 10 28  1  0  0  0  0
 11 14  1  0  0  0  0
 11 29  1  0  0  0  0
 11 30  1  0  0  0  0
 12 31  1  0  0  0  0
 13 15  1  0  0  0  0
 13 16  2  0  0  0  0
 14 17  1  0  0  0  0
 14 32  1  0  0  0  0
 15 33  1  0  0  0  0
 15 34  1  0  0  0  0
 17 18  1  0  0  0  0
 17 19  1  0  0  0  0
 17 35  1  0  0  0  0
 18 36  1  0  0  0  0
 18 37  1  0  0  0  0
 18 38  1  0  0  0  0
 19 39  1  0  0  0  0
 19 40  1  0  0  0  0
 19 41  1  0  0  0  0
M  END
>  <DRUGBANK_ID>
DB06987

>  <COMMON_NAME>
(R)-Atenolol

>  <CAS_NUMBER>
56715-13-0

>  <UNII>
YG132I00WY

>  <SYNONYMS>
(+)-Atenolol; (R)-(+)-Atenolol

$$$$
