269
 OpenBabel10282417072D

 22 22  0  0  0  0  0  0  0  0999 V2000
    0.5304   -0.6980    0.0000 C   0  0  0  0  0  0  0  0  0  0  0  0
    0.5304   -1.5230    0.0000 C   0  0  0  0  0  0  0  0  0  0  0  0
   -0.1841   -1.9355    0.0000 C   0  0  0  0  0  0  0  0  0  0  0  0
   -0.8985   -1.5230    0.0000 C   0  0  0  0  0  0  0  0  0  0  0  0
   -0.8985   -0.6980    0.0000 C   0  0  0  0  0  0  0  0  0  0  0  0
   -0.1841   -0.2855    0.0000 C   0  0  0  0  0  0  0  0  0  0  0  0
   -0.1841    0.5395    0.0000 C   0  0  2  0  0  0  0  0  0  0  0  0
    0.5304    0.9520    0.0000 O   0  0  0  0  0  0  0  0  0  0  0  0
   -0.8985    0.9520    0.0000 C   0  0  0  0  0  0  0  0  0  0  0  0
   -0.8985    1.7770    0.0000 C   0  0  0  0  0  0  0  0  0  0  0  0
   -1.6130    2.1895    0.0000 Cl  0  0  0  0  0  0  0  0  0  0  0  0
    0.3216    0.2475    0.0000 H   0  0  0  0  0  0  0  0  0  0  0  0
    1.4241   -0.1820    0.0000 H   0  0  0  0  0  0  0  0  0  0  0  0
    1.4241   -2.0390    0.0000 H   0  0  0  0  0  0  0  0  0  0  0  0
   -0.1841   -2.9675    0.0000 H   0  0  0  0  0  0  0  0  0  0  0  0
   -1.7922   -2.0390    0.0000 H   0  0  0  0  0  0  0  0  0  0  0  0
   -1.7922   -0.1820    0.0000 H   0  0  0  0  0  0  0  0  0  0  0  0
    1.3704    0.4670    0.0000 H   0  0  0  0  0  0  0  0  0  0  0  0
   -1.8252    0.4170    0.0000 H   0  0  0  0  0  0  0  0  0  0  0  0
   -1.8251    1.4870    0.0000 H   0  0  0  0  0  0  0  0  0  0  0  0
    0.0281    2.3120    0.0000 H   0  0  0  0  0  0  0  0  0  0  0  0
   -0.8985    2.8470    0.0000 H   0  0  0  0  0  0  0  0  0  0  0  0
  1  2  2  0  0  0  0
  1  6  1  0  0  0  0
  1 13  1  0  0  0  0
  2  3  1  0  0  0  0
  2 14  1  0  0  0  0
  3  4  2  0  0  0  0
  3 15  1  0  0  0  0
  4  5  1  0  0  0  0
  4 16  1  0  0  0  0
  5  6  2  0  0  0  0
  5 17  1  0  0  0  0
  6  7  1  0  0  0  0
  7  8  1  0  0  0  0
  7  9  1  0  0  0  0
  7 12  1  6  0  0  0
  8 18  1  0  0  0  0
  9 10  1  0  0  0  0
  9 19  1  0  0  0  0
  9 20  1  0  0  0  0
 10 11  1  0  0  0  0
 10 21  1  0  0  0  0
 10 22  1  0  0  0  0
M  END
>  <DRUGBANK_ID>
DB06934

>  <COMMON_NAME>
(1R)-3-chloro-1-phenylpropan-1-ol

>  <UNII>
4GCY8M2PYD

$$$$
