
 OpenBabel10282417072D

 42 45  0  0  0  0  0  0  0  0999 V2000
    0.7124   -1.0207    0.0000 C   0  0  0  0  0  0  0  0  0  0  0  0
   -0.0125    0.2125    0.0000 N   0  0  0  0  0  0  0  0  0  0  0  0
    0.7082   -0.1958    0.0000 C   0  0  0  0  0  0  0  0  0  0  0  0
   -0.7166   -1.0248    0.0000 C   0  0  0  0  0  0  0  0  0  0  0  0
   -0.7206   -0.2040    0.0000 C   0  0  0  0  0  0  0  0  0  0  0  0
    0.0000   -1.4372    0.0000 C   0  0  0  0  0  0  0  0  0  0  0  0
    1.4248   -1.4289    0.0000 C   0  0  0  0  0  0  0  0  0  0  0  0
    2.1205    0.6291    0.0000 N   0  0  0  0  0  0  0  0  0  0  0  0
    2.1290   -0.1958    0.0000 C   0  0  0  0  0  0  0  0  0  0  0  0
   -1.4248   -1.4415    0.0000 C   0  0  0  0  0  0  0  0  0  0  0  0
   -0.0167    1.0332    0.0000 C   0  0  0  0  0  0  0  0  0  0  0  0
    1.4206    0.2208    0.0000 O   0  0  0  0  0  0  0  0  0  0  0  0
    2.1330   -1.0165    0.0000 C   0  0  0  0  0  0  0  0  0  0  0  0
   -2.1414   -1.0290    0.0000 N   0  0  0  0  0  0  0  0  0  0  0  0
    1.4290   -2.2581    0.0000 C   0  0  0  0  0  0  0  0  0  0  0  0
   -2.8538   -1.4415    0.0000 C   0  0  0  0  0  0  0  0  0  0  0  0
   -1.4248   -2.2705    0.0000 C   0  0  0  0  0  0  0  0  0  0  0  0
    0.6956    1.4498    0.0000 C   0  0  0  0  0  0  0  0  0  0  0  0
   -0.7332    1.4373    0.0000 C   0  0  0  0  0  0  0  0  0  0  0  0
    2.8497   -1.4207    0.0000 C   0  0  0  0  0  0  0  0  0  0  0  0
    2.1414   -2.6663    0.0000 C   0  0  0  0  0  0  0  0  0  0  0  0
   -2.8538   -2.2705    0.0000 C   0  0  0  0  0  0  0  0  0  0  0  0
    2.8538   -2.2497    0.0000 C   0  0  0  0  0  0  0  0  0  0  0  0
    0.6916    2.2748    0.0000 C   0  0  0  0  0  0  0  0  0  0  0  0
   -0.7416    2.2623    0.0000 C   0  0  0  0  0  0  0  0  0  0  0  0
   -2.1372   -2.6830    0.0000 C   0  0  0  0  0  0  0  0  0  0  0  0
   -0.0291    2.6830    0.0000 C   0  0  0  0  0  0  0  0  0  0  0  0
   -1.6177    0.3062    0.0000 H   0  0  0  0  0  0  0  0  0  0  0  0
    0.0035   -2.4692    0.0000 H   0  0  0  0  0  0  0  0  0  0  0  0
    0.5374   -2.7778    0.0000 H   0  0  0  0  0  0  0  0  0  0  0  0
   -3.7479   -0.9261    0.0000 H   0  0  0  0  0  0  0  0  0  0  0  0
   -0.5307   -2.7859    0.0000 H   0  0  0  0  0  0  0  0  0  0  0  0
    1.5920    0.9385    0.0000 H   0  0  0  0  0  0  0  0  0  0  0  0
   -1.6217    0.9123    0.0000 H   0  0  0  0  0  0  0  0  0  0  0  0
    3.7395   -0.8980    0.0000 H   0  0  0  0  0  0  0  0  0  0  0  0
    2.1460   -3.6983    0.0000 H   0  0  0  0  0  0  0  0  0  0  0  0
   -3.7472   -2.7871    0.0000 H   0  0  0  0  0  0  0  0  0  0  0  0
    3.7502   -2.7610    0.0000 H   0  0  0  0  0  0  0  0  0  0  0  0
    1.5819    2.7966    0.0000 H   0  0  0  0  0  0  0  0  0  0  0  0
   -1.6404    2.7694    0.0000 H   0  0  0  0  0  0  0  0  0  0  0  0
   -2.1359   -3.7150    0.0000 H   0  0  0  0  0  0  0  0  0  0  0  0
   -0.0384    3.7150    0.0000 H   0  0  0  0  0  0  0  0  0  0  0  0
  2  3  1  0  0  0  0
  3  1  1  0  0  0  0
  4  6  1  0  0  0  0
  4  5  2  0  0  0  0
  5  2  1  0  0  0  0
  5 28  1  0  0  0  0
  6  1  2  0  0  0  0
  6 29  1  0  0  0  0
  7  1  1  0  0  0  0
  8  9  3  0  0  0  0
  9 13  1  0  0  0  0
 10  4  1  0  0  0  0
 11  2  1  0  0  0  0
 12  3  2  0  0  0  0
 13  7  1  0  0  0  0
 14 10  2  0  0  0  0
 15  7  2  0  0  0  0
 15 30  1  0  0  0  0
 16 14  1  0  0  0  0
 16 31  1  0  0  0  0
 17 10  1  0  0  0  0
 17 32  1  0  0  0  0
 18 11  2  0  0  0  0
 18 33  1  0  0  0  0
 19 11  1  0  0  0  0
 19 34  1  0  0  0  0
 20 13  2  0  0  0  0
 20 35  1  0  0  0  0
 21 15  1  0  0  0  0
 21 36  1  0  0  0  0
 22 16  2  0  0  0  0
 22 37  1  0  0  0  0
 23 20  1  0  0  0  0
 23 21  2  0  0  0  0
 23 38  1  0  0  0  0
 24 18  1  0  0  0  0
 24 39  1  0  0  0  0
 25 19  2  0  0  0  0
 25 40  1  0  0  0  0
 26 17  2  0  0  0  0
 26 22  1  0  0  0  0
 26 41  1  0  0  0  0
 27 25  1  0  0  0  0
 27 24  2  0  0  0  0
 27 42  1  0  0  0  0
M  END
>  <DRUGBANK_ID>
DB08883

>  <COMMON_NAME>
Perampanel

>  <CAS_NUMBER>
380917-97-5

>  <UNII>
H821664NPK

>  <SYNONYMS>
3-(2-Cyanophenyl)-5-(2-pyridyl)-1-phenyl-1,2-dihydropyridin-2-one; Perampanel; PÃ©rampanel; Perampanelum

$$$$
