
 OpenBabel10282417072D

 49 50  0  0  0  0  0  0  0  0999 V2000
    1.4289   -2.0625    0.0000 C   0  0  0  0  0  0  0  0  0  0  0  0
    2.1433   -1.6500    0.0000 C   0  0  0  0  0  0  0  0  0  0  0  0
    2.1433   -0.8249    0.0000 C   0  0  0  0  0  0  0  0  0  0  0  0
    1.4288   -0.4124    0.0000 N   0  0  0  0  0  0  0  0  0  0  0  0
    0.7144   -0.8249    0.0000 C   0  0  3  0  0  0  0  0  0  0  0  0
    0.7144   -1.6500    0.0000 C   0  0  0  0  0  0  0  0  0  0  0  0
    0.0000   -0.4124    0.0000 C   0  0  0  0  0  0  0  0  0  0  0  0
   -0.7143   -0.8249    0.0000 N   0  0  0  0  0  0  0  0  0  0  0  0
   -1.4287   -0.4124    0.0000 C   0  0  0  0  0  0  0  0  0  0  0  0
   -1.4288    0.4123    0.0000 C   0  0  0  0  0  0  0  0  0  0  0  0
   -2.1431    0.8249    0.0000 C   0  0  0  0  0  0  0  0  0  0  0  0
   -2.8577    0.4123    0.0000 C   0  0  0  0  0  0  0  0  0  0  0  0
   -2.8577   -0.4124    0.0000 C   0  0  0  0  0  0  0  0  0  0  0  0
   -2.1431   -0.8249    0.0000 C   0  0  0  0  0  0  0  0  0  0  0  0
   -2.1431   -1.6500    0.0000 C   0  0  0  0  0  0  0  0  0  0  0  0
   -0.7143    0.8249    0.0000 C   0  0  0  0  0  0  0  0  0  0  0  0
    0.0000    0.4123    0.0000 O   0  0  0  0  0  0  0  0  0  0  0  0
    1.4288    0.4123    0.0000 C   0  0  0  0  0  0  0  0  0  0  0  0
    2.1433    0.8249    0.0000 C   0  0  0  0  0  0  0  0  0  0  0  0
    2.1433    1.6499    0.0000 C   0  0  0  0  0  0  0  0  0  0  0  0
    2.8577    2.0625    0.0000 C   0  0  0  0  0  0  0  0  0  0  0  0
    1.4289   -3.1325    0.0000 H   0  0  0  0  0  0  0  0  0  0  0  0
    0.5023   -2.5975    0.0000 H   0  0  0  0  0  0  0  0  0  0  0  0
    3.0700   -2.1850    0.0000 H   0  0  0  0  0  0  0  0  0  0  0  0
    3.0699   -1.1150    0.0000 H   0  0  0  0  0  0  0  0  0  0  0  0
    3.0699   -0.2899    0.0000 H   0  0  0  0  0  0  0  0  0  0  0  0
    3.0699   -1.3599    0.0000 H   0  0  0  0  0  0  0  0  0  0  0  0
    1.6411   -1.3599    0.0000 H   0  0  0  0  0  0  0  0  0  0  0  0
   -0.2122   -2.1850    0.0000 H   0  0  0  0  0  0  0  0  0  0  0  0
    0.7144   -2.7200    0.0000 H   0  0  0  0  0  0  0  0  0  0  0  0
   -0.7143   -1.8094    0.0000 H   0  0  0  0  0  0  0  0  0  0  0  0
   -2.1430    1.8569    0.0000 H   0  0  0  0  0  0  0  0  0  0  0  0
   -3.7514    0.9283    0.0000 H   0  0  0  0  0  0  0  0  0  0  0  0
   -3.7514   -0.9284    0.0000 H   0  0  0  0  0  0  0  0  0  0  0  0
   -3.0697   -2.1850    0.0000 H   0  0  0  0  0  0  0  0  0  0  0  0
   -1.2165   -2.1850    0.0000 H   0  0  0  0  0  0  0  0  0  0  0  0
   -2.1431   -2.7200    0.0000 H   0  0  0  0  0  0  0  0  0  0  0  0
    0.2124    0.2900    0.0000 H   0  0  0  0  0  0  0  0  0  0  0  0
   -0.7144    1.8949    0.0000 H   0  0  0  0  0  0  0  0  0  0  0  0
    0.2123    1.3600    0.0000 H   0  0  0  0  0  0  0  0  0  0  0  0
    0.5021    0.9473    0.0000 H   0  0  0  0  0  0  0  0  0  0  0  0
    1.4287    1.4823    0.0000 H   0  0  0  0  0  0  0  0  0  0  0  0
    3.0700    0.2899    0.0000 H   0  0  0  0  0  0  0  0  0  0  0  0
    3.0699    1.3599    0.0000 H   0  0  0  0  0  0  0  0  0  0  0  0
    1.2166    2.1848    0.0000 H   0  0  0  0  0  0  0  0  0  0  0  0
    2.1432    2.7199    0.0000 H   0  0  0  0  0  0  0  0  0  0  0  0
    3.7844    1.5276    0.0000 H   0  0  0  0  0  0  0  0  0  0  0  0
    2.8575    3.1325    0.0000 H   0  0  0  0  0  0  0  0  0  0  0  0
    3.7843    2.5976    0.0000 H   0  0  0  0  0  0  0  0  0  0  0  0
  1  2  1  0  0  0  0
  1  6  1  0  0  0  0
  1 22  1  0  0  0  0
  1 23  1  0  0  0  0
  2  3  1  0  0  0  0
  2 24  1  0  0  0  0
  2 25  1  0  0  0  0
  3  4  1  0  0  0  0
  3 26  1  0  0  0  0
  3 27  1  0  0  0  0
  4  5  1  0  0  0  0
  4 18  1  0  0  0  0
  5  6  1  0  0  0  0
  5  7  1  0  0  0  0
  5 28  1  0  0  0  0
  6 29  1  0  0  0  0
  6 30  1  0  0  0  0
  7  8  1  0  0  0  0
  7 17  2  0  0  0  0
  8  9  1  0  0  0  0
  8 31  1  0  0  0  0
  9 10  2  0  0  0  0
 10 11  1  0  0  0  0
 10 16  1  0  0  0  0
 11 12  2  0  0  0  0
 11 32  1  0  0  0  0
 12 13  1  0  0  0  0
 12 33  1  0  0  0  0
 13 14  2  0  0  0  0
 13 34  1  0  0  0  0
 14  9  1  0  0  0  0
 14 15  1  0  0  0  0
 15 35  1  0  0  0  0
 15 36  1  0  0  0  0
 15 37  1  0  0  0  0
 16 38  1  0  0  0  0
 16 39  1  0  0  0  0
 16 40  1  0  0  0  0
 18 19  1  0  0  0  0
 18 41  1  0  0  0  0
 18 42  1  0  0  0  0
 19 20  1  0  0  0  0
 19 43  1  0  0  0  0
 19 44  1  0  0  0  0
 20 21  1  0  0  0  0
 20 45  1  0  0  0  0
 20 46  1  0  0  0  0
 21 47  1  0  0  0  0
 21 48  1  0  0  0  0
 21 49  1  0  0  0  0
M  END
>  <DRUGBANK_ID>
DB00297

>  <SECONDARY_ACCESSION_NUMBERS>
APRD00247

>  <COMMON_NAME>
Bupivacaine

>  <CAS_NUMBER>
38396-39-3

>  <UNII>
Y8335394RO

>  <SYNONYMS>
(Â±)-bupivacaine; (RS)-bupivacaine; 1-Butyl-2',6'-pipecoloxylidide; 1-Butyl-N-(2,6-dimethylphenyl)-2-piperidinecarboxamide; Bupivacaina; Bupivacaine; Bupivacainum; dl-1-Butyl-2',6'-pipecoloxylidide; DL-Bupivacaine; Racemic bupivacaine

$$$$
