
 OpenBabel10282417072D

 42 45  0  0  0  0  0  0  0  0999 V2000
   -2.1958    1.2260    0.0000 C   0  0  0  0  0  0  0  0  0  0  0  0
   -2.1958    2.0510    0.0000 C   0  0  0  0  0  0  0  0  0  0  0  0
   -1.4813    2.4635    0.0000 C   0  0  0  0  0  0  0  0  0  0  0  0
   -1.4813    0.8135    0.0000 C   0  0  0  0  0  0  0  0  0  0  0  0
   -0.7668    1.2260    0.0000 C   0  0  0  0  0  0  0  0  0  0  0  0
   -0.7668    2.0510    0.0000 C   0  0  0  0  0  0  0  0  0  0  0  0
   -0.0524    2.4635    0.0000 C   0  0  0  0  0  0  0  0  0  0  0  0
    0.6620    2.0510    0.0000 C   0  0  0  0  0  0  0  0  0  0  0  0
    0.6620    1.2260    0.0000 C   0  0  0  0  0  0  0  0  0  0  0  0
   -0.0524    0.8135    0.0000 C   0  0  0  0  0  0  0  0  0  0  0  0
    1.3765    0.8135    0.0000 O   0  0  0  0  0  0  0  0  0  0  0  0
   -0.0524   -0.0114    0.0000 C   0  0  0  0  0  0  0  0  0  0  0  0
    0.6620   -0.4239    0.0000 C   0  0  0  0  0  0  0  0  0  0  0  0
    1.3765   -0.0114    0.0000 C   0  0  0  0  0  0  0  0  0  0  0  0
    2.0909   -0.4239    0.0000 N   0  0  0  0  0  0  0  0  0  0  0  0
    2.0909   -1.2489    0.0000 C   0  0  0  0  0  0  0  0  0  0  0  0
    1.3765   -1.6614    0.0000 N   0  0  0  0  0  0  0  0  0  0  0  0
    0.6620   -1.2489    0.0000 C   0  0  0  0  0  0  0  0  0  0  0  0
    1.8614    0.6560    0.0000 O   0  0  0  0  0  0  0  0  0  0  0  0
    2.8054   -1.6614    0.0000 S   0  0  0  0  0  0  0  0  0  0  0  0
   -0.0524   -1.6614    0.0000 C   0  0  0  0  0  0  0  0  0  0  0  0
   -0.0524   -2.4864    0.0000 C   0  0  0  0  0  0  0  0  0  0  0  0
   -0.7668   -2.8989    0.0000 C   0  0  0  0  0  0  0  0  0  0  0  0
   -1.4813   -2.4864    0.0000 C   0  0  0  0  0  0  0  0  0  0  0  0
   -1.4813   -1.6614    0.0000 C   0  0  0  0  0  0  0  0  0  0  0  0
   -0.7668   -1.2489    0.0000 C   0  0  0  0  0  0  0  0  0  0  0  0
   -3.0895    0.7100    0.0000 H   0  0  0  0  0  0  0  0  0  0  0  0
   -3.0895    2.5670    0.0000 H   0  0  0  0  0  0  0  0  0  0  0  0
   -1.4813    3.4955    0.0000 H   0  0  0  0  0  0  0  0  0  0  0  0
   -1.4813   -0.2185    0.0000 H   0  0  0  0  0  0  0  0  0  0  0  0
   -0.0524    3.4955    0.0000 H   0  0  0  0  0  0  0  0  0  0  0  0
    1.5557    2.5670    0.0000 H   0  0  0  0  0  0  0  0  0  0  0  0
    1.3765   -0.1235    0.0000 H   0  0  0  0  0  0  0  0  0  0  0  0
   -0.9791   -0.5464    0.0000 H   0  0  0  0  0  0  0  0  0  0  0  0
   -0.9790    0.5236    0.0000 H   0  0  0  0  0  0  0  0  0  0  0  0
    2.9435    0.0683    0.0000 H   0  0  0  0  0  0  0  0  0  0  0  0
    1.3765   -2.6459    0.0000 H   0  0  0  0  0  0  0  0  0  0  0  0
    0.8413   -3.0024    0.0000 H   0  0  0  0  0  0  0  0  0  0  0  0
   -0.7668   -3.9309    0.0000 H   0  0  0  0  0  0  0  0  0  0  0  0
   -2.3750   -3.0024    0.0000 H   0  0  0  0  0  0  0  0  0  0  0  0
   -2.3750   -1.1454    0.0000 H   0  0  0  0  0  0  0  0  0  0  0  0
   -0.7668   -0.2169    0.0000 H   0  0  0  0  0  0  0  0  0  0  0  0
  1  2  2  0  0  0  0
  1 27  1  0  0  0  0
  2  3  1  0  0  0  0
  2 28  1  0  0  0  0
  3  6  2  0  0  0  0
  3 29  1  0  0  0  0
  4  1  1  0  0  0  0
  4 30  1  0  0  0  0
  5  6  1  0  0  0  0
  5  4  2  0  0  0  0
  6  7  1  0  0  0  0
  7  8  2  0  0  0  0
  7 31  1  0  0  0  0
  8  9  1  0  0  0  0
  8 32  1  0  0  0  0
  9 10  2  0  0  0  0
  9 11  1  0  0  0  0
 10  5  1  0  0  0  0
 10 12  1  0  0  0  0
 11 33  1  0  0  0  0
 12 13  1  0  0  0  0
 12 34  1  0  0  0  0
 12 35  1  0  0  0  0
 13 14  1  0  0  0  0
 13 18  2  0  0  0  0
 14 15  1  0  0  0  0
 14 19  2  0  0  0  0
 15 16  1  0  0  0  0
 15 36  1  0  0  0  0
 16 17  1  0  0  0  0
 16 20  2  0  0  0  0
 17 18  1  0  0  0  0
 17 37  1  0  0  0  0
 18 21  1  0  0  0  0
 21 22  2  0  0  0  0
 22 23  1  0  0  0  0
 22 38  1  0  0  0  0
 23 24  2  0  0  0  0
 23 39  1  0  0  0  0
 24 25  1  0  0  0  0
 24 40  1  0  0  0  0
 25 26  2  0  0  0  0
 25 41  1  0  0  0  0
 26 21  1  0  0  0  0
 26 42  1  0  0  0  0
M  END
>  <DRUGBANK_ID>
DB15493

>  <COMMON_NAME>
Cambinol

>  <CAS_NUMBER>
14513-15-6

>  <UNII>
8S2PHY4FNC

$$$$
