
 OpenBabel10282417072D

 33 33  0  0  0  0  0  0  0  0999 V2000
    0.0000    0.6188    0.0000 O   0  0  0  0  0  0  0  0  0  0  0  0
   -0.7144    0.2063    0.0000 C   0  0  1  0  0  0  0  0  0  0  0  0
   -0.7144   -0.6186    0.0000 C   0  0  1  0  0  0  0  0  0  0  0  0
    0.0000   -1.0312    0.0000 C   0  0  1  0  0  0  0  0  0  0  0  0
    0.7144   -0.6186    0.0000 C   0  0  2  0  0  0  0  0  0  0  0  0
    0.7144    0.2063    0.0000 C   0  0  2  0  0  0  0  0  0  0  0  0
    1.4289    0.6188    0.0000 S   0  0  0  0  0  0  0  0  0  0  0  0
    0.0000   -1.8563    0.0000 O   0  0  0  0  0  0  0  0  0  0  0  0
   -1.4289   -1.0312    0.0000 O   0  0  0  0  0  0  0  0  0  0  0  0
   -1.4289    0.6188    0.0000 C   0  0  0  0  0  0  0  0  0  0  0  0
    1.4289   -1.0312    0.0000 O   0  0  0  0  0  0  0  0  0  0  0  0
   -2.1433    0.2063    0.0000 O   0  0  0  0  0  0  0  0  0  0  0  0
    1.4289    1.4438    0.0000 C   0  0  0  0  0  0  0  0  0  0  0  0
    2.1433    1.8563    0.0000 C   0  0  0  0  0  0  0  0  0  0  0  0
    0.7144    1.8563    0.0000 C   0  0  0  0  0  0  0  0  0  0  0  0
   -0.7144    1.2763    0.0000 H   0  0  0  0  0  0  0  0  0  0  0  0
   -1.6411   -0.0836    0.0000 H   0  0  0  0  0  0  0  0  0  0  0  0
   -0.9267   -1.5661    0.0000 H   0  0  0  0  0  0  0  0  0  0  0  0
    0.7144   -1.6886    0.0000 H   0  0  0  0  0  0  0  0  0  0  0  0
    0.7144    1.2763    0.0000 H   0  0  0  0  0  0  0  0  0  0  0  0
   -0.8400   -2.3413    0.0000 H   0  0  0  0  0  0  0  0  0  0  0  0
   -2.2690   -0.5463    0.0000 H   0  0  0  0  0  0  0  0  0  0  0  0
   -1.4289    1.6888    0.0000 H   0  0  0  0  0  0  0  0  0  0  0  0
   -2.3556    1.1538    0.0000 H   0  0  0  0  0  0  0  0  0  0  0  0
    1.4288   -2.0012    0.0000 H   0  0  0  0  0  0  0  0  0  0  0  0
   -2.9834    0.6913    0.0000 H   0  0  0  0  0  0  0  0  0  0  0  0
    1.4289    2.5138    0.0000 H   0  0  0  0  0  0  0  0  0  0  0  0
    3.0700    1.3213    0.0000 H   0  0  0  0  0  0  0  0  0  0  0  0
    2.1433    2.9263    0.0000 H   0  0  0  0  0  0  0  0  0  0  0  0
    3.0699    2.3913    0.0000 H   0  0  0  0  0  0  0  0  0  0  0  0
    0.7144    2.9263    0.0000 H   0  0  0  0  0  0  0  0  0  0  0  0
   -0.2122    1.3213    0.0000 H   0  0  0  0  0  0  0  0  0  0  0  0
   -0.2123    2.3913    0.0000 H   0  0  0  0  0  0  0  0  0  0  0  0
  1  2  1  0  0  0  0
  1  6  1  0  0  0  0
  2  3  1  0  0  0  0
  2 10  1  0  0  0  0
  2 16  1  6  0  0  0
  3  4  1  0  0  0  0
  3  9  1  0  0  0  0
  3 17  1  6  0  0  0
  4  5  1  0  0  0  0
  4  8  1  0  0  0  0
  4 18  1  6  0  0  0
  5  6  1  0  0  0  0
  5 11  1  0  0  0  0
  5 19  1  1  0  0  0
  6  7  1  0  0  0  0
  6 20  1  6  0  0  0
  7 13  1  0  0  0  0
  8 21  1  0  0  0  0
  9 22  1  0  0  0  0
 10 12  1  0  0  0  0
 10 23  1  0  0  0  0
 10 24  1  0  0  0  0
 11 25  1  0  0  0  0
 12 26  1  0  0  0  0
 13 14  1  0  0  0  0
 13 15  1  0  0  0  0
 13 27  1  0  0  0  0
 14 28  1  0  0  0  0
 14 29  1  0  0  0  0
 14 30  1  0  0  0  0
 15 31  1  0  0  0  0
 15 32  1  0  0  0  0
 15 33  1  0  0  0  0
M  END
>  <DRUGBANK_ID>
DB01862

>  <SECONDARY_ACCESSION_NUMBERS>
EXPT01924

>  <COMMON_NAME>
Isopropyl beta-D-thiogalactopyranoside

>  <CAS_NUMBER>
367-93-1

>  <UNII>
X73VV2246B

>  <SYNONYMS>
IPTG; isopropyl thiogalactoside; isopropyl β-D-1-thiogalactopyranoside; isopropyl β-D-thiogalactopyranoside; isopropyl β-D-thiogalactoside; isopropyl-β-D-thiogalactopyranoside; isopropyl-β-D-thiogalactoside

$$$$
