
 OpenBabel10282417072D

 51 52  0  0  0  0  0  0  0  0999 V2000
    3.5724   -3.7125    0.0000 C   0  0  0  0  0  0  0  0  0  0  0  0
    4.2868   -4.1250    0.0000 O   0  0  0  0  0  0  0  0  0  0  0  0
    4.2868   -4.9500    0.0000 C   0  0  0  0  0  0  0  0  0  0  0  0
    5.0013   -5.3625    0.0000 C   0  0  0  0  0  0  0  0  0  0  0  0
    5.0013   -6.1875    0.0000 C   0  0  0  0  0  0  0  0  0  0  0  0
    4.2868   -6.6000    0.0000 C   0  0  0  0  0  0  0  0  0  0  0  0
    3.5724   -6.1875    0.0000 C   0  0  0  0  0  0  0  0  0  0  0  0
    3.5724   -5.3625    0.0000 C   0  0  0  0  0  0  0  0  0  0  0  0
    2.8579   -4.9500    0.0000 O   0  0  0  0  0  0  0  0  0  0  0  0
    5.7158   -6.6000    0.0000 C   0  0  0  0  0  0  0  0  0  0  0  0
    5.7158   -7.4250    0.0000 C   0  0  0  0  0  0  0  0  0  0  0  0
    6.4302   -7.8375    0.0000 C   0  0  0  0  0  0  0  0  0  0  0  0
    7.1447   -7.4250    0.0000 O   0  0  0  0  0  0  0  0  0  0  0  0
    6.4302   -8.6625    0.0000 C   0  0  0  0  0  0  0  0  0  0  0  0
    7.1447   -9.0750    0.0000 C   0  0  0  0  0  0  0  0  0  0  0  0
    7.8592   -8.6625    0.0000 O   0  0  0  0  0  0  0  0  0  0  0  0
    7.1447   -9.9000    0.0000 C   0  0  0  0  0  0  0  0  0  0  0  0
    7.8592  -10.3125    0.0000 C   0  0  0  0  0  0  0  0  0  0  0  0
    7.8592  -11.1375    0.0000 C   0  0  0  0  0  0  0  0  0  0  0  0
    8.5737  -11.5500    0.0000 C   0  0  0  0  0  0  0  0  0  0  0  0
    8.5737  -12.3750    0.0000 C   0  0  0  0  0  0  0  0  0  0  0  0
    7.8592  -12.7875    0.0000 C   0  0  0  0  0  0  0  0  0  0  0  0
    7.1447  -12.3750    0.0000 C   0  0  0  0  0  0  0  0  0  0  0  0
    7.1447  -11.5500    0.0000 C   0  0  0  0  0  0  0  0  0  0  0  0
    6.4302  -12.7875    0.0000 O   0  0  0  0  0  0  0  0  0  0  0  0
    5.7158  -12.3750    0.0000 C   0  0  0  0  0  0  0  0  0  0  0  0
    7.8592  -13.6125    0.0000 O   0  0  0  0  0  0  0  0  0  0  0  0
    8.5737  -14.0250    0.0000 S   0  0  0  0  0  0  0  0  0  0  0  0
    9.2881  -14.4375    0.0000 O   0  0  0  0  0  0  0  0  0  0  0  0
    8.1612  -14.7395    0.0000 O   0  0  0  0  0  0  0  0  0  0  0  0
    8.9862  -13.3105    0.0000 O   0  0  0  0  0  0  0  0  0  0  0  0
    3.5724   -2.6425    0.0000 H   0  0  0  0  0  0  0  0  0  0  0  0
    2.6457   -4.2475    0.0000 H   0  0  0  0  0  0  0  0  0  0  0  0
    2.6458   -3.1775    0.0000 H   0  0  0  0  0  0  0  0  0  0  0  0
    5.8950   -4.8465    0.0000 H   0  0  0  0  0  0  0  0  0  0  0  0
    4.2868   -7.6320    0.0000 H   0  0  0  0  0  0  0  0  0  0  0  0
    2.6787   -6.7035    0.0000 H   0  0  0  0  0  0  0  0  0  0  0  0
    2.8579   -4.0130    0.0000 H   0  0  0  0  0  0  0  0  0  0  0  0
    6.6095   -6.0840    0.0000 H   0  0  0  0  0  0  0  0  0  0  0  0
    4.8221   -7.9410    0.0000 H   0  0  0  0  0  0  0  0  0  0  0  0
    5.5036   -9.1975    0.0000 H   0  0  0  0  0  0  0  0  0  0  0  0
    6.4302   -9.7325    0.0000 H   0  0  0  0  0  0  0  0  0  0  0  0
    6.2510  -10.4160    0.0000 H   0  0  0  0  0  0  0  0  0  0  0  0
    8.7529   -9.7965    0.0000 H   0  0  0  0  0  0  0  0  0  0  0  0
    9.4674  -11.0340    0.0000 H   0  0  0  0  0  0  0  0  0  0  0  0
    9.4674  -12.8910    0.0000 H   0  0  0  0  0  0  0  0  0  0  0  0
    6.2510  -11.0340    0.0000 H   0  0  0  0  0  0  0  0  0  0  0  0
    5.7158  -11.3050    0.0000 H   0  0  0  0  0  0  0  0  0  0  0  0
    4.7891  -12.9100    0.0000 H   0  0  0  0  0  0  0  0  0  0  0  0
    4.7892  -11.8400    0.0000 H   0  0  0  0  0  0  0  0  0  0  0  0
    9.9562  -13.3105    0.0000 H   0  0  0  0  0  0  0  0  0  0  0  0
  1  2  1  0  0  0  0
  1 32  1  0  0  0  0
  1 33  1  0  0  0  0
  1 34  1  0  0  0  0
  2  3  1  0  0  0  0
  3  4  2  0  0  0  0
  3  8  1  0  0  0  0
  4  5  1  0  0  0  0
  4 35  1  0  0  0  0
  5  6  2  0  0  0  0
  5 10  1  0  0  0  0
  6  7  1  0  0  0  0
  6 36  1  0  0  0  0
  7  8  2  0  0  0  0
  7 37  1  0  0  0  0
  8  9  1  0  0  0  0
  9 38  1  0  0  0  0
 10 11  2  0  0  0  0
 10 39  1  0  0  0  0
 11 12  1  0  0  0  0
 11 40  1  0  0  0  0
 12 13  2  0  0  0  0
 12 14  1  0  0  0  0
 14 15  1  0  0  0  0
 14 41  1  0  0  0  0
 14 42  1  0  0  0  0
 15 16  2  0  0  0  0
 15 17  1  0  0  0  0
 17 18  2  0  0  0  0
 17 43  1  0  0  0  0
 18 19  1  0  0  0  0
 18 44  1  0  0  0  0
 19 20  2  0  0  0  0
 19 24  1  0  0  0  0
 20 21  1  0  0  0  0
 20 45  1  0  0  0  0
 21 22  2  0  0  0  0
 21 46  1  0  0  0  0
 22 23  1  0  0  0  0
 22 27  1  0  0  0  0
 23 24  2  0  0  0  0
 23 25  1  0  0  0  0
 24 47  1  0  0  0  0
 25 26  1  0  0  0  0
 26 48  1  0  0  0  0
 26 49  1  0  0  0  0
 26 50  1  0  0  0  0
 27 28  1  0  0  0  0
 28 29  2  0  0  0  0
 28 30  2  0  0  0  0
 28 31  1  0  0  0  0
 31 51  1  0  0  0  0
M  END
>  <DRUGBANK_ID>
DB14635

>  <SECONDARY_ACCESSION_NUMBERS>
DBSALT002044

>  <COMMON_NAME>
Curcumin sulfate

>  <CAS_NUMBER>
339286-19-0

>  <UNII>
160DHE331M

>  <SYNONYMS>
Curcumin monosulfate; Curcumin sulphate

$$$$
