
 OpenBabel10282417072D

 22 21  0  0  0  0  0  0  0  0999 V2000
   -5.3036    1.7089    0.0000 O   0  0  0  0  0  0  0  0  0  0  0  0
   -4.5891    2.1214    0.0000 C   0  0  0  0  0  0  0  0  0  0  0  0
   -3.8746    1.7089    0.0000 C   0  0  0  0  0  0  0  0  0  0  0  0
   -3.1602    2.1214    0.0000 C   0  0  2  0  0  0  0  0  0  0  0  0
   -2.4457    1.7089    0.0000 C   0  0  0  0  0  0  0  0  0  0  0  0
   -1.7312    2.1214    0.0000 C   0  0  0  0  0  0  0  0  0  0  0  0
   -1.0167    1.7089    0.0000 O   0  0  0  0  0  0  0  0  0  0  0  0
   -3.5727    2.8359    0.0000 O   0  0  0  0  0  0  0  0  0  0  0  0
   -2.7477    2.8359    0.0000 C   0  0  0  0  0  0  0  0  0  0  0  0
   -1.7312    2.9464    0.0000 O   0  0  0  0  0  0  0  0  0  0  0  0
   -6.1436    2.1939    0.0000 H   0  0  0  0  0  0  0  0  0  0  0  0
   -4.5891    3.1914    0.0000 H   0  0  0  0  0  0  0  0  0  0  0  0
   -3.6625    2.6564    0.0000 H   0  0  0  0  0  0  0  0  0  0  0  0
   -3.8746    0.6389    0.0000 H   0  0  0  0  0  0  0  0  0  0  0  0
   -2.9479    1.1739    0.0000 H   0  0  0  0  0  0  0  0  0  0  0  0
   -2.4457    0.6389    0.0000 H   0  0  0  0  0  0  0  0  0  0  0  0
   -1.5191    1.1739    0.0000 H   0  0  0  0  0  0  0  0  0  0  0  0
   -1.0167    0.7719    0.0000 H   0  0  0  0  0  0  0  0  0  0  0  0
   -3.0877    3.6759    0.0000 H   0  0  0  0  0  0  0  0  0  0  0  0
   -1.6777    2.8359    0.0000 H   0  0  0  0  0  0  0  0  0  0  0  0
   -3.2827    3.7625    0.0000 H   0  0  0  0  0  0  0  0  0  0  0  0
   -2.2127    3.7626    0.0000 H   0  0  0  0  0  0  0  0  0  0  0  0
  1  2  1  0  0  0  0
  1 11  1  0  0  0  0
  2  3  1  0  0  0  0
  2 12  1  0  0  0  0
  2 13  1  0  0  0  0
  3  4  1  0  0  0  0
  3 14  1  0  0  0  0
  3 15  1  0  0  0  0
  4  5  1  0  0  0  0
  4  8  1  1  0  0  0
  4  9  1  0  0  0  0
  5  6  1  0  0  0  0
  5 16  1  0  0  0  0
  5 17  1  0  0  0  0
  6  7  1  0  0  0  0
  6 10  2  0  0  0  0
  7 18  1  0  0  0  0
  8 19  1  0  0  0  0
  9 20  1  0  0  0  0
  9 21  1  0  0  0  0
  9 22  1  0  0  0  0
M  END
>  <DRUGBANK_ID>
DB03518

>  <SECONDARY_ACCESSION_NUMBERS>
EXPT02156

>  <COMMON_NAME>
Mevalonic acid

>  <CAS_NUMBER>
150-97-0

>  <UNII>
S5UOB36OCZ

>  <SYNONYMS>
(R)-3,5-dihydroxy-3-methylvaleric acid; (R)-mevalonate; (R)-mevalonic acid; 3,5-Dihydroxy-3-methylvaleric acid

$$$$
