
 OpenBabel10282417072D

 51 51  0  0  0  0  0  0  0  0999 V2000
   -2.0076   -0.2062    0.0000 S   0  0  0  0  0  0  0  0  0  0  0  0
    0.1357    1.8562    0.0000 O   0  0  0  0  0  0  0  0  0  0  0  0
   -0.5787    2.2687    0.0000 O   0  0  0  0  0  0  0  0  0  0  0  0
   -2.7221   -3.9187    0.0000 O   0  0  0  0  0  0  0  0  0  0  0  0
   -2.7221    4.3312    0.0000 O   0  0  0  0  0  0  0  0  0  0  0  0
   -3.4366    3.0937    0.0000 O   0  0  0  0  0  0  0  0  0  0  0  0
   -0.5787    0.6187    0.0000 N   0  0  0  0  0  0  0  0  0  0  0  0
   -2.0076    2.2687    0.0000 N   0  0  0  0  0  0  0  0  0  0  0  0
    2.9935    1.0312    0.0000 N   0  0  0  0  0  0  0  0  0  0  0  0
   -1.2931    1.0312    0.0000 C   0  0  1  0  0  0  0  0  0  0  0  0
   -2.0076    0.6187    0.0000 C   0  0  0  0  0  0  0  0  0  0  0  0
    0.8502    0.6187    0.0000 C   0  0  0  0  0  0  0  0  0  0  0  0
    1.5646    1.0312    0.0000 C   0  0  0  0  0  0  0  0  0  0  0  0
    0.1357    1.0312    0.0000 C   0  0  0  0  0  0  0  0  0  0  0  0
   -1.2931    1.8562    0.0000 C   0  0  0  0  0  0  0  0  0  0  0  0
   -2.7221   -0.6187    0.0000 C   0  0  0  0  0  0  0  0  0  0  0  0
    2.2791    0.6187    0.0000 C   0  0  0  0  0  0  0  0  0  0  0  0
   -2.7221   -1.4437    0.0000 C   0  0  0  0  0  0  0  0  0  0  0  0
   -2.0076    3.0937    0.0000 C   0  0  0  0  0  0  0  0  0  0  0  0
   -2.0076   -1.8562    0.0000 C   0  0  0  0  0  0  0  0  0  0  0  0
   -3.4366   -1.8562    0.0000 C   0  0  0  0  0  0  0  0  0  0  0  0
   -2.0076   -2.6812    0.0000 C   0  0  0  0  0  0  0  0  0  0  0  0
   -3.4366   -2.6812    0.0000 C   0  0  0  0  0  0  0  0  0  0  0  0
   -2.7221   -3.0937    0.0000 C   0  0  0  0  0  0  0  0  0  0  0  0
   -2.7221    3.5062    0.0000 C   0  0  0  0  0  0  0  0  0  0  0  0
   -3.4366   -4.3312    0.0000 C   0  0  0  0  0  0  0  0  0  0  0  0
   -0.5787    0.1072    0.0000 H   0  0  0  0  0  0  0  0  0  0  0  0
   -2.4506    2.0130    0.0000 H   0  0  0  0  0  0  0  0  0  0  0  0
    2.9935    1.5427    0.0000 H   0  0  0  0  0  0  0  0  0  0  0  0
    3.4366    0.7755    0.0000 H   0  0  0  0  0  0  0  0  0  0  0  0
   -1.9106    4.7997    0.0000 H   0  0  0  0  0  0  0  0  0  0  0  0
   -1.2931   -0.0388    0.0000 H   0  0  0  0  0  0  0  0  0  0  0  0
   -2.9342    1.1537    0.0000 H   0  0  0  0  0  0  0  0  0  0  0  0
   -2.0076    1.6887    0.0000 H   0  0  0  0  0  0  0  0  0  0  0  0
    0.8502   -0.4513    0.0000 H   0  0  0  0  0  0  0  0  0  0  0  0
   -0.0764    0.0837    0.0000 H   0  0  0  0  0  0  0  0  0  0  0  0
    1.5646    2.1012    0.0000 H   0  0  0  0  0  0  0  0  0  0  0  0
    2.4912    1.5662    0.0000 H   0  0  0  0  0  0  0  0  0  0  0  0
   -3.6487   -0.0837    0.0000 H   0  0  0  0  0  0  0  0  0  0  0  0
   -3.6487   -1.1537    0.0000 H   0  0  0  0  0  0  0  0  0  0  0  0
    2.2791   -0.4513    0.0000 H   0  0  0  0  0  0  0  0  0  0  0  0
    1.3525    0.0837    0.0000 H   0  0  0  0  0  0  0  0  0  0  0  0
   -1.0810    3.6287    0.0000 H   0  0  0  0  0  0  0  0  0  0  0  0
   -2.0076    4.1637    0.0000 H   0  0  0  0  0  0  0  0  0  0  0  0
   -1.1139   -1.3402    0.0000 H   0  0  0  0  0  0  0  0  0  0  0  0
   -4.3303   -1.3402    0.0000 H   0  0  0  0  0  0  0  0  0  0  0  0
   -1.1139   -3.1972    0.0000 H   0  0  0  0  0  0  0  0  0  0  0  0
   -4.3303   -3.1972    0.0000 H   0  0  0  0  0  0  0  0  0  0  0  0
   -4.3632   -3.7962    0.0000 H   0  0  0  0  0  0  0  0  0  0  0  0
   -3.4366   -5.4012    0.0000 H   0  0  0  0  0  0  0  0  0  0  0  0
   -4.3633   -4.8662    0.0000 H   0  0  0  0  0  0  0  0  0  0  0  0
  1 11  1  0  0  0  0
  1 16  1  0  0  0  0
  2 14  2  0  0  0  0
  3 15  2  0  0  0  0
  4 24  1  0  0  0  0
  4 26  1  0  0  0  0
  5 25  1  0  0  0  0
  5 31  1  0  0  0  0
  6 25  2  0  0  0  0
  7 14  1  0  0  0  0
  7 27  1  0  0  0  0
  8 15  1  0  0  0  0
  8 19  1  0  0  0  0
  8 28  1  0  0  0  0
  9 17  1  0  0  0  0
  9 29  1  0  0  0  0
  9 30  1  0  0  0  0
 10  7  1  0  0  0  0
 10 11  1  0  0  0  0
 10 15  1  0  0  0  0
 10 32  1  6  0  0  0
 11 33  1  0  0  0  0
 11 34  1  0  0  0  0
 12 13  1  0  0  0  0
 12 14  1  0  0  0  0
 12 35  1  0  0  0  0
 12 36  1  0  0  0  0
 13 17  1  0  0  0  0
 13 37  1  0  0  0  0
 13 38  1  0  0  0  0
 16 18  1  0  0  0  0
 16 39  1  0  0  0  0
 16 40  1  0  0  0  0
 17 41  1  0  0  0  0
 17 42  1  0  0  0  0
 18 20  2  0  0  0  0
 18 21  1  0  0  0  0
 19 25  1  0  0  0  0
 19 43  1  0  0  0  0
 19 44  1  0  0  0  0
 20 22  1  0  0  0  0
 20 45  1  0  0  0  0
 21 23  2  0  0  0  0
 21 46  1  0  0  0  0
 22 24  2  0  0  0  0
 22 47  1  0  0  0  0
 23 24  1  0  0  0  0
 23 48  1  0  0  0  0
 26 49  1  0  0  0  0
 26 50  1  0  0  0  0
 26 51  1  0  0  0  0
M  END
>  <DRUGBANK_ID>
DB02943

>  <SECONDARY_ACCESSION_NUMBERS>
EXPT00404

>  <COMMON_NAME>
N-(4-Aminobutanoyl)-S-(4-methoxybenzyl)-L-cysteinylglycine

$$$$
