
 OpenBabel10282417072D

 43 44  0  0  0  0  0  0  0  0999 V2000
   -2.1434   -0.9239    0.0000 N   0  0  0  0  0  0  0  0  0  0  0  0
   -1.4289   -0.5114    0.0000 C   0  0  0  0  0  0  0  0  0  0  0  0
   -0.7145   -0.9239    0.0000 N   0  0  0  0  0  0  0  0  0  0  0  0
   -1.4289    0.3135    0.0000 O   0  0  0  0  0  0  0  0  0  0  0  0
    0.0000   -0.5114    0.0000 C   0  0  0  0  0  0  0  0  0  0  0  0
    0.7145   -0.9239    0.0000 N   0  0  0  0  0  0  0  0  0  0  0  0
    1.4289   -0.5114    0.0000 C   0  0  0  0  0  0  0  0  0  0  0  0
    2.1434   -0.9239    0.0000 N   0  0  0  0  0  0  0  0  0  0  0  0
    1.4289    0.3135    0.0000 O   0  0  0  0  0  0  0  0  0  0  0  0
    2.8579   -0.5114    0.0000 C   0  0  3  0  0  0  0  0  0  0  0  0
    2.8579    0.3135    0.0000 N   0  0  0  0  0  0  0  0  0  0  0  0
    3.6425   -0.7663    0.0000 C   0  0  0  0  0  0  0  0  0  0  0  0
    3.6425    0.5684    0.0000 C   0  0  0  0  0  0  0  0  0  0  0  0
    2.1434    0.7260    0.0000 C   0  0  0  0  0  0  0  0  0  0  0  0
    4.1274   -0.0989    0.0000 N   0  0  0  0  0  0  0  0  0  0  0  0
    3.8974   -1.5510    0.0000 O   0  0  0  0  0  0  0  0  0  0  0  0
    3.8974    1.3531    0.0000 O   0  0  0  0  0  0  0  0  0  0  0  0
    2.1434    1.5510    0.0000 O   0  0  0  0  0  0  0  0  0  0  0  0
   -2.8579   -0.5114    0.0000 C   0  0  3  0  0  0  0  0  0  0  0  0
   -2.8579    0.3135    0.0000 N   0  0  0  0  0  0  0  0  0  0  0  0
   -3.6425   -0.7663    0.0000 C   0  0  0  0  0  0  0  0  0  0  0  0
   -3.6425    0.5684    0.0000 C   0  0  0  0  0  0  0  0  0  0  0  0
   -2.1434    0.7260    0.0000 C   0  0  0  0  0  0  0  0  0  0  0  0
   -4.1274   -0.0989    0.0000 N   0  0  0  0  0  0  0  0  0  0  0  0
   -3.8974   -1.5510    0.0000 O   0  0  0  0  0  0  0  0  0  0  0  0
   -3.8974    1.3531    0.0000 O   0  0  0  0  0  0  0  0  0  0  0  0
   -2.1434    1.5510    0.0000 O   0  0  0  0  0  0  0  0  0  0  0  0
   -2.1434   -1.9084    0.0000 H   0  0  0  0  0  0  0  0  0  0  0  0
   -0.7145   -1.9084    0.0000 H   0  0  0  0  0  0  0  0  0  0  0  0
    0.0000    0.5586    0.0000 H   0  0  0  0  0  0  0  0  0  0  0  0
    0.9266    0.0236    0.0000 H   0  0  0  0  0  0  0  0  0  0  0  0
    0.7145   -1.9084    0.0000 H   0  0  0  0  0  0  0  0  0  0  0  0
    2.1434   -1.9084    0.0000 H   0  0  0  0  0  0  0  0  0  0  0  0
    1.9313    0.0236    0.0000 H   0  0  0  0  0  0  0  0  0  0  0  0
    1.2168    0.1910    0.0000 H   0  0  0  0  0  0  0  0  0  0  0  0
    1.2168    1.2610    0.0000 H   0  0  0  0  0  0  0  0  0  0  0  0
    5.1119   -0.0989    0.0000 H   0  0  0  0  0  0  0  0  0  0  0  0
    2.9834    2.0360    0.0000 H   0  0  0  0  0  0  0  0  0  0  0  0
   -1.9313    0.0236    0.0000 H   0  0  0  0  0  0  0  0  0  0  0  0
   -1.2168    0.1910    0.0000 H   0  0  0  0  0  0  0  0  0  0  0  0
   -1.2168    1.2610    0.0000 H   0  0  0  0  0  0  0  0  0  0  0  0
   -5.1119   -0.0989    0.0000 H   0  0  0  0  0  0  0  0  0  0  0  0
   -1.3034    2.0360    0.0000 H   0  0  0  0  0  0  0  0  0  0  0  0
  1 19  1  0  0  0  0
  1 28  1  0  0  0  0
  2  1  1  0  0  0  0
  3  2  1  0  0  0  0
  3 29  1  0  0  0  0
  4  2  2  0  0  0  0
  5  3  1  0  0  0  0
  5 30  1  0  0  0  0
  5 31  1  0  0  0  0
  6  5  1  0  0  0  0
  6 32  1  0  0  0  0
  7  6  1  0  0  0  0
  8  7  1  0  0  0  0
  8 33  1  0  0  0  0
  9  7  2  0  0  0  0
 10  8  1  0  0  0  0
 10 34  1  0  0  0  0
 11 10  1  0  0  0  0
 12 10  1  0  0  0  0
 13 11  1  0  0  0  0
 14 11  1  0  0  0  0
 14 35  1  0  0  0  0
 14 36  1  0  0  0  0
 15 12  1  0  0  0  0
 15 13  1  0  0  0  0
 15 37  1  0  0  0  0
 16 12  2  0  0  0  0
 17 13  2  0  0  0  0
 18 14  1  0  0  0  0
 18 38  1  0  0  0  0
 19 39  1  0  0  0  0
 20 19  1  0  0  0  0
 21 19  1  0  0  0  0
 22 20  1  0  0  0  0
 23 20  1  0  0  0  0
 23 40  1  0  0  0  0
 23 41  1  0  0  0  0
 24 21  1  0  0  0  0
 24 22  1  0  0  0  0
 24 42  1  0  0  0  0
 25 21  2  0  0  0  0
 26 22  2  0  0  0  0
 27 23  1  0  0  0  0
 27 43  1  0  0  0  0
M  END
>  <DRUGBANK_ID>
DB14075

>  <COMMON_NAME>
Imidurea

>  <CAS_NUMBER>
39236-46-9

>  <UNII>
M629807ATL

>  <SYNONYMS>
Imidazolidinyl urea

$$$$
